# generated using pymatgen
data_K6Ga4Co3H84C516(N6O25)2
_symmetry_space_group_name_H-M   'P 1'
_cell_length_a   50.00400000
_cell_length_b   50.00400000
_cell_length_c   50.00400000
_cell_angle_alpha   90.00000000
_cell_angle_beta   90.00000000
_cell_angle_gamma   90.00000000
_symmetry_Int_Tables_number   1
_chemical_formula_structural   K6Ga4Co3H84C516(N6O25)2
_chemical_formula_sum   'K96 Ga64 Co48 H1344 C8256 N192 O800'
_cell_volume   125030.00240006
_cell_formula_units_Z   16
loop_
 _symmetry_equiv_pos_site_id
 _symmetry_equiv_pos_as_xyz
  1  'x, y, z'
loop_
 _atom_site_type_symbol
 _atom_site_label
 _atom_site_symmetry_multiplicity
 _atom_site_fract_x
 _atom_site_fract_y
 _atom_site_fract_z
 _atom_site_occupancy
  K  K1  1  0.500000  0.532790  0.282790  1
  K  K2  1  0.750000  0.217210  0.782790  1
  K  K3  1  0.250000  0.032790  0.967210  1
  K  K4  1  0.000000  0.717210  0.467210  1
  K  K5  1  0.282790  0.500000  0.532790  1
  K  K6  1  0.782790  0.750000  0.217210  1
  K  K7  1  0.967210  0.250000  0.032790  1
  K  K8  1  0.467210  0.000000  0.717210  1
  K  K9  1  0.532790  0.282790  0.500000  1
  K  K10  1  0.217210  0.782790  0.750000  1
  K  K11  1  0.032790  0.967210  0.250000  1
  K  K12  1  0.717210  0.467210  0.000000  1
  K  K13  1  0.282790  0.750000  0.717210  1
  K  K14  1  0.967210  0.000000  0.217210  1
  K  K15  1  0.782790  0.500000  0.032790  1
  K  K16  1  0.467210  0.250000  0.532790  1
  K  K17  1  0.250000  0.532790  0.467210  1
  K  K18  1  0.500000  0.032790  0.782790  1
  K  K19  1  0.000000  0.217210  0.967210  1
  K  K20  1  0.750000  0.717210  0.282790  1
  K  K21  1  0.032790  0.782790  0.500000  1
  K  K22  1  0.532790  0.467210  0.250000  1
  K  K23  1  0.717210  0.282790  0.750000  1
  K  K24  1  0.217210  0.967210  0.000000  1
  K  K25  1  0.282790  0.000000  0.032790  1
  K  K26  1  0.782790  0.250000  0.717210  1
  K  K27  1  0.967210  0.750000  0.532790  1
  K  K28  1  0.467210  0.500000  0.217210  1
  K  K29  1  0.532790  0.782790  0.000000  1
  K  K30  1  0.217210  0.282790  0.250000  1
  K  K31  1  0.032790  0.467210  0.750000  1
  K  K32  1  0.717210  0.967210  0.500000  1
  K  K33  1  0.282790  0.250000  0.217210  1
  K  K34  1  0.967210  0.500000  0.717210  1
  K  K35  1  0.782790  0.000000  0.532790  1
  K  K36  1  0.467210  0.750000  0.032790  1
  K  K37  1  0.032790  0.282790  0.000000  1
  K  K38  1  0.532790  0.967210  0.750000  1
  K  K39  1  0.717210  0.782790  0.250000  1
  K  K40  1  0.217210  0.467210  0.500000  1
  K  K41  1  0.000000  0.532790  0.782790  1
  K  K42  1  0.250000  0.217210  0.282790  1
  K  K43  1  0.750000  0.032790  0.467210  1
  K  K44  1  0.500000  0.717210  0.967210  1
  K  K45  1  0.750000  0.532790  0.967210  1
  K  K46  1  0.000000  0.032790  0.282790  1
  K  K47  1  0.500000  0.217210  0.467210  1
  K  K48  1  0.250000  0.717210  0.782790  1
  K  K49  1  0.500000  0.467210  0.717210  1
  K  K50  1  0.250000  0.782790  0.217210  1
  K  K51  1  0.750000  0.967210  0.032790  1
  K  K52  1  0.000000  0.282790  0.532790  1
  K  K53  1  0.717210  0.500000  0.467210  1
  K  K54  1  0.217210  0.250000  0.782790  1
  K  K55  1  0.032790  0.750000  0.967210  1
  K  K56  1  0.532790  0.000000  0.282790  1
  K  K57  1  0.467210  0.717210  0.500000  1
  K  K58  1  0.782790  0.217210  0.250000  1
  K  K59  1  0.967210  0.032790  0.750000  1
  K  K60  1  0.282790  0.532790  0.000000  1
  K  K61  1  0.717210  0.250000  0.282790  1
  K  K62  1  0.032790  0.000000  0.782790  1
  K  K63  1  0.217210  0.500000  0.967210  1
  K  K64  1  0.532790  0.750000  0.467210  1
  K  K65  1  0.750000  0.467210  0.532790  1
  K  K66  1  0.500000  0.967210  0.217210  1
  K  K67  1  0.000000  0.782790  0.032790  1
  K  K68  1  0.250000  0.282790  0.717210  1
  K  K69  1  0.967210  0.217210  0.500000  1
  K  K70  1  0.467210  0.532790  0.750000  1
  K  K71  1  0.282790  0.717210  0.250000  1
  K  K72  1  0.782790  0.032790  0.000000  1
  K  K73  1  0.717210  0.000000  0.967210  1
  K  K74  1  0.217210  0.750000  0.282790  1
  K  K75  1  0.032790  0.250000  0.467210  1
  K  K76  1  0.532790  0.500000  0.782790  1
  K  K77  1  0.467210  0.217210  0.000000  1
  K  K78  1  0.782790  0.717210  0.750000  1
  K  K79  1  0.967210  0.532790  0.250000  1
  K  K80  1  0.282790  0.032790  0.500000  1
  K  K81  1  0.717210  0.750000  0.782790  1
  K  K82  1  0.032790  0.500000  0.282790  1
  K  K83  1  0.217210  0.000000  0.467210  1
  K  K84  1  0.532790  0.250000  0.967210  1
  K  K85  1  0.967210  0.717210  0.000000  1
  K  K86  1  0.467210  0.032790  0.250000  1
  K  K87  1  0.282790  0.217210  0.750000  1
  K  K88  1  0.782790  0.532790  0.500000  1
  K  K89  1  0.000000  0.467210  0.217210  1
  K  K90  1  0.750000  0.782790  0.717210  1
  K  K91  1  0.250000  0.967210  0.532790  1
  K  K92  1  0.500000  0.282790  0.032790  1
  K  K93  1  0.250000  0.467210  0.032790  1
  K  K94  1  0.000000  0.967210  0.717210  1
  K  K95  1  0.500000  0.782790  0.532790  1
  K  K96  1  0.750000  0.282790  0.217210  1
  Ga  Ga97  1  0.464040  0.464040  0.285960  1.0
  Ga  Ga98  1  0.785960  0.285960  0.785960  1.0
  Ga  Ga99  1  0.285960  0.964040  0.964040  1.0
  Ga  Ga100  1  0.964040  0.785960  0.464040  1.0
  Ga  Ga101  1  0.285960  0.464040  0.464040  1.0
  Ga  Ga102  1  0.785960  0.785960  0.285960  1.0
  Ga  Ga103  1  0.964040  0.285960  0.964040  1.0
  Ga  Ga104  1  0.464040  0.964040  0.785960  1.0
  Ga  Ga105  1  0.464040  0.285960  0.464040  1.0
  Ga  Ga106  1  0.285960  0.785960  0.785960  1.0
  Ga  Ga107  1  0.964040  0.964040  0.285960  1.0
  Ga  Ga108  1  0.785960  0.464040  0.964040  1.0
  Ga  Ga109  1  0.214040  0.714040  0.714040  1.0
  Ga  Ga110  1  0.035960  0.035960  0.214040  1.0
  Ga  Ga111  1  0.714040  0.535960  0.035960  1.0
  Ga  Ga112  1  0.535960  0.214040  0.535960  1.0
  Ga  Ga113  1  0.214040  0.535960  0.535960  1.0
  Ga  Ga114  1  0.535960  0.035960  0.714040  1.0
  Ga  Ga115  1  0.035960  0.214040  0.035960  1.0
  Ga  Ga116  1  0.714040  0.714040  0.214040  1.0
  Ga  Ga117  1  0.035960  0.714040  0.535960  1.0
  Ga  Ga118  1  0.535960  0.535960  0.214040  1.0
  Ga  Ga119  1  0.714040  0.214040  0.714040  1.0
  Ga  Ga120  1  0.214040  0.035960  0.035960  1.0
  Ga  Ga121  1  0.464040  0.785960  0.964040  1.0
  Ga  Ga122  1  0.285960  0.285960  0.285960  1.0
  Ga  Ga123  1  0.964040  0.464040  0.785960  1.0
  Ga  Ga124  1  0.785960  0.964040  0.464040  1.0
  Ga  Ga125  1  0.214040  0.214040  0.214040  1.0
  Ga  Ga126  1  0.035960  0.535960  0.714040  1.0
  Ga  Ga127  1  0.714040  0.035960  0.535960  1.0
  Ga  Ga128  1  0.535960  0.714040  0.035960  1.0
  Ga  Ga129  1  0.535960  0.535960  0.714040  1.0
  Ga  Ga130  1  0.214040  0.714040  0.214040  1.0
  Ga  Ga131  1  0.714040  0.035960  0.035960  1.0
  Ga  Ga132  1  0.035960  0.214040  0.535960  1.0
  Ga  Ga133  1  0.714040  0.535960  0.535960  1.0
  Ga  Ga134  1  0.214040  0.214040  0.714040  1.0
  Ga  Ga135  1  0.035960  0.714040  0.035960  1.0
  Ga  Ga136  1  0.535960  0.035960  0.214040  1.0
  Ga  Ga137  1  0.535960  0.714040  0.535960  1.0
  Ga  Ga138  1  0.714040  0.214040  0.214040  1.0
  Ga  Ga139  1  0.035960  0.035960  0.714040  1.0
  Ga  Ga140  1  0.214040  0.535960  0.035960  1.0
  Ga  Ga141  1  0.785960  0.285960  0.285960  1.0
  Ga  Ga142  1  0.964040  0.964040  0.785960  1.0
  Ga  Ga143  1  0.285960  0.464040  0.964040  1.0
  Ga  Ga144  1  0.464040  0.785960  0.464040  1.0
  Ga  Ga145  1  0.785960  0.464040  0.464040  1.0
  Ga  Ga146  1  0.464040  0.964040  0.285960  1.0
  Ga  Ga147  1  0.964040  0.785960  0.964040  1.0
  Ga  Ga148  1  0.285960  0.285960  0.785960  1.0
  Ga  Ga149  1  0.964040  0.285960  0.464040  1.0
  Ga  Ga150  1  0.464040  0.464040  0.785960  1.0
  Ga  Ga151  1  0.285960  0.785960  0.285960  1.0
  Ga  Ga152  1  0.785960  0.964040  0.964040  1.0
  Ga  Ga153  1  0.535960  0.214040  0.035960  1.0
  Ga  Ga154  1  0.714040  0.714040  0.714040  1.0
  Ga  Ga155  1  0.035960  0.535960  0.214040  1.0
  Ga  Ga156  1  0.214040  0.035960  0.535960  1.0
  Ga  Ga157  1  0.785960  0.785960  0.785960  1.0
  Ga  Ga158  1  0.964040  0.464040  0.285960  1.0
  Ga  Ga159  1  0.285960  0.964040  0.464040  1.0
  Ga  Ga160  1  0.464040  0.285960  0.964040  1.0
  Co  Co161  1  0.375000  0.375000  0.375000  1
  Co  Co162  1  0.875000  0.375000  0.875000  1
  Co  Co163  1  0.375000  0.875000  0.875000  1
  Co  Co164  1  0.875000  0.875000  0.375000  1
  Co  Co165  1  0.125000  0.625000  0.625000  1
  Co  Co166  1  0.125000  0.125000  0.125000  1
  Co  Co167  1  0.625000  0.625000  0.125000  1
  Co  Co168  1  0.625000  0.125000  0.625000  1
  Co  Co169  1  0.625000  0.625000  0.625000  1
  Co  Co170  1  0.125000  0.625000  0.125000  1
  Co  Co171  1  0.625000  0.125000  0.125000  1
  Co  Co172  1  0.125000  0.125000  0.625000  1
  Co  Co173  1  0.875000  0.375000  0.375000  1
  Co  Co174  1  0.875000  0.875000  0.875000  1
  Co  Co175  1  0.375000  0.375000  0.875000  1
  Co  Co176  1  0.375000  0.875000  0.375000  1
  Co  Co177  1  0.250000  0.500000  0.250000  1
  Co  Co178  1  0.000000  0.250000  0.750000  1
  Co  Co179  1  0.500000  0.000000  0.000000  1
  Co  Co180  1  0.750000  0.750000  0.500000  1
  Co  Co181  1  0.250000  0.250000  0.500000  1
  Co  Co182  1  0.750000  0.000000  0.250000  1
  Co  Co183  1  0.000000  0.500000  0.000000  1
  Co  Co184  1  0.500000  0.750000  0.750000  1
  Co  Co185  1  0.500000  0.250000  0.250000  1
  Co  Co186  1  0.250000  0.750000  0.000000  1
  Co  Co187  1  0.000000  0.000000  0.500000  1
  Co  Co188  1  0.750000  0.500000  0.750000  1
  Co  Co189  1  0.250000  0.500000  0.750000  1
  Co  Co190  1  0.000000  0.250000  0.250000  1
  Co  Co191  1  0.750000  0.750000  0.000000  1
  Co  Co192  1  0.500000  0.000000  0.500000  1
  Co  Co193  1  0.000000  0.500000  0.500000  1
  Co  Co194  1  0.750000  0.000000  0.750000  1
  Co  Co195  1  0.250000  0.250000  0.000000  1
  Co  Co196  1  0.500000  0.750000  0.250000  1
  Co  Co197  1  0.000000  0.750000  0.750000  1
  Co  Co198  1  0.500000  0.500000  0.000000  1
  Co  Co199  1  0.750000  0.250000  0.500000  1
  Co  Co200  1  0.250000  0.000000  0.250000  1
  Co  Co201  1  0.250000  0.000000  0.750000  1
  Co  Co202  1  0.000000  0.750000  0.250000  1
  Co  Co203  1  0.500000  0.500000  0.500000  1
  Co  Co204  1  0.750000  0.250000  0.000000  1
  Co  Co205  1  0.000000  0.000000  0.000000  1
  Co  Co206  1  0.750000  0.500000  0.250000  1
  Co  Co207  1  0.250000  0.750000  0.500000  1
  Co  Co208  1  0.500000  0.250000  0.750000  1
  H  H209  1  0.395100  0.434800  0.273100  1.0
  H  H210  1  0.854900  0.315200  0.773100  1.0
  H  H211  1  0.354900  0.934800  0.976900  1.0
  H  H212  1  0.895100  0.815200  0.476900  1.0
  H  H213  1  0.273100  0.395100  0.434800  1.0
  H  H214  1  0.773100  0.854900  0.315200  1.0
  H  H215  1  0.976900  0.354900  0.934800  1.0
  H  H216  1  0.476900  0.895100  0.815200  1.0
  H  H217  1  0.434800  0.273100  0.395100  1.0
  H  H218  1  0.315200  0.773100  0.854900  1.0
  H  H219  1  0.934800  0.976900  0.354900  1.0
  H  H220  1  0.815200  0.476900  0.895100  1.0
  H  H221  1  0.184800  0.645100  0.726900  1.0
  H  H222  1  0.065200  0.104900  0.226900  1.0
  H  H223  1  0.684800  0.604900  0.023100  1.0
  H  H224  1  0.565200  0.145100  0.523100  1.0
  H  H225  1  0.145100  0.523100  0.565200  1.0
  H  H226  1  0.604900  0.023100  0.684800  1.0
  H  H227  1  0.104900  0.226900  0.065200  1.0
  H  H228  1  0.645100  0.726900  0.184800  1.0
  H  H229  1  0.023100  0.684800  0.604900  1.0
  H  H230  1  0.523100  0.565200  0.145100  1.0
  H  H231  1  0.726900  0.184800  0.645100  1.0
  H  H232  1  0.226900  0.065200  0.104900  1.0
  H  H233  1  0.395100  0.934800  0.773100  1.0
  H  H234  1  0.854900  0.815200  0.273100  1.0
  H  H235  1  0.354900  0.434800  0.476900  1.0
  H  H236  1  0.895100  0.315200  0.976900  1.0
  H  H237  1  0.273100  0.895100  0.934800  1.0
  H  H238  1  0.773100  0.354900  0.815200  1.0
  H  H239  1  0.976900  0.854900  0.434800  1.0
  H  H240  1  0.476900  0.395100  0.315200  1.0
  H  H241  1  0.434800  0.773100  0.895100  1.0
  H  H242  1  0.315200  0.273100  0.354900  1.0
  H  H243  1  0.934800  0.476900  0.854900  1.0
  H  H244  1  0.815200  0.976900  0.395100  1.0
  H  H245  1  0.184800  0.145100  0.226900  1.0
  H  H246  1  0.065200  0.604900  0.726900  1.0
  H  H247  1  0.684800  0.104900  0.523100  1.0
  H  H248  1  0.565200  0.645100  0.023100  1.0
  H  H249  1  0.145100  0.023100  0.065200  1.0
  H  H250  1  0.604900  0.523100  0.184800  1.0
  H  H251  1  0.104900  0.726900  0.565200  1.0
  H  H252  1  0.645100  0.226900  0.684800  1.0
  H  H253  1  0.023100  0.184800  0.104900  1.0
  H  H254  1  0.523100  0.065200  0.645100  1.0
  H  H255  1  0.726900  0.684800  0.145100  1.0
  H  H256  1  0.226900  0.565200  0.604900  1.0
  H  H257  1  0.895100  0.434800  0.773100  1.0
  H  H258  1  0.354900  0.315200  0.273100  1.0
  H  H259  1  0.854900  0.934800  0.476900  1.0
  H  H260  1  0.395100  0.815200  0.976900  1.0
  H  H261  1  0.773100  0.395100  0.934800  1.0
  H  H262  1  0.273100  0.854900  0.815200  1.0
  H  H263  1  0.476900  0.354900  0.434800  1.0
  H  H264  1  0.976900  0.895100  0.315200  1.0
  H  H265  1  0.934800  0.273100  0.895100  1.0
  H  H266  1  0.815200  0.773100  0.354900  1.0
  H  H267  1  0.434800  0.976900  0.854900  1.0
  H  H268  1  0.315200  0.476900  0.395100  1.0
  H  H269  1  0.684800  0.645100  0.226900  1.0
  H  H270  1  0.565200  0.104900  0.726900  1.0
  H  H271  1  0.184800  0.604900  0.523100  1.0
  H  H272  1  0.065200  0.145100  0.023100  1.0
  H  H273  1  0.645100  0.523100  0.065200  1.0
  H  H274  1  0.104900  0.023100  0.184800  1.0
  H  H275  1  0.604900  0.226900  0.565200  1.0
  H  H276  1  0.145100  0.726900  0.684800  1.0
  H  H277  1  0.523100  0.684800  0.104900  1.0
  H  H278  1  0.023100  0.565200  0.645100  1.0
  H  H279  1  0.226900  0.184800  0.145100  1.0
  H  H280  1  0.726900  0.065200  0.604900  1.0
  H  H281  1  0.895100  0.934800  0.273100  1.0
  H  H282  1  0.354900  0.815200  0.773100  1.0
  H  H283  1  0.854900  0.434800  0.976900  1.0
  H  H284  1  0.395100  0.315200  0.476900  1.0
  H  H285  1  0.773100  0.895100  0.434800  1.0
  H  H286  1  0.273100  0.354900  0.315200  1.0
  H  H287  1  0.476900  0.854900  0.934800  1.0
  H  H288  1  0.976900  0.395100  0.815200  1.0
  H  H289  1  0.934800  0.773100  0.395100  1.0
  H  H290  1  0.815200  0.273100  0.854900  1.0
  H  H291  1  0.434800  0.476900  0.354900  1.0
  H  H292  1  0.315200  0.976900  0.895100  1.0
  H  H293  1  0.684800  0.145100  0.726900  1.0
  H  H294  1  0.565200  0.604900  0.226900  1.0
  H  H295  1  0.184800  0.104900  0.023100  1.0
  H  H296  1  0.065200  0.645100  0.523100  1.0
  H  H297  1  0.645100  0.023100  0.565200  1.0
  H  H298  1  0.104900  0.523100  0.684800  1.0
  H  H299  1  0.604900  0.726900  0.065200  1.0
  H  H300  1  0.145100  0.226900  0.184800  1.0
  H  H301  1  0.523100  0.184800  0.604900  1.0
  H  H302  1  0.023100  0.065200  0.145100  1.0
  H  H303  1  0.226900  0.684800  0.645100  1.0
  H  H304  1  0.726900  0.565200  0.104900  1.0
  H  H305  1  0.604900  0.565200  0.726900  1.0
  H  H306  1  0.145100  0.684800  0.226900  1.0
  H  H307  1  0.645100  0.065200  0.023100  1.0
  H  H308  1  0.104900  0.184800  0.523100  1.0
  H  H309  1  0.726900  0.604900  0.565200  1.0
  H  H310  1  0.226900  0.145100  0.684800  1.0
  H  H311  1  0.023100  0.645100  0.065200  1.0
  H  H312  1  0.523100  0.104900  0.184800  1.0
  H  H313  1  0.565200  0.726900  0.604900  1.0
  H  H314  1  0.684800  0.226900  0.145100  1.0
  H  H315  1  0.065200  0.023100  0.645100  1.0
  H  H316  1  0.184800  0.523100  0.104900  1.0
  H  H317  1  0.815200  0.354900  0.273100  1.0
  H  H318  1  0.934800  0.895100  0.773100  1.0
  H  H319  1  0.315200  0.395100  0.976900  1.0
  H  H320  1  0.434800  0.854900  0.476900  1.0
  H  H321  1  0.854900  0.476900  0.434800  1.0
  H  H322  1  0.395100  0.976900  0.315200  1.0
  H  H323  1  0.895100  0.773100  0.934800  1.0
  H  H324  1  0.354900  0.273100  0.815200  1.0
  H  H325  1  0.976900  0.315200  0.395100  1.0
  H  H326  1  0.476900  0.434800  0.854900  1.0
  H  H327  1  0.273100  0.815200  0.354900  1.0
  H  H328  1  0.773100  0.934800  0.895100  1.0
  H  H329  1  0.604900  0.065200  0.226900  1.0
  H  H330  1  0.145100  0.184800  0.726900  1.0
  H  H331  1  0.645100  0.565200  0.523100  1.0
  H  H332  1  0.104900  0.684800  0.023100  1.0
  H  H333  1  0.726900  0.104900  0.065200  1.0
  H  H334  1  0.226900  0.645100  0.184800  1.0
  H  H335  1  0.023100  0.145100  0.565200  1.0
  H  H336  1  0.523100  0.604900  0.684800  1.0
  H  H337  1  0.565200  0.226900  0.104900  1.0
  H  H338  1  0.684800  0.726900  0.645100  1.0
  H  H339  1  0.065200  0.523100  0.145100  1.0
  H  H340  1  0.184800  0.023100  0.604900  1.0
  H  H341  1  0.815200  0.854900  0.773100  1.0
  H  H342  1  0.934800  0.395100  0.273100  1.0
  H  H343  1  0.315200  0.895100  0.476900  1.0
  H  H344  1  0.434800  0.354900  0.976900  1.0
  H  H345  1  0.854900  0.976900  0.934800  1.0
  H  H346  1  0.395100  0.476900  0.815200  1.0
  H  H347  1  0.895100  0.273100  0.434800  1.0
  H  H348  1  0.354900  0.773100  0.315200  1.0
  H  H349  1  0.976900  0.815200  0.895100  1.0
  H  H350  1  0.476900  0.934800  0.354900  1.0
  H  H351  1  0.273100  0.315200  0.854900  1.0
  H  H352  1  0.773100  0.434800  0.395100  1.0
  H  H353  1  0.104900  0.565200  0.226900  1.0
  H  H354  1  0.645100  0.684800  0.726900  1.0
  H  H355  1  0.145100  0.065200  0.523100  1.0
  H  H356  1  0.604900  0.184800  0.023100  1.0
  H  H357  1  0.226900  0.604900  0.065200  1.0
  H  H358  1  0.726900  0.145100  0.184800  1.0
  H  H359  1  0.523100  0.645100  0.565200  1.0
  H  H360  1  0.023100  0.104900  0.684800  1.0
  H  H361  1  0.065200  0.726900  0.104900  1.0
  H  H362  1  0.184800  0.226900  0.645100  1.0
  H  H363  1  0.565200  0.023100  0.145100  1.0
  H  H364  1  0.684800  0.523100  0.604900  1.0
  H  H365  1  0.315200  0.354900  0.773100  1.0
  H  H366  1  0.434800  0.895100  0.273100  1.0
  H  H367  1  0.815200  0.395100  0.476900  1.0
  H  H368  1  0.934800  0.854900  0.976900  1.0
  H  H369  1  0.354900  0.476900  0.934800  1.0
  H  H370  1  0.895100  0.976900  0.815200  1.0
  H  H371  1  0.395100  0.773100  0.434800  1.0
  H  H372  1  0.854900  0.273100  0.315200  1.0
  H  H373  1  0.476900  0.315200  0.895100  1.0
  H  H374  1  0.976900  0.434800  0.354900  1.0
  H  H375  1  0.773100  0.815200  0.854900  1.0
  H  H376  1  0.273100  0.934800  0.395100  1.0
  H  H377  1  0.104900  0.065200  0.726900  1.0
  H  H378  1  0.645100  0.184800  0.226900  1.0
  H  H379  1  0.145100  0.565200  0.023100  1.0
  H  H380  1  0.604900  0.684800  0.523100  1.0
  H  H381  1  0.226900  0.104900  0.565200  1.0
  H  H382  1  0.726900  0.645100  0.684800  1.0
  H  H383  1  0.523100  0.145100  0.065200  1.0
  H  H384  1  0.023100  0.604900  0.184800  1.0
  H  H385  1  0.065200  0.226900  0.604900  1.0
  H  H386  1  0.184800  0.726900  0.145100  1.0
  H  H387  1  0.565200  0.523100  0.645100  1.0
  H  H388  1  0.684800  0.023100  0.104900  1.0
  H  H389  1  0.315200  0.854900  0.273100  1.0
  H  H390  1  0.434800  0.395100  0.773100  1.0
  H  H391  1  0.815200  0.895100  0.976900  1.0
  H  H392  1  0.934800  0.354900  0.476900  1.0
  H  H393  1  0.354900  0.976900  0.434800  1.0
  H  H394  1  0.895100  0.476900  0.315200  1.0
  H  H395  1  0.395100  0.273100  0.934800  1.0
  H  H396  1  0.854900  0.773100  0.815200  1.0
  H  H397  1  0.476900  0.815200  0.395100  1.0
  H  H398  1  0.976900  0.934800  0.854900  1.0
  H  H399  1  0.773100  0.315200  0.354900  1.0
  H  H400  1  0.273100  0.434800  0.895100  1.0
  H  H401  1  0.430800  0.543800  0.259100  1.0
  H  H402  1  0.819200  0.206200  0.759100  1.0
  H  H403  1  0.319200  0.043800  0.990900  1.0
  H  H404  1  0.930800  0.706200  0.490900  1.0
  H  H405  1  0.259100  0.430800  0.543800  1.0
  H  H406  1  0.759100  0.819200  0.206200  1.0
  H  H407  1  0.990900  0.319200  0.043800  1.0
  H  H408  1  0.490900  0.930800  0.706200  1.0
  H  H409  1  0.543800  0.259100  0.430800  1.0
  H  H410  1  0.206200  0.759100  0.819200  1.0
  H  H411  1  0.043800  0.990900  0.319200  1.0
  H  H412  1  0.706200  0.490900  0.930800  1.0
  H  H413  1  0.293800  0.680800  0.740900  1.0
  H  H414  1  0.956200  0.069200  0.240900  1.0
  H  H415  1  0.793800  0.569200  0.009100  1.0
  H  H416  1  0.456200  0.180800  0.509100  1.0
  H  H417  1  0.180800  0.509100  0.456200  1.0
  H  H418  1  0.569200  0.009100  0.793800  1.0
  H  H419  1  0.069200  0.240900  0.956200  1.0
  H  H420  1  0.680800  0.740900  0.293800  1.0
  H  H421  1  0.009100  0.793800  0.569200  1.0
  H  H422  1  0.509100  0.456200  0.180800  1.0
  H  H423  1  0.740900  0.293800  0.680800  1.0
  H  H424  1  0.240900  0.956200  0.069200  1.0
  H  H425  1  0.430800  0.043800  0.759100  1.0
  H  H426  1  0.819200  0.706200  0.259100  1.0
  H  H427  1  0.319200  0.543800  0.490900  1.0
  H  H428  1  0.930800  0.206200  0.990900  1.0
  H  H429  1  0.259100  0.930800  0.043800  1.0
  H  H430  1  0.759100  0.319200  0.706200  1.0
  H  H431  1  0.990900  0.819200  0.543800  1.0
  H  H432  1  0.490900  0.430800  0.206200  1.0
  H  H433  1  0.543800  0.759100  0.930800  1.0
  H  H434  1  0.206200  0.259100  0.319200  1.0
  H  H435  1  0.043800  0.490900  0.819200  1.0
  H  H436  1  0.706200  0.990900  0.430800  1.0
  H  H437  1  0.293800  0.180800  0.240900  1.0
  H  H438  1  0.956200  0.569200  0.740900  1.0
  H  H439  1  0.793800  0.069200  0.509100  1.0
  H  H440  1  0.456200  0.680800  0.009100  1.0
  H  H441  1  0.180800  0.009100  0.956200  1.0
  H  H442  1  0.569200  0.509100  0.293800  1.0
  H  H443  1  0.069200  0.740900  0.456200  1.0
  H  H444  1  0.680800  0.240900  0.793800  1.0
  H  H445  1  0.009100  0.293800  0.069200  1.0
  H  H446  1  0.509100  0.956200  0.680800  1.0
  H  H447  1  0.740900  0.793800  0.180800  1.0
  H  H448  1  0.240900  0.456200  0.569200  1.0
  H  H449  1  0.930800  0.543800  0.759100  1.0
  H  H450  1  0.319200  0.206200  0.259100  1.0
  H  H451  1  0.819200  0.043800  0.490900  1.0
  H  H452  1  0.430800  0.706200  0.990900  1.0
  H  H453  1  0.759100  0.430800  0.043800  1.0
  H  H454  1  0.259100  0.819200  0.706200  1.0
  H  H455  1  0.490900  0.319200  0.543800  1.0
  H  H456  1  0.990900  0.930800  0.206200  1.0
  H  H457  1  0.043800  0.259100  0.930800  1.0
  H  H458  1  0.706200  0.759100  0.319200  1.0
  H  H459  1  0.543800  0.990900  0.819200  1.0
  H  H460  1  0.206200  0.490900  0.430800  1.0
  H  H461  1  0.793800  0.680800  0.240900  1.0
  H  H462  1  0.456200  0.069200  0.740900  1.0
  H  H463  1  0.293800  0.569200  0.509100  1.0
  H  H464  1  0.956200  0.180800  0.009100  1.0
  H  H465  1  0.680800  0.509100  0.956200  1.0
  H  H466  1  0.069200  0.009100  0.293800  1.0
  H  H467  1  0.569200  0.240900  0.456200  1.0
  H  H468  1  0.180800  0.740900  0.793800  1.0
  H  H469  1  0.509100  0.793800  0.069200  1.0
  H  H470  1  0.009100  0.456200  0.680800  1.0
  H  H471  1  0.240900  0.293800  0.180800  1.0
  H  H472  1  0.740900  0.956200  0.569200  1.0
  H  H473  1  0.930800  0.043800  0.259100  1.0
  H  H474  1  0.319200  0.706200  0.759100  1.0
  H  H475  1  0.819200  0.543800  0.990900  1.0
  H  H476  1  0.430800  0.206200  0.490900  1.0
  H  H477  1  0.759100  0.930800  0.543800  1.0
  H  H478  1  0.259100  0.319200  0.206200  1.0
  H  H479  1  0.490900  0.819200  0.043800  1.0
  H  H480  1  0.990900  0.430800  0.706200  1.0
  H  H481  1  0.043800  0.759100  0.430800  1.0
  H  H482  1  0.706200  0.259100  0.819200  1.0
  H  H483  1  0.543800  0.490900  0.319200  1.0
  H  H484  1  0.206200  0.990900  0.930800  1.0
  H  H485  1  0.793800  0.180800  0.740900  1.0
  H  H486  1  0.456200  0.569200  0.240900  1.0
  H  H487  1  0.293800  0.069200  0.009100  1.0
  H  H488  1  0.956200  0.680800  0.509100  1.0
  H  H489  1  0.680800  0.009100  0.456200  1.0
  H  H490  1  0.069200  0.509100  0.793800  1.0
  H  H491  1  0.569200  0.740900  0.956200  1.0
  H  H492  1  0.180800  0.240900  0.293800  1.0
  H  H493  1  0.509100  0.293800  0.569200  1.0
  H  H494  1  0.009100  0.956200  0.180800  1.0
  H  H495  1  0.240900  0.793800  0.680800  1.0
  H  H496  1  0.740900  0.456200  0.069200  1.0
  H  H497  1  0.569200  0.456200  0.740900  1.0
  H  H498  1  0.180800  0.793800  0.240900  1.0
  H  H499  1  0.680800  0.956200  0.009100  1.0
  H  H500  1  0.069200  0.293800  0.509100  1.0
  H  H501  1  0.740900  0.569200  0.456200  1.0
  H  H502  1  0.240900  0.180800  0.793800  1.0
  H  H503  1  0.009100  0.680800  0.956200  1.0
  H  H504  1  0.509100  0.069200  0.293800  1.0
  H  H505  1  0.456200  0.740900  0.569200  1.0
  H  H506  1  0.793800  0.240900  0.180800  1.0
  H  H507  1  0.956200  0.009100  0.680800  1.0
  H  H508  1  0.293800  0.509100  0.069200  1.0
  H  H509  1  0.706200  0.319200  0.259100  1.0
  H  H510  1  0.043800  0.930800  0.759100  1.0
  H  H511  1  0.206200  0.430800  0.990900  1.0
  H  H512  1  0.543800  0.819200  0.490900  1.0
  H  H513  1  0.819200  0.490900  0.543800  1.0
  H  H514  1  0.430800  0.990900  0.206200  1.0
  H  H515  1  0.930800  0.759100  0.043800  1.0
  H  H516  1  0.319200  0.259100  0.706200  1.0
  H  H517  1  0.990900  0.206200  0.430800  1.0
  H  H518  1  0.490900  0.543800  0.819200  1.0
  H  H519  1  0.259100  0.706200  0.319200  1.0
  H  H520  1  0.759100  0.043800  0.930800  1.0
  H  H521  1  0.569200  0.956200  0.240900  1.0
  H  H522  1  0.180800  0.293800  0.740900  1.0
  H  H523  1  0.680800  0.456200  0.509100  1.0
  H  H524  1  0.069200  0.793800  0.009100  1.0
  H  H525  1  0.740900  0.069200  0.956200  1.0
  H  H526  1  0.240900  0.680800  0.293800  1.0
  H  H527  1  0.009100  0.180800  0.456200  1.0
  H  H528  1  0.509100  0.569200  0.793800  1.0
  H  H529  1  0.456200  0.240900  0.069200  1.0
  H  H530  1  0.793800  0.740900  0.680800  1.0
  H  H531  1  0.956200  0.509100  0.180800  1.0
  H  H532  1  0.293800  0.009100  0.569200  1.0
  H  H533  1  0.706200  0.819200  0.759100  1.0
  H  H534  1  0.043800  0.430800  0.259100  1.0
  H  H535  1  0.206200  0.930800  0.490900  1.0
  H  H536  1  0.543800  0.319200  0.990900  1.0
  H  H537  1  0.819200  0.990900  0.043800  1.0
  H  H538  1  0.430800  0.490900  0.706200  1.0
  H  H539  1  0.930800  0.259100  0.543800  1.0
  H  H540  1  0.319200  0.759100  0.206200  1.0
  H  H541  1  0.990900  0.706200  0.930800  1.0
  H  H542  1  0.490900  0.043800  0.319200  1.0
  H  H543  1  0.259100  0.206200  0.819200  1.0
  H  H544  1  0.759100  0.543800  0.430800  1.0
  H  H545  1  0.069200  0.456200  0.240900  1.0
  H  H546  1  0.680800  0.793800  0.740900  1.0
  H  H547  1  0.180800  0.956200  0.509100  1.0
  H  H548  1  0.569200  0.293800  0.009100  1.0
  H  H549  1  0.240900  0.569200  0.956200  1.0
  H  H550  1  0.740900  0.180800  0.293800  1.0
  H  H551  1  0.509100  0.680800  0.456200  1.0
  H  H552  1  0.009100  0.069200  0.793800  1.0
  H  H553  1  0.956200  0.740900  0.069200  1.0
  H  H554  1  0.293800  0.240900  0.680800  1.0
  H  H555  1  0.456200  0.009100  0.180800  1.0
  H  H556  1  0.793800  0.509100  0.569200  1.0
  H  H557  1  0.206200  0.319200  0.759100  1.0
  H  H558  1  0.543800  0.930800  0.259100  1.0
  H  H559  1  0.706200  0.430800  0.490900  1.0
  H  H560  1  0.043800  0.819200  0.990900  1.0
  H  H561  1  0.319200  0.490900  0.043800  1.0
  H  H562  1  0.930800  0.990900  0.706200  1.0
  H  H563  1  0.430800  0.759100  0.543800  1.0
  H  H564  1  0.819200  0.259100  0.206200  1.0
  H  H565  1  0.490900  0.206200  0.930800  1.0
  H  H566  1  0.990900  0.543800  0.319200  1.0
  H  H567  1  0.759100  0.706200  0.819200  1.0
  H  H568  1  0.259100  0.043800  0.430800  1.0
  H  H569  1  0.069200  0.956200  0.740900  1.0
  H  H570  1  0.680800  0.293800  0.240900  1.0
  H  H571  1  0.180800  0.456200  0.009100  1.0
  H  H572  1  0.569200  0.793800  0.509100  1.0
  H  H573  1  0.240900  0.069200  0.456200  1.0
  H  H574  1  0.740900  0.680800  0.793800  1.0
  H  H575  1  0.509100  0.180800  0.956200  1.0
  H  H576  1  0.009100  0.569200  0.293800  1.0
  H  H577  1  0.956200  0.240900  0.569200  1.0
  H  H578  1  0.293800  0.740900  0.180800  1.0
  H  H579  1  0.456200  0.509100  0.680800  1.0
  H  H580  1  0.793800  0.009100  0.069200  1.0
  H  H581  1  0.206200  0.819200  0.259100  1.0
  H  H582  1  0.543800  0.430800  0.759100  1.0
  H  H583  1  0.706200  0.930800  0.990900  1.0
  H  H584  1  0.043800  0.319200  0.490900  1.0
  H  H585  1  0.319200  0.990900  0.543800  1.0
  H  H586  1  0.930800  0.490900  0.206200  1.0
  H  H587  1  0.430800  0.259100  0.043800  1.0
  H  H588  1  0.819200  0.759100  0.706200  1.0
  H  H589  1  0.490900  0.706200  0.430800  1.0
  H  H590  1  0.990900  0.043800  0.819200  1.0
  H  H591  1  0.759100  0.206200  0.319200  1.0
  H  H592  1  0.259100  0.543800  0.930800  1.0
  H  H593  1  0.385900  0.546600  0.245600  1.0
  H  H594  1  0.864100  0.203400  0.745600  1.0
  H  H595  1  0.364100  0.046600  0.004400  1.0
  H  H596  1  0.885900  0.703400  0.504400  1.0
  H  H597  1  0.245600  0.385900  0.546600  1.0
  H  H598  1  0.745600  0.864100  0.203400  1.0
  H  H599  1  0.004400  0.364100  0.046600  1.0
  H  H600  1  0.504400  0.885900  0.703400  1.0
  H  H601  1  0.546600  0.245600  0.385900  1.0
  H  H602  1  0.203400  0.745600  0.864100  1.0
  H  H603  1  0.046600  0.004400  0.364100  1.0
  H  H604  1  0.703400  0.504400  0.885900  1.0
  H  H605  1  0.296600  0.635900  0.754400  1.0
  H  H606  1  0.953400  0.114100  0.254400  1.0
  H  H607  1  0.796600  0.614100  0.995600  1.0
  H  H608  1  0.453400  0.135900  0.495600  1.0
  H  H609  1  0.135900  0.495600  0.453400  1.0
  H  H610  1  0.614100  0.995600  0.796600  1.0
  H  H611  1  0.114100  0.254400  0.953400  1.0
  H  H612  1  0.635900  0.754400  0.296600  1.0
  H  H613  1  0.995600  0.796600  0.614100  1.0
  H  H614  1  0.495600  0.453400  0.135900  1.0
  H  H615  1  0.754400  0.296600  0.635900  1.0
  H  H616  1  0.254400  0.953400  0.114100  1.0
  H  H617  1  0.385900  0.046600  0.745600  1.0
  H  H618  1  0.864100  0.703400  0.245600  1.0
  H  H619  1  0.364100  0.546600  0.504400  1.0
  H  H620  1  0.885900  0.203400  0.004400  1.0
  H  H621  1  0.245600  0.885900  0.046600  1.0
  H  H622  1  0.745600  0.364100  0.703400  1.0
  H  H623  1  0.004400  0.864100  0.546600  1.0
  H  H624  1  0.504400  0.385900  0.203400  1.0
  H  H625  1  0.546600  0.745600  0.885900  1.0
  H  H626  1  0.203400  0.245600  0.364100  1.0
  H  H627  1  0.046600  0.504400  0.864100  1.0
  H  H628  1  0.703400  0.004400  0.385900  1.0
  H  H629  1  0.296600  0.135900  0.254400  1.0
  H  H630  1  0.953400  0.614100  0.754400  1.0
  H  H631  1  0.796600  0.114100  0.495600  1.0
  H  H632  1  0.453400  0.635900  0.995600  1.0
  H  H633  1  0.135900  0.995600  0.953400  1.0
  H  H634  1  0.614100  0.495600  0.296600  1.0
  H  H635  1  0.114100  0.754400  0.453400  1.0
  H  H636  1  0.635900  0.254400  0.796600  1.0
  H  H637  1  0.995600  0.296600  0.114100  1.0
  H  H638  1  0.495600  0.953400  0.635900  1.0
  H  H639  1  0.754400  0.796600  0.135900  1.0
  H  H640  1  0.254400  0.453400  0.614100  1.0
  H  H641  1  0.885900  0.546600  0.745600  1.0
  H  H642  1  0.364100  0.203400  0.245600  1.0
  H  H643  1  0.864100  0.046600  0.504400  1.0
  H  H644  1  0.385900  0.703400  0.004400  1.0
  H  H645  1  0.745600  0.385900  0.046600  1.0
  H  H646  1  0.245600  0.864100  0.703400  1.0
  H  H647  1  0.504400  0.364100  0.546600  1.0
  H  H648  1  0.004400  0.885900  0.203400  1.0
  H  H649  1  0.046600  0.245600  0.885900  1.0
  H  H650  1  0.703400  0.745600  0.364100  1.0
  H  H651  1  0.546600  0.004400  0.864100  1.0
  H  H652  1  0.203400  0.504400  0.385900  1.0
  H  H653  1  0.796600  0.635900  0.254400  1.0
  H  H654  1  0.453400  0.114100  0.754400  1.0
  H  H655  1  0.296600  0.614100  0.495600  1.0
  H  H656  1  0.953400  0.135900  0.995600  1.0
  H  H657  1  0.635900  0.495600  0.953400  1.0
  H  H658  1  0.114100  0.995600  0.296600  1.0
  H  H659  1  0.614100  0.254400  0.453400  1.0
  H  H660  1  0.135900  0.754400  0.796600  1.0
  H  H661  1  0.495600  0.796600  0.114100  1.0
  H  H662  1  0.995600  0.453400  0.635900  1.0
  H  H663  1  0.254400  0.296600  0.135900  1.0
  H  H664  1  0.754400  0.953400  0.614100  1.0
  H  H665  1  0.885900  0.046600  0.245600  1.0
  H  H666  1  0.364100  0.703400  0.745600  1.0
  H  H667  1  0.864100  0.546600  0.004400  1.0
  H  H668  1  0.385900  0.203400  0.504400  1.0
  H  H669  1  0.745600  0.885900  0.546600  1.0
  H  H670  1  0.245600  0.364100  0.203400  1.0
  H  H671  1  0.504400  0.864100  0.046600  1.0
  H  H672  1  0.004400  0.385900  0.703400  1.0
  H  H673  1  0.046600  0.745600  0.385900  1.0
  H  H674  1  0.703400  0.245600  0.864100  1.0
  H  H675  1  0.546600  0.504400  0.364100  1.0
  H  H676  1  0.203400  0.004400  0.885900  1.0
  H  H677  1  0.796600  0.135900  0.754400  1.0
  H  H678  1  0.453400  0.614100  0.254400  1.0
  H  H679  1  0.296600  0.114100  0.995600  1.0
  H  H680  1  0.953400  0.635900  0.495600  1.0
  H  H681  1  0.635900  0.995600  0.453400  1.0
  H  H682  1  0.114100  0.495600  0.796600  1.0
  H  H683  1  0.614100  0.754400  0.953400  1.0
  H  H684  1  0.135900  0.254400  0.296600  1.0
  H  H685  1  0.495600  0.296600  0.614100  1.0
  H  H686  1  0.995600  0.953400  0.135900  1.0
  H  H687  1  0.254400  0.796600  0.635900  1.0
  H  H688  1  0.754400  0.453400  0.114100  1.0
  H  H689  1  0.614100  0.453400  0.754400  1.0
  H  H690  1  0.135900  0.796600  0.254400  1.0
  H  H691  1  0.635900  0.953400  0.995600  1.0
  H  H692  1  0.114100  0.296600  0.495600  1.0
  H  H693  1  0.754400  0.614100  0.453400  1.0
  H  H694  1  0.254400  0.135900  0.796600  1.0
  H  H695  1  0.995600  0.635900  0.953400  1.0
  H  H696  1  0.495600  0.114100  0.296600  1.0
  H  H697  1  0.453400  0.754400  0.614100  1.0
  H  H698  1  0.796600  0.254400  0.135900  1.0
  H  H699  1  0.953400  0.995600  0.635900  1.0
  H  H700  1  0.296600  0.495600  0.114100  1.0
  H  H701  1  0.703400  0.364100  0.245600  1.0
  H  H702  1  0.046600  0.885900  0.745600  1.0
  H  H703  1  0.203400  0.385900  0.004400  1.0
  H  H704  1  0.546600  0.864100  0.504400  1.0
  H  H705  1  0.864100  0.504400  0.546600  1.0
  H  H706  1  0.385900  0.004400  0.203400  1.0
  H  H707  1  0.885900  0.745600  0.046600  1.0
  H  H708  1  0.364100  0.245600  0.703400  1.0
  H  H709  1  0.004400  0.203400  0.385900  1.0
  H  H710  1  0.504400  0.546600  0.864100  1.0
  H  H711  1  0.245600  0.703400  0.364100  1.0
  H  H712  1  0.745600  0.046600  0.885900  1.0
  H  H713  1  0.614100  0.953400  0.254400  1.0
  H  H714  1  0.135900  0.296600  0.754400  1.0
  H  H715  1  0.635900  0.453400  0.495600  1.0
  H  H716  1  0.114100  0.796600  0.995600  1.0
  H  H717  1  0.754400  0.114100  0.953400  1.0
  H  H718  1  0.254400  0.635900  0.296600  1.0
  H  H719  1  0.995600  0.135900  0.453400  1.0
  H  H720  1  0.495600  0.614100  0.796600  1.0
  H  H721  1  0.453400  0.254400  0.114100  1.0
  H  H722  1  0.796600  0.754400  0.635900  1.0
  H  H723  1  0.953400  0.495600  0.135900  1.0
  H  H724  1  0.296600  0.995600  0.614100  1.0
  H  H725  1  0.703400  0.864100  0.745600  1.0
  H  H726  1  0.046600  0.385900  0.245600  1.0
  H  H727  1  0.203400  0.885900  0.504400  1.0
  H  H728  1  0.546600  0.364100  0.004400  1.0
  H  H729  1  0.864100  0.004400  0.046600  1.0
  H  H730  1  0.385900  0.504400  0.703400  1.0
  H  H731  1  0.885900  0.245600  0.546600  1.0
  H  H732  1  0.364100  0.745600  0.203400  1.0
  H  H733  1  0.004400  0.703400  0.885900  1.0
  H  H734  1  0.504400  0.046600  0.364100  1.0
  H  H735  1  0.245600  0.203400  0.864100  1.0
  H  H736  1  0.745600  0.546600  0.385900  1.0
  H  H737  1  0.114100  0.453400  0.254400  1.0
  H  H738  1  0.635900  0.796600  0.754400  1.0
  H  H739  1  0.135900  0.953400  0.495600  1.0
  H  H740  1  0.614100  0.296600  0.995600  1.0
  H  H741  1  0.254400  0.614100  0.953400  1.0
  H  H742  1  0.754400  0.135900  0.296600  1.0
  H  H743  1  0.495600  0.635900  0.453400  1.0
  H  H744  1  0.995600  0.114100  0.796600  1.0
  H  H745  1  0.953400  0.754400  0.114100  1.0
  H  H746  1  0.296600  0.254400  0.635900  1.0
  H  H747  1  0.453400  0.995600  0.135900  1.0
  H  H748  1  0.796600  0.495600  0.614100  1.0
  H  H749  1  0.203400  0.364100  0.745600  1.0
  H  H750  1  0.546600  0.885900  0.245600  1.0
  H  H751  1  0.703400  0.385900  0.504400  1.0
  H  H752  1  0.046600  0.864100  0.004400  1.0
  H  H753  1  0.364100  0.504400  0.046600  1.0
  H  H754  1  0.885900  0.004400  0.703400  1.0
  H  H755  1  0.385900  0.745600  0.546600  1.0
  H  H756  1  0.864100  0.245600  0.203400  1.0
  H  H757  1  0.504400  0.203400  0.885900  1.0
  H  H758  1  0.004400  0.546600  0.364100  1.0
  H  H759  1  0.745600  0.703400  0.864100  1.0
  H  H760  1  0.245600  0.046600  0.385900  1.0
  H  H761  1  0.114100  0.953400  0.754400  1.0
  H  H762  1  0.635900  0.296600  0.254400  1.0
  H  H763  1  0.135900  0.453400  0.995600  1.0
  H  H764  1  0.614100  0.796600  0.495600  1.0
  H  H765  1  0.254400  0.114100  0.453400  1.0
  H  H766  1  0.754400  0.635900  0.796600  1.0
  H  H767  1  0.495600  0.135900  0.953400  1.0
  H  H768  1  0.995600  0.614100  0.296600  1.0
  H  H769  1  0.953400  0.254400  0.614100  1.0
  H  H770  1  0.296600  0.754400  0.135900  1.0
  H  H771  1  0.453400  0.495600  0.635900  1.0
  H  H772  1  0.796600  0.995600  0.114100  1.0
  H  H773  1  0.203400  0.864100  0.245600  1.0
  H  H774  1  0.546600  0.385900  0.745600  1.0
  H  H775  1  0.703400  0.885900  0.004400  1.0
  H  H776  1  0.046600  0.364100  0.504400  1.0
  H  H777  1  0.364100  0.004400  0.546600  1.0
  H  H778  1  0.885900  0.504400  0.203400  1.0
  H  H779  1  0.385900  0.245600  0.046600  1.0
  H  H780  1  0.864100  0.745600  0.703400  1.0
  H  H781  1  0.504400  0.703400  0.385900  1.0
  H  H782  1  0.004400  0.046600  0.864100  1.0
  H  H783  1  0.745600  0.203400  0.364100  1.0
  H  H784  1  0.245600  0.546600  0.885900  1.0
  H  H785  1  0.360600  0.507700  0.244400  1.0
  H  H786  1  0.889400  0.242300  0.744400  1.0
  H  H787  1  0.389400  0.007700  0.005600  1.0
  H  H788  1  0.860600  0.742300  0.505600  1.0
  H  H789  1  0.244400  0.360600  0.507700  1.0
  H  H790  1  0.744400  0.889400  0.242300  1.0
  H  H791  1  0.005600  0.389400  0.007700  1.0
  H  H792  1  0.505600  0.860600  0.742300  1.0
  H  H793  1  0.507700  0.244400  0.360600  1.0
  H  H794  1  0.242300  0.744400  0.889400  1.0
  H  H795  1  0.007700  0.005600  0.389400  1.0
  H  H796  1  0.742300  0.505600  0.860600  1.0
  H  H797  1  0.257700  0.610600  0.755600  1.0
  H  H798  1  0.992300  0.139400  0.255600  1.0
  H  H799  1  0.757700  0.639400  0.994400  1.0
  H  H800  1  0.492300  0.110600  0.494400  1.0
  H  H801  1  0.110600  0.494400  0.492300  1.0
  H  H802  1  0.639400  0.994400  0.757700  1.0
  H  H803  1  0.139400  0.255600  0.992300  1.0
  H  H804  1  0.610600  0.755600  0.257700  1.0
  H  H805  1  0.994400  0.757700  0.639400  1.0
  H  H806  1  0.494400  0.492300  0.110600  1.0
  H  H807  1  0.755600  0.257700  0.610600  1.0
  H  H808  1  0.255600  0.992300  0.139400  1.0
  H  H809  1  0.360600  0.007700  0.744400  1.0
  H  H810  1  0.889400  0.742300  0.244400  1.0
  H  H811  1  0.389400  0.507700  0.505600  1.0
  H  H812  1  0.860600  0.242300  0.005600  1.0
  H  H813  1  0.244400  0.860600  0.007700  1.0
  H  H814  1  0.744400  0.389400  0.742300  1.0
  H  H815  1  0.005600  0.889400  0.507700  1.0
  H  H816  1  0.505600  0.360600  0.242300  1.0
  H  H817  1  0.507700  0.744400  0.860600  1.0
  H  H818  1  0.242300  0.244400  0.389400  1.0
  H  H819  1  0.007700  0.505600  0.889400  1.0
  H  H820  1  0.742300  0.005600  0.360600  1.0
  H  H821  1  0.257700  0.110600  0.255600  1.0
  H  H822  1  0.992300  0.639400  0.755600  1.0
  H  H823  1  0.757700  0.139400  0.494400  1.0
  H  H824  1  0.492300  0.610600  0.994400  1.0
  H  H825  1  0.110600  0.994400  0.992300  1.0
  H  H826  1  0.639400  0.494400  0.257700  1.0
  H  H827  1  0.139400  0.755600  0.492300  1.0
  H  H828  1  0.610600  0.255600  0.757700  1.0
  H  H829  1  0.994400  0.257700  0.139400  1.0
  H  H830  1  0.494400  0.992300  0.610600  1.0
  H  H831  1  0.755600  0.757700  0.110600  1.0
  H  H832  1  0.255600  0.492300  0.639400  1.0
  H  H833  1  0.860600  0.507700  0.744400  1.0
  H  H834  1  0.389400  0.242300  0.244400  1.0
  H  H835  1  0.889400  0.007700  0.505600  1.0
  H  H836  1  0.360600  0.742300  0.005600  1.0
  H  H837  1  0.744400  0.360600  0.007700  1.0
  H  H838  1  0.244400  0.889400  0.742300  1.0
  H  H839  1  0.505600  0.389400  0.507700  1.0
  H  H840  1  0.005600  0.860600  0.242300  1.0
  H  H841  1  0.007700  0.244400  0.860600  1.0
  H  H842  1  0.742300  0.744400  0.389400  1.0
  H  H843  1  0.507700  0.005600  0.889400  1.0
  H  H844  1  0.242300  0.505600  0.360600  1.0
  H  H845  1  0.757700  0.610600  0.255600  1.0
  H  H846  1  0.492300  0.139400  0.755600  1.0
  H  H847  1  0.257700  0.639400  0.494400  1.0
  H  H848  1  0.992300  0.110600  0.994400  1.0
  H  H849  1  0.610600  0.494400  0.992300  1.0
  H  H850  1  0.139400  0.994400  0.257700  1.0
  H  H851  1  0.639400  0.255600  0.492300  1.0
  H  H852  1  0.110600  0.755600  0.757700  1.0
  H  H853  1  0.494400  0.757700  0.139400  1.0
  H  H854  1  0.994400  0.492300  0.610600  1.0
  H  H855  1  0.255600  0.257700  0.110600  1.0
  H  H856  1  0.755600  0.992300  0.639400  1.0
  H  H857  1  0.860600  0.007700  0.244400  1.0
  H  H858  1  0.389400  0.742300  0.744400  1.0
  H  H859  1  0.889400  0.507700  0.005600  1.0
  H  H860  1  0.360600  0.242300  0.505600  1.0
  H  H861  1  0.744400  0.860600  0.507700  1.0
  H  H862  1  0.244400  0.389400  0.242300  1.0
  H  H863  1  0.505600  0.889400  0.007700  1.0
  H  H864  1  0.005600  0.360600  0.742300  1.0
  H  H865  1  0.007700  0.744400  0.360600  1.0
  H  H866  1  0.742300  0.244400  0.889400  1.0
  H  H867  1  0.507700  0.505600  0.389400  1.0
  H  H868  1  0.242300  0.005600  0.860600  1.0
  H  H869  1  0.757700  0.110600  0.755600  1.0
  H  H870  1  0.492300  0.639400  0.255600  1.0
  H  H871  1  0.257700  0.139400  0.994400  1.0
  H  H872  1  0.992300  0.610600  0.494400  1.0
  H  H873  1  0.610600  0.994400  0.492300  1.0
  H  H874  1  0.139400  0.494400  0.757700  1.0
  H  H875  1  0.639400  0.755600  0.992300  1.0
  H  H876  1  0.110600  0.255600  0.257700  1.0
  H  H877  1  0.494400  0.257700  0.639400  1.0
  H  H878  1  0.994400  0.992300  0.110600  1.0
  H  H879  1  0.255600  0.757700  0.610600  1.0
  H  H880  1  0.755600  0.492300  0.139400  1.0
  H  H881  1  0.639400  0.492300  0.755600  1.0
  H  H882  1  0.110600  0.757700  0.255600  1.0
  H  H883  1  0.610600  0.992300  0.994400  1.0
  H  H884  1  0.139400  0.257700  0.494400  1.0
  H  H885  1  0.755600  0.639400  0.492300  1.0
  H  H886  1  0.255600  0.110600  0.757700  1.0
  H  H887  1  0.994400  0.610600  0.992300  1.0
  H  H888  1  0.494400  0.139400  0.257700  1.0
  H  H889  1  0.492300  0.755600  0.639400  1.0
  H  H890  1  0.757700  0.255600  0.110600  1.0
  H  H891  1  0.992300  0.994400  0.610600  1.0
  H  H892  1  0.257700  0.494400  0.139400  1.0
  H  H893  1  0.742300  0.389400  0.244400  1.0
  H  H894  1  0.007700  0.860600  0.744400  1.0
  H  H895  1  0.242300  0.360600  0.005600  1.0
  H  H896  1  0.507700  0.889400  0.505600  1.0
  H  H897  1  0.889400  0.505600  0.507700  1.0
  H  H898  1  0.360600  0.005600  0.242300  1.0
  H  H899  1  0.860600  0.744400  0.007700  1.0
  H  H900  1  0.389400  0.244400  0.742300  1.0
  H  H901  1  0.005600  0.242300  0.360600  1.0
  H  H902  1  0.505600  0.507700  0.889400  1.0
  H  H903  1  0.244400  0.742300  0.389400  1.0
  H  H904  1  0.744400  0.007700  0.860600  1.0
  H  H905  1  0.639400  0.992300  0.255600  1.0
  H  H906  1  0.110600  0.257700  0.755600  1.0
  H  H907  1  0.610600  0.492300  0.494400  1.0
  H  H908  1  0.139400  0.757700  0.994400  1.0
  H  H909  1  0.755600  0.139400  0.992300  1.0
  H  H910  1  0.255600  0.610600  0.257700  1.0
  H  H911  1  0.994400  0.110600  0.492300  1.0
  H  H912  1  0.494400  0.639400  0.757700  1.0
  H  H913  1  0.492300  0.255600  0.139400  1.0
  H  H914  1  0.757700  0.755600  0.610600  1.0
  H  H915  1  0.992300  0.494400  0.110600  1.0
  H  H916  1  0.257700  0.994400  0.639400  1.0
  H  H917  1  0.742300  0.889400  0.744400  1.0
  H  H918  1  0.007700  0.360600  0.244400  1.0
  H  H919  1  0.242300  0.860600  0.505600  1.0
  H  H920  1  0.507700  0.389400  0.005600  1.0
  H  H921  1  0.889400  0.005600  0.007700  1.0
  H  H922  1  0.360600  0.505600  0.742300  1.0
  H  H923  1  0.860600  0.244400  0.507700  1.0
  H  H924  1  0.389400  0.744400  0.242300  1.0
  H  H925  1  0.005600  0.742300  0.860600  1.0
  H  H926  1  0.505600  0.007700  0.389400  1.0
  H  H927  1  0.244400  0.242300  0.889400  1.0
  H  H928  1  0.744400  0.507700  0.360600  1.0
  H  H929  1  0.139400  0.492300  0.255600  1.0
  H  H930  1  0.610600  0.757700  0.755600  1.0
  H  H931  1  0.110600  0.992300  0.494400  1.0
  H  H932  1  0.639400  0.257700  0.994400  1.0
  H  H933  1  0.255600  0.639400  0.992300  1.0
  H  H934  1  0.755600  0.110600  0.257700  1.0
  H  H935  1  0.494400  0.610600  0.492300  1.0
  H  H936  1  0.994400  0.139400  0.757700  1.0
  H  H937  1  0.992300  0.755600  0.139400  1.0
  H  H938  1  0.257700  0.255600  0.610600  1.0
  H  H939  1  0.492300  0.994400  0.110600  1.0
  H  H940  1  0.757700  0.494400  0.639400  1.0
  H  H941  1  0.242300  0.389400  0.744400  1.0
  H  H942  1  0.507700  0.860600  0.244400  1.0
  H  H943  1  0.742300  0.360600  0.505600  1.0
  H  H944  1  0.007700  0.889400  0.005600  1.0
  H  H945  1  0.389400  0.505600  0.007700  1.0
  H  H946  1  0.860600  0.005600  0.742300  1.0
  H  H947  1  0.360600  0.744400  0.507700  1.0
  H  H948  1  0.889400  0.244400  0.242300  1.0
  H  H949  1  0.505600  0.242300  0.860600  1.0
  H  H950  1  0.005600  0.507700  0.389400  1.0
  H  H951  1  0.744400  0.742300  0.889400  1.0
  H  H952  1  0.244400  0.007700  0.360600  1.0
  H  H953  1  0.139400  0.992300  0.755600  1.0
  H  H954  1  0.610600  0.257700  0.255600  1.0
  H  H955  1  0.110600  0.492300  0.994400  1.0
  H  H956  1  0.639400  0.757700  0.494400  1.0
  H  H957  1  0.255600  0.139400  0.492300  1.0
  H  H958  1  0.755600  0.610600  0.757700  1.0
  H  H959  1  0.494400  0.110600  0.992300  1.0
  H  H960  1  0.994400  0.639400  0.257700  1.0
  H  H961  1  0.992300  0.255600  0.639400  1.0
  H  H962  1  0.257700  0.755600  0.110600  1.0
  H  H963  1  0.492300  0.494400  0.610600  1.0
  H  H964  1  0.757700  0.994400  0.139400  1.0
  H  H965  1  0.242300  0.889400  0.244400  1.0
  H  H966  1  0.507700  0.360600  0.744400  1.0
  H  H967  1  0.742300  0.860600  0.005600  1.0
  H  H968  1  0.007700  0.389400  0.505600  1.0
  H  H969  1  0.389400  0.005600  0.507700  1.0
  H  H970  1  0.860600  0.505600  0.242300  1.0
  H  H971  1  0.360600  0.244400  0.007700  1.0
  H  H972  1  0.889400  0.744400  0.742300  1.0
  H  H973  1  0.505600  0.742300  0.360600  1.0
  H  H974  1  0.005600  0.007700  0.889400  1.0
  H  H975  1  0.744400  0.242300  0.389400  1.0
  H  H976  1  0.244400  0.507700  0.860600  1.0
  H  H977  1  0.329900  0.426400  0.263900  1.0
  H  H978  1  0.920100  0.323600  0.763900  1.0
  H  H979  1  0.420100  0.926400  0.986100  1.0
  H  H980  1  0.829900  0.823600  0.486100  1.0
  H  H981  1  0.263900  0.329900  0.426400  1.0
  H  H982  1  0.763900  0.920100  0.323600  1.0
  H  H983  1  0.986100  0.420100  0.926400  1.0
  H  H984  1  0.486100  0.829900  0.823600  1.0
  H  H985  1  0.426400  0.263900  0.329900  1.0
  H  H986  1  0.323600  0.763900  0.920100  1.0
  H  H987  1  0.926400  0.986100  0.420100  1.0
  H  H988  1  0.823600  0.486100  0.829900  1.0
  H  H989  1  0.176400  0.579900  0.736100  1.0
  H  H990  1  0.073600  0.170100  0.236100  1.0
  H  H991  1  0.676400  0.670100  0.013900  1.0
  H  H992  1  0.573600  0.079900  0.513900  1.0
  H  H993  1  0.079900  0.513900  0.573600  1.0
  H  H994  1  0.670100  0.013900  0.676400  1.0
  H  H995  1  0.170100  0.236100  0.073600  1.0
  H  H996  1  0.579900  0.736100  0.176400  1.0
  H  H997  1  0.013900  0.676400  0.670100  1.0
  H  H998  1  0.513900  0.573600  0.079900  1.0
  H  H999  1  0.736100  0.176400  0.579900  1.0
  H  H1000  1  0.236100  0.073600  0.170100  1.0
  H  H1001  1  0.329900  0.926400  0.763900  1.0
  H  H1002  1  0.920100  0.823600  0.263900  1.0
  H  H1003  1  0.420100  0.426400  0.486100  1.0
  H  H1004  1  0.829900  0.323600  0.986100  1.0
  H  H1005  1  0.263900  0.829900  0.926400  1.0
  H  H1006  1  0.763900  0.420100  0.823600  1.0
  H  H1007  1  0.986100  0.920100  0.426400  1.0
  H  H1008  1  0.486100  0.329900  0.323600  1.0
  H  H1009  1  0.426400  0.763900  0.829900  1.0
  H  H1010  1  0.323600  0.263900  0.420100  1.0
  H  H1011  1  0.926400  0.486100  0.920100  1.0
  H  H1012  1  0.823600  0.986100  0.329900  1.0
  H  H1013  1  0.176400  0.079900  0.236100  1.0
  H  H1014  1  0.073600  0.670100  0.736100  1.0
  H  H1015  1  0.676400  0.170100  0.513900  1.0
  H  H1016  1  0.573600  0.579900  0.013900  1.0
  H  H1017  1  0.079900  0.013900  0.073600  1.0
  H  H1018  1  0.670100  0.513900  0.176400  1.0
  H  H1019  1  0.170100  0.736100  0.573600  1.0
  H  H1020  1  0.579900  0.236100  0.676400  1.0
  H  H1021  1  0.013900  0.176400  0.170100  1.0
  H  H1022  1  0.513900  0.073600  0.579900  1.0
  H  H1023  1  0.736100  0.676400  0.079900  1.0
  H  H1024  1  0.236100  0.573600  0.670100  1.0
  H  H1025  1  0.829900  0.426400  0.763900  1.0
  H  H1026  1  0.420100  0.323600  0.263900  1.0
  H  H1027  1  0.920100  0.926400  0.486100  1.0
  H  H1028  1  0.329900  0.823600  0.986100  1.0
  H  H1029  1  0.763900  0.329900  0.926400  1.0
  H  H1030  1  0.263900  0.920100  0.823600  1.0
  H  H1031  1  0.486100  0.420100  0.426400  1.0
  H  H1032  1  0.986100  0.829900  0.323600  1.0
  H  H1033  1  0.926400  0.263900  0.829900  1.0
  H  H1034  1  0.823600  0.763900  0.420100  1.0
  H  H1035  1  0.426400  0.986100  0.920100  1.0
  H  H1036  1  0.323600  0.486100  0.329900  1.0
  H  H1037  1  0.676400  0.579900  0.236100  1.0
  H  H1038  1  0.573600  0.170100  0.736100  1.0
  H  H1039  1  0.176400  0.670100  0.513900  1.0
  H  H1040  1  0.073600  0.079900  0.013900  1.0
  H  H1041  1  0.579900  0.513900  0.073600  1.0
  H  H1042  1  0.170100  0.013900  0.176400  1.0
  H  H1043  1  0.670100  0.236100  0.573600  1.0
  H  H1044  1  0.079900  0.736100  0.676400  1.0
  H  H1045  1  0.513900  0.676400  0.170100  1.0
  H  H1046  1  0.013900  0.573600  0.579900  1.0
  H  H1047  1  0.236100  0.176400  0.079900  1.0
  H  H1048  1  0.736100  0.073600  0.670100  1.0
  H  H1049  1  0.829900  0.926400  0.263900  1.0
  H  H1050  1  0.420100  0.823600  0.763900  1.0
  H  H1051  1  0.920100  0.426400  0.986100  1.0
  H  H1052  1  0.329900  0.323600  0.486100  1.0
  H  H1053  1  0.763900  0.829900  0.426400  1.0
  H  H1054  1  0.263900  0.420100  0.323600  1.0
  H  H1055  1  0.486100  0.920100  0.926400  1.0
  H  H1056  1  0.986100  0.329900  0.823600  1.0
  H  H1057  1  0.926400  0.763900  0.329900  1.0
  H  H1058  1  0.823600  0.263900  0.920100  1.0
  H  H1059  1  0.426400  0.486100  0.420100  1.0
  H  H1060  1  0.323600  0.986100  0.829900  1.0
  H  H1061  1  0.676400  0.079900  0.736100  1.0
  H  H1062  1  0.573600  0.670100  0.236100  1.0
  H  H1063  1  0.176400  0.170100  0.013900  1.0
  H  H1064  1  0.073600  0.579900  0.513900  1.0
  H  H1065  1  0.579900  0.013900  0.573600  1.0
  H  H1066  1  0.170100  0.513900  0.676400  1.0
  H  H1067  1  0.670100  0.736100  0.073600  1.0
  H  H1068  1  0.079900  0.236100  0.176400  1.0
  H  H1069  1  0.513900  0.176400  0.670100  1.0
  H  H1070  1  0.013900  0.073600  0.079900  1.0
  H  H1071  1  0.236100  0.676400  0.579900  1.0
  H  H1072  1  0.736100  0.573600  0.170100  1.0
  H  H1073  1  0.670100  0.573600  0.736100  1.0
  H  H1074  1  0.079900  0.676400  0.236100  1.0
  H  H1075  1  0.579900  0.073600  0.013900  1.0
  H  H1076  1  0.170100  0.176400  0.513900  1.0
  H  H1077  1  0.736100  0.670100  0.573600  1.0
  H  H1078  1  0.236100  0.079900  0.676400  1.0
  H  H1079  1  0.013900  0.579900  0.073600  1.0
  H  H1080  1  0.513900  0.170100  0.176400  1.0
  H  H1081  1  0.573600  0.736100  0.670100  1.0
  H  H1082  1  0.676400  0.236100  0.079900  1.0
  H  H1083  1  0.073600  0.013900  0.579900  1.0
  H  H1084  1  0.176400  0.513900  0.170100  1.0
  H  H1085  1  0.823600  0.420100  0.263900  1.0
  H  H1086  1  0.926400  0.829900  0.763900  1.0
  H  H1087  1  0.323600  0.329900  0.986100  1.0
  H  H1088  1  0.426400  0.920100  0.486100  1.0
  H  H1089  1  0.920100  0.486100  0.426400  1.0
  H  H1090  1  0.329900  0.986100  0.323600  1.0
  H  H1091  1  0.829900  0.763900  0.926400  1.0
  H  H1092  1  0.420100  0.263900  0.823600  1.0
  H  H1093  1  0.986100  0.323600  0.329900  1.0
  H  H1094  1  0.486100  0.426400  0.920100  1.0
  H  H1095  1  0.263900  0.823600  0.420100  1.0
  H  H1096  1  0.763900  0.926400  0.829900  1.0
  H  H1097  1  0.670100  0.073600  0.236100  1.0
  H  H1098  1  0.079900  0.176400  0.736100  1.0
  H  H1099  1  0.579900  0.573600  0.513900  1.0
  H  H1100  1  0.170100  0.676400  0.013900  1.0
  H  H1101  1  0.736100  0.170100  0.073600  1.0
  H  H1102  1  0.236100  0.579900  0.176400  1.0
  H  H1103  1  0.013900  0.079900  0.573600  1.0
  H  H1104  1  0.513900  0.670100  0.676400  1.0
  H  H1105  1  0.573600  0.236100  0.170100  1.0
  H  H1106  1  0.676400  0.736100  0.579900  1.0
  H  H1107  1  0.073600  0.513900  0.079900  1.0
  H  H1108  1  0.176400  0.013900  0.670100  1.0
  H  H1109  1  0.823600  0.920100  0.763900  1.0
  H  H1110  1  0.926400  0.329900  0.263900  1.0
  H  H1111  1  0.323600  0.829900  0.486100  1.0
  H  H1112  1  0.426400  0.420100  0.986100  1.0
  H  H1113  1  0.920100  0.986100  0.926400  1.0
  H  H1114  1  0.329900  0.486100  0.823600  1.0
  H  H1115  1  0.829900  0.263900  0.426400  1.0
  H  H1116  1  0.420100  0.763900  0.323600  1.0
  H  H1117  1  0.986100  0.823600  0.829900  1.0
  H  H1118  1  0.486100  0.926400  0.420100  1.0
  H  H1119  1  0.263900  0.323600  0.920100  1.0
  H  H1120  1  0.763900  0.426400  0.329900  1.0
  H  H1121  1  0.170100  0.573600  0.236100  1.0
  H  H1122  1  0.579900  0.676400  0.736100  1.0
  H  H1123  1  0.079900  0.073600  0.513900  1.0
  H  H1124  1  0.670100  0.176400  0.013900  1.0
  H  H1125  1  0.236100  0.670100  0.073600  1.0
  H  H1126  1  0.736100  0.079900  0.176400  1.0
  H  H1127  1  0.513900  0.579900  0.573600  1.0
  H  H1128  1  0.013900  0.170100  0.676400  1.0
  H  H1129  1  0.073600  0.736100  0.170100  1.0
  H  H1130  1  0.176400  0.236100  0.579900  1.0
  H  H1131  1  0.573600  0.013900  0.079900  1.0
  H  H1132  1  0.676400  0.513900  0.670100  1.0
  H  H1133  1  0.323600  0.420100  0.763900  1.0
  H  H1134  1  0.426400  0.829900  0.263900  1.0
  H  H1135  1  0.823600  0.329900  0.486100  1.0
  H  H1136  1  0.926400  0.920100  0.986100  1.0
  H  H1137  1  0.420100  0.486100  0.926400  1.0
  H  H1138  1  0.829900  0.986100  0.823600  1.0
  H  H1139  1  0.329900  0.763900  0.426400  1.0
  H  H1140  1  0.920100  0.263900  0.323600  1.0
  H  H1141  1  0.486100  0.323600  0.829900  1.0
  H  H1142  1  0.986100  0.426400  0.420100  1.0
  H  H1143  1  0.763900  0.823600  0.920100  1.0
  H  H1144  1  0.263900  0.926400  0.329900  1.0
  H  H1145  1  0.170100  0.073600  0.736100  1.0
  H  H1146  1  0.579900  0.176400  0.236100  1.0
  H  H1147  1  0.079900  0.573600  0.013900  1.0
  H  H1148  1  0.670100  0.676400  0.513900  1.0
  H  H1149  1  0.236100  0.170100  0.573600  1.0
  H  H1150  1  0.736100  0.579900  0.676400  1.0
  H  H1151  1  0.513900  0.079900  0.073600  1.0
  H  H1152  1  0.013900  0.670100  0.176400  1.0
  H  H1153  1  0.073600  0.236100  0.670100  1.0
  H  H1154  1  0.176400  0.736100  0.079900  1.0
  H  H1155  1  0.573600  0.513900  0.579900  1.0
  H  H1156  1  0.676400  0.013900  0.170100  1.0
  H  H1157  1  0.323600  0.920100  0.263900  1.0
  H  H1158  1  0.426400  0.329900  0.763900  1.0
  H  H1159  1  0.823600  0.829900  0.986100  1.0
  H  H1160  1  0.926400  0.420100  0.486100  1.0
  H  H1161  1  0.420100  0.986100  0.426400  1.0
  H  H1162  1  0.829900  0.486100  0.323600  1.0
  H  H1163  1  0.329900  0.263900  0.926400  1.0
  H  H1164  1  0.920100  0.763900  0.823600  1.0
  H  H1165  1  0.486100  0.823600  0.329900  1.0
  H  H1166  1  0.986100  0.926400  0.920100  1.0
  H  H1167  1  0.763900  0.323600  0.420100  1.0
  H  H1168  1  0.263900  0.426400  0.829900  1.0
  H  H1169  1  0.308400  0.384900  0.261300  1.0
  H  H1170  1  0.941600  0.365100  0.761300  1.0
  H  H1171  1  0.441600  0.884900  0.988700  1.0
  H  H1172  1  0.808400  0.865100  0.488700  1.0
  H  H1173  1  0.261300  0.308400  0.384900  1.0
  H  H1174  1  0.761300  0.941600  0.365100  1.0
  H  H1175  1  0.988700  0.441600  0.884900  1.0
  H  H1176  1  0.488700  0.808400  0.865100  1.0
  H  H1177  1  0.384900  0.261300  0.308400  1.0
  H  H1178  1  0.365100  0.761300  0.941600  1.0
  H  H1179  1  0.884900  0.988700  0.441600  1.0
  H  H1180  1  0.865100  0.488700  0.808400  1.0
  H  H1181  1  0.134900  0.558400  0.738700  1.0
  H  H1182  1  0.115100  0.191600  0.238700  1.0
  H  H1183  1  0.634900  0.691600  0.011300  1.0
  H  H1184  1  0.615100  0.058400  0.511300  1.0
  H  H1185  1  0.058400  0.511300  0.615100  1.0
  H  H1186  1  0.691600  0.011300  0.634900  1.0
  H  H1187  1  0.191600  0.238700  0.115100  1.0
  H  H1188  1  0.558400  0.738700  0.134900  1.0
  H  H1189  1  0.011300  0.634900  0.691600  1.0
  H  H1190  1  0.511300  0.615100  0.058400  1.0
  H  H1191  1  0.738700  0.134900  0.558400  1.0
  H  H1192  1  0.238700  0.115100  0.191600  1.0
  H  H1193  1  0.308400  0.884900  0.761300  1.0
  H  H1194  1  0.941600  0.865100  0.261300  1.0
  H  H1195  1  0.441600  0.384900  0.488700  1.0
  H  H1196  1  0.808400  0.365100  0.988700  1.0
  H  H1197  1  0.261300  0.808400  0.884900  1.0
  H  H1198  1  0.761300  0.441600  0.865100  1.0
  H  H1199  1  0.988700  0.941600  0.384900  1.0
  H  H1200  1  0.488700  0.308400  0.365100  1.0
  H  H1201  1  0.384900  0.761300  0.808400  1.0
  H  H1202  1  0.365100  0.261300  0.441600  1.0
  H  H1203  1  0.884900  0.488700  0.941600  1.0
  H  H1204  1  0.865100  0.988700  0.308400  1.0
  H  H1205  1  0.134900  0.058400  0.238700  1.0
  H  H1206  1  0.115100  0.691600  0.738700  1.0
  H  H1207  1  0.634900  0.191600  0.511300  1.0
  H  H1208  1  0.615100  0.558400  0.011300  1.0
  H  H1209  1  0.058400  0.011300  0.115100  1.0
  H  H1210  1  0.691600  0.511300  0.134900  1.0
  H  H1211  1  0.191600  0.738700  0.615100  1.0
  H  H1212  1  0.558400  0.238700  0.634900  1.0
  H  H1213  1  0.011300  0.134900  0.191600  1.0
  H  H1214  1  0.511300  0.115100  0.558400  1.0
  H  H1215  1  0.738700  0.634900  0.058400  1.0
  H  H1216  1  0.238700  0.615100  0.691600  1.0
  H  H1217  1  0.808400  0.384900  0.761300  1.0
  H  H1218  1  0.441600  0.365100  0.261300  1.0
  H  H1219  1  0.941600  0.884900  0.488700  1.0
  H  H1220  1  0.308400  0.865100  0.988700  1.0
  H  H1221  1  0.761300  0.308400  0.884900  1.0
  H  H1222  1  0.261300  0.941600  0.865100  1.0
  H  H1223  1  0.488700  0.441600  0.384900  1.0
  H  H1224  1  0.988700  0.808400  0.365100  1.0
  H  H1225  1  0.884900  0.261300  0.808400  1.0
  H  H1226  1  0.865100  0.761300  0.441600  1.0
  H  H1227  1  0.384900  0.988700  0.941600  1.0
  H  H1228  1  0.365100  0.488700  0.308400  1.0
  H  H1229  1  0.634900  0.558400  0.238700  1.0
  H  H1230  1  0.615100  0.191600  0.738700  1.0
  H  H1231  1  0.134900  0.691600  0.511300  1.0
  H  H1232  1  0.115100  0.058400  0.011300  1.0
  H  H1233  1  0.558400  0.511300  0.115100  1.0
  H  H1234  1  0.191600  0.011300  0.134900  1.0
  H  H1235  1  0.691600  0.238700  0.615100  1.0
  H  H1236  1  0.058400  0.738700  0.634900  1.0
  H  H1237  1  0.511300  0.634900  0.191600  1.0
  H  H1238  1  0.011300  0.615100  0.558400  1.0
  H  H1239  1  0.238700  0.134900  0.058400  1.0
  H  H1240  1  0.738700  0.115100  0.691600  1.0
  H  H1241  1  0.808400  0.884900  0.261300  1.0
  H  H1242  1  0.441600  0.865100  0.761300  1.0
  H  H1243  1  0.941600  0.384900  0.988700  1.0
  H  H1244  1  0.308400  0.365100  0.488700  1.0
  H  H1245  1  0.761300  0.808400  0.384900  1.0
  H  H1246  1  0.261300  0.441600  0.365100  1.0
  H  H1247  1  0.488700  0.941600  0.884900  1.0
  H  H1248  1  0.988700  0.308400  0.865100  1.0
  H  H1249  1  0.884900  0.761300  0.308400  1.0
  H  H1250  1  0.865100  0.261300  0.941600  1.0
  H  H1251  1  0.384900  0.488700  0.441600  1.0
  H  H1252  1  0.365100  0.988700  0.808400  1.0
  H  H1253  1  0.634900  0.058400  0.738700  1.0
  H  H1254  1  0.615100  0.691600  0.238700  1.0
  H  H1255  1  0.134900  0.191600  0.011300  1.0
  H  H1256  1  0.115100  0.558400  0.511300  1.0
  H  H1257  1  0.558400  0.011300  0.615100  1.0
  H  H1258  1  0.191600  0.511300  0.634900  1.0
  H  H1259  1  0.691600  0.738700  0.115100  1.0
  H  H1260  1  0.058400  0.238700  0.134900  1.0
  H  H1261  1  0.511300  0.134900  0.691600  1.0
  H  H1262  1  0.011300  0.115100  0.058400  1.0
  H  H1263  1  0.238700  0.634900  0.558400  1.0
  H  H1264  1  0.738700  0.615100  0.191600  1.0
  H  H1265  1  0.691600  0.615100  0.738700  1.0
  H  H1266  1  0.058400  0.634900  0.238700  1.0
  H  H1267  1  0.558400  0.115100  0.011300  1.0
  H  H1268  1  0.191600  0.134900  0.511300  1.0
  H  H1269  1  0.738700  0.691600  0.615100  1.0
  H  H1270  1  0.238700  0.058400  0.634900  1.0
  H  H1271  1  0.011300  0.558400  0.115100  1.0
  H  H1272  1  0.511300  0.191600  0.134900  1.0
  H  H1273  1  0.615100  0.738700  0.691600  1.0
  H  H1274  1  0.634900  0.238700  0.058400  1.0
  H  H1275  1  0.115100  0.011300  0.558400  1.0
  H  H1276  1  0.134900  0.511300  0.191600  1.0
  H  H1277  1  0.865100  0.441600  0.261300  1.0
  H  H1278  1  0.884900  0.808400  0.761300  1.0
  H  H1279  1  0.365100  0.308400  0.988700  1.0
  H  H1280  1  0.384900  0.941600  0.488700  1.0
  H  H1281  1  0.941600  0.488700  0.384900  1.0
  H  H1282  1  0.308400  0.988700  0.365100  1.0
  H  H1283  1  0.808400  0.761300  0.884900  1.0
  H  H1284  1  0.441600  0.261300  0.865100  1.0
  H  H1285  1  0.988700  0.365100  0.308400  1.0
  H  H1286  1  0.488700  0.384900  0.941600  1.0
  H  H1287  1  0.261300  0.865100  0.441600  1.0
  H  H1288  1  0.761300  0.884900  0.808400  1.0
  H  H1289  1  0.691600  0.115100  0.238700  1.0
  H  H1290  1  0.058400  0.134900  0.738700  1.0
  H  H1291  1  0.558400  0.615100  0.511300  1.0
  H  H1292  1  0.191600  0.634900  0.011300  1.0
  H  H1293  1  0.738700  0.191600  0.115100  1.0
  H  H1294  1  0.238700  0.558400  0.134900  1.0
  H  H1295  1  0.011300  0.058400  0.615100  1.0
  H  H1296  1  0.511300  0.691600  0.634900  1.0
  H  H1297  1  0.615100  0.238700  0.191600  1.0
  H  H1298  1  0.634900  0.738700  0.558400  1.0
  H  H1299  1  0.115100  0.511300  0.058400  1.0
  H  H1300  1  0.134900  0.011300  0.691600  1.0
  H  H1301  1  0.865100  0.941600  0.761300  1.0
  H  H1302  1  0.884900  0.308400  0.261300  1.0
  H  H1303  1  0.365100  0.808400  0.488700  1.0
  H  H1304  1  0.384900  0.441600  0.988700  1.0
  H  H1305  1  0.941600  0.988700  0.884900  1.0
  H  H1306  1  0.308400  0.488700  0.865100  1.0
  H  H1307  1  0.808400  0.261300  0.384900  1.0
  H  H1308  1  0.441600  0.761300  0.365100  1.0
  H  H1309  1  0.988700  0.865100  0.808400  1.0
  H  H1310  1  0.488700  0.884900  0.441600  1.0
  H  H1311  1  0.261300  0.365100  0.941600  1.0
  H  H1312  1  0.761300  0.384900  0.308400  1.0
  H  H1313  1  0.191600  0.615100  0.238700  1.0
  H  H1314  1  0.558400  0.634900  0.738700  1.0
  H  H1315  1  0.058400  0.115100  0.511300  1.0
  H  H1316  1  0.691600  0.134900  0.011300  1.0
  H  H1317  1  0.238700  0.691600  0.115100  1.0
  H  H1318  1  0.738700  0.058400  0.134900  1.0
  H  H1319  1  0.511300  0.558400  0.615100  1.0
  H  H1320  1  0.011300  0.191600  0.634900  1.0
  H  H1321  1  0.115100  0.738700  0.191600  1.0
  H  H1322  1  0.134900  0.238700  0.558400  1.0
  H  H1323  1  0.615100  0.011300  0.058400  1.0
  H  H1324  1  0.634900  0.511300  0.691600  1.0
  H  H1325  1  0.365100  0.441600  0.761300  1.0
  H  H1326  1  0.384900  0.808400  0.261300  1.0
  H  H1327  1  0.865100  0.308400  0.488700  1.0
  H  H1328  1  0.884900  0.941600  0.988700  1.0
  H  H1329  1  0.441600  0.488700  0.884900  1.0
  H  H1330  1  0.808400  0.988700  0.865100  1.0
  H  H1331  1  0.308400  0.761300  0.384900  1.0
  H  H1332  1  0.941600  0.261300  0.365100  1.0
  H  H1333  1  0.488700  0.365100  0.808400  1.0
  H  H1334  1  0.988700  0.384900  0.441600  1.0
  H  H1335  1  0.761300  0.865100  0.941600  1.0
  H  H1336  1  0.261300  0.884900  0.308400  1.0
  H  H1337  1  0.191600  0.115100  0.738700  1.0
  H  H1338  1  0.558400  0.134900  0.238700  1.0
  H  H1339  1  0.058400  0.615100  0.011300  1.0
  H  H1340  1  0.691600  0.634900  0.511300  1.0
  H  H1341  1  0.238700  0.191600  0.615100  1.0
  H  H1342  1  0.738700  0.558400  0.634900  1.0
  H  H1343  1  0.511300  0.058400  0.115100  1.0
  H  H1344  1  0.011300  0.691600  0.134900  1.0
  H  H1345  1  0.115100  0.238700  0.691600  1.0
  H  H1346  1  0.134900  0.738700  0.058400  1.0
  H  H1347  1  0.615100  0.511300  0.558400  1.0
  H  H1348  1  0.634900  0.011300  0.191600  1.0
  H  H1349  1  0.365100  0.941600  0.261300  1.0
  H  H1350  1  0.384900  0.308400  0.761300  1.0
  H  H1351  1  0.865100  0.808400  0.988700  1.0
  H  H1352  1  0.884900  0.441600  0.488700  1.0
  H  H1353  1  0.441600  0.988700  0.384900  1.0
  H  H1354  1  0.808400  0.488700  0.365100  1.0
  H  H1355  1  0.308400  0.261300  0.884900  1.0
  H  H1356  1  0.941600  0.761300  0.865100  1.0
  H  H1357  1  0.488700  0.865100  0.308400  1.0
  H  H1358  1  0.988700  0.884900  0.941600  1.0
  H  H1359  1  0.761300  0.365100  0.441600  1.0
  H  H1360  1  0.261300  0.384900  0.808400  1.0
  H  H1361  1  0.417500  0.404500  0.262000  1.0
  H  H1362  1  0.832500  0.345500  0.762000  1.0
  H  H1363  1  0.332500  0.904500  0.988000  1.0
  H  H1364  1  0.917500  0.845500  0.488000  1.0
  H  H1365  1  0.262000  0.417500  0.404500  1.0
  H  H1366  1  0.762000  0.832500  0.345500  1.0
  H  H1367  1  0.988000  0.332500  0.904500  1.0
  H  H1368  1  0.488000  0.917500  0.845500  1.0
  H  H1369  1  0.404500  0.262000  0.417500  1.0
  H  H1370  1  0.345500  0.762000  0.832500  1.0
  H  H1371  1  0.904500  0.988000  0.332500  1.0
  H  H1372  1  0.845500  0.488000  0.917500  1.0
  H  H1373  1  0.154500  0.667500  0.738000  1.0
  H  H1374  1  0.095500  0.082500  0.238000  1.0
  H  H1375  1  0.654500  0.582500  0.012000  1.0
  H  H1376  1  0.595500  0.167500  0.512000  1.0
  H  H1377  1  0.167500  0.512000  0.595500  1.0
  H  H1378  1  0.582500  0.012000  0.654500  1.0
  H  H1379  1  0.082500  0.238000  0.095500  1.0
  H  H1380  1  0.667500  0.738000  0.154500  1.0
  H  H1381  1  0.012000  0.654500  0.582500  1.0
  H  H1382  1  0.512000  0.595500  0.167500  1.0
  H  H1383  1  0.738000  0.154500  0.667500  1.0
  H  H1384  1  0.238000  0.095500  0.082500  1.0
  H  H1385  1  0.417500  0.904500  0.762000  1.0
  H  H1386  1  0.832500  0.845500  0.262000  1.0
  H  H1387  1  0.332500  0.404500  0.488000  1.0
  H  H1388  1  0.917500  0.345500  0.988000  1.0
  H  H1389  1  0.262000  0.917500  0.904500  1.0
  H  H1390  1  0.762000  0.332500  0.845500  1.0
  H  H1391  1  0.988000  0.832500  0.404500  1.0
  H  H1392  1  0.488000  0.417500  0.345500  1.0
  H  H1393  1  0.404500  0.762000  0.917500  1.0
  H  H1394  1  0.345500  0.262000  0.332500  1.0
  H  H1395  1  0.904500  0.488000  0.832500  1.0
  H  H1396  1  0.845500  0.988000  0.417500  1.0
  H  H1397  1  0.154500  0.167500  0.238000  1.0
  H  H1398  1  0.095500  0.582500  0.738000  1.0
  H  H1399  1  0.654500  0.082500  0.512000  1.0
  H  H1400  1  0.595500  0.667500  0.012000  1.0
  H  H1401  1  0.167500  0.012000  0.095500  1.0
  H  H1402  1  0.582500  0.512000  0.154500  1.0
  H  H1403  1  0.082500  0.738000  0.595500  1.0
  H  H1404  1  0.667500  0.238000  0.654500  1.0
  H  H1405  1  0.012000  0.154500  0.082500  1.0
  H  H1406  1  0.512000  0.095500  0.667500  1.0
  H  H1407  1  0.738000  0.654500  0.167500  1.0
  H  H1408  1  0.238000  0.595500  0.582500  1.0
  H  H1409  1  0.917500  0.404500  0.762000  1.0
  H  H1410  1  0.332500  0.345500  0.262000  1.0
  H  H1411  1  0.832500  0.904500  0.488000  1.0
  H  H1412  1  0.417500  0.845500  0.988000  1.0
  H  H1413  1  0.762000  0.417500  0.904500  1.0
  H  H1414  1  0.262000  0.832500  0.845500  1.0
  H  H1415  1  0.488000  0.332500  0.404500  1.0
  H  H1416  1  0.988000  0.917500  0.345500  1.0
  H  H1417  1  0.904500  0.262000  0.917500  1.0
  H  H1418  1  0.845500  0.762000  0.332500  1.0
  H  H1419  1  0.404500  0.988000  0.832500  1.0
  H  H1420  1  0.345500  0.488000  0.417500  1.0
  H  H1421  1  0.654500  0.667500  0.238000  1.0
  H  H1422  1  0.595500  0.082500  0.738000  1.0
  H  H1423  1  0.154500  0.582500  0.512000  1.0
  H  H1424  1  0.095500  0.167500  0.012000  1.0
  H  H1425  1  0.667500  0.512000  0.095500  1.0
  H  H1426  1  0.082500  0.012000  0.154500  1.0
  H  H1427  1  0.582500  0.238000  0.595500  1.0
  H  H1428  1  0.167500  0.738000  0.654500  1.0
  H  H1429  1  0.512000  0.654500  0.082500  1.0
  H  H1430  1  0.012000  0.595500  0.667500  1.0
  H  H1431  1  0.238000  0.154500  0.167500  1.0
  H  H1432  1  0.738000  0.095500  0.582500  1.0
  H  H1433  1  0.917500  0.904500  0.262000  1.0
  H  H1434  1  0.332500  0.845500  0.762000  1.0
  H  H1435  1  0.832500  0.404500  0.988000  1.0
  H  H1436  1  0.417500  0.345500  0.488000  1.0
  H  H1437  1  0.762000  0.917500  0.404500  1.0
  H  H1438  1  0.262000  0.332500  0.345500  1.0
  H  H1439  1  0.488000  0.832500  0.904500  1.0
  H  H1440  1  0.988000  0.417500  0.845500  1.0
  H  H1441  1  0.904500  0.762000  0.417500  1.0
  H  H1442  1  0.845500  0.262000  0.832500  1.0
  H  H1443  1  0.404500  0.488000  0.332500  1.0
  H  H1444  1  0.345500  0.988000  0.917500  1.0
  H  H1445  1  0.654500  0.167500  0.738000  1.0
  H  H1446  1  0.595500  0.582500  0.238000  1.0
  H  H1447  1  0.154500  0.082500  0.012000  1.0
  H  H1448  1  0.095500  0.667500  0.512000  1.0
  H  H1449  1  0.667500  0.012000  0.595500  1.0
  H  H1450  1  0.082500  0.512000  0.654500  1.0
  H  H1451  1  0.582500  0.738000  0.095500  1.0
  H  H1452  1  0.167500  0.238000  0.154500  1.0
  H  H1453  1  0.512000  0.154500  0.582500  1.0
  H  H1454  1  0.012000  0.095500  0.167500  1.0
  H  H1455  1  0.238000  0.654500  0.667500  1.0
  H  H1456  1  0.738000  0.595500  0.082500  1.0
  H  H1457  1  0.582500  0.595500  0.738000  1.0
  H  H1458  1  0.167500  0.654500  0.238000  1.0
  H  H1459  1  0.667500  0.095500  0.012000  1.0
  H  H1460  1  0.082500  0.154500  0.512000  1.0
  H  H1461  1  0.738000  0.582500  0.595500  1.0
  H  H1462  1  0.238000  0.167500  0.654500  1.0
  H  H1463  1  0.012000  0.667500  0.095500  1.0
  H  H1464  1  0.512000  0.082500  0.154500  1.0
  H  H1465  1  0.595500  0.738000  0.582500  1.0
  H  H1466  1  0.654500  0.238000  0.167500  1.0
  H  H1467  1  0.095500  0.012000  0.667500  1.0
  H  H1468  1  0.154500  0.512000  0.082500  1.0
  H  H1469  1  0.845500  0.332500  0.262000  1.0
  H  H1470  1  0.904500  0.917500  0.762000  1.0
  H  H1471  1  0.345500  0.417500  0.988000  1.0
  H  H1472  1  0.404500  0.832500  0.488000  1.0
  H  H1473  1  0.832500  0.488000  0.404500  1.0
  H  H1474  1  0.417500  0.988000  0.345500  1.0
  H  H1475  1  0.917500  0.762000  0.904500  1.0
  H  H1476  1  0.332500  0.262000  0.845500  1.0
  H  H1477  1  0.988000  0.345500  0.417500  1.0
  H  H1478  1  0.488000  0.404500  0.832500  1.0
  H  H1479  1  0.262000  0.845500  0.332500  1.0
  H  H1480  1  0.762000  0.904500  0.917500  1.0
  H  H1481  1  0.582500  0.095500  0.238000  1.0
  H  H1482  1  0.167500  0.154500  0.738000  1.0
  H  H1483  1  0.667500  0.595500  0.512000  1.0
  H  H1484  1  0.082500  0.654500  0.012000  1.0
  H  H1485  1  0.738000  0.082500  0.095500  1.0
  H  H1486  1  0.238000  0.667500  0.154500  1.0
  H  H1487  1  0.012000  0.167500  0.595500  1.0
  H  H1488  1  0.512000  0.582500  0.654500  1.0
  H  H1489  1  0.595500  0.238000  0.082500  1.0
  H  H1490  1  0.654500  0.738000  0.667500  1.0
  H  H1491  1  0.095500  0.512000  0.167500  1.0
  H  H1492  1  0.154500  0.012000  0.582500  1.0
  H  H1493  1  0.845500  0.832500  0.762000  1.0
  H  H1494  1  0.904500  0.417500  0.262000  1.0
  H  H1495  1  0.345500  0.917500  0.488000  1.0
  H  H1496  1  0.404500  0.332500  0.988000  1.0
  H  H1497  1  0.832500  0.988000  0.904500  1.0
  H  H1498  1  0.417500  0.488000  0.845500  1.0
  H  H1499  1  0.917500  0.262000  0.404500  1.0
  H  H1500  1  0.332500  0.762000  0.345500  1.0
  H  H1501  1  0.988000  0.845500  0.917500  1.0
  H  H1502  1  0.488000  0.904500  0.332500  1.0
  H  H1503  1  0.262000  0.345500  0.832500  1.0
  H  H1504  1  0.762000  0.404500  0.417500  1.0
  H  H1505  1  0.082500  0.595500  0.238000  1.0
  H  H1506  1  0.667500  0.654500  0.738000  1.0
  H  H1507  1  0.167500  0.095500  0.512000  1.0
  H  H1508  1  0.582500  0.154500  0.012000  1.0
  H  H1509  1  0.238000  0.582500  0.095500  1.0
  H  H1510  1  0.738000  0.167500  0.154500  1.0
  H  H1511  1  0.512000  0.667500  0.595500  1.0
  H  H1512  1  0.012000  0.082500  0.654500  1.0
  H  H1513  1  0.095500  0.738000  0.082500  1.0
  H  H1514  1  0.154500  0.238000  0.667500  1.0
  H  H1515  1  0.595500  0.012000  0.167500  1.0
  H  H1516  1  0.654500  0.512000  0.582500  1.0
  H  H1517  1  0.345500  0.332500  0.762000  1.0
  H  H1518  1  0.404500  0.917500  0.262000  1.0
  H  H1519  1  0.845500  0.417500  0.488000  1.0
  H  H1520  1  0.904500  0.832500  0.988000  1.0
  H  H1521  1  0.332500  0.488000  0.904500  1.0
  H  H1522  1  0.917500  0.988000  0.845500  1.0
  H  H1523  1  0.417500  0.762000  0.404500  1.0
  H  H1524  1  0.832500  0.262000  0.345500  1.0
  H  H1525  1  0.488000  0.345500  0.917500  1.0
  H  H1526  1  0.988000  0.404500  0.332500  1.0
  H  H1527  1  0.762000  0.845500  0.832500  1.0
  H  H1528  1  0.262000  0.904500  0.417500  1.0
  H  H1529  1  0.082500  0.095500  0.738000  1.0
  H  H1530  1  0.667500  0.154500  0.238000  1.0
  H  H1531  1  0.167500  0.595500  0.012000  1.0
  H  H1532  1  0.582500  0.654500  0.512000  1.0
  H  H1533  1  0.238000  0.082500  0.595500  1.0
  H  H1534  1  0.738000  0.667500  0.654500  1.0
  H  H1535  1  0.512000  0.167500  0.095500  1.0
  H  H1536  1  0.012000  0.582500  0.154500  1.0
  H  H1537  1  0.095500  0.238000  0.582500  1.0
  H  H1538  1  0.154500  0.738000  0.167500  1.0
  H  H1539  1  0.595500  0.512000  0.667500  1.0
  H  H1540  1  0.654500  0.012000  0.082500  1.0
  H  H1541  1  0.345500  0.832500  0.262000  1.0
  H  H1542  1  0.404500  0.417500  0.762000  1.0
  H  H1543  1  0.845500  0.917500  0.988000  1.0
  H  H1544  1  0.904500  0.332500  0.488000  1.0
  H  H1545  1  0.332500  0.988000  0.404500  1.0
  H  H1546  1  0.917500  0.488000  0.345500  1.0
  H  H1547  1  0.417500  0.262000  0.904500  1.0
  H  H1548  1  0.832500  0.762000  0.845500  1.0
  H  H1549  1  0.488000  0.845500  0.417500  1.0
  H  H1550  1  0.988000  0.904500  0.832500  1.0
  H  H1551  1  0.762000  0.345500  0.332500  1.0
  H  H1552  1  0.262000  0.404500  0.917500  1.0
  C  C1553  1  0.436200  0.552700  0.327800  1
  C  C1554  1  0.813800  0.197300  0.827800  1
  C  C1555  1  0.313800  0.052700  0.922200  1
  C  C1556  1  0.936200  0.697300  0.422200  1
  C  C1557  1  0.327800  0.436200  0.552700  1
  C  C1558  1  0.827800  0.813800  0.197300  1
  C  C1559  1  0.922200  0.313800  0.052700  1
  C  C1560  1  0.422200  0.936200  0.697300  1
  C  C1561  1  0.552700  0.327800  0.436200  1
  C  C1562  1  0.197300  0.827800  0.813800  1
  C  C1563  1  0.052700  0.922200  0.313800  1
  C  C1564  1  0.697300  0.422200  0.936200  1
  C  C1565  1  0.302700  0.686200  0.672200  1
  C  C1566  1  0.947300  0.063800  0.172200  1
  C  C1567  1  0.802700  0.563800  0.077800  1
  C  C1568  1  0.447300  0.186200  0.577800  1
  C  C1569  1  0.186200  0.577800  0.447300  1
  C  C1570  1  0.563800  0.077800  0.802700  1
  C  C1571  1  0.063800  0.172200  0.947300  1
  C  C1572  1  0.686200  0.672200  0.302700  1
  C  C1573  1  0.077800  0.802700  0.563800  1
  C  C1574  1  0.577800  0.447300  0.186200  1
  C  C1575  1  0.672200  0.302700  0.686200  1
  C  C1576  1  0.172200  0.947300  0.063800  1
  C  C1577  1  0.436200  0.052700  0.827800  1
  C  C1578  1  0.813800  0.697300  0.327800  1
  C  C1579  1  0.313800  0.552700  0.422200  1
  C  C1580  1  0.936200  0.197300  0.922200  1
  C  C1581  1  0.327800  0.936200  0.052700  1
  C  C1582  1  0.827800  0.313800  0.697300  1
  C  C1583  1  0.922200  0.813800  0.552700  1
  C  C1584  1  0.422200  0.436200  0.197300  1
  C  C1585  1  0.552700  0.827800  0.936200  1
  C  C1586  1  0.197300  0.327800  0.313800  1
  C  C1587  1  0.052700  0.422200  0.813800  1
  C  C1588  1  0.697300  0.922200  0.436200  1
  C  C1589  1  0.302700  0.186200  0.172200  1
  C  C1590  1  0.947300  0.563800  0.672200  1
  C  C1591  1  0.802700  0.063800  0.577800  1
  C  C1592  1  0.447300  0.686200  0.077800  1
  C  C1593  1  0.186200  0.077800  0.947300  1
  C  C1594  1  0.563800  0.577800  0.302700  1
  C  C1595  1  0.063800  0.672200  0.447300  1
  C  C1596  1  0.686200  0.172200  0.802700  1
  C  C1597  1  0.077800  0.302700  0.063800  1
  C  C1598  1  0.577800  0.947300  0.686200  1
  C  C1599  1  0.672200  0.802700  0.186200  1
  C  C1600  1  0.172200  0.447300  0.563800  1
  C  C1601  1  0.936200  0.552700  0.827800  1
  C  C1602  1  0.313800  0.197300  0.327800  1
  C  C1603  1  0.813800  0.052700  0.422200  1
  C  C1604  1  0.436200  0.697300  0.922200  1
  C  C1605  1  0.827800  0.436200  0.052700  1
  C  C1606  1  0.327800  0.813800  0.697300  1
  C  C1607  1  0.422200  0.313800  0.552700  1
  C  C1608  1  0.922200  0.936200  0.197300  1
  C  C1609  1  0.052700  0.327800  0.936200  1
  C  C1610  1  0.697300  0.827800  0.313800  1
  C  C1611  1  0.552700  0.922200  0.813800  1
  C  C1612  1  0.197300  0.422200  0.436200  1
  C  C1613  1  0.802700  0.686200  0.172200  1
  C  C1614  1  0.447300  0.063800  0.672200  1
  C  C1615  1  0.302700  0.563800  0.577800  1
  C  C1616  1  0.947300  0.186200  0.077800  1
  C  C1617  1  0.686200  0.577800  0.947300  1
  C  C1618  1  0.063800  0.077800  0.302700  1
  C  C1619  1  0.563800  0.172200  0.447300  1
  C  C1620  1  0.186200  0.672200  0.802700  1
  C  C1621  1  0.577800  0.802700  0.063800  1
  C  C1622  1  0.077800  0.447300  0.686200  1
  C  C1623  1  0.172200  0.302700  0.186200  1
  C  C1624  1  0.672200  0.947300  0.563800  1
  C  C1625  1  0.936200  0.052700  0.327800  1
  C  C1626  1  0.313800  0.697300  0.827800  1
  C  C1627  1  0.813800  0.552700  0.922200  1
  C  C1628  1  0.436200  0.197300  0.422200  1
  C  C1629  1  0.827800  0.936200  0.552700  1
  C  C1630  1  0.327800  0.313800  0.197300  1
  C  C1631  1  0.422200  0.813800  0.052700  1
  C  C1632  1  0.922200  0.436200  0.697300  1
  C  C1633  1  0.052700  0.827800  0.436200  1
  C  C1634  1  0.697300  0.327800  0.813800  1
  C  C1635  1  0.552700  0.422200  0.313800  1
  C  C1636  1  0.197300  0.922200  0.936200  1
  C  C1637  1  0.802700  0.186200  0.672200  1
  C  C1638  1  0.447300  0.563800  0.172200  1
  C  C1639  1  0.302700  0.063800  0.077800  1
  C  C1640  1  0.947300  0.686200  0.577800  1
  C  C1641  1  0.686200  0.077800  0.447300  1
  C  C1642  1  0.063800  0.577800  0.802700  1
  C  C1643  1  0.563800  0.672200  0.947300  1
  C  C1644  1  0.186200  0.172200  0.302700  1
  C  C1645  1  0.577800  0.302700  0.563800  1
  C  C1646  1  0.077800  0.947300  0.186200  1
  C  C1647  1  0.172200  0.802700  0.686200  1
  C  C1648  1  0.672200  0.447300  0.063800  1
  C  C1649  1  0.563800  0.447300  0.672200  1
  C  C1650  1  0.186200  0.802700  0.172200  1
  C  C1651  1  0.686200  0.947300  0.077800  1
  C  C1652  1  0.063800  0.302700  0.577800  1
  C  C1653  1  0.672200  0.563800  0.447300  1
  C  C1654  1  0.172200  0.186200  0.802700  1
  C  C1655  1  0.077800  0.686200  0.947300  1
  C  C1656  1  0.577800  0.063800  0.302700  1
  C  C1657  1  0.447300  0.672200  0.563800  1
  C  C1658  1  0.802700  0.172200  0.186200  1
  C  C1659  1  0.947300  0.077800  0.686200  1
  C  C1660  1  0.302700  0.577800  0.063800  1
  C  C1661  1  0.697300  0.313800  0.327800  1
  C  C1662  1  0.052700  0.936200  0.827800  1
  C  C1663  1  0.197300  0.436200  0.922200  1
  C  C1664  1  0.552700  0.813800  0.422200  1
  C  C1665  1  0.813800  0.422200  0.552700  1
  C  C1666  1  0.436200  0.922200  0.197300  1
  C  C1667  1  0.936200  0.827800  0.052700  1
  C  C1668  1  0.313800  0.327800  0.697300  1
  C  C1669  1  0.922200  0.197300  0.436200  1
  C  C1670  1  0.422200  0.552700  0.813800  1
  C  C1671  1  0.327800  0.697300  0.313800  1
  C  C1672  1  0.827800  0.052700  0.936200  1
  C  C1673  1  0.563800  0.947300  0.172200  1
  C  C1674  1  0.186200  0.302700  0.672200  1
  C  C1675  1  0.686200  0.447300  0.577800  1
  C  C1676  1  0.063800  0.802700  0.077800  1
  C  C1677  1  0.672200  0.063800  0.947300  1
  C  C1678  1  0.172200  0.686200  0.302700  1
  C  C1679  1  0.077800  0.186200  0.447300  1
  C  C1680  1  0.577800  0.563800  0.802700  1
  C  C1681  1  0.447300  0.172200  0.063800  1
  C  C1682  1  0.802700  0.672200  0.686200  1
  C  C1683  1  0.947300  0.577800  0.186200  1
  C  C1684  1  0.302700  0.077800  0.563800  1
  C  C1685  1  0.697300  0.813800  0.827800  1
  C  C1686  1  0.052700  0.436200  0.327800  1
  C  C1687  1  0.197300  0.936200  0.422200  1
  C  C1688  1  0.552700  0.313800  0.922200  1
  C  C1689  1  0.813800  0.922200  0.052700  1
  C  C1690  1  0.436200  0.422200  0.697300  1
  C  C1691  1  0.936200  0.327800  0.552700  1
  C  C1692  1  0.313800  0.827800  0.197300  1
  C  C1693  1  0.922200  0.697300  0.936200  1
  C  C1694  1  0.422200  0.052700  0.313800  1
  C  C1695  1  0.327800  0.197300  0.813800  1
  C  C1696  1  0.827800  0.552700  0.436200  1
  C  C1697  1  0.063800  0.447300  0.172200  1
  C  C1698  1  0.686200  0.802700  0.672200  1
  C  C1699  1  0.186200  0.947300  0.577800  1
  C  C1700  1  0.563800  0.302700  0.077800  1
  C  C1701  1  0.172200  0.563800  0.947300  1
  C  C1702  1  0.672200  0.186200  0.302700  1
  C  C1703  1  0.577800  0.686200  0.447300  1
  C  C1704  1  0.077800  0.063800  0.802700  1
  C  C1705  1  0.947300  0.672200  0.063800  1
  C  C1706  1  0.302700  0.172200  0.686200  1
  C  C1707  1  0.447300  0.077800  0.186200  1
  C  C1708  1  0.802700  0.577800  0.563800  1
  C  C1709  1  0.197300  0.313800  0.827800  1
  C  C1710  1  0.552700  0.936200  0.327800  1
  C  C1711  1  0.697300  0.436200  0.422200  1
  C  C1712  1  0.052700  0.813800  0.922200  1
  C  C1713  1  0.313800  0.422200  0.052700  1
  C  C1714  1  0.936200  0.922200  0.697300  1
  C  C1715  1  0.436200  0.827800  0.552700  1
  C  C1716  1  0.813800  0.327800  0.197300  1
  C  C1717  1  0.422200  0.197300  0.936200  1
  C  C1718  1  0.922200  0.552700  0.313800  1
  C  C1719  1  0.827800  0.697300  0.813800  1
  C  C1720  1  0.327800  0.052700  0.436200  1
  C  C1721  1  0.063800  0.947300  0.672200  1
  C  C1722  1  0.686200  0.302700  0.172200  1
  C  C1723  1  0.186200  0.447300  0.077800  1
  C  C1724  1  0.563800  0.802700  0.577800  1
  C  C1725  1  0.172200  0.063800  0.447300  1
  C  C1726  1  0.672200  0.686200  0.802700  1
  C  C1727  1  0.577800  0.186200  0.947300  1
  C  C1728  1  0.077800  0.563800  0.302700  1
  C  C1729  1  0.947300  0.172200  0.563800  1
  C  C1730  1  0.302700  0.672200  0.186200  1
  C  C1731  1  0.447300  0.577800  0.686200  1
  C  C1732  1  0.802700  0.077800  0.063800  1
  C  C1733  1  0.197300  0.813800  0.327800  1
  C  C1734  1  0.552700  0.436200  0.827800  1
  C  C1735  1  0.697300  0.936200  0.922200  1
  C  C1736  1  0.052700  0.313800  0.422200  1
  C  C1737  1  0.313800  0.922200  0.552700  1
  C  C1738  1  0.936200  0.422200  0.197300  1
  C  C1739  1  0.436200  0.327800  0.052700  1
  C  C1740  1  0.813800  0.827800  0.697300  1
  C  C1741  1  0.422200  0.697300  0.436200  1
  C  C1742  1  0.922200  0.052700  0.813800  1
  C  C1743  1  0.827800  0.197300  0.313800  1
  C  C1744  1  0.327800  0.552700  0.936200  1
  C  C1745  1  0.396700  0.390000  0.343300  1
  C  C1746  1  0.853300  0.360000  0.843300  1
  C  C1747  1  0.353300  0.890000  0.906700  1
  C  C1748  1  0.896700  0.860000  0.406700  1
  C  C1749  1  0.343300  0.396700  0.390000  1
  C  C1750  1  0.843300  0.853300  0.360000  1
  C  C1751  1  0.906700  0.353300  0.890000  1
  C  C1752  1  0.406700  0.896700  0.860000  1
  C  C1753  1  0.390000  0.343300  0.396700  1
  C  C1754  1  0.360000  0.843300  0.853300  1
  C  C1755  1  0.890000  0.906700  0.353300  1
  C  C1756  1  0.860000  0.406700  0.896700  1
  C  C1757  1  0.140000  0.646700  0.656700  1
  C  C1758  1  0.110000  0.103300  0.156700  1
  C  C1759  1  0.640000  0.603300  0.093300  1
  C  C1760  1  0.610000  0.146700  0.593300  1
  C  C1761  1  0.146700  0.593300  0.610000  1
  C  C1762  1  0.603300  0.093300  0.640000  1
  C  C1763  1  0.103300  0.156700  0.110000  1
  C  C1764  1  0.646700  0.656700  0.140000  1
  C  C1765  1  0.093300  0.640000  0.603300  1
  C  C1766  1  0.593300  0.610000  0.146700  1
  C  C1767  1  0.656700  0.140000  0.646700  1
  C  C1768  1  0.156700  0.110000  0.103300  1
  C  C1769  1  0.396700  0.890000  0.843300  1
  C  C1770  1  0.853300  0.860000  0.343300  1
  C  C1771  1  0.353300  0.390000  0.406700  1
  C  C1772  1  0.896700  0.360000  0.906700  1
  C  C1773  1  0.343300  0.896700  0.890000  1
  C  C1774  1  0.843300  0.353300  0.860000  1
  C  C1775  1  0.906700  0.853300  0.390000  1
  C  C1776  1  0.406700  0.396700  0.360000  1
  C  C1777  1  0.390000  0.843300  0.896700  1
  C  C1778  1  0.360000  0.343300  0.353300  1
  C  C1779  1  0.890000  0.406700  0.853300  1
  C  C1780  1  0.860000  0.906700  0.396700  1
  C  C1781  1  0.140000  0.146700  0.156700  1
  C  C1782  1  0.110000  0.603300  0.656700  1
  C  C1783  1  0.640000  0.103300  0.593300  1
  C  C1784  1  0.610000  0.646700  0.093300  1
  C  C1785  1  0.146700  0.093300  0.110000  1
  C  C1786  1  0.603300  0.593300  0.140000  1
  C  C1787  1  0.103300  0.656700  0.610000  1
  C  C1788  1  0.646700  0.156700  0.640000  1
  C  C1789  1  0.093300  0.140000  0.103300  1
  C  C1790  1  0.593300  0.110000  0.646700  1
  C  C1791  1  0.656700  0.640000  0.146700  1
  C  C1792  1  0.156700  0.610000  0.603300  1
  C  C1793  1  0.896700  0.390000  0.843300  1
  C  C1794  1  0.353300  0.360000  0.343300  1
  C  C1795  1  0.853300  0.890000  0.406700  1
  C  C1796  1  0.396700  0.860000  0.906700  1
  C  C1797  1  0.843300  0.396700  0.890000  1
  C  C1798  1  0.343300  0.853300  0.860000  1
  C  C1799  1  0.406700  0.353300  0.390000  1
  C  C1800  1  0.906700  0.896700  0.360000  1
  C  C1801  1  0.890000  0.343300  0.896700  1
  C  C1802  1  0.860000  0.843300  0.353300  1
  C  C1803  1  0.390000  0.906700  0.853300  1
  C  C1804  1  0.360000  0.406700  0.396700  1
  C  C1805  1  0.640000  0.646700  0.156700  1
  C  C1806  1  0.610000  0.103300  0.656700  1
  C  C1807  1  0.140000  0.603300  0.593300  1
  C  C1808  1  0.110000  0.146700  0.093300  1
  C  C1809  1  0.646700  0.593300  0.110000  1
  C  C1810  1  0.103300  0.093300  0.140000  1
  C  C1811  1  0.603300  0.156700  0.610000  1
  C  C1812  1  0.146700  0.656700  0.640000  1
  C  C1813  1  0.593300  0.640000  0.103300  1
  C  C1814  1  0.093300  0.610000  0.646700  1
  C  C1815  1  0.156700  0.140000  0.146700  1
  C  C1816  1  0.656700  0.110000  0.603300  1
  C  C1817  1  0.896700  0.890000  0.343300  1
  C  C1818  1  0.353300  0.860000  0.843300  1
  C  C1819  1  0.853300  0.390000  0.906700  1
  C  C1820  1  0.396700  0.360000  0.406700  1
  C  C1821  1  0.843300  0.896700  0.390000  1
  C  C1822  1  0.343300  0.353300  0.360000  1
  C  C1823  1  0.406700  0.853300  0.890000  1
  C  C1824  1  0.906700  0.396700  0.860000  1
  C  C1825  1  0.890000  0.843300  0.396700  1
  C  C1826  1  0.860000  0.343300  0.853300  1
  C  C1827  1  0.390000  0.406700  0.353300  1
  C  C1828  1  0.360000  0.906700  0.896700  1
  C  C1829  1  0.640000  0.146700  0.656700  1
  C  C1830  1  0.610000  0.603300  0.156700  1
  C  C1831  1  0.140000  0.103300  0.093300  1
  C  C1832  1  0.110000  0.646700  0.593300  1
  C  C1833  1  0.646700  0.093300  0.610000  1
  C  C1834  1  0.103300  0.593300  0.640000  1
  C  C1835  1  0.603300  0.656700  0.110000  1
  C  C1836  1  0.146700  0.156700  0.140000  1
  C  C1837  1  0.593300  0.140000  0.603300  1
  C  C1838  1  0.093300  0.110000  0.146700  1
  C  C1839  1  0.156700  0.640000  0.646700  1
  C  C1840  1  0.656700  0.610000  0.103300  1
  C  C1841  1  0.603300  0.610000  0.656700  1
  C  C1842  1  0.146700  0.640000  0.156700  1
  C  C1843  1  0.646700  0.110000  0.093300  1
  C  C1844  1  0.103300  0.140000  0.593300  1
  C  C1845  1  0.656700  0.603300  0.610000  1
  C  C1846  1  0.156700  0.146700  0.640000  1
  C  C1847  1  0.093300  0.646700  0.110000  1
  C  C1848  1  0.593300  0.103300  0.140000  1
  C  C1849  1  0.610000  0.656700  0.603300  1
  C  C1850  1  0.640000  0.156700  0.146700  1
  C  C1851  1  0.110000  0.093300  0.646700  1
  C  C1852  1  0.140000  0.593300  0.103300  1
  C  C1853  1  0.860000  0.353300  0.343300  1
  C  C1854  1  0.890000  0.896700  0.843300  1
  C  C1855  1  0.360000  0.396700  0.906700  1
  C  C1856  1  0.390000  0.853300  0.406700  1
  C  C1857  1  0.853300  0.406700  0.390000  1
  C  C1858  1  0.396700  0.906700  0.360000  1
  C  C1859  1  0.896700  0.843300  0.890000  1
  C  C1860  1  0.353300  0.343300  0.860000  1
  C  C1861  1  0.906700  0.360000  0.396700  1
  C  C1862  1  0.406700  0.390000  0.853300  1
  C  C1863  1  0.343300  0.860000  0.353300  1
  C  C1864  1  0.843300  0.890000  0.896700  1
  C  C1865  1  0.603300  0.110000  0.156700  1
  C  C1866  1  0.146700  0.140000  0.656700  1
  C  C1867  1  0.646700  0.610000  0.593300  1
  C  C1868  1  0.103300  0.640000  0.093300  1
  C  C1869  1  0.656700  0.103300  0.110000  1
  C  C1870  1  0.156700  0.646700  0.140000  1
  C  C1871  1  0.093300  0.146700  0.610000  1
  C  C1872  1  0.593300  0.603300  0.640000  1
  C  C1873  1  0.610000  0.156700  0.103300  1
  C  C1874  1  0.640000  0.656700  0.646700  1
  C  C1875  1  0.110000  0.593300  0.146700  1
  C  C1876  1  0.140000  0.093300  0.603300  1
  C  C1877  1  0.860000  0.853300  0.843300  1
  C  C1878  1  0.890000  0.396700  0.343300  1
  C  C1879  1  0.360000  0.896700  0.406700  1
  C  C1880  1  0.390000  0.353300  0.906700  1
  C  C1881  1  0.853300  0.906700  0.890000  1
  C  C1882  1  0.396700  0.406700  0.860000  1
  C  C1883  1  0.896700  0.343300  0.390000  1
  C  C1884  1  0.353300  0.843300  0.360000  1
  C  C1885  1  0.906700  0.860000  0.896700  1
  C  C1886  1  0.406700  0.890000  0.353300  1
  C  C1887  1  0.343300  0.360000  0.853300  1
  C  C1888  1  0.843300  0.390000  0.396700  1
  C  C1889  1  0.103300  0.610000  0.156700  1
  C  C1890  1  0.646700  0.640000  0.656700  1
  C  C1891  1  0.146700  0.110000  0.593300  1
  C  C1892  1  0.603300  0.140000  0.093300  1
  C  C1893  1  0.156700  0.603300  0.110000  1
  C  C1894  1  0.656700  0.146700  0.140000  1
  C  C1895  1  0.593300  0.646700  0.610000  1
  C  C1896  1  0.093300  0.103300  0.640000  1
  C  C1897  1  0.110000  0.656700  0.103300  1
  C  C1898  1  0.140000  0.156700  0.646700  1
  C  C1899  1  0.610000  0.093300  0.146700  1
  C  C1900  1  0.640000  0.593300  0.603300  1
  C  C1901  1  0.360000  0.353300  0.843300  1
  C  C1902  1  0.390000  0.896700  0.343300  1
  C  C1903  1  0.860000  0.396700  0.406700  1
  C  C1904  1  0.890000  0.853300  0.906700  1
  C  C1905  1  0.353300  0.406700  0.890000  1
  C  C1906  1  0.896700  0.906700  0.860000  1
  C  C1907  1  0.396700  0.843300  0.390000  1
  C  C1908  1  0.853300  0.343300  0.360000  1
  C  C1909  1  0.406700  0.360000  0.896700  1
  C  C1910  1  0.906700  0.390000  0.353300  1
  C  C1911  1  0.843300  0.860000  0.853300  1
  C  C1912  1  0.343300  0.890000  0.396700  1
  C  C1913  1  0.103300  0.110000  0.656700  1
  C  C1914  1  0.646700  0.140000  0.156700  1
  C  C1915  1  0.146700  0.610000  0.093300  1
  C  C1916  1  0.603300  0.640000  0.593300  1
  C  C1917  1  0.156700  0.103300  0.610000  1
  C  C1918  1  0.656700  0.646700  0.640000  1
  C  C1919  1  0.593300  0.146700  0.110000  1
  C  C1920  1  0.093300  0.603300  0.140000  1
  C  C1921  1  0.110000  0.156700  0.603300  1
  C  C1922  1  0.140000  0.656700  0.146700  1
  C  C1923  1  0.610000  0.593300  0.646700  1
  C  C1924  1  0.640000  0.093300  0.103300  1
  C  C1925  1  0.360000  0.853300  0.343300  1
  C  C1926  1  0.390000  0.396700  0.843300  1
  C  C1927  1  0.860000  0.896700  0.906700  1
  C  C1928  1  0.890000  0.353300  0.406700  1
  C  C1929  1  0.353300  0.906700  0.390000  1
  C  C1930  1  0.896700  0.406700  0.360000  1
  C  C1931  1  0.396700  0.343300  0.890000  1
  C  C1932  1  0.853300  0.843300  0.860000  1
  C  C1933  1  0.406700  0.860000  0.396700  1
  C  C1934  1  0.906700  0.890000  0.853300  1
  C  C1935  1  0.843300  0.360000  0.353300  1
  C  C1936  1  0.343300  0.390000  0.896700  1
  C  C1937  1  0.370300  0.401200  0.343600  1
  C  C1938  1  0.879700  0.348800  0.843600  1
  C  C1939  1  0.379700  0.901200  0.906400  1
  C  C1940  1  0.870300  0.848800  0.406400  1
  C  C1941  1  0.343600  0.370300  0.401200  1
  C  C1942  1  0.843600  0.879700  0.348800  1
  C  C1943  1  0.906400  0.379700  0.901200  1
  C  C1944  1  0.406400  0.870300  0.848800  1
  C  C1945  1  0.401200  0.343600  0.370300  1
  C  C1946  1  0.348800  0.843600  0.879700  1
  C  C1947  1  0.901200  0.906400  0.379700  1
  C  C1948  1  0.848800  0.406400  0.870300  1
  C  C1949  1  0.151200  0.620300  0.656400  1
  C  C1950  1  0.098800  0.129700  0.156400  1
  C  C1951  1  0.651200  0.629700  0.093600  1
  C  C1952  1  0.598800  0.120300  0.593600  1
  C  C1953  1  0.120300  0.593600  0.598800  1
  C  C1954  1  0.629700  0.093600  0.651200  1
  C  C1955  1  0.129700  0.156400  0.098800  1
  C  C1956  1  0.620300  0.656400  0.151200  1
  C  C1957  1  0.093600  0.651200  0.629700  1
  C  C1958  1  0.593600  0.598800  0.120300  1
  C  C1959  1  0.656400  0.151200  0.620300  1
  C  C1960  1  0.156400  0.098800  0.129700  1
  C  C1961  1  0.370300  0.901200  0.843600  1
  C  C1962  1  0.879700  0.848800  0.343600  1
  C  C1963  1  0.379700  0.401200  0.406400  1
  C  C1964  1  0.870300  0.348800  0.906400  1
  C  C1965  1  0.343600  0.870300  0.901200  1
  C  C1966  1  0.843600  0.379700  0.848800  1
  C  C1967  1  0.906400  0.879700  0.401200  1
  C  C1968  1  0.406400  0.370300  0.348800  1
  C  C1969  1  0.401200  0.843600  0.870300  1
  C  C1970  1  0.348800  0.343600  0.379700  1
  C  C1971  1  0.901200  0.406400  0.879700  1
  C  C1972  1  0.848800  0.906400  0.370300  1
  C  C1973  1  0.151200  0.120300  0.156400  1
  C  C1974  1  0.098800  0.629700  0.656400  1
  C  C1975  1  0.651200  0.129700  0.593600  1
  C  C1976  1  0.598800  0.620300  0.093600  1
  C  C1977  1  0.120300  0.093600  0.098800  1
  C  C1978  1  0.629700  0.593600  0.151200  1
  C  C1979  1  0.129700  0.656400  0.598800  1
  C  C1980  1  0.620300  0.156400  0.651200  1
  C  C1981  1  0.093600  0.151200  0.129700  1
  C  C1982  1  0.593600  0.098800  0.620300  1
  C  C1983  1  0.656400  0.651200  0.120300  1
  C  C1984  1  0.156400  0.598800  0.629700  1
  C  C1985  1  0.870300  0.401200  0.843600  1
  C  C1986  1  0.379700  0.348800  0.343600  1
  C  C1987  1  0.879700  0.901200  0.406400  1
  C  C1988  1  0.370300  0.848800  0.906400  1
  C  C1989  1  0.843600  0.370300  0.901200  1
  C  C1990  1  0.343600  0.879700  0.848800  1
  C  C1991  1  0.406400  0.379700  0.401200  1
  C  C1992  1  0.906400  0.870300  0.348800  1
  C  C1993  1  0.901200  0.343600  0.870300  1
  C  C1994  1  0.848800  0.843600  0.379700  1
  C  C1995  1  0.401200  0.906400  0.879700  1
  C  C1996  1  0.348800  0.406400  0.370300  1
  C  C1997  1  0.651200  0.620300  0.156400  1
  C  C1998  1  0.598800  0.129700  0.656400  1
  C  C1999  1  0.151200  0.629700  0.593600  1
  C  C2000  1  0.098800  0.120300  0.093600  1
  C  C2001  1  0.620300  0.593600  0.098800  1
  C  C2002  1  0.129700  0.093600  0.151200  1
  C  C2003  1  0.629700  0.156400  0.598800  1
  C  C2004  1  0.120300  0.656400  0.651200  1
  C  C2005  1  0.593600  0.651200  0.129700  1
  C  C2006  1  0.093600  0.598800  0.620300  1
  C  C2007  1  0.156400  0.151200  0.120300  1
  C  C2008  1  0.656400  0.098800  0.629700  1
  C  C2009  1  0.870300  0.901200  0.343600  1
  C  C2010  1  0.379700  0.848800  0.843600  1
  C  C2011  1  0.879700  0.401200  0.906400  1
  C  C2012  1  0.370300  0.348800  0.406400  1
  C  C2013  1  0.843600  0.870300  0.401200  1
  C  C2014  1  0.343600  0.379700  0.348800  1
  C  C2015  1  0.406400  0.879700  0.901200  1
  C  C2016  1  0.906400  0.370300  0.848800  1
  C  C2017  1  0.901200  0.843600  0.370300  1
  C  C2018  1  0.848800  0.343600  0.879700  1
  C  C2019  1  0.401200  0.406400  0.379700  1
  C  C2020  1  0.348800  0.906400  0.870300  1
  C  C2021  1  0.651200  0.120300  0.656400  1
  C  C2022  1  0.598800  0.629700  0.156400  1
  C  C2023  1  0.151200  0.129700  0.093600  1
  C  C2024  1  0.098800  0.620300  0.593600  1
  C  C2025  1  0.620300  0.093600  0.598800  1
  C  C2026  1  0.129700  0.593600  0.651200  1
  C  C2027  1  0.629700  0.656400  0.098800  1
  C  C2028  1  0.120300  0.156400  0.151200  1
  C  C2029  1  0.593600  0.151200  0.629700  1
  C  C2030  1  0.093600  0.098800  0.120300  1
  C  C2031  1  0.156400  0.651200  0.620300  1
  C  C2032  1  0.656400  0.598800  0.129700  1
  C  C2033  1  0.629700  0.598800  0.656400  1
  C  C2034  1  0.120300  0.651200  0.156400  1
  C  C2035  1  0.620300  0.098800  0.093600  1
  C  C2036  1  0.129700  0.151200  0.593600  1
  C  C2037  1  0.656400  0.629700  0.598800  1
  C  C2038  1  0.156400  0.120300  0.651200  1
  C  C2039  1  0.093600  0.620300  0.098800  1
  C  C2040  1  0.593600  0.129700  0.151200  1
  C  C2041  1  0.598800  0.656400  0.629700  1
  C  C2042  1  0.651200  0.156400  0.120300  1
  C  C2043  1  0.098800  0.093600  0.620300  1
  C  C2044  1  0.151200  0.593600  0.129700  1
  C  C2045  1  0.848800  0.379700  0.343600  1
  C  C2046  1  0.901200  0.870300  0.843600  1
  C  C2047  1  0.348800  0.370300  0.906400  1
  C  C2048  1  0.401200  0.879700  0.406400  1
  C  C2049  1  0.879700  0.406400  0.401200  1
  C  C2050  1  0.370300  0.906400  0.348800  1
  C  C2051  1  0.870300  0.843600  0.901200  1
  C  C2052  1  0.379700  0.343600  0.848800  1
  C  C2053  1  0.906400  0.348800  0.370300  1
  C  C2054  1  0.406400  0.401200  0.879700  1
  C  C2055  1  0.343600  0.848800  0.379700  1
  C  C2056  1  0.843600  0.901200  0.870300  1
  C  C2057  1  0.629700  0.098800  0.156400  1
  C  C2058  1  0.120300  0.151200  0.656400  1
  C  C2059  1  0.620300  0.598800  0.593600  1
  C  C2060  1  0.129700  0.651200  0.093600  1
  C  C2061  1  0.656400  0.129700  0.098800  1
  C  C2062  1  0.156400  0.620300  0.151200  1
  C  C2063  1  0.093600  0.120300  0.598800  1
  C  C2064  1  0.593600  0.629700  0.651200  1
  C  C2065  1  0.598800  0.156400  0.129700  1
  C  C2066  1  0.651200  0.656400  0.620300  1
  C  C2067  1  0.098800  0.593600  0.120300  1
  C  C2068  1  0.151200  0.093600  0.629700  1
  C  C2069  1  0.848800  0.879700  0.843600  1
  C  C2070  1  0.901200  0.370300  0.343600  1
  C  C2071  1  0.348800  0.870300  0.406400  1
  C  C2072  1  0.401200  0.379700  0.906400  1
  C  C2073  1  0.879700  0.906400  0.901200  1
  C  C2074  1  0.370300  0.406400  0.848800  1
  C  C2075  1  0.870300  0.343600  0.401200  1
  C  C2076  1  0.379700  0.843600  0.348800  1
  C  C2077  1  0.906400  0.848800  0.870300  1
  C  C2078  1  0.406400  0.901200  0.379700  1
  C  C2079  1  0.343600  0.348800  0.879700  1
  C  C2080  1  0.843600  0.401200  0.370300  1
  C  C2081  1  0.129700  0.598800  0.156400  1
  C  C2082  1  0.620300  0.651200  0.656400  1
  C  C2083  1  0.120300  0.098800  0.593600  1
  C  C2084  1  0.629700  0.151200  0.093600  1
  C  C2085  1  0.156400  0.629700  0.098800  1
  C  C2086  1  0.656400  0.120300  0.151200  1
  C  C2087  1  0.593600  0.620300  0.598800  1
  C  C2088  1  0.093600  0.129700  0.651200  1
  C  C2089  1  0.098800  0.656400  0.129700  1
  C  C2090  1  0.151200  0.156400  0.620300  1
  C  C2091  1  0.598800  0.093600  0.120300  1
  C  C2092  1  0.651200  0.593600  0.629700  1
  C  C2093  1  0.348800  0.379700  0.843600  1
  C  C2094  1  0.401200  0.870300  0.343600  1
  C  C2095  1  0.848800  0.370300  0.406400  1
  C  C2096  1  0.901200  0.879700  0.906400  1
  C  C2097  1  0.379700  0.406400  0.901200  1
  C  C2098  1  0.870300  0.906400  0.848800  1
  C  C2099  1  0.370300  0.843600  0.401200  1
  C  C2100  1  0.879700  0.343600  0.348800  1
  C  C2101  1  0.406400  0.348800  0.870300  1
  C  C2102  1  0.906400  0.401200  0.379700  1
  C  C2103  1  0.843600  0.848800  0.879700  1
  C  C2104  1  0.343600  0.901200  0.370300  1
  C  C2105  1  0.129700  0.098800  0.656400  1
  C  C2106  1  0.620300  0.151200  0.156400  1
  C  C2107  1  0.120300  0.598800  0.093600  1
  C  C2108  1  0.629700  0.651200  0.593600  1
  C  C2109  1  0.156400  0.129700  0.598800  1
  C  C2110  1  0.656400  0.620300  0.651200  1
  C  C2111  1  0.593600  0.120300  0.098800  1
  C  C2112  1  0.093600  0.629700  0.151200  1
  C  C2113  1  0.098800  0.156400  0.629700  1
  C  C2114  1  0.151200  0.656400  0.120300  1
  C  C2115  1  0.598800  0.593600  0.620300  1
  C  C2116  1  0.651200  0.093600  0.129700  1
  C  C2117  1  0.348800  0.879700  0.343600  1
  C  C2118  1  0.401200  0.370300  0.843600  1
  C  C2119  1  0.848800  0.870300  0.906400  1
  C  C2120  1  0.901200  0.379700  0.406400  1
  C  C2121  1  0.379700  0.906400  0.401200  1
  C  C2122  1  0.870300  0.406400  0.348800  1
  C  C2123  1  0.370300  0.343600  0.901200  1
  C  C2124  1  0.879700  0.843600  0.848800  1
  C  C2125  1  0.406400  0.848800  0.370300  1
  C  C2126  1  0.906400  0.901200  0.879700  1
  C  C2127  1  0.843600  0.348800  0.379700  1
  C  C2128  1  0.343600  0.401200  0.870300  1
  C  C2129  1  0.351800  0.379700  0.341100  1
  C  C2130  1  0.898200  0.370300  0.841100  1
  C  C2131  1  0.398200  0.879700  0.908900  1
  C  C2132  1  0.851800  0.870300  0.408900  1
  C  C2133  1  0.341100  0.351800  0.379700  1
  C  C2134  1  0.841100  0.898200  0.370300  1
  C  C2135  1  0.908900  0.398200  0.879700  1
  C  C2136  1  0.408900  0.851800  0.870300  1
  C  C2137  1  0.379700  0.341100  0.351800  1
  C  C2138  1  0.370300  0.841100  0.898200  1
  C  C2139  1  0.879700  0.908900  0.398200  1
  C  C2140  1  0.870300  0.408900  0.851800  1
  C  C2141  1  0.129700  0.601800  0.658900  1
  C  C2142  1  0.120300  0.148200  0.158900  1
  C  C2143  1  0.629700  0.648200  0.091100  1
  C  C2144  1  0.620300  0.101800  0.591100  1
  C  C2145  1  0.101800  0.591100  0.620300  1
  C  C2146  1  0.648200  0.091100  0.629700  1
  C  C2147  1  0.148200  0.158900  0.120300  1
  C  C2148  1  0.601800  0.658900  0.129700  1
  C  C2149  1  0.091100  0.629700  0.648200  1
  C  C2150  1  0.591100  0.620300  0.101800  1
  C  C2151  1  0.658900  0.129700  0.601800  1
  C  C2152  1  0.158900  0.120300  0.148200  1
  C  C2153  1  0.351800  0.879700  0.841100  1
  C  C2154  1  0.898200  0.870300  0.341100  1
  C  C2155  1  0.398200  0.379700  0.408900  1
  C  C2156  1  0.851800  0.370300  0.908900  1
  C  C2157  1  0.341100  0.851800  0.879700  1
  C  C2158  1  0.841100  0.398200  0.870300  1
  C  C2159  1  0.908900  0.898200  0.379700  1
  C  C2160  1  0.408900  0.351800  0.370300  1
  C  C2161  1  0.379700  0.841100  0.851800  1
  C  C2162  1  0.370300  0.341100  0.398200  1
  C  C2163  1  0.879700  0.408900  0.898200  1
  C  C2164  1  0.870300  0.908900  0.351800  1
  C  C2165  1  0.129700  0.101800  0.158900  1
  C  C2166  1  0.120300  0.648200  0.658900  1
  C  C2167  1  0.629700  0.148200  0.591100  1
  C  C2168  1  0.620300  0.601800  0.091100  1
  C  C2169  1  0.101800  0.091100  0.120300  1
  C  C2170  1  0.648200  0.591100  0.129700  1
  C  C2171  1  0.148200  0.658900  0.620300  1
  C  C2172  1  0.601800  0.158900  0.629700  1
  C  C2173  1  0.091100  0.129700  0.148200  1
  C  C2174  1  0.591100  0.120300  0.601800  1
  C  C2175  1  0.658900  0.629700  0.101800  1
  C  C2176  1  0.158900  0.620300  0.648200  1
  C  C2177  1  0.851800  0.379700  0.841100  1
  C  C2178  1  0.398200  0.370300  0.341100  1
  C  C2179  1  0.898200  0.879700  0.408900  1
  C  C2180  1  0.351800  0.870300  0.908900  1
  C  C2181  1  0.841100  0.351800  0.879700  1
  C  C2182  1  0.341100  0.898200  0.870300  1
  C  C2183  1  0.408900  0.398200  0.379700  1
  C  C2184  1  0.908900  0.851800  0.370300  1
  C  C2185  1  0.879700  0.341100  0.851800  1
  C  C2186  1  0.870300  0.841100  0.398200  1
  C  C2187  1  0.379700  0.908900  0.898200  1
  C  C2188  1  0.370300  0.408900  0.351800  1
  C  C2189  1  0.629700  0.601800  0.158900  1
  C  C2190  1  0.620300  0.148200  0.658900  1
  C  C2191  1  0.129700  0.648200  0.591100  1
  C  C2192  1  0.120300  0.101800  0.091100  1
  C  C2193  1  0.601800  0.591100  0.120300  1
  C  C2194  1  0.148200  0.091100  0.129700  1
  C  C2195  1  0.648200  0.158900  0.620300  1
  C  C2196  1  0.101800  0.658900  0.629700  1
  C  C2197  1  0.591100  0.629700  0.148200  1
  C  C2198  1  0.091100  0.620300  0.601800  1
  C  C2199  1  0.158900  0.129700  0.101800  1
  C  C2200  1  0.658900  0.120300  0.648200  1
  C  C2201  1  0.851800  0.879700  0.341100  1
  C  C2202  1  0.398200  0.870300  0.841100  1
  C  C2203  1  0.898200  0.379700  0.908900  1
  C  C2204  1  0.351800  0.370300  0.408900  1
  C  C2205  1  0.841100  0.851800  0.379700  1
  C  C2206  1  0.341100  0.398200  0.370300  1
  C  C2207  1  0.408900  0.898200  0.879700  1
  C  C2208  1  0.908900  0.351800  0.870300  1
  C  C2209  1  0.879700  0.841100  0.351800  1
  C  C2210  1  0.870300  0.341100  0.898200  1
  C  C2211  1  0.379700  0.408900  0.398200  1
  C  C2212  1  0.370300  0.908900  0.851800  1
  C  C2213  1  0.629700  0.101800  0.658900  1
  C  C2214  1  0.620300  0.648200  0.158900  1
  C  C2215  1  0.129700  0.148200  0.091100  1
  C  C2216  1  0.120300  0.601800  0.591100  1
  C  C2217  1  0.601800  0.091100  0.620300  1
  C  C2218  1  0.148200  0.591100  0.629700  1
  C  C2219  1  0.648200  0.658900  0.120300  1
  C  C2220  1  0.101800  0.158900  0.129700  1
  C  C2221  1  0.591100  0.129700  0.648200  1
  C  C2222  1  0.091100  0.120300  0.101800  1
  C  C2223  1  0.158900  0.629700  0.601800  1
  C  C2224  1  0.658900  0.620300  0.148200  1
  C  C2225  1  0.648200  0.620300  0.658900  1
  C  C2226  1  0.101800  0.629700  0.158900  1
  C  C2227  1  0.601800  0.120300  0.091100  1
  C  C2228  1  0.148200  0.129700  0.591100  1
  C  C2229  1  0.658900  0.648200  0.620300  1
  C  C2230  1  0.158900  0.101800  0.629700  1
  C  C2231  1  0.091100  0.601800  0.120300  1
  C  C2232  1  0.591100  0.148200  0.129700  1
  C  C2233  1  0.620300  0.658900  0.648200  1
  C  C2234  1  0.629700  0.158900  0.101800  1
  C  C2235  1  0.120300  0.091100  0.601800  1
  C  C2236  1  0.129700  0.591100  0.148200  1
  C  C2237  1  0.870300  0.398200  0.341100  1
  C  C2238  1  0.879700  0.851800  0.841100  1
  C  C2239  1  0.370300  0.351800  0.908900  1
  C  C2240  1  0.379700  0.898200  0.408900  1
  C  C2241  1  0.898200  0.408900  0.379700  1
  C  C2242  1  0.351800  0.908900  0.370300  1
  C  C2243  1  0.851800  0.841100  0.879700  1
  C  C2244  1  0.398200  0.341100  0.870300  1
  C  C2245  1  0.908900  0.370300  0.351800  1
  C  C2246  1  0.408900  0.379700  0.898200  1
  C  C2247  1  0.341100  0.870300  0.398200  1
  C  C2248  1  0.841100  0.879700  0.851800  1
  C  C2249  1  0.648200  0.120300  0.158900  1
  C  C2250  1  0.101800  0.129700  0.658900  1
  C  C2251  1  0.601800  0.620300  0.591100  1
  C  C2252  1  0.148200  0.629700  0.091100  1
  C  C2253  1  0.658900  0.148200  0.120300  1
  C  C2254  1  0.158900  0.601800  0.129700  1
  C  C2255  1  0.091100  0.101800  0.620300  1
  C  C2256  1  0.591100  0.648200  0.629700  1
  C  C2257  1  0.620300  0.158900  0.148200  1
  C  C2258  1  0.629700  0.658900  0.601800  1
  C  C2259  1  0.120300  0.591100  0.101800  1
  C  C2260  1  0.129700  0.091100  0.648200  1
  C  C2261  1  0.870300  0.898200  0.841100  1
  C  C2262  1  0.879700  0.351800  0.341100  1
  C  C2263  1  0.370300  0.851800  0.408900  1
  C  C2264  1  0.379700  0.398200  0.908900  1
  C  C2265  1  0.898200  0.908900  0.879700  1
  C  C2266  1  0.351800  0.408900  0.870300  1
  C  C2267  1  0.851800  0.341100  0.379700  1
  C  C2268  1  0.398200  0.841100  0.370300  1
  C  C2269  1  0.908900  0.870300  0.851800  1
  C  C2270  1  0.408900  0.879700  0.398200  1
  C  C2271  1  0.341100  0.370300  0.898200  1
  C  C2272  1  0.841100  0.379700  0.351800  1
  C  C2273  1  0.148200  0.620300  0.158900  1
  C  C2274  1  0.601800  0.629700  0.658900  1
  C  C2275  1  0.101800  0.120300  0.591100  1
  C  C2276  1  0.648200  0.129700  0.091100  1
  C  C2277  1  0.158900  0.648200  0.120300  1
  C  C2278  1  0.658900  0.101800  0.129700  1
  C  C2279  1  0.591100  0.601800  0.620300  1
  C  C2280  1  0.091100  0.148200  0.629700  1
  C  C2281  1  0.120300  0.658900  0.148200  1
  C  C2282  1  0.129700  0.158900  0.601800  1
  C  C2283  1  0.620300  0.091100  0.101800  1
  C  C2284  1  0.629700  0.591100  0.648200  1
  C  C2285  1  0.370300  0.398200  0.841100  1
  C  C2286  1  0.379700  0.851800  0.341100  1
  C  C2287  1  0.870300  0.351800  0.408900  1
  C  C2288  1  0.879700  0.898200  0.908900  1
  C  C2289  1  0.398200  0.408900  0.879700  1
  C  C2290  1  0.851800  0.908900  0.870300  1
  C  C2291  1  0.351800  0.841100  0.379700  1
  C  C2292  1  0.898200  0.341100  0.370300  1
  C  C2293  1  0.408900  0.370300  0.851800  1
  C  C2294  1  0.908900  0.379700  0.398200  1
  C  C2295  1  0.841100  0.870300  0.898200  1
  C  C2296  1  0.341100  0.879700  0.351800  1
  C  C2297  1  0.148200  0.120300  0.658900  1
  C  C2298  1  0.601800  0.129700  0.158900  1
  C  C2299  1  0.101800  0.620300  0.091100  1
  C  C2300  1  0.648200  0.629700  0.591100  1
  C  C2301  1  0.158900  0.148200  0.620300  1
  C  C2302  1  0.658900  0.601800  0.629700  1
  C  C2303  1  0.591100  0.101800  0.120300  1
  C  C2304  1  0.091100  0.648200  0.129700  1
  C  C2305  1  0.120300  0.158900  0.648200  1
  C  C2306  1  0.129700  0.658900  0.101800  1
  C  C2307  1  0.620300  0.591100  0.601800  1
  C  C2308  1  0.629700  0.091100  0.148200  1
  C  C2309  1  0.370300  0.898200  0.341100  1
  C  C2310  1  0.379700  0.351800  0.841100  1
  C  C2311  1  0.870300  0.851800  0.908900  1
  C  C2312  1  0.879700  0.398200  0.408900  1
  C  C2313  1  0.398200  0.908900  0.379700  1
  C  C2314  1  0.851800  0.408900  0.370300  1
  C  C2315  1  0.351800  0.341100  0.879700  1
  C  C2316  1  0.898200  0.841100  0.870300  1
  C  C2317  1  0.408900  0.870300  0.351800  1
  C  C2318  1  0.908900  0.879700  0.898200  1
  C  C2319  1  0.841100  0.370300  0.398200  1
  C  C2320  1  0.341100  0.379700  0.851800  1
  C  C2321  1  0.366400  0.355300  0.339500  1
  C  C2322  1  0.883600  0.394700  0.839500  1
  C  C2323  1  0.383600  0.855300  0.910500  1
  C  C2324  1  0.866400  0.894700  0.410500  1
  C  C2325  1  0.339500  0.366400  0.355300  1
  C  C2326  1  0.839500  0.883600  0.394700  1
  C  C2327  1  0.910500  0.383600  0.855300  1
  C  C2328  1  0.410500  0.866400  0.894700  1
  C  C2329  1  0.355300  0.339500  0.366400  1
  C  C2330  1  0.394700  0.839500  0.883600  1
  C  C2331  1  0.855300  0.910500  0.383600  1
  C  C2332  1  0.894700  0.410500  0.866400  1
  C  C2333  1  0.105300  0.616400  0.660500  1
  C  C2334  1  0.144700  0.133600  0.160500  1
  C  C2335  1  0.605300  0.633600  0.089500  1
  C  C2336  1  0.644700  0.116400  0.589500  1
  C  C2337  1  0.116400  0.589500  0.644700  1
  C  C2338  1  0.633600  0.089500  0.605300  1
  C  C2339  1  0.133600  0.160500  0.144700  1
  C  C2340  1  0.616400  0.660500  0.105300  1
  C  C2341  1  0.089500  0.605300  0.633600  1
  C  C2342  1  0.589500  0.644700  0.116400  1
  C  C2343  1  0.660500  0.105300  0.616400  1
  C  C2344  1  0.160500  0.144700  0.133600  1
  C  C2345  1  0.366400  0.855300  0.839500  1
  C  C2346  1  0.883600  0.894700  0.339500  1
  C  C2347  1  0.383600  0.355300  0.410500  1
  C  C2348  1  0.866400  0.394700  0.910500  1
  C  C2349  1  0.339500  0.866400  0.855300  1
  C  C2350  1  0.839500  0.383600  0.894700  1
  C  C2351  1  0.910500  0.883600  0.355300  1
  C  C2352  1  0.410500  0.366400  0.394700  1
  C  C2353  1  0.355300  0.839500  0.866400  1
  C  C2354  1  0.394700  0.339500  0.383600  1
  C  C2355  1  0.855300  0.410500  0.883600  1
  C  C2356  1  0.894700  0.910500  0.366400  1
  C  C2357  1  0.105300  0.116400  0.160500  1
  C  C2358  1  0.144700  0.633600  0.660500  1
  C  C2359  1  0.605300  0.133600  0.589500  1
  C  C2360  1  0.644700  0.616400  0.089500  1
  C  C2361  1  0.116400  0.089500  0.144700  1
  C  C2362  1  0.633600  0.589500  0.105300  1
  C  C2363  1  0.133600  0.660500  0.644700  1
  C  C2364  1  0.616400  0.160500  0.605300  1
  C  C2365  1  0.089500  0.105300  0.133600  1
  C  C2366  1  0.589500  0.144700  0.616400  1
  C  C2367  1  0.660500  0.605300  0.116400  1
  C  C2368  1  0.160500  0.644700  0.633600  1
  C  C2369  1  0.866400  0.355300  0.839500  1
  C  C2370  1  0.383600  0.394700  0.339500  1
  C  C2371  1  0.883600  0.855300  0.410500  1
  C  C2372  1  0.366400  0.894700  0.910500  1
  C  C2373  1  0.839500  0.366400  0.855300  1
  C  C2374  1  0.339500  0.883600  0.894700  1
  C  C2375  1  0.410500  0.383600  0.355300  1
  C  C2376  1  0.910500  0.866400  0.394700  1
  C  C2377  1  0.855300  0.339500  0.866400  1
  C  C2378  1  0.894700  0.839500  0.383600  1
  C  C2379  1  0.355300  0.910500  0.883600  1
  C  C2380  1  0.394700  0.410500  0.366400  1
  C  C2381  1  0.605300  0.616400  0.160500  1
  C  C2382  1  0.644700  0.133600  0.660500  1
  C  C2383  1  0.105300  0.633600  0.589500  1
  C  C2384  1  0.144700  0.116400  0.089500  1
  C  C2385  1  0.616400  0.589500  0.144700  1
  C  C2386  1  0.133600  0.089500  0.105300  1
  C  C2387  1  0.633600  0.160500  0.644700  1
  C  C2388  1  0.116400  0.660500  0.605300  1
  C  C2389  1  0.589500  0.605300  0.133600  1
  C  C2390  1  0.089500  0.644700  0.616400  1
  C  C2391  1  0.160500  0.105300  0.116400  1
  C  C2392  1  0.660500  0.144700  0.633600  1
  C  C2393  1  0.866400  0.855300  0.339500  1
  C  C2394  1  0.383600  0.894700  0.839500  1
  C  C2395  1  0.883600  0.355300  0.910500  1
  C  C2396  1  0.366400  0.394700  0.410500  1
  C  C2397  1  0.839500  0.866400  0.355300  1
  C  C2398  1  0.339500  0.383600  0.394700  1
  C  C2399  1  0.410500  0.883600  0.855300  1
  C  C2400  1  0.910500  0.366400  0.894700  1
  C  C2401  1  0.855300  0.839500  0.366400  1
  C  C2402  1  0.894700  0.339500  0.883600  1
  C  C2403  1  0.355300  0.410500  0.383600  1
  C  C2404  1  0.394700  0.910500  0.866400  1
  C  C2405  1  0.605300  0.116400  0.660500  1
  C  C2406  1  0.644700  0.633600  0.160500  1
  C  C2407  1  0.105300  0.133600  0.089500  1
  C  C2408  1  0.144700  0.616400  0.589500  1
  C  C2409  1  0.616400  0.089500  0.644700  1
  C  C2410  1  0.133600  0.589500  0.605300  1
  C  C2411  1  0.633600  0.660500  0.144700  1
  C  C2412  1  0.116400  0.160500  0.105300  1
  C  C2413  1  0.589500  0.105300  0.633600  1
  C  C2414  1  0.089500  0.144700  0.116400  1
  C  C2415  1  0.160500  0.605300  0.616400  1
  C  C2416  1  0.660500  0.644700  0.133600  1
  C  C2417  1  0.633600  0.644700  0.660500  1
  C  C2418  1  0.116400  0.605300  0.160500  1
  C  C2419  1  0.616400  0.144700  0.089500  1
  C  C2420  1  0.133600  0.105300  0.589500  1
  C  C2421  1  0.660500  0.633600  0.644700  1
  C  C2422  1  0.160500  0.116400  0.605300  1
  C  C2423  1  0.089500  0.616400  0.144700  1
  C  C2424  1  0.589500  0.133600  0.105300  1
  C  C2425  1  0.644700  0.660500  0.633600  1
  C  C2426  1  0.605300  0.160500  0.116400  1
  C  C2427  1  0.144700  0.089500  0.616400  1
  C  C2428  1  0.105300  0.589500  0.133600  1
  C  C2429  1  0.894700  0.383600  0.339500  1
  C  C2430  1  0.855300  0.866400  0.839500  1
  C  C2431  1  0.394700  0.366400  0.910500  1
  C  C2432  1  0.355300  0.883600  0.410500  1
  C  C2433  1  0.883600  0.410500  0.355300  1
  C  C2434  1  0.366400  0.910500  0.394700  1
  C  C2435  1  0.866400  0.839500  0.855300  1
  C  C2436  1  0.383600  0.339500  0.894700  1
  C  C2437  1  0.910500  0.394700  0.366400  1
  C  C2438  1  0.410500  0.355300  0.883600  1
  C  C2439  1  0.339500  0.894700  0.383600  1
  C  C2440  1  0.839500  0.855300  0.866400  1
  C  C2441  1  0.633600  0.144700  0.160500  1
  C  C2442  1  0.116400  0.105300  0.660500  1
  C  C2443  1  0.616400  0.644700  0.589500  1
  C  C2444  1  0.133600  0.605300  0.089500  1
  C  C2445  1  0.660500  0.133600  0.144700  1
  C  C2446  1  0.160500  0.616400  0.105300  1
  C  C2447  1  0.089500  0.116400  0.644700  1
  C  C2448  1  0.589500  0.633600  0.605300  1
  C  C2449  1  0.644700  0.160500  0.133600  1
  C  C2450  1  0.605300  0.660500  0.616400  1
  C  C2451  1  0.144700  0.589500  0.116400  1
  C  C2452  1  0.105300  0.089500  0.633600  1
  C  C2453  1  0.894700  0.883600  0.839500  1
  C  C2454  1  0.855300  0.366400  0.339500  1
  C  C2455  1  0.394700  0.866400  0.410500  1
  C  C2456  1  0.355300  0.383600  0.910500  1
  C  C2457  1  0.883600  0.910500  0.855300  1
  C  C2458  1  0.366400  0.410500  0.894700  1
  C  C2459  1  0.866400  0.339500  0.355300  1
  C  C2460  1  0.383600  0.839500  0.394700  1
  C  C2461  1  0.910500  0.894700  0.866400  1
  C  C2462  1  0.410500  0.855300  0.383600  1
  C  C2463  1  0.339500  0.394700  0.883600  1
  C  C2464  1  0.839500  0.355300  0.366400  1
  C  C2465  1  0.133600  0.644700  0.160500  1
  C  C2466  1  0.616400  0.605300  0.660500  1
  C  C2467  1  0.116400  0.144700  0.589500  1
  C  C2468  1  0.633600  0.105300  0.089500  1
  C  C2469  1  0.160500  0.633600  0.144700  1
  C  C2470  1  0.660500  0.116400  0.105300  1
  C  C2471  1  0.589500  0.616400  0.644700  1
  C  C2472  1  0.089500  0.133600  0.605300  1
  C  C2473  1  0.144700  0.660500  0.133600  1
  C  C2474  1  0.105300  0.160500  0.616400  1
  C  C2475  1  0.644700  0.089500  0.116400  1
  C  C2476  1  0.605300  0.589500  0.633600  1
  C  C2477  1  0.394700  0.383600  0.839500  1
  C  C2478  1  0.355300  0.866400  0.339500  1
  C  C2479  1  0.894700  0.366400  0.410500  1
  C  C2480  1  0.855300  0.883600  0.910500  1
  C  C2481  1  0.383600  0.410500  0.855300  1
  C  C2482  1  0.866400  0.910500  0.894700  1
  C  C2483  1  0.366400  0.839500  0.355300  1
  C  C2484  1  0.883600  0.339500  0.394700  1
  C  C2485  1  0.410500  0.394700  0.866400  1
  C  C2486  1  0.910500  0.355300  0.383600  1
  C  C2487  1  0.839500  0.894700  0.883600  1
  C  C2488  1  0.339500  0.855300  0.366400  1
  C  C2489  1  0.133600  0.144700  0.660500  1
  C  C2490  1  0.616400  0.105300  0.160500  1
  C  C2491  1  0.116400  0.644700  0.089500  1
  C  C2492  1  0.633600  0.605300  0.589500  1
  C  C2493  1  0.160500  0.133600  0.644700  1
  C  C2494  1  0.660500  0.616400  0.605300  1
  C  C2495  1  0.589500  0.116400  0.144700  1
  C  C2496  1  0.089500  0.633600  0.105300  1
  C  C2497  1  0.144700  0.160500  0.633600  1
  C  C2498  1  0.105300  0.660500  0.116400  1
  C  C2499  1  0.644700  0.589500  0.616400  1
  C  C2500  1  0.605300  0.089500  0.133600  1
  C  C2501  1  0.394700  0.883600  0.339500  1
  C  C2502  1  0.355300  0.366400  0.839500  1
  C  C2503  1  0.894700  0.866400  0.910500  1
  C  C2504  1  0.855300  0.383600  0.410500  1
  C  C2505  1  0.383600  0.910500  0.355300  1
  C  C2506  1  0.866400  0.410500  0.394700  1
  C  C2507  1  0.366400  0.339500  0.855300  1
  C  C2508  1  0.883600  0.839500  0.894700  1
  C  C2509  1  0.410500  0.894700  0.366400  1
  C  C2510  1  0.910500  0.855300  0.883600  1
  C  C2511  1  0.839500  0.394700  0.383600  1
  C  C2512  1  0.339500  0.355300  0.866400  1
  C  C2513  1  0.394300  0.361700  0.340800  1
  C  C2514  1  0.855700  0.388300  0.840800  1
  C  C2515  1  0.355700  0.861700  0.909200  1
  C  C2516  1  0.894300  0.888300  0.409200  1
  C  C2517  1  0.340800  0.394300  0.361700  1
  C  C2518  1  0.840800  0.855700  0.388300  1
  C  C2519  1  0.909200  0.355700  0.861700  1
  C  C2520  1  0.409200  0.894300  0.888300  1
  C  C2521  1  0.361700  0.340800  0.394300  1
  C  C2522  1  0.388300  0.840800  0.855700  1
  C  C2523  1  0.861700  0.909200  0.355700  1
  C  C2524  1  0.888300  0.409200  0.894300  1
  C  C2525  1  0.111700  0.644300  0.659200  1
  C  C2526  1  0.138300  0.105700  0.159200  1
  C  C2527  1  0.611700  0.605700  0.090800  1
  C  C2528  1  0.638300  0.144300  0.590800  1
  C  C2529  1  0.144300  0.590800  0.638300  1
  C  C2530  1  0.605700  0.090800  0.611700  1
  C  C2531  1  0.105700  0.159200  0.138300  1
  C  C2532  1  0.644300  0.659200  0.111700  1
  C  C2533  1  0.090800  0.611700  0.605700  1
  C  C2534  1  0.590800  0.638300  0.144300  1
  C  C2535  1  0.659200  0.111700  0.644300  1
  C  C2536  1  0.159200  0.138300  0.105700  1
  C  C2537  1  0.394300  0.861700  0.840800  1
  C  C2538  1  0.855700  0.888300  0.340800  1
  C  C2539  1  0.355700  0.361700  0.409200  1
  C  C2540  1  0.894300  0.388300  0.909200  1
  C  C2541  1  0.340800  0.894300  0.861700  1
  C  C2542  1  0.840800  0.355700  0.888300  1
  C  C2543  1  0.909200  0.855700  0.361700  1
  C  C2544  1  0.409200  0.394300  0.388300  1
  C  C2545  1  0.361700  0.840800  0.894300  1
  C  C2546  1  0.388300  0.340800  0.355700  1
  C  C2547  1  0.861700  0.409200  0.855700  1
  C  C2548  1  0.888300  0.909200  0.394300  1
  C  C2549  1  0.111700  0.144300  0.159200  1
  C  C2550  1  0.138300  0.605700  0.659200  1
  C  C2551  1  0.611700  0.105700  0.590800  1
  C  C2552  1  0.638300  0.644300  0.090800  1
  C  C2553  1  0.144300  0.090800  0.138300  1
  C  C2554  1  0.605700  0.590800  0.111700  1
  C  C2555  1  0.105700  0.659200  0.638300  1
  C  C2556  1  0.644300  0.159200  0.611700  1
  C  C2557  1  0.090800  0.111700  0.105700  1
  C  C2558  1  0.590800  0.138300  0.644300  1
  C  C2559  1  0.659200  0.611700  0.144300  1
  C  C2560  1  0.159200  0.638300  0.605700  1
  C  C2561  1  0.894300  0.361700  0.840800  1
  C  C2562  1  0.355700  0.388300  0.340800  1
  C  C2563  1  0.855700  0.861700  0.409200  1
  C  C2564  1  0.394300  0.888300  0.909200  1
  C  C2565  1  0.840800  0.394300  0.861700  1
  C  C2566  1  0.340800  0.855700  0.888300  1
  C  C2567  1  0.409200  0.355700  0.361700  1
  C  C2568  1  0.909200  0.894300  0.388300  1
  C  C2569  1  0.861700  0.340800  0.894300  1
  C  C2570  1  0.888300  0.840800  0.355700  1
  C  C2571  1  0.361700  0.909200  0.855700  1
  C  C2572  1  0.388300  0.409200  0.394300  1
  C  C2573  1  0.611700  0.644300  0.159200  1
  C  C2574  1  0.638300  0.105700  0.659200  1
  C  C2575  1  0.111700  0.605700  0.590800  1
  C  C2576  1  0.138300  0.144300  0.090800  1
  C  C2577  1  0.644300  0.590800  0.138300  1
  C  C2578  1  0.105700  0.090800  0.111700  1
  C  C2579  1  0.605700  0.159200  0.638300  1
  C  C2580  1  0.144300  0.659200  0.611700  1
  C  C2581  1  0.590800  0.611700  0.105700  1
  C  C2582  1  0.090800  0.638300  0.644300  1
  C  C2583  1  0.159200  0.111700  0.144300  1
  C  C2584  1  0.659200  0.138300  0.605700  1
  C  C2585  1  0.894300  0.861700  0.340800  1
  C  C2586  1  0.355700  0.888300  0.840800  1
  C  C2587  1  0.855700  0.361700  0.909200  1
  C  C2588  1  0.394300  0.388300  0.409200  1
  C  C2589  1  0.840800  0.894300  0.361700  1
  C  C2590  1  0.340800  0.355700  0.388300  1
  C  C2591  1  0.409200  0.855700  0.861700  1
  C  C2592  1  0.909200  0.394300  0.888300  1
  C  C2593  1  0.861700  0.840800  0.394300  1
  C  C2594  1  0.888300  0.340800  0.855700  1
  C  C2595  1  0.361700  0.409200  0.355700  1
  C  C2596  1  0.388300  0.909200  0.894300  1
  C  C2597  1  0.611700  0.144300  0.659200  1
  C  C2598  1  0.638300  0.605700  0.159200  1
  C  C2599  1  0.111700  0.105700  0.090800  1
  C  C2600  1  0.138300  0.644300  0.590800  1
  C  C2601  1  0.644300  0.090800  0.638300  1
  C  C2602  1  0.105700  0.590800  0.611700  1
  C  C2603  1  0.605700  0.659200  0.138300  1
  C  C2604  1  0.144300  0.159200  0.111700  1
  C  C2605  1  0.590800  0.111700  0.605700  1
  C  C2606  1  0.090800  0.138300  0.144300  1
  C  C2607  1  0.159200  0.611700  0.644300  1
  C  C2608  1  0.659200  0.638300  0.105700  1
  C  C2609  1  0.605700  0.638300  0.659200  1
  C  C2610  1  0.144300  0.611700  0.159200  1
  C  C2611  1  0.644300  0.138300  0.090800  1
  C  C2612  1  0.105700  0.111700  0.590800  1
  C  C2613  1  0.659200  0.605700  0.638300  1
  C  C2614  1  0.159200  0.144300  0.611700  1
  C  C2615  1  0.090800  0.644300  0.138300  1
  C  C2616  1  0.590800  0.105700  0.111700  1
  C  C2617  1  0.638300  0.659200  0.605700  1
  C  C2618  1  0.611700  0.159200  0.144300  1
  C  C2619  1  0.138300  0.090800  0.644300  1
  C  C2620  1  0.111700  0.590800  0.105700  1
  C  C2621  1  0.888300  0.355700  0.340800  1
  C  C2622  1  0.861700  0.894300  0.840800  1
  C  C2623  1  0.388300  0.394300  0.909200  1
  C  C2624  1  0.361700  0.855700  0.409200  1
  C  C2625  1  0.855700  0.409200  0.361700  1
  C  C2626  1  0.394300  0.909200  0.388300  1
  C  C2627  1  0.894300  0.840800  0.861700  1
  C  C2628  1  0.355700  0.340800  0.888300  1
  C  C2629  1  0.909200  0.388300  0.394300  1
  C  C2630  1  0.409200  0.361700  0.855700  1
  C  C2631  1  0.340800  0.888300  0.355700  1
  C  C2632  1  0.840800  0.861700  0.894300  1
  C  C2633  1  0.605700  0.138300  0.159200  1
  C  C2634  1  0.144300  0.111700  0.659200  1
  C  C2635  1  0.644300  0.638300  0.590800  1
  C  C2636  1  0.105700  0.611700  0.090800  1
  C  C2637  1  0.659200  0.105700  0.138300  1
  C  C2638  1  0.159200  0.644300  0.111700  1
  C  C2639  1  0.090800  0.144300  0.638300  1
  C  C2640  1  0.590800  0.605700  0.611700  1
  C  C2641  1  0.638300  0.159200  0.105700  1
  C  C2642  1  0.611700  0.659200  0.644300  1
  C  C2643  1  0.138300  0.590800  0.144300  1
  C  C2644  1  0.111700  0.090800  0.605700  1
  C  C2645  1  0.888300  0.855700  0.840800  1
  C  C2646  1  0.861700  0.394300  0.340800  1
  C  C2647  1  0.388300  0.894300  0.409200  1
  C  C2648  1  0.361700  0.355700  0.909200  1
  C  C2649  1  0.855700  0.909200  0.861700  1
  C  C2650  1  0.394300  0.409200  0.888300  1
  C  C2651  1  0.894300  0.340800  0.361700  1
  C  C2652  1  0.355700  0.840800  0.388300  1
  C  C2653  1  0.909200  0.888300  0.894300  1
  C  C2654  1  0.409200  0.861700  0.355700  1
  C  C2655  1  0.340800  0.388300  0.855700  1
  C  C2656  1  0.840800  0.361700  0.394300  1
  C  C2657  1  0.105700  0.638300  0.159200  1
  C  C2658  1  0.644300  0.611700  0.659200  1
  C  C2659  1  0.144300  0.138300  0.590800  1
  C  C2660  1  0.605700  0.111700  0.090800  1
  C  C2661  1  0.159200  0.605700  0.138300  1
  C  C2662  1  0.659200  0.144300  0.111700  1
  C  C2663  1  0.590800  0.644300  0.638300  1
  C  C2664  1  0.090800  0.105700  0.611700  1
  C  C2665  1  0.138300  0.659200  0.105700  1
  C  C2666  1  0.111700  0.159200  0.644300  1
  C  C2667  1  0.638300  0.090800  0.144300  1
  C  C2668  1  0.611700  0.590800  0.605700  1
  C  C2669  1  0.388300  0.355700  0.840800  1
  C  C2670  1  0.361700  0.894300  0.340800  1
  C  C2671  1  0.888300  0.394300  0.409200  1
  C  C2672  1  0.861700  0.855700  0.909200  1
  C  C2673  1  0.355700  0.409200  0.861700  1
  C  C2674  1  0.894300  0.909200  0.888300  1
  C  C2675  1  0.394300  0.840800  0.361700  1
  C  C2676  1  0.855700  0.340800  0.388300  1
  C  C2677  1  0.409200  0.388300  0.894300  1
  C  C2678  1  0.909200  0.361700  0.355700  1
  C  C2679  1  0.840800  0.888300  0.855700  1
  C  C2680  1  0.340800  0.861700  0.394300  1
  C  C2681  1  0.105700  0.138300  0.659200  1
  C  C2682  1  0.644300  0.111700  0.159200  1
  C  C2683  1  0.144300  0.638300  0.090800  1
  C  C2684  1  0.605700  0.611700  0.590800  1
  C  C2685  1  0.159200  0.105700  0.638300  1
  C  C2686  1  0.659200  0.644300  0.611700  1
  C  C2687  1  0.590800  0.144300  0.138300  1
  C  C2688  1  0.090800  0.605700  0.111700  1
  C  C2689  1  0.138300  0.159200  0.605700  1
  C  C2690  1  0.111700  0.659200  0.144300  1
  C  C2691  1  0.638300  0.590800  0.644300  1
  C  C2692  1  0.611700  0.090800  0.105700  1
  C  C2693  1  0.388300  0.855700  0.340800  1
  C  C2694  1  0.361700  0.394300  0.840800  1
  C  C2695  1  0.888300  0.894300  0.909200  1
  C  C2696  1  0.861700  0.355700  0.409200  1
  C  C2697  1  0.355700  0.909200  0.361700  1
  C  C2698  1  0.894300  0.409200  0.388300  1
  C  C2699  1  0.394300  0.340800  0.861700  1
  C  C2700  1  0.855700  0.840800  0.888300  1
  C  C2701  1  0.409200  0.888300  0.394300  1
  C  C2702  1  0.909200  0.861700  0.855700  1
  C  C2703  1  0.840800  0.388300  0.355700  1
  C  C2704  1  0.340800  0.361700  0.894300  1
  C  C2705  1  0.422200  0.405700  0.343100  1
  C  C2706  1  0.827800  0.344300  0.843100  1
  C  C2707  1  0.327800  0.905700  0.906900  1
  C  C2708  1  0.922200  0.844300  0.406900  1
  C  C2709  1  0.343100  0.422200  0.405700  1
  C  C2710  1  0.843100  0.827800  0.344300  1
  C  C2711  1  0.906900  0.327800  0.905700  1
  C  C2712  1  0.406900  0.922200  0.844300  1
  C  C2713  1  0.405700  0.343100  0.422200  1
  C  C2714  1  0.344300  0.843100  0.827800  1
  C  C2715  1  0.905700  0.906900  0.327800  1
  C  C2716  1  0.844300  0.406900  0.922200  1
  C  C2717  1  0.155700  0.672200  0.656900  1
  C  C2718  1  0.094300  0.077800  0.156900  1
  C  C2719  1  0.655700  0.577800  0.093100  1
  C  C2720  1  0.594300  0.172200  0.593100  1
  C  C2721  1  0.172200  0.593100  0.594300  1
  C  C2722  1  0.577800  0.093100  0.655700  1
  C  C2723  1  0.077800  0.156900  0.094300  1
  C  C2724  1  0.672200  0.656900  0.155700  1
  C  C2725  1  0.093100  0.655700  0.577800  1
  C  C2726  1  0.593100  0.594300  0.172200  1
  C  C2727  1  0.656900  0.155700  0.672200  1
  C  C2728  1  0.156900  0.094300  0.077800  1
  C  C2729  1  0.422200  0.905700  0.843100  1
  C  C2730  1  0.827800  0.844300  0.343100  1
  C  C2731  1  0.327800  0.405700  0.406900  1
  C  C2732  1  0.922200  0.344300  0.906900  1
  C  C2733  1  0.343100  0.922200  0.905700  1
  C  C2734  1  0.843100  0.327800  0.844300  1
  C  C2735  1  0.906900  0.827800  0.405700  1
  C  C2736  1  0.406900  0.422200  0.344300  1
  C  C2737  1  0.405700  0.843100  0.922200  1
  C  C2738  1  0.344300  0.343100  0.327800  1
  C  C2739  1  0.905700  0.406900  0.827800  1
  C  C2740  1  0.844300  0.906900  0.422200  1
  C  C2741  1  0.155700  0.172200  0.156900  1
  C  C2742  1  0.094300  0.577800  0.656900  1
  C  C2743  1  0.655700  0.077800  0.593100  1
  C  C2744  1  0.594300  0.672200  0.093100  1
  C  C2745  1  0.172200  0.093100  0.094300  1
  C  C2746  1  0.577800  0.593100  0.155700  1
  C  C2747  1  0.077800  0.656900  0.594300  1
  C  C2748  1  0.672200  0.156900  0.655700  1
  C  C2749  1  0.093100  0.155700  0.077800  1
  C  C2750  1  0.593100  0.094300  0.672200  1
  C  C2751  1  0.656900  0.655700  0.172200  1
  C  C2752  1  0.156900  0.594300  0.577800  1
  C  C2753  1  0.922200  0.405700  0.843100  1
  C  C2754  1  0.327800  0.344300  0.343100  1
  C  C2755  1  0.827800  0.905700  0.406900  1
  C  C2756  1  0.422200  0.844300  0.906900  1
  C  C2757  1  0.843100  0.422200  0.905700  1
  C  C2758  1  0.343100  0.827800  0.844300  1
  C  C2759  1  0.406900  0.327800  0.405700  1
  C  C2760  1  0.906900  0.922200  0.344300  1
  C  C2761  1  0.905700  0.343100  0.922200  1
  C  C2762  1  0.844300  0.843100  0.327800  1
  C  C2763  1  0.405700  0.906900  0.827800  1
  C  C2764  1  0.344300  0.406900  0.422200  1
  C  C2765  1  0.655700  0.672200  0.156900  1
  C  C2766  1  0.594300  0.077800  0.656900  1
  C  C2767  1  0.155700  0.577800  0.593100  1
  C  C2768  1  0.094300  0.172200  0.093100  1
  C  C2769  1  0.672200  0.593100  0.094300  1
  C  C2770  1  0.077800  0.093100  0.155700  1
  C  C2771  1  0.577800  0.156900  0.594300  1
  C  C2772  1  0.172200  0.656900  0.655700  1
  C  C2773  1  0.593100  0.655700  0.077800  1
  C  C2774  1  0.093100  0.594300  0.672200  1
  C  C2775  1  0.156900  0.155700  0.172200  1
  C  C2776  1  0.656900  0.094300  0.577800  1
  C  C2777  1  0.922200  0.905700  0.343100  1
  C  C2778  1  0.327800  0.844300  0.843100  1
  C  C2779  1  0.827800  0.405700  0.906900  1
  C  C2780  1  0.422200  0.344300  0.406900  1
  C  C2781  1  0.843100  0.922200  0.405700  1
  C  C2782  1  0.343100  0.327800  0.344300  1
  C  C2783  1  0.406900  0.827800  0.905700  1
  C  C2784  1  0.906900  0.422200  0.844300  1
  C  C2785  1  0.905700  0.843100  0.422200  1
  C  C2786  1  0.844300  0.343100  0.827800  1
  C  C2787  1  0.405700  0.406900  0.327800  1
  C  C2788  1  0.344300  0.906900  0.922200  1
  C  C2789  1  0.655700  0.172200  0.656900  1
  C  C2790  1  0.594300  0.577800  0.156900  1
  C  C2791  1  0.155700  0.077800  0.093100  1
  C  C2792  1  0.094300  0.672200  0.593100  1
  C  C2793  1  0.672200  0.093100  0.594300  1
  C  C2794  1  0.077800  0.593100  0.655700  1
  C  C2795  1  0.577800  0.656900  0.094300  1
  C  C2796  1  0.172200  0.156900  0.155700  1
  C  C2797  1  0.593100  0.155700  0.577800  1
  C  C2798  1  0.093100  0.094300  0.172200  1
  C  C2799  1  0.156900  0.655700  0.672200  1
  C  C2800  1  0.656900  0.594300  0.077800  1
  C  C2801  1  0.577800  0.594300  0.656900  1
  C  C2802  1  0.172200  0.655700  0.156900  1
  C  C2803  1  0.672200  0.094300  0.093100  1
  C  C2804  1  0.077800  0.155700  0.593100  1
  C  C2805  1  0.656900  0.577800  0.594300  1
  C  C2806  1  0.156900  0.172200  0.655700  1
  C  C2807  1  0.093100  0.672200  0.094300  1
  C  C2808  1  0.593100  0.077800  0.155700  1
  C  C2809  1  0.594300  0.656900  0.577800  1
  C  C2810  1  0.655700  0.156900  0.172200  1
  C  C2811  1  0.094300  0.093100  0.672200  1
  C  C2812  1  0.155700  0.593100  0.077800  1
  C  C2813  1  0.844300  0.327800  0.343100  1
  C  C2814  1  0.905700  0.922200  0.843100  1
  C  C2815  1  0.344300  0.422200  0.906900  1
  C  C2816  1  0.405700  0.827800  0.406900  1
  C  C2817  1  0.827800  0.406900  0.405700  1
  C  C2818  1  0.422200  0.906900  0.344300  1
  C  C2819  1  0.922200  0.843100  0.905700  1
  C  C2820  1  0.327800  0.343100  0.844300  1
  C  C2821  1  0.906900  0.344300  0.422200  1
  C  C2822  1  0.406900  0.405700  0.827800  1
  C  C2823  1  0.343100  0.844300  0.327800  1
  C  C2824  1  0.843100  0.905700  0.922200  1
  C  C2825  1  0.577800  0.094300  0.156900  1
  C  C2826  1  0.172200  0.155700  0.656900  1
  C  C2827  1  0.672200  0.594300  0.593100  1
  C  C2828  1  0.077800  0.655700  0.093100  1
  C  C2829  1  0.656900  0.077800  0.094300  1
  C  C2830  1  0.156900  0.672200  0.155700  1
  C  C2831  1  0.093100  0.172200  0.594300  1
  C  C2832  1  0.593100  0.577800  0.655700  1
  C  C2833  1  0.594300  0.156900  0.077800  1
  C  C2834  1  0.655700  0.656900  0.672200  1
  C  C2835  1  0.094300  0.593100  0.172200  1
  C  C2836  1  0.155700  0.093100  0.577800  1
  C  C2837  1  0.844300  0.827800  0.843100  1
  C  C2838  1  0.905700  0.422200  0.343100  1
  C  C2839  1  0.344300  0.922200  0.406900  1
  C  C2840  1  0.405700  0.327800  0.906900  1
  C  C2841  1  0.827800  0.906900  0.905700  1
  C  C2842  1  0.422200  0.406900  0.844300  1
  C  C2843  1  0.922200  0.343100  0.405700  1
  C  C2844  1  0.327800  0.843100  0.344300  1
  C  C2845  1  0.906900  0.844300  0.922200  1
  C  C2846  1  0.406900  0.905700  0.327800  1
  C  C2847  1  0.343100  0.344300  0.827800  1
  C  C2848  1  0.843100  0.405700  0.422200  1
  C  C2849  1  0.077800  0.594300  0.156900  1
  C  C2850  1  0.672200  0.655700  0.656900  1
  C  C2851  1  0.172200  0.094300  0.593100  1
  C  C2852  1  0.577800  0.155700  0.093100  1
  C  C2853  1  0.156900  0.577800  0.094300  1
  C  C2854  1  0.656900  0.172200  0.155700  1
  C  C2855  1  0.593100  0.672200  0.594300  1
  C  C2856  1  0.093100  0.077800  0.655700  1
  C  C2857  1  0.094300  0.656900  0.077800  1
  C  C2858  1  0.155700  0.156900  0.672200  1
  C  C2859  1  0.594300  0.093100  0.172200  1
  C  C2860  1  0.655700  0.593100  0.577800  1
  C  C2861  1  0.344300  0.327800  0.843100  1
  C  C2862  1  0.405700  0.922200  0.343100  1
  C  C2863  1  0.844300  0.422200  0.406900  1
  C  C2864  1  0.905700  0.827800  0.906900  1
  C  C2865  1  0.327800  0.406900  0.905700  1
  C  C2866  1  0.922200  0.906900  0.844300  1
  C  C2867  1  0.422200  0.843100  0.405700  1
  C  C2868  1  0.827800  0.343100  0.344300  1
  C  C2869  1  0.406900  0.344300  0.922200  1
  C  C2870  1  0.906900  0.405700  0.327800  1
  C  C2871  1  0.843100  0.844300  0.827800  1
  C  C2872  1  0.343100  0.905700  0.422200  1
  C  C2873  1  0.077800  0.094300  0.656900  1
  C  C2874  1  0.672200  0.155700  0.156900  1
  C  C2875  1  0.172200  0.594300  0.093100  1
  C  C2876  1  0.577800  0.655700  0.593100  1
  C  C2877  1  0.156900  0.077800  0.594300  1
  C  C2878  1  0.656900  0.672200  0.655700  1
  C  C2879  1  0.593100  0.172200  0.094300  1
  C  C2880  1  0.093100  0.577800  0.155700  1
  C  C2881  1  0.094300  0.156900  0.577800  1
  C  C2882  1  0.155700  0.656900  0.172200  1
  C  C2883  1  0.594300  0.593100  0.672200  1
  C  C2884  1  0.655700  0.093100  0.077800  1
  C  C2885  1  0.344300  0.827800  0.343100  1
  C  C2886  1  0.405700  0.422200  0.843100  1
  C  C2887  1  0.844300  0.922200  0.906900  1
  C  C2888  1  0.905700  0.327800  0.406900  1
  C  C2889  1  0.327800  0.906900  0.405700  1
  C  C2890  1  0.922200  0.406900  0.344300  1
  C  C2891  1  0.422200  0.343100  0.905700  1
  C  C2892  1  0.827800  0.843100  0.844300  1
  C  C2893  1  0.406900  0.844300  0.422200  1
  C  C2894  1  0.906900  0.905700  0.827800  1
  C  C2895  1  0.843100  0.344300  0.327800  1
  C  C2896  1  0.343100  0.405700  0.922200  1
  C  C2897  1  0.363500  0.430300  0.345800  1
  C  C2898  1  0.886500  0.319700  0.845800  1
  C  C2899  1  0.386500  0.930300  0.904200  1
  C  C2900  1  0.863500  0.819700  0.404200  1
  C  C2901  1  0.345800  0.363500  0.430300  1
  C  C2902  1  0.845800  0.886500  0.319700  1
  C  C2903  1  0.904200  0.386500  0.930300  1
  C  C2904  1  0.404200  0.863500  0.819700  1
  C  C2905  1  0.430300  0.345800  0.363500  1
  C  C2906  1  0.319700  0.845800  0.886500  1
  C  C2907  1  0.930300  0.904200  0.386500  1
  C  C2908  1  0.819700  0.404200  0.863500  1
  C  C2909  1  0.180300  0.613500  0.654200  1
  C  C2910  1  0.069700  0.136500  0.154200  1
  C  C2911  1  0.680300  0.636500  0.095800  1
  C  C2912  1  0.569700  0.113500  0.595800  1
  C  C2913  1  0.113500  0.595800  0.569700  1
  C  C2914  1  0.636500  0.095800  0.680300  1
  C  C2915  1  0.136500  0.154200  0.069700  1
  C  C2916  1  0.613500  0.654200  0.180300  1
  C  C2917  1  0.095800  0.680300  0.636500  1
  C  C2918  1  0.595800  0.569700  0.113500  1
  C  C2919  1  0.654200  0.180300  0.613500  1
  C  C2920  1  0.154200  0.069700  0.136500  1
  C  C2921  1  0.363500  0.930300  0.845800  1
  C  C2922  1  0.886500  0.819700  0.345800  1
  C  C2923  1  0.386500  0.430300  0.404200  1
  C  C2924  1  0.863500  0.319700  0.904200  1
  C  C2925  1  0.345800  0.863500  0.930300  1
  C  C2926  1  0.845800  0.386500  0.819700  1
  C  C2927  1  0.904200  0.886500  0.430300  1
  C  C2928  1  0.404200  0.363500  0.319700  1
  C  C2929  1  0.430300  0.845800  0.863500  1
  C  C2930  1  0.319700  0.345800  0.386500  1
  C  C2931  1  0.930300  0.404200  0.886500  1
  C  C2932  1  0.819700  0.904200  0.363500  1
  C  C2933  1  0.180300  0.113500  0.154200  1
  C  C2934  1  0.069700  0.636500  0.654200  1
  C  C2935  1  0.680300  0.136500  0.595800  1
  C  C2936  1  0.569700  0.613500  0.095800  1
  C  C2937  1  0.113500  0.095800  0.069700  1
  C  C2938  1  0.636500  0.595800  0.180300  1
  C  C2939  1  0.136500  0.654200  0.569700  1
  C  C2940  1  0.613500  0.154200  0.680300  1
  C  C2941  1  0.095800  0.180300  0.136500  1
  C  C2942  1  0.595800  0.069700  0.613500  1
  C  C2943  1  0.654200  0.680300  0.113500  1
  C  C2944  1  0.154200  0.569700  0.636500  1
  C  C2945  1  0.863500  0.430300  0.845800  1
  C  C2946  1  0.386500  0.319700  0.345800  1
  C  C2947  1  0.886500  0.930300  0.404200  1
  C  C2948  1  0.363500  0.819700  0.904200  1
  C  C2949  1  0.845800  0.363500  0.930300  1
  C  C2950  1  0.345800  0.886500  0.819700  1
  C  C2951  1  0.404200  0.386500  0.430300  1
  C  C2952  1  0.904200  0.863500  0.319700  1
  C  C2953  1  0.930300  0.345800  0.863500  1
  C  C2954  1  0.819700  0.845800  0.386500  1
  C  C2955  1  0.430300  0.904200  0.886500  1
  C  C2956  1  0.319700  0.404200  0.363500  1
  C  C2957  1  0.680300  0.613500  0.154200  1
  C  C2958  1  0.569700  0.136500  0.654200  1
  C  C2959  1  0.180300  0.636500  0.595800  1
  C  C2960  1  0.069700  0.113500  0.095800  1
  C  C2961  1  0.613500  0.595800  0.069700  1
  C  C2962  1  0.136500  0.095800  0.180300  1
  C  C2963  1  0.636500  0.154200  0.569700  1
  C  C2964  1  0.113500  0.654200  0.680300  1
  C  C2965  1  0.595800  0.680300  0.136500  1
  C  C2966  1  0.095800  0.569700  0.613500  1
  C  C2967  1  0.154200  0.180300  0.113500  1
  C  C2968  1  0.654200  0.069700  0.636500  1
  C  C2969  1  0.863500  0.930300  0.345800  1
  C  C2970  1  0.386500  0.819700  0.845800  1
  C  C2971  1  0.886500  0.430300  0.904200  1
  C  C2972  1  0.363500  0.319700  0.404200  1
  C  C2973  1  0.845800  0.863500  0.430300  1
  C  C2974  1  0.345800  0.386500  0.319700  1
  C  C2975  1  0.404200  0.886500  0.930300  1
  C  C2976  1  0.904200  0.363500  0.819700  1
  C  C2977  1  0.930300  0.845800  0.363500  1
  C  C2978  1  0.819700  0.345800  0.886500  1
  C  C2979  1  0.430300  0.404200  0.386500  1
  C  C2980  1  0.319700  0.904200  0.863500  1
  C  C2981  1  0.680300  0.113500  0.654200  1
  C  C2982  1  0.569700  0.636500  0.154200  1
  C  C2983  1  0.180300  0.136500  0.095800  1
  C  C2984  1  0.069700  0.613500  0.595800  1
  C  C2985  1  0.613500  0.095800  0.569700  1
  C  C2986  1  0.136500  0.595800  0.680300  1
  C  C2987  1  0.636500  0.654200  0.069700  1
  C  C2988  1  0.113500  0.154200  0.180300  1
  C  C2989  1  0.595800  0.180300  0.636500  1
  C  C2990  1  0.095800  0.069700  0.113500  1
  C  C2991  1  0.154200  0.680300  0.613500  1
  C  C2992  1  0.654200  0.569700  0.136500  1
  C  C2993  1  0.636500  0.569700  0.654200  1
  C  C2994  1  0.113500  0.680300  0.154200  1
  C  C2995  1  0.613500  0.069700  0.095800  1
  C  C2996  1  0.136500  0.180300  0.595800  1
  C  C2997  1  0.654200  0.636500  0.569700  1
  C  C2998  1  0.154200  0.113500  0.680300  1
  C  C2999  1  0.095800  0.613500  0.069700  1
  C  C3000  1  0.595800  0.136500  0.180300  1
  C  C3001  1  0.569700  0.654200  0.636500  1
  C  C3002  1  0.680300  0.154200  0.113500  1
  C  C3003  1  0.069700  0.095800  0.613500  1
  C  C3004  1  0.180300  0.595800  0.136500  1
  C  C3005  1  0.819700  0.386500  0.345800  1
  C  C3006  1  0.930300  0.863500  0.845800  1
  C  C3007  1  0.319700  0.363500  0.904200  1
  C  C3008  1  0.430300  0.886500  0.404200  1
  C  C3009  1  0.886500  0.404200  0.430300  1
  C  C3010  1  0.363500  0.904200  0.319700  1
  C  C3011  1  0.863500  0.845800  0.930300  1
  C  C3012  1  0.386500  0.345800  0.819700  1
  C  C3013  1  0.904200  0.319700  0.363500  1
  C  C3014  1  0.404200  0.430300  0.886500  1
  C  C3015  1  0.345800  0.819700  0.386500  1
  C  C3016  1  0.845800  0.930300  0.863500  1
  C  C3017  1  0.636500  0.069700  0.154200  1
  C  C3018  1  0.113500  0.180300  0.654200  1
  C  C3019  1  0.613500  0.569700  0.595800  1
  C  C3020  1  0.136500  0.680300  0.095800  1
  C  C3021  1  0.654200  0.136500  0.069700  1
  C  C3022  1  0.154200  0.613500  0.180300  1
  C  C3023  1  0.095800  0.113500  0.569700  1
  C  C3024  1  0.595800  0.636500  0.680300  1
  C  C3025  1  0.569700  0.154200  0.136500  1
  C  C3026  1  0.680300  0.654200  0.613500  1
  C  C3027  1  0.069700  0.595800  0.113500  1
  C  C3028  1  0.180300  0.095800  0.636500  1
  C  C3029  1  0.819700  0.886500  0.845800  1
  C  C3030  1  0.930300  0.363500  0.345800  1
  C  C3031  1  0.319700  0.863500  0.404200  1
  C  C3032  1  0.430300  0.386500  0.904200  1
  C  C3033  1  0.886500  0.904200  0.930300  1
  C  C3034  1  0.363500  0.404200  0.819700  1
  C  C3035  1  0.863500  0.345800  0.430300  1
  C  C3036  1  0.386500  0.845800  0.319700  1
  C  C3037  1  0.904200  0.819700  0.863500  1
  C  C3038  1  0.404200  0.930300  0.386500  1
  C  C3039  1  0.345800  0.319700  0.886500  1
  C  C3040  1  0.845800  0.430300  0.363500  1
  C  C3041  1  0.136500  0.569700  0.154200  1
  C  C3042  1  0.613500  0.680300  0.654200  1
  C  C3043  1  0.113500  0.069700  0.595800  1
  C  C3044  1  0.636500  0.180300  0.095800  1
  C  C3045  1  0.154200  0.636500  0.069700  1
  C  C3046  1  0.654200  0.113500  0.180300  1
  C  C3047  1  0.595800  0.613500  0.569700  1
  C  C3048  1  0.095800  0.136500  0.680300  1
  C  C3049  1  0.069700  0.654200  0.136500  1
  C  C3050  1  0.180300  0.154200  0.613500  1
  C  C3051  1  0.569700  0.095800  0.113500  1
  C  C3052  1  0.680300  0.595800  0.636500  1
  C  C3053  1  0.319700  0.386500  0.845800  1
  C  C3054  1  0.430300  0.863500  0.345800  1
  C  C3055  1  0.819700  0.363500  0.404200  1
  C  C3056  1  0.930300  0.886500  0.904200  1
  C  C3057  1  0.386500  0.404200  0.930300  1
  C  C3058  1  0.863500  0.904200  0.819700  1
  C  C3059  1  0.363500  0.845800  0.430300  1
  C  C3060  1  0.886500  0.345800  0.319700  1
  C  C3061  1  0.404200  0.319700  0.863500  1
  C  C3062  1  0.904200  0.430300  0.386500  1
  C  C3063  1  0.845800  0.819700  0.886500  1
  C  C3064  1  0.345800  0.930300  0.363500  1
  C  C3065  1  0.136500  0.069700  0.654200  1
  C  C3066  1  0.613500  0.180300  0.154200  1
  C  C3067  1  0.113500  0.569700  0.095800  1
  C  C3068  1  0.636500  0.680300  0.595800  1
  C  C3069  1  0.154200  0.136500  0.569700  1
  C  C3070  1  0.654200  0.613500  0.680300  1
  C  C3071  1  0.595800  0.113500  0.069700  1
  C  C3072  1  0.095800  0.636500  0.180300  1
  C  C3073  1  0.069700  0.154200  0.636500  1
  C  C3074  1  0.180300  0.654200  0.113500  1
  C  C3075  1  0.569700  0.595800  0.613500  1
  C  C3076  1  0.680300  0.095800  0.136500  1
  C  C3077  1  0.319700  0.886500  0.345800  1
  C  C3078  1  0.430300  0.363500  0.845800  1
  C  C3079  1  0.819700  0.863500  0.904200  1
  C  C3080  1  0.930300  0.386500  0.404200  1
  C  C3081  1  0.386500  0.904200  0.430300  1
  C  C3082  1  0.863500  0.404200  0.319700  1
  C  C3083  1  0.363500  0.345800  0.930300  1
  C  C3084  1  0.886500  0.845800  0.819700  1
  C  C3085  1  0.404200  0.819700  0.363500  1
  C  C3086  1  0.904200  0.930300  0.886500  1
  C  C3087  1  0.845800  0.319700  0.386500  1
  C  C3088  1  0.345800  0.430300  0.863500  1
  C  C3089  1  0.321900  0.382400  0.339000  1
  C  C3090  1  0.928100  0.367600  0.839000  1
  C  C3091  1  0.428100  0.882400  0.911000  1
  C  C3092  1  0.821900  0.867600  0.411000  1
  C  C3093  1  0.339000  0.321900  0.382400  1
  C  C3094  1  0.839000  0.928100  0.367600  1
  C  C3095  1  0.911000  0.428100  0.882400  1
  C  C3096  1  0.411000  0.821900  0.867600  1
  C  C3097  1  0.382400  0.339000  0.321900  1
  C  C3098  1  0.367600  0.839000  0.928100  1
  C  C3099  1  0.882400  0.911000  0.428100  1
  C  C3100  1  0.867600  0.411000  0.821900  1
  C  C3101  1  0.132400  0.571900  0.661000  1
  C  C3102  1  0.117600  0.178100  0.161000  1
  C  C3103  1  0.632400  0.678100  0.089000  1
  C  C3104  1  0.617600  0.071900  0.589000  1
  C  C3105  1  0.071900  0.589000  0.617600  1
  C  C3106  1  0.678100  0.089000  0.632400  1
  C  C3107  1  0.178100  0.161000  0.117600  1
  C  C3108  1  0.571900  0.661000  0.132400  1
  C  C3109  1  0.089000  0.632400  0.678100  1
  C  C3110  1  0.589000  0.617600  0.071900  1
  C  C3111  1  0.661000  0.132400  0.571900  1
  C  C3112  1  0.161000  0.117600  0.178100  1
  C  C3113  1  0.321900  0.882400  0.839000  1
  C  C3114  1  0.928100  0.867600  0.339000  1
  C  C3115  1  0.428100  0.382400  0.411000  1
  C  C3116  1  0.821900  0.367600  0.911000  1
  C  C3117  1  0.339000  0.821900  0.882400  1
  C  C3118  1  0.839000  0.428100  0.867600  1
  C  C3119  1  0.911000  0.928100  0.382400  1
  C  C3120  1  0.411000  0.321900  0.367600  1
  C  C3121  1  0.382400  0.839000  0.821900  1
  C  C3122  1  0.367600  0.339000  0.428100  1
  C  C3123  1  0.882400  0.411000  0.928100  1
  C  C3124  1  0.867600  0.911000  0.321900  1
  C  C3125  1  0.132400  0.071900  0.161000  1
  C  C3126  1  0.117600  0.678100  0.661000  1
  C  C3127  1  0.632400  0.178100  0.589000  1
  C  C3128  1  0.617600  0.571900  0.089000  1
  C  C3129  1  0.071900  0.089000  0.117600  1
  C  C3130  1  0.678100  0.589000  0.132400  1
  C  C3131  1  0.178100  0.661000  0.617600  1
  C  C3132  1  0.571900  0.161000  0.632400  1
  C  C3133  1  0.089000  0.132400  0.178100  1
  C  C3134  1  0.589000  0.117600  0.571900  1
  C  C3135  1  0.661000  0.632400  0.071900  1
  C  C3136  1  0.161000  0.617600  0.678100  1
  C  C3137  1  0.821900  0.382400  0.839000  1
  C  C3138  1  0.428100  0.367600  0.339000  1
  C  C3139  1  0.928100  0.882400  0.411000  1
  C  C3140  1  0.321900  0.867600  0.911000  1
  C  C3141  1  0.839000  0.321900  0.882400  1
  C  C3142  1  0.339000  0.928100  0.867600  1
  C  C3143  1  0.411000  0.428100  0.382400  1
  C  C3144  1  0.911000  0.821900  0.367600  1
  C  C3145  1  0.882400  0.339000  0.821900  1
  C  C3146  1  0.867600  0.839000  0.428100  1
  C  C3147  1  0.382400  0.911000  0.928100  1
  C  C3148  1  0.367600  0.411000  0.321900  1
  C  C3149  1  0.632400  0.571900  0.161000  1
  C  C3150  1  0.617600  0.178100  0.661000  1
  C  C3151  1  0.132400  0.678100  0.589000  1
  C  C3152  1  0.117600  0.071900  0.089000  1
  C  C3153  1  0.571900  0.589000  0.117600  1
  C  C3154  1  0.178100  0.089000  0.132400  1
  C  C3155  1  0.678100  0.161000  0.617600  1
  C  C3156  1  0.071900  0.661000  0.632400  1
  C  C3157  1  0.589000  0.632400  0.178100  1
  C  C3158  1  0.089000  0.617600  0.571900  1
  C  C3159  1  0.161000  0.132400  0.071900  1
  C  C3160  1  0.661000  0.117600  0.678100  1
  C  C3161  1  0.821900  0.882400  0.339000  1
  C  C3162  1  0.428100  0.867600  0.839000  1
  C  C3163  1  0.928100  0.382400  0.911000  1
  C  C3164  1  0.321900  0.367600  0.411000  1
  C  C3165  1  0.839000  0.821900  0.382400  1
  C  C3166  1  0.339000  0.428100  0.367600  1
  C  C3167  1  0.411000  0.928100  0.882400  1
  C  C3168  1  0.911000  0.321900  0.867600  1
  C  C3169  1  0.882400  0.839000  0.321900  1
  C  C3170  1  0.867600  0.339000  0.928100  1
  C  C3171  1  0.382400  0.411000  0.428100  1
  C  C3172  1  0.367600  0.911000  0.821900  1
  C  C3173  1  0.632400  0.071900  0.661000  1
  C  C3174  1  0.617600  0.678100  0.161000  1
  C  C3175  1  0.132400  0.178100  0.089000  1
  C  C3176  1  0.117600  0.571900  0.589000  1
  C  C3177  1  0.571900  0.089000  0.617600  1
  C  C3178  1  0.178100  0.589000  0.632400  1
  C  C3179  1  0.678100  0.661000  0.117600  1
  C  C3180  1  0.071900  0.161000  0.132400  1
  C  C3181  1  0.589000  0.132400  0.678100  1
  C  C3182  1  0.089000  0.117600  0.071900  1
  C  C3183  1  0.161000  0.632400  0.571900  1
  C  C3184  1  0.661000  0.617600  0.178100  1
  C  C3185  1  0.678100  0.617600  0.661000  1
  C  C3186  1  0.071900  0.632400  0.161000  1
  C  C3187  1  0.571900  0.117600  0.089000  1
  C  C3188  1  0.178100  0.132400  0.589000  1
  C  C3189  1  0.661000  0.678100  0.617600  1
  C  C3190  1  0.161000  0.071900  0.632400  1
  C  C3191  1  0.089000  0.571900  0.117600  1
  C  C3192  1  0.589000  0.178100  0.132400  1
  C  C3193  1  0.617600  0.661000  0.678100  1
  C  C3194  1  0.632400  0.161000  0.071900  1
  C  C3195  1  0.117600  0.089000  0.571900  1
  C  C3196  1  0.132400  0.589000  0.178100  1
  C  C3197  1  0.867600  0.428100  0.339000  1
  C  C3198  1  0.882400  0.821900  0.839000  1
  C  C3199  1  0.367600  0.321900  0.911000  1
  C  C3200  1  0.382400  0.928100  0.411000  1
  C  C3201  1  0.928100  0.411000  0.382400  1
  C  C3202  1  0.321900  0.911000  0.367600  1
  C  C3203  1  0.821900  0.839000  0.882400  1
  C  C3204  1  0.428100  0.339000  0.867600  1
  C  C3205  1  0.911000  0.367600  0.321900  1
  C  C3206  1  0.411000  0.382400  0.928100  1
  C  C3207  1  0.339000  0.867600  0.428100  1
  C  C3208  1  0.839000  0.882400  0.821900  1
  C  C3209  1  0.678100  0.117600  0.161000  1
  C  C3210  1  0.071900  0.132400  0.661000  1
  C  C3211  1  0.571900  0.617600  0.589000  1
  C  C3212  1  0.178100  0.632400  0.089000  1
  C  C3213  1  0.661000  0.178100  0.117600  1
  C  C3214  1  0.161000  0.571900  0.132400  1
  C  C3215  1  0.089000  0.071900  0.617600  1
  C  C3216  1  0.589000  0.678100  0.632400  1
  C  C3217  1  0.617600  0.161000  0.178100  1
  C  C3218  1  0.632400  0.661000  0.571900  1
  C  C3219  1  0.117600  0.589000  0.071900  1
  C  C3220  1  0.132400  0.089000  0.678100  1
  C  C3221  1  0.867600  0.928100  0.839000  1
  C  C3222  1  0.882400  0.321900  0.339000  1
  C  C3223  1  0.367600  0.821900  0.411000  1
  C  C3224  1  0.382400  0.428100  0.911000  1
  C  C3225  1  0.928100  0.911000  0.882400  1
  C  C3226  1  0.321900  0.411000  0.867600  1
  C  C3227  1  0.821900  0.339000  0.382400  1
  C  C3228  1  0.428100  0.839000  0.367600  1
  C  C3229  1  0.911000  0.867600  0.821900  1
  C  C3230  1  0.411000  0.882400  0.428100  1
  C  C3231  1  0.339000  0.367600  0.928100  1
  C  C3232  1  0.839000  0.382400  0.321900  1
  C  C3233  1  0.178100  0.617600  0.161000  1
  C  C3234  1  0.571900  0.632400  0.661000  1
  C  C3235  1  0.071900  0.117600  0.589000  1
  C  C3236  1  0.678100  0.132400  0.089000  1
  C  C3237  1  0.161000  0.678100  0.117600  1
  C  C3238  1  0.661000  0.071900  0.132400  1
  C  C3239  1  0.589000  0.571900  0.617600  1
  C  C3240  1  0.089000  0.178100  0.632400  1
  C  C3241  1  0.117600  0.661000  0.178100  1
  C  C3242  1  0.132400  0.161000  0.571900  1
  C  C3243  1  0.617600  0.089000  0.071900  1
  C  C3244  1  0.632400  0.589000  0.678100  1
  C  C3245  1  0.367600  0.428100  0.839000  1
  C  C3246  1  0.382400  0.821900  0.339000  1
  C  C3247  1  0.867600  0.321900  0.411000  1
  C  C3248  1  0.882400  0.928100  0.911000  1
  C  C3249  1  0.428100  0.411000  0.882400  1
  C  C3250  1  0.821900  0.911000  0.867600  1
  C  C3251  1  0.321900  0.839000  0.382400  1
  C  C3252  1  0.928100  0.339000  0.367600  1
  C  C3253  1  0.411000  0.367600  0.821900  1
  C  C3254  1  0.911000  0.382400  0.428100  1
  C  C3255  1  0.839000  0.867600  0.928100  1
  C  C3256  1  0.339000  0.882400  0.321900  1
  C  C3257  1  0.178100  0.117600  0.661000  1
  C  C3258  1  0.571900  0.132400  0.161000  1
  C  C3259  1  0.071900  0.617600  0.089000  1
  C  C3260  1  0.678100  0.632400  0.589000  1
  C  C3261  1  0.161000  0.178100  0.617600  1
  C  C3262  1  0.661000  0.571900  0.632400  1
  C  C3263  1  0.589000  0.071900  0.117600  1
  C  C3264  1  0.089000  0.678100  0.132400  1
  C  C3265  1  0.117600  0.161000  0.678100  1
  C  C3266  1  0.132400  0.661000  0.071900  1
  C  C3267  1  0.617600  0.589000  0.571900  1
  C  C3268  1  0.632400  0.089000  0.178100  1
  C  C3269  1  0.367600  0.928100  0.339000  1
  C  C3270  1  0.382400  0.321900  0.839000  1
  C  C3271  1  0.867600  0.821900  0.911000  1
  C  C3272  1  0.882400  0.428100  0.411000  1
  C  C3273  1  0.428100  0.911000  0.382400  1
  C  C3274  1  0.821900  0.411000  0.367600  1
  C  C3275  1  0.321900  0.339000  0.882400  1
  C  C3276  1  0.928100  0.839000  0.867600  1
  C  C3277  1  0.411000  0.867600  0.321900  1
  C  C3278  1  0.911000  0.882400  0.928100  1
  C  C3279  1  0.839000  0.367600  0.428100  1
  C  C3280  1  0.339000  0.382400  0.821900  1
  C  C3281  1  0.354800  0.327900  0.336500  1
  C  C3282  1  0.895200  0.422100  0.836500  1
  C  C3283  1  0.395200  0.827900  0.913500  1
  C  C3284  1  0.854800  0.922100  0.413500  1
  C  C3285  1  0.336500  0.354800  0.327900  1
  C  C3286  1  0.836500  0.895200  0.422100  1
  C  C3287  1  0.913500  0.395200  0.827900  1
  C  C3288  1  0.413500  0.854800  0.922100  1
  C  C3289  1  0.327900  0.336500  0.354800  1
  C  C3290  1  0.422100  0.836500  0.895200  1
  C  C3291  1  0.827900  0.913500  0.395200  1
  C  C3292  1  0.922100  0.413500  0.854800  1
  C  C3293  1  0.077900  0.604800  0.663500  1
  C  C3294  1  0.172100  0.145200  0.163500  1
  C  C3295  1  0.577900  0.645200  0.086500  1
  C  C3296  1  0.672100  0.104800  0.586500  1
  C  C3297  1  0.104800  0.586500  0.672100  1
  C  C3298  1  0.645200  0.086500  0.577900  1
  C  C3299  1  0.145200  0.163500  0.172100  1
  C  C3300  1  0.604800  0.663500  0.077900  1
  C  C3301  1  0.086500  0.577900  0.645200  1
  C  C3302  1  0.586500  0.672100  0.104800  1
  C  C3303  1  0.663500  0.077900  0.604800  1
  C  C3304  1  0.163500  0.172100  0.145200  1
  C  C3305  1  0.354800  0.827900  0.836500  1
  C  C3306  1  0.895200  0.922100  0.336500  1
  C  C3307  1  0.395200  0.327900  0.413500  1
  C  C3308  1  0.854800  0.422100  0.913500  1
  C  C3309  1  0.336500  0.854800  0.827900  1
  C  C3310  1  0.836500  0.395200  0.922100  1
  C  C3311  1  0.913500  0.895200  0.327900  1
  C  C3312  1  0.413500  0.354800  0.422100  1
  C  C3313  1  0.327900  0.836500  0.854800  1
  C  C3314  1  0.422100  0.336500  0.395200  1
  C  C3315  1  0.827900  0.413500  0.895200  1
  C  C3316  1  0.922100  0.913500  0.354800  1
  C  C3317  1  0.077900  0.104800  0.163500  1
  C  C3318  1  0.172100  0.645200  0.663500  1
  C  C3319  1  0.577900  0.145200  0.586500  1
  C  C3320  1  0.672100  0.604800  0.086500  1
  C  C3321  1  0.104800  0.086500  0.172100  1
  C  C3322  1  0.645200  0.586500  0.077900  1
  C  C3323  1  0.145200  0.663500  0.672100  1
  C  C3324  1  0.604800  0.163500  0.577900  1
  C  C3325  1  0.086500  0.077900  0.145200  1
  C  C3326  1  0.586500  0.172100  0.604800  1
  C  C3327  1  0.663500  0.577900  0.104800  1
  C  C3328  1  0.163500  0.672100  0.645200  1
  C  C3329  1  0.854800  0.327900  0.836500  1
  C  C3330  1  0.395200  0.422100  0.336500  1
  C  C3331  1  0.895200  0.827900  0.413500  1
  C  C3332  1  0.354800  0.922100  0.913500  1
  C  C3333  1  0.836500  0.354800  0.827900  1
  C  C3334  1  0.336500  0.895200  0.922100  1
  C  C3335  1  0.413500  0.395200  0.327900  1
  C  C3336  1  0.913500  0.854800  0.422100  1
  C  C3337  1  0.827900  0.336500  0.854800  1
  C  C3338  1  0.922100  0.836500  0.395200  1
  C  C3339  1  0.327900  0.913500  0.895200  1
  C  C3340  1  0.422100  0.413500  0.354800  1
  C  C3341  1  0.577900  0.604800  0.163500  1
  C  C3342  1  0.672100  0.145200  0.663500  1
  C  C3343  1  0.077900  0.645200  0.586500  1
  C  C3344  1  0.172100  0.104800  0.086500  1
  C  C3345  1  0.604800  0.586500  0.172100  1
  C  C3346  1  0.145200  0.086500  0.077900  1
  C  C3347  1  0.645200  0.163500  0.672100  1
  C  C3348  1  0.104800  0.663500  0.577900  1
  C  C3349  1  0.586500  0.577900  0.145200  1
  C  C3350  1  0.086500  0.672100  0.604800  1
  C  C3351  1  0.163500  0.077900  0.104800  1
  C  C3352  1  0.663500  0.172100  0.645200  1
  C  C3353  1  0.854800  0.827900  0.336500  1
  C  C3354  1  0.395200  0.922100  0.836500  1
  C  C3355  1  0.895200  0.327900  0.913500  1
  C  C3356  1  0.354800  0.422100  0.413500  1
  C  C3357  1  0.836500  0.854800  0.327900  1
  C  C3358  1  0.336500  0.395200  0.422100  1
  C  C3359  1  0.413500  0.895200  0.827900  1
  C  C3360  1  0.913500  0.354800  0.922100  1
  C  C3361  1  0.827900  0.836500  0.354800  1
  C  C3362  1  0.922100  0.336500  0.895200  1
  C  C3363  1  0.327900  0.413500  0.395200  1
  C  C3364  1  0.422100  0.913500  0.854800  1
  C  C3365  1  0.577900  0.104800  0.663500  1
  C  C3366  1  0.672100  0.645200  0.163500  1
  C  C3367  1  0.077900  0.145200  0.086500  1
  C  C3368  1  0.172100  0.604800  0.586500  1
  C  C3369  1  0.604800  0.086500  0.672100  1
  C  C3370  1  0.145200  0.586500  0.577900  1
  C  C3371  1  0.645200  0.663500  0.172100  1
  C  C3372  1  0.104800  0.163500  0.077900  1
  C  C3373  1  0.586500  0.077900  0.645200  1
  C  C3374  1  0.086500  0.172100  0.104800  1
  C  C3375  1  0.163500  0.577900  0.604800  1
  C  C3376  1  0.663500  0.672100  0.145200  1
  C  C3377  1  0.645200  0.672100  0.663500  1
  C  C3378  1  0.104800  0.577900  0.163500  1
  C  C3379  1  0.604800  0.172100  0.086500  1
  C  C3380  1  0.145200  0.077900  0.586500  1
  C  C3381  1  0.663500  0.645200  0.672100  1
  C  C3382  1  0.163500  0.104800  0.577900  1
  C  C3383  1  0.086500  0.604800  0.172100  1
  C  C3384  1  0.586500  0.145200  0.077900  1
  C  C3385  1  0.672100  0.663500  0.645200  1
  C  C3386  1  0.577900  0.163500  0.104800  1
  C  C3387  1  0.172100  0.086500  0.604800  1
  C  C3388  1  0.077900  0.586500  0.145200  1
  C  C3389  1  0.922100  0.395200  0.336500  1
  C  C3390  1  0.827900  0.854800  0.836500  1
  C  C3391  1  0.422100  0.354800  0.913500  1
  C  C3392  1  0.327900  0.895200  0.413500  1
  C  C3393  1  0.895200  0.413500  0.327900  1
  C  C3394  1  0.354800  0.913500  0.422100  1
  C  C3395  1  0.854800  0.836500  0.827900  1
  C  C3396  1  0.395200  0.336500  0.922100  1
  C  C3397  1  0.913500  0.422100  0.354800  1
  C  C3398  1  0.413500  0.327900  0.895200  1
  C  C3399  1  0.336500  0.922100  0.395200  1
  C  C3400  1  0.836500  0.827900  0.854800  1
  C  C3401  1  0.645200  0.172100  0.163500  1
  C  C3402  1  0.104800  0.077900  0.663500  1
  C  C3403  1  0.604800  0.672100  0.586500  1
  C  C3404  1  0.145200  0.577900  0.086500  1
  C  C3405  1  0.663500  0.145200  0.172100  1
  C  C3406  1  0.163500  0.604800  0.077900  1
  C  C3407  1  0.086500  0.104800  0.672100  1
  C  C3408  1  0.586500  0.645200  0.577900  1
  C  C3409  1  0.672100  0.163500  0.145200  1
  C  C3410  1  0.577900  0.663500  0.604800  1
  C  C3411  1  0.172100  0.586500  0.104800  1
  C  C3412  1  0.077900  0.086500  0.645200  1
  C  C3413  1  0.922100  0.895200  0.836500  1
  C  C3414  1  0.827900  0.354800  0.336500  1
  C  C3415  1  0.422100  0.854800  0.413500  1
  C  C3416  1  0.327900  0.395200  0.913500  1
  C  C3417  1  0.895200  0.913500  0.827900  1
  C  C3418  1  0.354800  0.413500  0.922100  1
  C  C3419  1  0.854800  0.336500  0.327900  1
  C  C3420  1  0.395200  0.836500  0.422100  1
  C  C3421  1  0.913500  0.922100  0.854800  1
  C  C3422  1  0.413500  0.827900  0.395200  1
  C  C3423  1  0.336500  0.422100  0.895200  1
  C  C3424  1  0.836500  0.327900  0.354800  1
  C  C3425  1  0.145200  0.672100  0.163500  1
  C  C3426  1  0.604800  0.577900  0.663500  1
  C  C3427  1  0.104800  0.172100  0.586500  1
  C  C3428  1  0.645200  0.077900  0.086500  1
  C  C3429  1  0.163500  0.645200  0.172100  1
  C  C3430  1  0.663500  0.104800  0.077900  1
  C  C3431  1  0.586500  0.604800  0.672100  1
  C  C3432  1  0.086500  0.145200  0.577900  1
  C  C3433  1  0.172100  0.663500  0.145200  1
  C  C3434  1  0.077900  0.163500  0.604800  1
  C  C3435  1  0.672100  0.086500  0.104800  1
  C  C3436  1  0.577900  0.586500  0.645200  1
  C  C3437  1  0.422100  0.395200  0.836500  1
  C  C3438  1  0.327900  0.854800  0.336500  1
  C  C3439  1  0.922100  0.354800  0.413500  1
  C  C3440  1  0.827900  0.895200  0.913500  1
  C  C3441  1  0.395200  0.413500  0.827900  1
  C  C3442  1  0.854800  0.913500  0.922100  1
  C  C3443  1  0.354800  0.836500  0.327900  1
  C  C3444  1  0.895200  0.336500  0.422100  1
  C  C3445  1  0.413500  0.422100  0.854800  1
  C  C3446  1  0.913500  0.327900  0.395200  1
  C  C3447  1  0.836500  0.922100  0.895200  1
  C  C3448  1  0.336500  0.827900  0.354800  1
  C  C3449  1  0.145200  0.172100  0.663500  1
  C  C3450  1  0.604800  0.077900  0.163500  1
  C  C3451  1  0.104800  0.672100  0.086500  1
  C  C3452  1  0.645200  0.577900  0.586500  1
  C  C3453  1  0.163500  0.145200  0.672100  1
  C  C3454  1  0.663500  0.604800  0.577900  1
  C  C3455  1  0.586500  0.104800  0.172100  1
  C  C3456  1  0.086500  0.645200  0.077900  1
  C  C3457  1  0.172100  0.163500  0.645200  1
  C  C3458  1  0.077900  0.663500  0.104800  1
  C  C3459  1  0.672100  0.586500  0.604800  1
  C  C3460  1  0.577900  0.086500  0.145200  1
  C  C3461  1  0.422100  0.895200  0.336500  1
  C  C3462  1  0.327900  0.354800  0.836500  1
  C  C3463  1  0.922100  0.854800  0.913500  1
  C  C3464  1  0.827900  0.395200  0.413500  1
  C  C3465  1  0.395200  0.913500  0.327900  1
  C  C3466  1  0.854800  0.413500  0.422100  1
  C  C3467  1  0.354800  0.336500  0.827900  1
  C  C3468  1  0.895200  0.836500  0.922100  1
  C  C3469  1  0.413500  0.922100  0.354800  1
  C  C3470  1  0.913500  0.827900  0.895200  1
  C  C3471  1  0.836500  0.422100  0.395200  1
  C  C3472  1  0.336500  0.327900  0.854800  1
  C  C3473  1  0.416900  0.342500  0.338200  1
  C  C3474  1  0.833100  0.407500  0.838200  1
  C  C3475  1  0.333100  0.842500  0.911800  1
  C  C3476  1  0.916900  0.907500  0.411800  1
  C  C3477  1  0.338200  0.416900  0.342500  1
  C  C3478  1  0.838200  0.833100  0.407500  1
  C  C3479  1  0.911800  0.333100  0.842500  1
  C  C3480  1  0.411800  0.916900  0.907500  1
  C  C3481  1  0.342500  0.338200  0.416900  1
  C  C3482  1  0.407500  0.838200  0.833100  1
  C  C3483  1  0.842500  0.911800  0.333100  1
  C  C3484  1  0.907500  0.411800  0.916900  1
  C  C3485  1  0.092500  0.666900  0.661800  1
  C  C3486  1  0.157500  0.083100  0.161800  1
  C  C3487  1  0.592500  0.583100  0.088200  1
  C  C3488  1  0.657500  0.166900  0.588200  1
  C  C3489  1  0.166900  0.588200  0.657500  1
  C  C3490  1  0.583100  0.088200  0.592500  1
  C  C3491  1  0.083100  0.161800  0.157500  1
  C  C3492  1  0.666900  0.661800  0.092500  1
  C  C3493  1  0.088200  0.592500  0.583100  1
  C  C3494  1  0.588200  0.657500  0.166900  1
  C  C3495  1  0.661800  0.092500  0.666900  1
  C  C3496  1  0.161800  0.157500  0.083100  1
  C  C3497  1  0.416900  0.842500  0.838200  1
  C  C3498  1  0.833100  0.907500  0.338200  1
  C  C3499  1  0.333100  0.342500  0.411800  1
  C  C3500  1  0.916900  0.407500  0.911800  1
  C  C3501  1  0.338200  0.916900  0.842500  1
  C  C3502  1  0.838200  0.333100  0.907500  1
  C  C3503  1  0.911800  0.833100  0.342500  1
  C  C3504  1  0.411800  0.416900  0.407500  1
  C  C3505  1  0.342500  0.838200  0.916900  1
  C  C3506  1  0.407500  0.338200  0.333100  1
  C  C3507  1  0.842500  0.411800  0.833100  1
  C  C3508  1  0.907500  0.911800  0.416900  1
  C  C3509  1  0.092500  0.166900  0.161800  1
  C  C3510  1  0.157500  0.583100  0.661800  1
  C  C3511  1  0.592500  0.083100  0.588200  1
  C  C3512  1  0.657500  0.666900  0.088200  1
  C  C3513  1  0.166900  0.088200  0.157500  1
  C  C3514  1  0.583100  0.588200  0.092500  1
  C  C3515  1  0.083100  0.661800  0.657500  1
  C  C3516  1  0.666900  0.161800  0.592500  1
  C  C3517  1  0.088200  0.092500  0.083100  1
  C  C3518  1  0.588200  0.157500  0.666900  1
  C  C3519  1  0.661800  0.592500  0.166900  1
  C  C3520  1  0.161800  0.657500  0.583100  1
  C  C3521  1  0.916900  0.342500  0.838200  1
  C  C3522  1  0.333100  0.407500  0.338200  1
  C  C3523  1  0.833100  0.842500  0.411800  1
  C  C3524  1  0.416900  0.907500  0.911800  1
  C  C3525  1  0.838200  0.416900  0.842500  1
  C  C3526  1  0.338200  0.833100  0.907500  1
  C  C3527  1  0.411800  0.333100  0.342500  1
  C  C3528  1  0.911800  0.916900  0.407500  1
  C  C3529  1  0.842500  0.338200  0.916900  1
  C  C3530  1  0.907500  0.838200  0.333100  1
  C  C3531  1  0.342500  0.911800  0.833100  1
  C  C3532  1  0.407500  0.411800  0.416900  1
  C  C3533  1  0.592500  0.666900  0.161800  1
  C  C3534  1  0.657500  0.083100  0.661800  1
  C  C3535  1  0.092500  0.583100  0.588200  1
  C  C3536  1  0.157500  0.166900  0.088200  1
  C  C3537  1  0.666900  0.588200  0.157500  1
  C  C3538  1  0.083100  0.088200  0.092500  1
  C  C3539  1  0.583100  0.161800  0.657500  1
  C  C3540  1  0.166900  0.661800  0.592500  1
  C  C3541  1  0.588200  0.592500  0.083100  1
  C  C3542  1  0.088200  0.657500  0.666900  1
  C  C3543  1  0.161800  0.092500  0.166900  1
  C  C3544  1  0.661800  0.157500  0.583100  1
  C  C3545  1  0.916900  0.842500  0.338200  1
  C  C3546  1  0.333100  0.907500  0.838200  1
  C  C3547  1  0.833100  0.342500  0.911800  1
  C  C3548  1  0.416900  0.407500  0.411800  1
  C  C3549  1  0.838200  0.916900  0.342500  1
  C  C3550  1  0.338200  0.333100  0.407500  1
  C  C3551  1  0.411800  0.833100  0.842500  1
  C  C3552  1  0.911800  0.416900  0.907500  1
  C  C3553  1  0.842500  0.838200  0.416900  1
  C  C3554  1  0.907500  0.338200  0.833100  1
  C  C3555  1  0.342500  0.411800  0.333100  1
  C  C3556  1  0.407500  0.911800  0.916900  1
  C  C3557  1  0.592500  0.166900  0.661800  1
  C  C3558  1  0.657500  0.583100  0.161800  1
  C  C3559  1  0.092500  0.083100  0.088200  1
  C  C3560  1  0.157500  0.666900  0.588200  1
  C  C3561  1  0.666900  0.088200  0.657500  1
  C  C3562  1  0.083100  0.588200  0.592500  1
  C  C3563  1  0.583100  0.661800  0.157500  1
  C  C3564  1  0.166900  0.161800  0.092500  1
  C  C3565  1  0.588200  0.092500  0.583100  1
  C  C3566  1  0.088200  0.157500  0.166900  1
  C  C3567  1  0.161800  0.592500  0.666900  1
  C  C3568  1  0.661800  0.657500  0.083100  1
  C  C3569  1  0.583100  0.657500  0.661800  1
  C  C3570  1  0.166900  0.592500  0.161800  1
  C  C3571  1  0.666900  0.157500  0.088200  1
  C  C3572  1  0.083100  0.092500  0.588200  1
  C  C3573  1  0.661800  0.583100  0.657500  1
  C  C3574  1  0.161800  0.166900  0.592500  1
  C  C3575  1  0.088200  0.666900  0.157500  1
  C  C3576  1  0.588200  0.083100  0.092500  1
  C  C3577  1  0.657500  0.661800  0.583100  1
  C  C3578  1  0.592500  0.161800  0.166900  1
  C  C3579  1  0.157500  0.088200  0.666900  1
  C  C3580  1  0.092500  0.588200  0.083100  1
  C  C3581  1  0.907500  0.333100  0.338200  1
  C  C3582  1  0.842500  0.916900  0.838200  1
  C  C3583  1  0.407500  0.416900  0.911800  1
  C  C3584  1  0.342500  0.833100  0.411800  1
  C  C3585  1  0.833100  0.411800  0.342500  1
  C  C3586  1  0.416900  0.911800  0.407500  1
  C  C3587  1  0.916900  0.838200  0.842500  1
  C  C3588  1  0.333100  0.338200  0.907500  1
  C  C3589  1  0.911800  0.407500  0.416900  1
  C  C3590  1  0.411800  0.342500  0.833100  1
  C  C3591  1  0.338200  0.907500  0.333100  1
  C  C3592  1  0.838200  0.842500  0.916900  1
  C  C3593  1  0.583100  0.157500  0.161800  1
  C  C3594  1  0.166900  0.092500  0.661800  1
  C  C3595  1  0.666900  0.657500  0.588200  1
  C  C3596  1  0.083100  0.592500  0.088200  1
  C  C3597  1  0.661800  0.083100  0.157500  1
  C  C3598  1  0.161800  0.666900  0.092500  1
  C  C3599  1  0.088200  0.166900  0.657500  1
  C  C3600  1  0.588200  0.583100  0.592500  1
  C  C3601  1  0.657500  0.161800  0.083100  1
  C  C3602  1  0.592500  0.661800  0.666900  1
  C  C3603  1  0.157500  0.588200  0.166900  1
  C  C3604  1  0.092500  0.088200  0.583100  1
  C  C3605  1  0.907500  0.833100  0.838200  1
  C  C3606  1  0.842500  0.416900  0.338200  1
  C  C3607  1  0.407500  0.916900  0.411800  1
  C  C3608  1  0.342500  0.333100  0.911800  1
  C  C3609  1  0.833100  0.911800  0.842500  1
  C  C3610  1  0.416900  0.411800  0.907500  1
  C  C3611  1  0.916900  0.338200  0.342500  1
  C  C3612  1  0.333100  0.838200  0.407500  1
  C  C3613  1  0.911800  0.907500  0.916900  1
  C  C3614  1  0.411800  0.842500  0.333100  1
  C  C3615  1  0.338200  0.407500  0.833100  1
  C  C3616  1  0.838200  0.342500  0.416900  1
  C  C3617  1  0.083100  0.657500  0.161800  1
  C  C3618  1  0.666900  0.592500  0.661800  1
  C  C3619  1  0.166900  0.157500  0.588200  1
  C  C3620  1  0.583100  0.092500  0.088200  1
  C  C3621  1  0.161800  0.583100  0.157500  1
  C  C3622  1  0.661800  0.166900  0.092500  1
  C  C3623  1  0.588200  0.666900  0.657500  1
  C  C3624  1  0.088200  0.083100  0.592500  1
  C  C3625  1  0.157500  0.661800  0.083100  1
  C  C3626  1  0.092500  0.161800  0.666900  1
  C  C3627  1  0.657500  0.088200  0.166900  1
  C  C3628  1  0.592500  0.588200  0.583100  1
  C  C3629  1  0.407500  0.333100  0.838200  1
  C  C3630  1  0.342500  0.916900  0.338200  1
  C  C3631  1  0.907500  0.416900  0.411800  1
  C  C3632  1  0.842500  0.833100  0.911800  1
  C  C3633  1  0.333100  0.411800  0.842500  1
  C  C3634  1  0.916900  0.911800  0.907500  1
  C  C3635  1  0.416900  0.838200  0.342500  1
  C  C3636  1  0.833100  0.338200  0.407500  1
  C  C3637  1  0.411800  0.407500  0.916900  1
  C  C3638  1  0.911800  0.342500  0.333100  1
  C  C3639  1  0.838200  0.907500  0.833100  1
  C  C3640  1  0.338200  0.842500  0.416900  1
  C  C3641  1  0.083100  0.157500  0.661800  1
  C  C3642  1  0.666900  0.092500  0.161800  1
  C  C3643  1  0.166900  0.657500  0.088200  1
  C  C3644  1  0.583100  0.592500  0.588200  1
  C  C3645  1  0.161800  0.083100  0.657500  1
  C  C3646  1  0.661800  0.666900  0.592500  1
  C  C3647  1  0.588200  0.166900  0.157500  1
  C  C3648  1  0.088200  0.583100  0.092500  1
  C  C3649  1  0.157500  0.161800  0.583100  1
  C  C3650  1  0.092500  0.661800  0.166900  1
  C  C3651  1  0.657500  0.588200  0.666900  1
  C  C3652  1  0.592500  0.088200  0.083100  1
  C  C3653  1  0.407500  0.833100  0.338200  1
  C  C3654  1  0.342500  0.416900  0.838200  1
  C  C3655  1  0.907500  0.916900  0.911800  1
  C  C3656  1  0.842500  0.333100  0.411800  1
  C  C3657  1  0.333100  0.911800  0.342500  1
  C  C3658  1  0.916900  0.411800  0.407500  1
  C  C3659  1  0.416900  0.338200  0.842500  1
  C  C3660  1  0.833100  0.838200  0.907500  1
  C  C3661  1  0.411800  0.907500  0.416900  1
  C  C3662  1  0.911800  0.842500  0.833100  1
  C  C3663  1  0.838200  0.407500  0.333100  1
  C  C3664  1  0.338200  0.342500  0.916900  1
  C  C3665  1  0.355100  0.387700  0.408300  1
  C  C3666  1  0.894900  0.362300  0.908300  1
  C  C3667  1  0.394900  0.887700  0.841700  1
  C  C3668  1  0.855100  0.862300  0.341700  1
  C  C3669  1  0.408300  0.355100  0.387700  1
  C  C3670  1  0.908300  0.894900  0.362300  1
  C  C3671  1  0.841700  0.394900  0.887700  1
  C  C3672  1  0.341700  0.855100  0.862300  1
  C  C3673  1  0.387700  0.408300  0.355100  1
  C  C3674  1  0.362300  0.908300  0.894900  1
  C  C3675  1  0.887700  0.841700  0.394900  1
  C  C3676  1  0.862300  0.341700  0.855100  1
  C  C3677  1  0.137700  0.605100  0.591700  1
  C  C3678  1  0.112300  0.144900  0.091700  1
  C  C3679  1  0.637700  0.644900  0.158300  1
  C  C3680  1  0.612300  0.105100  0.658300  1
  C  C3681  1  0.105100  0.658300  0.612300  1
  C  C3682  1  0.644900  0.158300  0.637700  1
  C  C3683  1  0.144900  0.091700  0.112300  1
  C  C3684  1  0.605100  0.591700  0.137700  1
  C  C3685  1  0.158300  0.637700  0.644900  1
  C  C3686  1  0.658300  0.612300  0.105100  1
  C  C3687  1  0.591700  0.137700  0.605100  1
  C  C3688  1  0.091700  0.112300  0.144900  1
  C  C3689  1  0.355100  0.887700  0.908300  1
  C  C3690  1  0.894900  0.862300  0.408300  1
  C  C3691  1  0.394900  0.387700  0.341700  1
  C  C3692  1  0.855100  0.362300  0.841700  1
  C  C3693  1  0.408300  0.855100  0.887700  1
  C  C3694  1  0.908300  0.394900  0.862300  1
  C  C3695  1  0.841700  0.894900  0.387700  1
  C  C3696  1  0.341700  0.355100  0.362300  1
  C  C3697  1  0.387700  0.908300  0.855100  1
  C  C3698  1  0.362300  0.408300  0.394900  1
  C  C3699  1  0.887700  0.341700  0.894900  1
  C  C3700  1  0.862300  0.841700  0.355100  1
  C  C3701  1  0.137700  0.105100  0.091700  1
  C  C3702  1  0.112300  0.644900  0.591700  1
  C  C3703  1  0.637700  0.144900  0.658300  1
  C  C3704  1  0.612300  0.605100  0.158300  1
  C  C3705  1  0.105100  0.158300  0.112300  1
  C  C3706  1  0.644900  0.658300  0.137700  1
  C  C3707  1  0.144900  0.591700  0.612300  1
  C  C3708  1  0.605100  0.091700  0.637700  1
  C  C3709  1  0.158300  0.137700  0.144900  1
  C  C3710  1  0.658300  0.112300  0.605100  1
  C  C3711  1  0.591700  0.637700  0.105100  1
  C  C3712  1  0.091700  0.612300  0.644900  1
  C  C3713  1  0.855100  0.387700  0.908300  1
  C  C3714  1  0.394900  0.362300  0.408300  1
  C  C3715  1  0.894900  0.887700  0.341700  1
  C  C3716  1  0.355100  0.862300  0.841700  1
  C  C3717  1  0.908300  0.355100  0.887700  1
  C  C3718  1  0.408300  0.894900  0.862300  1
  C  C3719  1  0.341700  0.394900  0.387700  1
  C  C3720  1  0.841700  0.855100  0.362300  1
  C  C3721  1  0.887700  0.408300  0.855100  1
  C  C3722  1  0.862300  0.908300  0.394900  1
  C  C3723  1  0.387700  0.841700  0.894900  1
  C  C3724  1  0.362300  0.341700  0.355100  1
  C  C3725  1  0.637700  0.605100  0.091700  1
  C  C3726  1  0.612300  0.144900  0.591700  1
  C  C3727  1  0.137700  0.644900  0.658300  1
  C  C3728  1  0.112300  0.105100  0.158300  1
  C  C3729  1  0.605100  0.658300  0.112300  1
  C  C3730  1  0.144900  0.158300  0.137700  1
  C  C3731  1  0.644900  0.091700  0.612300  1
  C  C3732  1  0.105100  0.591700  0.637700  1
  C  C3733  1  0.658300  0.637700  0.144900  1
  C  C3734  1  0.158300  0.612300  0.605100  1
  C  C3735  1  0.091700  0.137700  0.105100  1
  C  C3736  1  0.591700  0.112300  0.644900  1
  C  C3737  1  0.855100  0.887700  0.408300  1
  C  C3738  1  0.394900  0.862300  0.908300  1
  C  C3739  1  0.894900  0.387700  0.841700  1
  C  C3740  1  0.355100  0.362300  0.341700  1
  C  C3741  1  0.908300  0.855100  0.387700  1
  C  C3742  1  0.408300  0.394900  0.362300  1
  C  C3743  1  0.341700  0.894900  0.887700  1
  C  C3744  1  0.841700  0.355100  0.862300  1
  C  C3745  1  0.887700  0.908300  0.355100  1
  C  C3746  1  0.862300  0.408300  0.894900  1
  C  C3747  1  0.387700  0.341700  0.394900  1
  C  C3748  1  0.362300  0.841700  0.855100  1
  C  C3749  1  0.637700  0.105100  0.591700  1
  C  C3750  1  0.612300  0.644900  0.091700  1
  C  C3751  1  0.137700  0.144900  0.158300  1
  C  C3752  1  0.112300  0.605100  0.658300  1
  C  C3753  1  0.605100  0.158300  0.612300  1
  C  C3754  1  0.144900  0.658300  0.637700  1
  C  C3755  1  0.644900  0.591700  0.112300  1
  C  C3756  1  0.105100  0.091700  0.137700  1
  C  C3757  1  0.658300  0.137700  0.644900  1
  C  C3758  1  0.158300  0.112300  0.105100  1
  C  C3759  1  0.091700  0.637700  0.605100  1
  C  C3760  1  0.591700  0.612300  0.144900  1
  C  C3761  1  0.644900  0.612300  0.591700  1
  C  C3762  1  0.105100  0.637700  0.091700  1
  C  C3763  1  0.605100  0.112300  0.158300  1
  C  C3764  1  0.144900  0.137700  0.658300  1
  C  C3765  1  0.591700  0.644900  0.612300  1
  C  C3766  1  0.091700  0.105100  0.637700  1
  C  C3767  1  0.158300  0.605100  0.112300  1
  C  C3768  1  0.658300  0.144900  0.137700  1
  C  C3769  1  0.612300  0.591700  0.644900  1
  C  C3770  1  0.637700  0.091700  0.105100  1
  C  C3771  1  0.112300  0.158300  0.605100  1
  C  C3772  1  0.137700  0.658300  0.144900  1
  C  C3773  1  0.862300  0.394900  0.408300  1
  C  C3774  1  0.887700  0.855100  0.908300  1
  C  C3775  1  0.362300  0.355100  0.841700  1
  C  C3776  1  0.387700  0.894900  0.341700  1
  C  C3777  1  0.894900  0.341700  0.387700  1
  C  C3778  1  0.355100  0.841700  0.362300  1
  C  C3779  1  0.855100  0.908300  0.887700  1
  C  C3780  1  0.394900  0.408300  0.862300  1
  C  C3781  1  0.841700  0.362300  0.355100  1
  C  C3782  1  0.341700  0.387700  0.894900  1
  C  C3783  1  0.408300  0.862300  0.394900  1
  C  C3784  1  0.908300  0.887700  0.855100  1
  C  C3785  1  0.644900  0.112300  0.091700  1
  C  C3786  1  0.105100  0.137700  0.591700  1
  C  C3787  1  0.605100  0.612300  0.658300  1
  C  C3788  1  0.144900  0.637700  0.158300  1
  C  C3789  1  0.591700  0.144900  0.112300  1
  C  C3790  1  0.091700  0.605100  0.137700  1
  C  C3791  1  0.158300  0.105100  0.612300  1
  C  C3792  1  0.658300  0.644900  0.637700  1
  C  C3793  1  0.612300  0.091700  0.144900  1
  C  C3794  1  0.637700  0.591700  0.605100  1
  C  C3795  1  0.112300  0.658300  0.105100  1
  C  C3796  1  0.137700  0.158300  0.644900  1
  C  C3797  1  0.862300  0.894900  0.908300  1
  C  C3798  1  0.887700  0.355100  0.408300  1
  C  C3799  1  0.362300  0.855100  0.341700  1
  C  C3800  1  0.387700  0.394900  0.841700  1
  C  C3801  1  0.894900  0.841700  0.887700  1
  C  C3802  1  0.355100  0.341700  0.862300  1
  C  C3803  1  0.855100  0.408300  0.387700  1
  C  C3804  1  0.394900  0.908300  0.362300  1
  C  C3805  1  0.841700  0.862300  0.855100  1
  C  C3806  1  0.341700  0.887700  0.394900  1
  C  C3807  1  0.408300  0.362300  0.894900  1
  C  C3808  1  0.908300  0.387700  0.355100  1
  C  C3809  1  0.144900  0.612300  0.091700  1
  C  C3810  1  0.605100  0.637700  0.591700  1
  C  C3811  1  0.105100  0.112300  0.658300  1
  C  C3812  1  0.644900  0.137700  0.158300  1
  C  C3813  1  0.091700  0.644900  0.112300  1
  C  C3814  1  0.591700  0.105100  0.137700  1
  C  C3815  1  0.658300  0.605100  0.612300  1
  C  C3816  1  0.158300  0.144900  0.637700  1
  C  C3817  1  0.112300  0.591700  0.144900  1
  C  C3818  1  0.137700  0.091700  0.605100  1
  C  C3819  1  0.612300  0.158300  0.105100  1
  C  C3820  1  0.637700  0.658300  0.644900  1
  C  C3821  1  0.362300  0.394900  0.908300  1
  C  C3822  1  0.387700  0.855100  0.408300  1
  C  C3823  1  0.862300  0.355100  0.341700  1
  C  C3824  1  0.887700  0.894900  0.841700  1
  C  C3825  1  0.394900  0.341700  0.887700  1
  C  C3826  1  0.855100  0.841700  0.862300  1
  C  C3827  1  0.355100  0.908300  0.387700  1
  C  C3828  1  0.894900  0.408300  0.362300  1
  C  C3829  1  0.341700  0.362300  0.855100  1
  C  C3830  1  0.841700  0.387700  0.394900  1
  C  C3831  1  0.908300  0.862300  0.894900  1
  C  C3832  1  0.408300  0.887700  0.355100  1
  C  C3833  1  0.144900  0.112300  0.591700  1
  C  C3834  1  0.605100  0.137700  0.091700  1
  C  C3835  1  0.105100  0.612300  0.158300  1
  C  C3836  1  0.644900  0.637700  0.658300  1
  C  C3837  1  0.091700  0.144900  0.612300  1
  C  C3838  1  0.591700  0.605100  0.637700  1
  C  C3839  1  0.658300  0.105100  0.112300  1
  C  C3840  1  0.158300  0.644900  0.137700  1
  C  C3841  1  0.112300  0.091700  0.644900  1
  C  C3842  1  0.137700  0.591700  0.105100  1
  C  C3843  1  0.612300  0.658300  0.605100  1
  C  C3844  1  0.637700  0.158300  0.144900  1
  C  C3845  1  0.362300  0.894900  0.408300  1
  C  C3846  1  0.387700  0.355100  0.908300  1
  C  C3847  1  0.862300  0.855100  0.841700  1
  C  C3848  1  0.887700  0.394900  0.341700  1
  C  C3849  1  0.394900  0.841700  0.387700  1
  C  C3850  1  0.855100  0.341700  0.362300  1
  C  C3851  1  0.355100  0.408300  0.887700  1
  C  C3852  1  0.894900  0.908300  0.862300  1
  C  C3853  1  0.341700  0.862300  0.355100  1
  C  C3854  1  0.841700  0.887700  0.894900  1
  C  C3855  1  0.908300  0.362300  0.394900  1
  C  C3856  1  0.408300  0.387700  0.855100  1
  C  C3857  1  0.352600  0.359400  0.405800  1
  C  C3858  1  0.897400  0.390600  0.905800  1
  C  C3859  1  0.397400  0.859400  0.844200  1
  C  C3860  1  0.852600  0.890600  0.344200  1
  C  C3861  1  0.405800  0.352600  0.359400  1
  C  C3862  1  0.905800  0.897400  0.390600  1
  C  C3863  1  0.844200  0.397400  0.859400  1
  C  C3864  1  0.344200  0.852600  0.890600  1
  C  C3865  1  0.359400  0.405800  0.352600  1
  C  C3866  1  0.390600  0.905800  0.897400  1
  C  C3867  1  0.859400  0.844200  0.397400  1
  C  C3868  1  0.890600  0.344200  0.852600  1
  C  C3869  1  0.109400  0.602600  0.594200  1
  C  C3870  1  0.140600  0.147400  0.094200  1
  C  C3871  1  0.609400  0.647400  0.155800  1
  C  C3872  1  0.640600  0.102600  0.655800  1
  C  C3873  1  0.102600  0.655800  0.640600  1
  C  C3874  1  0.647400  0.155800  0.609400  1
  C  C3875  1  0.147400  0.094200  0.140600  1
  C  C3876  1  0.602600  0.594200  0.109400  1
  C  C3877  1  0.155800  0.609400  0.647400  1
  C  C3878  1  0.655800  0.640600  0.102600  1
  C  C3879  1  0.594200  0.109400  0.602600  1
  C  C3880  1  0.094200  0.140600  0.147400  1
  C  C3881  1  0.352600  0.859400  0.905800  1
  C  C3882  1  0.897400  0.890600  0.405800  1
  C  C3883  1  0.397400  0.359400  0.344200  1
  C  C3884  1  0.852600  0.390600  0.844200  1
  C  C3885  1  0.405800  0.852600  0.859400  1
  C  C3886  1  0.905800  0.397400  0.890600  1
  C  C3887  1  0.844200  0.897400  0.359400  1
  C  C3888  1  0.344200  0.352600  0.390600  1
  C  C3889  1  0.359400  0.905800  0.852600  1
  C  C3890  1  0.390600  0.405800  0.397400  1
  C  C3891  1  0.859400  0.344200  0.897400  1
  C  C3892  1  0.890600  0.844200  0.352600  1
  C  C3893  1  0.109400  0.102600  0.094200  1
  C  C3894  1  0.140600  0.647400  0.594200  1
  C  C3895  1  0.609400  0.147400  0.655800  1
  C  C3896  1  0.640600  0.602600  0.155800  1
  C  C3897  1  0.102600  0.155800  0.140600  1
  C  C3898  1  0.647400  0.655800  0.109400  1
  C  C3899  1  0.147400  0.594200  0.640600  1
  C  C3900  1  0.602600  0.094200  0.609400  1
  C  C3901  1  0.155800  0.109400  0.147400  1
  C  C3902  1  0.655800  0.140600  0.602600  1
  C  C3903  1  0.594200  0.609400  0.102600  1
  C  C3904  1  0.094200  0.640600  0.647400  1
  C  C3905  1  0.852600  0.359400  0.905800  1
  C  C3906  1  0.397400  0.390600  0.405800  1
  C  C3907  1  0.897400  0.859400  0.344200  1
  C  C3908  1  0.352600  0.890600  0.844200  1
  C  C3909  1  0.905800  0.352600  0.859400  1
  C  C3910  1  0.405800  0.897400  0.890600  1
  C  C3911  1  0.344200  0.397400  0.359400  1
  C  C3912  1  0.844200  0.852600  0.390600  1
  C  C3913  1  0.859400  0.405800  0.852600  1
  C  C3914  1  0.890600  0.905800  0.397400  1
  C  C3915  1  0.359400  0.844200  0.897400  1
  C  C3916  1  0.390600  0.344200  0.352600  1
  C  C3917  1  0.609400  0.602600  0.094200  1
  C  C3918  1  0.640600  0.147400  0.594200  1
  C  C3919  1  0.109400  0.647400  0.655800  1
  C  C3920  1  0.140600  0.102600  0.155800  1
  C  C3921  1  0.602600  0.655800  0.140600  1
  C  C3922  1  0.147400  0.155800  0.109400  1
  C  C3923  1  0.647400  0.094200  0.640600  1
  C  C3924  1  0.102600  0.594200  0.609400  1
  C  C3925  1  0.655800  0.609400  0.147400  1
  C  C3926  1  0.155800  0.640600  0.602600  1
  C  C3927  1  0.094200  0.109400  0.102600  1
  C  C3928  1  0.594200  0.140600  0.647400  1
  C  C3929  1  0.852600  0.859400  0.405800  1
  C  C3930  1  0.397400  0.890600  0.905800  1
  C  C3931  1  0.897400  0.359400  0.844200  1
  C  C3932  1  0.352600  0.390600  0.344200  1
  C  C3933  1  0.905800  0.852600  0.359400  1
  C  C3934  1  0.405800  0.397400  0.390600  1
  C  C3935  1  0.344200  0.897400  0.859400  1
  C  C3936  1  0.844200  0.352600  0.890600  1
  C  C3937  1  0.859400  0.905800  0.352600  1
  C  C3938  1  0.890600  0.405800  0.897400  1
  C  C3939  1  0.359400  0.344200  0.397400  1
  C  C3940  1  0.390600  0.844200  0.852600  1
  C  C3941  1  0.609400  0.102600  0.594200  1
  C  C3942  1  0.640600  0.647400  0.094200  1
  C  C3943  1  0.109400  0.147400  0.155800  1
  C  C3944  1  0.140600  0.602600  0.655800  1
  C  C3945  1  0.602600  0.155800  0.640600  1
  C  C3946  1  0.147400  0.655800  0.609400  1
  C  C3947  1  0.647400  0.594200  0.140600  1
  C  C3948  1  0.102600  0.094200  0.109400  1
  C  C3949  1  0.655800  0.109400  0.647400  1
  C  C3950  1  0.155800  0.140600  0.102600  1
  C  C3951  1  0.094200  0.609400  0.602600  1
  C  C3952  1  0.594200  0.640600  0.147400  1
  C  C3953  1  0.647400  0.640600  0.594200  1
  C  C3954  1  0.102600  0.609400  0.094200  1
  C  C3955  1  0.602600  0.140600  0.155800  1
  C  C3956  1  0.147400  0.109400  0.655800  1
  C  C3957  1  0.594200  0.647400  0.640600  1
  C  C3958  1  0.094200  0.102600  0.609400  1
  C  C3959  1  0.155800  0.602600  0.140600  1
  C  C3960  1  0.655800  0.147400  0.109400  1
  C  C3961  1  0.640600  0.594200  0.647400  1
  C  C3962  1  0.609400  0.094200  0.102600  1
  C  C3963  1  0.140600  0.155800  0.602600  1
  C  C3964  1  0.109400  0.655800  0.147400  1
  C  C3965  1  0.890600  0.397400  0.405800  1
  C  C3966  1  0.859400  0.852600  0.905800  1
  C  C3967  1  0.390600  0.352600  0.844200  1
  C  C3968  1  0.359400  0.897400  0.344200  1
  C  C3969  1  0.897400  0.344200  0.359400  1
  C  C3970  1  0.352600  0.844200  0.390600  1
  C  C3971  1  0.852600  0.905800  0.859400  1
  C  C3972  1  0.397400  0.405800  0.890600  1
  C  C3973  1  0.844200  0.390600  0.352600  1
  C  C3974  1  0.344200  0.359400  0.897400  1
  C  C3975  1  0.405800  0.890600  0.397400  1
  C  C3976  1  0.905800  0.859400  0.852600  1
  C  C3977  1  0.647400  0.140600  0.094200  1
  C  C3978  1  0.102600  0.109400  0.594200  1
  C  C3979  1  0.602600  0.640600  0.655800  1
  C  C3980  1  0.147400  0.609400  0.155800  1
  C  C3981  1  0.594200  0.147400  0.140600  1
  C  C3982  1  0.094200  0.602600  0.109400  1
  C  C3983  1  0.155800  0.102600  0.640600  1
  C  C3984  1  0.655800  0.647400  0.609400  1
  C  C3985  1  0.640600  0.094200  0.147400  1
  C  C3986  1  0.609400  0.594200  0.602600  1
  C  C3987  1  0.140600  0.655800  0.102600  1
  C  C3988  1  0.109400  0.155800  0.647400  1
  C  C3989  1  0.890600  0.897400  0.905800  1
  C  C3990  1  0.859400  0.352600  0.405800  1
  C  C3991  1  0.390600  0.852600  0.344200  1
  C  C3992  1  0.359400  0.397400  0.844200  1
  C  C3993  1  0.897400  0.844200  0.859400  1
  C  C3994  1  0.352600  0.344200  0.890600  1
  C  C3995  1  0.852600  0.405800  0.359400  1
  C  C3996  1  0.397400  0.905800  0.390600  1
  C  C3997  1  0.844200  0.890600  0.852600  1
  C  C3998  1  0.344200  0.859400  0.397400  1
  C  C3999  1  0.405800  0.390600  0.897400  1
  C  C4000  1  0.905800  0.359400  0.352600  1
  C  C4001  1  0.147400  0.640600  0.094200  1
  C  C4002  1  0.602600  0.609400  0.594200  1
  C  C4003  1  0.102600  0.140600  0.655800  1
  C  C4004  1  0.647400  0.109400  0.155800  1
  C  C4005  1  0.094200  0.647400  0.140600  1
  C  C4006  1  0.594200  0.102600  0.109400  1
  C  C4007  1  0.655800  0.602600  0.640600  1
  C  C4008  1  0.155800  0.147400  0.609400  1
  C  C4009  1  0.140600  0.594200  0.147400  1
  C  C4010  1  0.109400  0.094200  0.602600  1
  C  C4011  1  0.640600  0.155800  0.102600  1
  C  C4012  1  0.609400  0.655800  0.647400  1
  C  C4013  1  0.390600  0.397400  0.905800  1
  C  C4014  1  0.359400  0.852600  0.405800  1
  C  C4015  1  0.890600  0.352600  0.344200  1
  C  C4016  1  0.859400  0.897400  0.844200  1
  C  C4017  1  0.397400  0.344200  0.859400  1
  C  C4018  1  0.852600  0.844200  0.890600  1
  C  C4019  1  0.352600  0.905800  0.359400  1
  C  C4020  1  0.897400  0.405800  0.390600  1
  C  C4021  1  0.344200  0.390600  0.852600  1
  C  C4022  1  0.844200  0.359400  0.397400  1
  C  C4023  1  0.905800  0.890600  0.897400  1
  C  C4024  1  0.405800  0.859400  0.352600  1
  C  C4025  1  0.147400  0.140600  0.594200  1
  C  C4026  1  0.602600  0.109400  0.094200  1
  C  C4027  1  0.102600  0.640600  0.155800  1
  C  C4028  1  0.647400  0.609400  0.655800  1
  C  C4029  1  0.094200  0.147400  0.640600  1
  C  C4030  1  0.594200  0.602600  0.609400  1
  C  C4031  1  0.655800  0.102600  0.140600  1
  C  C4032  1  0.155800  0.647400  0.109400  1
  C  C4033  1  0.140600  0.094200  0.647400  1
  C  C4034  1  0.109400  0.594200  0.102600  1
  C  C4035  1  0.640600  0.655800  0.602600  1
  C  C4036  1  0.609400  0.155800  0.147400  1
  C  C4037  1  0.390600  0.897400  0.405800  1
  C  C4038  1  0.359400  0.352600  0.905800  1
  C  C4039  1  0.890600  0.852600  0.844200  1
  C  C4040  1  0.859400  0.397400  0.344200  1
  C  C4041  1  0.397400  0.844200  0.359400  1
  C  C4042  1  0.852600  0.344200  0.390600  1
  C  C4043  1  0.352600  0.405800  0.859400  1
  C  C4044  1  0.897400  0.905800  0.890600  1
  C  C4045  1  0.344200  0.890600  0.352600  1
  C  C4046  1  0.844200  0.859400  0.897400  1
  C  C4047  1  0.905800  0.390600  0.397400  1
  C  C4048  1  0.405800  0.359400  0.852600  1
  C  C4049  1  0.379000  0.348200  0.405500  1
  C  C4050  1  0.871000  0.401800  0.905500  1
  C  C4051  1  0.371000  0.848200  0.844500  1
  C  C4052  1  0.879000  0.901800  0.344500  1
  C  C4053  1  0.405500  0.379000  0.348200  1
  C  C4054  1  0.905500  0.871000  0.401800  1
  C  C4055  1  0.844500  0.371000  0.848200  1
  C  C4056  1  0.344500  0.879000  0.901800  1
  C  C4057  1  0.348200  0.405500  0.379000  1
  C  C4058  1  0.401800  0.905500  0.871000  1
  C  C4059  1  0.848200  0.844500  0.371000  1
  C  C4060  1  0.901800  0.344500  0.879000  1
  C  C4061  1  0.098200  0.629000  0.594500  1
  C  C4062  1  0.151800  0.121000  0.094500  1
  C  C4063  1  0.598200  0.621000  0.155500  1
  C  C4064  1  0.651800  0.129000  0.655500  1
  C  C4065  1  0.129000  0.655500  0.651800  1
  C  C4066  1  0.621000  0.155500  0.598200  1
  C  C4067  1  0.121000  0.094500  0.151800  1
  C  C4068  1  0.629000  0.594500  0.098200  1
  C  C4069  1  0.155500  0.598200  0.621000  1
  C  C4070  1  0.655500  0.651800  0.129000  1
  C  C4071  1  0.594500  0.098200  0.629000  1
  C  C4072  1  0.094500  0.151800  0.121000  1
  C  C4073  1  0.379000  0.848200  0.905500  1
  C  C4074  1  0.871000  0.901800  0.405500  1
  C  C4075  1  0.371000  0.348200  0.344500  1
  C  C4076  1  0.879000  0.401800  0.844500  1
  C  C4077  1  0.405500  0.879000  0.848200  1
  C  C4078  1  0.905500  0.371000  0.901800  1
  C  C4079  1  0.844500  0.871000  0.348200  1
  C  C4080  1  0.344500  0.379000  0.401800  1
  C  C4081  1  0.348200  0.905500  0.879000  1
  C  C4082  1  0.401800  0.405500  0.371000  1
  C  C4083  1  0.848200  0.344500  0.871000  1
  C  C4084  1  0.901800  0.844500  0.379000  1
  C  C4085  1  0.098200  0.129000  0.094500  1
  C  C4086  1  0.151800  0.621000  0.594500  1
  C  C4087  1  0.598200  0.121000  0.655500  1
  C  C4088  1  0.651800  0.629000  0.155500  1
  C  C4089  1  0.129000  0.155500  0.151800  1
  C  C4090  1  0.621000  0.655500  0.098200  1
  C  C4091  1  0.121000  0.594500  0.651800  1
  C  C4092  1  0.629000  0.094500  0.598200  1
  C  C4093  1  0.155500  0.098200  0.121000  1
  C  C4094  1  0.655500  0.151800  0.629000  1
  C  C4095  1  0.594500  0.598200  0.129000  1
  C  C4096  1  0.094500  0.651800  0.621000  1
  C  C4097  1  0.879000  0.348200  0.905500  1
  C  C4098  1  0.371000  0.401800  0.405500  1
  C  C4099  1  0.871000  0.848200  0.344500  1
  C  C4100  1  0.379000  0.901800  0.844500  1
  C  C4101  1  0.905500  0.379000  0.848200  1
  C  C4102  1  0.405500  0.871000  0.901800  1
  C  C4103  1  0.344500  0.371000  0.348200  1
  C  C4104  1  0.844500  0.879000  0.401800  1
  C  C4105  1  0.848200  0.405500  0.879000  1
  C  C4106  1  0.901800  0.905500  0.371000  1
  C  C4107  1  0.348200  0.844500  0.871000  1
  C  C4108  1  0.401800  0.344500  0.379000  1
  C  C4109  1  0.598200  0.629000  0.094500  1
  C  C4110  1  0.651800  0.121000  0.594500  1
  C  C4111  1  0.098200  0.621000  0.655500  1
  C  C4112  1  0.151800  0.129000  0.155500  1
  C  C4113  1  0.629000  0.655500  0.151800  1
  C  C4114  1  0.121000  0.155500  0.098200  1
  C  C4115  1  0.621000  0.094500  0.651800  1
  C  C4116  1  0.129000  0.594500  0.598200  1
  C  C4117  1  0.655500  0.598200  0.121000  1
  C  C4118  1  0.155500  0.651800  0.629000  1
  C  C4119  1  0.094500  0.098200  0.129000  1
  C  C4120  1  0.594500  0.151800  0.621000  1
  C  C4121  1  0.879000  0.848200  0.405500  1
  C  C4122  1  0.371000  0.901800  0.905500  1
  C  C4123  1  0.871000  0.348200  0.844500  1
  C  C4124  1  0.379000  0.401800  0.344500  1
  C  C4125  1  0.905500  0.879000  0.348200  1
  C  C4126  1  0.405500  0.371000  0.401800  1
  C  C4127  1  0.344500  0.871000  0.848200  1
  C  C4128  1  0.844500  0.379000  0.901800  1
  C  C4129  1  0.848200  0.905500  0.379000  1
  C  C4130  1  0.901800  0.405500  0.871000  1
  C  C4131  1  0.348200  0.344500  0.371000  1
  C  C4132  1  0.401800  0.844500  0.879000  1
  C  C4133  1  0.598200  0.129000  0.594500  1
  C  C4134  1  0.651800  0.621000  0.094500  1
  C  C4135  1  0.098200  0.121000  0.155500  1
  C  C4136  1  0.151800  0.629000  0.655500  1
  C  C4137  1  0.629000  0.155500  0.651800  1
  C  C4138  1  0.121000  0.655500  0.598200  1
  C  C4139  1  0.621000  0.594500  0.151800  1
  C  C4140  1  0.129000  0.094500  0.098200  1
  C  C4141  1  0.655500  0.098200  0.621000  1
  C  C4142  1  0.155500  0.151800  0.129000  1
  C  C4143  1  0.094500  0.598200  0.629000  1
  C  C4144  1  0.594500  0.651800  0.121000  1
  C  C4145  1  0.621000  0.651800  0.594500  1
  C  C4146  1  0.129000  0.598200  0.094500  1
  C  C4147  1  0.629000  0.151800  0.155500  1
  C  C4148  1  0.121000  0.098200  0.655500  1
  C  C4149  1  0.594500  0.621000  0.651800  1
  C  C4150  1  0.094500  0.129000  0.598200  1
  C  C4151  1  0.155500  0.629000  0.151800  1
  C  C4152  1  0.655500  0.121000  0.098200  1
  C  C4153  1  0.651800  0.594500  0.621000  1
  C  C4154  1  0.598200  0.094500  0.129000  1
  C  C4155  1  0.151800  0.155500  0.629000  1
  C  C4156  1  0.098200  0.655500  0.121000  1
  C  C4157  1  0.901800  0.371000  0.405500  1
  C  C4158  1  0.848200  0.879000  0.905500  1
  C  C4159  1  0.401800  0.379000  0.844500  1
  C  C4160  1  0.348200  0.871000  0.344500  1
  C  C4161  1  0.871000  0.344500  0.348200  1
  C  C4162  1  0.379000  0.844500  0.401800  1
  C  C4163  1  0.879000  0.905500  0.848200  1
  C  C4164  1  0.371000  0.405500  0.901800  1
  C  C4165  1  0.844500  0.401800  0.379000  1
  C  C4166  1  0.344500  0.348200  0.871000  1
  C  C4167  1  0.405500  0.901800  0.371000  1
  C  C4168  1  0.905500  0.848200  0.879000  1
  C  C4169  1  0.621000  0.151800  0.094500  1
  C  C4170  1  0.129000  0.098200  0.594500  1
  C  C4171  1  0.629000  0.651800  0.655500  1
  C  C4172  1  0.121000  0.598200  0.155500  1
  C  C4173  1  0.594500  0.121000  0.151800  1
  C  C4174  1  0.094500  0.629000  0.098200  1
  C  C4175  1  0.155500  0.129000  0.651800  1
  C  C4176  1  0.655500  0.621000  0.598200  1
  C  C4177  1  0.651800  0.094500  0.121000  1
  C  C4178  1  0.598200  0.594500  0.629000  1
  C  C4179  1  0.151800  0.655500  0.129000  1
  C  C4180  1  0.098200  0.155500  0.621000  1
  C  C4181  1  0.901800  0.871000  0.905500  1
  C  C4182  1  0.848200  0.379000  0.405500  1
  C  C4183  1  0.401800  0.879000  0.344500  1
  C  C4184  1  0.348200  0.371000  0.844500  1
  C  C4185  1  0.871000  0.844500  0.848200  1
  C  C4186  1  0.379000  0.344500  0.901800  1
  C  C4187  1  0.879000  0.405500  0.348200  1
  C  C4188  1  0.371000  0.905500  0.401800  1
  C  C4189  1  0.844500  0.901800  0.879000  1
  C  C4190  1  0.344500  0.848200  0.371000  1
  C  C4191  1  0.405500  0.401800  0.871000  1
  C  C4192  1  0.905500  0.348200  0.379000  1
  C  C4193  1  0.121000  0.651800  0.094500  1
  C  C4194  1  0.629000  0.598200  0.594500  1
  C  C4195  1  0.129000  0.151800  0.655500  1
  C  C4196  1  0.621000  0.098200  0.155500  1
  C  C4197  1  0.094500  0.621000  0.151800  1
  C  C4198  1  0.594500  0.129000  0.098200  1
  C  C4199  1  0.655500  0.629000  0.651800  1
  C  C4200  1  0.155500  0.121000  0.598200  1
  C  C4201  1  0.151800  0.594500  0.121000  1
  C  C4202  1  0.098200  0.094500  0.629000  1
  C  C4203  1  0.651800  0.155500  0.129000  1
  C  C4204  1  0.598200  0.655500  0.621000  1
  C  C4205  1  0.401800  0.371000  0.905500  1
  C  C4206  1  0.348200  0.879000  0.405500  1
  C  C4207  1  0.901800  0.379000  0.344500  1
  C  C4208  1  0.848200  0.871000  0.844500  1
  C  C4209  1  0.371000  0.344500  0.848200  1
  C  C4210  1  0.879000  0.844500  0.901800  1
  C  C4211  1  0.379000  0.905500  0.348200  1
  C  C4212  1  0.871000  0.405500  0.401800  1
  C  C4213  1  0.344500  0.401800  0.879000  1
  C  C4214  1  0.844500  0.348200  0.371000  1
  C  C4215  1  0.905500  0.901800  0.871000  1
  C  C4216  1  0.405500  0.848200  0.379000  1
  C  C4217  1  0.121000  0.151800  0.594500  1
  C  C4218  1  0.629000  0.098200  0.094500  1
  C  C4219  1  0.129000  0.651800  0.155500  1
  C  C4220  1  0.621000  0.598200  0.655500  1
  C  C4221  1  0.094500  0.121000  0.651800  1
  C  C4222  1  0.594500  0.629000  0.598200  1
  C  C4223  1  0.655500  0.129000  0.151800  1
  C  C4224  1  0.155500  0.621000  0.098200  1
  C  C4225  1  0.151800  0.094500  0.621000  1
  C  C4226  1  0.098200  0.594500  0.129000  1
  C  C4227  1  0.651800  0.655500  0.629000  1
  C  C4228  1  0.598200  0.155500  0.121000  1
  C  C4229  1  0.401800  0.871000  0.405500  1
  C  C4230  1  0.348200  0.379000  0.905500  1
  C  C4231  1  0.901800  0.879000  0.844500  1
  C  C4232  1  0.848200  0.371000  0.344500  1
  C  C4233  1  0.371000  0.844500  0.348200  1
  C  C4234  1  0.879000  0.344500  0.401800  1
  C  C4235  1  0.379000  0.405500  0.848200  1
  C  C4236  1  0.871000  0.905500  0.901800  1
  C  C4237  1  0.344500  0.901800  0.379000  1
  C  C4238  1  0.844500  0.848200  0.871000  1
  C  C4239  1  0.905500  0.401800  0.371000  1
  C  C4240  1  0.405500  0.348200  0.879000  1
  C  C4241  1  0.397600  0.369700  0.408000  1
  C  C4242  1  0.852400  0.380300  0.908000  1
  C  C4243  1  0.352400  0.869700  0.842000  1
  C  C4244  1  0.897600  0.880300  0.342000  1
  C  C4245  1  0.408000  0.397600  0.369700  1
  C  C4246  1  0.908000  0.852400  0.380300  1
  C  C4247  1  0.842000  0.352400  0.869700  1
  C  C4248  1  0.342000  0.897600  0.880300  1
  C  C4249  1  0.369700  0.408000  0.397600  1
  C  C4250  1  0.380300  0.908000  0.852400  1
  C  C4251  1  0.869700  0.842000  0.352400  1
  C  C4252  1  0.880300  0.342000  0.897600  1
  C  C4253  1  0.119700  0.647600  0.592000  1
  C  C4254  1  0.130300  0.102400  0.092000  1
  C  C4255  1  0.619700  0.602400  0.158000  1
  C  C4256  1  0.630300  0.147600  0.658000  1
  C  C4257  1  0.147600  0.658000  0.630300  1
  C  C4258  1  0.602400  0.158000  0.619700  1
  C  C4259  1  0.102400  0.092000  0.130300  1
  C  C4260  1  0.647600  0.592000  0.119700  1
  C  C4261  1  0.158000  0.619700  0.602400  1
  C  C4262  1  0.658000  0.630300  0.147600  1
  C  C4263  1  0.592000  0.119700  0.647600  1
  C  C4264  1  0.092000  0.130300  0.102400  1
  C  C4265  1  0.397600  0.869700  0.908000  1
  C  C4266  1  0.852400  0.880300  0.408000  1
  C  C4267  1  0.352400  0.369700  0.342000  1
  C  C4268  1  0.897600  0.380300  0.842000  1
  C  C4269  1  0.408000  0.897600  0.869700  1
  C  C4270  1  0.908000  0.352400  0.880300  1
  C  C4271  1  0.842000  0.852400  0.369700  1
  C  C4272  1  0.342000  0.397600  0.380300  1
  C  C4273  1  0.369700  0.908000  0.897600  1
  C  C4274  1  0.380300  0.408000  0.352400  1
  C  C4275  1  0.869700  0.342000  0.852400  1
  C  C4276  1  0.880300  0.842000  0.397600  1
  C  C4277  1  0.119700  0.147600  0.092000  1
  C  C4278  1  0.130300  0.602400  0.592000  1
  C  C4279  1  0.619700  0.102400  0.658000  1
  C  C4280  1  0.630300  0.647600  0.158000  1
  C  C4281  1  0.147600  0.158000  0.130300  1
  C  C4282  1  0.602400  0.658000  0.119700  1
  C  C4283  1  0.102400  0.592000  0.630300  1
  C  C4284  1  0.647600  0.092000  0.619700  1
  C  C4285  1  0.158000  0.119700  0.102400  1
  C  C4286  1  0.658000  0.130300  0.647600  1
  C  C4287  1  0.592000  0.619700  0.147600  1
  C  C4288  1  0.092000  0.630300  0.602400  1
  C  C4289  1  0.897600  0.369700  0.908000  1
  C  C4290  1  0.352400  0.380300  0.408000  1
  C  C4291  1  0.852400  0.869700  0.342000  1
  C  C4292  1  0.397600  0.880300  0.842000  1
  C  C4293  1  0.908000  0.397600  0.869700  1
  C  C4294  1  0.408000  0.852400  0.880300  1
  C  C4295  1  0.342000  0.352400  0.369700  1
  C  C4296  1  0.842000  0.897600  0.380300  1
  C  C4297  1  0.869700  0.408000  0.897600  1
  C  C4298  1  0.880300  0.908000  0.352400  1
  C  C4299  1  0.369700  0.842000  0.852400  1
  C  C4300  1  0.380300  0.342000  0.397600  1
  C  C4301  1  0.619700  0.647600  0.092000  1
  C  C4302  1  0.630300  0.102400  0.592000  1
  C  C4303  1  0.119700  0.602400  0.658000  1
  C  C4304  1  0.130300  0.147600  0.158000  1
  C  C4305  1  0.647600  0.658000  0.130300  1
  C  C4306  1  0.102400  0.158000  0.119700  1
  C  C4307  1  0.602400  0.092000  0.630300  1
  C  C4308  1  0.147600  0.592000  0.619700  1
  C  C4309  1  0.658000  0.619700  0.102400  1
  C  C4310  1  0.158000  0.630300  0.647600  1
  C  C4311  1  0.092000  0.119700  0.147600  1
  C  C4312  1  0.592000  0.130300  0.602400  1
  C  C4313  1  0.897600  0.869700  0.408000  1
  C  C4314  1  0.352400  0.880300  0.908000  1
  C  C4315  1  0.852400  0.369700  0.842000  1
  C  C4316  1  0.397600  0.380300  0.342000  1
  C  C4317  1  0.908000  0.897600  0.369700  1
  C  C4318  1  0.408000  0.352400  0.380300  1
  C  C4319  1  0.342000  0.852400  0.869700  1
  C  C4320  1  0.842000  0.397600  0.880300  1
  C  C4321  1  0.869700  0.908000  0.397600  1
  C  C4322  1  0.880300  0.408000  0.852400  1
  C  C4323  1  0.369700  0.342000  0.352400  1
  C  C4324  1  0.380300  0.842000  0.897600  1
  C  C4325  1  0.619700  0.147600  0.592000  1
  C  C4326  1  0.630300  0.602400  0.092000  1
  C  C4327  1  0.119700  0.102400  0.158000  1
  C  C4328  1  0.130300  0.647600  0.658000  1
  C  C4329  1  0.647600  0.158000  0.630300  1
  C  C4330  1  0.102400  0.658000  0.619700  1
  C  C4331  1  0.602400  0.592000  0.130300  1
  C  C4332  1  0.147600  0.092000  0.119700  1
  C  C4333  1  0.658000  0.119700  0.602400  1
  C  C4334  1  0.158000  0.130300  0.147600  1
  C  C4335  1  0.092000  0.619700  0.647600  1
  C  C4336  1  0.592000  0.630300  0.102400  1
  C  C4337  1  0.602400  0.630300  0.592000  1
  C  C4338  1  0.147600  0.619700  0.092000  1
  C  C4339  1  0.647600  0.130300  0.158000  1
  C  C4340  1  0.102400  0.119700  0.658000  1
  C  C4341  1  0.592000  0.602400  0.630300  1
  C  C4342  1  0.092000  0.147600  0.619700  1
  C  C4343  1  0.158000  0.647600  0.130300  1
  C  C4344  1  0.658000  0.102400  0.119700  1
  C  C4345  1  0.630300  0.592000  0.602400  1
  C  C4346  1  0.619700  0.092000  0.147600  1
  C  C4347  1  0.130300  0.158000  0.647600  1
  C  C4348  1  0.119700  0.658000  0.102400  1
  C  C4349  1  0.880300  0.352400  0.408000  1
  C  C4350  1  0.869700  0.897600  0.908000  1
  C  C4351  1  0.380300  0.397600  0.842000  1
  C  C4352  1  0.369700  0.852400  0.342000  1
  C  C4353  1  0.852400  0.342000  0.369700  1
  C  C4354  1  0.397600  0.842000  0.380300  1
  C  C4355  1  0.897600  0.908000  0.869700  1
  C  C4356  1  0.352400  0.408000  0.880300  1
  C  C4357  1  0.842000  0.380300  0.397600  1
  C  C4358  1  0.342000  0.369700  0.852400  1
  C  C4359  1  0.408000  0.880300  0.352400  1
  C  C4360  1  0.908000  0.869700  0.897600  1
  C  C4361  1  0.602400  0.130300  0.092000  1
  C  C4362  1  0.147600  0.119700  0.592000  1
  C  C4363  1  0.647600  0.630300  0.658000  1
  C  C4364  1  0.102400  0.619700  0.158000  1
  C  C4365  1  0.592000  0.102400  0.130300  1
  C  C4366  1  0.092000  0.647600  0.119700  1
  C  C4367  1  0.158000  0.147600  0.630300  1
  C  C4368  1  0.658000  0.602400  0.619700  1
  C  C4369  1  0.630300  0.092000  0.102400  1
  C  C4370  1  0.619700  0.592000  0.647600  1
  C  C4371  1  0.130300  0.658000  0.147600  1
  C  C4372  1  0.119700  0.158000  0.602400  1
  C  C4373  1  0.880300  0.852400  0.908000  1
  C  C4374  1  0.869700  0.397600  0.408000  1
  C  C4375  1  0.380300  0.897600  0.342000  1
  C  C4376  1  0.369700  0.352400  0.842000  1
  C  C4377  1  0.852400  0.842000  0.869700  1
  C  C4378  1  0.397600  0.342000  0.880300  1
  C  C4379  1  0.897600  0.408000  0.369700  1
  C  C4380  1  0.352400  0.908000  0.380300  1
  C  C4381  1  0.842000  0.880300  0.897600  1
  C  C4382  1  0.342000  0.869700  0.352400  1
  C  C4383  1  0.408000  0.380300  0.852400  1
  C  C4384  1  0.908000  0.369700  0.397600  1
  C  C4385  1  0.102400  0.630300  0.092000  1
  C  C4386  1  0.647600  0.619700  0.592000  1
  C  C4387  1  0.147600  0.130300  0.658000  1
  C  C4388  1  0.602400  0.119700  0.158000  1
  C  C4389  1  0.092000  0.602400  0.130300  1
  C  C4390  1  0.592000  0.147600  0.119700  1
  C  C4391  1  0.658000  0.647600  0.630300  1
  C  C4392  1  0.158000  0.102400  0.619700  1
  C  C4393  1  0.130300  0.592000  0.102400  1
  C  C4394  1  0.119700  0.092000  0.647600  1
  C  C4395  1  0.630300  0.158000  0.147600  1
  C  C4396  1  0.619700  0.658000  0.602400  1
  C  C4397  1  0.380300  0.352400  0.908000  1
  C  C4398  1  0.369700  0.897600  0.408000  1
  C  C4399  1  0.880300  0.397600  0.342000  1
  C  C4400  1  0.869700  0.852400  0.842000  1
  C  C4401  1  0.352400  0.342000  0.869700  1
  C  C4402  1  0.897600  0.842000  0.880300  1
  C  C4403  1  0.397600  0.908000  0.369700  1
  C  C4404  1  0.852400  0.408000  0.380300  1
  C  C4405  1  0.342000  0.380300  0.897600  1
  C  C4406  1  0.842000  0.369700  0.352400  1
  C  C4407  1  0.908000  0.880300  0.852400  1
  C  C4408  1  0.408000  0.869700  0.397600  1
  C  C4409  1  0.102400  0.130300  0.592000  1
  C  C4410  1  0.647600  0.119700  0.092000  1
  C  C4411  1  0.147600  0.630300  0.158000  1
  C  C4412  1  0.602400  0.619700  0.658000  1
  C  C4413  1  0.092000  0.102400  0.630300  1
  C  C4414  1  0.592000  0.647600  0.619700  1
  C  C4415  1  0.658000  0.147600  0.130300  1
  C  C4416  1  0.158000  0.602400  0.119700  1
  C  C4417  1  0.130300  0.092000  0.602400  1
  C  C4418  1  0.119700  0.592000  0.147600  1
  C  C4419  1  0.630300  0.658000  0.647600  1
  C  C4420  1  0.619700  0.158000  0.102400  1
  C  C4421  1  0.380300  0.852400  0.408000  1
  C  C4422  1  0.369700  0.397600  0.908000  1
  C  C4423  1  0.880300  0.897600  0.842000  1
  C  C4424  1  0.869700  0.352400  0.342000  1
  C  C4425  1  0.352400  0.842000  0.369700  1
  C  C4426  1  0.897600  0.342000  0.380300  1
  C  C4427  1  0.397600  0.408000  0.869700  1
  C  C4428  1  0.852400  0.908000  0.880300  1
  C  C4429  1  0.342000  0.880300  0.397600  1
  C  C4430  1  0.842000  0.869700  0.852400  1
  C  C4431  1  0.908000  0.380300  0.352400  1
  C  C4432  1  0.408000  0.369700  0.897600  1
  C  C4433  1  0.394600  0.421600  0.412500  1
  C  C4434  1  0.855400  0.328400  0.912500  1
  C  C4435  1  0.355400  0.921600  0.837500  1
  C  C4436  1  0.894600  0.828400  0.337500  1
  C  C4437  1  0.412500  0.394600  0.421600  1
  C  C4438  1  0.912500  0.855400  0.328400  1
  C  C4439  1  0.837500  0.355400  0.921600  1
  C  C4440  1  0.337500  0.894600  0.828400  1
  C  C4441  1  0.421600  0.412500  0.394600  1
  C  C4442  1  0.328400  0.912500  0.855400  1
  C  C4443  1  0.921600  0.837500  0.355400  1
  C  C4444  1  0.828400  0.337500  0.894600  1
  C  C4445  1  0.171600  0.644600  0.587500  1
  C  C4446  1  0.078400  0.105400  0.087500  1
  C  C4447  1  0.671600  0.605400  0.162500  1
  C  C4448  1  0.578400  0.144600  0.662500  1
  C  C4449  1  0.144600  0.662500  0.578400  1
  C  C4450  1  0.605400  0.162500  0.671600  1
  C  C4451  1  0.105400  0.087500  0.078400  1
  C  C4452  1  0.644600  0.587500  0.171600  1
  C  C4453  1  0.162500  0.671600  0.605400  1
  C  C4454  1  0.662500  0.578400  0.144600  1
  C  C4455  1  0.587500  0.171600  0.644600  1
  C  C4456  1  0.087500  0.078400  0.105400  1
  C  C4457  1  0.394600  0.921600  0.912500  1
  C  C4458  1  0.855400  0.828400  0.412500  1
  C  C4459  1  0.355400  0.421600  0.337500  1
  C  C4460  1  0.894600  0.328400  0.837500  1
  C  C4461  1  0.412500  0.894600  0.921600  1
  C  C4462  1  0.912500  0.355400  0.828400  1
  C  C4463  1  0.837500  0.855400  0.421600  1
  C  C4464  1  0.337500  0.394600  0.328400  1
  C  C4465  1  0.421600  0.912500  0.894600  1
  C  C4466  1  0.328400  0.412500  0.355400  1
  C  C4467  1  0.921600  0.337500  0.855400  1
  C  C4468  1  0.828400  0.837500  0.394600  1
  C  C4469  1  0.171600  0.144600  0.087500  1
  C  C4470  1  0.078400  0.605400  0.587500  1
  C  C4471  1  0.671600  0.105400  0.662500  1
  C  C4472  1  0.578400  0.644600  0.162500  1
  C  C4473  1  0.144600  0.162500  0.078400  1
  C  C4474  1  0.605400  0.662500  0.171600  1
  C  C4475  1  0.105400  0.587500  0.578400  1
  C  C4476  1  0.644600  0.087500  0.671600  1
  C  C4477  1  0.162500  0.171600  0.105400  1
  C  C4478  1  0.662500  0.078400  0.644600  1
  C  C4479  1  0.587500  0.671600  0.144600  1
  C  C4480  1  0.087500  0.578400  0.605400  1
  C  C4481  1  0.894600  0.421600  0.912500  1
  C  C4482  1  0.355400  0.328400  0.412500  1
  C  C4483  1  0.855400  0.921600  0.337500  1
  C  C4484  1  0.394600  0.828400  0.837500  1
  C  C4485  1  0.912500  0.394600  0.921600  1
  C  C4486  1  0.412500  0.855400  0.828400  1
  C  C4487  1  0.337500  0.355400  0.421600  1
  C  C4488  1  0.837500  0.894600  0.328400  1
  C  C4489  1  0.921600  0.412500  0.894600  1
  C  C4490  1  0.828400  0.912500  0.355400  1
  C  C4491  1  0.421600  0.837500  0.855400  1
  C  C4492  1  0.328400  0.337500  0.394600  1
  C  C4493  1  0.671600  0.644600  0.087500  1
  C  C4494  1  0.578400  0.105400  0.587500  1
  C  C4495  1  0.171600  0.605400  0.662500  1
  C  C4496  1  0.078400  0.144600  0.162500  1
  C  C4497  1  0.644600  0.662500  0.078400  1
  C  C4498  1  0.105400  0.162500  0.171600  1
  C  C4499  1  0.605400  0.087500  0.578400  1
  C  C4500  1  0.144600  0.587500  0.671600  1
  C  C4501  1  0.662500  0.671600  0.105400  1
  C  C4502  1  0.162500  0.578400  0.644600  1
  C  C4503  1  0.087500  0.171600  0.144600  1
  C  C4504  1  0.587500  0.078400  0.605400  1
  C  C4505  1  0.894600  0.921600  0.412500  1
  C  C4506  1  0.355400  0.828400  0.912500  1
  C  C4507  1  0.855400  0.421600  0.837500  1
  C  C4508  1  0.394600  0.328400  0.337500  1
  C  C4509  1  0.912500  0.894600  0.421600  1
  C  C4510  1  0.412500  0.355400  0.328400  1
  C  C4511  1  0.337500  0.855400  0.921600  1
  C  C4512  1  0.837500  0.394600  0.828400  1
  C  C4513  1  0.921600  0.912500  0.394600  1
  C  C4514  1  0.828400  0.412500  0.855400  1
  C  C4515  1  0.421600  0.337500  0.355400  1
  C  C4516  1  0.328400  0.837500  0.894600  1
  C  C4517  1  0.671600  0.144600  0.587500  1
  C  C4518  1  0.578400  0.605400  0.087500  1
  C  C4519  1  0.171600  0.105400  0.162500  1
  C  C4520  1  0.078400  0.644600  0.662500  1
  C  C4521  1  0.644600  0.162500  0.578400  1
  C  C4522  1  0.105400  0.662500  0.671600  1
  C  C4523  1  0.605400  0.587500  0.078400  1
  C  C4524  1  0.144600  0.087500  0.171600  1
  C  C4525  1  0.662500  0.171600  0.605400  1
  C  C4526  1  0.162500  0.078400  0.144600  1
  C  C4527  1  0.087500  0.671600  0.644600  1
  C  C4528  1  0.587500  0.578400  0.105400  1
  C  C4529  1  0.605400  0.578400  0.587500  1
  C  C4530  1  0.144600  0.671600  0.087500  1
  C  C4531  1  0.644600  0.078400  0.162500  1
  C  C4532  1  0.105400  0.171600  0.662500  1
  C  C4533  1  0.587500  0.605400  0.578400  1
  C  C4534  1  0.087500  0.144600  0.671600  1
  C  C4535  1  0.162500  0.644600  0.078400  1
  C  C4536  1  0.662500  0.105400  0.171600  1
  C  C4537  1  0.578400  0.587500  0.605400  1
  C  C4538  1  0.671600  0.087500  0.144600  1
  C  C4539  1  0.078400  0.162500  0.644600  1
  C  C4540  1  0.171600  0.662500  0.105400  1
  C  C4541  1  0.828400  0.355400  0.412500  1
  C  C4542  1  0.921600  0.894600  0.912500  1
  C  C4543  1  0.328400  0.394600  0.837500  1
  C  C4544  1  0.421600  0.855400  0.337500  1
  C  C4545  1  0.855400  0.337500  0.421600  1
  C  C4546  1  0.394600  0.837500  0.328400  1
  C  C4547  1  0.894600  0.912500  0.921600  1
  C  C4548  1  0.355400  0.412500  0.828400  1
  C  C4549  1  0.837500  0.328400  0.394600  1
  C  C4550  1  0.337500  0.421600  0.855400  1
  C  C4551  1  0.412500  0.828400  0.355400  1
  C  C4552  1  0.912500  0.921600  0.894600  1
  C  C4553  1  0.605400  0.078400  0.087500  1
  C  C4554  1  0.144600  0.171600  0.587500  1
  C  C4555  1  0.644600  0.578400  0.662500  1
  C  C4556  1  0.105400  0.671600  0.162500  1
  C  C4557  1  0.587500  0.105400  0.078400  1
  C  C4558  1  0.087500  0.644600  0.171600  1
  C  C4559  1  0.162500  0.144600  0.578400  1
  C  C4560  1  0.662500  0.605400  0.671600  1
  C  C4561  1  0.578400  0.087500  0.105400  1
  C  C4562  1  0.671600  0.587500  0.644600  1
  C  C4563  1  0.078400  0.662500  0.144600  1
  C  C4564  1  0.171600  0.162500  0.605400  1
  C  C4565  1  0.828400  0.855400  0.912500  1
  C  C4566  1  0.921600  0.394600  0.412500  1
  C  C4567  1  0.328400  0.894600  0.337500  1
  C  C4568  1  0.421600  0.355400  0.837500  1
  C  C4569  1  0.855400  0.837500  0.921600  1
  C  C4570  1  0.394600  0.337500  0.828400  1
  C  C4571  1  0.894600  0.412500  0.421600  1
  C  C4572  1  0.355400  0.912500  0.328400  1
  C  C4573  1  0.837500  0.828400  0.894600  1
  C  C4574  1  0.337500  0.921600  0.355400  1
  C  C4575  1  0.412500  0.328400  0.855400  1
  C  C4576  1  0.912500  0.421600  0.394600  1
  C  C4577  1  0.105400  0.578400  0.087500  1
  C  C4578  1  0.644600  0.671600  0.587500  1
  C  C4579  1  0.144600  0.078400  0.662500  1
  C  C4580  1  0.605400  0.171600  0.162500  1
  C  C4581  1  0.087500  0.605400  0.078400  1
  C  C4582  1  0.587500  0.144600  0.171600  1
  C  C4583  1  0.662500  0.644600  0.578400  1
  C  C4584  1  0.162500  0.105400  0.671600  1
  C  C4585  1  0.078400  0.587500  0.105400  1
  C  C4586  1  0.171600  0.087500  0.644600  1
  C  C4587  1  0.578400  0.162500  0.144600  1
  C  C4588  1  0.671600  0.662500  0.605400  1
  C  C4589  1  0.328400  0.355400  0.912500  1
  C  C4590  1  0.421600  0.894600  0.412500  1
  C  C4591  1  0.828400  0.394600  0.337500  1
  C  C4592  1  0.921600  0.855400  0.837500  1
  C  C4593  1  0.355400  0.337500  0.921600  1
  C  C4594  1  0.894600  0.837500  0.828400  1
  C  C4595  1  0.394600  0.912500  0.421600  1
  C  C4596  1  0.855400  0.412500  0.328400  1
  C  C4597  1  0.337500  0.328400  0.894600  1
  C  C4598  1  0.837500  0.421600  0.355400  1
  C  C4599  1  0.912500  0.828400  0.855400  1
  C  C4600  1  0.412500  0.921600  0.394600  1
  C  C4601  1  0.105400  0.078400  0.587500  1
  C  C4602  1  0.644600  0.171600  0.087500  1
  C  C4603  1  0.144600  0.578400  0.162500  1
  C  C4604  1  0.605400  0.671600  0.662500  1
  C  C4605  1  0.087500  0.105400  0.578400  1
  C  C4606  1  0.587500  0.644600  0.671600  1
  C  C4607  1  0.662500  0.144600  0.078400  1
  C  C4608  1  0.162500  0.605400  0.171600  1
  C  C4609  1  0.078400  0.087500  0.605400  1
  C  C4610  1  0.171600  0.587500  0.144600  1
  C  C4611  1  0.578400  0.662500  0.644600  1
  C  C4612  1  0.671600  0.162500  0.105400  1
  C  C4613  1  0.328400  0.855400  0.412500  1
  C  C4614  1  0.421600  0.394600  0.912500  1
  C  C4615  1  0.828400  0.894600  0.837500  1
  C  C4616  1  0.921600  0.355400  0.337500  1
  C  C4617  1  0.355400  0.837500  0.421600  1
  C  C4618  1  0.894600  0.337500  0.328400  1
  C  C4619  1  0.394600  0.412500  0.921600  1
  C  C4620  1  0.855400  0.912500  0.828400  1
  C  C4621  1  0.337500  0.828400  0.394600  1
  C  C4622  1  0.837500  0.921600  0.855400  1
  C  C4623  1  0.912500  0.328400  0.355400  1
  C  C4624  1  0.412500  0.421600  0.894600  1
  C  C4625  1  0.332400  0.406900  0.410900  1
  C  C4626  1  0.917600  0.343100  0.910900  1
  C  C4627  1  0.417600  0.906900  0.839100  1
  C  C4628  1  0.832400  0.843100  0.339100  1
  C  C4629  1  0.410900  0.332400  0.406900  1
  C  C4630  1  0.910900  0.917600  0.343100  1
  C  C4631  1  0.839100  0.417600  0.906900  1
  C  C4632  1  0.339100  0.832400  0.843100  1
  C  C4633  1  0.406900  0.410900  0.332400  1
  C  C4634  1  0.343100  0.910900  0.917600  1
  C  C4635  1  0.906900  0.839100  0.417600  1
  C  C4636  1  0.843100  0.339100  0.832400  1
  C  C4637  1  0.156900  0.582400  0.589100  1
  C  C4638  1  0.093100  0.167600  0.089100  1
  C  C4639  1  0.656900  0.667600  0.160900  1
  C  C4640  1  0.593100  0.082400  0.660900  1
  C  C4641  1  0.082400  0.660900  0.593100  1
  C  C4642  1  0.667600  0.160900  0.656900  1
  C  C4643  1  0.167600  0.089100  0.093100  1
  C  C4644  1  0.582400  0.589100  0.156900  1
  C  C4645  1  0.160900  0.656900  0.667600  1
  C  C4646  1  0.660900  0.593100  0.082400  1
  C  C4647  1  0.589100  0.156900  0.582400  1
  C  C4648  1  0.089100  0.093100  0.167600  1
  C  C4649  1  0.332400  0.906900  0.910900  1
  C  C4650  1  0.917600  0.843100  0.410900  1
  C  C4651  1  0.417600  0.406900  0.339100  1
  C  C4652  1  0.832400  0.343100  0.839100  1
  C  C4653  1  0.410900  0.832400  0.906900  1
  C  C4654  1  0.910900  0.417600  0.843100  1
  C  C4655  1  0.839100  0.917600  0.406900  1
  C  C4656  1  0.339100  0.332400  0.343100  1
  C  C4657  1  0.406900  0.910900  0.832400  1
  C  C4658  1  0.343100  0.410900  0.417600  1
  C  C4659  1  0.906900  0.339100  0.917600  1
  C  C4660  1  0.843100  0.839100  0.332400  1
  C  C4661  1  0.156900  0.082400  0.089100  1
  C  C4662  1  0.093100  0.667600  0.589100  1
  C  C4663  1  0.656900  0.167600  0.660900  1
  C  C4664  1  0.593100  0.582400  0.160900  1
  C  C4665  1  0.082400  0.160900  0.093100  1
  C  C4666  1  0.667600  0.660900  0.156900  1
  C  C4667  1  0.167600  0.589100  0.593100  1
  C  C4668  1  0.582400  0.089100  0.656900  1
  C  C4669  1  0.160900  0.156900  0.167600  1
  C  C4670  1  0.660900  0.093100  0.582400  1
  C  C4671  1  0.589100  0.656900  0.082400  1
  C  C4672  1  0.089100  0.593100  0.667600  1
  C  C4673  1  0.832400  0.406900  0.910900  1
  C  C4674  1  0.417600  0.343100  0.410900  1
  C  C4675  1  0.917600  0.906900  0.339100  1
  C  C4676  1  0.332400  0.843100  0.839100  1
  C  C4677  1  0.910900  0.332400  0.906900  1
  C  C4678  1  0.410900  0.917600  0.843100  1
  C  C4679  1  0.339100  0.417600  0.406900  1
  C  C4680  1  0.839100  0.832400  0.343100  1
  C  C4681  1  0.906900  0.410900  0.832400  1
  C  C4682  1  0.843100  0.910900  0.417600  1
  C  C4683  1  0.406900  0.839100  0.917600  1
  C  C4684  1  0.343100  0.339100  0.332400  1
  C  C4685  1  0.656900  0.582400  0.089100  1
  C  C4686  1  0.593100  0.167600  0.589100  1
  C  C4687  1  0.156900  0.667600  0.660900  1
  C  C4688  1  0.093100  0.082400  0.160900  1
  C  C4689  1  0.582400  0.660900  0.093100  1
  C  C4690  1  0.167600  0.160900  0.156900  1
  C  C4691  1  0.667600  0.089100  0.593100  1
  C  C4692  1  0.082400  0.589100  0.656900  1
  C  C4693  1  0.660900  0.656900  0.167600  1
  C  C4694  1  0.160900  0.593100  0.582400  1
  C  C4695  1  0.089100  0.156900  0.082400  1
  C  C4696  1  0.589100  0.093100  0.667600  1
  C  C4697  1  0.832400  0.906900  0.410900  1
  C  C4698  1  0.417600  0.843100  0.910900  1
  C  C4699  1  0.917600  0.406900  0.839100  1
  C  C4700  1  0.332400  0.343100  0.339100  1
  C  C4701  1  0.910900  0.832400  0.406900  1
  C  C4702  1  0.410900  0.417600  0.343100  1
  C  C4703  1  0.339100  0.917600  0.906900  1
  C  C4704  1  0.839100  0.332400  0.843100  1
  C  C4705  1  0.906900  0.910900  0.332400  1
  C  C4706  1  0.843100  0.410900  0.917600  1
  C  C4707  1  0.406900  0.339100  0.417600  1
  C  C4708  1  0.343100  0.839100  0.832400  1
  C  C4709  1  0.656900  0.082400  0.589100  1
  C  C4710  1  0.593100  0.667600  0.089100  1
  C  C4711  1  0.156900  0.167600  0.160900  1
  C  C4712  1  0.093100  0.582400  0.660900  1
  C  C4713  1  0.582400  0.160900  0.593100  1
  C  C4714  1  0.167600  0.660900  0.656900  1
  C  C4715  1  0.667600  0.589100  0.093100  1
  C  C4716  1  0.082400  0.089100  0.156900  1
  C  C4717  1  0.660900  0.156900  0.667600  1
  C  C4718  1  0.160900  0.093100  0.082400  1
  C  C4719  1  0.089100  0.656900  0.582400  1
  C  C4720  1  0.589100  0.593100  0.167600  1
  C  C4721  1  0.667600  0.593100  0.589100  1
  C  C4722  1  0.082400  0.656900  0.089100  1
  C  C4723  1  0.582400  0.093100  0.160900  1
  C  C4724  1  0.167600  0.156900  0.660900  1
  C  C4725  1  0.589100  0.667600  0.593100  1
  C  C4726  1  0.089100  0.082400  0.656900  1
  C  C4727  1  0.160900  0.582400  0.093100  1
  C  C4728  1  0.660900  0.167600  0.156900  1
  C  C4729  1  0.593100  0.589100  0.667600  1
  C  C4730  1  0.656900  0.089100  0.082400  1
  C  C4731  1  0.093100  0.160900  0.582400  1
  C  C4732  1  0.156900  0.660900  0.167600  1
  C  C4733  1  0.843100  0.417600  0.410900  1
  C  C4734  1  0.906900  0.832400  0.910900  1
  C  C4735  1  0.343100  0.332400  0.839100  1
  C  C4736  1  0.406900  0.917600  0.339100  1
  C  C4737  1  0.917600  0.339100  0.406900  1
  C  C4738  1  0.332400  0.839100  0.343100  1
  C  C4739  1  0.832400  0.910900  0.906900  1
  C  C4740  1  0.417600  0.410900  0.843100  1
  C  C4741  1  0.839100  0.343100  0.332400  1
  C  C4742  1  0.339100  0.406900  0.917600  1
  C  C4743  1  0.410900  0.843100  0.417600  1
  C  C4744  1  0.910900  0.906900  0.832400  1
  C  C4745  1  0.667600  0.093100  0.089100  1
  C  C4746  1  0.082400  0.156900  0.589100  1
  C  C4747  1  0.582400  0.593100  0.660900  1
  C  C4748  1  0.167600  0.656900  0.160900  1
  C  C4749  1  0.589100  0.167600  0.093100  1
  C  C4750  1  0.089100  0.582400  0.156900  1
  C  C4751  1  0.160900  0.082400  0.593100  1
  C  C4752  1  0.660900  0.667600  0.656900  1
  C  C4753  1  0.593100  0.089100  0.167600  1
  C  C4754  1  0.656900  0.589100  0.582400  1
  C  C4755  1  0.093100  0.660900  0.082400  1
  C  C4756  1  0.156900  0.160900  0.667600  1
  C  C4757  1  0.843100  0.917600  0.910900  1
  C  C4758  1  0.906900  0.332400  0.410900  1
  C  C4759  1  0.343100  0.832400  0.339100  1
  C  C4760  1  0.406900  0.417600  0.839100  1
  C  C4761  1  0.917600  0.839100  0.906900  1
  C  C4762  1  0.332400  0.339100  0.843100  1
  C  C4763  1  0.832400  0.410900  0.406900  1
  C  C4764  1  0.417600  0.910900  0.343100  1
  C  C4765  1  0.839100  0.843100  0.832400  1
  C  C4766  1  0.339100  0.906900  0.417600  1
  C  C4767  1  0.410900  0.343100  0.917600  1
  C  C4768  1  0.910900  0.406900  0.332400  1
  C  C4769  1  0.167600  0.593100  0.089100  1
  C  C4770  1  0.582400  0.656900  0.589100  1
  C  C4771  1  0.082400  0.093100  0.660900  1
  C  C4772  1  0.667600  0.156900  0.160900  1
  C  C4773  1  0.089100  0.667600  0.093100  1
  C  C4774  1  0.589100  0.082400  0.156900  1
  C  C4775  1  0.660900  0.582400  0.593100  1
  C  C4776  1  0.160900  0.167600  0.656900  1
  C  C4777  1  0.093100  0.589100  0.167600  1
  C  C4778  1  0.156900  0.089100  0.582400  1
  C  C4779  1  0.593100  0.160900  0.082400  1
  C  C4780  1  0.656900  0.660900  0.667600  1
  C  C4781  1  0.343100  0.417600  0.910900  1
  C  C4782  1  0.406900  0.832400  0.410900  1
  C  C4783  1  0.843100  0.332400  0.339100  1
  C  C4784  1  0.906900  0.917600  0.839100  1
  C  C4785  1  0.417600  0.339100  0.906900  1
  C  C4786  1  0.832400  0.839100  0.843100  1
  C  C4787  1  0.332400  0.910900  0.406900  1
  C  C4788  1  0.917600  0.410900  0.343100  1
  C  C4789  1  0.339100  0.343100  0.832400  1
  C  C4790  1  0.839100  0.406900  0.417600  1
  C  C4791  1  0.910900  0.843100  0.917600  1
  C  C4792  1  0.410900  0.906900  0.332400  1
  C  C4793  1  0.167600  0.093100  0.589100  1
  C  C4794  1  0.582400  0.156900  0.089100  1
  C  C4795  1  0.082400  0.593100  0.160900  1
  C  C4796  1  0.667600  0.656900  0.660900  1
  C  C4797  1  0.089100  0.167600  0.593100  1
  C  C4798  1  0.589100  0.582400  0.656900  1
  C  C4799  1  0.660900  0.082400  0.093100  1
  C  C4800  1  0.160900  0.667600  0.156900  1
  C  C4801  1  0.093100  0.089100  0.667600  1
  C  C4802  1  0.156900  0.589100  0.082400  1
  C  C4803  1  0.593100  0.660900  0.582400  1
  C  C4804  1  0.656900  0.160900  0.167600  1
  C  C4805  1  0.343100  0.917600  0.410900  1
  C  C4806  1  0.406900  0.332400  0.910900  1
  C  C4807  1  0.843100  0.832400  0.839100  1
  C  C4808  1  0.906900  0.417600  0.339100  1
  C  C4809  1  0.417600  0.839100  0.406900  1
  C  C4810  1  0.832400  0.339100  0.343100  1
  C  C4811  1  0.332400  0.410900  0.906900  1
  C  C4812  1  0.917600  0.910900  0.843100  1
  C  C4813  1  0.339100  0.843100  0.332400  1
  C  C4814  1  0.839100  0.906900  0.917600  1
  C  C4815  1  0.910900  0.343100  0.417600  1
  C  C4816  1  0.410900  0.406900  0.832400  1
  C  C4817  1  0.327100  0.344100  0.405200  1
  C  C4818  1  0.922900  0.405900  0.905200  1
  C  C4819  1  0.422900  0.844100  0.844800  1
  C  C4820  1  0.827100  0.905900  0.344800  1
  C  C4821  1  0.405200  0.327100  0.344100  1
  C  C4822  1  0.905200  0.922900  0.405900  1
  C  C4823  1  0.844800  0.422900  0.844100  1
  C  C4824  1  0.344800  0.827100  0.905900  1
  C  C4825  1  0.344100  0.405200  0.327100  1
  C  C4826  1  0.405900  0.905200  0.922900  1
  C  C4827  1  0.844100  0.844800  0.422900  1
  C  C4828  1  0.905900  0.344800  0.827100  1
  C  C4829  1  0.094100  0.577100  0.594800  1
  C  C4830  1  0.155900  0.172900  0.094800  1
  C  C4831  1  0.594100  0.672900  0.155200  1
  C  C4832  1  0.655900  0.077100  0.655200  1
  C  C4833  1  0.077100  0.655200  0.655900  1
  C  C4834  1  0.672900  0.155200  0.594100  1
  C  C4835  1  0.172900  0.094800  0.155900  1
  C  C4836  1  0.577100  0.594800  0.094100  1
  C  C4837  1  0.155200  0.594100  0.672900  1
  C  C4838  1  0.655200  0.655900  0.077100  1
  C  C4839  1  0.594800  0.094100  0.577100  1
  C  C4840  1  0.094800  0.155900  0.172900  1
  C  C4841  1  0.327100  0.844100  0.905200  1
  C  C4842  1  0.922900  0.905900  0.405200  1
  C  C4843  1  0.422900  0.344100  0.344800  1
  C  C4844  1  0.827100  0.405900  0.844800  1
  C  C4845  1  0.405200  0.827100  0.844100  1
  C  C4846  1  0.905200  0.422900  0.905900  1
  C  C4847  1  0.844800  0.922900  0.344100  1
  C  C4848  1  0.344800  0.327100  0.405900  1
  C  C4849  1  0.344100  0.905200  0.827100  1
  C  C4850  1  0.405900  0.405200  0.422900  1
  C  C4851  1  0.844100  0.344800  0.922900  1
  C  C4852  1  0.905900  0.844800  0.327100  1
  C  C4853  1  0.094100  0.077100  0.094800  1
  C  C4854  1  0.155900  0.672900  0.594800  1
  C  C4855  1  0.594100  0.172900  0.655200  1
  C  C4856  1  0.655900  0.577100  0.155200  1
  C  C4857  1  0.077100  0.155200  0.155900  1
  C  C4858  1  0.672900  0.655200  0.094100  1
  C  C4859  1  0.172900  0.594800  0.655900  1
  C  C4860  1  0.577100  0.094800  0.594100  1
  C  C4861  1  0.155200  0.094100  0.172900  1
  C  C4862  1  0.655200  0.155900  0.577100  1
  C  C4863  1  0.594800  0.594100  0.077100  1
  C  C4864  1  0.094800  0.655900  0.672900  1
  C  C4865  1  0.827100  0.344100  0.905200  1
  C  C4866  1  0.422900  0.405900  0.405200  1
  C  C4867  1  0.922900  0.844100  0.344800  1
  C  C4868  1  0.327100  0.905900  0.844800  1
  C  C4869  1  0.905200  0.327100  0.844100  1
  C  C4870  1  0.405200  0.922900  0.905900  1
  C  C4871  1  0.344800  0.422900  0.344100  1
  C  C4872  1  0.844800  0.827100  0.405900  1
  C  C4873  1  0.844100  0.405200  0.827100  1
  C  C4874  1  0.905900  0.905200  0.422900  1
  C  C4875  1  0.344100  0.844800  0.922900  1
  C  C4876  1  0.405900  0.344800  0.327100  1
  C  C4877  1  0.594100  0.577100  0.094800  1
  C  C4878  1  0.655900  0.172900  0.594800  1
  C  C4879  1  0.094100  0.672900  0.655200  1
  C  C4880  1  0.155900  0.077100  0.155200  1
  C  C4881  1  0.577100  0.655200  0.155900  1
  C  C4882  1  0.172900  0.155200  0.094100  1
  C  C4883  1  0.672900  0.094800  0.655900  1
  C  C4884  1  0.077100  0.594800  0.594100  1
  C  C4885  1  0.655200  0.594100  0.172900  1
  C  C4886  1  0.155200  0.655900  0.577100  1
  C  C4887  1  0.094800  0.094100  0.077100  1
  C  C4888  1  0.594800  0.155900  0.672900  1
  C  C4889  1  0.827100  0.844100  0.405200  1
  C  C4890  1  0.422900  0.905900  0.905200  1
  C  C4891  1  0.922900  0.344100  0.844800  1
  C  C4892  1  0.327100  0.405900  0.344800  1
  C  C4893  1  0.905200  0.827100  0.344100  1
  C  C4894  1  0.405200  0.422900  0.405900  1
  C  C4895  1  0.344800  0.922900  0.844100  1
  C  C4896  1  0.844800  0.327100  0.905900  1
  C  C4897  1  0.844100  0.905200  0.327100  1
  C  C4898  1  0.905900  0.405200  0.922900  1
  C  C4899  1  0.344100  0.344800  0.422900  1
  C  C4900  1  0.405900  0.844800  0.827100  1
  C  C4901  1  0.594100  0.077100  0.594800  1
  C  C4902  1  0.655900  0.672900  0.094800  1
  C  C4903  1  0.094100  0.172900  0.155200  1
  C  C4904  1  0.155900  0.577100  0.655200  1
  C  C4905  1  0.577100  0.155200  0.655900  1
  C  C4906  1  0.172900  0.655200  0.594100  1
  C  C4907  1  0.672900  0.594800  0.155900  1
  C  C4908  1  0.077100  0.094800  0.094100  1
  C  C4909  1  0.655200  0.094100  0.672900  1
  C  C4910  1  0.155200  0.155900  0.077100  1
  C  C4911  1  0.094800  0.594100  0.577100  1
  C  C4912  1  0.594800  0.655900  0.172900  1
  C  C4913  1  0.672900  0.655900  0.594800  1
  C  C4914  1  0.077100  0.594100  0.094800  1
  C  C4915  1  0.577100  0.155900  0.155200  1
  C  C4916  1  0.172900  0.094100  0.655200  1
  C  C4917  1  0.594800  0.672900  0.655900  1
  C  C4918  1  0.094800  0.077100  0.594100  1
  C  C4919  1  0.155200  0.577100  0.155900  1
  C  C4920  1  0.655200  0.172900  0.094100  1
  C  C4921  1  0.655900  0.594800  0.672900  1
  C  C4922  1  0.594100  0.094800  0.077100  1
  C  C4923  1  0.155900  0.155200  0.577100  1
  C  C4924  1  0.094100  0.655200  0.172900  1
  C  C4925  1  0.905900  0.422900  0.405200  1
  C  C4926  1  0.844100  0.827100  0.905200  1
  C  C4927  1  0.405900  0.327100  0.844800  1
  C  C4928  1  0.344100  0.922900  0.344800  1
  C  C4929  1  0.922900  0.344800  0.344100  1
  C  C4930  1  0.327100  0.844800  0.405900  1
  C  C4931  1  0.827100  0.905200  0.844100  1
  C  C4932  1  0.422900  0.405200  0.905900  1
  C  C4933  1  0.844800  0.405900  0.327100  1
  C  C4934  1  0.344800  0.344100  0.922900  1
  C  C4935  1  0.405200  0.905900  0.422900  1
  C  C4936  1  0.905200  0.844100  0.827100  1
  C  C4937  1  0.672900  0.155900  0.094800  1
  C  C4938  1  0.077100  0.094100  0.594800  1
  C  C4939  1  0.577100  0.655900  0.655200  1
  C  C4940  1  0.172900  0.594100  0.155200  1
  C  C4941  1  0.594800  0.172900  0.155900  1
  C  C4942  1  0.094800  0.577100  0.094100  1
  C  C4943  1  0.155200  0.077100  0.655900  1
  C  C4944  1  0.655200  0.672900  0.594100  1
  C  C4945  1  0.655900  0.094800  0.172900  1
  C  C4946  1  0.594100  0.594800  0.577100  1
  C  C4947  1  0.155900  0.655200  0.077100  1
  C  C4948  1  0.094100  0.155200  0.672900  1
  C  C4949  1  0.905900  0.922900  0.905200  1
  C  C4950  1  0.844100  0.327100  0.405200  1
  C  C4951  1  0.405900  0.827100  0.344800  1
  C  C4952  1  0.344100  0.422900  0.844800  1
  C  C4953  1  0.922900  0.844800  0.844100  1
  C  C4954  1  0.327100  0.344800  0.905900  1
  C  C4955  1  0.827100  0.405200  0.344100  1
  C  C4956  1  0.422900  0.905200  0.405900  1
  C  C4957  1  0.844800  0.905900  0.827100  1
  C  C4958  1  0.344800  0.844100  0.422900  1
  C  C4959  1  0.405200  0.405900  0.922900  1
  C  C4960  1  0.905200  0.344100  0.327100  1
  C  C4961  1  0.172900  0.655900  0.094800  1
  C  C4962  1  0.577100  0.594100  0.594800  1
  C  C4963  1  0.077100  0.155900  0.655200  1
  C  C4964  1  0.672900  0.094100  0.155200  1
  C  C4965  1  0.094800  0.672900  0.155900  1
  C  C4966  1  0.594800  0.077100  0.094100  1
  C  C4967  1  0.655200  0.577100  0.655900  1
  C  C4968  1  0.155200  0.172900  0.594100  1
  C  C4969  1  0.155900  0.594800  0.172900  1
  C  C4970  1  0.094100  0.094800  0.577100  1
  C  C4971  1  0.655900  0.155200  0.077100  1
  C  C4972  1  0.594100  0.655200  0.672900  1
  C  C4973  1  0.405900  0.422900  0.905200  1
  C  C4974  1  0.344100  0.827100  0.405200  1
  C  C4975  1  0.905900  0.327100  0.344800  1
  C  C4976  1  0.844100  0.922900  0.844800  1
  C  C4977  1  0.422900  0.344800  0.844100  1
  C  C4978  1  0.827100  0.844800  0.905900  1
  C  C4979  1  0.327100  0.905200  0.344100  1
  C  C4980  1  0.922900  0.405200  0.405900  1
  C  C4981  1  0.344800  0.405900  0.827100  1
  C  C4982  1  0.844800  0.344100  0.422900  1
  C  C4983  1  0.905200  0.905900  0.922900  1
  C  C4984  1  0.405200  0.844100  0.327100  1
  C  C4985  1  0.172900  0.155900  0.594800  1
  C  C4986  1  0.577100  0.094100  0.094800  1
  C  C4987  1  0.077100  0.655900  0.155200  1
  C  C4988  1  0.672900  0.594100  0.655200  1
  C  C4989  1  0.094800  0.172900  0.655900  1
  C  C4990  1  0.594800  0.577100  0.594100  1
  C  C4991  1  0.655200  0.077100  0.155900  1
  C  C4992  1  0.155200  0.672900  0.094100  1
  C  C4993  1  0.155900  0.094800  0.672900  1
  C  C4994  1  0.094100  0.594800  0.077100  1
  C  C4995  1  0.655900  0.655200  0.577100  1
  C  C4996  1  0.594100  0.155200  0.172900  1
  C  C4997  1  0.405900  0.922900  0.405200  1
  C  C4998  1  0.344100  0.327100  0.905200  1
  C  C4999  1  0.905900  0.827100  0.844800  1
  C  C5000  1  0.844100  0.422900  0.344800  1
  C  C5001  1  0.422900  0.844800  0.344100  1
  C  C5002  1  0.827100  0.344800  0.405900  1
  C  C5003  1  0.327100  0.405200  0.844100  1
  C  C5004  1  0.922900  0.905200  0.905900  1
  C  C5005  1  0.344800  0.905900  0.327100  1
  C  C5006  1  0.844800  0.844100  0.922900  1
  C  C5007  1  0.905200  0.405900  0.422900  1
  C  C5008  1  0.405200  0.344100  0.827100  1
  C  C5009  1  0.385800  0.319200  0.403300  1
  C  C5010  1  0.864200  0.430800  0.903300  1
  C  C5011  1  0.364200  0.819200  0.846700  1
  C  C5012  1  0.885800  0.930800  0.346700  1
  C  C5013  1  0.403300  0.385800  0.319200  1
  C  C5014  1  0.903300  0.864200  0.430800  1
  C  C5015  1  0.846700  0.364200  0.819200  1
  C  C5016  1  0.346700  0.885800  0.930800  1
  C  C5017  1  0.319200  0.403300  0.385800  1
  C  C5018  1  0.430800  0.903300  0.864200  1
  C  C5019  1  0.819200  0.846700  0.364200  1
  C  C5020  1  0.930800  0.346700  0.885800  1
  C  C5021  1  0.069200  0.635800  0.596700  1
  C  C5022  1  0.180800  0.114200  0.096700  1
  C  C5023  1  0.569200  0.614200  0.153300  1
  C  C5024  1  0.680800  0.135800  0.653300  1
  C  C5025  1  0.135800  0.653300  0.680800  1
  C  C5026  1  0.614200  0.153300  0.569200  1
  C  C5027  1  0.114200  0.096700  0.180800  1
  C  C5028  1  0.635800  0.596700  0.069200  1
  C  C5029  1  0.153300  0.569200  0.614200  1
  C  C5030  1  0.653300  0.680800  0.135800  1
  C  C5031  1  0.596700  0.069200  0.635800  1
  C  C5032  1  0.096700  0.180800  0.114200  1
  C  C5033  1  0.385800  0.819200  0.903300  1
  C  C5034  1  0.864200  0.930800  0.403300  1
  C  C5035  1  0.364200  0.319200  0.346700  1
  C  C5036  1  0.885800  0.430800  0.846700  1
  C  C5037  1  0.403300  0.885800  0.819200  1
  C  C5038  1  0.903300  0.364200  0.930800  1
  C  C5039  1  0.846700  0.864200  0.319200  1
  C  C5040  1  0.346700  0.385800  0.430800  1
  C  C5041  1  0.319200  0.903300  0.885800  1
  C  C5042  1  0.430800  0.403300  0.364200  1
  C  C5043  1  0.819200  0.346700  0.864200  1
  C  C5044  1  0.930800  0.846700  0.385800  1
  C  C5045  1  0.069200  0.135800  0.096700  1
  C  C5046  1  0.180800  0.614200  0.596700  1
  C  C5047  1  0.569200  0.114200  0.653300  1
  C  C5048  1  0.680800  0.635800  0.153300  1
  C  C5049  1  0.135800  0.153300  0.180800  1
  C  C5050  1  0.614200  0.653300  0.069200  1
  C  C5051  1  0.114200  0.596700  0.680800  1
  C  C5052  1  0.635800  0.096700  0.569200  1
  C  C5053  1  0.153300  0.069200  0.114200  1
  C  C5054  1  0.653300  0.180800  0.635800  1
  C  C5055  1  0.596700  0.569200  0.135800  1
  C  C5056  1  0.096700  0.680800  0.614200  1
  C  C5057  1  0.885800  0.319200  0.903300  1
  C  C5058  1  0.364200  0.430800  0.403300  1
  C  C5059  1  0.864200  0.819200  0.346700  1
  C  C5060  1  0.385800  0.930800  0.846700  1
  C  C5061  1  0.903300  0.385800  0.819200  1
  C  C5062  1  0.403300  0.864200  0.930800  1
  C  C5063  1  0.346700  0.364200  0.319200  1
  C  C5064  1  0.846700  0.885800  0.430800  1
  C  C5065  1  0.819200  0.403300  0.885800  1
  C  C5066  1  0.930800  0.903300  0.364200  1
  C  C5067  1  0.319200  0.846700  0.864200  1
  C  C5068  1  0.430800  0.346700  0.385800  1
  C  C5069  1  0.569200  0.635800  0.096700  1
  C  C5070  1  0.680800  0.114200  0.596700  1
  C  C5071  1  0.069200  0.614200  0.653300  1
  C  C5072  1  0.180800  0.135800  0.153300  1
  C  C5073  1  0.635800  0.653300  0.180800  1
  C  C5074  1  0.114200  0.153300  0.069200  1
  C  C5075  1  0.614200  0.096700  0.680800  1
  C  C5076  1  0.135800  0.596700  0.569200  1
  C  C5077  1  0.653300  0.569200  0.114200  1
  C  C5078  1  0.153300  0.680800  0.635800  1
  C  C5079  1  0.096700  0.069200  0.135800  1
  C  C5080  1  0.596700  0.180800  0.614200  1
  C  C5081  1  0.885800  0.819200  0.403300  1
  C  C5082  1  0.364200  0.930800  0.903300  1
  C  C5083  1  0.864200  0.319200  0.846700  1
  C  C5084  1  0.385800  0.430800  0.346700  1
  C  C5085  1  0.903300  0.885800  0.319200  1
  C  C5086  1  0.403300  0.364200  0.430800  1
  C  C5087  1  0.346700  0.864200  0.819200  1
  C  C5088  1  0.846700  0.385800  0.930800  1
  C  C5089  1  0.819200  0.903300  0.385800  1
  C  C5090  1  0.930800  0.403300  0.864200  1
  C  C5091  1  0.319200  0.346700  0.364200  1
  C  C5092  1  0.430800  0.846700  0.885800  1
  C  C5093  1  0.569200  0.135800  0.596700  1
  C  C5094  1  0.680800  0.614200  0.096700  1
  C  C5095  1  0.069200  0.114200  0.153300  1
  C  C5096  1  0.180800  0.635800  0.653300  1
  C  C5097  1  0.635800  0.153300  0.680800  1
  C  C5098  1  0.114200  0.653300  0.569200  1
  C  C5099  1  0.614200  0.596700  0.180800  1
  C  C5100  1  0.135800  0.096700  0.069200  1
  C  C5101  1  0.653300  0.069200  0.614200  1
  C  C5102  1  0.153300  0.180800  0.135800  1
  C  C5103  1  0.096700  0.569200  0.635800  1
  C  C5104  1  0.596700  0.680800  0.114200  1
  C  C5105  1  0.614200  0.680800  0.596700  1
  C  C5106  1  0.135800  0.569200  0.096700  1
  C  C5107  1  0.635800  0.180800  0.153300  1
  C  C5108  1  0.114200  0.069200  0.653300  1
  C  C5109  1  0.596700  0.614200  0.680800  1
  C  C5110  1  0.096700  0.135800  0.569200  1
  C  C5111  1  0.153300  0.635800  0.180800  1
  C  C5112  1  0.653300  0.114200  0.069200  1
  C  C5113  1  0.680800  0.596700  0.614200  1
  C  C5114  1  0.569200  0.096700  0.135800  1
  C  C5115  1  0.180800  0.153300  0.635800  1
  C  C5116  1  0.069200  0.653300  0.114200  1
  C  C5117  1  0.930800  0.364200  0.403300  1
  C  C5118  1  0.819200  0.885800  0.903300  1
  C  C5119  1  0.430800  0.385800  0.846700  1
  C  C5120  1  0.319200  0.864200  0.346700  1
  C  C5121  1  0.864200  0.346700  0.319200  1
  C  C5122  1  0.385800  0.846700  0.430800  1
  C  C5123  1  0.885800  0.903300  0.819200  1
  C  C5124  1  0.364200  0.403300  0.930800  1
  C  C5125  1  0.846700  0.430800  0.385800  1
  C  C5126  1  0.346700  0.319200  0.864200  1
  C  C5127  1  0.403300  0.930800  0.364200  1
  C  C5128  1  0.903300  0.819200  0.885800  1
  C  C5129  1  0.614200  0.180800  0.096700  1
  C  C5130  1  0.135800  0.069200  0.596700  1
  C  C5131  1  0.635800  0.680800  0.653300  1
  C  C5132  1  0.114200  0.569200  0.153300  1
  C  C5133  1  0.596700  0.114200  0.180800  1
  C  C5134  1  0.096700  0.635800  0.069200  1
  C  C5135  1  0.153300  0.135800  0.680800  1
  C  C5136  1  0.653300  0.614200  0.569200  1
  C  C5137  1  0.680800  0.096700  0.114200  1
  C  C5138  1  0.569200  0.596700  0.635800  1
  C  C5139  1  0.180800  0.653300  0.135800  1
  C  C5140  1  0.069200  0.153300  0.614200  1
  C  C5141  1  0.930800  0.864200  0.903300  1
  C  C5142  1  0.819200  0.385800  0.403300  1
  C  C5143  1  0.430800  0.885800  0.346700  1
  C  C5144  1  0.319200  0.364200  0.846700  1
  C  C5145  1  0.864200  0.846700  0.819200  1
  C  C5146  1  0.385800  0.346700  0.930800  1
  C  C5147  1  0.885800  0.403300  0.319200  1
  C  C5148  1  0.364200  0.903300  0.430800  1
  C  C5149  1  0.846700  0.930800  0.885800  1
  C  C5150  1  0.346700  0.819200  0.364200  1
  C  C5151  1  0.403300  0.430800  0.864200  1
  C  C5152  1  0.903300  0.319200  0.385800  1
  C  C5153  1  0.114200  0.680800  0.096700  1
  C  C5154  1  0.635800  0.569200  0.596700  1
  C  C5155  1  0.135800  0.180800  0.653300  1
  C  C5156  1  0.614200  0.069200  0.153300  1
  C  C5157  1  0.096700  0.614200  0.180800  1
  C  C5158  1  0.596700  0.135800  0.069200  1
  C  C5159  1  0.653300  0.635800  0.680800  1
  C  C5160  1  0.153300  0.114200  0.569200  1
  C  C5161  1  0.180800  0.596700  0.114200  1
  C  C5162  1  0.069200  0.096700  0.635800  1
  C  C5163  1  0.680800  0.153300  0.135800  1
  C  C5164  1  0.569200  0.653300  0.614200  1
  C  C5165  1  0.430800  0.364200  0.903300  1
  C  C5166  1  0.319200  0.885800  0.403300  1
  C  C5167  1  0.930800  0.385800  0.346700  1
  C  C5168  1  0.819200  0.864200  0.846700  1
  C  C5169  1  0.364200  0.346700  0.819200  1
  C  C5170  1  0.885800  0.846700  0.930800  1
  C  C5171  1  0.385800  0.903300  0.319200  1
  C  C5172  1  0.864200  0.403300  0.430800  1
  C  C5173  1  0.346700  0.430800  0.885800  1
  C  C5174  1  0.846700  0.319200  0.364200  1
  C  C5175  1  0.903300  0.930800  0.864200  1
  C  C5176  1  0.403300  0.819200  0.385800  1
  C  C5177  1  0.114200  0.180800  0.596700  1
  C  C5178  1  0.635800  0.069200  0.096700  1
  C  C5179  1  0.135800  0.680800  0.153300  1
  C  C5180  1  0.614200  0.569200  0.653300  1
  C  C5181  1  0.096700  0.114200  0.680800  1
  C  C5182  1  0.596700  0.635800  0.569200  1
  C  C5183  1  0.653300  0.135800  0.180800  1
  C  C5184  1  0.153300  0.614200  0.069200  1
  C  C5185  1  0.180800  0.096700  0.614200  1
  C  C5186  1  0.069200  0.596700  0.135800  1
  C  C5187  1  0.680800  0.653300  0.635800  1
  C  C5188  1  0.569200  0.153300  0.114200  1
  C  C5189  1  0.430800  0.864200  0.403300  1
  C  C5190  1  0.319200  0.385800  0.903300  1
  C  C5191  1  0.930800  0.885800  0.846700  1
  C  C5192  1  0.819200  0.364200  0.346700  1
  C  C5193  1  0.364200  0.846700  0.319200  1
  C  C5194  1  0.885800  0.346700  0.430800  1
  C  C5195  1  0.385800  0.403300  0.819200  1
  C  C5196  1  0.864200  0.903300  0.930800  1
  C  C5197  1  0.346700  0.930800  0.385800  1
  C  C5198  1  0.846700  0.819200  0.864200  1
  C  C5199  1  0.903300  0.430800  0.364200  1
  C  C5200  1  0.403300  0.319200  0.885800  1
  C  C5201  1  0.426900  0.367400  0.410200  1
  C  C5202  1  0.823100  0.382600  0.910200  1
  C  C5203  1  0.323100  0.867400  0.839800  1
  C  C5204  1  0.926900  0.882600  0.339800  1
  C  C5205  1  0.410200  0.426900  0.367400  1
  C  C5206  1  0.910200  0.823100  0.382600  1
  C  C5207  1  0.839800  0.323100  0.867400  1
  C  C5208  1  0.339800  0.926900  0.882600  1
  C  C5209  1  0.367400  0.410200  0.426900  1
  C  C5210  1  0.382600  0.910200  0.823100  1
  C  C5211  1  0.867400  0.839800  0.323100  1
  C  C5212  1  0.882600  0.339800  0.926900  1
  C  C5213  1  0.117400  0.676900  0.589800  1
  C  C5214  1  0.132600  0.073100  0.089800  1
  C  C5215  1  0.617400  0.573100  0.160200  1
  C  C5216  1  0.632600  0.176900  0.660200  1
  C  C5217  1  0.176900  0.660200  0.632600  1
  C  C5218  1  0.573100  0.160200  0.617400  1
  C  C5219  1  0.073100  0.089800  0.132600  1
  C  C5220  1  0.676900  0.589800  0.117400  1
  C  C5221  1  0.160200  0.617400  0.573100  1
  C  C5222  1  0.660200  0.632600  0.176900  1
  C  C5223  1  0.589800  0.117400  0.676900  1
  C  C5224  1  0.089800  0.132600  0.073100  1
  C  C5225  1  0.426900  0.867400  0.910200  1
  C  C5226  1  0.823100  0.882600  0.410200  1
  C  C5227  1  0.323100  0.367400  0.339800  1
  C  C5228  1  0.926900  0.382600  0.839800  1
  C  C5229  1  0.410200  0.926900  0.867400  1
  C  C5230  1  0.910200  0.323100  0.882600  1
  C  C5231  1  0.839800  0.823100  0.367400  1
  C  C5232  1  0.339800  0.426900  0.382600  1
  C  C5233  1  0.367400  0.910200  0.926900  1
  C  C5234  1  0.382600  0.410200  0.323100  1
  C  C5235  1  0.867400  0.339800  0.823100  1
  C  C5236  1  0.882600  0.839800  0.426900  1
  C  C5237  1  0.117400  0.176900  0.089800  1
  C  C5238  1  0.132600  0.573100  0.589800  1
  C  C5239  1  0.617400  0.073100  0.660200  1
  C  C5240  1  0.632600  0.676900  0.160200  1
  C  C5241  1  0.176900  0.160200  0.132600  1
  C  C5242  1  0.573100  0.660200  0.117400  1
  C  C5243  1  0.073100  0.589800  0.632600  1
  C  C5244  1  0.676900  0.089800  0.617400  1
  C  C5245  1  0.160200  0.117400  0.073100  1
  C  C5246  1  0.660200  0.132600  0.676900  1
  C  C5247  1  0.589800  0.617400  0.176900  1
  C  C5248  1  0.089800  0.632600  0.573100  1
  C  C5249  1  0.926900  0.367400  0.910200  1
  C  C5250  1  0.323100  0.382600  0.410200  1
  C  C5251  1  0.823100  0.867400  0.339800  1
  C  C5252  1  0.426900  0.882600  0.839800  1
  C  C5253  1  0.910200  0.426900  0.867400  1
  C  C5254  1  0.410200  0.823100  0.882600  1
  C  C5255  1  0.339800  0.323100  0.367400  1
  C  C5256  1  0.839800  0.926900  0.382600  1
  C  C5257  1  0.867400  0.410200  0.926900  1
  C  C5258  1  0.882600  0.910200  0.323100  1
  C  C5259  1  0.367400  0.839800  0.823100  1
  C  C5260  1  0.382600  0.339800  0.426900  1
  C  C5261  1  0.617400  0.676900  0.089800  1
  C  C5262  1  0.632600  0.073100  0.589800  1
  C  C5263  1  0.117400  0.573100  0.660200  1
  C  C5264  1  0.132600  0.176900  0.160200  1
  C  C5265  1  0.676900  0.660200  0.132600  1
  C  C5266  1  0.073100  0.160200  0.117400  1
  C  C5267  1  0.573100  0.089800  0.632600  1
  C  C5268  1  0.176900  0.589800  0.617400  1
  C  C5269  1  0.660200  0.617400  0.073100  1
  C  C5270  1  0.160200  0.632600  0.676900  1
  C  C5271  1  0.089800  0.117400  0.176900  1
  C  C5272  1  0.589800  0.132600  0.573100  1
  C  C5273  1  0.926900  0.867400  0.410200  1
  C  C5274  1  0.323100  0.882600  0.910200  1
  C  C5275  1  0.823100  0.367400  0.839800  1
  C  C5276  1  0.426900  0.382600  0.339800  1
  C  C5277  1  0.910200  0.926900  0.367400  1
  C  C5278  1  0.410200  0.323100  0.382600  1
  C  C5279  1  0.339800  0.823100  0.867400  1
  C  C5280  1  0.839800  0.426900  0.882600  1
  C  C5281  1  0.867400  0.910200  0.426900  1
  C  C5282  1  0.882600  0.410200  0.823100  1
  C  C5283  1  0.367400  0.339800  0.323100  1
  C  C5284  1  0.382600  0.839800  0.926900  1
  C  C5285  1  0.617400  0.176900  0.589800  1
  C  C5286  1  0.632600  0.573100  0.089800  1
  C  C5287  1  0.117400  0.073100  0.160200  1
  C  C5288  1  0.132600  0.676900  0.660200  1
  C  C5289  1  0.676900  0.160200  0.632600  1
  C  C5290  1  0.073100  0.660200  0.617400  1
  C  C5291  1  0.573100  0.589800  0.132600  1
  C  C5292  1  0.176900  0.089800  0.117400  1
  C  C5293  1  0.660200  0.117400  0.573100  1
  C  C5294  1  0.160200  0.132600  0.176900  1
  C  C5295  1  0.089800  0.617400  0.676900  1
  C  C5296  1  0.589800  0.632600  0.073100  1
  C  C5297  1  0.573100  0.632600  0.589800  1
  C  C5298  1  0.176900  0.617400  0.089800  1
  C  C5299  1  0.676900  0.132600  0.160200  1
  C  C5300  1  0.073100  0.117400  0.660200  1
  C  C5301  1  0.589800  0.573100  0.632600  1
  C  C5302  1  0.089800  0.176900  0.617400  1
  C  C5303  1  0.160200  0.676900  0.132600  1
  C  C5304  1  0.660200  0.073100  0.117400  1
  C  C5305  1  0.632600  0.589800  0.573100  1
  C  C5306  1  0.617400  0.089800  0.176900  1
  C  C5307  1  0.132600  0.160200  0.676900  1
  C  C5308  1  0.117400  0.660200  0.073100  1
  C  C5309  1  0.882600  0.323100  0.410200  1
  C  C5310  1  0.867400  0.926900  0.910200  1
  C  C5311  1  0.382600  0.426900  0.839800  1
  C  C5312  1  0.367400  0.823100  0.339800  1
  C  C5313  1  0.823100  0.339800  0.367400  1
  C  C5314  1  0.426900  0.839800  0.382600  1
  C  C5315  1  0.926900  0.910200  0.867400  1
  C  C5316  1  0.323100  0.410200  0.882600  1
  C  C5317  1  0.839800  0.382600  0.426900  1
  C  C5318  1  0.339800  0.367400  0.823100  1
  C  C5319  1  0.410200  0.882600  0.323100  1
  C  C5320  1  0.910200  0.867400  0.926900  1
  C  C5321  1  0.573100  0.132600  0.089800  1
  C  C5322  1  0.176900  0.117400  0.589800  1
  C  C5323  1  0.676900  0.632600  0.660200  1
  C  C5324  1  0.073100  0.617400  0.160200  1
  C  C5325  1  0.589800  0.073100  0.132600  1
  C  C5326  1  0.089800  0.676900  0.117400  1
  C  C5327  1  0.160200  0.176900  0.632600  1
  C  C5328  1  0.660200  0.573100  0.617400  1
  C  C5329  1  0.632600  0.089800  0.073100  1
  C  C5330  1  0.617400  0.589800  0.676900  1
  C  C5331  1  0.132600  0.660200  0.176900  1
  C  C5332  1  0.117400  0.160200  0.573100  1
  C  C5333  1  0.882600  0.823100  0.910200  1
  C  C5334  1  0.867400  0.426900  0.410200  1
  C  C5335  1  0.382600  0.926900  0.339800  1
  C  C5336  1  0.367400  0.323100  0.839800  1
  C  C5337  1  0.823100  0.839800  0.867400  1
  C  C5338  1  0.426900  0.339800  0.882600  1
  C  C5339  1  0.926900  0.410200  0.367400  1
  C  C5340  1  0.323100  0.910200  0.382600  1
  C  C5341  1  0.839800  0.882600  0.926900  1
  C  C5342  1  0.339800  0.867400  0.323100  1
  C  C5343  1  0.410200  0.382600  0.823100  1
  C  C5344  1  0.910200  0.367400  0.426900  1
  C  C5345  1  0.073100  0.632600  0.089800  1
  C  C5346  1  0.676900  0.617400  0.589800  1
  C  C5347  1  0.176900  0.132600  0.660200  1
  C  C5348  1  0.573100  0.117400  0.160200  1
  C  C5349  1  0.089800  0.573100  0.132600  1
  C  C5350  1  0.589800  0.176900  0.117400  1
  C  C5351  1  0.660200  0.676900  0.632600  1
  C  C5352  1  0.160200  0.073100  0.617400  1
  C  C5353  1  0.132600  0.589800  0.073100  1
  C  C5354  1  0.117400  0.089800  0.676900  1
  C  C5355  1  0.632600  0.160200  0.176900  1
  C  C5356  1  0.617400  0.660200  0.573100  1
  C  C5357  1  0.382600  0.323100  0.910200  1
  C  C5358  1  0.367400  0.926900  0.410200  1
  C  C5359  1  0.882600  0.426900  0.339800  1
  C  C5360  1  0.867400  0.823100  0.839800  1
  C  C5361  1  0.323100  0.339800  0.867400  1
  C  C5362  1  0.926900  0.839800  0.882600  1
  C  C5363  1  0.426900  0.910200  0.367400  1
  C  C5364  1  0.823100  0.410200  0.382600  1
  C  C5365  1  0.339800  0.382600  0.926900  1
  C  C5366  1  0.839800  0.367400  0.323100  1
  C  C5367  1  0.910200  0.882600  0.823100  1
  C  C5368  1  0.410200  0.867400  0.426900  1
  C  C5369  1  0.073100  0.132600  0.589800  1
  C  C5370  1  0.676900  0.117400  0.089800  1
  C  C5371  1  0.176900  0.632600  0.160200  1
  C  C5372  1  0.573100  0.617400  0.660200  1
  C  C5373  1  0.089800  0.073100  0.632600  1
  C  C5374  1  0.589800  0.676900  0.617400  1
  C  C5375  1  0.660200  0.176900  0.132600  1
  C  C5376  1  0.160200  0.573100  0.117400  1
  C  C5377  1  0.132600  0.089800  0.573100  1
  C  C5378  1  0.117400  0.589800  0.176900  1
  C  C5379  1  0.632600  0.660200  0.676900  1
  C  C5380  1  0.617400  0.160200  0.073100  1
  C  C5381  1  0.382600  0.823100  0.410200  1
  C  C5382  1  0.367400  0.426900  0.910200  1
  C  C5383  1  0.882600  0.926900  0.839800  1
  C  C5384  1  0.867400  0.323100  0.339800  1
  C  C5385  1  0.323100  0.839800  0.367400  1
  C  C5386  1  0.926900  0.339800  0.382600  1
  C  C5387  1  0.426900  0.410200  0.867400  1
  C  C5388  1  0.823100  0.910200  0.882600  1
  C  C5389  1  0.339800  0.882600  0.426900  1
  C  C5390  1  0.839800  0.867400  0.823100  1
  C  C5391  1  0.910200  0.382600  0.323100  1
  C  C5392  1  0.410200  0.367400  0.926900  1
  C  C5393  1  0.287910  0.485700  0.256000  1.0
  C  C5394  1  0.962090  0.264300  0.756000  1.0
  C  C5395  1  0.462090  0.985700  0.994000  1.0
  C  C5396  1  0.787910  0.764300  0.494000  1.0
  C  C5397  1  0.256000  0.287910  0.485700  1.0
  C  C5398  1  0.756000  0.962090  0.264300  1.0
  C  C5399  1  0.994000  0.462090  0.985700  1.0
  C  C5400  1  0.494000  0.787910  0.764300  1.0
  C  C5401  1  0.485700  0.256000  0.287910  1.0
  C  C5402  1  0.264300  0.756000  0.962090  1.0
  C  C5403  1  0.985700  0.994000  0.462090  1.0
  C  C5404  1  0.764300  0.494000  0.787910  1.0
  C  C5405  1  0.235700  0.537910  0.744000  1.0
  C  C5406  1  0.014300  0.212090  0.244000  1.0
  C  C5407  1  0.735700  0.712090  0.006000  1.0
  C  C5408  1  0.514300  0.037910  0.506000  1.0
  C  C5409  1  0.037910  0.506000  0.514300  1.0
  C  C5410  1  0.712090  0.006000  0.735700  1.0
  C  C5411  1  0.212090  0.244000  0.014300  1.0
  C  C5412  1  0.537910  0.744000  0.235700  1.0
  C  C5413  1  0.006000  0.735700  0.712090  1.0
  C  C5414  1  0.506000  0.514300  0.037910  1.0
  C  C5415  1  0.744000  0.235700  0.537910  1.0
  C  C5416  1  0.244000  0.014300  0.212090  1.0
  C  C5417  1  0.287910  0.985700  0.756000  1.0
  C  C5418  1  0.962090  0.764300  0.256000  1.0
  C  C5419  1  0.462090  0.485700  0.494000  1.0
  C  C5420  1  0.787910  0.264300  0.994000  1.0
  C  C5421  1  0.256000  0.787910  0.985700  1.0
  C  C5422  1  0.756000  0.462090  0.764300  1.0
  C  C5423  1  0.994000  0.962090  0.485700  1.0
  C  C5424  1  0.494000  0.287910  0.264300  1.0
  C  C5425  1  0.485700  0.756000  0.787910  1.0
  C  C5426  1  0.264300  0.256000  0.462090  1.0
  C  C5427  1  0.985700  0.494000  0.962090  1.0
  C  C5428  1  0.764300  0.994000  0.287910  1.0
  C  C5429  1  0.235700  0.037910  0.244000  1.0
  C  C5430  1  0.014300  0.712090  0.744000  1.0
  C  C5431  1  0.735700  0.212090  0.506000  1.0
  C  C5432  1  0.514300  0.537910  0.006000  1.0
  C  C5433  1  0.037910  0.006000  0.014300  1.0
  C  C5434  1  0.712090  0.506000  0.235700  1.0
  C  C5435  1  0.212090  0.744000  0.514300  1.0
  C  C5436  1  0.537910  0.244000  0.735700  1.0
  C  C5437  1  0.006000  0.235700  0.212090  1.0
  C  C5438  1  0.506000  0.014300  0.537910  1.0
  C  C5439  1  0.744000  0.735700  0.037910  1.0
  C  C5440  1  0.244000  0.514300  0.712090  1.0
  C  C5441  1  0.787910  0.485700  0.756000  1.0
  C  C5442  1  0.462090  0.264300  0.256000  1.0
  C  C5443  1  0.962090  0.985700  0.494000  1.0
  C  C5444  1  0.287910  0.764300  0.994000  1.0
  C  C5445  1  0.756000  0.287910  0.985700  1.0
  C  C5446  1  0.256000  0.962090  0.764300  1.0
  C  C5447  1  0.494000  0.462090  0.485700  1.0
  C  C5448  1  0.994000  0.787910  0.264300  1.0
  C  C5449  1  0.985700  0.256000  0.787910  1.0
  C  C5450  1  0.764300  0.756000  0.462090  1.0
  C  C5451  1  0.485700  0.994000  0.962090  1.0
  C  C5452  1  0.264300  0.494000  0.287910  1.0
  C  C5453  1  0.735700  0.537910  0.244000  1.0
  C  C5454  1  0.514300  0.212090  0.744000  1.0
  C  C5455  1  0.235700  0.712090  0.506000  1.0
  C  C5456  1  0.014300  0.037910  0.006000  1.0
  C  C5457  1  0.537910  0.506000  0.014300  1.0
  C  C5458  1  0.212090  0.006000  0.235700  1.0
  C  C5459  1  0.712090  0.244000  0.514300  1.0
  C  C5460  1  0.037910  0.744000  0.735700  1.0
  C  C5461  1  0.506000  0.735700  0.212090  1.0
  C  C5462  1  0.006000  0.514300  0.537910  1.0
  C  C5463  1  0.244000  0.235700  0.037910  1.0
  C  C5464  1  0.744000  0.014300  0.712090  1.0
  C  C5465  1  0.787910  0.985700  0.256000  1.0
  C  C5466  1  0.462090  0.764300  0.756000  1.0
  C  C5467  1  0.962090  0.485700  0.994000  1.0
  C  C5468  1  0.287910  0.264300  0.494000  1.0
  C  C5469  1  0.756000  0.787910  0.485700  1.0
  C  C5470  1  0.256000  0.462090  0.264300  1.0
  C  C5471  1  0.494000  0.962090  0.985700  1.0
  C  C5472  1  0.994000  0.287910  0.764300  1.0
  C  C5473  1  0.985700  0.756000  0.287910  1.0
  C  C5474  1  0.764300  0.256000  0.962090  1.0
  C  C5475  1  0.485700  0.494000  0.462090  1.0
  C  C5476  1  0.264300  0.994000  0.787910  1.0
  C  C5477  1  0.735700  0.037910  0.744000  1.0
  C  C5478  1  0.514300  0.712090  0.244000  1.0
  C  C5479  1  0.235700  0.212090  0.006000  1.0
  C  C5480  1  0.014300  0.537910  0.506000  1.0
  C  C5481  1  0.537910  0.006000  0.514300  1.0
  C  C5482  1  0.212090  0.506000  0.735700  1.0
  C  C5483  1  0.712090  0.744000  0.014300  1.0
  C  C5484  1  0.037910  0.244000  0.235700  1.0
  C  C5485  1  0.506000  0.235700  0.712090  1.0
  C  C5486  1  0.006000  0.014300  0.037910  1.0
  C  C5487  1  0.244000  0.735700  0.537910  1.0
  C  C5488  1  0.744000  0.514300  0.212090  1.0
  C  C5489  1  0.712090  0.514300  0.744000  1.0
  C  C5490  1  0.037910  0.735700  0.244000  1.0
  C  C5491  1  0.537910  0.014300  0.006000  1.0
  C  C5492  1  0.212090  0.235700  0.506000  1.0
  C  C5493  1  0.744000  0.712090  0.514300  1.0
  C  C5494  1  0.244000  0.037910  0.735700  1.0
  C  C5495  1  0.006000  0.537910  0.014300  1.0
  C  C5496  1  0.506000  0.212090  0.235700  1.0
  C  C5497  1  0.514300  0.744000  0.712090  1.0
  C  C5498  1  0.735700  0.244000  0.037910  1.0
  C  C5499  1  0.014300  0.006000  0.537910  1.0
  C  C5500  1  0.235700  0.506000  0.212090  1.0
  C  C5501  1  0.764300  0.462090  0.256000  1.0
  C  C5502  1  0.985700  0.787910  0.756000  1.0
  C  C5503  1  0.264300  0.287910  0.994000  1.0
  C  C5504  1  0.485700  0.962090  0.494000  1.0
  C  C5505  1  0.962090  0.494000  0.485700  1.0
  C  C5506  1  0.287910  0.994000  0.264300  1.0
  C  C5507  1  0.787910  0.756000  0.985700  1.0
  C  C5508  1  0.462090  0.256000  0.764300  1.0
  C  C5509  1  0.994000  0.264300  0.287910  1.0
  C  C5510  1  0.494000  0.485700  0.962090  1.0
  C  C5511  1  0.256000  0.764300  0.462090  1.0
  C  C5512  1  0.756000  0.985700  0.787910  1.0
  C  C5513  1  0.712090  0.014300  0.244000  1.0
  C  C5514  1  0.037910  0.235700  0.744000  1.0
  C  C5515  1  0.537910  0.514300  0.506000  1.0
  C  C5516  1  0.212090  0.735700  0.006000  1.0
  C  C5517  1  0.744000  0.212090  0.014300  1.0
  C  C5518  1  0.244000  0.537910  0.235700  1.0
  C  C5519  1  0.006000  0.037910  0.514300  1.0
  C  C5520  1  0.506000  0.712090  0.735700  1.0
  C  C5521  1  0.514300  0.244000  0.212090  1.0
  C  C5522  1  0.735700  0.744000  0.537910  1.0
  C  C5523  1  0.014300  0.506000  0.037910  1.0
  C  C5524  1  0.235700  0.006000  0.712090  1.0
  C  C5525  1  0.764300  0.962090  0.756000  1.0
  C  C5526  1  0.985700  0.287910  0.256000  1.0
  C  C5527  1  0.264300  0.787910  0.494000  1.0
  C  C5528  1  0.485700  0.462090  0.994000  1.0
  C  C5529  1  0.962090  0.994000  0.985700  1.0
  C  C5530  1  0.287910  0.494000  0.764300  1.0
  C  C5531  1  0.787910  0.256000  0.485700  1.0
  C  C5532  1  0.462090  0.756000  0.264300  1.0
  C  C5533  1  0.994000  0.764300  0.787910  1.0
  C  C5534  1  0.494000  0.985700  0.462090  1.0
  C  C5535  1  0.256000  0.264300  0.962090  1.0
  C  C5536  1  0.756000  0.485700  0.287910  1.0
  C  C5537  1  0.212090  0.514300  0.244000  1.0
  C  C5538  1  0.537910  0.735700  0.744000  1.0
  C  C5539  1  0.037910  0.014300  0.506000  1.0
  C  C5540  1  0.712090  0.235700  0.006000  1.0
  C  C5541  1  0.244000  0.712090  0.014300  1.0
  C  C5542  1  0.744000  0.037910  0.235700  1.0
  C  C5543  1  0.506000  0.537910  0.514300  1.0
  C  C5544  1  0.006000  0.212090  0.735700  1.0
  C  C5545  1  0.014300  0.744000  0.212090  1.0
  C  C5546  1  0.235700  0.244000  0.537910  1.0
  C  C5547  1  0.514300  0.006000  0.037910  1.0
  C  C5548  1  0.735700  0.506000  0.712090  1.0
  C  C5549  1  0.264300  0.462090  0.756000  1.0
  C  C5550  1  0.485700  0.787910  0.256000  1.0
  C  C5551  1  0.764300  0.287910  0.494000  1.0
  C  C5552  1  0.985700  0.962090  0.994000  1.0
  C  C5553  1  0.462090  0.494000  0.985700  1.0
  C  C5554  1  0.787910  0.994000  0.764300  1.0
  C  C5555  1  0.287910  0.756000  0.485700  1.0
  C  C5556  1  0.962090  0.256000  0.264300  1.0
  C  C5557  1  0.494000  0.264300  0.787910  1.0
  C  C5558  1  0.994000  0.485700  0.462090  1.0
  C  C5559  1  0.756000  0.764300  0.962090  1.0
  C  C5560  1  0.256000  0.985700  0.287910  1.0
  C  C5561  1  0.212090  0.014300  0.744000  1.0
  C  C5562  1  0.537910  0.235700  0.244000  1.0
  C  C5563  1  0.037910  0.514300  0.006000  1.0
  C  C5564  1  0.712090  0.735700  0.506000  1.0
  C  C5565  1  0.244000  0.212090  0.514300  1.0
  C  C5566  1  0.744000  0.537910  0.735700  1.0
  C  C5567  1  0.506000  0.037910  0.014300  1.0
  C  C5568  1  0.006000  0.712090  0.235700  1.0
  C  C5569  1  0.014300  0.244000  0.712090  1.0
  C  C5570  1  0.235700  0.744000  0.037910  1.0
  C  C5571  1  0.514300  0.506000  0.537910  1.0
  C  C5572  1  0.735700  0.006000  0.212090  1.0
  C  C5573  1  0.264300  0.962090  0.256000  1.0
  C  C5574  1  0.485700  0.287910  0.756000  1.0
  C  C5575  1  0.764300  0.787910  0.994000  1.0
  C  C5576  1  0.985700  0.462090  0.494000  1.0
  C  C5577  1  0.462090  0.994000  0.485700  1.0
  C  C5578  1  0.787910  0.494000  0.264300  1.0
  C  C5579  1  0.287910  0.256000  0.985700  1.0
  C  C5580  1  0.962090  0.756000  0.764300  1.0
  C  C5581  1  0.494000  0.764300  0.287910  1.0
  C  C5582  1  0.994000  0.985700  0.962090  1.0
  C  C5583  1  0.756000  0.264300  0.462090  1.0
  C  C5584  1  0.256000  0.485700  0.787910  1.0
  C  C5585  1  0.272400  0.466600  0.241300  1.0
  C  C5586  1  0.977600  0.283400  0.741300  1.0
  C  C5587  1  0.477600  0.966600  0.008700  1.0
  C  C5588  1  0.772400  0.783400  0.508700  1.0
  C  C5589  1  0.241300  0.272400  0.466600  1.0
  C  C5590  1  0.741300  0.977600  0.283400  1.0
  C  C5591  1  0.008700  0.477600  0.966600  1.0
  C  C5592  1  0.508700  0.772400  0.783400  1.0
  C  C5593  1  0.466600  0.241300  0.272400  1.0
  C  C5594  1  0.283400  0.741300  0.977600  1.0
  C  C5595  1  0.966600  0.008700  0.477600  1.0
  C  C5596  1  0.783400  0.508700  0.772400  1.0
  C  C5597  1  0.216600  0.522400  0.758700  1.0
  C  C5598  1  0.033400  0.227600  0.258700  1.0
  C  C5599  1  0.716600  0.727600  0.991300  1.0
  C  C5600  1  0.533400  0.022400  0.491300  1.0
  C  C5601  1  0.022400  0.491300  0.533400  1.0
  C  C5602  1  0.727600  0.991300  0.716600  1.0
  C  C5603  1  0.227600  0.258700  0.033400  1.0
  C  C5604  1  0.522400  0.758700  0.216600  1.0
  C  C5605  1  0.991300  0.716600  0.727600  1.0
  C  C5606  1  0.491300  0.533400  0.022400  1.0
  C  C5607  1  0.758700  0.216600  0.522400  1.0
  C  C5608  1  0.258700  0.033400  0.227600  1.0
  C  C5609  1  0.272400  0.966600  0.741300  1.0
  C  C5610  1  0.977600  0.783400  0.241300  1.0
  C  C5611  1  0.477600  0.466600  0.508700  1.0
  C  C5612  1  0.772400  0.283400  0.008700  1.0
  C  C5613  1  0.241300  0.772400  0.966600  1.0
  C  C5614  1  0.741300  0.477600  0.783400  1.0
  C  C5615  1  0.008700  0.977600  0.466600  1.0
  C  C5616  1  0.508700  0.272400  0.283400  1.0
  C  C5617  1  0.466600  0.741300  0.772400  1.0
  C  C5618  1  0.283400  0.241300  0.477600  1.0
  C  C5619  1  0.966600  0.508700  0.977600  1.0
  C  C5620  1  0.783400  0.008700  0.272400  1.0
  C  C5621  1  0.216600  0.022400  0.258700  1.0
  C  C5622  1  0.033400  0.727600  0.758700  1.0
  C  C5623  1  0.716600  0.227600  0.491300  1.0
  C  C5624  1  0.533400  0.522400  0.991300  1.0
  C  C5625  1  0.022400  0.991300  0.033400  1.0
  C  C5626  1  0.727600  0.491300  0.216600  1.0
  C  C5627  1  0.227600  0.758700  0.533400  1.0
  C  C5628  1  0.522400  0.258700  0.716600  1.0
  C  C5629  1  0.991300  0.216600  0.227600  1.0
  C  C5630  1  0.491300  0.033400  0.522400  1.0
  C  C5631  1  0.758700  0.716600  0.022400  1.0
  C  C5632  1  0.258700  0.533400  0.727600  1.0
  C  C5633  1  0.772400  0.466600  0.741300  1.0
  C  C5634  1  0.477600  0.283400  0.241300  1.0
  C  C5635  1  0.977600  0.966600  0.508700  1.0
  C  C5636  1  0.272400  0.783400  0.008700  1.0
  C  C5637  1  0.741300  0.272400  0.966600  1.0
  C  C5638  1  0.241300  0.977600  0.783400  1.0
  C  C5639  1  0.508700  0.477600  0.466600  1.0
  C  C5640  1  0.008700  0.772400  0.283400  1.0
  C  C5641  1  0.966600  0.241300  0.772400  1.0
  C  C5642  1  0.783400  0.741300  0.477600  1.0
  C  C5643  1  0.466600  0.008700  0.977600  1.0
  C  C5644  1  0.283400  0.508700  0.272400  1.0
  C  C5645  1  0.716600  0.522400  0.258700  1.0
  C  C5646  1  0.533400  0.227600  0.758700  1.0
  C  C5647  1  0.216600  0.727600  0.491300  1.0
  C  C5648  1  0.033400  0.022400  0.991300  1.0
  C  C5649  1  0.522400  0.491300  0.033400  1.0
  C  C5650  1  0.227600  0.991300  0.216600  1.0
  C  C5651  1  0.727600  0.258700  0.533400  1.0
  C  C5652  1  0.022400  0.758700  0.716600  1.0
  C  C5653  1  0.491300  0.716600  0.227600  1.0
  C  C5654  1  0.991300  0.533400  0.522400  1.0
  C  C5655  1  0.258700  0.216600  0.022400  1.0
  C  C5656  1  0.758700  0.033400  0.727600  1.0
  C  C5657  1  0.772400  0.966600  0.241300  1.0
  C  C5658  1  0.477600  0.783400  0.741300  1.0
  C  C5659  1  0.977600  0.466600  0.008700  1.0
  C  C5660  1  0.272400  0.283400  0.508700  1.0
  C  C5661  1  0.741300  0.772400  0.466600  1.0
  C  C5662  1  0.241300  0.477600  0.283400  1.0
  C  C5663  1  0.508700  0.977600  0.966600  1.0
  C  C5664  1  0.008700  0.272400  0.783400  1.0
  C  C5665  1  0.966600  0.741300  0.272400  1.0
  C  C5666  1  0.783400  0.241300  0.977600  1.0
  C  C5667  1  0.466600  0.508700  0.477600  1.0
  C  C5668  1  0.283400  0.008700  0.772400  1.0
  C  C5669  1  0.716600  0.022400  0.758700  1.0
  C  C5670  1  0.533400  0.727600  0.258700  1.0
  C  C5671  1  0.216600  0.227600  0.991300  1.0
  C  C5672  1  0.033400  0.522400  0.491300  1.0
  C  C5673  1  0.522400  0.991300  0.533400  1.0
  C  C5674  1  0.227600  0.491300  0.716600  1.0
  C  C5675  1  0.727600  0.758700  0.033400  1.0
  C  C5676  1  0.022400  0.258700  0.216600  1.0
  C  C5677  1  0.491300  0.216600  0.727600  1.0
  C  C5678  1  0.991300  0.033400  0.022400  1.0
  C  C5679  1  0.258700  0.716600  0.522400  1.0
  C  C5680  1  0.758700  0.533400  0.227600  1.0
  C  C5681  1  0.727600  0.533400  0.758700  1.0
  C  C5682  1  0.022400  0.716600  0.258700  1.0
  C  C5683  1  0.522400  0.033400  0.991300  1.0
  C  C5684  1  0.227600  0.216600  0.491300  1.0
  C  C5685  1  0.758700  0.727600  0.533400  1.0
  C  C5686  1  0.258700  0.022400  0.716600  1.0
  C  C5687  1  0.991300  0.522400  0.033400  1.0
  C  C5688  1  0.491300  0.227600  0.216600  1.0
  C  C5689  1  0.533400  0.758700  0.727600  1.0
  C  C5690  1  0.716600  0.258700  0.022400  1.0
  C  C5691  1  0.033400  0.991300  0.522400  1.0
  C  C5692  1  0.216600  0.491300  0.227600  1.0
  C  C5693  1  0.783400  0.477600  0.241300  1.0
  C  C5694  1  0.966600  0.772400  0.741300  1.0
  C  C5695  1  0.283400  0.272400  0.008700  1.0
  C  C5696  1  0.466600  0.977600  0.508700  1.0
  C  C5697  1  0.977600  0.508700  0.466600  1.0
  C  C5698  1  0.272400  0.008700  0.283400  1.0
  C  C5699  1  0.772400  0.741300  0.966600  1.0
  C  C5700  1  0.477600  0.241300  0.783400  1.0
  C  C5701  1  0.008700  0.283400  0.272400  1.0
  C  C5702  1  0.508700  0.466600  0.977600  1.0
  C  C5703  1  0.241300  0.783400  0.477600  1.0
  C  C5704  1  0.741300  0.966600  0.772400  1.0
  C  C5705  1  0.727600  0.033400  0.258700  1.0
  C  C5706  1  0.022400  0.216600  0.758700  1.0
  C  C5707  1  0.522400  0.533400  0.491300  1.0
  C  C5708  1  0.227600  0.716600  0.991300  1.0
  C  C5709  1  0.758700  0.227600  0.033400  1.0
  C  C5710  1  0.258700  0.522400  0.216600  1.0
  C  C5711  1  0.991300  0.022400  0.533400  1.0
  C  C5712  1  0.491300  0.727600  0.716600  1.0
  C  C5713  1  0.533400  0.258700  0.227600  1.0
  C  C5714  1  0.716600  0.758700  0.522400  1.0
  C  C5715  1  0.033400  0.491300  0.022400  1.0
  C  C5716  1  0.216600  0.991300  0.727600  1.0
  C  C5717  1  0.783400  0.977600  0.741300  1.0
  C  C5718  1  0.966600  0.272400  0.241300  1.0
  C  C5719  1  0.283400  0.772400  0.508700  1.0
  C  C5720  1  0.466600  0.477600  0.008700  1.0
  C  C5721  1  0.977600  0.008700  0.966600  1.0
  C  C5722  1  0.272400  0.508700  0.783400  1.0
  C  C5723  1  0.772400  0.241300  0.466600  1.0
  C  C5724  1  0.477600  0.741300  0.283400  1.0
  C  C5725  1  0.008700  0.783400  0.772400  1.0
  C  C5726  1  0.508700  0.966600  0.477600  1.0
  C  C5727  1  0.241300  0.283400  0.977600  1.0
  C  C5728  1  0.741300  0.466600  0.272400  1.0
  C  C5729  1  0.227600  0.533400  0.258700  1.0
  C  C5730  1  0.522400  0.716600  0.758700  1.0
  C  C5731  1  0.022400  0.033400  0.491300  1.0
  C  C5732  1  0.727600  0.216600  0.991300  1.0
  C  C5733  1  0.258700  0.727600  0.033400  1.0
  C  C5734  1  0.758700  0.022400  0.216600  1.0
  C  C5735  1  0.491300  0.522400  0.533400  1.0
  C  C5736  1  0.991300  0.227600  0.716600  1.0
  C  C5737  1  0.033400  0.758700  0.227600  1.0
  C  C5738  1  0.216600  0.258700  0.522400  1.0
  C  C5739  1  0.533400  0.991300  0.022400  1.0
  C  C5740  1  0.716600  0.491300  0.727600  1.0
  C  C5741  1  0.283400  0.477600  0.741300  1.0
  C  C5742  1  0.466600  0.772400  0.241300  1.0
  C  C5743  1  0.783400  0.272400  0.508700  1.0
  C  C5744  1  0.966600  0.977600  0.008700  1.0
  C  C5745  1  0.477600  0.508700  0.966600  1.0
  C  C5746  1  0.772400  0.008700  0.783400  1.0
  C  C5747  1  0.272400  0.741300  0.466600  1.0
  C  C5748  1  0.977600  0.241300  0.283400  1.0
  C  C5749  1  0.508700  0.283400  0.772400  1.0
  C  C5750  1  0.008700  0.466600  0.477600  1.0
  C  C5751  1  0.741300  0.783400  0.977600  1.0
  C  C5752  1  0.241300  0.966600  0.272400  1.0
  C  C5753  1  0.227600  0.033400  0.758700  1.0
  C  C5754  1  0.522400  0.216600  0.258700  1.0
  C  C5755  1  0.022400  0.533400  0.991300  1.0
  C  C5756  1  0.727600  0.716600  0.491300  1.0
  C  C5757  1  0.258700  0.227600  0.533400  1.0
  C  C5758  1  0.758700  0.522400  0.716600  1.0
  C  C5759  1  0.491300  0.022400  0.033400  1.0
  C  C5760  1  0.991300  0.727600  0.216600  1.0
  C  C5761  1  0.033400  0.258700  0.727600  1.0
  C  C5762  1  0.216600  0.758700  0.022400  1.0
  C  C5763  1  0.533400  0.491300  0.522400  1.0
  C  C5764  1  0.716600  0.991300  0.227600  1.0
  C  C5765  1  0.283400  0.977600  0.241300  1.0
  C  C5766  1  0.466600  0.272400  0.741300  1.0
  C  C5767  1  0.783400  0.772400  0.008700  1.0
  C  C5768  1  0.966600  0.477600  0.508700  1.0
  C  C5769  1  0.477600  0.008700  0.466600  1.0
  C  C5770  1  0.772400  0.508700  0.283400  1.0
  C  C5771  1  0.272400  0.241300  0.966600  1.0
  C  C5772  1  0.977600  0.741300  0.783400  1.0
  C  C5773  1  0.508700  0.783400  0.272400  1.0
  C  C5774  1  0.008700  0.966600  0.977600  1.0
  C  C5775  1  0.741300  0.283400  0.477600  1.0
  C  C5776  1  0.241300  0.466600  0.772400  1.0
  C  C5777  1  0.263400  0.479000  0.217200  1.0
  C  C5778  1  0.986600  0.271000  0.717200  1.0
  C  C5779  1  0.486600  0.979000  0.032800  1.0
  C  C5780  1  0.763400  0.771000  0.532800  1.0
  C  C5781  1  0.217200  0.263400  0.479000  1.0
  C  C5782  1  0.717200  0.986600  0.271000  1.0
  C  C5783  1  0.032800  0.486600  0.979000  1.0
  C  C5784  1  0.532800  0.763400  0.771000  1.0
  C  C5785  1  0.479000  0.217200  0.263400  1.0
  C  C5786  1  0.271000  0.717200  0.986600  1.0
  C  C5787  1  0.979000  0.032800  0.486600  1.0
  C  C5788  1  0.771000  0.532800  0.763400  1.0
  C  C5789  1  0.229000  0.513400  0.782800  1.0
  C  C5790  1  0.021000  0.236600  0.282800  1.0
  C  C5791  1  0.729000  0.736600  0.967200  1.0
  C  C5792  1  0.521000  0.013400  0.467200  1.0
  C  C5793  1  0.013400  0.467200  0.521000  1.0
  C  C5794  1  0.736600  0.967200  0.729000  1.0
  C  C5795  1  0.236600  0.282800  0.021000  1.0
  C  C5796  1  0.513400  0.782800  0.229000  1.0
  C  C5797  1  0.967200  0.729000  0.736600  1.0
  C  C5798  1  0.467200  0.521000  0.013400  1.0
  C  C5799  1  0.782800  0.229000  0.513400  1.0
  C  C5800  1  0.282800  0.021000  0.236600  1.0
  C  C5801  1  0.263400  0.979000  0.717200  1.0
  C  C5802  1  0.986600  0.771000  0.217200  1.0
  C  C5803  1  0.486600  0.479000  0.532800  1.0
  C  C5804  1  0.763400  0.271000  0.032800  1.0
  C  C5805  1  0.217200  0.763400  0.979000  1.0
  C  C5806  1  0.717200  0.486600  0.771000  1.0
  C  C5807  1  0.032800  0.986600  0.479000  1.0
  C  C5808  1  0.532800  0.263400  0.271000  1.0
  C  C5809  1  0.479000  0.717200  0.763400  1.0
  C  C5810  1  0.271000  0.217200  0.486600  1.0
  C  C5811  1  0.979000  0.532800  0.986600  1.0
  C  C5812  1  0.771000  0.032800  0.263400  1.0
  C  C5813  1  0.229000  0.013400  0.282800  1.0
  C  C5814  1  0.021000  0.736600  0.782800  1.0
  C  C5815  1  0.729000  0.236600  0.467200  1.0
  C  C5816  1  0.521000  0.513400  0.967200  1.0
  C  C5817  1  0.013400  0.967200  0.021000  1.0
  C  C5818  1  0.736600  0.467200  0.229000  1.0
  C  C5819  1  0.236600  0.782800  0.521000  1.0
  C  C5820  1  0.513400  0.282800  0.729000  1.0
  C  C5821  1  0.967200  0.229000  0.236600  1.0
  C  C5822  1  0.467200  0.021000  0.513400  1.0
  C  C5823  1  0.782800  0.729000  0.013400  1.0
  C  C5824  1  0.282800  0.521000  0.736600  1.0
  C  C5825  1  0.763400  0.479000  0.717200  1.0
  C  C5826  1  0.486600  0.271000  0.217200  1.0
  C  C5827  1  0.986600  0.979000  0.532800  1.0
  C  C5828  1  0.263400  0.771000  0.032800  1.0
  C  C5829  1  0.717200  0.263400  0.979000  1.0
  C  C5830  1  0.217200  0.986600  0.771000  1.0
  C  C5831  1  0.532800  0.486600  0.479000  1.0
  C  C5832  1  0.032800  0.763400  0.271000  1.0
  C  C5833  1  0.979000  0.217200  0.763400  1.0
  C  C5834  1  0.771000  0.717200  0.486600  1.0
  C  C5835  1  0.479000  0.032800  0.986600  1.0
  C  C5836  1  0.271000  0.532800  0.263400  1.0
  C  C5837  1  0.729000  0.513400  0.282800  1.0
  C  C5838  1  0.521000  0.236600  0.782800  1.0
  C  C5839  1  0.229000  0.736600  0.467200  1.0
  C  C5840  1  0.021000  0.013400  0.967200  1.0
  C  C5841  1  0.513400  0.467200  0.021000  1.0
  C  C5842  1  0.236600  0.967200  0.229000  1.0
  C  C5843  1  0.736600  0.282800  0.521000  1.0
  C  C5844  1  0.013400  0.782800  0.729000  1.0
  C  C5845  1  0.467200  0.729000  0.236600  1.0
  C  C5846  1  0.967200  0.521000  0.513400  1.0
  C  C5847  1  0.282800  0.229000  0.013400  1.0
  C  C5848  1  0.782800  0.021000  0.736600  1.0
  C  C5849  1  0.763400  0.979000  0.217200  1.0
  C  C5850  1  0.486600  0.771000  0.717200  1.0
  C  C5851  1  0.986600  0.479000  0.032800  1.0
  C  C5852  1  0.263400  0.271000  0.532800  1.0
  C  C5853  1  0.717200  0.763400  0.479000  1.0
  C  C5854  1  0.217200  0.486600  0.271000  1.0
  C  C5855  1  0.532800  0.986600  0.979000  1.0
  C  C5856  1  0.032800  0.263400  0.771000  1.0
  C  C5857  1  0.979000  0.717200  0.263400  1.0
  C  C5858  1  0.771000  0.217200  0.986600  1.0
  C  C5859  1  0.479000  0.532800  0.486600  1.0
  C  C5860  1  0.271000  0.032800  0.763400  1.0
  C  C5861  1  0.729000  0.013400  0.782800  1.0
  C  C5862  1  0.521000  0.736600  0.282800  1.0
  C  C5863  1  0.229000  0.236600  0.967200  1.0
  C  C5864  1  0.021000  0.513400  0.467200  1.0
  C  C5865  1  0.513400  0.967200  0.521000  1.0
  C  C5866  1  0.236600  0.467200  0.729000  1.0
  C  C5867  1  0.736600  0.782800  0.021000  1.0
  C  C5868  1  0.013400  0.282800  0.229000  1.0
  C  C5869  1  0.467200  0.229000  0.736600  1.0
  C  C5870  1  0.967200  0.021000  0.013400  1.0
  C  C5871  1  0.282800  0.729000  0.513400  1.0
  C  C5872  1  0.782800  0.521000  0.236600  1.0
  C  C5873  1  0.736600  0.521000  0.782800  1.0
  C  C5874  1  0.013400  0.729000  0.282800  1.0
  C  C5875  1  0.513400  0.021000  0.967200  1.0
  C  C5876  1  0.236600  0.229000  0.467200  1.0
  C  C5877  1  0.782800  0.736600  0.521000  1.0
  C  C5878  1  0.282800  0.013400  0.729000  1.0
  C  C5879  1  0.967200  0.513400  0.021000  1.0
  C  C5880  1  0.467200  0.236600  0.229000  1.0
  C  C5881  1  0.521000  0.782800  0.736600  1.0
  C  C5882  1  0.729000  0.282800  0.013400  1.0
  C  C5883  1  0.021000  0.967200  0.513400  1.0
  C  C5884  1  0.229000  0.467200  0.236600  1.0
  C  C5885  1  0.771000  0.486600  0.217200  1.0
  C  C5886  1  0.979000  0.763400  0.717200  1.0
  C  C5887  1  0.271000  0.263400  0.032800  1.0
  C  C5888  1  0.479000  0.986600  0.532800  1.0
  C  C5889  1  0.986600  0.532800  0.479000  1.0
  C  C5890  1  0.263400  0.032800  0.271000  1.0
  C  C5891  1  0.763400  0.717200  0.979000  1.0
  C  C5892  1  0.486600  0.217200  0.771000  1.0
  C  C5893  1  0.032800  0.271000  0.263400  1.0
  C  C5894  1  0.532800  0.479000  0.986600  1.0
  C  C5895  1  0.217200  0.771000  0.486600  1.0
  C  C5896  1  0.717200  0.979000  0.763400  1.0
  C  C5897  1  0.736600  0.021000  0.282800  1.0
  C  C5898  1  0.013400  0.229000  0.782800  1.0
  C  C5899  1  0.513400  0.521000  0.467200  1.0
  C  C5900  1  0.236600  0.729000  0.967200  1.0
  C  C5901  1  0.782800  0.236600  0.021000  1.0
  C  C5902  1  0.282800  0.513400  0.229000  1.0
  C  C5903  1  0.967200  0.013400  0.521000  1.0
  C  C5904  1  0.467200  0.736600  0.729000  1.0
  C  C5905  1  0.521000  0.282800  0.236600  1.0
  C  C5906  1  0.729000  0.782800  0.513400  1.0
  C  C5907  1  0.021000  0.467200  0.013400  1.0
  C  C5908  1  0.229000  0.967200  0.736600  1.0
  C  C5909  1  0.771000  0.986600  0.717200  1.0
  C  C5910  1  0.979000  0.263400  0.217200  1.0
  C  C5911  1  0.271000  0.763400  0.532800  1.0
  C  C5912  1  0.479000  0.486600  0.032800  1.0
  C  C5913  1  0.986600  0.032800  0.979000  1.0
  C  C5914  1  0.263400  0.532800  0.771000  1.0
  C  C5915  1  0.763400  0.217200  0.479000  1.0
  C  C5916  1  0.486600  0.717200  0.271000  1.0
  C  C5917  1  0.032800  0.771000  0.763400  1.0
  C  C5918  1  0.532800  0.979000  0.486600  1.0
  C  C5919  1  0.217200  0.271000  0.986600  1.0
  C  C5920  1  0.717200  0.479000  0.263400  1.0
  C  C5921  1  0.236600  0.521000  0.282800  1.0
  C  C5922  1  0.513400  0.729000  0.782800  1.0
  C  C5923  1  0.013400  0.021000  0.467200  1.0
  C  C5924  1  0.736600  0.229000  0.967200  1.0
  C  C5925  1  0.282800  0.736600  0.021000  1.0
  C  C5926  1  0.782800  0.013400  0.229000  1.0
  C  C5927  1  0.467200  0.513400  0.521000  1.0
  C  C5928  1  0.967200  0.236600  0.729000  1.0
  C  C5929  1  0.021000  0.782800  0.236600  1.0
  C  C5930  1  0.229000  0.282800  0.513400  1.0
  C  C5931  1  0.521000  0.967200  0.013400  1.0
  C  C5932  1  0.729000  0.467200  0.736600  1.0
  C  C5933  1  0.271000  0.486600  0.717200  1.0
  C  C5934  1  0.479000  0.763400  0.217200  1.0
  C  C5935  1  0.771000  0.263400  0.532800  1.0
  C  C5936  1  0.979000  0.986600  0.032800  1.0
  C  C5937  1  0.486600  0.532800  0.979000  1.0
  C  C5938  1  0.763400  0.032800  0.771000  1.0
  C  C5939  1  0.263400  0.717200  0.479000  1.0
  C  C5940  1  0.986600  0.217200  0.271000  1.0
  C  C5941  1  0.532800  0.271000  0.763400  1.0
  C  C5942  1  0.032800  0.479000  0.486600  1.0
  C  C5943  1  0.717200  0.771000  0.986600  1.0
  C  C5944  1  0.217200  0.979000  0.263400  1.0
  C  C5945  1  0.236600  0.021000  0.782800  1.0
  C  C5946  1  0.513400  0.229000  0.282800  1.0
  C  C5947  1  0.013400  0.521000  0.967200  1.0
  C  C5948  1  0.736600  0.729000  0.467200  1.0
  C  C5949  1  0.282800  0.236600  0.521000  1.0
  C  C5950  1  0.782800  0.513400  0.729000  1.0
  C  C5951  1  0.467200  0.013400  0.021000  1.0
  C  C5952  1  0.967200  0.736600  0.229000  1.0
  C  C5953  1  0.021000  0.282800  0.736600  1.0
  C  C5954  1  0.229000  0.782800  0.013400  1.0
  C  C5955  1  0.521000  0.467200  0.513400  1.0
  C  C5956  1  0.729000  0.967200  0.236600  1.0
  C  C5957  1  0.271000  0.986600  0.217200  1.0
  C  C5958  1  0.479000  0.263400  0.717200  1.0
  C  C5959  1  0.771000  0.763400  0.032800  1.0
  C  C5960  1  0.979000  0.486600  0.532800  1.0
  C  C5961  1  0.486600  0.032800  0.479000  1.0
  C  C5962  1  0.763400  0.532800  0.271000  1.0
  C  C5963  1  0.263400  0.217200  0.979000  1.0
  C  C5964  1  0.986600  0.717200  0.771000  1.0
  C  C5965  1  0.532800  0.771000  0.263400  1.0
  C  C5966  1  0.032800  0.979000  0.986600  1.0
  C  C5967  1  0.717200  0.271000  0.486600  1.0
  C  C5968  1  0.217200  0.479000  0.763400  1.0
  C  C5969  1  0.273300  0.505900  0.216900  1.0
  C  C5970  1  0.976700  0.244100  0.716900  1.0
  C  C5971  1  0.476700  0.005900  0.033100  1.0
  C  C5972  1  0.773300  0.744100  0.533100  1.0
  C  C5973  1  0.216900  0.273300  0.505900  1.0
  C  C5974  1  0.716900  0.976700  0.244100  1.0
  C  C5975  1  0.033100  0.476700  0.005900  1.0
  C  C5976  1  0.533100  0.773300  0.744100  1.0
  C  C5977  1  0.505900  0.216900  0.273300  1.0
  C  C5978  1  0.244100  0.716900  0.976700  1.0
  C  C5979  1  0.005900  0.033100  0.476700  1.0
  C  C5980  1  0.744100  0.533100  0.773300  1.0
  C  C5981  1  0.255900  0.523300  0.783100  1.0
  C  C5982  1  0.994100  0.226700  0.283100  1.0
  C  C5983  1  0.755900  0.726700  0.966900  1.0
  C  C5984  1  0.494100  0.023300  0.466900  1.0
  C  C5985  1  0.023300  0.466900  0.494100  1.0
  C  C5986  1  0.726700  0.966900  0.755900  1.0
  C  C5987  1  0.226700  0.283100  0.994100  1.0
  C  C5988  1  0.523300  0.783100  0.255900  1.0
  C  C5989  1  0.966900  0.755900  0.726700  1.0
  C  C5990  1  0.466900  0.494100  0.023300  1.0
  C  C5991  1  0.783100  0.255900  0.523300  1.0
  C  C5992  1  0.283100  0.994100  0.226700  1.0
  C  C5993  1  0.273300  0.005900  0.716900  1.0
  C  C5994  1  0.976700  0.744100  0.216900  1.0
  C  C5995  1  0.476700  0.505900  0.533100  1.0
  C  C5996  1  0.773300  0.244100  0.033100  1.0
  C  C5997  1  0.216900  0.773300  0.005900  1.0
  C  C5998  1  0.716900  0.476700  0.744100  1.0
  C  C5999  1  0.033100  0.976700  0.505900  1.0
  C  C6000  1  0.533100  0.273300  0.244100  1.0
  C  C6001  1  0.505900  0.716900  0.773300  1.0
  C  C6002  1  0.244100  0.216900  0.476700  1.0
  C  C6003  1  0.005900  0.533100  0.976700  1.0
  C  C6004  1  0.744100  0.033100  0.273300  1.0
  C  C6005  1  0.255900  0.023300  0.283100  1.0
  C  C6006  1  0.994100  0.726700  0.783100  1.0
  C  C6007  1  0.755900  0.226700  0.466900  1.0
  C  C6008  1  0.494100  0.523300  0.966900  1.0
  C  C6009  1  0.023300  0.966900  0.994100  1.0
  C  C6010  1  0.726700  0.466900  0.255900  1.0
  C  C6011  1  0.226700  0.783100  0.494100  1.0
  C  C6012  1  0.523300  0.283100  0.755900  1.0
  C  C6013  1  0.966900  0.255900  0.226700  1.0
  C  C6014  1  0.466900  0.994100  0.523300  1.0
  C  C6015  1  0.783100  0.755900  0.023300  1.0
  C  C6016  1  0.283100  0.494100  0.726700  1.0
  C  C6017  1  0.773300  0.505900  0.716900  1.0
  C  C6018  1  0.476700  0.244100  0.216900  1.0
  C  C6019  1  0.976700  0.005900  0.533100  1.0
  C  C6020  1  0.273300  0.744100  0.033100  1.0
  C  C6021  1  0.716900  0.273300  0.005900  1.0
  C  C6022  1  0.216900  0.976700  0.744100  1.0
  C  C6023  1  0.533100  0.476700  0.505900  1.0
  C  C6024  1  0.033100  0.773300  0.244100  1.0
  C  C6025  1  0.005900  0.216900  0.773300  1.0
  C  C6026  1  0.744100  0.716900  0.476700  1.0
  C  C6027  1  0.505900  0.033100  0.976700  1.0
  C  C6028  1  0.244100  0.533100  0.273300  1.0
  C  C6029  1  0.755900  0.523300  0.283100  1.0
  C  C6030  1  0.494100  0.226700  0.783100  1.0
  C  C6031  1  0.255900  0.726700  0.466900  1.0
  C  C6032  1  0.994100  0.023300  0.966900  1.0
  C  C6033  1  0.523300  0.466900  0.994100  1.0
  C  C6034  1  0.226700  0.966900  0.255900  1.0
  C  C6035  1  0.726700  0.283100  0.494100  1.0
  C  C6036  1  0.023300  0.783100  0.755900  1.0
  C  C6037  1  0.466900  0.755900  0.226700  1.0
  C  C6038  1  0.966900  0.494100  0.523300  1.0
  C  C6039  1  0.283100  0.255900  0.023300  1.0
  C  C6040  1  0.783100  0.994100  0.726700  1.0
  C  C6041  1  0.773300  0.005900  0.216900  1.0
  C  C6042  1  0.476700  0.744100  0.716900  1.0
  C  C6043  1  0.976700  0.505900  0.033100  1.0
  C  C6044  1  0.273300  0.244100  0.533100  1.0
  C  C6045  1  0.716900  0.773300  0.505900  1.0
  C  C6046  1  0.216900  0.476700  0.244100  1.0
  C  C6047  1  0.533100  0.976700  0.005900  1.0
  C  C6048  1  0.033100  0.273300  0.744100  1.0
  C  C6049  1  0.005900  0.716900  0.273300  1.0
  C  C6050  1  0.744100  0.216900  0.976700  1.0
  C  C6051  1  0.505900  0.533100  0.476700  1.0
  C  C6052  1  0.244100  0.033100  0.773300  1.0
  C  C6053  1  0.755900  0.023300  0.783100  1.0
  C  C6054  1  0.494100  0.726700  0.283100  1.0
  C  C6055  1  0.255900  0.226700  0.966900  1.0
  C  C6056  1  0.994100  0.523300  0.466900  1.0
  C  C6057  1  0.523300  0.966900  0.494100  1.0
  C  C6058  1  0.226700  0.466900  0.755900  1.0
  C  C6059  1  0.726700  0.783100  0.994100  1.0
  C  C6060  1  0.023300  0.283100  0.255900  1.0
  C  C6061  1  0.466900  0.255900  0.726700  1.0
  C  C6062  1  0.966900  0.994100  0.023300  1.0
  C  C6063  1  0.283100  0.755900  0.523300  1.0
  C  C6064  1  0.783100  0.494100  0.226700  1.0
  C  C6065  1  0.726700  0.494100  0.783100  1.0
  C  C6066  1  0.023300  0.755900  0.283100  1.0
  C  C6067  1  0.523300  0.994100  0.966900  1.0
  C  C6068  1  0.226700  0.255900  0.466900  1.0
  C  C6069  1  0.783100  0.726700  0.494100  1.0
  C  C6070  1  0.283100  0.023300  0.755900  1.0
  C  C6071  1  0.966900  0.523300  0.994100  1.0
  C  C6072  1  0.466900  0.226700  0.255900  1.0
  C  C6073  1  0.494100  0.783100  0.726700  1.0
  C  C6074  1  0.755900  0.283100  0.023300  1.0
  C  C6075  1  0.994100  0.966900  0.523300  1.0
  C  C6076  1  0.255900  0.466900  0.226700  1.0
  C  C6077  1  0.744100  0.476700  0.216900  1.0
  C  C6078  1  0.005900  0.773300  0.716900  1.0
  C  C6079  1  0.244100  0.273300  0.033100  1.0
  C  C6080  1  0.505900  0.976700  0.533100  1.0
  C  C6081  1  0.976700  0.533100  0.505900  1.0
  C  C6082  1  0.273300  0.033100  0.244100  1.0
  C  C6083  1  0.773300  0.716900  0.005900  1.0
  C  C6084  1  0.476700  0.216900  0.744100  1.0
  C  C6085  1  0.033100  0.244100  0.273300  1.0
  C  C6086  1  0.533100  0.505900  0.976700  1.0
  C  C6087  1  0.216900  0.744100  0.476700  1.0
  C  C6088  1  0.716900  0.005900  0.773300  1.0
  C  C6089  1  0.726700  0.994100  0.283100  1.0
  C  C6090  1  0.023300  0.255900  0.783100  1.0
  C  C6091  1  0.523300  0.494100  0.466900  1.0
  C  C6092  1  0.226700  0.755900  0.966900  1.0
  C  C6093  1  0.783100  0.226700  0.994100  1.0
  C  C6094  1  0.283100  0.523300  0.255900  1.0
  C  C6095  1  0.966900  0.023300  0.494100  1.0
  C  C6096  1  0.466900  0.726700  0.755900  1.0
  C  C6097  1  0.494100  0.283100  0.226700  1.0
  C  C6098  1  0.755900  0.783100  0.523300  1.0
  C  C6099  1  0.994100  0.466900  0.023300  1.0
  C  C6100  1  0.255900  0.966900  0.726700  1.0
  C  C6101  1  0.744100  0.976700  0.716900  1.0
  C  C6102  1  0.005900  0.273300  0.216900  1.0
  C  C6103  1  0.244100  0.773300  0.533100  1.0
  C  C6104  1  0.505900  0.476700  0.033100  1.0
  C  C6105  1  0.976700  0.033100  0.005900  1.0
  C  C6106  1  0.273300  0.533100  0.744100  1.0
  C  C6107  1  0.773300  0.216900  0.505900  1.0
  C  C6108  1  0.476700  0.716900  0.244100  1.0
  C  C6109  1  0.033100  0.744100  0.773300  1.0
  C  C6110  1  0.533100  0.005900  0.476700  1.0
  C  C6111  1  0.216900  0.244100  0.976700  1.0
  C  C6112  1  0.716900  0.505900  0.273300  1.0
  C  C6113  1  0.226700  0.494100  0.283100  1.0
  C  C6114  1  0.523300  0.755900  0.783100  1.0
  C  C6115  1  0.023300  0.994100  0.466900  1.0
  C  C6116  1  0.726700  0.255900  0.966900  1.0
  C  C6117  1  0.283100  0.726700  0.994100  1.0
  C  C6118  1  0.783100  0.023300  0.255900  1.0
  C  C6119  1  0.466900  0.523300  0.494100  1.0
  C  C6120  1  0.966900  0.226700  0.755900  1.0
  C  C6121  1  0.994100  0.783100  0.226700  1.0
  C  C6122  1  0.255900  0.283100  0.523300  1.0
  C  C6123  1  0.494100  0.966900  0.023300  1.0
  C  C6124  1  0.755900  0.466900  0.726700  1.0
  C  C6125  1  0.244100  0.476700  0.716900  1.0
  C  C6126  1  0.505900  0.773300  0.216900  1.0
  C  C6127  1  0.744100  0.273300  0.533100  1.0
  C  C6128  1  0.005900  0.976700  0.033100  1.0
  C  C6129  1  0.476700  0.533100  0.005900  1.0
  C  C6130  1  0.773300  0.033100  0.744100  1.0
  C  C6131  1  0.273300  0.716900  0.505900  1.0
  C  C6132  1  0.976700  0.216900  0.244100  1.0
  C  C6133  1  0.533100  0.244100  0.773300  1.0
  C  C6134  1  0.033100  0.505900  0.476700  1.0
  C  C6135  1  0.716900  0.744100  0.976700  1.0
  C  C6136  1  0.216900  0.005900  0.273300  1.0
  C  C6137  1  0.226700  0.994100  0.783100  1.0
  C  C6138  1  0.523300  0.255900  0.283100  1.0
  C  C6139  1  0.023300  0.494100  0.966900  1.0
  C  C6140  1  0.726700  0.755900  0.466900  1.0
  C  C6141  1  0.283100  0.226700  0.494100  1.0
  C  C6142  1  0.783100  0.523300  0.755900  1.0
  C  C6143  1  0.466900  0.023300  0.994100  1.0
  C  C6144  1  0.966900  0.726700  0.255900  1.0
  C  C6145  1  0.994100  0.283100  0.726700  1.0
  C  C6146  1  0.255900  0.783100  0.023300  1.0
  C  C6147  1  0.494100  0.466900  0.523300  1.0
  C  C6148  1  0.755900  0.966900  0.226700  1.0
  C  C6149  1  0.244100  0.976700  0.216900  1.0
  C  C6150  1  0.505900  0.273300  0.716900  1.0
  C  C6151  1  0.744100  0.773300  0.033100  1.0
  C  C6152  1  0.005900  0.476700  0.533100  1.0
  C  C6153  1  0.476700  0.033100  0.505900  1.0
  C  C6154  1  0.773300  0.533100  0.244100  1.0
  C  C6155  1  0.273300  0.216900  0.005900  1.0
  C  C6156  1  0.976700  0.716900  0.744100  1.0
  C  C6157  1  0.533100  0.744100  0.273300  1.0
  C  C6158  1  0.033100  0.005900  0.976700  1.0
  C  C6159  1  0.716900  0.244100  0.476700  1.0
  C  C6160  1  0.216900  0.505900  0.773300  1.0
  C  C6161  1  0.288580  0.509800  0.240700  1.0
  C  C6162  1  0.961420  0.240200  0.740700  1.0
  C  C6163  1  0.461420  0.009800  0.009300  1.0
  C  C6164  1  0.788580  0.740200  0.509300  1.0
  C  C6165  1  0.240700  0.288580  0.509800  1.0
  C  C6166  1  0.740700  0.961420  0.240200  1.0
  C  C6167  1  0.009300  0.461420  0.009800  1.0
  C  C6168  1  0.509300  0.788580  0.740200  1.0
  C  C6169  1  0.509800  0.240700  0.288580  1.0
  C  C6170  1  0.240200  0.740700  0.961420  1.0
  C  C6171  1  0.009800  0.009300  0.461420  1.0
  C  C6172  1  0.740200  0.509300  0.788580  1.0
  C  C6173  1  0.259800  0.538580  0.759300  1.0
  C  C6174  1  0.990200  0.211420  0.259300  1.0
  C  C6175  1  0.759800  0.711420  0.990700  1.0
  C  C6176  1  0.490200  0.038580  0.490700  1.0
  C  C6177  1  0.038580  0.490700  0.490200  1.0
  C  C6178  1  0.711420  0.990700  0.759800  1.0
  C  C6179  1  0.211420  0.259300  0.990200  1.0
  C  C6180  1  0.538580  0.759300  0.259800  1.0
  C  C6181  1  0.990700  0.759800  0.711420  1.0
  C  C6182  1  0.490700  0.490200  0.038580  1.0
  C  C6183  1  0.759300  0.259800  0.538580  1.0
  C  C6184  1  0.259300  0.990200  0.211420  1.0
  C  C6185  1  0.288580  0.009800  0.740700  1.0
  C  C6186  1  0.961420  0.740200  0.240700  1.0
  C  C6187  1  0.461420  0.509800  0.509300  1.0
  C  C6188  1  0.788580  0.240200  0.009300  1.0
  C  C6189  1  0.240700  0.788580  0.009800  1.0
  C  C6190  1  0.740700  0.461420  0.740200  1.0
  C  C6191  1  0.009300  0.961420  0.509800  1.0
  C  C6192  1  0.509300  0.288580  0.240200  1.0
  C  C6193  1  0.509800  0.740700  0.788580  1.0
  C  C6194  1  0.240200  0.240700  0.461420  1.0
  C  C6195  1  0.009800  0.509300  0.961420  1.0
  C  C6196  1  0.740200  0.009300  0.288580  1.0
  C  C6197  1  0.259800  0.038580  0.259300  1.0
  C  C6198  1  0.990200  0.711420  0.759300  1.0
  C  C6199  1  0.759800  0.211420  0.490700  1.0
  C  C6200  1  0.490200  0.538580  0.990700  1.0
  C  C6201  1  0.038580  0.990700  0.990200  1.0
  C  C6202  1  0.711420  0.490700  0.259800  1.0
  C  C6203  1  0.211420  0.759300  0.490200  1.0
  C  C6204  1  0.538580  0.259300  0.759800  1.0
  C  C6205  1  0.990700  0.259800  0.211420  1.0
  C  C6206  1  0.490700  0.990200  0.538580  1.0
  C  C6207  1  0.759300  0.759800  0.038580  1.0
  C  C6208  1  0.259300  0.490200  0.711420  1.0
  C  C6209  1  0.788580  0.509800  0.740700  1.0
  C  C6210  1  0.461420  0.240200  0.240700  1.0
  C  C6211  1  0.961420  0.009800  0.509300  1.0
  C  C6212  1  0.288580  0.740200  0.009300  1.0
  C  C6213  1  0.740700  0.288580  0.009800  1.0
  C  C6214  1  0.240700  0.961420  0.740200  1.0
  C  C6215  1  0.509300  0.461420  0.509800  1.0
  C  C6216  1  0.009300  0.788580  0.240200  1.0
  C  C6217  1  0.009800  0.240700  0.788580  1.0
  C  C6218  1  0.740200  0.740700  0.461420  1.0
  C  C6219  1  0.509800  0.009300  0.961420  1.0
  C  C6220  1  0.240200  0.509300  0.288580  1.0
  C  C6221  1  0.759800  0.538580  0.259300  1.0
  C  C6222  1  0.490200  0.211420  0.759300  1.0
  C  C6223  1  0.259800  0.711420  0.490700  1.0
  C  C6224  1  0.990200  0.038580  0.990700  1.0
  C  C6225  1  0.538580  0.490700  0.990200  1.0
  C  C6226  1  0.211420  0.990700  0.259800  1.0
  C  C6227  1  0.711420  0.259300  0.490200  1.0
  C  C6228  1  0.038580  0.759300  0.759800  1.0
  C  C6229  1  0.490700  0.759800  0.211420  1.0
  C  C6230  1  0.990700  0.490200  0.538580  1.0
  C  C6231  1  0.259300  0.259800  0.038580  1.0
  C  C6232  1  0.759300  0.990200  0.711420  1.0
  C  C6233  1  0.788580  0.009800  0.240700  1.0
  C  C6234  1  0.461420  0.740200  0.740700  1.0
  C  C6235  1  0.961420  0.509800  0.009300  1.0
  C  C6236  1  0.288580  0.240200  0.509300  1.0
  C  C6237  1  0.740700  0.788580  0.509800  1.0
  C  C6238  1  0.240700  0.461420  0.240200  1.0
  C  C6239  1  0.509300  0.961420  0.009800  1.0
  C  C6240  1  0.009300  0.288580  0.740200  1.0
  C  C6241  1  0.009800  0.740700  0.288580  1.0
  C  C6242  1  0.740200  0.240700  0.961420  1.0
  C  C6243  1  0.509800  0.509300  0.461420  1.0
  C  C6244  1  0.240200  0.009300  0.788580  1.0
  C  C6245  1  0.759800  0.038580  0.759300  1.0
  C  C6246  1  0.490200  0.711420  0.259300  1.0
  C  C6247  1  0.259800  0.211420  0.990700  1.0
  C  C6248  1  0.990200  0.538580  0.490700  1.0
  C  C6249  1  0.538580  0.990700  0.490200  1.0
  C  C6250  1  0.211420  0.490700  0.759800  1.0
  C  C6251  1  0.711420  0.759300  0.990200  1.0
  C  C6252  1  0.038580  0.259300  0.259800  1.0
  C  C6253  1  0.490700  0.259800  0.711420  1.0
  C  C6254  1  0.990700  0.990200  0.038580  1.0
  C  C6255  1  0.259300  0.759800  0.538580  1.0
  C  C6256  1  0.759300  0.490200  0.211420  1.0
  C  C6257  1  0.711420  0.490200  0.759300  1.0
  C  C6258  1  0.038580  0.759800  0.259300  1.0
  C  C6259  1  0.538580  0.990200  0.990700  1.0
  C  C6260  1  0.211420  0.259800  0.490700  1.0
  C  C6261  1  0.759300  0.711420  0.490200  1.0
  C  C6262  1  0.259300  0.038580  0.759800  1.0
  C  C6263  1  0.990700  0.538580  0.990200  1.0
  C  C6264  1  0.490700  0.211420  0.259800  1.0
  C  C6265  1  0.490200  0.759300  0.711420  1.0
  C  C6266  1  0.759800  0.259300  0.038580  1.0
  C  C6267  1  0.990200  0.990700  0.538580  1.0
  C  C6268  1  0.259800  0.490700  0.211420  1.0
  C  C6269  1  0.740200  0.461420  0.240700  1.0
  C  C6270  1  0.009800  0.788580  0.740700  1.0
  C  C6271  1  0.240200  0.288580  0.009300  1.0
  C  C6272  1  0.509800  0.961420  0.509300  1.0
  C  C6273  1  0.961420  0.509300  0.509800  1.0
  C  C6274  1  0.288580  0.009300  0.240200  1.0
  C  C6275  1  0.788580  0.740700  0.009800  1.0
  C  C6276  1  0.461420  0.240700  0.740200  1.0
  C  C6277  1  0.009300  0.240200  0.288580  1.0
  C  C6278  1  0.509300  0.509800  0.961420  1.0
  C  C6279  1  0.240700  0.740200  0.461420  1.0
  C  C6280  1  0.740700  0.009800  0.788580  1.0
  C  C6281  1  0.711420  0.990200  0.259300  1.0
  C  C6282  1  0.038580  0.259800  0.759300  1.0
  C  C6283  1  0.538580  0.490200  0.490700  1.0
  C  C6284  1  0.211420  0.759800  0.990700  1.0
  C  C6285  1  0.759300  0.211420  0.990200  1.0
  C  C6286  1  0.259300  0.538580  0.259800  1.0
  C  C6287  1  0.990700  0.038580  0.490200  1.0
  C  C6288  1  0.490700  0.711420  0.759800  1.0
  C  C6289  1  0.490200  0.259300  0.211420  1.0
  C  C6290  1  0.759800  0.759300  0.538580  1.0
  C  C6291  1  0.990200  0.490700  0.038580  1.0
  C  C6292  1  0.259800  0.990700  0.711420  1.0
  C  C6293  1  0.740200  0.961420  0.740700  1.0
  C  C6294  1  0.009800  0.288580  0.240700  1.0
  C  C6295  1  0.240200  0.788580  0.509300  1.0
  C  C6296  1  0.509800  0.461420  0.009300  1.0
  C  C6297  1  0.961420  0.009300  0.009800  1.0
  C  C6298  1  0.288580  0.509300  0.740200  1.0
  C  C6299  1  0.788580  0.240700  0.509800  1.0
  C  C6300  1  0.461420  0.740700  0.240200  1.0
  C  C6301  1  0.009300  0.740200  0.788580  1.0
  C  C6302  1  0.509300  0.009800  0.461420  1.0
  C  C6303  1  0.240700  0.240200  0.961420  1.0
  C  C6304  1  0.740700  0.509800  0.288580  1.0
  C  C6305  1  0.211420  0.490200  0.259300  1.0
  C  C6306  1  0.538580  0.759800  0.759300  1.0
  C  C6307  1  0.038580  0.990200  0.490700  1.0
  C  C6308  1  0.711420  0.259800  0.990700  1.0
  C  C6309  1  0.259300  0.711420  0.990200  1.0
  C  C6310  1  0.759300  0.038580  0.259800  1.0
  C  C6311  1  0.490700  0.538580  0.490200  1.0
  C  C6312  1  0.990700  0.211420  0.759800  1.0
  C  C6313  1  0.990200  0.759300  0.211420  1.0
  C  C6314  1  0.259800  0.259300  0.538580  1.0
  C  C6315  1  0.490200  0.990700  0.038580  1.0
  C  C6316  1  0.759800  0.490700  0.711420  1.0
  C  C6317  1  0.240200  0.461420  0.740700  1.0
  C  C6318  1  0.509800  0.788580  0.240700  1.0
  C  C6319  1  0.740200  0.288580  0.509300  1.0
  C  C6320  1  0.009800  0.961420  0.009300  1.0
  C  C6321  1  0.461420  0.509300  0.009800  1.0
  C  C6322  1  0.788580  0.009300  0.740200  1.0
  C  C6323  1  0.288580  0.740700  0.509800  1.0
  C  C6324  1  0.961420  0.240700  0.240200  1.0
  C  C6325  1  0.509300  0.240200  0.788580  1.0
  C  C6326  1  0.009300  0.509800  0.461420  1.0
  C  C6327  1  0.740700  0.740200  0.961420  1.0
  C  C6328  1  0.240700  0.009800  0.288580  1.0
  C  C6329  1  0.211420  0.990200  0.759300  1.0
  C  C6330  1  0.538580  0.259800  0.259300  1.0
  C  C6331  1  0.038580  0.490200  0.990700  1.0
  C  C6332  1  0.711420  0.759800  0.490700  1.0
  C  C6333  1  0.259300  0.211420  0.490200  1.0
  C  C6334  1  0.759300  0.538580  0.759800  1.0
  C  C6335  1  0.490700  0.038580  0.990200  1.0
  C  C6336  1  0.990700  0.711420  0.259800  1.0
  C  C6337  1  0.990200  0.259300  0.711420  1.0
  C  C6338  1  0.259800  0.759300  0.038580  1.0
  C  C6339  1  0.490200  0.490700  0.538580  1.0
  C  C6340  1  0.759800  0.990700  0.211420  1.0
  C  C6341  1  0.240200  0.961420  0.240700  1.0
  C  C6342  1  0.509800  0.288580  0.740700  1.0
  C  C6343  1  0.740200  0.788580  0.009300  1.0
  C  C6344  1  0.009800  0.461420  0.509300  1.0
  C  C6345  1  0.461420  0.009300  0.509800  1.0
  C  C6346  1  0.788580  0.509300  0.240200  1.0
  C  C6347  1  0.288580  0.240700  0.009800  1.0
  C  C6348  1  0.961420  0.740700  0.740200  1.0
  C  C6349  1  0.509300  0.740200  0.288580  1.0
  C  C6350  1  0.009300  0.009800  0.961420  1.0
  C  C6351  1  0.740700  0.240200  0.461420  1.0
  C  C6352  1  0.240700  0.509800  0.788580  1.0
  C  C6353  1  0.301400  0.481100  0.282300  1.0
  C  C6354  1  0.948600  0.268900  0.782300  1.0
  C  C6355  1  0.448600  0.981100  0.967700  1.0
  C  C6356  1  0.801400  0.768900  0.467700  1.0
  C  C6357  1  0.282300  0.301400  0.481100  1.0
  C  C6358  1  0.782300  0.948600  0.268900  1.0
  C  C6359  1  0.967700  0.448600  0.981100  1.0
  C  C6360  1  0.467700  0.801400  0.768900  1.0
  C  C6361  1  0.481100  0.282300  0.301400  1.0
  C  C6362  1  0.268900  0.782300  0.948600  1.0
  C  C6363  1  0.981100  0.967700  0.448600  1.0
  C  C6364  1  0.768900  0.467700  0.801400  1.0
  C  C6365  1  0.231100  0.551400  0.717700  1.0
  C  C6366  1  0.018900  0.198600  0.217700  1.0
  C  C6367  1  0.731100  0.698600  0.032300  1.0
  C  C6368  1  0.518900  0.051400  0.532300  1.0
  C  C6369  1  0.051400  0.532300  0.518900  1.0
  C  C6370  1  0.698600  0.032300  0.731100  1.0
  C  C6371  1  0.198600  0.217700  0.018900  1.0
  C  C6372  1  0.551400  0.717700  0.231100  1.0
  C  C6373  1  0.032300  0.731100  0.698600  1.0
  C  C6374  1  0.532300  0.518900  0.051400  1.0
  C  C6375  1  0.717700  0.231100  0.551400  1.0
  C  C6376  1  0.217700  0.018900  0.198600  1.0
  C  C6377  1  0.301400  0.981100  0.782300  1.0
  C  C6378  1  0.948600  0.768900  0.282300  1.0
  C  C6379  1  0.448600  0.481100  0.467700  1.0
  C  C6380  1  0.801400  0.268900  0.967700  1.0
  C  C6381  1  0.282300  0.801400  0.981100  1.0
  C  C6382  1  0.782300  0.448600  0.768900  1.0
  C  C6383  1  0.967700  0.948600  0.481100  1.0
  C  C6384  1  0.467700  0.301400  0.268900  1.0
  C  C6385  1  0.481100  0.782300  0.801400  1.0
  C  C6386  1  0.268900  0.282300  0.448600  1.0
  C  C6387  1  0.981100  0.467700  0.948600  1.0
  C  C6388  1  0.768900  0.967700  0.301400  1.0
  C  C6389  1  0.231100  0.051400  0.217700  1.0
  C  C6390  1  0.018900  0.698600  0.717700  1.0
  C  C6391  1  0.731100  0.198600  0.532300  1.0
  C  C6392  1  0.518900  0.551400  0.032300  1.0
  C  C6393  1  0.051400  0.032300  0.018900  1.0
  C  C6394  1  0.698600  0.532300  0.231100  1.0
  C  C6395  1  0.198600  0.717700  0.518900  1.0
  C  C6396  1  0.551400  0.217700  0.731100  1.0
  C  C6397  1  0.032300  0.231100  0.198600  1.0
  C  C6398  1  0.532300  0.018900  0.551400  1.0
  C  C6399  1  0.717700  0.731100  0.051400  1.0
  C  C6400  1  0.217700  0.518900  0.698600  1.0
  C  C6401  1  0.801400  0.481100  0.782300  1.0
  C  C6402  1  0.448600  0.268900  0.282300  1.0
  C  C6403  1  0.948600  0.981100  0.467700  1.0
  C  C6404  1  0.301400  0.768900  0.967700  1.0
  C  C6405  1  0.782300  0.301400  0.981100  1.0
  C  C6406  1  0.282300  0.948600  0.768900  1.0
  C  C6407  1  0.467700  0.448600  0.481100  1.0
  C  C6408  1  0.967700  0.801400  0.268900  1.0
  C  C6409  1  0.981100  0.282300  0.801400  1.0
  C  C6410  1  0.768900  0.782300  0.448600  1.0
  C  C6411  1  0.481100  0.967700  0.948600  1.0
  C  C6412  1  0.268900  0.467700  0.301400  1.0
  C  C6413  1  0.731100  0.551400  0.217700  1.0
  C  C6414  1  0.518900  0.198600  0.717700  1.0
  C  C6415  1  0.231100  0.698600  0.532300  1.0
  C  C6416  1  0.018900  0.051400  0.032300  1.0
  C  C6417  1  0.551400  0.532300  0.018900  1.0
  C  C6418  1  0.198600  0.032300  0.231100  1.0
  C  C6419  1  0.698600  0.217700  0.518900  1.0
  C  C6420  1  0.051400  0.717700  0.731100  1.0
  C  C6421  1  0.532300  0.731100  0.198600  1.0
  C  C6422  1  0.032300  0.518900  0.551400  1.0
  C  C6423  1  0.217700  0.231100  0.051400  1.0
  C  C6424  1  0.717700  0.018900  0.698600  1.0
  C  C6425  1  0.801400  0.981100  0.282300  1.0
  C  C6426  1  0.448600  0.768900  0.782300  1.0
  C  C6427  1  0.948600  0.481100  0.967700  1.0
  C  C6428  1  0.301400  0.268900  0.467700  1.0
  C  C6429  1  0.782300  0.801400  0.481100  1.0
  C  C6430  1  0.282300  0.448600  0.268900  1.0
  C  C6431  1  0.467700  0.948600  0.981100  1.0
  C  C6432  1  0.967700  0.301400  0.768900  1.0
  C  C6433  1  0.981100  0.782300  0.301400  1.0
  C  C6434  1  0.768900  0.282300  0.948600  1.0
  C  C6435  1  0.481100  0.467700  0.448600  1.0
  C  C6436  1  0.268900  0.967700  0.801400  1.0
  C  C6437  1  0.731100  0.051400  0.717700  1.0
  C  C6438  1  0.518900  0.698600  0.217700  1.0
  C  C6439  1  0.231100  0.198600  0.032300  1.0
  C  C6440  1  0.018900  0.551400  0.532300  1.0
  C  C6441  1  0.551400  0.032300  0.518900  1.0
  C  C6442  1  0.198600  0.532300  0.731100  1.0
  C  C6443  1  0.698600  0.717700  0.018900  1.0
  C  C6444  1  0.051400  0.217700  0.231100  1.0
  C  C6445  1  0.532300  0.231100  0.698600  1.0
  C  C6446  1  0.032300  0.018900  0.051400  1.0
  C  C6447  1  0.217700  0.731100  0.551400  1.0
  C  C6448  1  0.717700  0.518900  0.198600  1.0
  C  C6449  1  0.698600  0.518900  0.717700  1.0
  C  C6450  1  0.051400  0.731100  0.217700  1.0
  C  C6451  1  0.551400  0.018900  0.032300  1.0
  C  C6452  1  0.198600  0.231100  0.532300  1.0
  C  C6453  1  0.717700  0.698600  0.518900  1.0
  C  C6454  1  0.217700  0.051400  0.731100  1.0
  C  C6455  1  0.032300  0.551400  0.018900  1.0
  C  C6456  1  0.532300  0.198600  0.231100  1.0
  C  C6457  1  0.518900  0.717700  0.698600  1.0
  C  C6458  1  0.731100  0.217700  0.051400  1.0
  C  C6459  1  0.018900  0.032300  0.551400  1.0
  C  C6460  1  0.231100  0.532300  0.198600  1.0
  C  C6461  1  0.768900  0.448600  0.282300  1.0
  C  C6462  1  0.981100  0.801400  0.782300  1.0
  C  C6463  1  0.268900  0.301400  0.967700  1.0
  C  C6464  1  0.481100  0.948600  0.467700  1.0
  C  C6465  1  0.948600  0.467700  0.481100  1.0
  C  C6466  1  0.301400  0.967700  0.268900  1.0
  C  C6467  1  0.801400  0.782300  0.981100  1.0
  C  C6468  1  0.448600  0.282300  0.768900  1.0
  C  C6469  1  0.967700  0.268900  0.301400  1.0
  C  C6470  1  0.467700  0.481100  0.948600  1.0
  C  C6471  1  0.282300  0.768900  0.448600  1.0
  C  C6472  1  0.782300  0.981100  0.801400  1.0
  C  C6473  1  0.698600  0.018900  0.217700  1.0
  C  C6474  1  0.051400  0.231100  0.717700  1.0
  C  C6475  1  0.551400  0.518900  0.532300  1.0
  C  C6476  1  0.198600  0.731100  0.032300  1.0
  C  C6477  1  0.717700  0.198600  0.018900  1.0
  C  C6478  1  0.217700  0.551400  0.231100  1.0
  C  C6479  1  0.032300  0.051400  0.518900  1.0
  C  C6480  1  0.532300  0.698600  0.731100  1.0
  C  C6481  1  0.518900  0.217700  0.198600  1.0
  C  C6482  1  0.731100  0.717700  0.551400  1.0
  C  C6483  1  0.018900  0.532300  0.051400  1.0
  C  C6484  1  0.231100  0.032300  0.698600  1.0
  C  C6485  1  0.768900  0.948600  0.782300  1.0
  C  C6486  1  0.981100  0.301400  0.282300  1.0
  C  C6487  1  0.268900  0.801400  0.467700  1.0
  C  C6488  1  0.481100  0.448600  0.967700  1.0
  C  C6489  1  0.948600  0.967700  0.981100  1.0
  C  C6490  1  0.301400  0.467700  0.768900  1.0
  C  C6491  1  0.801400  0.282300  0.481100  1.0
  C  C6492  1  0.448600  0.782300  0.268900  1.0
  C  C6493  1  0.967700  0.768900  0.801400  1.0
  C  C6494  1  0.467700  0.981100  0.448600  1.0
  C  C6495  1  0.282300  0.268900  0.948600  1.0
  C  C6496  1  0.782300  0.481100  0.301400  1.0
  C  C6497  1  0.198600  0.518900  0.217700  1.0
  C  C6498  1  0.551400  0.731100  0.717700  1.0
  C  C6499  1  0.051400  0.018900  0.532300  1.0
  C  C6500  1  0.698600  0.231100  0.032300  1.0
  C  C6501  1  0.217700  0.698600  0.018900  1.0
  C  C6502  1  0.717700  0.051400  0.231100  1.0
  C  C6503  1  0.532300  0.551400  0.518900  1.0
  C  C6504  1  0.032300  0.198600  0.731100  1.0
  C  C6505  1  0.018900  0.717700  0.198600  1.0
  C  C6506  1  0.231100  0.217700  0.551400  1.0
  C  C6507  1  0.518900  0.032300  0.051400  1.0
  C  C6508  1  0.731100  0.532300  0.698600  1.0
  C  C6509  1  0.268900  0.448600  0.782300  1.0
  C  C6510  1  0.481100  0.801400  0.282300  1.0
  C  C6511  1  0.768900  0.301400  0.467700  1.0
  C  C6512  1  0.981100  0.948600  0.967700  1.0
  C  C6513  1  0.448600  0.467700  0.981100  1.0
  C  C6514  1  0.801400  0.967700  0.768900  1.0
  C  C6515  1  0.301400  0.782300  0.481100  1.0
  C  C6516  1  0.948600  0.282300  0.268900  1.0
  C  C6517  1  0.467700  0.268900  0.801400  1.0
  C  C6518  1  0.967700  0.481100  0.448600  1.0
  C  C6519  1  0.782300  0.768900  0.948600  1.0
  C  C6520  1  0.282300  0.981100  0.301400  1.0
  C  C6521  1  0.198600  0.018900  0.717700  1.0
  C  C6522  1  0.551400  0.231100  0.217700  1.0
  C  C6523  1  0.051400  0.518900  0.032300  1.0
  C  C6524  1  0.698600  0.731100  0.532300  1.0
  C  C6525  1  0.217700  0.198600  0.518900  1.0
  C  C6526  1  0.717700  0.551400  0.731100  1.0
  C  C6527  1  0.532300  0.051400  0.018900  1.0
  C  C6528  1  0.032300  0.698600  0.231100  1.0
  C  C6529  1  0.018900  0.217700  0.698600  1.0
  C  C6530  1  0.231100  0.717700  0.051400  1.0
  C  C6531  1  0.518900  0.532300  0.551400  1.0
  C  C6532  1  0.731100  0.032300  0.198600  1.0
  C  C6533  1  0.268900  0.948600  0.282300  1.0
  C  C6534  1  0.481100  0.301400  0.782300  1.0
  C  C6535  1  0.768900  0.801400  0.967700  1.0
  C  C6536  1  0.981100  0.448600  0.467700  1.0
  C  C6537  1  0.448600  0.967700  0.481100  1.0
  C  C6538  1  0.801400  0.467700  0.268900  1.0
  C  C6539  1  0.301400  0.282300  0.981100  1.0
  C  C6540  1  0.948600  0.782300  0.768900  1.0
  C  C6541  1  0.467700  0.768900  0.301400  1.0
  C  C6542  1  0.967700  0.981100  0.948600  1.0
  C  C6543  1  0.782300  0.268900  0.448600  1.0
  C  C6544  1  0.282300  0.481100  0.801400  1.0
  C  C6545  1  0.311800  0.501000  0.267800  1.0
  C  C6546  1  0.938200  0.249000  0.767800  1.0
  C  C6547  1  0.438200  0.001000  0.982200  1.0
  C  C6548  1  0.811800  0.749000  0.482200  1.0
  C  C6549  1  0.267800  0.311800  0.501000  1.0
  C  C6550  1  0.767800  0.938200  0.249000  1.0
  C  C6551  1  0.982200  0.438200  0.001000  1.0
  C  C6552  1  0.482200  0.811800  0.749000  1.0
  C  C6553  1  0.501000  0.267800  0.311800  1.0
  C  C6554  1  0.249000  0.767800  0.938200  1.0
  C  C6555  1  0.001000  0.982200  0.438200  1.0
  C  C6556  1  0.749000  0.482200  0.811800  1.0
  C  C6557  1  0.251000  0.561800  0.732200  1.0
  C  C6558  1  0.999000  0.188200  0.232200  1.0
  C  C6559  1  0.751000  0.688200  0.017800  1.0
  C  C6560  1  0.499000  0.061800  0.517800  1.0
  C  C6561  1  0.061800  0.517800  0.499000  1.0
  C  C6562  1  0.688200  0.017800  0.751000  1.0
  C  C6563  1  0.188200  0.232200  0.999000  1.0
  C  C6564  1  0.561800  0.732200  0.251000  1.0
  C  C6565  1  0.017800  0.751000  0.688200  1.0
  C  C6566  1  0.517800  0.499000  0.061800  1.0
  C  C6567  1  0.732200  0.251000  0.561800  1.0
  C  C6568  1  0.232200  0.999000  0.188200  1.0
  C  C6569  1  0.311800  0.001000  0.767800  1.0
  C  C6570  1  0.938200  0.749000  0.267800  1.0
  C  C6571  1  0.438200  0.501000  0.482200  1.0
  C  C6572  1  0.811800  0.249000  0.982200  1.0
  C  C6573  1  0.267800  0.811800  0.001000  1.0
  C  C6574  1  0.767800  0.438200  0.749000  1.0
  C  C6575  1  0.982200  0.938200  0.501000  1.0
  C  C6576  1  0.482200  0.311800  0.249000  1.0
  C  C6577  1  0.501000  0.767800  0.811800  1.0
  C  C6578  1  0.249000  0.267800  0.438200  1.0
  C  C6579  1  0.001000  0.482200  0.938200  1.0
  C  C6580  1  0.749000  0.982200  0.311800  1.0
  C  C6581  1  0.251000  0.061800  0.232200  1.0
  C  C6582  1  0.999000  0.688200  0.732200  1.0
  C  C6583  1  0.751000  0.188200  0.517800  1.0
  C  C6584  1  0.499000  0.561800  0.017800  1.0
  C  C6585  1  0.061800  0.017800  0.999000  1.0
  C  C6586  1  0.688200  0.517800  0.251000  1.0
  C  C6587  1  0.188200  0.732200  0.499000  1.0
  C  C6588  1  0.561800  0.232200  0.751000  1.0
  C  C6589  1  0.017800  0.251000  0.188200  1.0
  C  C6590  1  0.517800  0.999000  0.561800  1.0
  C  C6591  1  0.732200  0.751000  0.061800  1.0
  C  C6592  1  0.232200  0.499000  0.688200  1.0
  C  C6593  1  0.811800  0.501000  0.767800  1.0
  C  C6594  1  0.438200  0.249000  0.267800  1.0
  C  C6595  1  0.938200  0.001000  0.482200  1.0
  C  C6596  1  0.311800  0.749000  0.982200  1.0
  C  C6597  1  0.767800  0.311800  0.001000  1.0
  C  C6598  1  0.267800  0.938200  0.749000  1.0
  C  C6599  1  0.482200  0.438200  0.501000  1.0
  C  C6600  1  0.982200  0.811800  0.249000  1.0
  C  C6601  1  0.001000  0.267800  0.811800  1.0
  C  C6602  1  0.749000  0.767800  0.438200  1.0
  C  C6603  1  0.501000  0.982200  0.938200  1.0
  C  C6604  1  0.249000  0.482200  0.311800  1.0
  C  C6605  1  0.751000  0.561800  0.232200  1.0
  C  C6606  1  0.499000  0.188200  0.732200  1.0
  C  C6607  1  0.251000  0.688200  0.517800  1.0
  C  C6608  1  0.999000  0.061800  0.017800  1.0
  C  C6609  1  0.561800  0.517800  0.999000  1.0
  C  C6610  1  0.188200  0.017800  0.251000  1.0
  C  C6611  1  0.688200  0.232200  0.499000  1.0
  C  C6612  1  0.061800  0.732200  0.751000  1.0
  C  C6613  1  0.517800  0.751000  0.188200  1.0
  C  C6614  1  0.017800  0.499000  0.561800  1.0
  C  C6615  1  0.232200  0.251000  0.061800  1.0
  C  C6616  1  0.732200  0.999000  0.688200  1.0
  C  C6617  1  0.811800  0.001000  0.267800  1.0
  C  C6618  1  0.438200  0.749000  0.767800  1.0
  C  C6619  1  0.938200  0.501000  0.982200  1.0
  C  C6620  1  0.311800  0.249000  0.482200  1.0
  C  C6621  1  0.767800  0.811800  0.501000  1.0
  C  C6622  1  0.267800  0.438200  0.249000  1.0
  C  C6623  1  0.482200  0.938200  0.001000  1.0
  C  C6624  1  0.982200  0.311800  0.749000  1.0
  C  C6625  1  0.001000  0.767800  0.311800  1.0
  C  C6626  1  0.749000  0.267800  0.938200  1.0
  C  C6627  1  0.501000  0.482200  0.438200  1.0
  C  C6628  1  0.249000  0.982200  0.811800  1.0
  C  C6629  1  0.751000  0.061800  0.732200  1.0
  C  C6630  1  0.499000  0.688200  0.232200  1.0
  C  C6631  1  0.251000  0.188200  0.017800  1.0
  C  C6632  1  0.999000  0.561800  0.517800  1.0
  C  C6633  1  0.561800  0.017800  0.499000  1.0
  C  C6634  1  0.188200  0.517800  0.751000  1.0
  C  C6635  1  0.688200  0.732200  0.999000  1.0
  C  C6636  1  0.061800  0.232200  0.251000  1.0
  C  C6637  1  0.517800  0.251000  0.688200  1.0
  C  C6638  1  0.017800  0.999000  0.061800  1.0
  C  C6639  1  0.232200  0.751000  0.561800  1.0
  C  C6640  1  0.732200  0.499000  0.188200  1.0
  C  C6641  1  0.688200  0.499000  0.732200  1.0
  C  C6642  1  0.061800  0.751000  0.232200  1.0
  C  C6643  1  0.561800  0.999000  0.017800  1.0
  C  C6644  1  0.188200  0.251000  0.517800  1.0
  C  C6645  1  0.732200  0.688200  0.499000  1.0
  C  C6646  1  0.232200  0.061800  0.751000  1.0
  C  C6647  1  0.017800  0.561800  0.999000  1.0
  C  C6648  1  0.517800  0.188200  0.251000  1.0
  C  C6649  1  0.499000  0.732200  0.688200  1.0
  C  C6650  1  0.751000  0.232200  0.061800  1.0
  C  C6651  1  0.999000  0.017800  0.561800  1.0
  C  C6652  1  0.251000  0.517800  0.188200  1.0
  C  C6653  1  0.749000  0.438200  0.267800  1.0
  C  C6654  1  0.001000  0.811800  0.767800  1.0
  C  C6655  1  0.249000  0.311800  0.982200  1.0
  C  C6656  1  0.501000  0.938200  0.482200  1.0
  C  C6657  1  0.938200  0.482200  0.501000  1.0
  C  C6658  1  0.311800  0.982200  0.249000  1.0
  C  C6659  1  0.811800  0.767800  0.001000  1.0
  C  C6660  1  0.438200  0.267800  0.749000  1.0
  C  C6661  1  0.982200  0.249000  0.311800  1.0
  C  C6662  1  0.482200  0.501000  0.938200  1.0
  C  C6663  1  0.267800  0.749000  0.438200  1.0
  C  C6664  1  0.767800  0.001000  0.811800  1.0
  C  C6665  1  0.688200  0.999000  0.232200  1.0
  C  C6666  1  0.061800  0.251000  0.732200  1.0
  C  C6667  1  0.561800  0.499000  0.517800  1.0
  C  C6668  1  0.188200  0.751000  0.017800  1.0
  C  C6669  1  0.732200  0.188200  0.999000  1.0
  C  C6670  1  0.232200  0.561800  0.251000  1.0
  C  C6671  1  0.017800  0.061800  0.499000  1.0
  C  C6672  1  0.517800  0.688200  0.751000  1.0
  C  C6673  1  0.499000  0.232200  0.188200  1.0
  C  C6674  1  0.751000  0.732200  0.561800  1.0
  C  C6675  1  0.999000  0.517800  0.061800  1.0
  C  C6676  1  0.251000  0.017800  0.688200  1.0
  C  C6677  1  0.749000  0.938200  0.767800  1.0
  C  C6678  1  0.001000  0.311800  0.267800  1.0
  C  C6679  1  0.249000  0.811800  0.482200  1.0
  C  C6680  1  0.501000  0.438200  0.982200  1.0
  C  C6681  1  0.938200  0.982200  0.001000  1.0
  C  C6682  1  0.311800  0.482200  0.749000  1.0
  C  C6683  1  0.811800  0.267800  0.501000  1.0
  C  C6684  1  0.438200  0.767800  0.249000  1.0
  C  C6685  1  0.982200  0.749000  0.811800  1.0
  C  C6686  1  0.482200  0.001000  0.438200  1.0
  C  C6687  1  0.267800  0.249000  0.938200  1.0
  C  C6688  1  0.767800  0.501000  0.311800  1.0
  C  C6689  1  0.188200  0.499000  0.232200  1.0
  C  C6690  1  0.561800  0.751000  0.732200  1.0
  C  C6691  1  0.061800  0.999000  0.517800  1.0
  C  C6692  1  0.688200  0.251000  0.017800  1.0
  C  C6693  1  0.232200  0.688200  0.999000  1.0
  C  C6694  1  0.732200  0.061800  0.251000  1.0
  C  C6695  1  0.517800  0.561800  0.499000  1.0
  C  C6696  1  0.017800  0.188200  0.751000  1.0
  C  C6697  1  0.999000  0.732200  0.188200  1.0
  C  C6698  1  0.251000  0.232200  0.561800  1.0
  C  C6699  1  0.499000  0.017800  0.061800  1.0
  C  C6700  1  0.751000  0.517800  0.688200  1.0
  C  C6701  1  0.249000  0.438200  0.767800  1.0
  C  C6702  1  0.501000  0.811800  0.267800  1.0
  C  C6703  1  0.749000  0.311800  0.482200  1.0
  C  C6704  1  0.001000  0.938200  0.982200  1.0
  C  C6705  1  0.438200  0.482200  0.001000  1.0
  C  C6706  1  0.811800  0.982200  0.749000  1.0
  C  C6707  1  0.311800  0.767800  0.501000  1.0
  C  C6708  1  0.938200  0.267800  0.249000  1.0
  C  C6709  1  0.482200  0.249000  0.811800  1.0
  C  C6710  1  0.982200  0.501000  0.438200  1.0
  C  C6711  1  0.767800  0.749000  0.938200  1.0
  C  C6712  1  0.267800  0.001000  0.311800  1.0
  C  C6713  1  0.188200  0.999000  0.732200  1.0
  C  C6714  1  0.561800  0.251000  0.232200  1.0
  C  C6715  1  0.061800  0.499000  0.017800  1.0
  C  C6716  1  0.688200  0.751000  0.517800  1.0
  C  C6717  1  0.232200  0.188200  0.499000  1.0
  C  C6718  1  0.732200  0.561800  0.751000  1.0
  C  C6719  1  0.517800  0.061800  0.999000  1.0
  C  C6720  1  0.017800  0.688200  0.251000  1.0
  C  C6721  1  0.999000  0.232200  0.688200  1.0
  C  C6722  1  0.251000  0.732200  0.061800  1.0
  C  C6723  1  0.499000  0.517800  0.561800  1.0
  C  C6724  1  0.751000  0.017800  0.188200  1.0
  C  C6725  1  0.249000  0.938200  0.267800  1.0
  C  C6726  1  0.501000  0.311800  0.767800  1.0
  C  C6727  1  0.749000  0.811800  0.982200  1.0
  C  C6728  1  0.001000  0.438200  0.482200  1.0
  C  C6729  1  0.438200  0.982200  0.501000  1.0
  C  C6730  1  0.811800  0.482200  0.249000  1.0
  C  C6731  1  0.311800  0.267800  0.001000  1.0
  C  C6732  1  0.938200  0.767800  0.749000  1.0
  C  C6733  1  0.482200  0.749000  0.311800  1.0
  C  C6734  1  0.982200  0.001000  0.938200  1.0
  C  C6735  1  0.767800  0.249000  0.438200  1.0
  C  C6736  1  0.267800  0.501000  0.811800  1.0
  C  C6737  1  0.247900  0.465800  0.195600  1.0
  C  C6738  1  0.002100  0.284200  0.695600  1.0
  C  C6739  1  0.502100  0.965800  0.054400  1.0
  C  C6740  1  0.747900  0.784200  0.554400  1.0
  C  C6741  1  0.195600  0.247900  0.465800  1.0
  C  C6742  1  0.695600  0.002100  0.284200  1.0
  C  C6743  1  0.054400  0.502100  0.965800  1.0
  C  C6744  1  0.554400  0.747900  0.784200  1.0
  C  C6745  1  0.465800  0.195600  0.247900  1.0
  C  C6746  1  0.284200  0.695600  0.002100  1.0
  C  C6747  1  0.965800  0.054400  0.502100  1.0
  C  C6748  1  0.784200  0.554400  0.747900  1.0
  C  C6749  1  0.215800  0.497900  0.804400  1.0
  C  C6750  1  0.034200  0.252100  0.304400  1.0
  C  C6751  1  0.715800  0.752100  0.945600  1.0
  C  C6752  1  0.534200  0.997900  0.445600  1.0
  C  C6753  1  0.997900  0.445600  0.534200  1.0
  C  C6754  1  0.752100  0.945600  0.715800  1.0
  C  C6755  1  0.252100  0.304400  0.034200  1.0
  C  C6756  1  0.497900  0.804400  0.215800  1.0
  C  C6757  1  0.945600  0.715800  0.752100  1.0
  C  C6758  1  0.445600  0.534200  0.997900  1.0
  C  C6759  1  0.804400  0.215800  0.497900  1.0
  C  C6760  1  0.304400  0.034200  0.252100  1.0
  C  C6761  1  0.247900  0.965800  0.695600  1.0
  C  C6762  1  0.002100  0.784200  0.195600  1.0
  C  C6763  1  0.502100  0.465800  0.554400  1.0
  C  C6764  1  0.747900  0.284200  0.054400  1.0
  C  C6765  1  0.195600  0.747900  0.965800  1.0
  C  C6766  1  0.695600  0.502100  0.784200  1.0
  C  C6767  1  0.054400  0.002100  0.465800  1.0
  C  C6768  1  0.554400  0.247900  0.284200  1.0
  C  C6769  1  0.465800  0.695600  0.747900  1.0
  C  C6770  1  0.284200  0.195600  0.502100  1.0
  C  C6771  1  0.965800  0.554400  0.002100  1.0
  C  C6772  1  0.784200  0.054400  0.247900  1.0
  C  C6773  1  0.215800  0.997900  0.304400  1.0
  C  C6774  1  0.034200  0.752100  0.804400  1.0
  C  C6775  1  0.715800  0.252100  0.445600  1.0
  C  C6776  1  0.534200  0.497900  0.945600  1.0
  C  C6777  1  0.997900  0.945600  0.034200  1.0
  C  C6778  1  0.752100  0.445600  0.215800  1.0
  C  C6779  1  0.252100  0.804400  0.534200  1.0
  C  C6780  1  0.497900  0.304400  0.715800  1.0
  C  C6781  1  0.945600  0.215800  0.252100  1.0
  C  C6782  1  0.445600  0.034200  0.497900  1.0
  C  C6783  1  0.804400  0.715800  0.997900  1.0
  C  C6784  1  0.304400  0.534200  0.752100  1.0
  C  C6785  1  0.747900  0.465800  0.695600  1.0
  C  C6786  1  0.502100  0.284200  0.195600  1.0
  C  C6787  1  0.002100  0.965800  0.554400  1.0
  C  C6788  1  0.247900  0.784200  0.054400  1.0
  C  C6789  1  0.695600  0.247900  0.965800  1.0
  C  C6790  1  0.195600  0.002100  0.784200  1.0
  C  C6791  1  0.554400  0.502100  0.465800  1.0
  C  C6792  1  0.054400  0.747900  0.284200  1.0
  C  C6793  1  0.965800  0.195600  0.747900  1.0
  C  C6794  1  0.784200  0.695600  0.502100  1.0
  C  C6795  1  0.465800  0.054400  0.002100  1.0
  C  C6796  1  0.284200  0.554400  0.247900  1.0
  C  C6797  1  0.715800  0.497900  0.304400  1.0
  C  C6798  1  0.534200  0.252100  0.804400  1.0
  C  C6799  1  0.215800  0.752100  0.445600  1.0
  C  C6800  1  0.034200  0.997900  0.945600  1.0
  C  C6801  1  0.497900  0.445600  0.034200  1.0
  C  C6802  1  0.252100  0.945600  0.215800  1.0
  C  C6803  1  0.752100  0.304400  0.534200  1.0
  C  C6804  1  0.997900  0.804400  0.715800  1.0
  C  C6805  1  0.445600  0.715800  0.252100  1.0
  C  C6806  1  0.945600  0.534200  0.497900  1.0
  C  C6807  1  0.304400  0.215800  0.997900  1.0
  C  C6808  1  0.804400  0.034200  0.752100  1.0
  C  C6809  1  0.747900  0.965800  0.195600  1.0
  C  C6810  1  0.502100  0.784200  0.695600  1.0
  C  C6811  1  0.002100  0.465800  0.054400  1.0
  C  C6812  1  0.247900  0.284200  0.554400  1.0
  C  C6813  1  0.695600  0.747900  0.465800  1.0
  C  C6814  1  0.195600  0.502100  0.284200  1.0
  C  C6815  1  0.554400  0.002100  0.965800  1.0
  C  C6816  1  0.054400  0.247900  0.784200  1.0
  C  C6817  1  0.965800  0.695600  0.247900  1.0
  C  C6818  1  0.784200  0.195600  0.002100  1.0
  C  C6819  1  0.465800  0.554400  0.502100  1.0
  C  C6820  1  0.284200  0.054400  0.747900  1.0
  C  C6821  1  0.715800  0.997900  0.804400  1.0
  C  C6822  1  0.534200  0.752100  0.304400  1.0
  C  C6823  1  0.215800  0.252100  0.945600  1.0
  C  C6824  1  0.034200  0.497900  0.445600  1.0
  C  C6825  1  0.497900  0.945600  0.534200  1.0
  C  C6826  1  0.252100  0.445600  0.715800  1.0
  C  C6827  1  0.752100  0.804400  0.034200  1.0
  C  C6828  1  0.997900  0.304400  0.215800  1.0
  C  C6829  1  0.445600  0.215800  0.752100  1.0
  C  C6830  1  0.945600  0.034200  0.997900  1.0
  C  C6831  1  0.304400  0.715800  0.497900  1.0
  C  C6832  1  0.804400  0.534200  0.252100  1.0
  C  C6833  1  0.752100  0.534200  0.804400  1.0
  C  C6834  1  0.997900  0.715800  0.304400  1.0
  C  C6835  1  0.497900  0.034200  0.945600  1.0
  C  C6836  1  0.252100  0.215800  0.445600  1.0
  C  C6837  1  0.804400  0.752100  0.534200  1.0
  C  C6838  1  0.304400  0.997900  0.715800  1.0
  C  C6839  1  0.945600  0.497900  0.034200  1.0
  C  C6840  1  0.445600  0.252100  0.215800  1.0
  C  C6841  1  0.534200  0.804400  0.752100  1.0
  C  C6842  1  0.715800  0.304400  0.997900  1.0
  C  C6843  1  0.034200  0.945600  0.497900  1.0
  C  C6844  1  0.215800  0.445600  0.252100  1.0
  C  C6845  1  0.784200  0.502100  0.195600  1.0
  C  C6846  1  0.965800  0.747900  0.695600  1.0
  C  C6847  1  0.284200  0.247900  0.054400  1.0
  C  C6848  1  0.465800  0.002100  0.554400  1.0
  C  C6849  1  0.002100  0.554400  0.465800  1.0
  C  C6850  1  0.247900  0.054400  0.284200  1.0
  C  C6851  1  0.747900  0.695600  0.965800  1.0
  C  C6852  1  0.502100  0.195600  0.784200  1.0
  C  C6853  1  0.054400  0.284200  0.247900  1.0
  C  C6854  1  0.554400  0.465800  0.002100  1.0
  C  C6855  1  0.195600  0.784200  0.502100  1.0
  C  C6856  1  0.695600  0.965800  0.747900  1.0
  C  C6857  1  0.752100  0.034200  0.304400  1.0
  C  C6858  1  0.997900  0.215800  0.804400  1.0
  C  C6859  1  0.497900  0.534200  0.445600  1.0
  C  C6860  1  0.252100  0.715800  0.945600  1.0
  C  C6861  1  0.804400  0.252100  0.034200  1.0
  C  C6862  1  0.304400  0.497900  0.215800  1.0
  C  C6863  1  0.945600  0.997900  0.534200  1.0
  C  C6864  1  0.445600  0.752100  0.715800  1.0
  C  C6865  1  0.534200  0.304400  0.252100  1.0
  C  C6866  1  0.715800  0.804400  0.497900  1.0
  C  C6867  1  0.034200  0.445600  0.997900  1.0
  C  C6868  1  0.215800  0.945600  0.752100  1.0
  C  C6869  1  0.784200  0.002100  0.695600  1.0
  C  C6870  1  0.965800  0.247900  0.195600  1.0
  C  C6871  1  0.284200  0.747900  0.554400  1.0
  C  C6872  1  0.465800  0.502100  0.054400  1.0
  C  C6873  1  0.002100  0.054400  0.965800  1.0
  C  C6874  1  0.247900  0.554400  0.784200  1.0
  C  C6875  1  0.747900  0.195600  0.465800  1.0
  C  C6876  1  0.502100  0.695600  0.284200  1.0
  C  C6877  1  0.054400  0.784200  0.747900  1.0
  C  C6878  1  0.554400  0.965800  0.502100  1.0
  C  C6879  1  0.195600  0.284200  0.002100  1.0
  C  C6880  1  0.695600  0.465800  0.247900  1.0
  C  C6881  1  0.252100  0.534200  0.304400  1.0
  C  C6882  1  0.497900  0.715800  0.804400  1.0
  C  C6883  1  0.997900  0.034200  0.445600  1.0
  C  C6884  1  0.752100  0.215800  0.945600  1.0
  C  C6885  1  0.304400  0.752100  0.034200  1.0
  C  C6886  1  0.804400  0.997900  0.215800  1.0
  C  C6887  1  0.445600  0.497900  0.534200  1.0
  C  C6888  1  0.945600  0.252100  0.715800  1.0
  C  C6889  1  0.034200  0.804400  0.252100  1.0
  C  C6890  1  0.215800  0.304400  0.497900  1.0
  C  C6891  1  0.534200  0.945600  0.997900  1.0
  C  C6892  1  0.715800  0.445600  0.752100  1.0
  C  C6893  1  0.284200  0.502100  0.695600  1.0
  C  C6894  1  0.465800  0.747900  0.195600  1.0
  C  C6895  1  0.784200  0.247900  0.554400  1.0
  C  C6896  1  0.965800  0.002100  0.054400  1.0
  C  C6897  1  0.502100  0.554400  0.965800  1.0
  C  C6898  1  0.747900  0.054400  0.784200  1.0
  C  C6899  1  0.247900  0.695600  0.465800  1.0
  C  C6900  1  0.002100  0.195600  0.284200  1.0
  C  C6901  1  0.554400  0.284200  0.747900  1.0
  C  C6902  1  0.054400  0.465800  0.502100  1.0
  C  C6903  1  0.695600  0.784200  0.002100  1.0
  C  C6904  1  0.195600  0.965800  0.247900  1.0
  C  C6905  1  0.252100  0.034200  0.804400  1.0
  C  C6906  1  0.497900  0.215800  0.304400  1.0
  C  C6907  1  0.997900  0.534200  0.945600  1.0
  C  C6908  1  0.752100  0.715800  0.445600  1.0
  C  C6909  1  0.304400  0.252100  0.534200  1.0
  C  C6910  1  0.804400  0.497900  0.715800  1.0
  C  C6911  1  0.445600  0.997900  0.034200  1.0
  C  C6912  1  0.945600  0.752100  0.215800  1.0
  C  C6913  1  0.034200  0.304400  0.752100  1.0
  C  C6914  1  0.215800  0.804400  0.997900  1.0
  C  C6915  1  0.534200  0.445600  0.497900  1.0
  C  C6916  1  0.715800  0.945600  0.252100  1.0
  C  C6917  1  0.284200  0.002100  0.195600  1.0
  C  C6918  1  0.465800  0.247900  0.695600  1.0
  C  C6919  1  0.784200  0.747900  0.054400  1.0
  C  C6920  1  0.965800  0.502100  0.554400  1.0
  C  C6921  1  0.502100  0.054400  0.465800  1.0
  C  C6922  1  0.747900  0.554400  0.284200  1.0
  C  C6923  1  0.247900  0.195600  0.965800  1.0
  C  C6924  1  0.002100  0.695600  0.784200  1.0
  C  C6925  1  0.554400  0.784200  0.247900  1.0
  C  C6926  1  0.054400  0.965800  0.002100  1.0
  C  C6927  1  0.695600  0.284200  0.502100  1.0
  C  C6928  1  0.195600  0.465800  0.747900  1.0
  C  C6929  1  0.276000  0.445200  0.231100  1.0
  C  C6930  1  0.974000  0.304800  0.731100  1.0
  C  C6931  1  0.474000  0.945200  0.018900  1.0
  C  C6932  1  0.776000  0.804800  0.518900  1.0
  C  C6933  1  0.231100  0.276000  0.445200  1.0
  C  C6934  1  0.731100  0.974000  0.304800  1.0
  C  C6935  1  0.018900  0.474000  0.945200  1.0
  C  C6936  1  0.518900  0.776000  0.804800  1.0
  C  C6937  1  0.445200  0.231100  0.276000  1.0
  C  C6938  1  0.304800  0.731100  0.974000  1.0
  C  C6939  1  0.945200  0.018900  0.474000  1.0
  C  C6940  1  0.804800  0.518900  0.776000  1.0
  C  C6941  1  0.195200  0.526000  0.768900  1.0
  C  C6942  1  0.054800  0.224000  0.268900  1.0
  C  C6943  1  0.695200  0.724000  0.981100  1.0
  C  C6944  1  0.554800  0.026000  0.481100  1.0
  C  C6945  1  0.026000  0.481100  0.554800  1.0
  C  C6946  1  0.724000  0.981100  0.695200  1.0
  C  C6947  1  0.224000  0.268900  0.054800  1.0
  C  C6948  1  0.526000  0.768900  0.195200  1.0
  C  C6949  1  0.981100  0.695200  0.724000  1.0
  C  C6950  1  0.481100  0.554800  0.026000  1.0
  C  C6951  1  0.768900  0.195200  0.526000  1.0
  C  C6952  1  0.268900  0.054800  0.224000  1.0
  C  C6953  1  0.276000  0.945200  0.731100  1.0
  C  C6954  1  0.974000  0.804800  0.231100  1.0
  C  C6955  1  0.474000  0.445200  0.518900  1.0
  C  C6956  1  0.776000  0.304800  0.018900  1.0
  C  C6957  1  0.231100  0.776000  0.945200  1.0
  C  C6958  1  0.731100  0.474000  0.804800  1.0
  C  C6959  1  0.018900  0.974000  0.445200  1.0
  C  C6960  1  0.518900  0.276000  0.304800  1.0
  C  C6961  1  0.445200  0.731100  0.776000  1.0
  C  C6962  1  0.304800  0.231100  0.474000  1.0
  C  C6963  1  0.945200  0.518900  0.974000  1.0
  C  C6964  1  0.804800  0.018900  0.276000  1.0
  C  C6965  1  0.195200  0.026000  0.268900  1.0
  C  C6966  1  0.054800  0.724000  0.768900  1.0
  C  C6967  1  0.695200  0.224000  0.481100  1.0
  C  C6968  1  0.554800  0.526000  0.981100  1.0
  C  C6969  1  0.026000  0.981100  0.054800  1.0
  C  C6970  1  0.724000  0.481100  0.195200  1.0
  C  C6971  1  0.224000  0.768900  0.554800  1.0
  C  C6972  1  0.526000  0.268900  0.695200  1.0
  C  C6973  1  0.981100  0.195200  0.224000  1.0
  C  C6974  1  0.481100  0.054800  0.526000  1.0
  C  C6975  1  0.768900  0.695200  0.026000  1.0
  C  C6976  1  0.268900  0.554800  0.724000  1.0
  C  C6977  1  0.776000  0.445200  0.731100  1.0
  C  C6978  1  0.474000  0.304800  0.231100  1.0
  C  C6979  1  0.974000  0.945200  0.518900  1.0
  C  C6980  1  0.276000  0.804800  0.018900  1.0
  C  C6981  1  0.731100  0.276000  0.945200  1.0
  C  C6982  1  0.231100  0.974000  0.804800  1.0
  C  C6983  1  0.518900  0.474000  0.445200  1.0
  C  C6984  1  0.018900  0.776000  0.304800  1.0
  C  C6985  1  0.945200  0.231100  0.776000  1.0
  C  C6986  1  0.804800  0.731100  0.474000  1.0
  C  C6987  1  0.445200  0.018900  0.974000  1.0
  C  C6988  1  0.304800  0.518900  0.276000  1.0
  C  C6989  1  0.695200  0.526000  0.268900  1.0
  C  C6990  1  0.554800  0.224000  0.768900  1.0
  C  C6991  1  0.195200  0.724000  0.481100  1.0
  C  C6992  1  0.054800  0.026000  0.981100  1.0
  C  C6993  1  0.526000  0.481100  0.054800  1.0
  C  C6994  1  0.224000  0.981100  0.195200  1.0
  C  C6995  1  0.724000  0.268900  0.554800  1.0
  C  C6996  1  0.026000  0.768900  0.695200  1.0
  C  C6997  1  0.481100  0.695200  0.224000  1.0
  C  C6998  1  0.981100  0.554800  0.526000  1.0
  C  C6999  1  0.268900  0.195200  0.026000  1.0
  C  C7000  1  0.768900  0.054800  0.724000  1.0
  C  C7001  1  0.776000  0.945200  0.231100  1.0
  C  C7002  1  0.474000  0.804800  0.731100  1.0
  C  C7003  1  0.974000  0.445200  0.018900  1.0
  C  C7004  1  0.276000  0.304800  0.518900  1.0
  C  C7005  1  0.731100  0.776000  0.445200  1.0
  C  C7006  1  0.231100  0.474000  0.304800  1.0
  C  C7007  1  0.518900  0.974000  0.945200  1.0
  C  C7008  1  0.018900  0.276000  0.804800  1.0
  C  C7009  1  0.945200  0.731100  0.276000  1.0
  C  C7010  1  0.804800  0.231100  0.974000  1.0
  C  C7011  1  0.445200  0.518900  0.474000  1.0
  C  C7012  1  0.304800  0.018900  0.776000  1.0
  C  C7013  1  0.695200  0.026000  0.768900  1.0
  C  C7014  1  0.554800  0.724000  0.268900  1.0
  C  C7015  1  0.195200  0.224000  0.981100  1.0
  C  C7016  1  0.054800  0.526000  0.481100  1.0
  C  C7017  1  0.526000  0.981100  0.554800  1.0
  C  C7018  1  0.224000  0.481100  0.695200  1.0
  C  C7019  1  0.724000  0.768900  0.054800  1.0
  C  C7020  1  0.026000  0.268900  0.195200  1.0
  C  C7021  1  0.481100  0.195200  0.724000  1.0
  C  C7022  1  0.981100  0.054800  0.026000  1.0
  C  C7023  1  0.268900  0.695200  0.526000  1.0
  C  C7024  1  0.768900  0.554800  0.224000  1.0
  C  C7025  1  0.724000  0.554800  0.768900  1.0
  C  C7026  1  0.026000  0.695200  0.268900  1.0
  C  C7027  1  0.526000  0.054800  0.981100  1.0
  C  C7028  1  0.224000  0.195200  0.481100  1.0
  C  C7029  1  0.768900  0.724000  0.554800  1.0
  C  C7030  1  0.268900  0.026000  0.695200  1.0
  C  C7031  1  0.981100  0.526000  0.054800  1.0
  C  C7032  1  0.481100  0.224000  0.195200  1.0
  C  C7033  1  0.554800  0.768900  0.724000  1.0
  C  C7034  1  0.695200  0.268900  0.026000  1.0
  C  C7035  1  0.054800  0.981100  0.526000  1.0
  C  C7036  1  0.195200  0.481100  0.224000  1.0
  C  C7037  1  0.804800  0.474000  0.231100  1.0
  C  C7038  1  0.945200  0.776000  0.731100  1.0
  C  C7039  1  0.304800  0.276000  0.018900  1.0
  C  C7040  1  0.445200  0.974000  0.518900  1.0
  C  C7041  1  0.974000  0.518900  0.445200  1.0
  C  C7042  1  0.276000  0.018900  0.304800  1.0
  C  C7043  1  0.776000  0.731100  0.945200  1.0
  C  C7044  1  0.474000  0.231100  0.804800  1.0
  C  C7045  1  0.018900  0.304800  0.276000  1.0
  C  C7046  1  0.518900  0.445200  0.974000  1.0
  C  C7047  1  0.231100  0.804800  0.474000  1.0
  C  C7048  1  0.731100  0.945200  0.776000  1.0
  C  C7049  1  0.724000  0.054800  0.268900  1.0
  C  C7050  1  0.026000  0.195200  0.768900  1.0
  C  C7051  1  0.526000  0.554800  0.481100  1.0
  C  C7052  1  0.224000  0.695200  0.981100  1.0
  C  C7053  1  0.768900  0.224000  0.054800  1.0
  C  C7054  1  0.268900  0.526000  0.195200  1.0
  C  C7055  1  0.981100  0.026000  0.554800  1.0
  C  C7056  1  0.481100  0.724000  0.695200  1.0
  C  C7057  1  0.554800  0.268900  0.224000  1.0
  C  C7058  1  0.695200  0.768900  0.526000  1.0
  C  C7059  1  0.054800  0.481100  0.026000  1.0
  C  C7060  1  0.195200  0.981100  0.724000  1.0
  C  C7061  1  0.804800  0.974000  0.731100  1.0
  C  C7062  1  0.945200  0.276000  0.231100  1.0
  C  C7063  1  0.304800  0.776000  0.518900  1.0
  C  C7064  1  0.445200  0.474000  0.018900  1.0
  C  C7065  1  0.974000  0.018900  0.945200  1.0
  C  C7066  1  0.276000  0.518900  0.804800  1.0
  C  C7067  1  0.776000  0.231100  0.445200  1.0
  C  C7068  1  0.474000  0.731100  0.304800  1.0
  C  C7069  1  0.018900  0.804800  0.776000  1.0
  C  C7070  1  0.518900  0.945200  0.474000  1.0
  C  C7071  1  0.231100  0.304800  0.974000  1.0
  C  C7072  1  0.731100  0.445200  0.276000  1.0
  C  C7073  1  0.224000  0.554800  0.268900  1.0
  C  C7074  1  0.526000  0.695200  0.768900  1.0
  C  C7075  1  0.026000  0.054800  0.481100  1.0
  C  C7076  1  0.724000  0.195200  0.981100  1.0
  C  C7077  1  0.268900  0.724000  0.054800  1.0
  C  C7078  1  0.768900  0.026000  0.195200  1.0
  C  C7079  1  0.481100  0.526000  0.554800  1.0
  C  C7080  1  0.981100  0.224000  0.695200  1.0
  C  C7081  1  0.054800  0.768900  0.224000  1.0
  C  C7082  1  0.195200  0.268900  0.526000  1.0
  C  C7083  1  0.554800  0.981100  0.026000  1.0
  C  C7084  1  0.695200  0.481100  0.724000  1.0
  C  C7085  1  0.304800  0.474000  0.731100  1.0
  C  C7086  1  0.445200  0.776000  0.231100  1.0
  C  C7087  1  0.804800  0.276000  0.518900  1.0
  C  C7088  1  0.945200  0.974000  0.018900  1.0
  C  C7089  1  0.474000  0.518900  0.945200  1.0
  C  C7090  1  0.776000  0.018900  0.804800  1.0
  C  C7091  1  0.276000  0.731100  0.445200  1.0
  C  C7092  1  0.974000  0.231100  0.304800  1.0
  C  C7093  1  0.518900  0.304800  0.776000  1.0
  C  C7094  1  0.018900  0.445200  0.474000  1.0
  C  C7095  1  0.731100  0.804800  0.974000  1.0
  C  C7096  1  0.231100  0.945200  0.276000  1.0
  C  C7097  1  0.224000  0.054800  0.768900  1.0
  C  C7098  1  0.526000  0.195200  0.268900  1.0
  C  C7099  1  0.026000  0.554800  0.981100  1.0
  C  C7100  1  0.724000  0.695200  0.481100  1.0
  C  C7101  1  0.268900  0.224000  0.554800  1.0
  C  C7102  1  0.768900  0.526000  0.695200  1.0
  C  C7103  1  0.481100  0.026000  0.054800  1.0
  C  C7104  1  0.981100  0.724000  0.195200  1.0
  C  C7105  1  0.054800  0.268900  0.724000  1.0
  C  C7106  1  0.195200  0.768900  0.026000  1.0
  C  C7107  1  0.554800  0.481100  0.526000  1.0
  C  C7108  1  0.695200  0.981100  0.224000  1.0
  C  C7109  1  0.304800  0.974000  0.231100  1.0
  C  C7110  1  0.445200  0.276000  0.731100  1.0
  C  C7111  1  0.804800  0.776000  0.018900  1.0
  C  C7112  1  0.945200  0.474000  0.518900  1.0
  C  C7113  1  0.474000  0.018900  0.445200  1.0
  C  C7114  1  0.776000  0.518900  0.304800  1.0
  C  C7115  1  0.276000  0.231100  0.945200  1.0
  C  C7116  1  0.974000  0.731100  0.804800  1.0
  C  C7117  1  0.518900  0.804800  0.276000  1.0
  C  C7118  1  0.018900  0.945200  0.974000  1.0
  C  C7119  1  0.731100  0.304800  0.474000  1.0
  C  C7120  1  0.231100  0.445200  0.776000  1.0
  C  C7121  1  0.284700  0.497800  0.196200  1.0
  C  C7122  1  0.965300  0.252200  0.696200  1.0
  C  C7123  1  0.465300  0.997800  0.053800  1.0
  C  C7124  1  0.784700  0.752200  0.553800  1.0
  C  C7125  1  0.196200  0.284700  0.497800  1.0
  C  C7126  1  0.696200  0.965300  0.252200  1.0
  C  C7127  1  0.053800  0.465300  0.997800  1.0
  C  C7128  1  0.553800  0.784700  0.752200  1.0
  C  C7129  1  0.497800  0.196200  0.284700  1.0
  C  C7130  1  0.252200  0.696200  0.965300  1.0
  C  C7131  1  0.997800  0.053800  0.465300  1.0
  C  C7132  1  0.752200  0.553800  0.784700  1.0
  C  C7133  1  0.247800  0.534700  0.803800  1.0
  C  C7134  1  0.002200  0.215300  0.303800  1.0
  C  C7135  1  0.747800  0.715300  0.946200  1.0
  C  C7136  1  0.502200  0.034700  0.446200  1.0
  C  C7137  1  0.034700  0.446200  0.502200  1.0
  C  C7138  1  0.715300  0.946200  0.747800  1.0
  C  C7139  1  0.215300  0.303800  0.002200  1.0
  C  C7140  1  0.534700  0.803800  0.247800  1.0
  C  C7141  1  0.946200  0.747800  0.715300  1.0
  C  C7142  1  0.446200  0.502200  0.034700  1.0
  C  C7143  1  0.803800  0.247800  0.534700  1.0
  C  C7144  1  0.303800  0.002200  0.215300  1.0
  C  C7145  1  0.284700  0.997800  0.696200  1.0
  C  C7146  1  0.965300  0.752200  0.196200  1.0
  C  C7147  1  0.465300  0.497800  0.553800  1.0
  C  C7148  1  0.784700  0.252200  0.053800  1.0
  C  C7149  1  0.196200  0.784700  0.997800  1.0
  C  C7150  1  0.696200  0.465300  0.752200  1.0
  C  C7151  1  0.053800  0.965300  0.497800  1.0
  C  C7152  1  0.553800  0.284700  0.252200  1.0
  C  C7153  1  0.497800  0.696200  0.784700  1.0
  C  C7154  1  0.252200  0.196200  0.465300  1.0
  C  C7155  1  0.997800  0.553800  0.965300  1.0
  C  C7156  1  0.752200  0.053800  0.284700  1.0
  C  C7157  1  0.247800  0.034700  0.303800  1.0
  C  C7158  1  0.002200  0.715300  0.803800  1.0
  C  C7159  1  0.747800  0.215300  0.446200  1.0
  C  C7160  1  0.502200  0.534700  0.946200  1.0
  C  C7161  1  0.034700  0.946200  0.002200  1.0
  C  C7162  1  0.715300  0.446200  0.247800  1.0
  C  C7163  1  0.215300  0.803800  0.502200  1.0
  C  C7164  1  0.534700  0.303800  0.747800  1.0
  C  C7165  1  0.946200  0.247800  0.215300  1.0
  C  C7166  1  0.446200  0.002200  0.534700  1.0
  C  C7167  1  0.803800  0.747800  0.034700  1.0
  C  C7168  1  0.303800  0.502200  0.715300  1.0
  C  C7169  1  0.784700  0.497800  0.696200  1.0
  C  C7170  1  0.465300  0.252200  0.196200  1.0
  C  C7171  1  0.965300  0.997800  0.553800  1.0
  C  C7172  1  0.284700  0.752200  0.053800  1.0
  C  C7173  1  0.696200  0.284700  0.997800  1.0
  C  C7174  1  0.196200  0.965300  0.752200  1.0
  C  C7175  1  0.553800  0.465300  0.497800  1.0
  C  C7176  1  0.053800  0.784700  0.252200  1.0
  C  C7177  1  0.997800  0.196200  0.784700  1.0
  C  C7178  1  0.752200  0.696200  0.465300  1.0
  C  C7179  1  0.497800  0.053800  0.965300  1.0
  C  C7180  1  0.252200  0.553800  0.284700  1.0
  C  C7181  1  0.747800  0.534700  0.303800  1.0
  C  C7182  1  0.502200  0.215300  0.803800  1.0
  C  C7183  1  0.247800  0.715300  0.446200  1.0
  C  C7184  1  0.002200  0.034700  0.946200  1.0
  C  C7185  1  0.534700  0.446200  0.002200  1.0
  C  C7186  1  0.215300  0.946200  0.247800  1.0
  C  C7187  1  0.715300  0.303800  0.502200  1.0
  C  C7188  1  0.034700  0.803800  0.747800  1.0
  C  C7189  1  0.446200  0.747800  0.215300  1.0
  C  C7190  1  0.946200  0.502200  0.534700  1.0
  C  C7191  1  0.303800  0.247800  0.034700  1.0
  C  C7192  1  0.803800  0.002200  0.715300  1.0
  C  C7193  1  0.784700  0.997800  0.196200  1.0
  C  C7194  1  0.465300  0.752200  0.696200  1.0
  C  C7195  1  0.965300  0.497800  0.053800  1.0
  C  C7196  1  0.284700  0.252200  0.553800  1.0
  C  C7197  1  0.696200  0.784700  0.497800  1.0
  C  C7198  1  0.196200  0.465300  0.252200  1.0
  C  C7199  1  0.553800  0.965300  0.997800  1.0
  C  C7200  1  0.053800  0.284700  0.752200  1.0
  C  C7201  1  0.997800  0.696200  0.284700  1.0
  C  C7202  1  0.752200  0.196200  0.965300  1.0
  C  C7203  1  0.497800  0.553800  0.465300  1.0
  C  C7204  1  0.252200  0.053800  0.784700  1.0
  C  C7205  1  0.747800  0.034700  0.803800  1.0
  C  C7206  1  0.502200  0.715300  0.303800  1.0
  C  C7207  1  0.247800  0.215300  0.946200  1.0
  C  C7208  1  0.002200  0.534700  0.446200  1.0
  C  C7209  1  0.534700  0.946200  0.502200  1.0
  C  C7210  1  0.215300  0.446200  0.747800  1.0
  C  C7211  1  0.715300  0.803800  0.002200  1.0
  C  C7212  1  0.034700  0.303800  0.247800  1.0
  C  C7213  1  0.446200  0.247800  0.715300  1.0
  C  C7214  1  0.946200  0.002200  0.034700  1.0
  C  C7215  1  0.303800  0.747800  0.534700  1.0
  C  C7216  1  0.803800  0.502200  0.215300  1.0
  C  C7217  1  0.715300  0.502200  0.803800  1.0
  C  C7218  1  0.034700  0.747800  0.303800  1.0
  C  C7219  1  0.534700  0.002200  0.946200  1.0
  C  C7220  1  0.215300  0.247800  0.446200  1.0
  C  C7221  1  0.803800  0.715300  0.502200  1.0
  C  C7222  1  0.303800  0.034700  0.747800  1.0
  C  C7223  1  0.946200  0.534700  0.002200  1.0
  C  C7224  1  0.446200  0.215300  0.247800  1.0
  C  C7225  1  0.502200  0.803800  0.715300  1.0
  C  C7226  1  0.747800  0.303800  0.034700  1.0
  C  C7227  1  0.002200  0.946200  0.534700  1.0
  C  C7228  1  0.247800  0.446200  0.215300  1.0
  C  C7229  1  0.752200  0.465300  0.196200  1.0
  C  C7230  1  0.997800  0.784700  0.696200  1.0
  C  C7231  1  0.252200  0.284700  0.053800  1.0
  C  C7232  1  0.497800  0.965300  0.553800  1.0
  C  C7233  1  0.965300  0.553800  0.497800  1.0
  C  C7234  1  0.284700  0.053800  0.252200  1.0
  C  C7235  1  0.784700  0.696200  0.997800  1.0
  C  C7236  1  0.465300  0.196200  0.752200  1.0
  C  C7237  1  0.053800  0.252200  0.284700  1.0
  C  C7238  1  0.553800  0.497800  0.965300  1.0
  C  C7239  1  0.196200  0.752200  0.465300  1.0
  C  C7240  1  0.696200  0.997800  0.784700  1.0
  C  C7241  1  0.715300  0.002200  0.303800  1.0
  C  C7242  1  0.034700  0.247800  0.803800  1.0
  C  C7243  1  0.534700  0.502200  0.446200  1.0
  C  C7244  1  0.215300  0.747800  0.946200  1.0
  C  C7245  1  0.803800  0.215300  0.002200  1.0
  C  C7246  1  0.303800  0.534700  0.247800  1.0
  C  C7247  1  0.946200  0.034700  0.502200  1.0
  C  C7248  1  0.446200  0.715300  0.747800  1.0
  C  C7249  1  0.502200  0.303800  0.215300  1.0
  C  C7250  1  0.747800  0.803800  0.534700  1.0
  C  C7251  1  0.002200  0.446200  0.034700  1.0
  C  C7252  1  0.247800  0.946200  0.715300  1.0
  C  C7253  1  0.752200  0.965300  0.696200  1.0
  C  C7254  1  0.997800  0.284700  0.196200  1.0
  C  C7255  1  0.252200  0.784700  0.553800  1.0
  C  C7256  1  0.497800  0.465300  0.053800  1.0
  C  C7257  1  0.965300  0.053800  0.997800  1.0
  C  C7258  1  0.284700  0.553800  0.752200  1.0
  C  C7259  1  0.784700  0.196200  0.497800  1.0
  C  C7260  1  0.465300  0.696200  0.252200  1.0
  C  C7261  1  0.053800  0.752200  0.784700  1.0
  C  C7262  1  0.553800  0.997800  0.465300  1.0
  C  C7263  1  0.196200  0.252200  0.965300  1.0
  C  C7264  1  0.696200  0.497800  0.284700  1.0
  C  C7265  1  0.215300  0.502200  0.303800  1.0
  C  C7266  1  0.534700  0.747800  0.803800  1.0
  C  C7267  1  0.034700  0.002200  0.446200  1.0
  C  C7268  1  0.715300  0.247800  0.946200  1.0
  C  C7269  1  0.303800  0.715300  0.002200  1.0
  C  C7270  1  0.803800  0.034700  0.247800  1.0
  C  C7271  1  0.446200  0.534700  0.502200  1.0
  C  C7272  1  0.946200  0.215300  0.747800  1.0
  C  C7273  1  0.002200  0.803800  0.215300  1.0
  C  C7274  1  0.247800  0.303800  0.534700  1.0
  C  C7275  1  0.502200  0.946200  0.034700  1.0
  C  C7276  1  0.747800  0.446200  0.715300  1.0
  C  C7277  1  0.252200  0.465300  0.696200  1.0
  C  C7278  1  0.497800  0.784700  0.196200  1.0
  C  C7279  1  0.752200  0.284700  0.553800  1.0
  C  C7280  1  0.997800  0.965300  0.053800  1.0
  C  C7281  1  0.465300  0.553800  0.997800  1.0
  C  C7282  1  0.784700  0.053800  0.752200  1.0
  C  C7283  1  0.284700  0.696200  0.497800  1.0
  C  C7284  1  0.965300  0.196200  0.252200  1.0
  C  C7285  1  0.553800  0.252200  0.784700  1.0
  C  C7286  1  0.053800  0.497800  0.465300  1.0
  C  C7287  1  0.696200  0.752200  0.965300  1.0
  C  C7288  1  0.196200  0.997800  0.284700  1.0
  C  C7289  1  0.215300  0.002200  0.803800  1.0
  C  C7290  1  0.534700  0.247800  0.303800  1.0
  C  C7291  1  0.034700  0.502200  0.946200  1.0
  C  C7292  1  0.715300  0.747800  0.446200  1.0
  C  C7293  1  0.303800  0.215300  0.502200  1.0
  C  C7294  1  0.803800  0.534700  0.747800  1.0
  C  C7295  1  0.446200  0.034700  0.002200  1.0
  C  C7296  1  0.946200  0.715300  0.247800  1.0
  C  C7297  1  0.002200  0.303800  0.715300  1.0
  C  C7298  1  0.247800  0.803800  0.034700  1.0
  C  C7299  1  0.502200  0.446200  0.534700  1.0
  C  C7300  1  0.747800  0.946200  0.215300  1.0
  C  C7301  1  0.252200  0.965300  0.196200  1.0
  C  C7302  1  0.497800  0.284700  0.696200  1.0
  C  C7303  1  0.752200  0.784700  0.053800  1.0
  C  C7304  1  0.997800  0.465300  0.553800  1.0
  C  C7305  1  0.465300  0.053800  0.497800  1.0
  C  C7306  1  0.784700  0.553800  0.252200  1.0
  C  C7307  1  0.284700  0.196200  0.997800  1.0
  C  C7308  1  0.965300  0.696200  0.752200  1.0
  C  C7309  1  0.553800  0.752200  0.284700  1.0
  C  C7310  1  0.053800  0.997800  0.965300  1.0
  C  C7311  1  0.696200  0.252200  0.465300  1.0
  C  C7312  1  0.196200  0.497800  0.784700  1.0
  C  C7313  1  0.382900  0.394200  0.409600  1.0
  C  C7314  1  0.867100  0.355800  0.909600  1.0
  C  C7315  1  0.367100  0.894200  0.840400  1.0
  C  C7316  1  0.882900  0.855800  0.340400  1.0
  C  C7317  1  0.409600  0.382900  0.394200  1.0
  C  C7318  1  0.909600  0.867100  0.355800  1.0
  C  C7319  1  0.840400  0.367100  0.894200  1.0
  C  C7320  1  0.340400  0.882900  0.855800  1.0
  C  C7321  1  0.394200  0.409600  0.382900  1.0
  C  C7322  1  0.355800  0.909600  0.867100  1.0
  C  C7323  1  0.894200  0.840400  0.367100  1.0
  C  C7324  1  0.855800  0.340400  0.882900  1.0
  C  C7325  1  0.144200  0.632900  0.590400  1.0
  C  C7326  1  0.105800  0.117100  0.090400  1.0
  C  C7327  1  0.644200  0.617100  0.159600  1.0
  C  C7328  1  0.605800  0.132900  0.659600  1.0
  C  C7329  1  0.132900  0.659600  0.605800  1.0
  C  C7330  1  0.617100  0.159600  0.644200  1.0
  C  C7331  1  0.117100  0.090400  0.105800  1.0
  C  C7332  1  0.632900  0.590400  0.144200  1.0
  C  C7333  1  0.159600  0.644200  0.617100  1.0
  C  C7334  1  0.659600  0.605800  0.132900  1.0
  C  C7335  1  0.590400  0.144200  0.632900  1.0
  C  C7336  1  0.090400  0.105800  0.117100  1.0
  C  C7337  1  0.382900  0.894200  0.909600  1.0
  C  C7338  1  0.867100  0.855800  0.409600  1.0
  C  C7339  1  0.367100  0.394200  0.340400  1.0
  C  C7340  1  0.882900  0.355800  0.840400  1.0
  C  C7341  1  0.409600  0.882900  0.894200  1.0
  C  C7342  1  0.909600  0.367100  0.855800  1.0
  C  C7343  1  0.840400  0.867100  0.394200  1.0
  C  C7344  1  0.340400  0.382900  0.355800  1.0
  C  C7345  1  0.394200  0.909600  0.882900  1.0
  C  C7346  1  0.355800  0.409600  0.367100  1.0
  C  C7347  1  0.894200  0.340400  0.867100  1.0
  C  C7348  1  0.855800  0.840400  0.382900  1.0
  C  C7349  1  0.144200  0.132900  0.090400  1.0
  C  C7350  1  0.105800  0.617100  0.590400  1.0
  C  C7351  1  0.644200  0.117100  0.659600  1.0
  C  C7352  1  0.605800  0.632900  0.159600  1.0
  C  C7353  1  0.132900  0.159600  0.105800  1.0
  C  C7354  1  0.617100  0.659600  0.144200  1.0
  C  C7355  1  0.117100  0.590400  0.605800  1.0
  C  C7356  1  0.632900  0.090400  0.644200  1.0
  C  C7357  1  0.159600  0.144200  0.117100  1.0
  C  C7358  1  0.659600  0.105800  0.632900  1.0
  C  C7359  1  0.590400  0.644200  0.132900  1.0
  C  C7360  1  0.090400  0.605800  0.617100  1.0
  C  C7361  1  0.882900  0.394200  0.909600  1.0
  C  C7362  1  0.367100  0.355800  0.409600  1.0
  C  C7363  1  0.867100  0.894200  0.340400  1.0
  C  C7364  1  0.382900  0.855800  0.840400  1.0
  C  C7365  1  0.909600  0.382900  0.894200  1.0
  C  C7366  1  0.409600  0.867100  0.855800  1.0
  C  C7367  1  0.340400  0.367100  0.394200  1.0
  C  C7368  1  0.840400  0.882900  0.355800  1.0
  C  C7369  1  0.894200  0.409600  0.882900  1.0
  C  C7370  1  0.855800  0.909600  0.367100  1.0
  C  C7371  1  0.394200  0.840400  0.867100  1.0
  C  C7372  1  0.355800  0.340400  0.382900  1.0
  C  C7373  1  0.644200  0.632900  0.090400  1.0
  C  C7374  1  0.605800  0.117100  0.590400  1.0
  C  C7375  1  0.144200  0.617100  0.659600  1.0
  C  C7376  1  0.105800  0.132900  0.159600  1.0
  C  C7377  1  0.632900  0.659600  0.105800  1.0
  C  C7378  1  0.117100  0.159600  0.144200  1.0
  C  C7379  1  0.617100  0.090400  0.605800  1.0
  C  C7380  1  0.132900  0.590400  0.644200  1.0
  C  C7381  1  0.659600  0.644200  0.117100  1.0
  C  C7382  1  0.159600  0.605800  0.632900  1.0
  C  C7383  1  0.090400  0.144200  0.132900  1.0
  C  C7384  1  0.590400  0.105800  0.617100  1.0
  C  C7385  1  0.882900  0.894200  0.409600  1.0
  C  C7386  1  0.367100  0.855800  0.909600  1.0
  C  C7387  1  0.867100  0.394200  0.840400  1.0
  C  C7388  1  0.382900  0.355800  0.340400  1.0
  C  C7389  1  0.909600  0.882900  0.394200  1.0
  C  C7390  1  0.409600  0.367100  0.355800  1.0
  C  C7391  1  0.340400  0.867100  0.894200  1.0
  C  C7392  1  0.840400  0.382900  0.855800  1.0
  C  C7393  1  0.894200  0.909600  0.382900  1.0
  C  C7394  1  0.855800  0.409600  0.867100  1.0
  C  C7395  1  0.394200  0.340400  0.367100  1.0
  C  C7396  1  0.355800  0.840400  0.882900  1.0
  C  C7397  1  0.644200  0.132900  0.590400  1.0
  C  C7398  1  0.605800  0.617100  0.090400  1.0
  C  C7399  1  0.144200  0.117100  0.159600  1.0
  C  C7400  1  0.105800  0.632900  0.659600  1.0
  C  C7401  1  0.632900  0.159600  0.605800  1.0
  C  C7402  1  0.117100  0.659600  0.644200  1.0
  C  C7403  1  0.617100  0.590400  0.105800  1.0
  C  C7404  1  0.132900  0.090400  0.144200  1.0
  C  C7405  1  0.659600  0.144200  0.617100  1.0
  C  C7406  1  0.159600  0.105800  0.132900  1.0
  C  C7407  1  0.090400  0.644200  0.632900  1.0
  C  C7408  1  0.590400  0.605800  0.117100  1.0
  C  C7409  1  0.617100  0.605800  0.590400  1.0
  C  C7410  1  0.132900  0.644200  0.090400  1.0
  C  C7411  1  0.632900  0.105800  0.159600  1.0
  C  C7412  1  0.117100  0.144200  0.659600  1.0
  C  C7413  1  0.590400  0.617100  0.605800  1.0
  C  C7414  1  0.090400  0.132900  0.644200  1.0
  C  C7415  1  0.159600  0.632900  0.105800  1.0
  C  C7416  1  0.659600  0.117100  0.144200  1.0
  C  C7417  1  0.605800  0.590400  0.617100  1.0
  C  C7418  1  0.644200  0.090400  0.132900  1.0
  C  C7419  1  0.105800  0.159600  0.632900  1.0
  C  C7420  1  0.144200  0.659600  0.117100  1.0
  C  C7421  1  0.855800  0.367100  0.409600  1.0
  C  C7422  1  0.894200  0.882900  0.909600  1.0
  C  C7423  1  0.355800  0.382900  0.840400  1.0
  C  C7424  1  0.394200  0.867100  0.340400  1.0
  C  C7425  1  0.867100  0.340400  0.394200  1.0
  C  C7426  1  0.382900  0.840400  0.355800  1.0
  C  C7427  1  0.882900  0.909600  0.894200  1.0
  C  C7428  1  0.367100  0.409600  0.855800  1.0
  C  C7429  1  0.840400  0.355800  0.382900  1.0
  C  C7430  1  0.340400  0.394200  0.867100  1.0
  C  C7431  1  0.409600  0.855800  0.367100  1.0
  C  C7432  1  0.909600  0.894200  0.882900  1.0
  C  C7433  1  0.617100  0.105800  0.090400  1.0
  C  C7434  1  0.132900  0.144200  0.590400  1.0
  C  C7435  1  0.632900  0.605800  0.659600  1.0
  C  C7436  1  0.117100  0.644200  0.159600  1.0
  C  C7437  1  0.590400  0.117100  0.105800  1.0
  C  C7438  1  0.090400  0.632900  0.144200  1.0
  C  C7439  1  0.159600  0.132900  0.605800  1.0
  C  C7440  1  0.659600  0.617100  0.644200  1.0
  C  C7441  1  0.605800  0.090400  0.117100  1.0
  C  C7442  1  0.644200  0.590400  0.632900  1.0
  C  C7443  1  0.105800  0.659600  0.132900  1.0
  C  C7444  1  0.144200  0.159600  0.617100  1.0
  C  C7445  1  0.855800  0.867100  0.909600  1.0
  C  C7446  1  0.894200  0.382900  0.409600  1.0
  C  C7447  1  0.355800  0.882900  0.340400  1.0
  C  C7448  1  0.394200  0.367100  0.840400  1.0
  C  C7449  1  0.867100  0.840400  0.894200  1.0
  C  C7450  1  0.382900  0.340400  0.855800  1.0
  C  C7451  1  0.882900  0.409600  0.394200  1.0
  C  C7452  1  0.367100  0.909600  0.355800  1.0
  C  C7453  1  0.840400  0.855800  0.882900  1.0
  C  C7454  1  0.340400  0.894200  0.367100  1.0
  C  C7455  1  0.409600  0.355800  0.867100  1.0
  C  C7456  1  0.909600  0.394200  0.382900  1.0
  C  C7457  1  0.117100  0.605800  0.090400  1.0
  C  C7458  1  0.632900  0.644200  0.590400  1.0
  C  C7459  1  0.132900  0.105800  0.659600  1.0
  C  C7460  1  0.617100  0.144200  0.159600  1.0
  C  C7461  1  0.090400  0.617100  0.105800  1.0
  C  C7462  1  0.590400  0.132900  0.144200  1.0
  C  C7463  1  0.659600  0.632900  0.605800  1.0
  C  C7464  1  0.159600  0.117100  0.644200  1.0
  C  C7465  1  0.105800  0.590400  0.117100  1.0
  C  C7466  1  0.144200  0.090400  0.632900  1.0
  C  C7467  1  0.605800  0.159600  0.132900  1.0
  C  C7468  1  0.644200  0.659600  0.617100  1.0
  C  C7469  1  0.355800  0.367100  0.909600  1.0
  C  C7470  1  0.394200  0.882900  0.409600  1.0
  C  C7471  1  0.855800  0.382900  0.340400  1.0
  C  C7472  1  0.894200  0.867100  0.840400  1.0
  C  C7473  1  0.367100  0.340400  0.894200  1.0
  C  C7474  1  0.882900  0.840400  0.855800  1.0
  C  C7475  1  0.382900  0.909600  0.394200  1.0
  C  C7476  1  0.867100  0.409600  0.355800  1.0
  C  C7477  1  0.340400  0.355800  0.882900  1.0
  C  C7478  1  0.840400  0.394200  0.367100  1.0
  C  C7479  1  0.909600  0.855800  0.867100  1.0
  C  C7480  1  0.409600  0.894200  0.382900  1.0
  C  C7481  1  0.117100  0.105800  0.590400  1.0
  C  C7482  1  0.632900  0.144200  0.090400  1.0
  C  C7483  1  0.132900  0.605800  0.159600  1.0
  C  C7484  1  0.617100  0.644200  0.659600  1.0
  C  C7485  1  0.090400  0.117100  0.605800  1.0
  C  C7486  1  0.590400  0.632900  0.644200  1.0
  C  C7487  1  0.659600  0.132900  0.105800  1.0
  C  C7488  1  0.159600  0.617100  0.144200  1.0
  C  C7489  1  0.105800  0.090400  0.617100  1.0
  C  C7490  1  0.144200  0.590400  0.132900  1.0
  C  C7491  1  0.605800  0.659600  0.632900  1.0
  C  C7492  1  0.644200  0.159600  0.117100  1.0
  C  C7493  1  0.355800  0.867100  0.409600  1.0
  C  C7494  1  0.394200  0.382900  0.909600  1.0
  C  C7495  1  0.855800  0.882900  0.840400  1.0
  C  C7496  1  0.894200  0.367100  0.340400  1.0
  C  C7497  1  0.367100  0.840400  0.394200  1.0
  C  C7498  1  0.882900  0.340400  0.355800  1.0
  C  C7499  1  0.382900  0.409600  0.894200  1.0
  C  C7500  1  0.867100  0.909600  0.855800  1.0
  C  C7501  1  0.340400  0.855800  0.382900  1.0
  C  C7502  1  0.840400  0.894200  0.867100  1.0
  C  C7503  1  0.909600  0.355800  0.367100  1.0
  C  C7504  1  0.409600  0.394200  0.882900  1.0
  C  C7505  1  0.414300  0.482000  0.268700  1.0
  C  C7506  1  0.835700  0.268000  0.768700  1.0
  C  C7507  1  0.335700  0.982000  0.981300  1.0
  C  C7508  1  0.914300  0.768000  0.481300  1.0
  C  C7509  1  0.268700  0.414300  0.482000  1.0
  C  C7510  1  0.768700  0.835700  0.268000  1.0
  C  C7511  1  0.981300  0.335700  0.982000  1.0
  C  C7512  1  0.481300  0.914300  0.768000  1.0
  C  C7513  1  0.482000  0.268700  0.414300  1.0
  C  C7514  1  0.268000  0.768700  0.835700  1.0
  C  C7515  1  0.982000  0.981300  0.335700  1.0
  C  C7516  1  0.768000  0.481300  0.914300  1.0
  C  C7517  1  0.232000  0.664300  0.731300  1.0
  C  C7518  1  0.018000  0.085700  0.231300  1.0
  C  C7519  1  0.732000  0.585700  0.018700  1.0
  C  C7520  1  0.518000  0.164300  0.518700  1.0
  C  C7521  1  0.164300  0.518700  0.518000  1.0
  C  C7522  1  0.585700  0.018700  0.732000  1.0
  C  C7523  1  0.085700  0.231300  0.018000  1.0
  C  C7524  1  0.664300  0.731300  0.232000  1.0
  C  C7525  1  0.018700  0.732000  0.585700  1.0
  C  C7526  1  0.518700  0.518000  0.164300  1.0
  C  C7527  1  0.731300  0.232000  0.664300  1.0
  C  C7528  1  0.231300  0.018000  0.085700  1.0
  C  C7529  1  0.414300  0.982000  0.768700  1.0
  C  C7530  1  0.835700  0.768000  0.268700  1.0
  C  C7531  1  0.335700  0.482000  0.481300  1.0
  C  C7532  1  0.914300  0.268000  0.981300  1.0
  C  C7533  1  0.268700  0.914300  0.982000  1.0
  C  C7534  1  0.768700  0.335700  0.768000  1.0
  C  C7535  1  0.981300  0.835700  0.482000  1.0
  C  C7536  1  0.481300  0.414300  0.268000  1.0
  C  C7537  1  0.482000  0.768700  0.914300  1.0
  C  C7538  1  0.268000  0.268700  0.335700  1.0
  C  C7539  1  0.982000  0.481300  0.835700  1.0
  C  C7540  1  0.768000  0.981300  0.414300  1.0
  C  C7541  1  0.232000  0.164300  0.231300  1.0
  C  C7542  1  0.018000  0.585700  0.731300  1.0
  C  C7543  1  0.732000  0.085700  0.518700  1.0
  C  C7544  1  0.518000  0.664300  0.018700  1.0
  C  C7545  1  0.164300  0.018700  0.018000  1.0
  C  C7546  1  0.585700  0.518700  0.232000  1.0
  C  C7547  1  0.085700  0.731300  0.518000  1.0
  C  C7548  1  0.664300  0.231300  0.732000  1.0
  C  C7549  1  0.018700  0.232000  0.085700  1.0
  C  C7550  1  0.518700  0.018000  0.664300  1.0
  C  C7551  1  0.731300  0.732000  0.164300  1.0
  C  C7552  1  0.231300  0.518000  0.585700  1.0
  C  C7553  1  0.914300  0.482000  0.768700  1.0
  C  C7554  1  0.335700  0.268000  0.268700  1.0
  C  C7555  1  0.835700  0.982000  0.481300  1.0
  C  C7556  1  0.414300  0.768000  0.981300  1.0
  C  C7557  1  0.768700  0.414300  0.982000  1.0
  C  C7558  1  0.268700  0.835700  0.768000  1.0
  C  C7559  1  0.481300  0.335700  0.482000  1.0
  C  C7560  1  0.981300  0.914300  0.268000  1.0
  C  C7561  1  0.982000  0.268700  0.914300  1.0
  C  C7562  1  0.768000  0.768700  0.335700  1.0
  C  C7563  1  0.482000  0.981300  0.835700  1.0
  C  C7564  1  0.268000  0.481300  0.414300  1.0
  C  C7565  1  0.732000  0.664300  0.231300  1.0
  C  C7566  1  0.518000  0.085700  0.731300  1.0
  C  C7567  1  0.232000  0.585700  0.518700  1.0
  C  C7568  1  0.018000  0.164300  0.018700  1.0
  C  C7569  1  0.664300  0.518700  0.018000  1.0
  C  C7570  1  0.085700  0.018700  0.232000  1.0
  C  C7571  1  0.585700  0.231300  0.518000  1.0
  C  C7572  1  0.164300  0.731300  0.732000  1.0
  C  C7573  1  0.518700  0.732000  0.085700  1.0
  C  C7574  1  0.018700  0.518000  0.664300  1.0
  C  C7575  1  0.231300  0.232000  0.164300  1.0
  C  C7576  1  0.731300  0.018000  0.585700  1.0
  C  C7577  1  0.914300  0.982000  0.268700  1.0
  C  C7578  1  0.335700  0.768000  0.768700  1.0
  C  C7579  1  0.835700  0.482000  0.981300  1.0
  C  C7580  1  0.414300  0.268000  0.481300  1.0
  C  C7581  1  0.768700  0.914300  0.482000  1.0
  C  C7582  1  0.268700  0.335700  0.268000  1.0
  C  C7583  1  0.481300  0.835700  0.982000  1.0
  C  C7584  1  0.981300  0.414300  0.768000  1.0
  C  C7585  1  0.982000  0.768700  0.414300  1.0
  C  C7586  1  0.768000  0.268700  0.835700  1.0
  C  C7587  1  0.482000  0.481300  0.335700  1.0
  C  C7588  1  0.268000  0.981300  0.914300  1.0
  C  C7589  1  0.732000  0.164300  0.731300  1.0
  C  C7590  1  0.518000  0.585700  0.231300  1.0
  C  C7591  1  0.232000  0.085700  0.018700  1.0
  C  C7592  1  0.018000  0.664300  0.518700  1.0
  C  C7593  1  0.664300  0.018700  0.518000  1.0
  C  C7594  1  0.085700  0.518700  0.732000  1.0
  C  C7595  1  0.585700  0.731300  0.018000  1.0
  C  C7596  1  0.164300  0.231300  0.232000  1.0
  C  C7597  1  0.518700  0.232000  0.585700  1.0
  C  C7598  1  0.018700  0.018000  0.164300  1.0
  C  C7599  1  0.231300  0.732000  0.664300  1.0
  C  C7600  1  0.731300  0.518000  0.085700  1.0
  C  C7601  1  0.585700  0.518000  0.731300  1.0
  C  C7602  1  0.164300  0.732000  0.231300  1.0
  C  C7603  1  0.664300  0.018000  0.018700  1.0
  C  C7604  1  0.085700  0.232000  0.518700  1.0
  C  C7605  1  0.731300  0.585700  0.518000  1.0
  C  C7606  1  0.231300  0.164300  0.732000  1.0
  C  C7607  1  0.018700  0.664300  0.018000  1.0
  C  C7608  1  0.518700  0.085700  0.232000  1.0
  C  C7609  1  0.518000  0.731300  0.585700  1.0
  C  C7610  1  0.732000  0.231300  0.164300  1.0
  C  C7611  1  0.018000  0.018700  0.664300  1.0
  C  C7612  1  0.232000  0.518700  0.085700  1.0
  C  C7613  1  0.768000  0.335700  0.268700  1.0
  C  C7614  1  0.982000  0.914300  0.768700  1.0
  C  C7615  1  0.268000  0.414300  0.981300  1.0
  C  C7616  1  0.482000  0.835700  0.481300  1.0
  C  C7617  1  0.835700  0.481300  0.482000  1.0
  C  C7618  1  0.414300  0.981300  0.268000  1.0
  C  C7619  1  0.914300  0.768700  0.982000  1.0
  C  C7620  1  0.335700  0.268700  0.768000  1.0
  C  C7621  1  0.981300  0.268000  0.414300  1.0
  C  C7622  1  0.481300  0.482000  0.835700  1.0
  C  C7623  1  0.268700  0.768000  0.335700  1.0
  C  C7624  1  0.768700  0.982000  0.914300  1.0
  C  C7625  1  0.585700  0.018000  0.231300  1.0
  C  C7626  1  0.164300  0.232000  0.731300  1.0
  C  C7627  1  0.664300  0.518000  0.518700  1.0
  C  C7628  1  0.085700  0.732000  0.018700  1.0
  C  C7629  1  0.731300  0.085700  0.018000  1.0
  C  C7630  1  0.231300  0.664300  0.232000  1.0
  C  C7631  1  0.018700  0.164300  0.518000  1.0
  C  C7632  1  0.518700  0.585700  0.732000  1.0
  C  C7633  1  0.518000  0.231300  0.085700  1.0
  C  C7634  1  0.732000  0.731300  0.664300  1.0
  C  C7635  1  0.018000  0.518700  0.164300  1.0
  C  C7636  1  0.232000  0.018700  0.585700  1.0
  C  C7637  1  0.768000  0.835700  0.768700  1.0
  C  C7638  1  0.982000  0.414300  0.268700  1.0
  C  C7639  1  0.268000  0.914300  0.481300  1.0
  C  C7640  1  0.482000  0.335700  0.981300  1.0
  C  C7641  1  0.835700  0.981300  0.982000  1.0
  C  C7642  1  0.414300  0.481300  0.768000  1.0
  C  C7643  1  0.914300  0.268700  0.482000  1.0
  C  C7644  1  0.335700  0.768700  0.268000  1.0
  C  C7645  1  0.981300  0.768000  0.914300  1.0
  C  C7646  1  0.481300  0.982000  0.335700  1.0
  C  C7647  1  0.268700  0.268000  0.835700  1.0
  C  C7648  1  0.768700  0.482000  0.414300  1.0
  C  C7649  1  0.085700  0.518000  0.231300  1.0
  C  C7650  1  0.664300  0.732000  0.731300  1.0
  C  C7651  1  0.164300  0.018000  0.518700  1.0
  C  C7652  1  0.585700  0.232000  0.018700  1.0
  C  C7653  1  0.231300  0.585700  0.018000  1.0
  C  C7654  1  0.731300  0.164300  0.232000  1.0
  C  C7655  1  0.518700  0.664300  0.518000  1.0
  C  C7656  1  0.018700  0.085700  0.732000  1.0
  C  C7657  1  0.018000  0.731300  0.085700  1.0
  C  C7658  1  0.232000  0.231300  0.664300  1.0
  C  C7659  1  0.518000  0.018700  0.164300  1.0
  C  C7660  1  0.732000  0.518700  0.585700  1.0
  C  C7661  1  0.268000  0.335700  0.768700  1.0
  C  C7662  1  0.482000  0.914300  0.268700  1.0
  C  C7663  1  0.768000  0.414300  0.481300  1.0
  C  C7664  1  0.982000  0.835700  0.981300  1.0
  C  C7665  1  0.335700  0.481300  0.982000  1.0
  C  C7666  1  0.914300  0.981300  0.768000  1.0
  C  C7667  1  0.414300  0.768700  0.482000  1.0
  C  C7668  1  0.835700  0.268700  0.268000  1.0
  C  C7669  1  0.481300  0.268000  0.914300  1.0
  C  C7670  1  0.981300  0.482000  0.335700  1.0
  C  C7671  1  0.768700  0.768000  0.835700  1.0
  C  C7672  1  0.268700  0.982000  0.414300  1.0
  C  C7673  1  0.085700  0.018000  0.731300  1.0
  C  C7674  1  0.664300  0.232000  0.231300  1.0
  C  C7675  1  0.164300  0.518000  0.018700  1.0
  C  C7676  1  0.585700  0.732000  0.518700  1.0
  C  C7677  1  0.231300  0.085700  0.518000  1.0
  C  C7678  1  0.731300  0.664300  0.732000  1.0
  C  C7679  1  0.518700  0.164300  0.018000  1.0
  C  C7680  1  0.018700  0.585700  0.232000  1.0
  C  C7681  1  0.018000  0.231300  0.585700  1.0
  C  C7682  1  0.232000  0.731300  0.164300  1.0
  C  C7683  1  0.518000  0.518700  0.664300  1.0
  C  C7684  1  0.732000  0.018700  0.085700  1.0
  C  C7685  1  0.268000  0.835700  0.268700  1.0
  C  C7686  1  0.482000  0.414300  0.768700  1.0
  C  C7687  1  0.768000  0.914300  0.981300  1.0
  C  C7688  1  0.982000  0.335700  0.481300  1.0
  C  C7689  1  0.335700  0.981300  0.482000  1.0
  C  C7690  1  0.914300  0.481300  0.268000  1.0
  C  C7691  1  0.414300  0.268700  0.982000  1.0
  C  C7692  1  0.835700  0.768700  0.768000  1.0
  C  C7693  1  0.481300  0.768000  0.414300  1.0
  C  C7694  1  0.981300  0.982000  0.835700  1.0
  C  C7695  1  0.768700  0.268000  0.335700  1.0
  C  C7696  1  0.268700  0.482000  0.914300  1.0
  C  C7697  1  0.430700  0.504200  0.268100  1.0
  C  C7698  1  0.819300  0.245800  0.768100  1.0
  C  C7699  1  0.319300  0.004200  0.981900  1.0
  C  C7700  1  0.930700  0.745800  0.481900  1.0
  C  C7701  1  0.268100  0.430700  0.504200  1.0
  C  C7702  1  0.768100  0.819300  0.245800  1.0
  C  C7703  1  0.981900  0.319300  0.004200  1.0
  C  C7704  1  0.481900  0.930700  0.745800  1.0
  C  C7705  1  0.504200  0.268100  0.430700  1.0
  C  C7706  1  0.245800  0.768100  0.819300  1.0
  C  C7707  1  0.004200  0.981900  0.319300  1.0
  C  C7708  1  0.745800  0.481900  0.930700  1.0
  C  C7709  1  0.254200  0.680700  0.731900  1.0
  C  C7710  1  0.995800  0.069300  0.231900  1.0
  C  C7711  1  0.754200  0.569300  0.018100  1.0
  C  C7712  1  0.495800  0.180700  0.518100  1.0
  C  C7713  1  0.180700  0.518100  0.495800  1.0
  C  C7714  1  0.569300  0.018100  0.754200  1.0
  C  C7715  1  0.069300  0.231900  0.995800  1.0
  C  C7716  1  0.680700  0.731900  0.254200  1.0
  C  C7717  1  0.018100  0.754200  0.569300  1.0
  C  C7718  1  0.518100  0.495800  0.180700  1.0
  C  C7719  1  0.731900  0.254200  0.680700  1.0
  C  C7720  1  0.231900  0.995800  0.069300  1.0
  C  C7721  1  0.430700  0.004200  0.768100  1.0
  C  C7722  1  0.819300  0.745800  0.268100  1.0
  C  C7723  1  0.319300  0.504200  0.481900  1.0
  C  C7724  1  0.930700  0.245800  0.981900  1.0
  C  C7725  1  0.268100  0.930700  0.004200  1.0
  C  C7726  1  0.768100  0.319300  0.745800  1.0
  C  C7727  1  0.981900  0.819300  0.504200  1.0
  C  C7728  1  0.481900  0.430700  0.245800  1.0
  C  C7729  1  0.504200  0.768100  0.930700  1.0
  C  C7730  1  0.245800  0.268100  0.319300  1.0
  C  C7731  1  0.004200  0.481900  0.819300  1.0
  C  C7732  1  0.745800  0.981900  0.430700  1.0
  C  C7733  1  0.254200  0.180700  0.231900  1.0
  C  C7734  1  0.995800  0.569300  0.731900  1.0
  C  C7735  1  0.754200  0.069300  0.518100  1.0
  C  C7736  1  0.495800  0.680700  0.018100  1.0
  C  C7737  1  0.180700  0.018100  0.995800  1.0
  C  C7738  1  0.569300  0.518100  0.254200  1.0
  C  C7739  1  0.069300  0.731900  0.495800  1.0
  C  C7740  1  0.680700  0.231900  0.754200  1.0
  C  C7741  1  0.018100  0.254200  0.069300  1.0
  C  C7742  1  0.518100  0.995800  0.680700  1.0
  C  C7743  1  0.731900  0.754200  0.180700  1.0
  C  C7744  1  0.231900  0.495800  0.569300  1.0
  C  C7745  1  0.930700  0.504200  0.768100  1.0
  C  C7746  1  0.319300  0.245800  0.268100  1.0
  C  C7747  1  0.819300  0.004200  0.481900  1.0
  C  C7748  1  0.430700  0.745800  0.981900  1.0
  C  C7749  1  0.768100  0.430700  0.004200  1.0
  C  C7750  1  0.268100  0.819300  0.745800  1.0
  C  C7751  1  0.481900  0.319300  0.504200  1.0
  C  C7752  1  0.981900  0.930700  0.245800  1.0
  C  C7753  1  0.004200  0.268100  0.930700  1.0
  C  C7754  1  0.745800  0.768100  0.319300  1.0
  C  C7755  1  0.504200  0.981900  0.819300  1.0
  C  C7756  1  0.245800  0.481900  0.430700  1.0
  C  C7757  1  0.754200  0.680700  0.231900  1.0
  C  C7758  1  0.495800  0.069300  0.731900  1.0
  C  C7759  1  0.254200  0.569300  0.518100  1.0
  C  C7760  1  0.995800  0.180700  0.018100  1.0
  C  C7761  1  0.680700  0.518100  0.995800  1.0
  C  C7762  1  0.069300  0.018100  0.254200  1.0
  C  C7763  1  0.569300  0.231900  0.495800  1.0
  C  C7764  1  0.180700  0.731900  0.754200  1.0
  C  C7765  1  0.518100  0.754200  0.069300  1.0
  C  C7766  1  0.018100  0.495800  0.680700  1.0
  C  C7767  1  0.231900  0.254200  0.180700  1.0
  C  C7768  1  0.731900  0.995800  0.569300  1.0
  C  C7769  1  0.930700  0.004200  0.268100  1.0
  C  C7770  1  0.319300  0.745800  0.768100  1.0
  C  C7771  1  0.819300  0.504200  0.981900  1.0
  C  C7772  1  0.430700  0.245800  0.481900  1.0
  C  C7773  1  0.768100  0.930700  0.504200  1.0
  C  C7774  1  0.268100  0.319300  0.245800  1.0
  C  C7775  1  0.481900  0.819300  0.004200  1.0
  C  C7776  1  0.981900  0.430700  0.745800  1.0
  C  C7777  1  0.004200  0.768100  0.430700  1.0
  C  C7778  1  0.745800  0.268100  0.819300  1.0
  C  C7779  1  0.504200  0.481900  0.319300  1.0
  C  C7780  1  0.245800  0.981900  0.930700  1.0
  C  C7781  1  0.754200  0.180700  0.731900  1.0
  C  C7782  1  0.495800  0.569300  0.231900  1.0
  C  C7783  1  0.254200  0.069300  0.018100  1.0
  C  C7784  1  0.995800  0.680700  0.518100  1.0
  C  C7785  1  0.680700  0.018100  0.495800  1.0
  C  C7786  1  0.069300  0.518100  0.754200  1.0
  C  C7787  1  0.569300  0.731900  0.995800  1.0
  C  C7788  1  0.180700  0.231900  0.254200  1.0
  C  C7789  1  0.518100  0.254200  0.569300  1.0
  C  C7790  1  0.018100  0.995800  0.180700  1.0
  C  C7791  1  0.231900  0.754200  0.680700  1.0
  C  C7792  1  0.731900  0.495800  0.069300  1.0
  C  C7793  1  0.569300  0.495800  0.731900  1.0
  C  C7794  1  0.180700  0.754200  0.231900  1.0
  C  C7795  1  0.680700  0.995800  0.018100  1.0
  C  C7796  1  0.069300  0.254200  0.518100  1.0
  C  C7797  1  0.731900  0.569300  0.495800  1.0
  C  C7798  1  0.231900  0.180700  0.754200  1.0
  C  C7799  1  0.018100  0.680700  0.995800  1.0
  C  C7800  1  0.518100  0.069300  0.254200  1.0
  C  C7801  1  0.495800  0.731900  0.569300  1.0
  C  C7802  1  0.754200  0.231900  0.180700  1.0
  C  C7803  1  0.995800  0.018100  0.680700  1.0
  C  C7804  1  0.254200  0.518100  0.069300  1.0
  C  C7805  1  0.745800  0.319300  0.268100  1.0
  C  C7806  1  0.004200  0.930700  0.768100  1.0
  C  C7807  1  0.245800  0.430700  0.981900  1.0
  C  C7808  1  0.504200  0.819300  0.481900  1.0
  C  C7809  1  0.819300  0.481900  0.504200  1.0
  C  C7810  1  0.430700  0.981900  0.245800  1.0
  C  C7811  1  0.930700  0.768100  0.004200  1.0
  C  C7812  1  0.319300  0.268100  0.745800  1.0
  C  C7813  1  0.981900  0.245800  0.430700  1.0
  C  C7814  1  0.481900  0.504200  0.819300  1.0
  C  C7815  1  0.268100  0.745800  0.319300  1.0
  C  C7816  1  0.768100  0.004200  0.930700  1.0
  C  C7817  1  0.569300  0.995800  0.231900  1.0
  C  C7818  1  0.180700  0.254200  0.731900  1.0
  C  C7819  1  0.680700  0.495800  0.518100  1.0
  C  C7820  1  0.069300  0.754200  0.018100  1.0
  C  C7821  1  0.731900  0.069300  0.995800  1.0
  C  C7822  1  0.231900  0.680700  0.254200  1.0
  C  C7823  1  0.018100  0.180700  0.495800  1.0
  C  C7824  1  0.518100  0.569300  0.754200  1.0
  C  C7825  1  0.495800  0.231900  0.069300  1.0
  C  C7826  1  0.754200  0.731900  0.680700  1.0
  C  C7827  1  0.995800  0.518100  0.180700  1.0
  C  C7828  1  0.254200  0.018100  0.569300  1.0
  C  C7829  1  0.745800  0.819300  0.768100  1.0
  C  C7830  1  0.004200  0.430700  0.268100  1.0
  C  C7831  1  0.245800  0.930700  0.481900  1.0
  C  C7832  1  0.504200  0.319300  0.981900  1.0
  C  C7833  1  0.819300  0.981900  0.004200  1.0
  C  C7834  1  0.430700  0.481900  0.745800  1.0
  C  C7835  1  0.930700  0.268100  0.504200  1.0
  C  C7836  1  0.319300  0.768100  0.245800  1.0
  C  C7837  1  0.981900  0.745800  0.930700  1.0
  C  C7838  1  0.481900  0.004200  0.319300  1.0
  C  C7839  1  0.268100  0.245800  0.819300  1.0
  C  C7840  1  0.768100  0.504200  0.430700  1.0
  C  C7841  1  0.069300  0.495800  0.231900  1.0
  C  C7842  1  0.680700  0.754200  0.731900  1.0
  C  C7843  1  0.180700  0.995800  0.518100  1.0
  C  C7844  1  0.569300  0.254200  0.018100  1.0
  C  C7845  1  0.231900  0.569300  0.995800  1.0
  C  C7846  1  0.731900  0.180700  0.254200  1.0
  C  C7847  1  0.518100  0.680700  0.495800  1.0
  C  C7848  1  0.018100  0.069300  0.754200  1.0
  C  C7849  1  0.995800  0.731900  0.069300  1.0
  C  C7850  1  0.254200  0.231900  0.680700  1.0
  C  C7851  1  0.495800  0.018100  0.180700  1.0
  C  C7852  1  0.754200  0.518100  0.569300  1.0
  C  C7853  1  0.245800  0.319300  0.768100  1.0
  C  C7854  1  0.504200  0.930700  0.268100  1.0
  C  C7855  1  0.745800  0.430700  0.481900  1.0
  C  C7856  1  0.004200  0.819300  0.981900  1.0
  C  C7857  1  0.319300  0.481900  0.004200  1.0
  C  C7858  1  0.930700  0.981900  0.745800  1.0
  C  C7859  1  0.430700  0.768100  0.504200  1.0
  C  C7860  1  0.819300  0.268100  0.245800  1.0
  C  C7861  1  0.481900  0.245800  0.930700  1.0
  C  C7862  1  0.981900  0.504200  0.319300  1.0
  C  C7863  1  0.768100  0.745800  0.819300  1.0
  C  C7864  1  0.268100  0.004200  0.430700  1.0
  C  C7865  1  0.069300  0.995800  0.731900  1.0
  C  C7866  1  0.680700  0.254200  0.231900  1.0
  C  C7867  1  0.180700  0.495800  0.018100  1.0
  C  C7868  1  0.569300  0.754200  0.518100  1.0
  C  C7869  1  0.231900  0.069300  0.495800  1.0
  C  C7870  1  0.731900  0.680700  0.754200  1.0
  C  C7871  1  0.518100  0.180700  0.995800  1.0
  C  C7872  1  0.018100  0.569300  0.254200  1.0
  C  C7873  1  0.995800  0.231900  0.569300  1.0
  C  C7874  1  0.254200  0.731900  0.180700  1.0
  C  C7875  1  0.495800  0.518100  0.680700  1.0
  C  C7876  1  0.754200  0.018100  0.069300  1.0
  C  C7877  1  0.245800  0.819300  0.268100  1.0
  C  C7878  1  0.504200  0.430700  0.768100  1.0
  C  C7879  1  0.745800  0.930700  0.981900  1.0
  C  C7880  1  0.004200  0.319300  0.481900  1.0
  C  C7881  1  0.319300  0.981900  0.504200  1.0
  C  C7882  1  0.930700  0.481900  0.245800  1.0
  C  C7883  1  0.430700  0.268100  0.004200  1.0
  C  C7884  1  0.819300  0.768100  0.745800  1.0
  C  C7885  1  0.481900  0.745800  0.430700  1.0
  C  C7886  1  0.981900  0.004200  0.819300  1.0
  C  C7887  1  0.768100  0.245800  0.319300  1.0
  C  C7888  1  0.268100  0.504200  0.930700  1.0
  C  C7889  1  0.419900  0.528200  0.259400  1.0
  C  C7890  1  0.830100  0.221800  0.759400  1.0
  C  C7891  1  0.330100  0.028200  0.990600  1.0
  C  C7892  1  0.919900  0.721800  0.490600  1.0
  C  C7893  1  0.259400  0.419900  0.528200  1.0
  C  C7894  1  0.759400  0.830100  0.221800  1.0
  C  C7895  1  0.990600  0.330100  0.028200  1.0
  C  C7896  1  0.490600  0.919900  0.721800  1.0
  C  C7897  1  0.528200  0.259400  0.419900  1.0
  C  C7898  1  0.221800  0.759400  0.830100  1.0
  C  C7899  1  0.028200  0.990600  0.330100  1.0
  C  C7900  1  0.721800  0.490600  0.919900  1.0
  C  C7901  1  0.278200  0.669900  0.740600  1.0
  C  C7902  1  0.971800  0.080100  0.240600  1.0
  C  C7903  1  0.778200  0.580100  0.009400  1.0
  C  C7904  1  0.471800  0.169900  0.509400  1.0
  C  C7905  1  0.169900  0.509400  0.471800  1.0
  C  C7906  1  0.580100  0.009400  0.778200  1.0
  C  C7907  1  0.080100  0.240600  0.971800  1.0
  C  C7908  1  0.669900  0.740600  0.278200  1.0
  C  C7909  1  0.009400  0.778200  0.580100  1.0
  C  C7910  1  0.509400  0.471800  0.169900  1.0
  C  C7911  1  0.740600  0.278200  0.669900  1.0
  C  C7912  1  0.240600  0.971800  0.080100  1.0
  C  C7913  1  0.419900  0.028200  0.759400  1.0
  C  C7914  1  0.830100  0.721800  0.259400  1.0
  C  C7915  1  0.330100  0.528200  0.490600  1.0
  C  C7916  1  0.919900  0.221800  0.990600  1.0
  C  C7917  1  0.259400  0.919900  0.028200  1.0
  C  C7918  1  0.759400  0.330100  0.721800  1.0
  C  C7919  1  0.990600  0.830100  0.528200  1.0
  C  C7920  1  0.490600  0.419900  0.221800  1.0
  C  C7921  1  0.528200  0.759400  0.919900  1.0
  C  C7922  1  0.221800  0.259400  0.330100  1.0
  C  C7923  1  0.028200  0.490600  0.830100  1.0
  C  C7924  1  0.721800  0.990600  0.419900  1.0
  C  C7925  1  0.278200  0.169900  0.240600  1.0
  C  C7926  1  0.971800  0.580100  0.740600  1.0
  C  C7927  1  0.778200  0.080100  0.509400  1.0
  C  C7928  1  0.471800  0.669900  0.009400  1.0
  C  C7929  1  0.169900  0.009400  0.971800  1.0
  C  C7930  1  0.580100  0.509400  0.278200  1.0
  C  C7931  1  0.080100  0.740600  0.471800  1.0
  C  C7932  1  0.669900  0.240600  0.778200  1.0
  C  C7933  1  0.009400  0.278200  0.080100  1.0
  C  C7934  1  0.509400  0.971800  0.669900  1.0
  C  C7935  1  0.740600  0.778200  0.169900  1.0
  C  C7936  1  0.240600  0.471800  0.580100  1.0
  C  C7937  1  0.919900  0.528200  0.759400  1.0
  C  C7938  1  0.330100  0.221800  0.259400  1.0
  C  C7939  1  0.830100  0.028200  0.490600  1.0
  C  C7940  1  0.419900  0.721800  0.990600  1.0
  C  C7941  1  0.759400  0.419900  0.028200  1.0
  C  C7942  1  0.259400  0.830100  0.721800  1.0
  C  C7943  1  0.490600  0.330100  0.528200  1.0
  C  C7944  1  0.990600  0.919900  0.221800  1.0
  C  C7945  1  0.028200  0.259400  0.919900  1.0
  C  C7946  1  0.721800  0.759400  0.330100  1.0
  C  C7947  1  0.528200  0.990600  0.830100  1.0
  C  C7948  1  0.221800  0.490600  0.419900  1.0
  C  C7949  1  0.778200  0.669900  0.240600  1.0
  C  C7950  1  0.471800  0.080100  0.740600  1.0
  C  C7951  1  0.278200  0.580100  0.509400  1.0
  C  C7952  1  0.971800  0.169900  0.009400  1.0
  C  C7953  1  0.669900  0.509400  0.971800  1.0
  C  C7954  1  0.080100  0.009400  0.278200  1.0
  C  C7955  1  0.580100  0.240600  0.471800  1.0
  C  C7956  1  0.169900  0.740600  0.778200  1.0
  C  C7957  1  0.509400  0.778200  0.080100  1.0
  C  C7958  1  0.009400  0.471800  0.669900  1.0
  C  C7959  1  0.240600  0.278200  0.169900  1.0
  C  C7960  1  0.740600  0.971800  0.580100  1.0
  C  C7961  1  0.919900  0.028200  0.259400  1.0
  C  C7962  1  0.330100  0.721800  0.759400  1.0
  C  C7963  1  0.830100  0.528200  0.990600  1.0
  C  C7964  1  0.419900  0.221800  0.490600  1.0
  C  C7965  1  0.759400  0.919900  0.528200  1.0
  C  C7966  1  0.259400  0.330100  0.221800  1.0
  C  C7967  1  0.490600  0.830100  0.028200  1.0
  C  C7968  1  0.990600  0.419900  0.721800  1.0
  C  C7969  1  0.028200  0.759400  0.419900  1.0
  C  C7970  1  0.721800  0.259400  0.830100  1.0
  C  C7971  1  0.528200  0.490600  0.330100  1.0
  C  C7972  1  0.221800  0.990600  0.919900  1.0
  C  C7973  1  0.778200  0.169900  0.740600  1.0
  C  C7974  1  0.471800  0.580100  0.240600  1.0
  C  C7975  1  0.278200  0.080100  0.009400  1.0
  C  C7976  1  0.971800  0.669900  0.509400  1.0
  C  C7977  1  0.669900  0.009400  0.471800  1.0
  C  C7978  1  0.080100  0.509400  0.778200  1.0
  C  C7979  1  0.580100  0.740600  0.971800  1.0
  C  C7980  1  0.169900  0.240600  0.278200  1.0
  C  C7981  1  0.509400  0.278200  0.580100  1.0
  C  C7982  1  0.009400  0.971800  0.169900  1.0
  C  C7983  1  0.240600  0.778200  0.669900  1.0
  C  C7984  1  0.740600  0.471800  0.080100  1.0
  C  C7985  1  0.580100  0.471800  0.740600  1.0
  C  C7986  1  0.169900  0.778200  0.240600  1.0
  C  C7987  1  0.669900  0.971800  0.009400  1.0
  C  C7988  1  0.080100  0.278200  0.509400  1.0
  C  C7989  1  0.740600  0.580100  0.471800  1.0
  C  C7990  1  0.240600  0.169900  0.778200  1.0
  C  C7991  1  0.009400  0.669900  0.971800  1.0
  C  C7992  1  0.509400  0.080100  0.278200  1.0
  C  C7993  1  0.471800  0.740600  0.580100  1.0
  C  C7994  1  0.778200  0.240600  0.169900  1.0
  C  C7995  1  0.971800  0.009400  0.669900  1.0
  C  C7996  1  0.278200  0.509400  0.080100  1.0
  C  C7997  1  0.721800  0.330100  0.259400  1.0
  C  C7998  1  0.028200  0.919900  0.759400  1.0
  C  C7999  1  0.221800  0.419900  0.990600  1.0
  C  C8000  1  0.528200  0.830100  0.490600  1.0
  C  C8001  1  0.830100  0.490600  0.528200  1.0
  C  C8002  1  0.419900  0.990600  0.221800  1.0
  C  C8003  1  0.919900  0.759400  0.028200  1.0
  C  C8004  1  0.330100  0.259400  0.721800  1.0
  C  C8005  1  0.990600  0.221800  0.419900  1.0
  C  C8006  1  0.490600  0.528200  0.830100  1.0
  C  C8007  1  0.259400  0.721800  0.330100  1.0
  C  C8008  1  0.759400  0.028200  0.919900  1.0
  C  C8009  1  0.580100  0.971800  0.240600  1.0
  C  C8010  1  0.169900  0.278200  0.740600  1.0
  C  C8011  1  0.669900  0.471800  0.509400  1.0
  C  C8012  1  0.080100  0.778200  0.009400  1.0
  C  C8013  1  0.740600  0.080100  0.971800  1.0
  C  C8014  1  0.240600  0.669900  0.278200  1.0
  C  C8015  1  0.009400  0.169900  0.471800  1.0
  C  C8016  1  0.509400  0.580100  0.778200  1.0
  C  C8017  1  0.471800  0.240600  0.080100  1.0
  C  C8018  1  0.778200  0.740600  0.669900  1.0
  C  C8019  1  0.971800  0.509400  0.169900  1.0
  C  C8020  1  0.278200  0.009400  0.580100  1.0
  C  C8021  1  0.721800  0.830100  0.759400  1.0
  C  C8022  1  0.028200  0.419900  0.259400  1.0
  C  C8023  1  0.221800  0.919900  0.490600  1.0
  C  C8024  1  0.528200  0.330100  0.990600  1.0
  C  C8025  1  0.830100  0.990600  0.028200  1.0
  C  C8026  1  0.419900  0.490600  0.721800  1.0
  C  C8027  1  0.919900  0.259400  0.528200  1.0
  C  C8028  1  0.330100  0.759400  0.221800  1.0
  C  C8029  1  0.990600  0.721800  0.919900  1.0
  C  C8030  1  0.490600  0.028200  0.330100  1.0
  C  C8031  1  0.259400  0.221800  0.830100  1.0
  C  C8032  1  0.759400  0.528200  0.419900  1.0
  C  C8033  1  0.080100  0.471800  0.240600  1.0
  C  C8034  1  0.669900  0.778200  0.740600  1.0
  C  C8035  1  0.169900  0.971800  0.509400  1.0
  C  C8036  1  0.580100  0.278200  0.009400  1.0
  C  C8037  1  0.240600  0.580100  0.971800  1.0
  C  C8038  1  0.740600  0.169900  0.278200  1.0
  C  C8039  1  0.509400  0.669900  0.471800  1.0
  C  C8040  1  0.009400  0.080100  0.778200  1.0
  C  C8041  1  0.971800  0.740600  0.080100  1.0
  C  C8042  1  0.278200  0.240600  0.669900  1.0
  C  C8043  1  0.471800  0.009400  0.169900  1.0
  C  C8044  1  0.778200  0.509400  0.580100  1.0
  C  C8045  1  0.221800  0.330100  0.759400  1.0
  C  C8046  1  0.528200  0.919900  0.259400  1.0
  C  C8047  1  0.721800  0.419900  0.490600  1.0
  C  C8048  1  0.028200  0.830100  0.990600  1.0
  C  C8049  1  0.330100  0.490600  0.028200  1.0
  C  C8050  1  0.919900  0.990600  0.721800  1.0
  C  C8051  1  0.419900  0.759400  0.528200  1.0
  C  C8052  1  0.830100  0.259400  0.221800  1.0
  C  C8053  1  0.490600  0.221800  0.919900  1.0
  C  C8054  1  0.990600  0.528200  0.330100  1.0
  C  C8055  1  0.759400  0.721800  0.830100  1.0
  C  C8056  1  0.259400  0.028200  0.419900  1.0
  C  C8057  1  0.080100  0.971800  0.740600  1.0
  C  C8058  1  0.669900  0.278200  0.240600  1.0
  C  C8059  1  0.169900  0.471800  0.009400  1.0
  C  C8060  1  0.580100  0.778200  0.509400  1.0
  C  C8061  1  0.240600  0.080100  0.471800  1.0
  C  C8062  1  0.740600  0.669900  0.778200  1.0
  C  C8063  1  0.509400  0.169900  0.971800  1.0
  C  C8064  1  0.009400  0.580100  0.278200  1.0
  C  C8065  1  0.971800  0.240600  0.580100  1.0
  C  C8066  1  0.278200  0.740600  0.169900  1.0
  C  C8067  1  0.471800  0.509400  0.669900  1.0
  C  C8068  1  0.778200  0.009400  0.080100  1.0
  C  C8069  1  0.221800  0.830100  0.259400  1.0
  C  C8070  1  0.528200  0.419900  0.759400  1.0
  C  C8071  1  0.721800  0.919900  0.990600  1.0
  C  C8072  1  0.028200  0.330100  0.490600  1.0
  C  C8073  1  0.330100  0.990600  0.528200  1.0
  C  C8074  1  0.919900  0.490600  0.221800  1.0
  C  C8075  1  0.419900  0.259400  0.028200  1.0
  C  C8076  1  0.830100  0.759400  0.721800  1.0
  C  C8077  1  0.490600  0.721800  0.419900  1.0
  C  C8078  1  0.990600  0.028200  0.830100  1.0
  C  C8079  1  0.759400  0.221800  0.330100  1.0
  C  C8080  1  0.259400  0.528200  0.919900  1.0
  C  C8081  1  0.393400  0.530000  0.251000  1.0
  C  C8082  1  0.856600  0.220000  0.751000  1.0
  C  C8083  1  0.356600  0.030000  0.999000  1.0
  C  C8084  1  0.893400  0.720000  0.499000  1.0
  C  C8085  1  0.251000  0.393400  0.530000  1.0
  C  C8086  1  0.751000  0.856600  0.220000  1.0
  C  C8087  1  0.999000  0.356600  0.030000  1.0
  C  C8088  1  0.499000  0.893400  0.720000  1.0
  C  C8089  1  0.530000  0.251000  0.393400  1.0
  C  C8090  1  0.220000  0.751000  0.856600  1.0
  C  C8091  1  0.030000  0.999000  0.356600  1.0
  C  C8092  1  0.720000  0.499000  0.893400  1.0
  C  C8093  1  0.280000  0.643400  0.749000  1.0
  C  C8094  1  0.970000  0.106600  0.249000  1.0
  C  C8095  1  0.780000  0.606600  0.001000  1.0
  C  C8096  1  0.470000  0.143400  0.501000  1.0
  C  C8097  1  0.143400  0.501000  0.470000  1.0
  C  C8098  1  0.606600  0.001000  0.780000  1.0
  C  C8099  1  0.106600  0.249000  0.970000  1.0
  C  C8100  1  0.643400  0.749000  0.280000  1.0
  C  C8101  1  0.001000  0.780000  0.606600  1.0
  C  C8102  1  0.501000  0.470000  0.143400  1.0
  C  C8103  1  0.749000  0.280000  0.643400  1.0
  C  C8104  1  0.249000  0.970000  0.106600  1.0
  C  C8105  1  0.393400  0.030000  0.751000  1.0
  C  C8106  1  0.856600  0.720000  0.251000  1.0
  C  C8107  1  0.356600  0.530000  0.499000  1.0
  C  C8108  1  0.893400  0.220000  0.999000  1.0
  C  C8109  1  0.251000  0.893400  0.030000  1.0
  C  C8110  1  0.751000  0.356600  0.720000  1.0
  C  C8111  1  0.999000  0.856600  0.530000  1.0
  C  C8112  1  0.499000  0.393400  0.220000  1.0
  C  C8113  1  0.530000  0.751000  0.893400  1.0
  C  C8114  1  0.220000  0.251000  0.356600  1.0
  C  C8115  1  0.030000  0.499000  0.856600  1.0
  C  C8116  1  0.720000  0.999000  0.393400  1.0
  C  C8117  1  0.280000  0.143400  0.249000  1.0
  C  C8118  1  0.970000  0.606600  0.749000  1.0
  C  C8119  1  0.780000  0.106600  0.501000  1.0
  C  C8120  1  0.470000  0.643400  0.001000  1.0
  C  C8121  1  0.143400  0.001000  0.970000  1.0
  C  C8122  1  0.606600  0.501000  0.280000  1.0
  C  C8123  1  0.106600  0.749000  0.470000  1.0
  C  C8124  1  0.643400  0.249000  0.780000  1.0
  C  C8125  1  0.001000  0.280000  0.106600  1.0
  C  C8126  1  0.501000  0.970000  0.643400  1.0
  C  C8127  1  0.749000  0.780000  0.143400  1.0
  C  C8128  1  0.249000  0.470000  0.606600  1.0
  C  C8129  1  0.893400  0.530000  0.751000  1.0
  C  C8130  1  0.356600  0.220000  0.251000  1.0
  C  C8131  1  0.856600  0.030000  0.499000  1.0
  C  C8132  1  0.393400  0.720000  0.999000  1.0
  C  C8133  1  0.751000  0.393400  0.030000  1.0
  C  C8134  1  0.251000  0.856600  0.720000  1.0
  C  C8135  1  0.499000  0.356600  0.530000  1.0
  C  C8136  1  0.999000  0.893400  0.220000  1.0
  C  C8137  1  0.030000  0.251000  0.893400  1.0
  C  C8138  1  0.720000  0.751000  0.356600  1.0
  C  C8139  1  0.530000  0.999000  0.856600  1.0
  C  C8140  1  0.220000  0.499000  0.393400  1.0
  C  C8141  1  0.780000  0.643400  0.249000  1.0
  C  C8142  1  0.470000  0.106600  0.749000  1.0
  C  C8143  1  0.280000  0.606600  0.501000  1.0
  C  C8144  1  0.970000  0.143400  0.001000  1.0
  C  C8145  1  0.643400  0.501000  0.970000  1.0
  C  C8146  1  0.106600  0.001000  0.280000  1.0
  C  C8147  1  0.606600  0.249000  0.470000  1.0
  C  C8148  1  0.143400  0.749000  0.780000  1.0
  C  C8149  1  0.501000  0.780000  0.106600  1.0
  C  C8150  1  0.001000  0.470000  0.643400  1.0
  C  C8151  1  0.249000  0.280000  0.143400  1.0
  C  C8152  1  0.749000  0.970000  0.606600  1.0
  C  C8153  1  0.893400  0.030000  0.251000  1.0
  C  C8154  1  0.356600  0.720000  0.751000  1.0
  C  C8155  1  0.856600  0.530000  0.999000  1.0
  C  C8156  1  0.393400  0.220000  0.499000  1.0
  C  C8157  1  0.751000  0.893400  0.530000  1.0
  C  C8158  1  0.251000  0.356600  0.220000  1.0
  C  C8159  1  0.499000  0.856600  0.030000  1.0
  C  C8160  1  0.999000  0.393400  0.720000  1.0
  C  C8161  1  0.030000  0.751000  0.393400  1.0
  C  C8162  1  0.720000  0.251000  0.856600  1.0
  C  C8163  1  0.530000  0.499000  0.356600  1.0
  C  C8164  1  0.220000  0.999000  0.893400  1.0
  C  C8165  1  0.780000  0.143400  0.749000  1.0
  C  C8166  1  0.470000  0.606600  0.249000  1.0
  C  C8167  1  0.280000  0.106600  0.001000  1.0
  C  C8168  1  0.970000  0.643400  0.501000  1.0
  C  C8169  1  0.643400  0.001000  0.470000  1.0
  C  C8170  1  0.106600  0.501000  0.780000  1.0
  C  C8171  1  0.606600  0.749000  0.970000  1.0
  C  C8172  1  0.143400  0.249000  0.280000  1.0
  C  C8173  1  0.501000  0.280000  0.606600  1.0
  C  C8174  1  0.001000  0.970000  0.143400  1.0
  C  C8175  1  0.249000  0.780000  0.643400  1.0
  C  C8176  1  0.749000  0.470000  0.106600  1.0
  C  C8177  1  0.606600  0.470000  0.749000  1.0
  C  C8178  1  0.143400  0.780000  0.249000  1.0
  C  C8179  1  0.643400  0.970000  0.001000  1.0
  C  C8180  1  0.106600  0.280000  0.501000  1.0
  C  C8181  1  0.749000  0.606600  0.470000  1.0
  C  C8182  1  0.249000  0.143400  0.780000  1.0
  C  C8183  1  0.001000  0.643400  0.970000  1.0
  C  C8184  1  0.501000  0.106600  0.280000  1.0
  C  C8185  1  0.470000  0.749000  0.606600  1.0
  C  C8186  1  0.780000  0.249000  0.143400  1.0
  C  C8187  1  0.970000  0.001000  0.643400  1.0
  C  C8188  1  0.280000  0.501000  0.106600  1.0
  C  C8189  1  0.720000  0.356600  0.251000  1.0
  C  C8190  1  0.030000  0.893400  0.751000  1.0
  C  C8191  1  0.220000  0.393400  0.999000  1.0
  C  C8192  1  0.530000  0.856600  0.499000  1.0
  C  C8193  1  0.856600  0.499000  0.530000  1.0
  C  C8194  1  0.393400  0.999000  0.220000  1.0
  C  C8195  1  0.893400  0.751000  0.030000  1.0
  C  C8196  1  0.356600  0.251000  0.720000  1.0
  C  C8197  1  0.999000  0.220000  0.393400  1.0
  C  C8198  1  0.499000  0.530000  0.856600  1.0
  C  C8199  1  0.251000  0.720000  0.356600  1.0
  C  C8200  1  0.751000  0.030000  0.893400  1.0
  C  C8201  1  0.606600  0.970000  0.249000  1.0
  C  C8202  1  0.143400  0.280000  0.749000  1.0
  C  C8203  1  0.643400  0.470000  0.501000  1.0
  C  C8204  1  0.106600  0.780000  0.001000  1.0
  C  C8205  1  0.749000  0.106600  0.970000  1.0
  C  C8206  1  0.249000  0.643400  0.280000  1.0
  C  C8207  1  0.001000  0.143400  0.470000  1.0
  C  C8208  1  0.501000  0.606600  0.780000  1.0
  C  C8209  1  0.470000  0.249000  0.106600  1.0
  C  C8210  1  0.780000  0.749000  0.643400  1.0
  C  C8211  1  0.970000  0.501000  0.143400  1.0
  C  C8212  1  0.280000  0.001000  0.606600  1.0
  C  C8213  1  0.720000  0.856600  0.751000  1.0
  C  C8214  1  0.030000  0.393400  0.251000  1.0
  C  C8215  1  0.220000  0.893400  0.499000  1.0
  C  C8216  1  0.530000  0.356600  0.999000  1.0
  C  C8217  1  0.856600  0.999000  0.030000  1.0
  C  C8218  1  0.393400  0.499000  0.720000  1.0
  C  C8219  1  0.893400  0.251000  0.530000  1.0
  C  C8220  1  0.356600  0.751000  0.220000  1.0
  C  C8221  1  0.999000  0.720000  0.893400  1.0
  C  C8222  1  0.499000  0.030000  0.356600  1.0
  C  C8223  1  0.251000  0.220000  0.856600  1.0
  C  C8224  1  0.751000  0.530000  0.393400  1.0
  C  C8225  1  0.106600  0.470000  0.249000  1.0
  C  C8226  1  0.643400  0.780000  0.749000  1.0
  C  C8227  1  0.143400  0.970000  0.501000  1.0
  C  C8228  1  0.606600  0.280000  0.001000  1.0
  C  C8229  1  0.249000  0.606600  0.970000  1.0
  C  C8230  1  0.749000  0.143400  0.280000  1.0
  C  C8231  1  0.501000  0.643400  0.470000  1.0
  C  C8232  1  0.001000  0.106600  0.780000  1.0
  C  C8233  1  0.970000  0.749000  0.106600  1.0
  C  C8234  1  0.280000  0.249000  0.643400  1.0
  C  C8235  1  0.470000  0.001000  0.143400  1.0
  C  C8236  1  0.780000  0.501000  0.606600  1.0
  C  C8237  1  0.220000  0.356600  0.751000  1.0
  C  C8238  1  0.530000  0.893400  0.251000  1.0
  C  C8239  1  0.720000  0.393400  0.499000  1.0
  C  C8240  1  0.030000  0.856600  0.999000  1.0
  C  C8241  1  0.356600  0.499000  0.030000  1.0
  C  C8242  1  0.893400  0.999000  0.720000  1.0
  C  C8243  1  0.393400  0.751000  0.530000  1.0
  C  C8244  1  0.856600  0.251000  0.220000  1.0
  C  C8245  1  0.499000  0.220000  0.893400  1.0
  C  C8246  1  0.999000  0.530000  0.356600  1.0
  C  C8247  1  0.751000  0.720000  0.856600  1.0
  C  C8248  1  0.251000  0.030000  0.393400  1.0
  C  C8249  1  0.106600  0.970000  0.749000  1.0
  C  C8250  1  0.643400  0.280000  0.249000  1.0
  C  C8251  1  0.143400  0.470000  0.001000  1.0
  C  C8252  1  0.606600  0.780000  0.501000  1.0
  C  C8253  1  0.249000  0.106600  0.470000  1.0
  C  C8254  1  0.749000  0.643400  0.780000  1.0
  C  C8255  1  0.501000  0.143400  0.970000  1.0
  C  C8256  1  0.001000  0.606600  0.280000  1.0
  C  C8257  1  0.970000  0.249000  0.606600  1.0
  C  C8258  1  0.280000  0.749000  0.143400  1.0
  C  C8259  1  0.470000  0.501000  0.643400  1.0
  C  C8260  1  0.780000  0.001000  0.106600  1.0
  C  C8261  1  0.220000  0.856600  0.251000  1.0
  C  C8262  1  0.530000  0.393400  0.751000  1.0
  C  C8263  1  0.720000  0.893400  0.999000  1.0
  C  C8264  1  0.030000  0.356600  0.499000  1.0
  C  C8265  1  0.356600  0.999000  0.530000  1.0
  C  C8266  1  0.893400  0.499000  0.220000  1.0
  C  C8267  1  0.393400  0.251000  0.030000  1.0
  C  C8268  1  0.856600  0.751000  0.720000  1.0
  C  C8269  1  0.499000  0.720000  0.393400  1.0
  C  C8270  1  0.999000  0.030000  0.856600  1.0
  C  C8271  1  0.751000  0.220000  0.356600  1.0
  C  C8272  1  0.251000  0.530000  0.893400  1.0
  C  C8273  1  0.378400  0.507100  0.251000  1.0
  C  C8274  1  0.871600  0.242900  0.751000  1.0
  C  C8275  1  0.371600  0.007100  0.999000  1.0
  C  C8276  1  0.878400  0.742900  0.499000  1.0
  C  C8277  1  0.251000  0.378400  0.507100  1.0
  C  C8278  1  0.751000  0.871600  0.242900  1.0
  C  C8279  1  0.999000  0.371600  0.007100  1.0
  C  C8280  1  0.499000  0.878400  0.742900  1.0
  C  C8281  1  0.507100  0.251000  0.378400  1.0
  C  C8282  1  0.242900  0.751000  0.871600  1.0
  C  C8283  1  0.007100  0.999000  0.371600  1.0
  C  C8284  1  0.742900  0.499000  0.878400  1.0
  C  C8285  1  0.257100  0.628400  0.749000  1.0
  C  C8286  1  0.992900  0.121600  0.249000  1.0
  C  C8287  1  0.757100  0.621600  0.001000  1.0
  C  C8288  1  0.492900  0.128400  0.501000  1.0
  C  C8289  1  0.128400  0.501000  0.492900  1.0
  C  C8290  1  0.621600  0.001000  0.757100  1.0
  C  C8291  1  0.121600  0.249000  0.992900  1.0
  C  C8292  1  0.628400  0.749000  0.257100  1.0
  C  C8293  1  0.001000  0.757100  0.621600  1.0
  C  C8294  1  0.501000  0.492900  0.128400  1.0
  C  C8295  1  0.749000  0.257100  0.628400  1.0
  C  C8296  1  0.249000  0.992900  0.121600  1.0
  C  C8297  1  0.378400  0.007100  0.751000  1.0
  C  C8298  1  0.871600  0.742900  0.251000  1.0
  C  C8299  1  0.371600  0.507100  0.499000  1.0
  C  C8300  1  0.878400  0.242900  0.999000  1.0
  C  C8301  1  0.251000  0.878400  0.007100  1.0
  C  C8302  1  0.751000  0.371600  0.742900  1.0
  C  C8303  1  0.999000  0.871600  0.507100  1.0
  C  C8304  1  0.499000  0.378400  0.242900  1.0
  C  C8305  1  0.507100  0.751000  0.878400  1.0
  C  C8306  1  0.242900  0.251000  0.371600  1.0
  C  C8307  1  0.007100  0.499000  0.871600  1.0
  C  C8308  1  0.742900  0.999000  0.378400  1.0
  C  C8309  1  0.257100  0.128400  0.249000  1.0
  C  C8310  1  0.992900  0.621600  0.749000  1.0
  C  C8311  1  0.757100  0.121600  0.501000  1.0
  C  C8312  1  0.492900  0.628400  0.001000  1.0
  C  C8313  1  0.128400  0.001000  0.992900  1.0
  C  C8314  1  0.621600  0.501000  0.257100  1.0
  C  C8315  1  0.121600  0.749000  0.492900  1.0
  C  C8316  1  0.628400  0.249000  0.757100  1.0
  C  C8317  1  0.001000  0.257100  0.121600  1.0
  C  C8318  1  0.501000  0.992900  0.628400  1.0
  C  C8319  1  0.749000  0.757100  0.128400  1.0
  C  C8320  1  0.249000  0.492900  0.621600  1.0
  C  C8321  1  0.878400  0.507100  0.751000  1.0
  C  C8322  1  0.371600  0.242900  0.251000  1.0
  C  C8323  1  0.871600  0.007100  0.499000  1.0
  C  C8324  1  0.378400  0.742900  0.999000  1.0
  C  C8325  1  0.751000  0.378400  0.007100  1.0
  C  C8326  1  0.251000  0.871600  0.742900  1.0
  C  C8327  1  0.499000  0.371600  0.507100  1.0
  C  C8328  1  0.999000  0.878400  0.242900  1.0
  C  C8329  1  0.007100  0.251000  0.878400  1.0
  C  C8330  1  0.742900  0.751000  0.371600  1.0
  C  C8331  1  0.507100  0.999000  0.871600  1.0
  C  C8332  1  0.242900  0.499000  0.378400  1.0
  C  C8333  1  0.757100  0.628400  0.249000  1.0
  C  C8334  1  0.492900  0.121600  0.749000  1.0
  C  C8335  1  0.257100  0.621600  0.501000  1.0
  C  C8336  1  0.992900  0.128400  0.001000  1.0
  C  C8337  1  0.628400  0.501000  0.992900  1.0
  C  C8338  1  0.121600  0.001000  0.257100  1.0
  C  C8339  1  0.621600  0.249000  0.492900  1.0
  C  C8340  1  0.128400  0.749000  0.757100  1.0
  C  C8341  1  0.501000  0.757100  0.121600  1.0
  C  C8342  1  0.001000  0.492900  0.628400  1.0
  C  C8343  1  0.249000  0.257100  0.128400  1.0
  C  C8344  1  0.749000  0.992900  0.621600  1.0
  C  C8345  1  0.878400  0.007100  0.251000  1.0
  C  C8346  1  0.371600  0.742900  0.751000  1.0
  C  C8347  1  0.871600  0.507100  0.999000  1.0
  C  C8348  1  0.378400  0.242900  0.499000  1.0
  C  C8349  1  0.751000  0.878400  0.507100  1.0
  C  C8350  1  0.251000  0.371600  0.242900  1.0
  C  C8351  1  0.499000  0.871600  0.007100  1.0
  C  C8352  1  0.999000  0.378400  0.742900  1.0
  C  C8353  1  0.007100  0.751000  0.378400  1.0
  C  C8354  1  0.742900  0.251000  0.871600  1.0
  C  C8355  1  0.507100  0.499000  0.371600  1.0
  C  C8356  1  0.242900  0.999000  0.878400  1.0
  C  C8357  1  0.757100  0.128400  0.749000  1.0
  C  C8358  1  0.492900  0.621600  0.249000  1.0
  C  C8359  1  0.257100  0.121600  0.001000  1.0
  C  C8360  1  0.992900  0.628400  0.501000  1.0
  C  C8361  1  0.628400  0.001000  0.492900  1.0
  C  C8362  1  0.121600  0.501000  0.757100  1.0
  C  C8363  1  0.621600  0.749000  0.992900  1.0
  C  C8364  1  0.128400  0.249000  0.257100  1.0
  C  C8365  1  0.501000  0.257100  0.621600  1.0
  C  C8366  1  0.001000  0.992900  0.128400  1.0
  C  C8367  1  0.249000  0.757100  0.628400  1.0
  C  C8368  1  0.749000  0.492900  0.121600  1.0
  C  C8369  1  0.621600  0.492900  0.749000  1.0
  C  C8370  1  0.128400  0.757100  0.249000  1.0
  C  C8371  1  0.628400  0.992900  0.001000  1.0
  C  C8372  1  0.121600  0.257100  0.501000  1.0
  C  C8373  1  0.749000  0.621600  0.492900  1.0
  C  C8374  1  0.249000  0.128400  0.757100  1.0
  C  C8375  1  0.001000  0.628400  0.992900  1.0
  C  C8376  1  0.501000  0.121600  0.257100  1.0
  C  C8377  1  0.492900  0.749000  0.621600  1.0
  C  C8378  1  0.757100  0.249000  0.128400  1.0
  C  C8379  1  0.992900  0.001000  0.628400  1.0
  C  C8380  1  0.257100  0.501000  0.121600  1.0
  C  C8381  1  0.742900  0.371600  0.251000  1.0
  C  C8382  1  0.007100  0.878400  0.751000  1.0
  C  C8383  1  0.242900  0.378400  0.999000  1.0
  C  C8384  1  0.507100  0.871600  0.499000  1.0
  C  C8385  1  0.871600  0.499000  0.507100  1.0
  C  C8386  1  0.378400  0.999000  0.242900  1.0
  C  C8387  1  0.878400  0.751000  0.007100  1.0
  C  C8388  1  0.371600  0.251000  0.742900  1.0
  C  C8389  1  0.999000  0.242900  0.378400  1.0
  C  C8390  1  0.499000  0.507100  0.871600  1.0
  C  C8391  1  0.251000  0.742900  0.371600  1.0
  C  C8392  1  0.751000  0.007100  0.878400  1.0
  C  C8393  1  0.621600  0.992900  0.249000  1.0
  C  C8394  1  0.128400  0.257100  0.749000  1.0
  C  C8395  1  0.628400  0.492900  0.501000  1.0
  C  C8396  1  0.121600  0.757100  0.001000  1.0
  C  C8397  1  0.749000  0.121600  0.992900  1.0
  C  C8398  1  0.249000  0.628400  0.257100  1.0
  C  C8399  1  0.001000  0.128400  0.492900  1.0
  C  C8400  1  0.501000  0.621600  0.757100  1.0
  C  C8401  1  0.492900  0.249000  0.121600  1.0
  C  C8402  1  0.757100  0.749000  0.628400  1.0
  C  C8403  1  0.992900  0.501000  0.128400  1.0
  C  C8404  1  0.257100  0.001000  0.621600  1.0
  C  C8405  1  0.742900  0.871600  0.751000  1.0
  C  C8406  1  0.007100  0.378400  0.251000  1.0
  C  C8407  1  0.242900  0.878400  0.499000  1.0
  C  C8408  1  0.507100  0.371600  0.999000  1.0
  C  C8409  1  0.871600  0.999000  0.007100  1.0
  C  C8410  1  0.378400  0.499000  0.742900  1.0
  C  C8411  1  0.878400  0.251000  0.507100  1.0
  C  C8412  1  0.371600  0.751000  0.242900  1.0
  C  C8413  1  0.999000  0.742900  0.878400  1.0
  C  C8414  1  0.499000  0.007100  0.371600  1.0
  C  C8415  1  0.251000  0.242900  0.871600  1.0
  C  C8416  1  0.751000  0.507100  0.378400  1.0
  C  C8417  1  0.121600  0.492900  0.249000  1.0
  C  C8418  1  0.628400  0.757100  0.749000  1.0
  C  C8419  1  0.128400  0.992900  0.501000  1.0
  C  C8420  1  0.621600  0.257100  0.001000  1.0
  C  C8421  1  0.249000  0.621600  0.992900  1.0
  C  C8422  1  0.749000  0.128400  0.257100  1.0
  C  C8423  1  0.501000  0.628400  0.492900  1.0
  C  C8424  1  0.001000  0.121600  0.757100  1.0
  C  C8425  1  0.992900  0.749000  0.121600  1.0
  C  C8426  1  0.257100  0.249000  0.628400  1.0
  C  C8427  1  0.492900  0.001000  0.128400  1.0
  C  C8428  1  0.757100  0.501000  0.621600  1.0
  C  C8429  1  0.242900  0.371600  0.751000  1.0
  C  C8430  1  0.507100  0.878400  0.251000  1.0
  C  C8431  1  0.742900  0.378400  0.499000  1.0
  C  C8432  1  0.007100  0.871600  0.999000  1.0
  C  C8433  1  0.371600  0.499000  0.007100  1.0
  C  C8434  1  0.878400  0.999000  0.742900  1.0
  C  C8435  1  0.378400  0.751000  0.507100  1.0
  C  C8436  1  0.871600  0.251000  0.242900  1.0
  C  C8437  1  0.499000  0.242900  0.878400  1.0
  C  C8438  1  0.999000  0.507100  0.371600  1.0
  C  C8439  1  0.751000  0.742900  0.871600  1.0
  C  C8440  1  0.251000  0.007100  0.378400  1.0
  C  C8441  1  0.121600  0.992900  0.749000  1.0
  C  C8442  1  0.628400  0.257100  0.249000  1.0
  C  C8443  1  0.128400  0.492900  0.001000  1.0
  C  C8444  1  0.621600  0.757100  0.501000  1.0
  C  C8445  1  0.249000  0.121600  0.492900  1.0
  C  C8446  1  0.749000  0.628400  0.757100  1.0
  C  C8447  1  0.501000  0.128400  0.992900  1.0
  C  C8448  1  0.001000  0.621600  0.257100  1.0
  C  C8449  1  0.992900  0.249000  0.621600  1.0
  C  C8450  1  0.257100  0.749000  0.128400  1.0
  C  C8451  1  0.492900  0.501000  0.628400  1.0
  C  C8452  1  0.757100  0.001000  0.121600  1.0
  C  C8453  1  0.242900  0.871600  0.251000  1.0
  C  C8454  1  0.507100  0.378400  0.751000  1.0
  C  C8455  1  0.742900  0.878400  0.999000  1.0
  C  C8456  1  0.007100  0.371600  0.499000  1.0
  C  C8457  1  0.371600  0.999000  0.507100  1.0
  C  C8458  1  0.878400  0.499000  0.242900  1.0
  C  C8459  1  0.378400  0.251000  0.007100  1.0
  C  C8460  1  0.871600  0.751000  0.742900  1.0
  C  C8461  1  0.499000  0.742900  0.378400  1.0
  C  C8462  1  0.999000  0.007100  0.871600  1.0
  C  C8463  1  0.751000  0.242900  0.371600  1.0
  C  C8464  1  0.251000  0.507100  0.878400  1.0
  C  C8465  1  0.388300  0.483200  0.260200  1.0
  C  C8466  1  0.861700  0.266800  0.760200  1.0
  C  C8467  1  0.361700  0.983200  0.989800  1.0
  C  C8468  1  0.888300  0.766800  0.489800  1.0
  C  C8469  1  0.260200  0.388300  0.483200  1.0
  C  C8470  1  0.760200  0.861700  0.266800  1.0
  C  C8471  1  0.989800  0.361700  0.983200  1.0
  C  C8472  1  0.489800  0.888300  0.766800  1.0
  C  C8473  1  0.483200  0.260200  0.388300  1.0
  C  C8474  1  0.266800  0.760200  0.861700  1.0
  C  C8475  1  0.983200  0.989800  0.361700  1.0
  C  C8476  1  0.766800  0.489800  0.888300  1.0
  C  C8477  1  0.233200  0.638300  0.739800  1.0
  C  C8478  1  0.016800  0.111700  0.239800  1.0
  C  C8479  1  0.733200  0.611700  0.010200  1.0
  C  C8480  1  0.516800  0.138300  0.510200  1.0
  C  C8481  1  0.138300  0.510200  0.516800  1.0
  C  C8482  1  0.611700  0.010200  0.733200  1.0
  C  C8483  1  0.111700  0.239800  0.016800  1.0
  C  C8484  1  0.638300  0.739800  0.233200  1.0
  C  C8485  1  0.010200  0.733200  0.611700  1.0
  C  C8486  1  0.510200  0.516800  0.138300  1.0
  C  C8487  1  0.739800  0.233200  0.638300  1.0
  C  C8488  1  0.239800  0.016800  0.111700  1.0
  C  C8489  1  0.388300  0.983200  0.760200  1.0
  C  C8490  1  0.861700  0.766800  0.260200  1.0
  C  C8491  1  0.361700  0.483200  0.489800  1.0
  C  C8492  1  0.888300  0.266800  0.989800  1.0
  C  C8493  1  0.260200  0.888300  0.983200  1.0
  C  C8494  1  0.760200  0.361700  0.766800  1.0
  C  C8495  1  0.989800  0.861700  0.483200  1.0
  C  C8496  1  0.489800  0.388300  0.266800  1.0
  C  C8497  1  0.483200  0.760200  0.888300  1.0
  C  C8498  1  0.266800  0.260200  0.361700  1.0
  C  C8499  1  0.983200  0.489800  0.861700  1.0
  C  C8500  1  0.766800  0.989800  0.388300  1.0
  C  C8501  1  0.233200  0.138300  0.239800  1.0
  C  C8502  1  0.016800  0.611700  0.739800  1.0
  C  C8503  1  0.733200  0.111700  0.510200  1.0
  C  C8504  1  0.516800  0.638300  0.010200  1.0
  C  C8505  1  0.138300  0.010200  0.016800  1.0
  C  C8506  1  0.611700  0.510200  0.233200  1.0
  C  C8507  1  0.111700  0.739800  0.516800  1.0
  C  C8508  1  0.638300  0.239800  0.733200  1.0
  C  C8509  1  0.010200  0.233200  0.111700  1.0
  C  C8510  1  0.510200  0.016800  0.638300  1.0
  C  C8511  1  0.739800  0.733200  0.138300  1.0
  C  C8512  1  0.239800  0.516800  0.611700  1.0
  C  C8513  1  0.888300  0.483200  0.760200  1.0
  C  C8514  1  0.361700  0.266800  0.260200  1.0
  C  C8515  1  0.861700  0.983200  0.489800  1.0
  C  C8516  1  0.388300  0.766800  0.989800  1.0
  C  C8517  1  0.760200  0.388300  0.983200  1.0
  C  C8518  1  0.260200  0.861700  0.766800  1.0
  C  C8519  1  0.489800  0.361700  0.483200  1.0
  C  C8520  1  0.989800  0.888300  0.266800  1.0
  C  C8521  1  0.983200  0.260200  0.888300  1.0
  C  C8522  1  0.766800  0.760200  0.361700  1.0
  C  C8523  1  0.483200  0.989800  0.861700  1.0
  C  C8524  1  0.266800  0.489800  0.388300  1.0
  C  C8525  1  0.733200  0.638300  0.239800  1.0
  C  C8526  1  0.516800  0.111700  0.739800  1.0
  C  C8527  1  0.233200  0.611700  0.510200  1.0
  C  C8528  1  0.016800  0.138300  0.010200  1.0
  C  C8529  1  0.638300  0.510200  0.016800  1.0
  C  C8530  1  0.111700  0.010200  0.233200  1.0
  C  C8531  1  0.611700  0.239800  0.516800  1.0
  C  C8532  1  0.138300  0.739800  0.733200  1.0
  C  C8533  1  0.510200  0.733200  0.111700  1.0
  C  C8534  1  0.010200  0.516800  0.638300  1.0
  C  C8535  1  0.239800  0.233200  0.138300  1.0
  C  C8536  1  0.739800  0.016800  0.611700  1.0
  C  C8537  1  0.888300  0.983200  0.260200  1.0
  C  C8538  1  0.361700  0.766800  0.760200  1.0
  C  C8539  1  0.861700  0.483200  0.989800  1.0
  C  C8540  1  0.388300  0.266800  0.489800  1.0
  C  C8541  1  0.760200  0.888300  0.483200  1.0
  C  C8542  1  0.260200  0.361700  0.266800  1.0
  C  C8543  1  0.489800  0.861700  0.983200  1.0
  C  C8544  1  0.989800  0.388300  0.766800  1.0
  C  C8545  1  0.983200  0.760200  0.388300  1.0
  C  C8546  1  0.766800  0.260200  0.861700  1.0
  C  C8547  1  0.483200  0.489800  0.361700  1.0
  C  C8548  1  0.266800  0.989800  0.888300  1.0
  C  C8549  1  0.733200  0.138300  0.739800  1.0
  C  C8550  1  0.516800  0.611700  0.239800  1.0
  C  C8551  1  0.233200  0.111700  0.010200  1.0
  C  C8552  1  0.016800  0.638300  0.510200  1.0
  C  C8553  1  0.638300  0.010200  0.516800  1.0
  C  C8554  1  0.111700  0.510200  0.733200  1.0
  C  C8555  1  0.611700  0.739800  0.016800  1.0
  C  C8556  1  0.138300  0.239800  0.233200  1.0
  C  C8557  1  0.510200  0.233200  0.611700  1.0
  C  C8558  1  0.010200  0.016800  0.138300  1.0
  C  C8559  1  0.239800  0.733200  0.638300  1.0
  C  C8560  1  0.739800  0.516800  0.111700  1.0
  C  C8561  1  0.611700  0.516800  0.739800  1.0
  C  C8562  1  0.138300  0.733200  0.239800  1.0
  C  C8563  1  0.638300  0.016800  0.010200  1.0
  C  C8564  1  0.111700  0.233200  0.510200  1.0
  C  C8565  1  0.739800  0.611700  0.516800  1.0
  C  C8566  1  0.239800  0.138300  0.733200  1.0
  C  C8567  1  0.010200  0.638300  0.016800  1.0
  C  C8568  1  0.510200  0.111700  0.233200  1.0
  C  C8569  1  0.516800  0.739800  0.611700  1.0
  C  C8570  1  0.733200  0.239800  0.138300  1.0
  C  C8571  1  0.016800  0.010200  0.638300  1.0
  C  C8572  1  0.233200  0.510200  0.111700  1.0
  C  C8573  1  0.766800  0.361700  0.260200  1.0
  C  C8574  1  0.983200  0.888300  0.760200  1.0
  C  C8575  1  0.266800  0.388300  0.989800  1.0
  C  C8576  1  0.483200  0.861700  0.489800  1.0
  C  C8577  1  0.861700  0.489800  0.483200  1.0
  C  C8578  1  0.388300  0.989800  0.266800  1.0
  C  C8579  1  0.888300  0.760200  0.983200  1.0
  C  C8580  1  0.361700  0.260200  0.766800  1.0
  C  C8581  1  0.989800  0.266800  0.388300  1.0
  C  C8582  1  0.489800  0.483200  0.861700  1.0
  C  C8583  1  0.260200  0.766800  0.361700  1.0
  C  C8584  1  0.760200  0.983200  0.888300  1.0
  C  C8585  1  0.611700  0.016800  0.239800  1.0
  C  C8586  1  0.138300  0.233200  0.739800  1.0
  C  C8587  1  0.638300  0.516800  0.510200  1.0
  C  C8588  1  0.111700  0.733200  0.010200  1.0
  C  C8589  1  0.739800  0.111700  0.016800  1.0
  C  C8590  1  0.239800  0.638300  0.233200  1.0
  C  C8591  1  0.010200  0.138300  0.516800  1.0
  C  C8592  1  0.510200  0.611700  0.733200  1.0
  C  C8593  1  0.516800  0.239800  0.111700  1.0
  C  C8594  1  0.733200  0.739800  0.638300  1.0
  C  C8595  1  0.016800  0.510200  0.138300  1.0
  C  C8596  1  0.233200  0.010200  0.611700  1.0
  C  C8597  1  0.766800  0.861700  0.760200  1.0
  C  C8598  1  0.983200  0.388300  0.260200  1.0
  C  C8599  1  0.266800  0.888300  0.489800  1.0
  C  C8600  1  0.483200  0.361700  0.989800  1.0
  C  C8601  1  0.861700  0.989800  0.983200  1.0
  C  C8602  1  0.388300  0.489800  0.766800  1.0
  C  C8603  1  0.888300  0.260200  0.483200  1.0
  C  C8604  1  0.361700  0.760200  0.266800  1.0
  C  C8605  1  0.989800  0.766800  0.888300  1.0
  C  C8606  1  0.489800  0.983200  0.361700  1.0
  C  C8607  1  0.260200  0.266800  0.861700  1.0
  C  C8608  1  0.760200  0.483200  0.388300  1.0
  C  C8609  1  0.111700  0.516800  0.239800  1.0
  C  C8610  1  0.638300  0.733200  0.739800  1.0
  C  C8611  1  0.138300  0.016800  0.510200  1.0
  C  C8612  1  0.611700  0.233200  0.010200  1.0
  C  C8613  1  0.239800  0.611700  0.016800  1.0
  C  C8614  1  0.739800  0.138300  0.233200  1.0
  C  C8615  1  0.510200  0.638300  0.516800  1.0
  C  C8616  1  0.010200  0.111700  0.733200  1.0
  C  C8617  1  0.016800  0.739800  0.111700  1.0
  C  C8618  1  0.233200  0.239800  0.638300  1.0
  C  C8619  1  0.516800  0.010200  0.138300  1.0
  C  C8620  1  0.733200  0.510200  0.611700  1.0
  C  C8621  1  0.266800  0.361700  0.760200  1.0
  C  C8622  1  0.483200  0.888300  0.260200  1.0
  C  C8623  1  0.766800  0.388300  0.489800  1.0
  C  C8624  1  0.983200  0.861700  0.989800  1.0
  C  C8625  1  0.361700  0.489800  0.983200  1.0
  C  C8626  1  0.888300  0.989800  0.766800  1.0
  C  C8627  1  0.388300  0.760200  0.483200  1.0
  C  C8628  1  0.861700  0.260200  0.266800  1.0
  C  C8629  1  0.489800  0.266800  0.888300  1.0
  C  C8630  1  0.989800  0.483200  0.361700  1.0
  C  C8631  1  0.760200  0.766800  0.861700  1.0
  C  C8632  1  0.260200  0.983200  0.388300  1.0
  C  C8633  1  0.111700  0.016800  0.739800  1.0
  C  C8634  1  0.638300  0.233200  0.239800  1.0
  C  C8635  1  0.138300  0.516800  0.010200  1.0
  C  C8636  1  0.611700  0.733200  0.510200  1.0
  C  C8637  1  0.239800  0.111700  0.516800  1.0
  C  C8638  1  0.739800  0.638300  0.733200  1.0
  C  C8639  1  0.510200  0.138300  0.016800  1.0
  C  C8640  1  0.010200  0.611700  0.233200  1.0
  C  C8641  1  0.016800  0.239800  0.611700  1.0
  C  C8642  1  0.233200  0.739800  0.138300  1.0
  C  C8643  1  0.516800  0.510200  0.638300  1.0
  C  C8644  1  0.733200  0.010200  0.111700  1.0
  C  C8645  1  0.266800  0.861700  0.260200  1.0
  C  C8646  1  0.483200  0.388300  0.760200  1.0
  C  C8647  1  0.766800  0.888300  0.989800  1.0
  C  C8648  1  0.983200  0.361700  0.489800  1.0
  C  C8649  1  0.361700  0.989800  0.483200  1.0
  C  C8650  1  0.888300  0.489800  0.266800  1.0
  C  C8651  1  0.388300  0.260200  0.983200  1.0
  C  C8652  1  0.861700  0.760200  0.766800  1.0
  C  C8653  1  0.489800  0.766800  0.388300  1.0
  C  C8654  1  0.989800  0.983200  0.861700  1.0
  C  C8655  1  0.760200  0.266800  0.361700  1.0
  C  C8656  1  0.260200  0.483200  0.888300  1.0
  C  C8657  1  0.372600  0.459000  0.256100  1.0
  C  C8658  1  0.877400  0.291000  0.756100  1.0
  C  C8659  1  0.377400  0.959000  0.993900  1.0
  C  C8660  1  0.872600  0.791000  0.493900  1.0
  C  C8661  1  0.256100  0.372600  0.459000  1.0
  C  C8662  1  0.756100  0.877400  0.291000  1.0
  C  C8663  1  0.993900  0.377400  0.959000  1.0
  C  C8664  1  0.493900  0.872600  0.791000  1.0
  C  C8665  1  0.459000  0.256100  0.372600  1.0
  C  C8666  1  0.291000  0.756100  0.877400  1.0
  C  C8667  1  0.959000  0.993900  0.377400  1.0
  C  C8668  1  0.791000  0.493900  0.872600  1.0
  C  C8669  1  0.209000  0.622600  0.743900  1.0
  C  C8670  1  0.041000  0.127400  0.243900  1.0
  C  C8671  1  0.709000  0.627400  0.006100  1.0
  C  C8672  1  0.541000  0.122600  0.506100  1.0
  C  C8673  1  0.122600  0.506100  0.541000  1.0
  C  C8674  1  0.627400  0.006100  0.709000  1.0
  C  C8675  1  0.127400  0.243900  0.041000  1.0
  C  C8676  1  0.622600  0.743900  0.209000  1.0
  C  C8677  1  0.006100  0.709000  0.627400  1.0
  C  C8678  1  0.506100  0.541000  0.122600  1.0
  C  C8679  1  0.743900  0.209000  0.622600  1.0
  C  C8680  1  0.243900  0.041000  0.127400  1.0
  C  C8681  1  0.372600  0.959000  0.756100  1.0
  C  C8682  1  0.877400  0.791000  0.256100  1.0
  C  C8683  1  0.377400  0.459000  0.493900  1.0
  C  C8684  1  0.872600  0.291000  0.993900  1.0
  C  C8685  1  0.256100  0.872600  0.959000  1.0
  C  C8686  1  0.756100  0.377400  0.791000  1.0
  C  C8687  1  0.993900  0.877400  0.459000  1.0
  C  C8688  1  0.493900  0.372600  0.291000  1.0
  C  C8689  1  0.459000  0.756100  0.872600  1.0
  C  C8690  1  0.291000  0.256100  0.377400  1.0
  C  C8691  1  0.959000  0.493900  0.877400  1.0
  C  C8692  1  0.791000  0.993900  0.372600  1.0
  C  C8693  1  0.209000  0.122600  0.243900  1.0
  C  C8694  1  0.041000  0.627400  0.743900  1.0
  C  C8695  1  0.709000  0.127400  0.506100  1.0
  C  C8696  1  0.541000  0.622600  0.006100  1.0
  C  C8697  1  0.122600  0.006100  0.041000  1.0
  C  C8698  1  0.627400  0.506100  0.209000  1.0
  C  C8699  1  0.127400  0.743900  0.541000  1.0
  C  C8700  1  0.622600  0.243900  0.709000  1.0
  C  C8701  1  0.006100  0.209000  0.127400  1.0
  C  C8702  1  0.506100  0.041000  0.622600  1.0
  C  C8703  1  0.743900  0.709000  0.122600  1.0
  C  C8704  1  0.243900  0.541000  0.627400  1.0
  C  C8705  1  0.872600  0.459000  0.756100  1.0
  C  C8706  1  0.377400  0.291000  0.256100  1.0
  C  C8707  1  0.877400  0.959000  0.493900  1.0
  C  C8708  1  0.372600  0.791000  0.993900  1.0
  C  C8709  1  0.756100  0.372600  0.959000  1.0
  C  C8710  1  0.256100  0.877400  0.791000  1.0
  C  C8711  1  0.493900  0.377400  0.459000  1.0
  C  C8712  1  0.993900  0.872600  0.291000  1.0
  C  C8713  1  0.959000  0.256100  0.872600  1.0
  C  C8714  1  0.791000  0.756100  0.377400  1.0
  C  C8715  1  0.459000  0.993900  0.877400  1.0
  C  C8716  1  0.291000  0.493900  0.372600  1.0
  C  C8717  1  0.709000  0.622600  0.243900  1.0
  C  C8718  1  0.541000  0.127400  0.743900  1.0
  C  C8719  1  0.209000  0.627400  0.506100  1.0
  C  C8720  1  0.041000  0.122600  0.006100  1.0
  C  C8721  1  0.622600  0.506100  0.041000  1.0
  C  C8722  1  0.127400  0.006100  0.209000  1.0
  C  C8723  1  0.627400  0.243900  0.541000  1.0
  C  C8724  1  0.122600  0.743900  0.709000  1.0
  C  C8725  1  0.506100  0.709000  0.127400  1.0
  C  C8726  1  0.006100  0.541000  0.622600  1.0
  C  C8727  1  0.243900  0.209000  0.122600  1.0
  C  C8728  1  0.743900  0.041000  0.627400  1.0
  C  C8729  1  0.872600  0.959000  0.256100  1.0
  C  C8730  1  0.377400  0.791000  0.756100  1.0
  C  C8731  1  0.877400  0.459000  0.993900  1.0
  C  C8732  1  0.372600  0.291000  0.493900  1.0
  C  C8733  1  0.756100  0.872600  0.459000  1.0
  C  C8734  1  0.256100  0.377400  0.291000  1.0
  C  C8735  1  0.493900  0.877400  0.959000  1.0
  C  C8736  1  0.993900  0.372600  0.791000  1.0
  C  C8737  1  0.959000  0.756100  0.372600  1.0
  C  C8738  1  0.791000  0.256100  0.877400  1.0
  C  C8739  1  0.459000  0.493900  0.377400  1.0
  C  C8740  1  0.291000  0.993900  0.872600  1.0
  C  C8741  1  0.709000  0.122600  0.743900  1.0
  C  C8742  1  0.541000  0.627400  0.243900  1.0
  C  C8743  1  0.209000  0.127400  0.006100  1.0
  C  C8744  1  0.041000  0.622600  0.506100  1.0
  C  C8745  1  0.622600  0.006100  0.541000  1.0
  C  C8746  1  0.127400  0.506100  0.709000  1.0
  C  C8747  1  0.627400  0.743900  0.041000  1.0
  C  C8748  1  0.122600  0.243900  0.209000  1.0
  C  C8749  1  0.506100  0.209000  0.627400  1.0
  C  C8750  1  0.006100  0.041000  0.122600  1.0
  C  C8751  1  0.243900  0.709000  0.622600  1.0
  C  C8752  1  0.743900  0.541000  0.127400  1.0
  C  C8753  1  0.627400  0.541000  0.743900  1.0
  C  C8754  1  0.122600  0.709000  0.243900  1.0
  C  C8755  1  0.622600  0.041000  0.006100  1.0
  C  C8756  1  0.127400  0.209000  0.506100  1.0
  C  C8757  1  0.743900  0.627400  0.541000  1.0
  C  C8758  1  0.243900  0.122600  0.709000  1.0
  C  C8759  1  0.006100  0.622600  0.041000  1.0
  C  C8760  1  0.506100  0.127400  0.209000  1.0
  C  C8761  1  0.541000  0.743900  0.627400  1.0
  C  C8762  1  0.709000  0.243900  0.122600  1.0
  C  C8763  1  0.041000  0.006100  0.622600  1.0
  C  C8764  1  0.209000  0.506100  0.127400  1.0
  C  C8765  1  0.791000  0.377400  0.256100  1.0
  C  C8766  1  0.959000  0.872600  0.756100  1.0
  C  C8767  1  0.291000  0.372600  0.993900  1.0
  C  C8768  1  0.459000  0.877400  0.493900  1.0
  C  C8769  1  0.877400  0.493900  0.459000  1.0
  C  C8770  1  0.372600  0.993900  0.291000  1.0
  C  C8771  1  0.872600  0.756100  0.959000  1.0
  C  C8772  1  0.377400  0.256100  0.791000  1.0
  C  C8773  1  0.993900  0.291000  0.372600  1.0
  C  C8774  1  0.493900  0.459000  0.877400  1.0
  C  C8775  1  0.256100  0.791000  0.377400  1.0
  C  C8776  1  0.756100  0.959000  0.872600  1.0
  C  C8777  1  0.627400  0.041000  0.243900  1.0
  C  C8778  1  0.122600  0.209000  0.743900  1.0
  C  C8779  1  0.622600  0.541000  0.506100  1.0
  C  C8780  1  0.127400  0.709000  0.006100  1.0
  C  C8781  1  0.743900  0.127400  0.041000  1.0
  C  C8782  1  0.243900  0.622600  0.209000  1.0
  C  C8783  1  0.006100  0.122600  0.541000  1.0
  C  C8784  1  0.506100  0.627400  0.709000  1.0
  C  C8785  1  0.541000  0.243900  0.127400  1.0
  C  C8786  1  0.709000  0.743900  0.622600  1.0
  C  C8787  1  0.041000  0.506100  0.122600  1.0
  C  C8788  1  0.209000  0.006100  0.627400  1.0
  C  C8789  1  0.791000  0.877400  0.756100  1.0
  C  C8790  1  0.959000  0.372600  0.256100  1.0
  C  C8791  1  0.291000  0.872600  0.493900  1.0
  C  C8792  1  0.459000  0.377400  0.993900  1.0
  C  C8793  1  0.877400  0.993900  0.959000  1.0
  C  C8794  1  0.372600  0.493900  0.791000  1.0
  C  C8795  1  0.872600  0.256100  0.459000  1.0
  C  C8796  1  0.377400  0.756100  0.291000  1.0
  C  C8797  1  0.993900  0.791000  0.872600  1.0
  C  C8798  1  0.493900  0.959000  0.377400  1.0
  C  C8799  1  0.256100  0.291000  0.877400  1.0
  C  C8800  1  0.756100  0.459000  0.372600  1.0
  C  C8801  1  0.127400  0.541000  0.243900  1.0
  C  C8802  1  0.622600  0.709000  0.743900  1.0
  C  C8803  1  0.122600  0.041000  0.506100  1.0
  C  C8804  1  0.627400  0.209000  0.006100  1.0
  C  C8805  1  0.243900  0.627400  0.041000  1.0
  C  C8806  1  0.743900  0.122600  0.209000  1.0
  C  C8807  1  0.506100  0.622600  0.541000  1.0
  C  C8808  1  0.006100  0.127400  0.709000  1.0
  C  C8809  1  0.041000  0.743900  0.127400  1.0
  C  C8810  1  0.209000  0.243900  0.622600  1.0
  C  C8811  1  0.541000  0.006100  0.122600  1.0
  C  C8812  1  0.709000  0.506100  0.627400  1.0
  C  C8813  1  0.291000  0.377400  0.756100  1.0
  C  C8814  1  0.459000  0.872600  0.256100  1.0
  C  C8815  1  0.791000  0.372600  0.493900  1.0
  C  C8816  1  0.959000  0.877400  0.993900  1.0
  C  C8817  1  0.377400  0.493900  0.959000  1.0
  C  C8818  1  0.872600  0.993900  0.791000  1.0
  C  C8819  1  0.372600  0.756100  0.459000  1.0
  C  C8820  1  0.877400  0.256100  0.291000  1.0
  C  C8821  1  0.493900  0.291000  0.872600  1.0
  C  C8822  1  0.993900  0.459000  0.377400  1.0
  C  C8823  1  0.756100  0.791000  0.877400  1.0
  C  C8824  1  0.256100  0.959000  0.372600  1.0
  C  C8825  1  0.127400  0.041000  0.743900  1.0
  C  C8826  1  0.622600  0.209000  0.243900  1.0
  C  C8827  1  0.122600  0.541000  0.006100  1.0
  C  C8828  1  0.627400  0.709000  0.506100  1.0
  C  C8829  1  0.243900  0.127400  0.541000  1.0
  C  C8830  1  0.743900  0.622600  0.709000  1.0
  C  C8831  1  0.506100  0.122600  0.041000  1.0
  C  C8832  1  0.006100  0.627400  0.209000  1.0
  C  C8833  1  0.041000  0.243900  0.627400  1.0
  C  C8834  1  0.209000  0.743900  0.122600  1.0
  C  C8835  1  0.541000  0.506100  0.622600  1.0
  C  C8836  1  0.709000  0.006100  0.127400  1.0
  C  C8837  1  0.291000  0.877400  0.256100  1.0
  C  C8838  1  0.459000  0.372600  0.756100  1.0
  C  C8839  1  0.791000  0.872600  0.993900  1.0
  C  C8840  1  0.959000  0.377400  0.493900  1.0
  C  C8841  1  0.377400  0.993900  0.459000  1.0
  C  C8842  1  0.872600  0.493900  0.291000  1.0
  C  C8843  1  0.372600  0.256100  0.959000  1.0
  C  C8844  1  0.877400  0.756100  0.791000  1.0
  C  C8845  1  0.493900  0.791000  0.372600  1.0
  C  C8846  1  0.993900  0.959000  0.877400  1.0
  C  C8847  1  0.756100  0.291000  0.377400  1.0
  C  C8848  1  0.256100  0.459000  0.872600  1.0
  C  C8849  1  0.381500  0.386900  0.263600  1.0
  C  C8850  1  0.868500  0.363100  0.763600  1.0
  C  C8851  1  0.368500  0.886900  0.986400  1.0
  C  C8852  1  0.881500  0.863100  0.486400  1.0
  C  C8853  1  0.263600  0.381500  0.386900  1.0
  C  C8854  1  0.763600  0.868500  0.363100  1.0
  C  C8855  1  0.986400  0.368500  0.886900  1.0
  C  C8856  1  0.486400  0.881500  0.863100  1.0
  C  C8857  1  0.386900  0.263600  0.381500  1.0
  C  C8858  1  0.363100  0.763600  0.868500  1.0
  C  C8859  1  0.886900  0.986400  0.368500  1.0
  C  C8860  1  0.863100  0.486400  0.881500  1.0
  C  C8861  1  0.136900  0.631500  0.736400  1.0
  C  C8862  1  0.113100  0.118500  0.236400  1.0
  C  C8863  1  0.636900  0.618500  0.013600  1.0
  C  C8864  1  0.613100  0.131500  0.513600  1.0
  C  C8865  1  0.131500  0.513600  0.613100  1.0
  C  C8866  1  0.618500  0.013600  0.636900  1.0
  C  C8867  1  0.118500  0.236400  0.113100  1.0
  C  C8868  1  0.631500  0.736400  0.136900  1.0
  C  C8869  1  0.013600  0.636900  0.618500  1.0
  C  C8870  1  0.513600  0.613100  0.131500  1.0
  C  C8871  1  0.736400  0.136900  0.631500  1.0
  C  C8872  1  0.236400  0.113100  0.118500  1.0
  C  C8873  1  0.381500  0.886900  0.763600  1.0
  C  C8874  1  0.868500  0.863100  0.263600  1.0
  C  C8875  1  0.368500  0.386900  0.486400  1.0
  C  C8876  1  0.881500  0.363100  0.986400  1.0
  C  C8877  1  0.263600  0.881500  0.886900  1.0
  C  C8878  1  0.763600  0.368500  0.863100  1.0
  C  C8879  1  0.986400  0.868500  0.386900  1.0
  C  C8880  1  0.486400  0.381500  0.363100  1.0
  C  C8881  1  0.386900  0.763600  0.881500  1.0
  C  C8882  1  0.363100  0.263600  0.368500  1.0
  C  C8883  1  0.886900  0.486400  0.868500  1.0
  C  C8884  1  0.863100  0.986400  0.381500  1.0
  C  C8885  1  0.136900  0.131500  0.236400  1.0
  C  C8886  1  0.113100  0.618500  0.736400  1.0
  C  C8887  1  0.636900  0.118500  0.513600  1.0
  C  C8888  1  0.613100  0.631500  0.013600  1.0
  C  C8889  1  0.131500  0.013600  0.113100  1.0
  C  C8890  1  0.618500  0.513600  0.136900  1.0
  C  C8891  1  0.118500  0.736400  0.613100  1.0
  C  C8892  1  0.631500  0.236400  0.636900  1.0
  C  C8893  1  0.013600  0.136900  0.118500  1.0
  C  C8894  1  0.513600  0.113100  0.631500  1.0
  C  C8895  1  0.736400  0.636900  0.131500  1.0
  C  C8896  1  0.236400  0.613100  0.618500  1.0
  C  C8897  1  0.881500  0.386900  0.763600  1.0
  C  C8898  1  0.368500  0.363100  0.263600  1.0
  C  C8899  1  0.868500  0.886900  0.486400  1.0
  C  C8900  1  0.381500  0.863100  0.986400  1.0
  C  C8901  1  0.763600  0.381500  0.886900  1.0
  C  C8902  1  0.263600  0.868500  0.863100  1.0
  C  C8903  1  0.486400  0.368500  0.386900  1.0
  C  C8904  1  0.986400  0.881500  0.363100  1.0
  C  C8905  1  0.886900  0.263600  0.881500  1.0
  C  C8906  1  0.863100  0.763600  0.368500  1.0
  C  C8907  1  0.386900  0.986400  0.868500  1.0
  C  C8908  1  0.363100  0.486400  0.381500  1.0
  C  C8909  1  0.636900  0.631500  0.236400  1.0
  C  C8910  1  0.613100  0.118500  0.736400  1.0
  C  C8911  1  0.136900  0.618500  0.513600  1.0
  C  C8912  1  0.113100  0.131500  0.013600  1.0
  C  C8913  1  0.631500  0.513600  0.113100  1.0
  C  C8914  1  0.118500  0.013600  0.136900  1.0
  C  C8915  1  0.618500  0.236400  0.613100  1.0
  C  C8916  1  0.131500  0.736400  0.636900  1.0
  C  C8917  1  0.513600  0.636900  0.118500  1.0
  C  C8918  1  0.013600  0.613100  0.631500  1.0
  C  C8919  1  0.236400  0.136900  0.131500  1.0
  C  C8920  1  0.736400  0.113100  0.618500  1.0
  C  C8921  1  0.881500  0.886900  0.263600  1.0
  C  C8922  1  0.368500  0.863100  0.763600  1.0
  C  C8923  1  0.868500  0.386900  0.986400  1.0
  C  C8924  1  0.381500  0.363100  0.486400  1.0
  C  C8925  1  0.763600  0.881500  0.386900  1.0
  C  C8926  1  0.263600  0.368500  0.363100  1.0
  C  C8927  1  0.486400  0.868500  0.886900  1.0
  C  C8928  1  0.986400  0.381500  0.863100  1.0
  C  C8929  1  0.886900  0.763600  0.381500  1.0
  C  C8930  1  0.863100  0.263600  0.868500  1.0
  C  C8931  1  0.386900  0.486400  0.368500  1.0
  C  C8932  1  0.363100  0.986400  0.881500  1.0
  C  C8933  1  0.636900  0.131500  0.736400  1.0
  C  C8934  1  0.613100  0.618500  0.236400  1.0
  C  C8935  1  0.136900  0.118500  0.013600  1.0
  C  C8936  1  0.113100  0.631500  0.513600  1.0
  C  C8937  1  0.631500  0.013600  0.613100  1.0
  C  C8938  1  0.118500  0.513600  0.636900  1.0
  C  C8939  1  0.618500  0.736400  0.113100  1.0
  C  C8940  1  0.131500  0.236400  0.136900  1.0
  C  C8941  1  0.513600  0.136900  0.618500  1.0
  C  C8942  1  0.013600  0.113100  0.131500  1.0
  C  C8943  1  0.236400  0.636900  0.631500  1.0
  C  C8944  1  0.736400  0.613100  0.118500  1.0
  C  C8945  1  0.618500  0.613100  0.736400  1.0
  C  C8946  1  0.131500  0.636900  0.236400  1.0
  C  C8947  1  0.631500  0.113100  0.013600  1.0
  C  C8948  1  0.118500  0.136900  0.513600  1.0
  C  C8949  1  0.736400  0.618500  0.613100  1.0
  C  C8950  1  0.236400  0.131500  0.636900  1.0
  C  C8951  1  0.013600  0.631500  0.113100  1.0
  C  C8952  1  0.513600  0.118500  0.136900  1.0
  C  C8953  1  0.613100  0.736400  0.618500  1.0
  C  C8954  1  0.636900  0.236400  0.131500  1.0
  C  C8955  1  0.113100  0.013600  0.631500  1.0
  C  C8956  1  0.136900  0.513600  0.118500  1.0
  C  C8957  1  0.863100  0.368500  0.263600  1.0
  C  C8958  1  0.886900  0.881500  0.763600  1.0
  C  C8959  1  0.363100  0.381500  0.986400  1.0
  C  C8960  1  0.386900  0.868500  0.486400  1.0
  C  C8961  1  0.868500  0.486400  0.386900  1.0
  C  C8962  1  0.381500  0.986400  0.363100  1.0
  C  C8963  1  0.881500  0.763600  0.886900  1.0
  C  C8964  1  0.368500  0.263600  0.863100  1.0
  C  C8965  1  0.986400  0.363100  0.381500  1.0
  C  C8966  1  0.486400  0.386900  0.868500  1.0
  C  C8967  1  0.263600  0.863100  0.368500  1.0
  C  C8968  1  0.763600  0.886900  0.881500  1.0
  C  C8969  1  0.618500  0.113100  0.236400  1.0
  C  C8970  1  0.131500  0.136900  0.736400  1.0
  C  C8971  1  0.631500  0.613100  0.513600  1.0
  C  C8972  1  0.118500  0.636900  0.013600  1.0
  C  C8973  1  0.736400  0.118500  0.113100  1.0
  C  C8974  1  0.236400  0.631500  0.136900  1.0
  C  C8975  1  0.013600  0.131500  0.613100  1.0
  C  C8976  1  0.513600  0.618500  0.636900  1.0
  C  C8977  1  0.613100  0.236400  0.118500  1.0
  C  C8978  1  0.636900  0.736400  0.631500  1.0
  C  C8979  1  0.113100  0.513600  0.131500  1.0
  C  C8980  1  0.136900  0.013600  0.618500  1.0
  C  C8981  1  0.863100  0.868500  0.763600  1.0
  C  C8982  1  0.886900  0.381500  0.263600  1.0
  C  C8983  1  0.363100  0.881500  0.486400  1.0
  C  C8984  1  0.386900  0.368500  0.986400  1.0
  C  C8985  1  0.868500  0.986400  0.886900  1.0
  C  C8986  1  0.381500  0.486400  0.863100  1.0
  C  C8987  1  0.881500  0.263600  0.386900  1.0
  C  C8988  1  0.368500  0.763600  0.363100  1.0
  C  C8989  1  0.986400  0.863100  0.881500  1.0
  C  C8990  1  0.486400  0.886900  0.368500  1.0
  C  C8991  1  0.263600  0.363100  0.868500  1.0
  C  C8992  1  0.763600  0.386900  0.381500  1.0
  C  C8993  1  0.118500  0.613100  0.236400  1.0
  C  C8994  1  0.631500  0.636900  0.736400  1.0
  C  C8995  1  0.131500  0.113100  0.513600  1.0
  C  C8996  1  0.618500  0.136900  0.013600  1.0
  C  C8997  1  0.236400  0.618500  0.113100  1.0
  C  C8998  1  0.736400  0.131500  0.136900  1.0
  C  C8999  1  0.513600  0.631500  0.613100  1.0
  C  C9000  1  0.013600  0.118500  0.636900  1.0
  C  C9001  1  0.113100  0.736400  0.118500  1.0
  C  C9002  1  0.136900  0.236400  0.631500  1.0
  C  C9003  1  0.613100  0.013600  0.131500  1.0
  C  C9004  1  0.636900  0.513600  0.618500  1.0
  C  C9005  1  0.363100  0.368500  0.763600  1.0
  C  C9006  1  0.386900  0.881500  0.263600  1.0
  C  C9007  1  0.863100  0.381500  0.486400  1.0
  C  C9008  1  0.886900  0.868500  0.986400  1.0
  C  C9009  1  0.368500  0.486400  0.886900  1.0
  C  C9010  1  0.881500  0.986400  0.863100  1.0
  C  C9011  1  0.381500  0.763600  0.386900  1.0
  C  C9012  1  0.868500  0.263600  0.363100  1.0
  C  C9013  1  0.486400  0.363100  0.881500  1.0
  C  C9014  1  0.986400  0.386900  0.368500  1.0
  C  C9015  1  0.763600  0.863100  0.868500  1.0
  C  C9016  1  0.263600  0.886900  0.381500  1.0
  C  C9017  1  0.118500  0.113100  0.736400  1.0
  C  C9018  1  0.631500  0.136900  0.236400  1.0
  C  C9019  1  0.131500  0.613100  0.013600  1.0
  C  C9020  1  0.618500  0.636900  0.513600  1.0
  C  C9021  1  0.236400  0.118500  0.613100  1.0
  C  C9022  1  0.736400  0.631500  0.636900  1.0
  C  C9023  1  0.513600  0.131500  0.113100  1.0
  C  C9024  1  0.013600  0.618500  0.136900  1.0
  C  C9025  1  0.113100  0.236400  0.618500  1.0
  C  C9026  1  0.136900  0.736400  0.131500  1.0
  C  C9027  1  0.613100  0.513600  0.631500  1.0
  C  C9028  1  0.636900  0.013600  0.118500  1.0
  C  C9029  1  0.363100  0.868500  0.263600  1.0
  C  C9030  1  0.386900  0.381500  0.763600  1.0
  C  C9031  1  0.863100  0.881500  0.986400  1.0
  C  C9032  1  0.886900  0.368500  0.486400  1.0
  C  C9033  1  0.368500  0.986400  0.386900  1.0
  C  C9034  1  0.881500  0.486400  0.363100  1.0
  C  C9035  1  0.381500  0.263600  0.886900  1.0
  C  C9036  1  0.868500  0.763600  0.863100  1.0
  C  C9037  1  0.486400  0.863100  0.381500  1.0
  C  C9038  1  0.986400  0.886900  0.868500  1.0
  C  C9039  1  0.763600  0.363100  0.368500  1.0
  C  C9040  1  0.263600  0.386900  0.881500  1.0
  C  C9041  1  0.367400  0.411000  0.263900  1.0
  C  C9042  1  0.882600  0.339000  0.763900  1.0
  C  C9043  1  0.382600  0.911000  0.986100  1.0
  C  C9044  1  0.867400  0.839000  0.486100  1.0
  C  C9045  1  0.263900  0.367400  0.411000  1.0
  C  C9046  1  0.763900  0.882600  0.339000  1.0
  C  C9047  1  0.986100  0.382600  0.911000  1.0
  C  C9048  1  0.486100  0.867400  0.839000  1.0
  C  C9049  1  0.411000  0.263900  0.367400  1.0
  C  C9050  1  0.339000  0.763900  0.882600  1.0
  C  C9051  1  0.911000  0.986100  0.382600  1.0
  C  C9052  1  0.839000  0.486100  0.867400  1.0
  C  C9053  1  0.161000  0.617400  0.736100  1.0
  C  C9054  1  0.089000  0.132600  0.236100  1.0
  C  C9055  1  0.661000  0.632600  0.013900  1.0
  C  C9056  1  0.589000  0.117400  0.513900  1.0
  C  C9057  1  0.117400  0.513900  0.589000  1.0
  C  C9058  1  0.632600  0.013900  0.661000  1.0
  C  C9059  1  0.132600  0.236100  0.089000  1.0
  C  C9060  1  0.617400  0.736100  0.161000  1.0
  C  C9061  1  0.013900  0.661000  0.632600  1.0
  C  C9062  1  0.513900  0.589000  0.117400  1.0
  C  C9063  1  0.736100  0.161000  0.617400  1.0
  C  C9064  1  0.236100  0.089000  0.132600  1.0
  C  C9065  1  0.367400  0.911000  0.763900  1.0
  C  C9066  1  0.882600  0.839000  0.263900  1.0
  C  C9067  1  0.382600  0.411000  0.486100  1.0
  C  C9068  1  0.867400  0.339000  0.986100  1.0
  C  C9069  1  0.263900  0.867400  0.911000  1.0
  C  C9070  1  0.763900  0.382600  0.839000  1.0
  C  C9071  1  0.986100  0.882600  0.411000  1.0
  C  C9072  1  0.486100  0.367400  0.339000  1.0
  C  C9073  1  0.411000  0.763900  0.867400  1.0
  C  C9074  1  0.339000  0.263900  0.382600  1.0
  C  C9075  1  0.911000  0.486100  0.882600  1.0
  C  C9076  1  0.839000  0.986100  0.367400  1.0
  C  C9077  1  0.161000  0.117400  0.236100  1.0
  C  C9078  1  0.089000  0.632600  0.736100  1.0
  C  C9079  1  0.661000  0.132600  0.513900  1.0
  C  C9080  1  0.589000  0.617400  0.013900  1.0
  C  C9081  1  0.117400  0.013900  0.089000  1.0
  C  C9082  1  0.632600  0.513900  0.161000  1.0
  C  C9083  1  0.132600  0.736100  0.589000  1.0
  C  C9084  1  0.617400  0.236100  0.661000  1.0
  C  C9085  1  0.013900  0.161000  0.132600  1.0
  C  C9086  1  0.513900  0.089000  0.617400  1.0
  C  C9087  1  0.736100  0.661000  0.117400  1.0
  C  C9088  1  0.236100  0.589000  0.632600  1.0
  C  C9089  1  0.867400  0.411000  0.763900  1.0
  C  C9090  1  0.382600  0.339000  0.263900  1.0
  C  C9091  1  0.882600  0.911000  0.486100  1.0
  C  C9092  1  0.367400  0.839000  0.986100  1.0
  C  C9093  1  0.763900  0.367400  0.911000  1.0
  C  C9094  1  0.263900  0.882600  0.839000  1.0
  C  C9095  1  0.486100  0.382600  0.411000  1.0
  C  C9096  1  0.986100  0.867400  0.339000  1.0
  C  C9097  1  0.911000  0.263900  0.867400  1.0
  C  C9098  1  0.839000  0.763900  0.382600  1.0
  C  C9099  1  0.411000  0.986100  0.882600  1.0
  C  C9100  1  0.339000  0.486100  0.367400  1.0
  C  C9101  1  0.661000  0.617400  0.236100  1.0
  C  C9102  1  0.589000  0.132600  0.736100  1.0
  C  C9103  1  0.161000  0.632600  0.513900  1.0
  C  C9104  1  0.089000  0.117400  0.013900  1.0
  C  C9105  1  0.617400  0.513900  0.089000  1.0
  C  C9106  1  0.132600  0.013900  0.161000  1.0
  C  C9107  1  0.632600  0.236100  0.589000  1.0
  C  C9108  1  0.117400  0.736100  0.661000  1.0
  C  C9109  1  0.513900  0.661000  0.132600  1.0
  C  C9110  1  0.013900  0.589000  0.617400  1.0
  C  C9111  1  0.236100  0.161000  0.117400  1.0
  C  C9112  1  0.736100  0.089000  0.632600  1.0
  C  C9113  1  0.867400  0.911000  0.263900  1.0
  C  C9114  1  0.382600  0.839000  0.763900  1.0
  C  C9115  1  0.882600  0.411000  0.986100  1.0
  C  C9116  1  0.367400  0.339000  0.486100  1.0
  C  C9117  1  0.763900  0.867400  0.411000  1.0
  C  C9118  1  0.263900  0.382600  0.339000  1.0
  C  C9119  1  0.486100  0.882600  0.911000  1.0
  C  C9120  1  0.986100  0.367400  0.839000  1.0
  C  C9121  1  0.911000  0.763900  0.367400  1.0
  C  C9122  1  0.839000  0.263900  0.882600  1.0
  C  C9123  1  0.411000  0.486100  0.382600  1.0
  C  C9124  1  0.339000  0.986100  0.867400  1.0
  C  C9125  1  0.661000  0.117400  0.736100  1.0
  C  C9126  1  0.589000  0.632600  0.236100  1.0
  C  C9127  1  0.161000  0.132600  0.013900  1.0
  C  C9128  1  0.089000  0.617400  0.513900  1.0
  C  C9129  1  0.617400  0.013900  0.589000  1.0
  C  C9130  1  0.132600  0.513900  0.661000  1.0
  C  C9131  1  0.632600  0.736100  0.089000  1.0
  C  C9132  1  0.117400  0.236100  0.161000  1.0
  C  C9133  1  0.513900  0.161000  0.632600  1.0
  C  C9134  1  0.013900  0.089000  0.117400  1.0
  C  C9135  1  0.236100  0.661000  0.617400  1.0
  C  C9136  1  0.736100  0.589000  0.132600  1.0
  C  C9137  1  0.632600  0.589000  0.736100  1.0
  C  C9138  1  0.117400  0.661000  0.236100  1.0
  C  C9139  1  0.617400  0.089000  0.013900  1.0
  C  C9140  1  0.132600  0.161000  0.513900  1.0
  C  C9141  1  0.736100  0.632600  0.589000  1.0
  C  C9142  1  0.236100  0.117400  0.661000  1.0
  C  C9143  1  0.013900  0.617400  0.089000  1.0
  C  C9144  1  0.513900  0.132600  0.161000  1.0
  C  C9145  1  0.589000  0.736100  0.632600  1.0
  C  C9146  1  0.661000  0.236100  0.117400  1.0
  C  C9147  1  0.089000  0.013900  0.617400  1.0
  C  C9148  1  0.161000  0.513900  0.132600  1.0
  C  C9149  1  0.839000  0.382600  0.263900  1.0
  C  C9150  1  0.911000  0.867400  0.763900  1.0
  C  C9151  1  0.339000  0.367400  0.986100  1.0
  C  C9152  1  0.411000  0.882600  0.486100  1.0
  C  C9153  1  0.882600  0.486100  0.411000  1.0
  C  C9154  1  0.367400  0.986100  0.339000  1.0
  C  C9155  1  0.867400  0.763900  0.911000  1.0
  C  C9156  1  0.382600  0.263900  0.839000  1.0
  C  C9157  1  0.986100  0.339000  0.367400  1.0
  C  C9158  1  0.486100  0.411000  0.882600  1.0
  C  C9159  1  0.263900  0.839000  0.382600  1.0
  C  C9160  1  0.763900  0.911000  0.867400  1.0
  C  C9161  1  0.632600  0.089000  0.236100  1.0
  C  C9162  1  0.117400  0.161000  0.736100  1.0
  C  C9163  1  0.617400  0.589000  0.513900  1.0
  C  C9164  1  0.132600  0.661000  0.013900  1.0
  C  C9165  1  0.736100  0.132600  0.089000  1.0
  C  C9166  1  0.236100  0.617400  0.161000  1.0
  C  C9167  1  0.013900  0.117400  0.589000  1.0
  C  C9168  1  0.513900  0.632600  0.661000  1.0
  C  C9169  1  0.589000  0.236100  0.132600  1.0
  C  C9170  1  0.661000  0.736100  0.617400  1.0
  C  C9171  1  0.089000  0.513900  0.117400  1.0
  C  C9172  1  0.161000  0.013900  0.632600  1.0
  C  C9173  1  0.839000  0.882600  0.763900  1.0
  C  C9174  1  0.911000  0.367400  0.263900  1.0
  C  C9175  1  0.339000  0.867400  0.486100  1.0
  C  C9176  1  0.411000  0.382600  0.986100  1.0
  C  C9177  1  0.882600  0.986100  0.911000  1.0
  C  C9178  1  0.367400  0.486100  0.839000  1.0
  C  C9179  1  0.867400  0.263900  0.411000  1.0
  C  C9180  1  0.382600  0.763900  0.339000  1.0
  C  C9181  1  0.986100  0.839000  0.867400  1.0
  C  C9182  1  0.486100  0.911000  0.382600  1.0
  C  C9183  1  0.263900  0.339000  0.882600  1.0
  C  C9184  1  0.763900  0.411000  0.367400  1.0
  C  C9185  1  0.132600  0.589000  0.236100  1.0
  C  C9186  1  0.617400  0.661000  0.736100  1.0
  C  C9187  1  0.117400  0.089000  0.513900  1.0
  C  C9188  1  0.632600  0.161000  0.013900  1.0
  C  C9189  1  0.236100  0.632600  0.089000  1.0
  C  C9190  1  0.736100  0.117400  0.161000  1.0
  C  C9191  1  0.513900  0.617400  0.589000  1.0
  C  C9192  1  0.013900  0.132600  0.661000  1.0
  C  C9193  1  0.089000  0.736100  0.132600  1.0
  C  C9194  1  0.161000  0.236100  0.617400  1.0
  C  C9195  1  0.589000  0.013900  0.117400  1.0
  C  C9196  1  0.661000  0.513900  0.632600  1.0
  C  C9197  1  0.339000  0.382600  0.763900  1.0
  C  C9198  1  0.411000  0.867400  0.263900  1.0
  C  C9199  1  0.839000  0.367400  0.486100  1.0
  C  C9200  1  0.911000  0.882600  0.986100  1.0
  C  C9201  1  0.382600  0.486100  0.911000  1.0
  C  C9202  1  0.867400  0.986100  0.839000  1.0
  C  C9203  1  0.367400  0.763900  0.411000  1.0
  C  C9204  1  0.882600  0.263900  0.339000  1.0
  C  C9205  1  0.486100  0.339000  0.867400  1.0
  C  C9206  1  0.986100  0.411000  0.382600  1.0
  C  C9207  1  0.763900  0.839000  0.882600  1.0
  C  C9208  1  0.263900  0.911000  0.367400  1.0
  C  C9209  1  0.132600  0.089000  0.736100  1.0
  C  C9210  1  0.617400  0.161000  0.236100  1.0
  C  C9211  1  0.117400  0.589000  0.013900  1.0
  C  C9212  1  0.632600  0.661000  0.513900  1.0
  C  C9213  1  0.236100  0.132600  0.589000  1.0
  C  C9214  1  0.736100  0.617400  0.661000  1.0
  C  C9215  1  0.513900  0.117400  0.089000  1.0
  C  C9216  1  0.013900  0.632600  0.161000  1.0
  C  C9217  1  0.089000  0.236100  0.632600  1.0
  C  C9218  1  0.161000  0.736100  0.117400  1.0
  C  C9219  1  0.589000  0.513900  0.617400  1.0
  C  C9220  1  0.661000  0.013900  0.132600  1.0
  C  C9221  1  0.339000  0.882600  0.263900  1.0
  C  C9222  1  0.411000  0.367400  0.763900  1.0
  C  C9223  1  0.839000  0.867400  0.986100  1.0
  C  C9224  1  0.911000  0.382600  0.486100  1.0
  C  C9225  1  0.382600  0.986100  0.411000  1.0
  C  C9226  1  0.867400  0.486100  0.339000  1.0
  C  C9227  1  0.367400  0.263900  0.911000  1.0
  C  C9228  1  0.882600  0.763900  0.839000  1.0
  C  C9229  1  0.486100  0.839000  0.367400  1.0
  C  C9230  1  0.986100  0.911000  0.882600  1.0
  C  C9231  1  0.763900  0.339000  0.382600  1.0
  C  C9232  1  0.263900  0.411000  0.867400  1.0
  C  C9233  1  0.340000  0.410300  0.263500  1.0
  C  C9234  1  0.910000  0.339700  0.763500  1.0
  C  C9235  1  0.410000  0.910300  0.986500  1.0
  C  C9236  1  0.840000  0.839700  0.486500  1.0
  C  C9237  1  0.263500  0.340000  0.410300  1.0
  C  C9238  1  0.763500  0.910000  0.339700  1.0
  C  C9239  1  0.986500  0.410000  0.910300  1.0
  C  C9240  1  0.486500  0.840000  0.839700  1.0
  C  C9241  1  0.410300  0.263500  0.340000  1.0
  C  C9242  1  0.339700  0.763500  0.910000  1.0
  C  C9243  1  0.910300  0.986500  0.410000  1.0
  C  C9244  1  0.839700  0.486500  0.840000  1.0
  C  C9245  1  0.160300  0.590000  0.736500  1.0
  C  C9246  1  0.089700  0.160000  0.236500  1.0
  C  C9247  1  0.660300  0.660000  0.013500  1.0
  C  C9248  1  0.589700  0.090000  0.513500  1.0
  C  C9249  1  0.090000  0.513500  0.589700  1.0
  C  C9250  1  0.660000  0.013500  0.660300  1.0
  C  C9251  1  0.160000  0.236500  0.089700  1.0
  C  C9252  1  0.590000  0.736500  0.160300  1.0
  C  C9253  1  0.013500  0.660300  0.660000  1.0
  C  C9254  1  0.513500  0.589700  0.090000  1.0
  C  C9255  1  0.736500  0.160300  0.590000  1.0
  C  C9256  1  0.236500  0.089700  0.160000  1.0
  C  C9257  1  0.340000  0.910300  0.763500  1.0
  C  C9258  1  0.910000  0.839700  0.263500  1.0
  C  C9259  1  0.410000  0.410300  0.486500  1.0
  C  C9260  1  0.840000  0.339700  0.986500  1.0
  C  C9261  1  0.263500  0.840000  0.910300  1.0
  C  C9262  1  0.763500  0.410000  0.839700  1.0
  C  C9263  1  0.986500  0.910000  0.410300  1.0
  C  C9264  1  0.486500  0.340000  0.339700  1.0
  C  C9265  1  0.410300  0.763500  0.840000  1.0
  C  C9266  1  0.339700  0.263500  0.410000  1.0
  C  C9267  1  0.910300  0.486500  0.910000  1.0
  C  C9268  1  0.839700  0.986500  0.340000  1.0
  C  C9269  1  0.160300  0.090000  0.236500  1.0
  C  C9270  1  0.089700  0.660000  0.736500  1.0
  C  C9271  1  0.660300  0.160000  0.513500  1.0
  C  C9272  1  0.589700  0.590000  0.013500  1.0
  C  C9273  1  0.090000  0.013500  0.089700  1.0
  C  C9274  1  0.660000  0.513500  0.160300  1.0
  C  C9275  1  0.160000  0.736500  0.589700  1.0
  C  C9276  1  0.590000  0.236500  0.660300  1.0
  C  C9277  1  0.013500  0.160300  0.160000  1.0
  C  C9278  1  0.513500  0.089700  0.590000  1.0
  C  C9279  1  0.736500  0.660300  0.090000  1.0
  C  C9280  1  0.236500  0.589700  0.660000  1.0
  C  C9281  1  0.840000  0.410300  0.763500  1.0
  C  C9282  1  0.410000  0.339700  0.263500  1.0
  C  C9283  1  0.910000  0.910300  0.486500  1.0
  C  C9284  1  0.340000  0.839700  0.986500  1.0
  C  C9285  1  0.763500  0.340000  0.910300  1.0
  C  C9286  1  0.263500  0.910000  0.839700  1.0
  C  C9287  1  0.486500  0.410000  0.410300  1.0
  C  C9288  1  0.986500  0.840000  0.339700  1.0
  C  C9289  1  0.910300  0.263500  0.840000  1.0
  C  C9290  1  0.839700  0.763500  0.410000  1.0
  C  C9291  1  0.410300  0.986500  0.910000  1.0
  C  C9292  1  0.339700  0.486500  0.340000  1.0
  C  C9293  1  0.660300  0.590000  0.236500  1.0
  C  C9294  1  0.589700  0.160000  0.736500  1.0
  C  C9295  1  0.160300  0.660000  0.513500  1.0
  C  C9296  1  0.089700  0.090000  0.013500  1.0
  C  C9297  1  0.590000  0.513500  0.089700  1.0
  C  C9298  1  0.160000  0.013500  0.160300  1.0
  C  C9299  1  0.660000  0.236500  0.589700  1.0
  C  C9300  1  0.090000  0.736500  0.660300  1.0
  C  C9301  1  0.513500  0.660300  0.160000  1.0
  C  C9302  1  0.013500  0.589700  0.590000  1.0
  C  C9303  1  0.236500  0.160300  0.090000  1.0
  C  C9304  1  0.736500  0.089700  0.660000  1.0
  C  C9305  1  0.840000  0.910300  0.263500  1.0
  C  C9306  1  0.410000  0.839700  0.763500  1.0
  C  C9307  1  0.910000  0.410300  0.986500  1.0
  C  C9308  1  0.340000  0.339700  0.486500  1.0
  C  C9309  1  0.763500  0.840000  0.410300  1.0
  C  C9310  1  0.263500  0.410000  0.339700  1.0
  C  C9311  1  0.486500  0.910000  0.910300  1.0
  C  C9312  1  0.986500  0.340000  0.839700  1.0
  C  C9313  1  0.910300  0.763500  0.340000  1.0
  C  C9314  1  0.839700  0.263500  0.910000  1.0
  C  C9315  1  0.410300  0.486500  0.410000  1.0
  C  C9316  1  0.339700  0.986500  0.840000  1.0
  C  C9317  1  0.660300  0.090000  0.736500  1.0
  C  C9318  1  0.589700  0.660000  0.236500  1.0
  C  C9319  1  0.160300  0.160000  0.013500  1.0
  C  C9320  1  0.089700  0.590000  0.513500  1.0
  C  C9321  1  0.590000  0.013500  0.589700  1.0
  C  C9322  1  0.160000  0.513500  0.660300  1.0
  C  C9323  1  0.660000  0.736500  0.089700  1.0
  C  C9324  1  0.090000  0.236500  0.160300  1.0
  C  C9325  1  0.513500  0.160300  0.660000  1.0
  C  C9326  1  0.013500  0.089700  0.090000  1.0
  C  C9327  1  0.236500  0.660300  0.590000  1.0
  C  C9328  1  0.736500  0.589700  0.160000  1.0
  C  C9329  1  0.660000  0.589700  0.736500  1.0
  C  C9330  1  0.090000  0.660300  0.236500  1.0
  C  C9331  1  0.590000  0.089700  0.013500  1.0
  C  C9332  1  0.160000  0.160300  0.513500  1.0
  C  C9333  1  0.736500  0.660000  0.589700  1.0
  C  C9334  1  0.236500  0.090000  0.660300  1.0
  C  C9335  1  0.013500  0.590000  0.089700  1.0
  C  C9336  1  0.513500  0.160000  0.160300  1.0
  C  C9337  1  0.589700  0.736500  0.660000  1.0
  C  C9338  1  0.660300  0.236500  0.090000  1.0
  C  C9339  1  0.089700  0.013500  0.590000  1.0
  C  C9340  1  0.160300  0.513500  0.160000  1.0
  C  C9341  1  0.839700  0.410000  0.263500  1.0
  C  C9342  1  0.910300  0.840000  0.763500  1.0
  C  C9343  1  0.339700  0.340000  0.986500  1.0
  C  C9344  1  0.410300  0.910000  0.486500  1.0
  C  C9345  1  0.910000  0.486500  0.410300  1.0
  C  C9346  1  0.340000  0.986500  0.339700  1.0
  C  C9347  1  0.840000  0.763500  0.910300  1.0
  C  C9348  1  0.410000  0.263500  0.839700  1.0
  C  C9349  1  0.986500  0.339700  0.340000  1.0
  C  C9350  1  0.486500  0.410300  0.910000  1.0
  C  C9351  1  0.263500  0.839700  0.410000  1.0
  C  C9352  1  0.763500  0.910300  0.840000  1.0
  C  C9353  1  0.660000  0.089700  0.236500  1.0
  C  C9354  1  0.090000  0.160300  0.736500  1.0
  C  C9355  1  0.590000  0.589700  0.513500  1.0
  C  C9356  1  0.160000  0.660300  0.013500  1.0
  C  C9357  1  0.736500  0.160000  0.089700  1.0
  C  C9358  1  0.236500  0.590000  0.160300  1.0
  C  C9359  1  0.013500  0.090000  0.589700  1.0
  C  C9360  1  0.513500  0.660000  0.660300  1.0
  C  C9361  1  0.589700  0.236500  0.160000  1.0
  C  C9362  1  0.660300  0.736500  0.590000  1.0
  C  C9363  1  0.089700  0.513500  0.090000  1.0
  C  C9364  1  0.160300  0.013500  0.660000  1.0
  C  C9365  1  0.839700  0.910000  0.763500  1.0
  C  C9366  1  0.910300  0.340000  0.263500  1.0
  C  C9367  1  0.339700  0.840000  0.486500  1.0
  C  C9368  1  0.410300  0.410000  0.986500  1.0
  C  C9369  1  0.910000  0.986500  0.910300  1.0
  C  C9370  1  0.340000  0.486500  0.839700  1.0
  C  C9371  1  0.840000  0.263500  0.410300  1.0
  C  C9372  1  0.410000  0.763500  0.339700  1.0
  C  C9373  1  0.986500  0.839700  0.840000  1.0
  C  C9374  1  0.486500  0.910300  0.410000  1.0
  C  C9375  1  0.263500  0.339700  0.910000  1.0
  C  C9376  1  0.763500  0.410300  0.340000  1.0
  C  C9377  1  0.160000  0.589700  0.236500  1.0
  C  C9378  1  0.590000  0.660300  0.736500  1.0
  C  C9379  1  0.090000  0.089700  0.513500  1.0
  C  C9380  1  0.660000  0.160300  0.013500  1.0
  C  C9381  1  0.236500  0.660000  0.089700  1.0
  C  C9382  1  0.736500  0.090000  0.160300  1.0
  C  C9383  1  0.513500  0.590000  0.589700  1.0
  C  C9384  1  0.013500  0.160000  0.660300  1.0
  C  C9385  1  0.089700  0.736500  0.160000  1.0
  C  C9386  1  0.160300  0.236500  0.590000  1.0
  C  C9387  1  0.589700  0.013500  0.090000  1.0
  C  C9388  1  0.660300  0.513500  0.660000  1.0
  C  C9389  1  0.339700  0.410000  0.763500  1.0
  C  C9390  1  0.410300  0.840000  0.263500  1.0
  C  C9391  1  0.839700  0.340000  0.486500  1.0
  C  C9392  1  0.910300  0.910000  0.986500  1.0
  C  C9393  1  0.410000  0.486500  0.910300  1.0
  C  C9394  1  0.840000  0.986500  0.839700  1.0
  C  C9395  1  0.340000  0.763500  0.410300  1.0
  C  C9396  1  0.910000  0.263500  0.339700  1.0
  C  C9397  1  0.486500  0.339700  0.840000  1.0
  C  C9398  1  0.986500  0.410300  0.410000  1.0
  C  C9399  1  0.763500  0.839700  0.910000  1.0
  C  C9400  1  0.263500  0.910300  0.340000  1.0
  C  C9401  1  0.160000  0.089700  0.736500  1.0
  C  C9402  1  0.590000  0.160300  0.236500  1.0
  C  C9403  1  0.090000  0.589700  0.013500  1.0
  C  C9404  1  0.660000  0.660300  0.513500  1.0
  C  C9405  1  0.236500  0.160000  0.589700  1.0
  C  C9406  1  0.736500  0.590000  0.660300  1.0
  C  C9407  1  0.513500  0.090000  0.089700  1.0
  C  C9408  1  0.013500  0.660000  0.160300  1.0
  C  C9409  1  0.089700  0.236500  0.660000  1.0
  C  C9410  1  0.160300  0.736500  0.090000  1.0
  C  C9411  1  0.589700  0.513500  0.590000  1.0
  C  C9412  1  0.660300  0.013500  0.160000  1.0
  C  C9413  1  0.339700  0.910000  0.263500  1.0
  C  C9414  1  0.410300  0.340000  0.763500  1.0
  C  C9415  1  0.839700  0.840000  0.986500  1.0
  C  C9416  1  0.910300  0.410000  0.486500  1.0
  C  C9417  1  0.410000  0.986500  0.410300  1.0
  C  C9418  1  0.840000  0.486500  0.339700  1.0
  C  C9419  1  0.340000  0.263500  0.910300  1.0
  C  C9420  1  0.910000  0.763500  0.839700  1.0
  C  C9421  1  0.486500  0.839700  0.340000  1.0
  C  C9422  1  0.986500  0.910300  0.910000  1.0
  C  C9423  1  0.763500  0.339700  0.410000  1.0
  C  C9424  1  0.263500  0.410300  0.840000  1.0
  C  C9425  1  0.327300  0.385600  0.262300  1.0
  C  C9426  1  0.922700  0.364400  0.762300  1.0
  C  C9427  1  0.422700  0.885600  0.987700  1.0
  C  C9428  1  0.827300  0.864400  0.487700  1.0
  C  C9429  1  0.262300  0.327300  0.385600  1.0
  C  C9430  1  0.762300  0.922700  0.364400  1.0
  C  C9431  1  0.987700  0.422700  0.885600  1.0
  C  C9432  1  0.487700  0.827300  0.864400  1.0
  C  C9433  1  0.385600  0.262300  0.327300  1.0
  C  C9434  1  0.364400  0.762300  0.922700  1.0
  C  C9435  1  0.885600  0.987700  0.422700  1.0
  C  C9436  1  0.864400  0.487700  0.827300  1.0
  C  C9437  1  0.135600  0.577300  0.737700  1.0
  C  C9438  1  0.114400  0.172700  0.237700  1.0
  C  C9439  1  0.635600  0.672700  0.012300  1.0
  C  C9440  1  0.614400  0.077300  0.512300  1.0
  C  C9441  1  0.077300  0.512300  0.614400  1.0
  C  C9442  1  0.672700  0.012300  0.635600  1.0
  C  C9443  1  0.172700  0.237700  0.114400  1.0
  C  C9444  1  0.577300  0.737700  0.135600  1.0
  C  C9445  1  0.012300  0.635600  0.672700  1.0
  C  C9446  1  0.512300  0.614400  0.077300  1.0
  C  C9447  1  0.737700  0.135600  0.577300  1.0
  C  C9448  1  0.237700  0.114400  0.172700  1.0
  C  C9449  1  0.327300  0.885600  0.762300  1.0
  C  C9450  1  0.922700  0.864400  0.262300  1.0
  C  C9451  1  0.422700  0.385600  0.487700  1.0
  C  C9452  1  0.827300  0.364400  0.987700  1.0
  C  C9453  1  0.262300  0.827300  0.885600  1.0
  C  C9454  1  0.762300  0.422700  0.864400  1.0
  C  C9455  1  0.987700  0.922700  0.385600  1.0
  C  C9456  1  0.487700  0.327300  0.364400  1.0
  C  C9457  1  0.385600  0.762300  0.827300  1.0
  C  C9458  1  0.364400  0.262300  0.422700  1.0
  C  C9459  1  0.885600  0.487700  0.922700  1.0
  C  C9460  1  0.864400  0.987700  0.327300  1.0
  C  C9461  1  0.135600  0.077300  0.237700  1.0
  C  C9462  1  0.114400  0.672700  0.737700  1.0
  C  C9463  1  0.635600  0.172700  0.512300  1.0
  C  C9464  1  0.614400  0.577300  0.012300  1.0
  C  C9465  1  0.077300  0.012300  0.114400  1.0
  C  C9466  1  0.672700  0.512300  0.135600  1.0
  C  C9467  1  0.172700  0.737700  0.614400  1.0
  C  C9468  1  0.577300  0.237700  0.635600  1.0
  C  C9469  1  0.012300  0.135600  0.172700  1.0
  C  C9470  1  0.512300  0.114400  0.577300  1.0
  C  C9471  1  0.737700  0.635600  0.077300  1.0
  C  C9472  1  0.237700  0.614400  0.672700  1.0
  C  C9473  1  0.827300  0.385600  0.762300  1.0
  C  C9474  1  0.422700  0.364400  0.262300  1.0
  C  C9475  1  0.922700  0.885600  0.487700  1.0
  C  C9476  1  0.327300  0.864400  0.987700  1.0
  C  C9477  1  0.762300  0.327300  0.885600  1.0
  C  C9478  1  0.262300  0.922700  0.864400  1.0
  C  C9479  1  0.487700  0.422700  0.385600  1.0
  C  C9480  1  0.987700  0.827300  0.364400  1.0
  C  C9481  1  0.885600  0.262300  0.827300  1.0
  C  C9482  1  0.864400  0.762300  0.422700  1.0
  C  C9483  1  0.385600  0.987700  0.922700  1.0
  C  C9484  1  0.364400  0.487700  0.327300  1.0
  C  C9485  1  0.635600  0.577300  0.237700  1.0
  C  C9486  1  0.614400  0.172700  0.737700  1.0
  C  C9487  1  0.135600  0.672700  0.512300  1.0
  C  C9488  1  0.114400  0.077300  0.012300  1.0
  C  C9489  1  0.577300  0.512300  0.114400  1.0
  C  C9490  1  0.172700  0.012300  0.135600  1.0
  C  C9491  1  0.672700  0.237700  0.614400  1.0
  C  C9492  1  0.077300  0.737700  0.635600  1.0
  C  C9493  1  0.512300  0.635600  0.172700  1.0
  C  C9494  1  0.012300  0.614400  0.577300  1.0
  C  C9495  1  0.237700  0.135600  0.077300  1.0
  C  C9496  1  0.737700  0.114400  0.672700  1.0
  C  C9497  1  0.827300  0.885600  0.262300  1.0
  C  C9498  1  0.422700  0.864400  0.762300  1.0
  C  C9499  1  0.922700  0.385600  0.987700  1.0
  C  C9500  1  0.327300  0.364400  0.487700  1.0
  C  C9501  1  0.762300  0.827300  0.385600  1.0
  C  C9502  1  0.262300  0.422700  0.364400  1.0
  C  C9503  1  0.487700  0.922700  0.885600  1.0
  C  C9504  1  0.987700  0.327300  0.864400  1.0
  C  C9505  1  0.885600  0.762300  0.327300  1.0
  C  C9506  1  0.864400  0.262300  0.922700  1.0
  C  C9507  1  0.385600  0.487700  0.422700  1.0
  C  C9508  1  0.364400  0.987700  0.827300  1.0
  C  C9509  1  0.635600  0.077300  0.737700  1.0
  C  C9510  1  0.614400  0.672700  0.237700  1.0
  C  C9511  1  0.135600  0.172700  0.012300  1.0
  C  C9512  1  0.114400  0.577300  0.512300  1.0
  C  C9513  1  0.577300  0.012300  0.614400  1.0
  C  C9514  1  0.172700  0.512300  0.635600  1.0
  C  C9515  1  0.672700  0.737700  0.114400  1.0
  C  C9516  1  0.077300  0.237700  0.135600  1.0
  C  C9517  1  0.512300  0.135600  0.672700  1.0
  C  C9518  1  0.012300  0.114400  0.077300  1.0
  C  C9519  1  0.237700  0.635600  0.577300  1.0
  C  C9520  1  0.737700  0.614400  0.172700  1.0
  C  C9521  1  0.672700  0.614400  0.737700  1.0
  C  C9522  1  0.077300  0.635600  0.237700  1.0
  C  C9523  1  0.577300  0.114400  0.012300  1.0
  C  C9524  1  0.172700  0.135600  0.512300  1.0
  C  C9525  1  0.737700  0.672700  0.614400  1.0
  C  C9526  1  0.237700  0.077300  0.635600  1.0
  C  C9527  1  0.012300  0.577300  0.114400  1.0
  C  C9528  1  0.512300  0.172700  0.135600  1.0
  C  C9529  1  0.614400  0.737700  0.672700  1.0
  C  C9530  1  0.635600  0.237700  0.077300  1.0
  C  C9531  1  0.114400  0.012300  0.577300  1.0
  C  C9532  1  0.135600  0.512300  0.172700  1.0
  C  C9533  1  0.864400  0.422700  0.262300  1.0
  C  C9534  1  0.885600  0.827300  0.762300  1.0
  C  C9535  1  0.364400  0.327300  0.987700  1.0
  C  C9536  1  0.385600  0.922700  0.487700  1.0
  C  C9537  1  0.922700  0.487700  0.385600  1.0
  C  C9538  1  0.327300  0.987700  0.364400  1.0
  C  C9539  1  0.827300  0.762300  0.885600  1.0
  C  C9540  1  0.422700  0.262300  0.864400  1.0
  C  C9541  1  0.987700  0.364400  0.327300  1.0
  C  C9542  1  0.487700  0.385600  0.922700  1.0
  C  C9543  1  0.262300  0.864400  0.422700  1.0
  C  C9544  1  0.762300  0.885600  0.827300  1.0
  C  C9545  1  0.672700  0.114400  0.237700  1.0
  C  C9546  1  0.077300  0.135600  0.737700  1.0
  C  C9547  1  0.577300  0.614400  0.512300  1.0
  C  C9548  1  0.172700  0.635600  0.012300  1.0
  C  C9549  1  0.737700  0.172700  0.114400  1.0
  C  C9550  1  0.237700  0.577300  0.135600  1.0
  C  C9551  1  0.012300  0.077300  0.614400  1.0
  C  C9552  1  0.512300  0.672700  0.635600  1.0
  C  C9553  1  0.614400  0.237700  0.172700  1.0
  C  C9554  1  0.635600  0.737700  0.577300  1.0
  C  C9555  1  0.114400  0.512300  0.077300  1.0
  C  C9556  1  0.135600  0.012300  0.672700  1.0
  C  C9557  1  0.864400  0.922700  0.762300  1.0
  C  C9558  1  0.885600  0.327300  0.262300  1.0
  C  C9559  1  0.364400  0.827300  0.487700  1.0
  C  C9560  1  0.385600  0.422700  0.987700  1.0
  C  C9561  1  0.922700  0.987700  0.885600  1.0
  C  C9562  1  0.327300  0.487700  0.864400  1.0
  C  C9563  1  0.827300  0.262300  0.385600  1.0
  C  C9564  1  0.422700  0.762300  0.364400  1.0
  C  C9565  1  0.987700  0.864400  0.827300  1.0
  C  C9566  1  0.487700  0.885600  0.422700  1.0
  C  C9567  1  0.262300  0.364400  0.922700  1.0
  C  C9568  1  0.762300  0.385600  0.327300  1.0
  C  C9569  1  0.172700  0.614400  0.237700  1.0
  C  C9570  1  0.577300  0.635600  0.737700  1.0
  C  C9571  1  0.077300  0.114400  0.512300  1.0
  C  C9572  1  0.672700  0.135600  0.012300  1.0
  C  C9573  1  0.237700  0.672700  0.114400  1.0
  C  C9574  1  0.737700  0.077300  0.135600  1.0
  C  C9575  1  0.512300  0.577300  0.614400  1.0
  C  C9576  1  0.012300  0.172700  0.635600  1.0
  C  C9577  1  0.114400  0.737700  0.172700  1.0
  C  C9578  1  0.135600  0.237700  0.577300  1.0
  C  C9579  1  0.614400  0.012300  0.077300  1.0
  C  C9580  1  0.635600  0.512300  0.672700  1.0
  C  C9581  1  0.364400  0.422700  0.762300  1.0
  C  C9582  1  0.385600  0.827300  0.262300  1.0
  C  C9583  1  0.864400  0.327300  0.487700  1.0
  C  C9584  1  0.885600  0.922700  0.987700  1.0
  C  C9585  1  0.422700  0.487700  0.885600  1.0
  C  C9586  1  0.827300  0.987700  0.864400  1.0
  C  C9587  1  0.327300  0.762300  0.385600  1.0
  C  C9588  1  0.922700  0.262300  0.364400  1.0
  C  C9589  1  0.487700  0.364400  0.827300  1.0
  C  C9590  1  0.987700  0.385600  0.422700  1.0
  C  C9591  1  0.762300  0.864400  0.922700  1.0
  C  C9592  1  0.262300  0.885600  0.327300  1.0
  C  C9593  1  0.172700  0.114400  0.737700  1.0
  C  C9594  1  0.577300  0.135600  0.237700  1.0
  C  C9595  1  0.077300  0.614400  0.012300  1.0
  C  C9596  1  0.672700  0.635600  0.512300  1.0
  C  C9597  1  0.237700  0.172700  0.614400  1.0
  C  C9598  1  0.737700  0.577300  0.635600  1.0
  C  C9599  1  0.512300  0.077300  0.114400  1.0
  C  C9600  1  0.012300  0.672700  0.135600  1.0
  C  C9601  1  0.114400  0.237700  0.672700  1.0
  C  C9602  1  0.135600  0.737700  0.077300  1.0
  C  C9603  1  0.614400  0.512300  0.577300  1.0
  C  C9604  1  0.635600  0.012300  0.172700  1.0
  C  C9605  1  0.364400  0.922700  0.262300  1.0
  C  C9606  1  0.385600  0.327300  0.762300  1.0
  C  C9607  1  0.864400  0.827300  0.987700  1.0
  C  C9608  1  0.885600  0.422700  0.487700  1.0
  C  C9609  1  0.422700  0.987700  0.385600  1.0
  C  C9610  1  0.827300  0.487700  0.364400  1.0
  C  C9611  1  0.327300  0.262300  0.885600  1.0
  C  C9612  1  0.922700  0.762300  0.864400  1.0
  C  C9613  1  0.487700  0.864400  0.327300  1.0
  C  C9614  1  0.987700  0.885600  0.922700  1.0
  C  C9615  1  0.762300  0.364400  0.422700  1.0
  C  C9616  1  0.262300  0.385600  0.827300  1.0
  C  C9617  1  0.408500  0.387800  0.262500  1.0
  C  C9618  1  0.841500  0.362200  0.762500  1.0
  C  C9619  1  0.341500  0.887800  0.987500  1.0
  C  C9620  1  0.908500  0.862200  0.487500  1.0
  C  C9621  1  0.262500  0.408500  0.387800  1.0
  C  C9622  1  0.762500  0.841500  0.362200  1.0
  C  C9623  1  0.987500  0.341500  0.887800  1.0
  C  C9624  1  0.487500  0.908500  0.862200  1.0
  C  C9625  1  0.387800  0.262500  0.408500  1.0
  C  C9626  1  0.362200  0.762500  0.841500  1.0
  C  C9627  1  0.887800  0.987500  0.341500  1.0
  C  C9628  1  0.862200  0.487500  0.908500  1.0
  C  C9629  1  0.137800  0.658500  0.737500  1.0
  C  C9630  1  0.112200  0.091500  0.237500  1.0
  C  C9631  1  0.637800  0.591500  0.012500  1.0
  C  C9632  1  0.612200  0.158500  0.512500  1.0
  C  C9633  1  0.158500  0.512500  0.612200  1.0
  C  C9634  1  0.591500  0.012500  0.637800  1.0
  C  C9635  1  0.091500  0.237500  0.112200  1.0
  C  C9636  1  0.658500  0.737500  0.137800  1.0
  C  C9637  1  0.012500  0.637800  0.591500  1.0
  C  C9638  1  0.512500  0.612200  0.158500  1.0
  C  C9639  1  0.737500  0.137800  0.658500  1.0
  C  C9640  1  0.237500  0.112200  0.091500  1.0
  C  C9641  1  0.408500  0.887800  0.762500  1.0
  C  C9642  1  0.841500  0.862200  0.262500  1.0
  C  C9643  1  0.341500  0.387800  0.487500  1.0
  C  C9644  1  0.908500  0.362200  0.987500  1.0
  C  C9645  1  0.262500  0.908500  0.887800  1.0
  C  C9646  1  0.762500  0.341500  0.862200  1.0
  C  C9647  1  0.987500  0.841500  0.387800  1.0
  C  C9648  1  0.487500  0.408500  0.362200  1.0
  C  C9649  1  0.387800  0.762500  0.908500  1.0
  C  C9650  1  0.362200  0.262500  0.341500  1.0
  C  C9651  1  0.887800  0.487500  0.841500  1.0
  C  C9652  1  0.862200  0.987500  0.408500  1.0
  C  C9653  1  0.137800  0.158500  0.237500  1.0
  C  C9654  1  0.112200  0.591500  0.737500  1.0
  C  C9655  1  0.637800  0.091500  0.512500  1.0
  C  C9656  1  0.612200  0.658500  0.012500  1.0
  C  C9657  1  0.158500  0.012500  0.112200  1.0
  C  C9658  1  0.591500  0.512500  0.137800  1.0
  C  C9659  1  0.091500  0.737500  0.612200  1.0
  C  C9660  1  0.658500  0.237500  0.637800  1.0
  C  C9661  1  0.012500  0.137800  0.091500  1.0
  C  C9662  1  0.512500  0.112200  0.658500  1.0
  C  C9663  1  0.737500  0.637800  0.158500  1.0
  C  C9664  1  0.237500  0.612200  0.591500  1.0
  C  C9665  1  0.908500  0.387800  0.762500  1.0
  C  C9666  1  0.341500  0.362200  0.262500  1.0
  C  C9667  1  0.841500  0.887800  0.487500  1.0
  C  C9668  1  0.408500  0.862200  0.987500  1.0
  C  C9669  1  0.762500  0.408500  0.887800  1.0
  C  C9670  1  0.262500  0.841500  0.862200  1.0
  C  C9671  1  0.487500  0.341500  0.387800  1.0
  C  C9672  1  0.987500  0.908500  0.362200  1.0
  C  C9673  1  0.887800  0.262500  0.908500  1.0
  C  C9674  1  0.862200  0.762500  0.341500  1.0
  C  C9675  1  0.387800  0.987500  0.841500  1.0
  C  C9676  1  0.362200  0.487500  0.408500  1.0
  C  C9677  1  0.637800  0.658500  0.237500  1.0
  C  C9678  1  0.612200  0.091500  0.737500  1.0
  C  C9679  1  0.137800  0.591500  0.512500  1.0
  C  C9680  1  0.112200  0.158500  0.012500  1.0
  C  C9681  1  0.658500  0.512500  0.112200  1.0
  C  C9682  1  0.091500  0.012500  0.137800  1.0
  C  C9683  1  0.591500  0.237500  0.612200  1.0
  C  C9684  1  0.158500  0.737500  0.637800  1.0
  C  C9685  1  0.512500  0.637800  0.091500  1.0
  C  C9686  1  0.012500  0.612200  0.658500  1.0
  C  C9687  1  0.237500  0.137800  0.158500  1.0
  C  C9688  1  0.737500  0.112200  0.591500  1.0
  C  C9689  1  0.908500  0.887800  0.262500  1.0
  C  C9690  1  0.341500  0.862200  0.762500  1.0
  C  C9691  1  0.841500  0.387800  0.987500  1.0
  C  C9692  1  0.408500  0.362200  0.487500  1.0
  C  C9693  1  0.762500  0.908500  0.387800  1.0
  C  C9694  1  0.262500  0.341500  0.362200  1.0
  C  C9695  1  0.487500  0.841500  0.887800  1.0
  C  C9696  1  0.987500  0.408500  0.862200  1.0
  C  C9697  1  0.887800  0.762500  0.408500  1.0
  C  C9698  1  0.862200  0.262500  0.841500  1.0
  C  C9699  1  0.387800  0.487500  0.341500  1.0
  C  C9700  1  0.362200  0.987500  0.908500  1.0
  C  C9701  1  0.637800  0.158500  0.737500  1.0
  C  C9702  1  0.612200  0.591500  0.237500  1.0
  C  C9703  1  0.137800  0.091500  0.012500  1.0
  C  C9704  1  0.112200  0.658500  0.512500  1.0
  C  C9705  1  0.658500  0.012500  0.612200  1.0
  C  C9706  1  0.091500  0.512500  0.637800  1.0
  C  C9707  1  0.591500  0.737500  0.112200  1.0
  C  C9708  1  0.158500  0.237500  0.137800  1.0
  C  C9709  1  0.512500  0.137800  0.591500  1.0
  C  C9710  1  0.012500  0.112200  0.158500  1.0
  C  C9711  1  0.237500  0.637800  0.658500  1.0
  C  C9712  1  0.737500  0.612200  0.091500  1.0
  C  C9713  1  0.591500  0.612200  0.737500  1.0
  C  C9714  1  0.158500  0.637800  0.237500  1.0
  C  C9715  1  0.658500  0.112200  0.012500  1.0
  C  C9716  1  0.091500  0.137800  0.512500  1.0
  C  C9717  1  0.737500  0.591500  0.612200  1.0
  C  C9718  1  0.237500  0.158500  0.637800  1.0
  C  C9719  1  0.012500  0.658500  0.112200  1.0
  C  C9720  1  0.512500  0.091500  0.137800  1.0
  C  C9721  1  0.612200  0.737500  0.591500  1.0
  C  C9722  1  0.637800  0.237500  0.158500  1.0
  C  C9723  1  0.112200  0.012500  0.658500  1.0
  C  C9724  1  0.137800  0.512500  0.091500  1.0
  C  C9725  1  0.862200  0.341500  0.262500  1.0
  C  C9726  1  0.887800  0.908500  0.762500  1.0
  C  C9727  1  0.362200  0.408500  0.987500  1.0
  C  C9728  1  0.387800  0.841500  0.487500  1.0
  C  C9729  1  0.841500  0.487500  0.387800  1.0
  C  C9730  1  0.408500  0.987500  0.362200  1.0
  C  C9731  1  0.908500  0.762500  0.887800  1.0
  C  C9732  1  0.341500  0.262500  0.862200  1.0
  C  C9733  1  0.987500  0.362200  0.408500  1.0
  C  C9734  1  0.487500  0.387800  0.841500  1.0
  C  C9735  1  0.262500  0.862200  0.341500  1.0
  C  C9736  1  0.762500  0.887800  0.908500  1.0
  C  C9737  1  0.591500  0.112200  0.237500  1.0
  C  C9738  1  0.158500  0.137800  0.737500  1.0
  C  C9739  1  0.658500  0.612200  0.512500  1.0
  C  C9740  1  0.091500  0.637800  0.012500  1.0
  C  C9741  1  0.737500  0.091500  0.112200  1.0
  C  C9742  1  0.237500  0.658500  0.137800  1.0
  C  C9743  1  0.012500  0.158500  0.612200  1.0
  C  C9744  1  0.512500  0.591500  0.637800  1.0
  C  C9745  1  0.612200  0.237500  0.091500  1.0
  C  C9746  1  0.637800  0.737500  0.658500  1.0
  C  C9747  1  0.112200  0.512500  0.158500  1.0
  C  C9748  1  0.137800  0.012500  0.591500  1.0
  C  C9749  1  0.862200  0.841500  0.762500  1.0
  C  C9750  1  0.887800  0.408500  0.262500  1.0
  C  C9751  1  0.362200  0.908500  0.487500  1.0
  C  C9752  1  0.387800  0.341500  0.987500  1.0
  C  C9753  1  0.841500  0.987500  0.887800  1.0
  C  C9754  1  0.408500  0.487500  0.862200  1.0
  C  C9755  1  0.908500  0.262500  0.387800  1.0
  C  C9756  1  0.341500  0.762500  0.362200  1.0
  C  C9757  1  0.987500  0.862200  0.908500  1.0
  C  C9758  1  0.487500  0.887800  0.341500  1.0
  C  C9759  1  0.262500  0.362200  0.841500  1.0
  C  C9760  1  0.762500  0.387800  0.408500  1.0
  C  C9761  1  0.091500  0.612200  0.237500  1.0
  C  C9762  1  0.658500  0.637800  0.737500  1.0
  C  C9763  1  0.158500  0.112200  0.512500  1.0
  C  C9764  1  0.591500  0.137800  0.012500  1.0
  C  C9765  1  0.237500  0.591500  0.112200  1.0
  C  C9766  1  0.737500  0.158500  0.137800  1.0
  C  C9767  1  0.512500  0.658500  0.612200  1.0
  C  C9768  1  0.012500  0.091500  0.637800  1.0
  C  C9769  1  0.112200  0.737500  0.091500  1.0
  C  C9770  1  0.137800  0.237500  0.658500  1.0
  C  C9771  1  0.612200  0.012500  0.158500  1.0
  C  C9772  1  0.637800  0.512500  0.591500  1.0
  C  C9773  1  0.362200  0.341500  0.762500  1.0
  C  C9774  1  0.387800  0.908500  0.262500  1.0
  C  C9775  1  0.862200  0.408500  0.487500  1.0
  C  C9776  1  0.887800  0.841500  0.987500  1.0
  C  C9777  1  0.341500  0.487500  0.887800  1.0
  C  C9778  1  0.908500  0.987500  0.862200  1.0
  C  C9779  1  0.408500  0.762500  0.387800  1.0
  C  C9780  1  0.841500  0.262500  0.362200  1.0
  C  C9781  1  0.487500  0.362200  0.908500  1.0
  C  C9782  1  0.987500  0.387800  0.341500  1.0
  C  C9783  1  0.762500  0.862200  0.841500  1.0
  C  C9784  1  0.262500  0.887800  0.408500  1.0
  C  C9785  1  0.091500  0.112200  0.737500  1.0
  C  C9786  1  0.658500  0.137800  0.237500  1.0
  C  C9787  1  0.158500  0.612200  0.012500  1.0
  C  C9788  1  0.591500  0.637800  0.512500  1.0
  C  C9789  1  0.237500  0.091500  0.612200  1.0
  C  C9790  1  0.737500  0.658500  0.637800  1.0
  C  C9791  1  0.512500  0.158500  0.112200  1.0
  C  C9792  1  0.012500  0.591500  0.137800  1.0
  C  C9793  1  0.112200  0.237500  0.591500  1.0
  C  C9794  1  0.137800  0.737500  0.158500  1.0
  C  C9795  1  0.612200  0.512500  0.658500  1.0
  C  C9796  1  0.637800  0.012500  0.091500  1.0
  C  C9797  1  0.362200  0.841500  0.262500  1.0
  C  C9798  1  0.387800  0.408500  0.762500  1.0
  C  C9799  1  0.862200  0.908500  0.987500  1.0
  C  C9800  1  0.887800  0.341500  0.487500  1.0
  C  C9801  1  0.341500  0.987500  0.387800  1.0
  C  C9802  1  0.908500  0.487500  0.362200  1.0
  C  C9803  1  0.408500  0.262500  0.887800  1.0
  C  C9804  1  0.841500  0.762500  0.862200  1.0
  C  C9805  1  0.487500  0.862200  0.408500  1.0
  C  C9806  1  0.987500  0.887800  0.841500  1.0
  C  C9807  1  0.762500  0.362200  0.341500  1.0
  C  C9808  1  0.262500  0.387800  0.908500  1.0
  N  N9809  1  0.379500  0.435100  0.264890  1.0
  N  N9810  1  0.870500  0.314900  0.764890  1.0
  N  N9811  1  0.370500  0.935100  0.985110  1.0
  N  N9812  1  0.879500  0.814900  0.485110  1.0
  N  N9813  1  0.264890  0.379500  0.435100  1.0
  N  N9814  1  0.764890  0.870500  0.314900  1.0
  N  N9815  1  0.985110  0.370500  0.935100  1.0
  N  N9816  1  0.485110  0.879500  0.814900  1.0
  N  N9817  1  0.435100  0.264890  0.379500  1.0
  N  N9818  1  0.314900  0.764890  0.870500  1.0
  N  N9819  1  0.935100  0.985110  0.370500  1.0
  N  N9820  1  0.814900  0.485110  0.879500  1.0
  N  N9821  1  0.185100  0.629500  0.735110  1.0
  N  N9822  1  0.064900  0.120500  0.235110  1.0
  N  N9823  1  0.685100  0.620500  0.014890  1.0
  N  N9824  1  0.564900  0.129500  0.514890  1.0
  N  N9825  1  0.129500  0.514890  0.564900  1.0
  N  N9826  1  0.620500  0.014890  0.685100  1.0
  N  N9827  1  0.120500  0.235110  0.064900  1.0
  N  N9828  1  0.629500  0.735110  0.185100  1.0
  N  N9829  1  0.014890  0.685100  0.620500  1.0
  N  N9830  1  0.514890  0.564900  0.129500  1.0
  N  N9831  1  0.735110  0.185100  0.629500  1.0
  N  N9832  1  0.235110  0.064900  0.120500  1.0
  N  N9833  1  0.379500  0.935100  0.764890  1.0
  N  N9834  1  0.870500  0.814900  0.264890  1.0
  N  N9835  1  0.370500  0.435100  0.485110  1.0
  N  N9836  1  0.879500  0.314900  0.985110  1.0
  N  N9837  1  0.264890  0.879500  0.935100  1.0
  N  N9838  1  0.764890  0.370500  0.814900  1.0
  N  N9839  1  0.985110  0.870500  0.435100  1.0
  N  N9840  1  0.485110  0.379500  0.314900  1.0
  N  N9841  1  0.435100  0.764890  0.879500  1.0
  N  N9842  1  0.314900  0.264890  0.370500  1.0
  N  N9843  1  0.935100  0.485110  0.870500  1.0
  N  N9844  1  0.814900  0.985110  0.379500  1.0
  N  N9845  1  0.185100  0.129500  0.235110  1.0
  N  N9846  1  0.064900  0.620500  0.735110  1.0
  N  N9847  1  0.685100  0.120500  0.514890  1.0
  N  N9848  1  0.564900  0.629500  0.014890  1.0
  N  N9849  1  0.129500  0.014890  0.064900  1.0
  N  N9850  1  0.620500  0.514890  0.185100  1.0
  N  N9851  1  0.120500  0.735110  0.564900  1.0
  N  N9852  1  0.629500  0.235110  0.685100  1.0
  N  N9853  1  0.014890  0.185100  0.120500  1.0
  N  N9854  1  0.514890  0.064900  0.629500  1.0
  N  N9855  1  0.735110  0.685100  0.129500  1.0
  N  N9856  1  0.235110  0.564900  0.620500  1.0
  N  N9857  1  0.879500  0.435100  0.764890  1.0
  N  N9858  1  0.370500  0.314900  0.264890  1.0
  N  N9859  1  0.870500  0.935100  0.485110  1.0
  N  N9860  1  0.379500  0.814900  0.985110  1.0
  N  N9861  1  0.764890  0.379500  0.935100  1.0
  N  N9862  1  0.264890  0.870500  0.814900  1.0
  N  N9863  1  0.485110  0.370500  0.435100  1.0
  N  N9864  1  0.985110  0.879500  0.314900  1.0
  N  N9865  1  0.935100  0.264890  0.879500  1.0
  N  N9866  1  0.814900  0.764890  0.370500  1.0
  N  N9867  1  0.435100  0.985110  0.870500  1.0
  N  N9868  1  0.314900  0.485110  0.379500  1.0
  N  N9869  1  0.685100  0.629500  0.235110  1.0
  N  N9870  1  0.564900  0.120500  0.735110  1.0
  N  N9871  1  0.185100  0.620500  0.514890  1.0
  N  N9872  1  0.064900  0.129500  0.014890  1.0
  N  N9873  1  0.629500  0.514890  0.064900  1.0
  N  N9874  1  0.120500  0.014890  0.185100  1.0
  N  N9875  1  0.620500  0.235110  0.564900  1.0
  N  N9876  1  0.129500  0.735110  0.685100  1.0
  N  N9877  1  0.514890  0.685100  0.120500  1.0
  N  N9878  1  0.014890  0.564900  0.629500  1.0
  N  N9879  1  0.235110  0.185100  0.129500  1.0
  N  N9880  1  0.735110  0.064900  0.620500  1.0
  N  N9881  1  0.879500  0.935100  0.264890  1.0
  N  N9882  1  0.370500  0.814900  0.764890  1.0
  N  N9883  1  0.870500  0.435100  0.985110  1.0
  N  N9884  1  0.379500  0.314900  0.485110  1.0
  N  N9885  1  0.764890  0.879500  0.435100  1.0
  N  N9886  1  0.264890  0.370500  0.314900  1.0
  N  N9887  1  0.485110  0.870500  0.935100  1.0
  N  N9888  1  0.985110  0.379500  0.814900  1.0
  N  N9889  1  0.935100  0.764890  0.379500  1.0
  N  N9890  1  0.814900  0.264890  0.870500  1.0
  N  N9891  1  0.435100  0.485110  0.370500  1.0
  N  N9892  1  0.314900  0.985110  0.879500  1.0
  N  N9893  1  0.685100  0.129500  0.735110  1.0
  N  N9894  1  0.564900  0.620500  0.235110  1.0
  N  N9895  1  0.185100  0.120500  0.014890  1.0
  N  N9896  1  0.064900  0.629500  0.514890  1.0
  N  N9897  1  0.629500  0.014890  0.564900  1.0
  N  N9898  1  0.120500  0.514890  0.685100  1.0
  N  N9899  1  0.620500  0.735110  0.064900  1.0
  N  N9900  1  0.129500  0.235110  0.185100  1.0
  N  N9901  1  0.514890  0.185100  0.620500  1.0
  N  N9902  1  0.014890  0.064900  0.129500  1.0
  N  N9903  1  0.235110  0.685100  0.629500  1.0
  N  N9904  1  0.735110  0.564900  0.120500  1.0
  N  N9905  1  0.620500  0.564900  0.735110  1.0
  N  N9906  1  0.129500  0.685100  0.235110  1.0
  N  N9907  1  0.629500  0.064900  0.014890  1.0
  N  N9908  1  0.120500  0.185100  0.514890  1.0
  N  N9909  1  0.735110  0.620500  0.564900  1.0
  N  N9910  1  0.235110  0.129500  0.685100  1.0
  N  N9911  1  0.014890  0.629500  0.064900  1.0
  N  N9912  1  0.514890  0.120500  0.185100  1.0
  N  N9913  1  0.564900  0.735110  0.620500  1.0
  N  N9914  1  0.685100  0.235110  0.129500  1.0
  N  N9915  1  0.064900  0.014890  0.629500  1.0
  N  N9916  1  0.185100  0.514890  0.120500  1.0
  N  N9917  1  0.814900  0.370500  0.264890  1.0
  N  N9918  1  0.935100  0.879500  0.764890  1.0
  N  N9919  1  0.314900  0.379500  0.985110  1.0
  N  N9920  1  0.435100  0.870500  0.485110  1.0
  N  N9921  1  0.870500  0.485110  0.435100  1.0
  N  N9922  1  0.379500  0.985110  0.314900  1.0
  N  N9923  1  0.879500  0.764890  0.935100  1.0
  N  N9924  1  0.370500  0.264890  0.814900  1.0
  N  N9925  1  0.985110  0.314900  0.379500  1.0
  N  N9926  1  0.485110  0.435100  0.870500  1.0
  N  N9927  1  0.264890  0.814900  0.370500  1.0
  N  N9928  1  0.764890  0.935100  0.879500  1.0
  N  N9929  1  0.620500  0.064900  0.235110  1.0
  N  N9930  1  0.129500  0.185100  0.735110  1.0
  N  N9931  1  0.629500  0.564900  0.514890  1.0
  N  N9932  1  0.120500  0.685100  0.014890  1.0
  N  N9933  1  0.735110  0.120500  0.064900  1.0
  N  N9934  1  0.235110  0.629500  0.185100  1.0
  N  N9935  1  0.014890  0.129500  0.564900  1.0
  N  N9936  1  0.514890  0.620500  0.685100  1.0
  N  N9937  1  0.564900  0.235110  0.120500  1.0
  N  N9938  1  0.685100  0.735110  0.629500  1.0
  N  N9939  1  0.064900  0.514890  0.129500  1.0
  N  N9940  1  0.185100  0.014890  0.620500  1.0
  N  N9941  1  0.814900  0.870500  0.764890  1.0
  N  N9942  1  0.935100  0.379500  0.264890  1.0
  N  N9943  1  0.314900  0.879500  0.485110  1.0
  N  N9944  1  0.435100  0.370500  0.985110  1.0
  N  N9945  1  0.870500  0.985110  0.935100  1.0
  N  N9946  1  0.379500  0.485110  0.814900  1.0
  N  N9947  1  0.879500  0.264890  0.435100  1.0
  N  N9948  1  0.370500  0.764890  0.314900  1.0
  N  N9949  1  0.985110  0.814900  0.879500  1.0
  N  N9950  1  0.485110  0.935100  0.370500  1.0
  N  N9951  1  0.264890  0.314900  0.870500  1.0
  N  N9952  1  0.764890  0.435100  0.379500  1.0
  N  N9953  1  0.120500  0.564900  0.235110  1.0
  N  N9954  1  0.629500  0.685100  0.735110  1.0
  N  N9955  1  0.129500  0.064900  0.514890  1.0
  N  N9956  1  0.620500  0.185100  0.014890  1.0
  N  N9957  1  0.235110  0.620500  0.064900  1.0
  N  N9958  1  0.735110  0.129500  0.185100  1.0
  N  N9959  1  0.514890  0.629500  0.564900  1.0
  N  N9960  1  0.014890  0.120500  0.685100  1.0
  N  N9961  1  0.064900  0.735110  0.120500  1.0
  N  N9962  1  0.185100  0.235110  0.629500  1.0
  N  N9963  1  0.564900  0.014890  0.129500  1.0
  N  N9964  1  0.685100  0.514890  0.620500  1.0
  N  N9965  1  0.314900  0.370500  0.764890  1.0
  N  N9966  1  0.435100  0.879500  0.264890  1.0
  N  N9967  1  0.814900  0.379500  0.485110  1.0
  N  N9968  1  0.935100  0.870500  0.985110  1.0
  N  N9969  1  0.370500  0.485110  0.935100  1.0
  N  N9970  1  0.879500  0.985110  0.814900  1.0
  N  N9971  1  0.379500  0.764890  0.435100  1.0
  N  N9972  1  0.870500  0.264890  0.314900  1.0
  N  N9973  1  0.485110  0.314900  0.879500  1.0
  N  N9974  1  0.985110  0.435100  0.370500  1.0
  N  N9975  1  0.764890  0.814900  0.870500  1.0
  N  N9976  1  0.264890  0.935100  0.379500  1.0
  N  N9977  1  0.120500  0.064900  0.735110  1.0
  N  N9978  1  0.629500  0.185100  0.235110  1.0
  N  N9979  1  0.129500  0.564900  0.014890  1.0
  N  N9980  1  0.620500  0.685100  0.514890  1.0
  N  N9981  1  0.235110  0.120500  0.564900  1.0
  N  N9982  1  0.735110  0.629500  0.685100  1.0
  N  N9983  1  0.514890  0.129500  0.064900  1.0
  N  N9984  1  0.014890  0.620500  0.185100  1.0
  N  N9985  1  0.064900  0.235110  0.620500  1.0
  N  N9986  1  0.185100  0.735110  0.129500  1.0
  N  N9987  1  0.564900  0.514890  0.629500  1.0
  N  N9988  1  0.685100  0.014890  0.120500  1.0
  N  N9989  1  0.314900  0.870500  0.264890  1.0
  N  N9990  1  0.435100  0.379500  0.764890  1.0
  N  N9991  1  0.814900  0.879500  0.985110  1.0
  N  N9992  1  0.935100  0.370500  0.485110  1.0
  N  N9993  1  0.370500  0.985110  0.435100  1.0
  N  N9994  1  0.879500  0.485110  0.314900  1.0
  N  N9995  1  0.379500  0.264890  0.935100  1.0
  N  N9996  1  0.870500  0.764890  0.814900  1.0
  N  N9997  1  0.485110  0.814900  0.379500  1.0
  N  N9998  1  0.985110  0.935100  0.870500  1.0
  N  N9999  1  0.764890  0.314900  0.370500  1.0
  N  N10000  1  0.264890  0.435100  0.879500  1.0
  O  O10001  1  0.452100  0.571900  0.314500  1
  O  O10002  1  0.797900  0.178100  0.814500  1
  O  O10003  1  0.297900  0.071900  0.935500  1
  O  O10004  1  0.952100  0.678100  0.435500  1
  O  O10005  1  0.314500  0.452100  0.571900  1
  O  O10006  1  0.814500  0.797900  0.178100  1
  O  O10007  1  0.935500  0.297900  0.071900  1
  O  O10008  1  0.435500  0.952100  0.678100  1
  O  O10009  1  0.571900  0.314500  0.452100  1
  O  O10010  1  0.178100  0.814500  0.797900  1
  O  O10011  1  0.071900  0.935500  0.297900  1
  O  O10012  1  0.678100  0.435500  0.952100  1
  O  O10013  1  0.321900  0.702100  0.685500  1
  O  O10014  1  0.928100  0.047900  0.185500  1
  O  O10015  1  0.821900  0.547900  0.064500  1
  O  O10016  1  0.428100  0.202100  0.564500  1
  O  O10017  1  0.202100  0.564500  0.428100  1
  O  O10018  1  0.547900  0.064500  0.821900  1
  O  O10019  1  0.047900  0.185500  0.928100  1
  O  O10020  1  0.702100  0.685500  0.321900  1
  O  O10021  1  0.064500  0.821900  0.547900  1
  O  O10022  1  0.564500  0.428100  0.202100  1
  O  O10023  1  0.685500  0.321900  0.702100  1
  O  O10024  1  0.185500  0.928100  0.047900  1
  O  O10025  1  0.452100  0.071900  0.814500  1
  O  O10026  1  0.797900  0.678100  0.314500  1
  O  O10027  1  0.297900  0.571900  0.435500  1
  O  O10028  1  0.952100  0.178100  0.935500  1
  O  O10029  1  0.314500  0.952100  0.071900  1
  O  O10030  1  0.814500  0.297900  0.678100  1
  O  O10031  1  0.935500  0.797900  0.571900  1
  O  O10032  1  0.435500  0.452100  0.178100  1
  O  O10033  1  0.571900  0.814500  0.952100  1
  O  O10034  1  0.178100  0.314500  0.297900  1
  O  O10035  1  0.071900  0.435500  0.797900  1
  O  O10036  1  0.678100  0.935500  0.452100  1
  O  O10037  1  0.321900  0.202100  0.185500  1
  O  O10038  1  0.928100  0.547900  0.685500  1
  O  O10039  1  0.821900  0.047900  0.564500  1
  O  O10040  1  0.428100  0.702100  0.064500  1
  O  O10041  1  0.202100  0.064500  0.928100  1
  O  O10042  1  0.547900  0.564500  0.321900  1
  O  O10043  1  0.047900  0.685500  0.428100  1
  O  O10044  1  0.702100  0.185500  0.821900  1
  O  O10045  1  0.064500  0.321900  0.047900  1
  O  O10046  1  0.564500  0.928100  0.702100  1
  O  O10047  1  0.685500  0.821900  0.202100  1
  O  O10048  1  0.185500  0.428100  0.547900  1
  O  O10049  1  0.952100  0.571900  0.814500  1
  O  O10050  1  0.297900  0.178100  0.314500  1
  O  O10051  1  0.797900  0.071900  0.435500  1
  O  O10052  1  0.452100  0.678100  0.935500  1
  O  O10053  1  0.814500  0.452100  0.071900  1
  O  O10054  1  0.314500  0.797900  0.678100  1
  O  O10055  1  0.435500  0.297900  0.571900  1
  O  O10056  1  0.935500  0.952100  0.178100  1
  O  O10057  1  0.071900  0.314500  0.952100  1
  O  O10058  1  0.678100  0.814500  0.297900  1
  O  O10059  1  0.571900  0.935500  0.797900  1
  O  O10060  1  0.178100  0.435500  0.452100  1
  O  O10061  1  0.821900  0.702100  0.185500  1
  O  O10062  1  0.428100  0.047900  0.685500  1
  O  O10063  1  0.321900  0.547900  0.564500  1
  O  O10064  1  0.928100  0.202100  0.064500  1
  O  O10065  1  0.702100  0.564500  0.928100  1
  O  O10066  1  0.047900  0.064500  0.321900  1
  O  O10067  1  0.547900  0.185500  0.428100  1
  O  O10068  1  0.202100  0.685500  0.821900  1
  O  O10069  1  0.564500  0.821900  0.047900  1
  O  O10070  1  0.064500  0.428100  0.702100  1
  O  O10071  1  0.185500  0.321900  0.202100  1
  O  O10072  1  0.685500  0.928100  0.547900  1
  O  O10073  1  0.952100  0.071900  0.314500  1
  O  O10074  1  0.297900  0.678100  0.814500  1
  O  O10075  1  0.797900  0.571900  0.935500  1
  O  O10076  1  0.452100  0.178100  0.435500  1
  O  O10077  1  0.814500  0.952100  0.571900  1
  O  O10078  1  0.314500  0.297900  0.178100  1
  O  O10079  1  0.435500  0.797900  0.071900  1
  O  O10080  1  0.935500  0.452100  0.678100  1
  O  O10081  1  0.071900  0.814500  0.452100  1
  O  O10082  1  0.678100  0.314500  0.797900  1
  O  O10083  1  0.571900  0.435500  0.297900  1
  O  O10084  1  0.178100  0.935500  0.952100  1
  O  O10085  1  0.821900  0.202100  0.685500  1
  O  O10086  1  0.428100  0.547900  0.185500  1
  O  O10087  1  0.321900  0.047900  0.064500  1
  O  O10088  1  0.928100  0.702100  0.564500  1
  O  O10089  1  0.702100  0.064500  0.428100  1
  O  O10090  1  0.047900  0.564500  0.821900  1
  O  O10091  1  0.547900  0.685500  0.928100  1
  O  O10092  1  0.202100  0.185500  0.321900  1
  O  O10093  1  0.564500  0.321900  0.547900  1
  O  O10094  1  0.064500  0.928100  0.202100  1
  O  O10095  1  0.185500  0.821900  0.702100  1
  O  O10096  1  0.685500  0.428100  0.047900  1
  O  O10097  1  0.547900  0.428100  0.685500  1
  O  O10098  1  0.202100  0.821900  0.185500  1
  O  O10099  1  0.702100  0.928100  0.064500  1
  O  O10100  1  0.047900  0.321900  0.564500  1
  O  O10101  1  0.685500  0.547900  0.428100  1
  O  O10102  1  0.185500  0.202100  0.821900  1
  O  O10103  1  0.064500  0.702100  0.928100  1
  O  O10104  1  0.564500  0.047900  0.321900  1
  O  O10105  1  0.428100  0.685500  0.547900  1
  O  O10106  1  0.821900  0.185500  0.202100  1
  O  O10107  1  0.928100  0.064500  0.702100  1
  O  O10108  1  0.321900  0.564500  0.047900  1
  O  O10109  1  0.678100  0.297900  0.314500  1
  O  O10110  1  0.071900  0.952100  0.814500  1
  O  O10111  1  0.178100  0.452100  0.935500  1
  O  O10112  1  0.571900  0.797900  0.435500  1
  O  O10113  1  0.797900  0.435500  0.571900  1
  O  O10114  1  0.452100  0.935500  0.178100  1
  O  O10115  1  0.952100  0.814500  0.071900  1
  O  O10116  1  0.297900  0.314500  0.678100  1
  O  O10117  1  0.935500  0.178100  0.452100  1
  O  O10118  1  0.435500  0.571900  0.797900  1
  O  O10119  1  0.314500  0.678100  0.297900  1
  O  O10120  1  0.814500  0.071900  0.952100  1
  O  O10121  1  0.547900  0.928100  0.185500  1
  O  O10122  1  0.202100  0.321900  0.685500  1
  O  O10123  1  0.702100  0.428100  0.564500  1
  O  O10124  1  0.047900  0.821900  0.064500  1
  O  O10125  1  0.685500  0.047900  0.928100  1
  O  O10126  1  0.185500  0.702100  0.321900  1
  O  O10127  1  0.064500  0.202100  0.428100  1
  O  O10128  1  0.564500  0.547900  0.821900  1
  O  O10129  1  0.428100  0.185500  0.047900  1
  O  O10130  1  0.821900  0.685500  0.702100  1
  O  O10131  1  0.928100  0.564500  0.202100  1
  O  O10132  1  0.321900  0.064500  0.547900  1
  O  O10133  1  0.678100  0.797900  0.814500  1
  O  O10134  1  0.071900  0.452100  0.314500  1
  O  O10135  1  0.178100  0.952100  0.435500  1
  O  O10136  1  0.571900  0.297900  0.935500  1
  O  O10137  1  0.797900  0.935500  0.071900  1
  O  O10138  1  0.452100  0.435500  0.678100  1
  O  O10139  1  0.952100  0.314500  0.571900  1
  O  O10140  1  0.297900  0.814500  0.178100  1
  O  O10141  1  0.935500  0.678100  0.952100  1
  O  O10142  1  0.435500  0.071900  0.297900  1
  O  O10143  1  0.314500  0.178100  0.797900  1
  O  O10144  1  0.814500  0.571900  0.452100  1
  O  O10145  1  0.047900  0.428100  0.185500  1
  O  O10146  1  0.702100  0.821900  0.685500  1
  O  O10147  1  0.202100  0.928100  0.564500  1
  O  O10148  1  0.547900  0.321900  0.064500  1
  O  O10149  1  0.185500  0.547900  0.928100  1
  O  O10150  1  0.685500  0.202100  0.321900  1
  O  O10151  1  0.564500  0.702100  0.428100  1
  O  O10152  1  0.064500  0.047900  0.821900  1
  O  O10153  1  0.928100  0.685500  0.047900  1
  O  O10154  1  0.321900  0.185500  0.702100  1
  O  O10155  1  0.428100  0.064500  0.202100  1
  O  O10156  1  0.821900  0.564500  0.547900  1
  O  O10157  1  0.178100  0.297900  0.814500  1
  O  O10158  1  0.571900  0.952100  0.314500  1
  O  O10159  1  0.678100  0.452100  0.435500  1
  O  O10160  1  0.071900  0.797900  0.935500  1
  O  O10161  1  0.297900  0.435500  0.071900  1
  O  O10162  1  0.952100  0.935500  0.678100  1
  O  O10163  1  0.452100  0.814500  0.571900  1
  O  O10164  1  0.797900  0.314500  0.178100  1
  O  O10165  1  0.435500  0.178100  0.952100  1
  O  O10166  1  0.935500  0.571900  0.297900  1
  O  O10167  1  0.814500  0.678100  0.797900  1
  O  O10168  1  0.314500  0.071900  0.452100  1
  O  O10169  1  0.047900  0.928100  0.685500  1
  O  O10170  1  0.702100  0.321900  0.185500  1
  O  O10171  1  0.202100  0.428100  0.064500  1
  O  O10172  1  0.547900  0.821900  0.564500  1
  O  O10173  1  0.185500  0.047900  0.428100  1
  O  O10174  1  0.685500  0.702100  0.821900  1
  O  O10175  1  0.564500  0.202100  0.928100  1
  O  O10176  1  0.064500  0.547900  0.321900  1
  O  O10177  1  0.928100  0.185500  0.547900  1
  O  O10178  1  0.321900  0.685500  0.202100  1
  O  O10179  1  0.428100  0.564500  0.702100  1
  O  O10180  1  0.821900  0.064500  0.047900  1
  O  O10181  1  0.178100  0.797900  0.314500  1
  O  O10182  1  0.571900  0.452100  0.814500  1
  O  O10183  1  0.678100  0.952100  0.935500  1
  O  O10184  1  0.071900  0.297900  0.435500  1
  O  O10185  1  0.297900  0.935500  0.571900  1
  O  O10186  1  0.952100  0.435500  0.178100  1
  O  O10187  1  0.452100  0.314500  0.071900  1
  O  O10188  1  0.797900  0.814500  0.678100  1
  O  O10189  1  0.435500  0.678100  0.452100  1
  O  O10190  1  0.935500  0.071900  0.797900  1
  O  O10191  1  0.814500  0.178100  0.297900  1
  O  O10192  1  0.314500  0.571900  0.952100  1
  O  O10193  1  0.500000  0.500000  0.250000  1
  O  O10194  1  0.750000  0.250000  0.750000  1
  O  O10195  1  0.250000  0.000000  0.000000  1
  O  O10196  1  0.000000  0.750000  0.500000  1
  O  O10197  1  0.250000  0.500000  0.500000  1
  O  O10198  1  0.750000  0.750000  0.250000  1
  O  O10199  1  0.000000  0.250000  0.000000  1
  O  O10200  1  0.500000  0.000000  0.750000  1
  O  O10201  1  0.500000  0.250000  0.500000  1
  O  O10202  1  0.250000  0.750000  0.750000  1
  O  O10203  1  0.000000  0.000000  0.250000  1
  O  O10204  1  0.750000  0.500000  0.000000  1
  O  O10205  1  0.500000  0.750000  0.000000  1
  O  O10206  1  0.250000  0.250000  0.250000  1
  O  O10207  1  0.000000  0.500000  0.750000  1
  O  O10208  1  0.750000  0.000000  0.500000  1
  O  O10209  1  0.500000  0.500000  0.750000  1
  O  O10210  1  0.250000  0.750000  0.250000  1
  O  O10211  1  0.750000  0.000000  0.000000  1
  O  O10212  1  0.000000  0.250000  0.500000  1
  O  O10213  1  0.750000  0.500000  0.500000  1
  O  O10214  1  0.250000  0.250000  0.750000  1
  O  O10215  1  0.000000  0.750000  0.000000  1
  O  O10216  1  0.500000  0.000000  0.250000  1
  O  O10217  1  0.500000  0.750000  0.500000  1
  O  O10218  1  0.750000  0.250000  0.250000  1
  O  O10219  1  0.000000  0.000000  0.750000  1
  O  O10220  1  0.250000  0.500000  0.000000  1
  O  O10221  1  0.500000  0.250000  0.000000  1
  O  O10222  1  0.750000  0.750000  0.750000  1
  O  O10223  1  0.000000  0.500000  0.250000  1
  O  O10224  1  0.250000  0.000000  0.500000  1
  O  O10225  1  0.426010  0.459000  0.279210  1.0
  O  O10226  1  0.823990  0.291000  0.779210  1.0
  O  O10227  1  0.323990  0.959000  0.970790  1.0
  O  O10228  1  0.926010  0.791000  0.470790  1.0
  O  O10229  1  0.279210  0.426010  0.459000  1.0
  O  O10230  1  0.779210  0.823990  0.291000  1.0
  O  O10231  1  0.970790  0.323990  0.959000  1.0
  O  O10232  1  0.470790  0.926010  0.791000  1.0
  O  O10233  1  0.459000  0.279210  0.426010  1.0
  O  O10234  1  0.291000  0.779210  0.823990  1.0
  O  O10235  1  0.959000  0.970790  0.323990  1.0
  O  O10236  1  0.791000  0.470790  0.926010  1.0
  O  O10237  1  0.209000  0.676010  0.720790  1.0
  O  O10238  1  0.041000  0.073990  0.220790  1.0
  O  O10239  1  0.709000  0.573990  0.029210  1.0
  O  O10240  1  0.541000  0.176010  0.529210  1.0
  O  O10241  1  0.176010  0.529210  0.541000  1.0
  O  O10242  1  0.573990  0.029210  0.709000  1.0
  O  O10243  1  0.073990  0.220790  0.041000  1.0
  O  O10244  1  0.676010  0.720790  0.209000  1.0
  O  O10245  1  0.029210  0.709000  0.573990  1.0
  O  O10246  1  0.529210  0.541000  0.176010  1.0
  O  O10247  1  0.720790  0.209000  0.676010  1.0
  O  O10248  1  0.220790  0.041000  0.073990  1.0
  O  O10249  1  0.426010  0.959000  0.779210  1.0
  O  O10250  1  0.823990  0.791000  0.279210  1.0
  O  O10251  1  0.323990  0.459000  0.470790  1.0
  O  O10252  1  0.926010  0.291000  0.970790  1.0
  O  O10253  1  0.279210  0.926010  0.959000  1.0
  O  O10254  1  0.779210  0.323990  0.791000  1.0
  O  O10255  1  0.970790  0.823990  0.459000  1.0
  O  O10256  1  0.470790  0.426010  0.291000  1.0
  O  O10257  1  0.459000  0.779210  0.926010  1.0
  O  O10258  1  0.291000  0.279210  0.323990  1.0
  O  O10259  1  0.959000  0.470790  0.823990  1.0
  O  O10260  1  0.791000  0.970790  0.426010  1.0
  O  O10261  1  0.209000  0.176010  0.220790  1.0
  O  O10262  1  0.041000  0.573990  0.720790  1.0
  O  O10263  1  0.709000  0.073990  0.529210  1.0
  O  O10264  1  0.541000  0.676010  0.029210  1.0
  O  O10265  1  0.176010  0.029210  0.041000  1.0
  O  O10266  1  0.573990  0.529210  0.209000  1.0
  O  O10267  1  0.073990  0.720790  0.541000  1.0
  O  O10268  1  0.676010  0.220790  0.709000  1.0
  O  O10269  1  0.029210  0.209000  0.073990  1.0
  O  O10270  1  0.529210  0.041000  0.676010  1.0
  O  O10271  1  0.720790  0.709000  0.176010  1.0
  O  O10272  1  0.220790  0.541000  0.573990  1.0
  O  O10273  1  0.926010  0.459000  0.779210  1.0
  O  O10274  1  0.323990  0.291000  0.279210  1.0
  O  O10275  1  0.823990  0.959000  0.470790  1.0
  O  O10276  1  0.426010  0.791000  0.970790  1.0
  O  O10277  1  0.779210  0.426010  0.959000  1.0
  O  O10278  1  0.279210  0.823990  0.791000  1.0
  O  O10279  1  0.470790  0.323990  0.459000  1.0
  O  O10280  1  0.970790  0.926010  0.291000  1.0
  O  O10281  1  0.959000  0.279210  0.926010  1.0
  O  O10282  1  0.791000  0.779210  0.323990  1.0
  O  O10283  1  0.459000  0.970790  0.823990  1.0
  O  O10284  1  0.291000  0.470790  0.426010  1.0
  O  O10285  1  0.709000  0.676010  0.220790  1.0
  O  O10286  1  0.541000  0.073990  0.720790  1.0
  O  O10287  1  0.209000  0.573990  0.529210  1.0
  O  O10288  1  0.041000  0.176010  0.029210  1.0
  O  O10289  1  0.676010  0.529210  0.041000  1.0
  O  O10290  1  0.073990  0.029210  0.209000  1.0
  O  O10291  1  0.573990  0.220790  0.541000  1.0
  O  O10292  1  0.176010  0.720790  0.709000  1.0
  O  O10293  1  0.529210  0.709000  0.073990  1.0
  O  O10294  1  0.029210  0.541000  0.676010  1.0
  O  O10295  1  0.220790  0.209000  0.176010  1.0
  O  O10296  1  0.720790  0.041000  0.573990  1.0
  O  O10297  1  0.926010  0.959000  0.279210  1.0
  O  O10298  1  0.323990  0.791000  0.779210  1.0
  O  O10299  1  0.823990  0.459000  0.970790  1.0
  O  O10300  1  0.426010  0.291000  0.470790  1.0
  O  O10301  1  0.779210  0.926010  0.459000  1.0
  O  O10302  1  0.279210  0.323990  0.291000  1.0
  O  O10303  1  0.470790  0.823990  0.959000  1.0
  O  O10304  1  0.970790  0.426010  0.791000  1.0
  O  O10305  1  0.959000  0.779210  0.426010  1.0
  O  O10306  1  0.791000  0.279210  0.823990  1.0
  O  O10307  1  0.459000  0.470790  0.323990  1.0
  O  O10308  1  0.291000  0.970790  0.926010  1.0
  O  O10309  1  0.709000  0.176010  0.720790  1.0
  O  O10310  1  0.541000  0.573990  0.220790  1.0
  O  O10311  1  0.209000  0.073990  0.029210  1.0
  O  O10312  1  0.041000  0.676010  0.529210  1.0
  O  O10313  1  0.676010  0.029210  0.541000  1.0
  O  O10314  1  0.073990  0.529210  0.709000  1.0
  O  O10315  1  0.573990  0.720790  0.041000  1.0
  O  O10316  1  0.176010  0.220790  0.209000  1.0
  O  O10317  1  0.529210  0.209000  0.573990  1.0
  O  O10318  1  0.029210  0.041000  0.176010  1.0
  O  O10319  1  0.220790  0.709000  0.676010  1.0
  O  O10320  1  0.720790  0.541000  0.073990  1.0
  O  O10321  1  0.573990  0.541000  0.720790  1.0
  O  O10322  1  0.176010  0.709000  0.220790  1.0
  O  O10323  1  0.676010  0.041000  0.029210  1.0
  O  O10324  1  0.073990  0.209000  0.529210  1.0
  O  O10325  1  0.720790  0.573990  0.541000  1.0
  O  O10326  1  0.220790  0.176010  0.709000  1.0
  O  O10327  1  0.029210  0.676010  0.041000  1.0
  O  O10328  1  0.529210  0.073990  0.209000  1.0
  O  O10329  1  0.541000  0.720790  0.573990  1.0
  O  O10330  1  0.709000  0.220790  0.176010  1.0
  O  O10331  1  0.041000  0.029210  0.676010  1.0
  O  O10332  1  0.209000  0.529210  0.073990  1.0
  O  O10333  1  0.791000  0.323990  0.279210  1.0
  O  O10334  1  0.959000  0.926010  0.779210  1.0
  O  O10335  1  0.291000  0.426010  0.970790  1.0
  O  O10336  1  0.459000  0.823990  0.470790  1.0
  O  O10337  1  0.823990  0.470790  0.459000  1.0
  O  O10338  1  0.426010  0.970790  0.291000  1.0
  O  O10339  1  0.926010  0.779210  0.959000  1.0
  O  O10340  1  0.323990  0.279210  0.791000  1.0
  O  O10341  1  0.970790  0.291000  0.426010  1.0
  O  O10342  1  0.470790  0.459000  0.823990  1.0
  O  O10343  1  0.279210  0.791000  0.323990  1.0
  O  O10344  1  0.779210  0.959000  0.926010  1.0
  O  O10345  1  0.573990  0.041000  0.220790  1.0
  O  O10346  1  0.176010  0.209000  0.720790  1.0
  O  O10347  1  0.676010  0.541000  0.529210  1.0
  O  O10348  1  0.073990  0.709000  0.029210  1.0
  O  O10349  1  0.720790  0.073990  0.041000  1.0
  O  O10350  1  0.220790  0.676010  0.209000  1.0
  O  O10351  1  0.029210  0.176010  0.541000  1.0
  O  O10352  1  0.529210  0.573990  0.709000  1.0
  O  O10353  1  0.541000  0.220790  0.073990  1.0
  O  O10354  1  0.709000  0.720790  0.676010  1.0
  O  O10355  1  0.041000  0.529210  0.176010  1.0
  O  O10356  1  0.209000  0.029210  0.573990  1.0
  O  O10357  1  0.791000  0.823990  0.779210  1.0
  O  O10358  1  0.959000  0.426010  0.279210  1.0
  O  O10359  1  0.291000  0.926010  0.470790  1.0
  O  O10360  1  0.459000  0.323990  0.970790  1.0
  O  O10361  1  0.823990  0.970790  0.959000  1.0
  O  O10362  1  0.426010  0.470790  0.791000  1.0
  O  O10363  1  0.926010  0.279210  0.459000  1.0
  O  O10364  1  0.323990  0.779210  0.291000  1.0
  O  O10365  1  0.970790  0.791000  0.926010  1.0
  O  O10366  1  0.470790  0.959000  0.323990  1.0
  O  O10367  1  0.279210  0.291000  0.823990  1.0
  O  O10368  1  0.779210  0.459000  0.426010  1.0
  O  O10369  1  0.073990  0.541000  0.220790  1.0
  O  O10370  1  0.676010  0.709000  0.720790  1.0
  O  O10371  1  0.176010  0.041000  0.529210  1.0
  O  O10372  1  0.573990  0.209000  0.029210  1.0
  O  O10373  1  0.220790  0.573990  0.041000  1.0
  O  O10374  1  0.720790  0.176010  0.209000  1.0
  O  O10375  1  0.529210  0.676010  0.541000  1.0
  O  O10376  1  0.029210  0.073990  0.709000  1.0
  O  O10377  1  0.041000  0.720790  0.073990  1.0
  O  O10378  1  0.209000  0.220790  0.676010  1.0
  O  O10379  1  0.541000  0.029210  0.176010  1.0
  O  O10380  1  0.709000  0.529210  0.573990  1.0
  O  O10381  1  0.291000  0.323990  0.779210  1.0
  O  O10382  1  0.459000  0.926010  0.279210  1.0
  O  O10383  1  0.791000  0.426010  0.470790  1.0
  O  O10384  1  0.959000  0.823990  0.970790  1.0
  O  O10385  1  0.323990  0.470790  0.959000  1.0
  O  O10386  1  0.926010  0.970790  0.791000  1.0
  O  O10387  1  0.426010  0.779210  0.459000  1.0
  O  O10388  1  0.823990  0.279210  0.291000  1.0
  O  O10389  1  0.470790  0.291000  0.926010  1.0
  O  O10390  1  0.970790  0.459000  0.323990  1.0
  O  O10391  1  0.779210  0.791000  0.823990  1.0
  O  O10392  1  0.279210  0.959000  0.426010  1.0
  O  O10393  1  0.073990  0.041000  0.720790  1.0
  O  O10394  1  0.676010  0.209000  0.220790  1.0
  O  O10395  1  0.176010  0.541000  0.029210  1.0
  O  O10396  1  0.573990  0.709000  0.529210  1.0
  O  O10397  1  0.220790  0.073990  0.541000  1.0
  O  O10398  1  0.720790  0.676010  0.709000  1.0
  O  O10399  1  0.529210  0.176010  0.041000  1.0
  O  O10400  1  0.029210  0.573990  0.209000  1.0
  O  O10401  1  0.041000  0.220790  0.573990  1.0
  O  O10402  1  0.209000  0.720790  0.176010  1.0
  O  O10403  1  0.541000  0.529210  0.676010  1.0
  O  O10404  1  0.709000  0.029210  0.073990  1.0
  O  O10405  1  0.291000  0.823990  0.279210  1.0
  O  O10406  1  0.459000  0.426010  0.779210  1.0
  O  O10407  1  0.791000  0.926010  0.970790  1.0
  O  O10408  1  0.959000  0.323990  0.470790  1.0
  O  O10409  1  0.323990  0.970790  0.459000  1.0
  O  O10410  1  0.926010  0.470790  0.291000  1.0
  O  O10411  1  0.426010  0.279210  0.959000  1.0
  O  O10412  1  0.823990  0.779210  0.791000  1.0
  O  O10413  1  0.470790  0.791000  0.426010  1.0
  O  O10414  1  0.970790  0.959000  0.823990  1.0
  O  O10415  1  0.779210  0.291000  0.323990  1.0
  O  O10416  1  0.279210  0.459000  0.926010  1.0
  O  O10417  1  0.457100  0.501150  0.276760  1.0
  O  O10418  1  0.792900  0.248850  0.776760  1.0
  O  O10419  1  0.292900  0.001150  0.973240  1.0
  O  O10420  1  0.957100  0.748850  0.473240  1.0
  O  O10421  1  0.276760  0.457100  0.501150  1.0
  O  O10422  1  0.776760  0.792900  0.248850  1.0
  O  O10423  1  0.973240  0.292900  0.001150  1.0
  O  O10424  1  0.473240  0.957100  0.748850  1.0
  O  O10425  1  0.501150  0.276760  0.457100  1.0
  O  O10426  1  0.248850  0.776760  0.792900  1.0
  O  O10427  1  0.001150  0.973240  0.292900  1.0
  O  O10428  1  0.748850  0.473240  0.957100  1.0
  O  O10429  1  0.251150  0.707100  0.723240  1.0
  O  O10430  1  0.998850  0.042900  0.223240  1.0
  O  O10431  1  0.751150  0.542900  0.026760  1.0
  O  O10432  1  0.498850  0.207100  0.526760  1.0
  O  O10433  1  0.207100  0.526760  0.498850  1.0
  O  O10434  1  0.542900  0.026760  0.751150  1.0
  O  O10435  1  0.042900  0.223240  0.998850  1.0
  O  O10436  1  0.707100  0.723240  0.251150  1.0
  O  O10437  1  0.026760  0.751150  0.542900  1.0
  O  O10438  1  0.526760  0.498850  0.207100  1.0
  O  O10439  1  0.723240  0.251150  0.707100  1.0
  O  O10440  1  0.223240  0.998850  0.042900  1.0
  O  O10441  1  0.457100  0.001150  0.776760  1.0
  O  O10442  1  0.792900  0.748850  0.276760  1.0
  O  O10443  1  0.292900  0.501150  0.473240  1.0
  O  O10444  1  0.957100  0.248850  0.973240  1.0
  O  O10445  1  0.276760  0.957100  0.001150  1.0
  O  O10446  1  0.776760  0.292900  0.748850  1.0
  O  O10447  1  0.973240  0.792900  0.501150  1.0
  O  O10448  1  0.473240  0.457100  0.248850  1.0
  O  O10449  1  0.501150  0.776760  0.957100  1.0
  O  O10450  1  0.248850  0.276760  0.292900  1.0
  O  O10451  1  0.001150  0.473240  0.792900  1.0
  O  O10452  1  0.748850  0.973240  0.457100  1.0
  O  O10453  1  0.251150  0.207100  0.223240  1.0
  O  O10454  1  0.998850  0.542900  0.723240  1.0
  O  O10455  1  0.751150  0.042900  0.526760  1.0
  O  O10456  1  0.498850  0.707100  0.026760  1.0
  O  O10457  1  0.207100  0.026760  0.998850  1.0
  O  O10458  1  0.542900  0.526760  0.251150  1.0
  O  O10459  1  0.042900  0.723240  0.498850  1.0
  O  O10460  1  0.707100  0.223240  0.751150  1.0
  O  O10461  1  0.026760  0.251150  0.042900  1.0
  O  O10462  1  0.526760  0.998850  0.707100  1.0
  O  O10463  1  0.723240  0.751150  0.207100  1.0
  O  O10464  1  0.223240  0.498850  0.542900  1.0
  O  O10465  1  0.957100  0.501150  0.776760  1.0
  O  O10466  1  0.292900  0.248850  0.276760  1.0
  O  O10467  1  0.792900  0.001150  0.473240  1.0
  O  O10468  1  0.457100  0.748850  0.973240  1.0
  O  O10469  1  0.776760  0.457100  0.001150  1.0
  O  O10470  1  0.276760  0.792900  0.748850  1.0
  O  O10471  1  0.473240  0.292900  0.501150  1.0
  O  O10472  1  0.973240  0.957100  0.248850  1.0
  O  O10473  1  0.001150  0.276760  0.957100  1.0
  O  O10474  1  0.748850  0.776760  0.292900  1.0
  O  O10475  1  0.501150  0.973240  0.792900  1.0
  O  O10476  1  0.248850  0.473240  0.457100  1.0
  O  O10477  1  0.751150  0.707100  0.223240  1.0
  O  O10478  1  0.498850  0.042900  0.723240  1.0
  O  O10479  1  0.251150  0.542900  0.526760  1.0
  O  O10480  1  0.998850  0.207100  0.026760  1.0
  O  O10481  1  0.707100  0.526760  0.998850  1.0
  O  O10482  1  0.042900  0.026760  0.251150  1.0
  O  O10483  1  0.542900  0.223240  0.498850  1.0
  O  O10484  1  0.207100  0.723240  0.751150  1.0
  O  O10485  1  0.526760  0.751150  0.042900  1.0
  O  O10486  1  0.026760  0.498850  0.707100  1.0
  O  O10487  1  0.223240  0.251150  0.207100  1.0
  O  O10488  1  0.723240  0.998850  0.542900  1.0
  O  O10489  1  0.957100  0.001150  0.276760  1.0
  O  O10490  1  0.292900  0.748850  0.776760  1.0
  O  O10491  1  0.792900  0.501150  0.973240  1.0
  O  O10492  1  0.457100  0.248850  0.473240  1.0
  O  O10493  1  0.776760  0.957100  0.501150  1.0
  O  O10494  1  0.276760  0.292900  0.248850  1.0
  O  O10495  1  0.473240  0.792900  0.001150  1.0
  O  O10496  1  0.973240  0.457100  0.748850  1.0
  O  O10497  1  0.001150  0.776760  0.457100  1.0
  O  O10498  1  0.748850  0.276760  0.792900  1.0
  O  O10499  1  0.501150  0.473240  0.292900  1.0
  O  O10500  1  0.248850  0.973240  0.957100  1.0
  O  O10501  1  0.751150  0.207100  0.723240  1.0
  O  O10502  1  0.498850  0.542900  0.223240  1.0
  O  O10503  1  0.251150  0.042900  0.026760  1.0
  O  O10504  1  0.998850  0.707100  0.526760  1.0
  O  O10505  1  0.707100  0.026760  0.498850  1.0
  O  O10506  1  0.042900  0.526760  0.751150  1.0
  O  O10507  1  0.542900  0.723240  0.998850  1.0
  O  O10508  1  0.207100  0.223240  0.251150  1.0
  O  O10509  1  0.526760  0.251150  0.542900  1.0
  O  O10510  1  0.026760  0.998850  0.207100  1.0
  O  O10511  1  0.223240  0.751150  0.707100  1.0
  O  O10512  1  0.723240  0.498850  0.042900  1.0
  O  O10513  1  0.542900  0.498850  0.723240  1.0
  O  O10514  1  0.207100  0.751150  0.223240  1.0
  O  O10515  1  0.707100  0.998850  0.026760  1.0
  O  O10516  1  0.042900  0.251150  0.526760  1.0
  O  O10517  1  0.723240  0.542900  0.498850  1.0
  O  O10518  1  0.223240  0.207100  0.751150  1.0
  O  O10519  1  0.026760  0.707100  0.998850  1.0
  O  O10520  1  0.526760  0.042900  0.251150  1.0
  O  O10521  1  0.498850  0.723240  0.542900  1.0
  O  O10522  1  0.751150  0.223240  0.207100  1.0
  O  O10523  1  0.998850  0.026760  0.707100  1.0
  O  O10524  1  0.251150  0.526760  0.042900  1.0
  O  O10525  1  0.748850  0.292900  0.276760  1.0
  O  O10526  1  0.001150  0.957100  0.776760  1.0
  O  O10527  1  0.248850  0.457100  0.973240  1.0
  O  O10528  1  0.501150  0.792900  0.473240  1.0
  O  O10529  1  0.792900  0.473240  0.501150  1.0
  O  O10530  1  0.457100  0.973240  0.248850  1.0
  O  O10531  1  0.957100  0.776760  0.001150  1.0
  O  O10532  1  0.292900  0.276760  0.748850  1.0
  O  O10533  1  0.973240  0.248850  0.457100  1.0
  O  O10534  1  0.473240  0.501150  0.792900  1.0
  O  O10535  1  0.276760  0.748850  0.292900  1.0
  O  O10536  1  0.776760  0.001150  0.957100  1.0
  O  O10537  1  0.542900  0.998850  0.223240  1.0
  O  O10538  1  0.207100  0.251150  0.723240  1.0
  O  O10539  1  0.707100  0.498850  0.526760  1.0
  O  O10540  1  0.042900  0.751150  0.026760  1.0
  O  O10541  1  0.723240  0.042900  0.998850  1.0
  O  O10542  1  0.223240  0.707100  0.251150  1.0
  O  O10543  1  0.026760  0.207100  0.498850  1.0
  O  O10544  1  0.526760  0.542900  0.751150  1.0
  O  O10545  1  0.498850  0.223240  0.042900  1.0
  O  O10546  1  0.751150  0.723240  0.707100  1.0
  O  O10547  1  0.998850  0.526760  0.207100  1.0
  O  O10548  1  0.251150  0.026760  0.542900  1.0
  O  O10549  1  0.748850  0.792900  0.776760  1.0
  O  O10550  1  0.001150  0.457100  0.276760  1.0
  O  O10551  1  0.248850  0.957100  0.473240  1.0
  O  O10552  1  0.501150  0.292900  0.973240  1.0
  O  O10553  1  0.792900  0.973240  0.001150  1.0
  O  O10554  1  0.457100  0.473240  0.748850  1.0
  O  O10555  1  0.957100  0.276760  0.501150  1.0
  O  O10556  1  0.292900  0.776760  0.248850  1.0
  O  O10557  1  0.973240  0.748850  0.957100  1.0
  O  O10558  1  0.473240  0.001150  0.292900  1.0
  O  O10559  1  0.276760  0.248850  0.792900  1.0
  O  O10560  1  0.776760  0.501150  0.457100  1.0
  O  O10561  1  0.042900  0.498850  0.223240  1.0
  O  O10562  1  0.707100  0.751150  0.723240  1.0
  O  O10563  1  0.207100  0.998850  0.526760  1.0
  O  O10564  1  0.542900  0.251150  0.026760  1.0
  O  O10565  1  0.223240  0.542900  0.998850  1.0
  O  O10566  1  0.723240  0.207100  0.251150  1.0
  O  O10567  1  0.526760  0.707100  0.498850  1.0
  O  O10568  1  0.026760  0.042900  0.751150  1.0
  O  O10569  1  0.998850  0.723240  0.042900  1.0
  O  O10570  1  0.251150  0.223240  0.707100  1.0
  O  O10571  1  0.498850  0.026760  0.207100  1.0
  O  O10572  1  0.751150  0.526760  0.542900  1.0
  O  O10573  1  0.248850  0.292900  0.776760  1.0
  O  O10574  1  0.501150  0.957100  0.276760  1.0
  O  O10575  1  0.748850  0.457100  0.473240  1.0
  O  O10576  1  0.001150  0.792900  0.973240  1.0
  O  O10577  1  0.292900  0.473240  0.001150  1.0
  O  O10578  1  0.957100  0.973240  0.748850  1.0
  O  O10579  1  0.457100  0.776760  0.501150  1.0
  O  O10580  1  0.792900  0.276760  0.248850  1.0
  O  O10581  1  0.473240  0.248850  0.957100  1.0
  O  O10582  1  0.973240  0.501150  0.292900  1.0
  O  O10583  1  0.776760  0.748850  0.792900  1.0
  O  O10584  1  0.276760  0.001150  0.457100  1.0
  O  O10585  1  0.042900  0.998850  0.723240  1.0
  O  O10586  1  0.707100  0.251150  0.223240  1.0
  O  O10587  1  0.207100  0.498850  0.026760  1.0
  O  O10588  1  0.542900  0.751150  0.526760  1.0
  O  O10589  1  0.223240  0.042900  0.498850  1.0
  O  O10590  1  0.723240  0.707100  0.751150  1.0
  O  O10591  1  0.526760  0.207100  0.998850  1.0
  O  O10592  1  0.026760  0.542900  0.251150  1.0
  O  O10593  1  0.998850  0.223240  0.542900  1.0
  O  O10594  1  0.251150  0.723240  0.207100  1.0
  O  O10595  1  0.498850  0.526760  0.707100  1.0
  O  O10596  1  0.751150  0.026760  0.042900  1.0
  O  O10597  1  0.248850  0.792900  0.276760  1.0
  O  O10598  1  0.501150  0.457100  0.776760  1.0
  O  O10599  1  0.748850  0.957100  0.973240  1.0
  O  O10600  1  0.001150  0.292900  0.473240  1.0
  O  O10601  1  0.292900  0.973240  0.501150  1.0
  O  O10602  1  0.957100  0.473240  0.248850  1.0
  O  O10603  1  0.457100  0.276760  0.001150  1.0
  O  O10604  1  0.792900  0.776760  0.748850  1.0
  O  O10605  1  0.473240  0.748850  0.457100  1.0
  O  O10606  1  0.973240  0.001150  0.792900  1.0
  O  O10607  1  0.776760  0.248850  0.292900  1.0
  O  O10608  1  0.276760  0.501150  0.957100  1.0
  O  O10609  1  0.348300  0.462660  0.245800  1.0
  O  O10610  1  0.901700  0.287340  0.745800  1.0
  O  O10611  1  0.401700  0.962660  0.004200  1.0
  O  O10612  1  0.848300  0.787340  0.504200  1.0
  O  O10613  1  0.245800  0.348300  0.462660  1.0
  O  O10614  1  0.745800  0.901700  0.287340  1.0
  O  O10615  1  0.004200  0.401700  0.962660  1.0
  O  O10616  1  0.504200  0.848300  0.787340  1.0
  O  O10617  1  0.462660  0.245800  0.348300  1.0
  O  O10618  1  0.287340  0.745800  0.901700  1.0
  O  O10619  1  0.962660  0.004200  0.401700  1.0
  O  O10620  1  0.787340  0.504200  0.848300  1.0
  O  O10621  1  0.212660  0.598300  0.754200  1.0
  O  O10622  1  0.037340  0.151700  0.254200  1.0
  O  O10623  1  0.712660  0.651700  0.995800  1.0
  O  O10624  1  0.537340  0.098300  0.495800  1.0
  O  O10625  1  0.098300  0.495800  0.537340  1.0
  O  O10626  1  0.651700  0.995800  0.712660  1.0
  O  O10627  1  0.151700  0.254200  0.037340  1.0
  O  O10628  1  0.598300  0.754200  0.212660  1.0
  O  O10629  1  0.995800  0.712660  0.651700  1.0
  O  O10630  1  0.495800  0.537340  0.098300  1.0
  O  O10631  1  0.754200  0.212660  0.598300  1.0
  O  O10632  1  0.254200  0.037340  0.151700  1.0
  O  O10633  1  0.348300  0.962660  0.745800  1.0
  O  O10634  1  0.901700  0.787340  0.245800  1.0
  O  O10635  1  0.401700  0.462660  0.504200  1.0
  O  O10636  1  0.848300  0.287340  0.004200  1.0
  O  O10637  1  0.245800  0.848300  0.962660  1.0
  O  O10638  1  0.745800  0.401700  0.787340  1.0
  O  O10639  1  0.004200  0.901700  0.462660  1.0
  O  O10640  1  0.504200  0.348300  0.287340  1.0
  O  O10641  1  0.462660  0.745800  0.848300  1.0
  O  O10642  1  0.287340  0.245800  0.401700  1.0
  O  O10643  1  0.962660  0.504200  0.901700  1.0
  O  O10644  1  0.787340  0.004200  0.348300  1.0
  O  O10645  1  0.212660  0.098300  0.254200  1.0
  O  O10646  1  0.037340  0.651700  0.754200  1.0
  O  O10647  1  0.712660  0.151700  0.495800  1.0
  O  O10648  1  0.537340  0.598300  0.995800  1.0
  O  O10649  1  0.098300  0.995800  0.037340  1.0
  O  O10650  1  0.651700  0.495800  0.212660  1.0
  O  O10651  1  0.151700  0.754200  0.537340  1.0
  O  O10652  1  0.598300  0.254200  0.712660  1.0
  O  O10653  1  0.995800  0.212660  0.151700  1.0
  O  O10654  1  0.495800  0.037340  0.598300  1.0
  O  O10655  1  0.754200  0.712660  0.098300  1.0
  O  O10656  1  0.254200  0.537340  0.651700  1.0
  O  O10657  1  0.848300  0.462660  0.745800  1.0
  O  O10658  1  0.401700  0.287340  0.245800  1.0
  O  O10659  1  0.901700  0.962660  0.504200  1.0
  O  O10660  1  0.348300  0.787340  0.004200  1.0
  O  O10661  1  0.745800  0.348300  0.962660  1.0
  O  O10662  1  0.245800  0.901700  0.787340  1.0
  O  O10663  1  0.504200  0.401700  0.462660  1.0
  O  O10664  1  0.004200  0.848300  0.287340  1.0
  O  O10665  1  0.962660  0.245800  0.848300  1.0
  O  O10666  1  0.787340  0.745800  0.401700  1.0
  O  O10667  1  0.462660  0.004200  0.901700  1.0
  O  O10668  1  0.287340  0.504200  0.348300  1.0
  O  O10669  1  0.712660  0.598300  0.254200  1.0
  O  O10670  1  0.537340  0.151700  0.754200  1.0
  O  O10671  1  0.212660  0.651700  0.495800  1.0
  O  O10672  1  0.037340  0.098300  0.995800  1.0
  O  O10673  1  0.598300  0.495800  0.037340  1.0
  O  O10674  1  0.151700  0.995800  0.212660  1.0
  O  O10675  1  0.651700  0.254200  0.537340  1.0
  O  O10676  1  0.098300  0.754200  0.712660  1.0
  O  O10677  1  0.495800  0.712660  0.151700  1.0
  O  O10678  1  0.995800  0.537340  0.598300  1.0
  O  O10679  1  0.254200  0.212660  0.098300  1.0
  O  O10680  1  0.754200  0.037340  0.651700  1.0
  O  O10681  1  0.848300  0.962660  0.245800  1.0
  O  O10682  1  0.401700  0.787340  0.745800  1.0
  O  O10683  1  0.901700  0.462660  0.004200  1.0
  O  O10684  1  0.348300  0.287340  0.504200  1.0
  O  O10685  1  0.745800  0.848300  0.462660  1.0
  O  O10686  1  0.245800  0.401700  0.287340  1.0
  O  O10687  1  0.504200  0.901700  0.962660  1.0
  O  O10688  1  0.004200  0.348300  0.787340  1.0
  O  O10689  1  0.962660  0.745800  0.348300  1.0
  O  O10690  1  0.787340  0.245800  0.901700  1.0
  O  O10691  1  0.462660  0.504200  0.401700  1.0
  O  O10692  1  0.287340  0.004200  0.848300  1.0
  O  O10693  1  0.712660  0.098300  0.754200  1.0
  O  O10694  1  0.537340  0.651700  0.254200  1.0
  O  O10695  1  0.212660  0.151700  0.995800  1.0
  O  O10696  1  0.037340  0.598300  0.495800  1.0
  O  O10697  1  0.598300  0.995800  0.537340  1.0
  O  O10698  1  0.151700  0.495800  0.712660  1.0
  O  O10699  1  0.651700  0.754200  0.037340  1.0
  O  O10700  1  0.098300  0.254200  0.212660  1.0
  O  O10701  1  0.495800  0.212660  0.651700  1.0
  O  O10702  1  0.995800  0.037340  0.098300  1.0
  O  O10703  1  0.254200  0.712660  0.598300  1.0
  O  O10704  1  0.754200  0.537340  0.151700  1.0
  O  O10705  1  0.651700  0.537340  0.754200  1.0
  O  O10706  1  0.098300  0.712660  0.254200  1.0
  O  O10707  1  0.598300  0.037340  0.995800  1.0
  O  O10708  1  0.151700  0.212660  0.495800  1.0
  O  O10709  1  0.754200  0.651700  0.537340  1.0
  O  O10710  1  0.254200  0.098300  0.712660  1.0
  O  O10711  1  0.995800  0.598300  0.037340  1.0
  O  O10712  1  0.495800  0.151700  0.212660  1.0
  O  O10713  1  0.537340  0.754200  0.651700  1.0
  O  O10714  1  0.712660  0.254200  0.098300  1.0
  O  O10715  1  0.037340  0.995800  0.598300  1.0
  O  O10716  1  0.212660  0.495800  0.151700  1.0
  O  O10717  1  0.787340  0.401700  0.245800  1.0
  O  O10718  1  0.962660  0.848300  0.745800  1.0
  O  O10719  1  0.287340  0.348300  0.004200  1.0
  O  O10720  1  0.462660  0.901700  0.504200  1.0
  O  O10721  1  0.901700  0.504200  0.462660  1.0
  O  O10722  1  0.348300  0.004200  0.287340  1.0
  O  O10723  1  0.848300  0.745800  0.962660  1.0
  O  O10724  1  0.401700  0.245800  0.787340  1.0
  O  O10725  1  0.004200  0.287340  0.348300  1.0
  O  O10726  1  0.504200  0.462660  0.901700  1.0
  O  O10727  1  0.245800  0.787340  0.401700  1.0
  O  O10728  1  0.745800  0.962660  0.848300  1.0
  O  O10729  1  0.651700  0.037340  0.254200  1.0
  O  O10730  1  0.098300  0.212660  0.754200  1.0
  O  O10731  1  0.598300  0.537340  0.495800  1.0
  O  O10732  1  0.151700  0.712660  0.995800  1.0
  O  O10733  1  0.754200  0.151700  0.037340  1.0
  O  O10734  1  0.254200  0.598300  0.212660  1.0
  O  O10735  1  0.995800  0.098300  0.537340  1.0
  O  O10736  1  0.495800  0.651700  0.712660  1.0
  O  O10737  1  0.537340  0.254200  0.151700  1.0
  O  O10738  1  0.712660  0.754200  0.598300  1.0
  O  O10739  1  0.037340  0.495800  0.098300  1.0
  O  O10740  1  0.212660  0.995800  0.651700  1.0
  O  O10741  1  0.787340  0.901700  0.745800  1.0
  O  O10742  1  0.962660  0.348300  0.245800  1.0
  O  O10743  1  0.287340  0.848300  0.504200  1.0
  O  O10744  1  0.462660  0.401700  0.004200  1.0
  O  O10745  1  0.901700  0.004200  0.962660  1.0
  O  O10746  1  0.348300  0.504200  0.787340  1.0
  O  O10747  1  0.848300  0.245800  0.462660  1.0
  O  O10748  1  0.401700  0.745800  0.287340  1.0
  O  O10749  1  0.004200  0.787340  0.848300  1.0
  O  O10750  1  0.504200  0.962660  0.401700  1.0
  O  O10751  1  0.245800  0.287340  0.901700  1.0
  O  O10752  1  0.745800  0.462660  0.348300  1.0
  O  O10753  1  0.151700  0.537340  0.254200  1.0
  O  O10754  1  0.598300  0.712660  0.754200  1.0
  O  O10755  1  0.098300  0.037340  0.495800  1.0
  O  O10756  1  0.651700  0.212660  0.995800  1.0
  O  O10757  1  0.254200  0.651700  0.037340  1.0
  O  O10758  1  0.754200  0.098300  0.212660  1.0
  O  O10759  1  0.495800  0.598300  0.537340  1.0
  O  O10760  1  0.995800  0.151700  0.712660  1.0
  O  O10761  1  0.037340  0.754200  0.151700  1.0
  O  O10762  1  0.212660  0.254200  0.598300  1.0
  O  O10763  1  0.537340  0.995800  0.098300  1.0
  O  O10764  1  0.712660  0.495800  0.651700  1.0
  O  O10765  1  0.287340  0.401700  0.745800  1.0
  O  O10766  1  0.462660  0.848300  0.245800  1.0
  O  O10767  1  0.787340  0.348300  0.504200  1.0
  O  O10768  1  0.962660  0.901700  0.004200  1.0
  O  O10769  1  0.401700  0.504200  0.962660  1.0
  O  O10770  1  0.848300  0.004200  0.787340  1.0
  O  O10771  1  0.348300  0.745800  0.462660  1.0
  O  O10772  1  0.901700  0.245800  0.287340  1.0
  O  O10773  1  0.504200  0.287340  0.848300  1.0
  O  O10774  1  0.004200  0.462660  0.401700  1.0
  O  O10775  1  0.745800  0.787340  0.901700  1.0
  O  O10776  1  0.245800  0.962660  0.348300  1.0
  O  O10777  1  0.151700  0.037340  0.754200  1.0
  O  O10778  1  0.598300  0.212660  0.254200  1.0
  O  O10779  1  0.098300  0.537340  0.995800  1.0
  O  O10780  1  0.651700  0.712660  0.495800  1.0
  O  O10781  1  0.254200  0.151700  0.537340  1.0
  O  O10782  1  0.754200  0.598300  0.712660  1.0
  O  O10783  1  0.495800  0.098300  0.037340  1.0
  O  O10784  1  0.995800  0.651700  0.212660  1.0
  O  O10785  1  0.037340  0.254200  0.651700  1.0
  O  O10786  1  0.212660  0.754200  0.098300  1.0
  O  O10787  1  0.537340  0.495800  0.598300  1.0
  O  O10788  1  0.712660  0.995800  0.151700  1.0
  O  O10789  1  0.287340  0.901700  0.245800  1.0
  O  O10790  1  0.462660  0.348300  0.745800  1.0
  O  O10791  1  0.787340  0.848300  0.004200  1.0
  O  O10792  1  0.962660  0.401700  0.504200  1.0
  O  O10793  1  0.401700  0.004200  0.462660  1.0
  O  O10794  1  0.848300  0.504200  0.287340  1.0
  O  O10795  1  0.348300  0.245800  0.962660  1.0
  O  O10796  1  0.901700  0.745800  0.787340  1.0
  O  O10797  1  0.504200  0.787340  0.348300  1.0
  O  O10798  1  0.004200  0.962660  0.901700  1.0
  O  O10799  1  0.745800  0.287340  0.401700  1.0
  O  O10800  1  0.245800  0.462660  0.848300  1.0
