
#######################################################################
#
#                 Cambridge Crystallographic Data Centre
#                                CCDC 
#
#######################################################################
#
# If this CIF has been generated from an entry in the Cambridge 
# Structural Database, then it will include bibliographic, chemical, 
# crystal, experimental, refinement or atomic coordinate data resulting 
# from the CCDC's data processing and validation procedures.
#
#######################################################################

data_HOPXUG
_chemical_formula_moiety         'C48 H44 Cd2 N12 O18,2(C4 H8 O1)'
_chemical_name_systematic        
"bis(\m~2~-4,4'-Oxybis(N-(3-pyridylmethylene)aniline)-N,N')-tetra-aqua-tetrakis(nitrato-O,O')-di-cadmium(ii) tetrahydrofuran solvate"
_symmetry_cell_setting           triclinic
_symmetry_space_group_name_H-M   'P -1'
_symmetry_Int_Tables_number      2
_space_group_name_Hall           '-P 1'
loop_
_symmetry_equiv_pos_site_id
_symmetry_equiv_pos_as_xyz
1 x,y,z
2 -x,-y,-z
_cell_length_a                   7.6197(2)
_cell_length_b                   9.2639(2)
_cell_length_c                   23.3894(5)
_cell_angle_alpha                80.5320(10)
_cell_angle_beta                 87.9530(10)
_cell_angle_gamma                69.0130(10)
_cell_volume                     1520.01
_exptl_crystal_colour            colorless
_exptl_crystal_description       block
_cell_formula_units_Z            1
loop_
_atom_site_label
_atom_site_type_symbol
_atom_site_fract_x
_atom_site_fract_y
_atom_site_fract_z
Cd1 Cd 0.13323(2) 0.41633(2) 0.368594(7)
O1 O -0.3846(3) 1.3171(2) -0.02201(7)
O2 O 0.3091(3) 0.4352(3) 0.28137(11)
O3 O 0.4938(4) 0.4413(4) 0.34439(11)
O4 O 0.5905(3) 0.4180(3) 0.25964(10)
O5 O -0.0885(6) 0.2713(4) 0.41817(14)
O6 O -0.1310(4) 0.4758(3) 0.44547(11)
O7 O -0.3146(4) 0.3592(4) 0.47248(11)
O8 O 0.3055(4) 0.3868(3) 0.45261(11)
O9 O -0.0646(4) 0.4335(3) 0.29392(11)
N1 N 0.0150(3) 0.6867(2) 0.35960(9)
N2 N -0.1580(3) 0.9738(2) 0.19867(9)
N3 N -0.3452(3) 1.0554(2) -0.22224(10)
N4 N 0.2935(3) 0.1499(2) 0.37111(9)
N5 N 0.4659(3) 0.4299(2) 0.29428(11)
N6 N -0.1861(3) 0.3678(3) 0.44546(9)
C1 C -0.0036(4) 0.7574(3) 0.40592(12)
H1 H 0.0315 0.6959 0.4422
C2 C -0.0724(5) 0.9171(3) 0.40213(12)
H2 H -0.0825 0.9624 0.4353
C3 C -0.1259(4) 1.0093(3) 0.34931(12)
H3 H -0.1729 1.1178 0.3462
C4 C -0.1098(4) 0.9403(3) 0.30060(11)
C5 C -0.0374(3) 0.7770(3) 0.30807(11)
H4 H -0.0250 0.7288 0.2755
C6 C -0.1629(4) 1.0329(3) 0.24268(12)
H5 H -0.2024 1.1414 0.2388
C7 C -0.2159(3) 1.0677(3) 0.14362(11)
C8 C -0.3435(3) 1.2213(3) 0.13445(11)
H6 H -0.3915 1.2720 0.1658
C9 C -0.3983(4) 1.2980(3) 0.07872(11)
H7 H -0.4850 1.4000 0.0728
C10 C -0.3273(3) 1.2261(3) 0.03198(10)
C11 C -0.2021(4) 1.0747(3) 0.04039(11)
H8 H -0.1538 1.0249 0.0088
C12 C -0.1486(4) 0.9972(3) 0.09574(11)
H9 H -0.0645 0.8942 0.1012
C13 C -0.3709(3) 1.2462(3) -0.07093(10)
C14 C -0.3112(3) 1.3136(3) -0.12066(10)
H10 H -0.2748 1.3991 -0.1202
C15 C -0.3053(3) 1.2547(3) -0.17139(11)
H11 H -0.2672 1.3019 -0.2053
C16 C -0.3557(3) 1.1258(3) -0.17201(11)
C17 C -0.4132(4) 1.0584(3) -0.12147(12)
H12 H -0.4443 0.9700 -0.1213
C18 C -0.4252(4) 1.1200(3) -0.07140(12)
H13 H -0.4698 1.0767 -0.0379
C19 C -0.4071(4) 1.1395(3) -0.26978(12)
H14 H -0.4643 1.2471 -0.2711
C20 C -0.3930(4) 1.0751(3) -0.32350(11)
C21 C 0.3139(4) 0.0843(3) 0.32362(11)
H15 H 0.2723 0.1498 0.2884
C22 C 0.3530(4) 0.0535(3) 0.42157(12)
H16 H 0.3391 0.0969 0.4553
C23 C 0.4332(5) -0.1058(4) 0.42567(13)
H17 H 0.4726 -0.1687 0.4615
C24 C -0.4549(5) 1.1718(3) -0.37611(13)
H18 H -0.5103 1.2797 -0.3779
H19 H -0.170(6) 0.445(5) 0.2988(17)
H20 H 0.274(5) 0.426(4) 0.4775(16)
H21 H 0.405(6) 0.385(5) 0.448(2)
H22 H -0.034(5) 0.444(5) 0.2539(19)
Cd1A Cd -0.13323(2) 0.58367(2) -0.368594(7)
O1A O 0.3846(3) -0.3171(2) 0.02201(7)
O2A O -0.3091(3) 0.5648(3) -0.28137(11)
O3A O -0.4938(4) 0.5587(4) -0.34439(11)
O4A O -0.5905(3) 0.5820(3) -0.25964(10)
O5A O 0.0885(6) 0.7287(4) -0.41817(14)
O6A O 0.1310(4) 0.5242(3) -0.44547(11)
O7A O 0.3146(4) 0.6408(4) -0.47248(11)
O8A O -0.3055(4) 0.6132(3) -0.45261(11)
O9A O 0.0646(4) 0.5665(3) -0.29392(11)
N1A N -0.0150(3) 0.3133(2) -0.35960(9)
N2A N 0.1580(3) 0.0262(2) -0.19867(9)
N3A N 0.3452(3) -0.0554(2) 0.22224(10)
N4A N -0.2935(3) 0.8501(2) -0.37111(9)
N5A N -0.4659(3) 0.5701(2) -0.29428(11)
N6A N 0.1861(3) 0.6322(3) -0.44546(9)
C1A C 0.0036(4) 0.2426(3) -0.40592(12)
H1A H -0.0315 0.3041 -0.4422
C2A C 0.0724(5) 0.0829(3) -0.40213(12)
H2A H 0.0825 0.0376 -0.4353
C3A C 0.1259(4) -0.0093(3) -0.34931(12)
H3A H 0.1729 -0.1178 -0.3462
C4A C 0.1098(4) 0.0597(3) -0.30060(11)
C5A C 0.0374(3) 0.2230(3) -0.30807(11)
H4A H 0.0250 0.2712 -0.2755
C6A C 0.1629(4) -0.0329(3) -0.24268(12)
H5A H 0.2024 -0.1414 -0.2388
C7A C 0.2159(3) -0.0677(3) -0.14362(11)
C8A C 0.3435(3) -0.2213(3) -0.13445(11)
H6A H 0.3915 -0.2720 -0.1658
C9A C 0.3983(4) -0.2980(3) -0.07872(11)
H7A H 0.4850 -0.4000 -0.0728
C10A C 0.3273(3) -0.2261(3) -0.03198(10)
C11A C 0.2021(4) -0.0747(3) -0.04039(11)
H8A H 0.1538 -0.0249 -0.0088
C12A C 0.1486(4) 0.0028(3) -0.09574(11)
H9A H 0.0645 0.1058 -0.1012
C13A C 0.3709(3) -0.2462(3) 0.07093(10)
C14A C 0.3112(3) -0.3136(3) 0.12066(10)
H10A H 0.2748 -0.3991 0.1202
C15A C 0.3053(3) -0.2547(3) 0.17139(11)
H11A H 0.2672 -0.3019 0.2053
C16A C 0.3557(3) -0.1258(3) 0.17201(11)
C17A C 0.4132(4) -0.0584(3) 0.12147(12)
H12A H 0.4443 0.0300 0.1213
C18A C 0.4252(4) -0.1200(3) 0.07140(12)
H13A H 0.4698 -0.0767 0.0379
C19A C 0.4071(4) -0.1395(3) 0.26978(12)
H14A H 0.4643 -0.2471 0.2711
C20A C 0.3930(4) -0.0751(3) 0.32350(11)
C21A C -0.3139(4) 0.9157(3) -0.32362(11)
H15A H -0.2723 0.8502 -0.2884
C22A C -0.3530(4) 0.9465(3) -0.42157(12)
H16A H -0.3391 0.9031 -0.4553
C23A C -0.4332(5) 1.1058(4) -0.42567(13)
H17A H -0.4726 1.1687 -0.4615
C24A C 0.4549(5) -0.1718(3) 0.37611(13)
H18A H 0.5103 -0.2797 0.3779
H19A H 0.170(6) 0.555(5) -0.2988(17)
H20A H -0.274(5) 0.574(4) -0.4775(16)
H21A H -0.405(6) 0.615(5) -0.448(2)
H22A H 0.034(5) 0.556(5) -0.2539(19)
O10 O -0.0011(4) 0.4746(3) 0.17779(11)
C25 C 0.1031(5) 0.3393(4) 0.15381(17)
H23 H 0.0680 0.2512 0.1711
H24 H 0.2368 0.3122 0.1605
C26 C 0.0559(5) 0.3800(5) 0.09014(16)
H25 H 0.0099 0.3049 0.0777
H26 H 0.1654 0.3815 0.0680
C27 C -0.0963(5) 0.5420(4) 0.08242(16)
H27 H -0.0470 0.6210 0.0642
H28 H -0.2009 0.5461 0.0590
C28 C -0.1555(4) 0.5662(4) 0.14257(15)
H29 H -0.1906 0.6756 0.1463
H30 H -0.2619 0.5338 0.1527
loop_
_geom_bond_atom_site_label_1
_geom_bond_atom_site_label_2
_geom_bond_site_symmetry_1
_geom_bond_site_symmetry_2
Cd1 O2 1_555 1_555
O1 C10 1_555 1_555
O2 N5 1_555 1_555
O3 Cd1 1_555 1_555
O4 N5 1_555 1_555
O5 Cd1 1_555 1_555
O6 Cd1 1_555 1_555
O7 N6 1_555 1_555
O8 Cd1 1_555 1_555
O9 Cd1 1_555 1_555
N1 Cd1 1_555 1_555
N2 C6 1_555 1_555
N3 C16 1_555 1_555
N4 Cd1 1_555 1_555
N5 O3 1_555 1_555
N6 O5 1_555 1_555
C1 N1 1_555 1_555
H1 C1 1_555 1_555
C2 C1 1_555 1_555
H2 C2 1_555 1_555
C3 C2 1_555 1_555
H3 C3 1_555 1_555
C4 C3 1_555 1_555
C5 N1 1_555 1_555
H4 C5 1_555 1_555
C6 C4 1_555 1_555
H5 C6 1_555 1_555
C7 N2 1_555 1_555
C8 C7 1_555 1_555
H6 C8 1_555 1_555
C9 C8 1_555 1_555
H7 C9 1_555 1_555
C10 C9 1_555 1_555
C11 C10 1_555 1_555
H8 C11 1_555 1_555
C12 C7 1_555 1_555
H9 C12 1_555 1_555
C13 O1 1_555 1_555
C14 C13 1_555 1_555
H10 C14 1_555 1_555
C15 C14 1_555 1_555
H11 C15 1_555 1_555
C16 C15 1_555 1_555
C17 C16 1_555 1_555
H12 C17 1_555 1_555
C18 C13 1_555 1_555
H13 C18 1_555 1_555
C19 N3 1_555 1_555
H14 C19 1_555 1_555
C20 C19 1_555 1_555
C21 N4 1_555 1_555
H15 C21 1_555 1_555
C22 N4 1_555 1_555
H16 C22 1_555 1_555
C23 C22 1_555 1_555
H17 C23 1_555 1_555
C24 C20 1_555 1_555
H18 C24 1_555 1_555
H19 O9 1_555 1_555
H20 O8 1_555 1_555
H21 O8 1_555 1_555
H22 O9 1_555 1_555
O10 C25 1_555 1_555
C25 H23 1_555 1_555
H24 C25 1_555 1_555
C26 C25 1_555 1_555
H25 C26 1_555 1_555
H26 C26 1_555 1_555
C27 C26 1_555 1_555
H27 C27 1_555 1_555
H28 C27 1_555 1_555
C28 O10 1_555 1_555
H29 C28 1_555 1_555
H30 C28 1_555 1_555
Cd1A O2A 1_555 1_555
O1A C10A 1_555 1_555
O2A N5A 1_555 1_555
O3A Cd1A 1_555 1_555
O4A N5A 1_555 1_555
O5A Cd1A 1_555 1_555
O6A Cd1A 1_555 1_555
O7A N6A 1_555 1_555
O8A Cd1A 1_555 1_555
O9A Cd1A 1_555 1_555
N1A Cd1A 1_555 1_555
N2A C6A 1_555 1_555
N3A C16A 1_555 1_555
N4A Cd1A 1_555 1_555
N5A O3A 1_555 1_555
N6A O5A 1_555 1_555
C1A N1A 1_555 1_555
H1A C1A 1_555 1_555
C2A C1A 1_555 1_555
H2A C2A 1_555 1_555
C3A C2A 1_555 1_555
H3A C3A 1_555 1_555
C4A C3A 1_555 1_555
C5A N1A 1_555 1_555
H4A C5A 1_555 1_555
C6A C4A 1_555 1_555
H5A C6A 1_555 1_555
C7A N2A 1_555 1_555
C8A C7A 1_555 1_555
H6A C8A 1_555 1_555
C9A C8A 1_555 1_555
H7A C9A 1_555 1_555
C10A C9A 1_555 1_555
C11A C10A 1_555 1_555
H8A C11A 1_555 1_555
C12A C7A 1_555 1_555
H9A C12A 1_555 1_555
C13A O1A 1_555 1_555
C14A C13A 1_555 1_555
H10A C14A 1_555 1_555
C15A C14A 1_555 1_555
H11A C15A 1_555 1_555
C16A C15A 1_555 1_555
C17A C16A 1_555 1_555
H12A C17A 1_555 1_555
C18A C13A 1_555 1_555
H13A C18A 1_555 1_555
C19A N3A 1_555 1_555
H14A C19A 1_555 1_555
C20A C21 1_555 1_555
C21A C20 1_555 1_555
H15A C21A 1_555 1_555
C22A N4A 1_555 1_555
H16A C22A 1_555 1_555
C23A C24 1_555 1_555
H17A C23A 1_555 1_555
C24A C23 1_555 1_555
H18A C24A 1_555 1_555
H19A O9A 1_555 1_555
H20A O8A 1_555 1_555
H21A O8A 1_555 1_555
H22A O9A 1_555 1_555
O6 N6 1_555 1_555
C4 C5 1_555 1_555
C11 C12 1_555 1_555
C17 C18 1_555 1_555
C27 C28 1_555 1_555
O6A N6A 1_555 1_555
N4A C21A 1_555 1_555
C4A C5A 1_555 1_555
C11A C12A 1_555 1_555
C17A C18A 1_555 1_555
C19A C20A 1_555 1_555
C20A C24A 1_555 1_555
C22A C23A 1_555 1_555

#END
