
#######################################################################
#
#                 Cambridge Crystallographic Data Centre
#                                CCDC 
#
#######################################################################
#
# If this CIF has been generated from an entry in the Cambridge 
# Structural Database, then it will include bibliographic, chemical, 
# crystal, experimental, refinement or atomic coordinate data resulting 
# from the CCDC's data processing and validation procedures.
#
#######################################################################

data_HUBRUS
_chemical_formula_moiety         
'C106 H112 Cu6 N16 O12 P4 4+,4(Cl1 O4 1-),2(C1 H2 Cl2),6(H2 O1)'
_chemical_name_systematic        
"tetrakis(\m~3~-cyclopentylphosphonato-O,O',O'')-bis(\m~2~-4,4'-(1,3-propanediyl)dipyridine-N,N')-hexakis(2,2'-bipyridine)-hexa-copper(ii) tetraperchlorate dichloromethane solvate hexahydrate"
_symmetry_cell_setting           triclinic
_symmetry_space_group_name_H-M   'P -1'
_symmetry_Int_Tables_number      2
_space_group_name_Hall           '-P 1'
loop_
_symmetry_equiv_pos_site_id
_symmetry_equiv_pos_as_xyz
1 x,y,z
2 -x,-y,-z
_cell_length_a                   13.3841(10)
_cell_length_b                   15.5550(11)
_cell_length_c                   18.0727(13)
_cell_angle_alpha                67.4790(10)
_cell_angle_beta                 72.6560(10)
_cell_angle_gamma                68.8420(10)
_cell_volume                     3185.02
_exptl_crystal_colour            blue
_exptl_crystal_description       block
_chemical_melting_point          '272 deg.C'
_cell_formula_units_Z            1
_exptl_crystal_recrystallization_method methanol/dichloromethane
_exptl_crystal_preparation       'magnetic properties'
loop_
_atom_site_label
_atom_site_type_symbol
_atom_site_fract_x
_atom_site_fract_y
_atom_site_fract_z
Cu1 Cu 0.10346(7) 0.10282(7) 0.37081(6)
Cu2 Cu 0.20955(7) 0.23686(7) 0.13234(6)
Cu3 Cu 0.34492(7) -0.08612(7) 0.18615(6)
P1 P 0.10807(15) 0.05140(14) 0.21107(12)
P2 P 0.34742(15) 0.07004(14) 0.26262(12)
O1 O 0.0722(4) 0.0641(4) 0.2951(3)
O2 O 0.1518(4) 0.1336(4) 0.1462(3)
O3 O 0.1875(4) -0.0483(4) 0.2119(3)
O4 O 0.3350(4) 0.1513(3) 0.1818(3)
O5 O 0.3675(4) -0.0297(3) 0.2568(3)
O6 O 0.2541(4) 0.0916(4) 0.3317(3)
N1 N -0.0526(5) 0.1184(4) 0.4306(4)
N2 N 0.1098(5) 0.1402(5) 0.4632(4)
N3 N 0.1277(5) 0.3247(4) 0.0393(4)
N4 N 0.2813(5) 0.3449(4) 0.0860(4)
N5 N 0.3409(5) -0.1272(5) 0.0942(4)
N6 N 0.5021(5) -0.1020(4) 0.1273(4)
N7 N 0.0904(5) 0.2980(4) 0.2272(4)
N8 N 0.3627(5) -0.2321(5) 0.2841(5)
C1 C -0.1322(7) 0.1075(6) 0.4064(5)
H1 H -0.1188 0.0985 0.3559
C2 C -0.2328(7) 0.1095(6) 0.4557(5)
H2 H -0.2879 0.1046 0.4374
C3 C -0.2531(6) 0.1188(6) 0.5316(5)
H3 H -0.3200 0.1164 0.5661
C4 C -0.1718(6) 0.1317(5) 0.5565(5)
H4 H -0.1831 0.1389 0.6074
C5 C -0.0738(6) 0.1336(5) 0.5028(5)
C6 C 0.0171(6) 0.1546(5) 0.5172(4)
C7 C 0.0087(7) 0.1882(6) 0.5808(5)
H5 H -0.0563 0.1973 0.6180
C8 C 0.0975(7) 0.2079(7) 0.5885(5)
H6 H 0.0927 0.2316 0.6299
C9 C 0.1940(7) 0.1914(6) 0.5326(6)
H7 H 0.2554 0.2032 0.5364
C10 C 0.1975(7) 0.1569(7) 0.4706(5)
H8 H 0.2622 0.1452 0.4336
C11 C 0.0531(7) 0.3045(6) 0.0181(5)
H9 H 0.0304 0.2495 0.0505
C12 C 0.0085(7) 0.3641(6) -0.0515(6)
H10 H -0.0417 0.3483 -0.0666
C13 C 0.0405(7) 0.4460(6) -0.0969(5)
H11 H 0.0122 0.4865 -0.1437
C14 C 0.1135(6) 0.4689(6) -0.0744(5)
H12 H 0.1338 0.5256 -0.1044
C15 C 0.1576(6) 0.4060(6) -0.0055(5)
C16 C 0.2375(6) 0.4216(5) 0.0254(5)
C17 C 0.2675(7) 0.5073(6) -0.0037(5)
H13 H 0.2368 0.5594 -0.0452
C18 C 0.3434(7) 0.5138(6) 0.0299(6)
H14 H 0.3629 0.5711 0.0123
C19 C 0.3899(7) 0.4353(6) 0.0892(6)
H15 H 0.4432 0.4377 0.1111
C20 C 0.3563(7) 0.3528(6) 0.1159(5)
H16 H 0.3874 0.3000 0.1568
C21 C 0.2573(7) -0.1468(6) 0.0855(6)
H17 H 0.1935 -0.1408 0.1243
C22 C 0.2612(7) -0.1764(6) 0.0196(6)
H18 H 0.2022 -0.1918 0.0160
C23 C 0.3532(8) -0.1818(7) -0.0381(6)
H19 H 0.3573 -0.1995 -0.0828
C24 C 0.4419(7) -0.1606(6) -0.0304(6)
H20 H 0.5053 -0.1641 -0.0697
C25 C 0.4339(6) -0.1347(6) 0.0357(5)
C26 C 0.5230(6) -0.1175(5) 0.0540(5)
C27 C 0.6249(7) -0.1213(6) 0.0050(5)
H21 H 0.6379 -0.1303 -0.0453
C28 C 0.7074(6) -0.1119(6) 0.0295(5)
H22 H 0.7758 -0.1144 -0.0038
C29 C 0.6860(7) -0.0986(6) 0.1059(5)
H23 H 0.7403 -0.0943 0.1255
C30 C 0.5829(7) -0.0920(6) 0.1502(5)
H24 H 0.5676 -0.0799 0.1995
C31 C -0.0147(6) 0.0589(5) 0.1841(4)
H25 H -0.0673 0.1213 0.1865
C32 C 0.0011(7) 0.0519(6) 0.0965(5)
H26 H -0.0283 0.1151 0.0596
H27 H 0.0780 0.0283 0.0751
C33 C -0.0606(7) -0.0195(7) 0.1061(5)
H28 H -0.1008 0.0044 0.0622
H29 H -0.0105 -0.0826 0.1060
C34 C -0.1373(7) -0.0252(7) 0.1871(5)
H30 H -0.1582 -0.0851 0.2092
H31 H -0.2024 0.0292 0.1822
C35 C -0.0685(7) -0.0219(6) 0.2405(5)
H32 H -0.1143 -0.0060 0.2890
H33 H -0.0141 -0.0834 0.2566
C36 C 0.4675(6) 0.0698(5) 0.2890(4)
H34 H 0.5277 0.0617 0.2432
C37 C 0.5031(6) -0.0118(6) 0.3661(5)
H35 H 0.4408 -0.0222 0.4091
H36 H 0.5443 -0.0721 0.3542
C38 C 0.5739(7) 0.0275(6) 0.3891(5)
H37 H 0.6442 0.0232 0.3528
H38 H 0.5851 -0.0073 0.4448
C39 C 0.5076(7) 0.1341(6) 0.3798(5)
H39 H 0.5543 0.1733 0.3720
H40 H 0.4508 0.1394 0.4273
C40 C 0.4579(6) 0.1657(5) 0.3028(5)
H41 H 0.4979 0.2047 0.2560
H42 H 0.3821 0.2033 0.3115
C41 C 0.1129(7) 0.3357(6) 0.2738(5)
H43 H 0.1853 0.3315 0.2697
C42 C 0.0370(8) 0.3790(9) 0.3259(7)
H44 H 0.0578 0.4043 0.3561
C43 C -0.0721(8) 0.3866(10) 0.3352(9)
C44 C -0.0959(7) 0.3488(7) 0.2865(6)
H45 H -0.1679 0.3534 0.2886
C45 C -0.0148(6) 0.3052(6) 0.2361(5)
H46 H -0.0333 0.2786 0.2056
C46 C 0.2958(7) -0.2844(6) 0.3008(6)
H47 H 0.2535 -0.2705 0.2629
C47 C 0.2859(8) -0.3607(6) 0.3740(7)
H48 H 0.2377 -0.3962 0.3841
C48 C 0.3479(8) -0.3819(6) 0.4299(6)
C49 C 0.4193(7) -0.3288(6) 0.4104(5)
H49 H 0.4635 -0.3417 0.4466
C50 C 0.4258(7) -0.2561(6) 0.3370(5)
H50 H 0.4768 -0.2224 0.3242
C51 C 0.3518(19) -0.464(2) 0.5149(15)
H51 H 0.4258 -0.4887 0.5250
H52 H 0.3313 -0.5167 0.5133
C52 C 0.2727(12) -0.4247(11) 0.5869(9)
H53 H 0.2882 -0.4723 0.6386
H54 H 0.2856 -0.3656 0.5834
C53 C -0.1557(14) 0.4046(12) 0.4163(10)
H55 H -0.1471 0.4590 0.4252
H56 H -0.1369 0.3478 0.4625
Cu1A Cu -0.10346(7) -0.10282(7) 0.62919(6)
Cu2A Cu -0.20955(7) -0.23686(7) 0.86766(6)
Cu3A Cu -0.34492(7) 0.08612(7) 0.81385(6)
P1A P -0.10807(15) -0.05140(14) 0.78893(12)
P2A P -0.34742(15) -0.07004(14) 0.73738(12)
O1A O -0.0722(4) -0.0641(4) 0.7049(3)
O2A O -0.1518(4) -0.1336(4) 0.8538(3)
O3A O -0.1875(4) 0.0483(4) 0.7881(3)
O4A O -0.3350(4) -0.1513(3) 0.8182(3)
O5A O -0.3675(4) 0.0297(3) 0.7432(3)
O6A O -0.2541(4) -0.0916(4) 0.6683(3)
N1A N 0.0526(5) -0.1184(4) 0.5694(4)
N2A N -0.1098(5) -0.1402(5) 0.5368(4)
N3A N -0.1277(5) -0.3247(4) 0.9607(4)
N4A N -0.2813(5) -0.3449(4) 0.9140(4)
N5A N -0.3409(5) 0.1272(5) 0.9058(4)
N6A N -0.5021(5) 0.1020(4) 0.8727(4)
N7A N -0.0904(5) -0.2980(4) 0.7728(4)
N8A N -0.3627(5) 0.2321(5) 0.7159(5)
C1A C 0.1322(7) -0.1075(6) 0.5936(5)
H1A H 0.1188 -0.0985 0.6441
C2A C 0.2328(7) -0.1095(6) 0.5443(5)
H2A H 0.2879 -0.1046 0.5626
C3A C 0.2531(6) -0.1188(6) 0.4684(5)
H3A H 0.3200 -0.1164 0.4339
C4A C 0.1718(6) -0.1317(5) 0.4435(5)
H4A H 0.1831 -0.1389 0.3926
C5A C 0.0738(6) -0.1336(5) 0.4972(5)
C6A C -0.0171(6) -0.1546(5) 0.4828(4)
C7A C -0.0087(7) -0.1882(6) 0.4192(5)
H5A H 0.0563 -0.1973 0.3820
C8A C -0.0975(7) -0.2079(7) 0.4115(5)
H6A H -0.0927 -0.2316 0.3701
C9A C -0.1940(7) -0.1914(6) 0.4674(6)
H7A H -0.2554 -0.2032 0.4636
C10A C -0.1975(7) -0.1569(7) 0.5294(5)
H8A H -0.2622 -0.1452 0.5664
C11A C -0.0531(7) -0.3045(6) 0.9819(5)
H9A H -0.0304 -0.2495 0.9495
C12A C -0.0085(7) -0.3641(6) 1.0515(6)
H10A H 0.0417 -0.3483 1.0666
C13A C -0.0405(7) -0.4460(6) 1.0969(5)
H11A H -0.0122 -0.4865 1.1437
C14A C -0.1135(6) -0.4689(6) 1.0744(5)
H12A H -0.1338 -0.5256 1.1044
C15A C -0.1576(6) -0.4060(6) 1.0055(5)
C16A C -0.2375(6) -0.4216(5) 0.9746(5)
C17A C -0.2675(7) -0.5073(6) 1.0037(5)
H13A H -0.2368 -0.5594 1.0452
C18A C -0.3434(7) -0.5138(6) 0.9701(6)
H14A H -0.3629 -0.5711 0.9877
C19A C -0.3899(7) -0.4353(6) 0.9108(6)
H15A H -0.4432 -0.4377 0.8889
C20A C -0.3563(7) -0.3528(6) 0.8841(5)
H16A H -0.3874 -0.3000 0.8432
C21A C -0.2573(7) 0.1468(6) 0.9145(6)
H17A H -0.1935 0.1408 0.8757
C22A C -0.2612(7) 0.1764(6) 0.9804(6)
H18A H -0.2022 0.1918 0.9840
C23A C -0.3532(8) 0.1818(7) 1.0381(6)
H19A H -0.3573 0.1995 1.0828
C24A C -0.4419(7) 0.1606(6) 1.0304(6)
H20A H -0.5053 0.1641 1.0697
C25A C -0.4339(6) 0.1347(6) 0.9643(5)
C26A C -0.5230(6) 0.1175(5) 0.9460(5)
C27A C -0.6249(7) 0.1213(6) 0.9950(5)
H21A H -0.6379 0.1303 1.0453
C28A C -0.7074(6) 0.1119(6) 0.9705(5)
H22A H -0.7758 0.1144 1.0038
C29A C -0.6860(7) 0.0986(6) 0.8941(5)
H23A H -0.7403 0.0943 0.8745
C30A C -0.5829(7) 0.0920(6) 0.8498(5)
H24A H -0.5676 0.0799 0.8005
C31A C 0.0147(6) -0.0589(5) 0.8159(4)
H25A H 0.0673 -0.1213 0.8135
C32A C -0.0011(7) -0.0519(6) 0.9035(5)
H26A H 0.0283 -0.1151 0.9404
H27A H -0.0780 -0.0283 0.9249
C33A C 0.0606(7) 0.0195(7) 0.8939(5)
H28A H 0.1008 -0.0044 0.9378
H29A H 0.0105 0.0826 0.8940
C34A C 0.1373(7) 0.0252(7) 0.8129(5)
H30A H 0.1582 0.0851 0.7908
H31A H 0.2024 -0.0292 0.8178
C35A C 0.0685(7) 0.0219(6) 0.7595(5)
H32A H 0.1143 0.0060 0.7110
H33A H 0.0141 0.0834 0.7434
C36A C -0.4675(6) -0.0698(5) 0.7110(4)
H34A H -0.5277 -0.0617 0.7568
C37A C -0.5031(6) 0.0118(6) 0.6339(5)
H35A H -0.4408 0.0222 0.5909
H36A H -0.5443 0.0721 0.6458
C38A C -0.5739(7) -0.0275(6) 0.6109(5)
H37A H -0.6442 -0.0232 0.6472
H38A H -0.5851 0.0073 0.5552
C39A C -0.5076(7) -0.1341(6) 0.6202(5)
H39A H -0.5543 -0.1733 0.6280
H40A H -0.4508 -0.1394 0.5727
C40A C -0.4579(6) -0.1657(5) 0.6972(5)
H41A H -0.4979 -0.2047 0.7440
H42A H -0.3821 -0.2033 0.6885
C41A C -0.1129(7) -0.3357(6) 0.7262(5)
H43A H -0.1853 -0.3315 0.7303
C42A C -0.0370(8) -0.3790(9) 0.6741(7)
H44A H -0.0578 -0.4043 0.6439
C43A C 0.0721(8) -0.3866(10) 0.6648(9)
C44A C 0.0959(7) -0.3488(7) 0.7135(6)
H45A H 0.1679 -0.3534 0.7114
C45A C 0.0148(6) -0.3052(6) 0.7639(5)
H46A H 0.0333 -0.2786 0.7944
C46A C -0.2958(7) 0.2844(6) 0.6992(6)
H47A H -0.2535 0.2705 0.7371
C47A C -0.2859(8) 0.3607(6) 0.6260(7)
H48A H -0.2377 0.3962 0.6159
C48A C -0.3479(8) 0.3819(6) 0.5701(6)
C49A C -0.4193(7) 0.3288(6) 0.5896(5)
H49A H -0.4635 0.3417 0.5534
C50A C -0.4258(7) 0.2561(6) 0.6630(5)
H50A H -0.4768 0.2224 0.6758
C51A C -0.3518(19) 0.464(2) 0.4851(15)
H51A H -0.4258 0.4887 0.4750
H52A H -0.3313 0.5167 0.4867
C52A C -0.2727(12) 0.4247(11) 0.4131(9)
H53A H -0.2882 0.4723 0.3614
H54A H -0.2856 0.3656 0.4166
C53A C 0.1557(14) -0.4046(12) 0.5837(10)
H55A H 0.1471 -0.4590 0.5748
H56A H 0.1369 -0.3478 0.5375
Cl1 Cl 0.9355(3) 0.3453(2) 0.7636(2)
O7 O 0.8580(13) 0.3717(17) 0.8273(10)
O8 O 0.909(2) 0.4111(13) 0.6869(9)
O9 O 1.0387(12) 0.3438(19) 0.7686(14)
O10 O 0.9376(14) 0.2537(9) 0.7646(11)
Cl2 Cl 0.29337(18) 0.71515(16) 0.80011(18)
O11 O 0.3855(6) 0.6803(5) 0.8355(5)
O12 O 0.2762(6) 0.8107(6) 0.7530(5)
O13 O 0.3330(11) 0.6769(11) 0.7253(9)
O14 O 0.1997(9) 0.6970(8) 0.8381(8)
Cl3 Cl 0.3540(3) 0.3602(3) 0.8125(2)
Cl4 Cl 0.5272(4) 0.3850(2) 0.8648(3)
C54 C 0.4478(13) 0.4302(9) 0.7880(9)
H57 H 0.4955 0.4274 0.7362
H58 H 0.4075 0.4974 0.7827
O15 O 0.4994(12) 0.3825(9) 0.3853(8)
O16 O 0.3040(12) 0.3802(10) 0.3741(12)
O17 O 0.2929(14) 0.2827(11) 0.6470(15)
C55? C 0.309(2) -0.450(2) 0.5036(18)
C56? C 0.208(2) -0.3967(15) 0.5520(13)
C57? C 0.1675(14) -0.4656(13) 0.6350(11)
H59? H 0.3650 -0.4842 0.5364
H60? H 0.2911 -0.4966 0.4901
H61? H 0.1498 -0.3661 0.5203
H62? H 0.2239 -0.3461 0.5612
H63? H 0.2219 -0.4972 0.6696
H64? H 0.1428 -0.5137 0.6291
O18? O 0.9209(17) 0.3114(19) 0.7089(12)
O19? O 0.2717(17) 0.6298(14) 0.8054(11)
O20? O 0.2141(15) 0.7337(11) 0.8856(10)
O21? O 0.935(2) 0.2725(16) 0.8396(11)
O22? O 0.8503(18) 0.4264(14) 0.7733(17)
O23? O 1.0330(16) 0.370(2) 0.7380(17)
loop_
_geom_bond_atom_site_label_1
_geom_bond_atom_site_label_2
_geom_bond_site_symmetry_1
_geom_bond_site_symmetry_2
Cu1 O1 1_555 1_555
Cu2 O2 1_555 1_555
Cu3 O3 1_555 1_555
Cl1 O7 1_555 1_555
Cl2 O11 1_555 1_555
Cl3 C54 1_555 1_555
Cl4 C54 1_555 1_555
P1 O1 1_555 1_555
P2 O4 1_555 1_555
O2 P1 1_555 1_555
O3 P1 1_555 1_555
O4 Cu2 1_555 1_555
O5 Cu3 1_555 1_555
O6 Cu1 1_555 1_555
O8 Cl1 1_555 1_555
O9 Cl1 1_555 1_555
O10 Cl1 1_555 1_555
O12 Cl2 1_555 1_555
O13 Cl2 1_555 1_555
O14 Cl2 1_555 1_555
N1 Cu1 1_555 1_555
N2 Cu1 1_555 1_555
N3 Cu2 1_555 1_555
N4 Cu2 1_555 1_555
N5 Cu3 1_555 1_555
N6 Cu3 1_555 1_555
N7 Cu2 1_555 1_555
N8 Cu3 1_555 1_555
C1 N1 1_555 1_555
H1 C1 1_555 1_555
C2 C1 1_555 1_555
H2 C2 1_555 1_555
C3 C2 1_555 1_555
H3 C3 1_555 1_555
C4 C3 1_555 1_555
H4 C4 1_555 1_555
C5 N1 1_555 1_555
C6 N2 1_555 1_555
C7 C6 1_555 1_555
H5 C7 1_555 1_555
C8 C7 1_555 1_555
H6 C8 1_555 1_555
C9 C8 1_555 1_555
H7 C9 1_555 1_555
C10 N2 1_555 1_555
H8 C10 1_555 1_555
C11 N3 1_555 1_555
H9 C11 1_555 1_555
C12 C11 1_555 1_555
H10 C12 1_555 1_555
C13 C12 1_555 1_555
H11 C13 1_555 1_555
C14 C13 1_555 1_555
H12 C14 1_555 1_555
C15 N3 1_555 1_555
C16 N4 1_555 1_555
C17 C16 1_555 1_555
H13 C17 1_555 1_555
C18 C17 1_555 1_555
H14 C18 1_555 1_555
C19 C18 1_555 1_555
H15 C19 1_555 1_555
C20 N4 1_555 1_555
H16 C20 1_555 1_555
C21 N5 1_555 1_555
H17 C21 1_555 1_555
C22 C21 1_555 1_555
H18 C22 1_555 1_555
C23 C22 1_555 1_555
H19 C23 1_555 1_555
C24 C23 1_555 1_555
H20 C24 1_555 1_555
C25 N5 1_555 1_555
C26 N6 1_555 1_555
C27 C26 1_555 1_555
H21 C27 1_555 1_555
C28 C27 1_555 1_555
H22 C28 1_555 1_555
C29 C28 1_555 1_555
H23 C29 1_555 1_555
C30 N6 1_555 1_555
H24 C30 1_555 1_555
C31 P1 1_555 1_555
H25 C31 1_555 1_555
C32 C31 1_555 1_555
H26 C32 1_555 1_555
H27 C32 1_555 1_555
C33 C32 1_555 1_555
H28 C33 1_555 1_555
H29 C33 1_555 1_555
C34 C33 1_555 1_555
H30 C34 1_555 1_555
H31 C34 1_555 1_555
C35 C31 1_555 1_555
H32 C35 1_555 1_555
H33 C35 1_555 1_555
C36 P2 1_555 1_555
H34 C36 1_555 1_555
C37 C36 1_555 1_555
H35 C37 1_555 1_555
H36 C37 1_555 1_555
C38 C37 1_555 1_555
H37 C38 1_555 1_555
H38 C38 1_555 1_555
C39 C38 1_555 1_555
H39 C39 1_555 1_555
H40 C39 1_555 1_555
C40 C36 1_555 1_555
H41 C40 1_555 1_555
H42 C40 1_555 1_555
C41 N7 1_555 1_555
H43 C41 1_555 1_555
C42 C41 1_555 1_555
H44 C42 1_555 1_555
C43 C42 1_555 1_555
C44 C43 1_555 1_555
H45 C44 1_555 1_555
C45 N7 1_555 1_555
H46 C45 1_555 1_555
C46 N8 1_555 1_555
H47 C46 1_555 1_555
C47 C46 1_555 1_555
H48 C47 1_555 1_555
C48 C47 1_555 1_555
C49 C48 1_555 1_555
H49 C49 1_555 1_555
C50 N8 1_555 1_555
H50 C50 1_555 1_555
C51 C48 1_555 1_555
H51 C51 1_555 1_555
H52 C51 1_555 1_555
C52 C51 1_555 1_555
H53 C52 1_555 1_555
H54 C52 1_555 1_555
C53 C43 1_555 1_555
H55 C53 1_555 1_555
H56 C53 1_555 1_555
C54 H57 1_555 1_555
H58 C54 1_555 1_555
Cu1A O1A 1_555 1_555
Cu2A O2A 1_555 1_555
Cu3A O3A 1_555 1_555
P1A O1A 1_555 1_555
P2A O4A 1_555 1_555
O2A P1A 1_555 1_555
O3A P1A 1_555 1_555
O4A Cu2A 1_555 1_555
O5A Cu3A 1_555 1_555
O6A Cu1A 1_555 1_555
N1A Cu1A 1_555 1_555
N2A Cu1A 1_555 1_555
N3A Cu2A 1_555 1_555
N4A Cu2A 1_555 1_555
N5A Cu3A 1_555 1_555
N6A Cu3A 1_555 1_555
N7A Cu2A 1_555 1_555
N8A Cu3A 1_555 1_555
C1A N1A 1_555 1_555
H1A C1A 1_555 1_555
C2A C1A 1_555 1_555
H2A C2A 1_555 1_555
C3A C2A 1_555 1_555
H3A C3A 1_555 1_555
C4A C3A 1_555 1_555
H4A C4A 1_555 1_555
C5A N1A 1_555 1_555
C6A N2A 1_555 1_555
C7A C6A 1_555 1_555
H5A C7A 1_555 1_555
C8A C7A 1_555 1_555
H6A C8A 1_555 1_555
C9A C8A 1_555 1_555
H7A C9A 1_555 1_555
C10A N2A 1_555 1_555
H8A C10A 1_555 1_555
C11A N3A 1_555 1_555
H9A C11A 1_555 1_555
C12A C11A 1_555 1_555
H10A C12A 1_555 1_555
C13A C12A 1_555 1_555
H11A C13A 1_555 1_555
C14A C13A 1_555 1_555
H12A C14A 1_555 1_555
C15A N3A 1_555 1_555
C16A N4A 1_555 1_555
C17A C16A 1_555 1_555
H13A C17A 1_555 1_555
C18A C17A 1_555 1_555
H14A C18A 1_555 1_555
C19A C18A 1_555 1_555
H15A C19A 1_555 1_555
C20A N4A 1_555 1_555
H16A C20A 1_555 1_555
C21A N5A 1_555 1_555
H17A C21A 1_555 1_555
C22A C21A 1_555 1_555
H18A C22A 1_555 1_555
C23A C22A 1_555 1_555
H19A C23A 1_555 1_555
C24A C23A 1_555 1_555
H20A C24A 1_555 1_555
C25A N5A 1_555 1_555
C26A N6A 1_555 1_555
C27A C26A 1_555 1_555
H21A C27A 1_555 1_555
C28A C27A 1_555 1_555
H22A C28A 1_555 1_555
C29A C28A 1_555 1_555
H23A C29A 1_555 1_555
C30A N6A 1_555 1_555
H24A C30A 1_555 1_555
C31A P1A 1_555 1_555
H25A C31A 1_555 1_555
C32A C31A 1_555 1_555
H26A C32A 1_555 1_555
H27A C32A 1_555 1_555
C33A C32A 1_555 1_555
H28A C33A 1_555 1_555
H29A C33A 1_555 1_555
C34A C33A 1_555 1_555
H30A C34A 1_555 1_555
H31A C34A 1_555 1_555
C35A C31A 1_555 1_555
H32A C35A 1_555 1_555
H33A C35A 1_555 1_555
C36A P2A 1_555 1_555
H34A C36A 1_555 1_555
C37A C36A 1_555 1_555
H35A C37A 1_555 1_555
H36A C37A 1_555 1_555
C38A C37A 1_555 1_555
H37A C38A 1_555 1_555
H38A C38A 1_555 1_555
C39A C38A 1_555 1_555
H39A C39A 1_555 1_555
H40A C39A 1_555 1_555
C40A C36A 1_555 1_555
H41A C40A 1_555 1_555
H42A C40A 1_555 1_555
C41A N7A 1_555 1_555
H43A C41A 1_555 1_555
C42A C41A 1_555 1_555
H44A C42A 1_555 1_555
C43A C42A 1_555 1_555
C44A C43A 1_555 1_555
H45A C44A 1_555 1_555
C45A N7A 1_555 1_555
H46A C45A 1_555 1_555
C46A N8A 1_555 1_555
H47A C46A 1_555 1_555
C47A C46A 1_555 1_555
H48A C47A 1_555 1_555
C48A C47A 1_555 1_555
C49A C48A 1_555 1_555
H49A C49A 1_555 1_555
C50A N8A 1_555 1_555
H50A C50A 1_555 1_555
C51A C48A 1_555 1_555
H51A C51A 1_555 1_555
H52A C51A 1_555 1_555
C52A C53 1_555 1_555
H53A C52A 1_555 1_555
H54A C52A 1_555 1_555
C53A C52 1_555 1_555
H55A C53A 1_555 1_555
H56A C53A 1_555 1_555
P2 O5 1_555 1_555
P2 O6 1_555 1_555
C4 C5 1_555 1_555
C5 C6 1_555 1_555
C9 C10 1_555 1_555
C14 C15 1_555 1_555
C15 C16 1_555 1_555
C19 C20 1_555 1_555
C24 C25 1_555 1_555
C25 C26 1_555 1_555
C29 C30 1_555 1_555
C34 C35 1_555 1_555
C39 C40 1_555 1_555
C44 C45 1_555 1_555
C49 C50 1_555 1_555
P2A O5A 1_555 1_555
P2A O6A 1_555 1_555
C4A C5A 1_555 1_555
C5A C6A 1_555 1_555
C9A C10A 1_555 1_555
C14A C15A 1_555 1_555
C15A C16A 1_555 1_555
C19A C20A 1_555 1_555
C24A C25A 1_555 1_555
C25A C26A 1_555 1_555
C29A C30A 1_555 1_555
C34A C35A 1_555 1_555
C39A C40A 1_555 1_555
C43A C53A 1_555 1_555
C44A C45A 1_555 1_555
C49A C50A 1_555 1_555
C51A C52A 1_555 1_555

#END
