
#######################################################################
#
#                 Cambridge Crystallographic Data Centre
#                                CCDC 
#
#######################################################################
#
# If this CIF has been generated from an entry in the Cambridge 
# Structural Database, then it will include bibliographic, chemical, 
# crystal, experimental, refinement or atomic coordinate data resulting 
# from the CCDC's data processing and validation procedures.
#
#######################################################################

data_HUBSED
_chemical_formula_moiety         
'C100 H110 Cu6 N22 O14 P4 4+,4(Cl1 O4 1-),4(C1 H4 O1),2(H2 O1)'
_chemical_name_systematic        
"tetrakis(\m~3~-cyclopentylphosphoato)-bis(\m~2~-4,4'-bipyridine)-hexakis(2,2'-dipyridylamine-N,N')-diaqua-hexa-copper(ii) tetraperchlorate methanol solvate dihydrate"
_symmetry_cell_setting           triclinic
_symmetry_space_group_name_H-M   'P -1'
_symmetry_Int_Tables_number      2
_space_group_name_Hall           '-P 1'
loop_
_symmetry_equiv_pos_site_id
_symmetry_equiv_pos_as_xyz
1 x,y,z
2 -x,-y,-z
_cell_length_a                   13.6524(9)
_cell_length_b                   13.7179(9)
_cell_length_c                   18.6199(12)
_cell_angle_alpha                70.4480(10)
_cell_angle_beta                 87.0010(10)
_cell_angle_gamma                65.7410(10)
_cell_volume                     2981.17
_exptl_crystal_colour            blue
_exptl_crystal_description       block
_chemical_melting_point          '285 deg.C'
_cell_formula_units_Z            1
_exptl_crystal_recrystallization_method methanol/dochloromethane
_exptl_crystal_preparation       'magnetic properties'
loop_
_atom_site_label
_atom_site_type_symbol
_atom_site_fract_x
_atom_site_fract_y
_atom_site_fract_z
Cu1 Cu 0.56381(5) 0.15306(5) 0.34723(3)
Cu2 Cu 0.72850(5) -0.00812(5) 0.14680(4)
Cu3 Cu 0.74941(5) -0.21641(5) 0.35954(4)
P1 P 0.79073(11) 0.01140(11) 0.29665(7)
P2 P 0.54437(11) -0.00138(11) 0.26047(7)
O1 O 0.7178(3) 0.0730(3) 0.3470(2)
O2 O 0.7474(3) 0.0681(3) 0.2121(2)
O3 O 0.8168(3) -0.1154(3) 0.3253(2)
O4 O 0.5258(3) 0.1127(3) 0.2664(2)
O5 O 0.6061(3) -0.0291(3) 0.1944(2)
O6 O 0.5967(3) -0.1004(3) 0.3370(2)
O7 O 0.8404(4) -0.2899(4) 0.2690(2)
N1 N 0.5990(4) 0.1808(4) 0.4403(2)
N2 N 0.4701(4) 0.1287(4) 0.5131(3)
N3 N 0.4124(4) 0.1853(4) 0.3825(3)
N4 N 0.7388(4) -0.1168(4) 0.0923(2)
N5 N 0.9283(5) -0.1927(6) 0.0982(3)
N6 N 0.8677(4) -0.0096(5) 0.1048(3)
N7 N 0.6929(4) -0.3346(4) 0.3872(3)
N8 N 0.7598(5) -0.4121(5) 0.5174(3)
N9 N 0.8650(4) -0.3179(4) 0.4504(3)
N10 N 0.5419(4) 0.3245(4) 0.2632(3)
N11 N 0.6245(4) 0.1515(4) 0.0468(3)
C1 C 0.6823(4) 0.2110(5) 0.4376(3)
H3 H 0.7138 0.2253 0.3919
C2 C 0.7223(5) 0.2216(5) 0.4992(3)
H4 H 0.7806 0.2409 0.4954
C3 C 0.6749(5) 0.2032(5) 0.5672(3)
H5 H 0.7004 0.2104 0.6097
C4 C 0.5897(5) 0.1743(5) 0.5703(3)
H6 H 0.5557 0.1624 0.6150
C5 C 0.5539(4) 0.1627(4) 0.5057(3)
C6 C 0.3963(4) 0.1471(4) 0.4563(3)
C7 C 0.3054(4) 0.1252(5) 0.4788(3)
H7 H 0.2995 0.0908 0.5302
C8 C 0.2263(5) 0.1553(5) 0.4239(4)
H8 H 0.1650 0.1424 0.4375
C9 C 0.2373(5) 0.2055(5) 0.3473(3)
H9 H 0.1826 0.2297 0.3092
C10 C 0.3304(4) 0.2182(5) 0.3295(3)
H10 H 0.3381 0.2511 0.2782
C11 C 0.6467(6) -0.1215(6) 0.0742(3)
H11 H 0.5814 -0.0665 0.0798
C12 C 0.6441(7) -0.2021(7) 0.0484(4)
H12 H 0.5787 -0.2018 0.0364
C13 C 0.7410(9) -0.2848(6) 0.0401(4)
H13 H 0.7415 -0.3413 0.0229
C14 C 0.8342(8) -0.2824(6) 0.0575(4)
H14 H 0.8997 -0.3379 0.0528
C15 C 0.8325(5) -0.1958(5) 0.0828(3)
C16 C 0.9479(5) -0.1030(7) 0.0994(4)
C17 C 1.0540(6) -0.1093(10) 0.0923(4)
H15 H 1.1108 -0.1759 0.0912
C18 C 1.0712(8) -0.0164(13) 0.0871(5)
H16 H 1.1406 -0.0196 0.0830
C19 C 0.9858(8) 0.0831(11) 0.0880(5)
H17 H 0.9958 0.1484 0.0818
C20 C 0.8879(7) 0.0817(8) 0.0982(4)
H18 H 0.8309 0.1472 0.1008
C21 C 0.9562(5) -0.3021(5) 0.4505(3)
H19 H 0.9697 -0.2559 0.4054
C22 C 1.0300(5) -0.3499(5) 0.5132(4)
H20 H 1.0920 -0.3368 0.5105
C23 C 1.0103(5) -0.4183(5) 0.5808(4)
H21 H 1.0578 -0.4501 0.6247
C24 C 0.9201(6) -0.4381(5) 0.5817(3)
H22 H 0.9055 -0.4840 0.6265
C25 C 0.8495(5) -0.3887(5) 0.5147(3)
C26 C 0.7008(5) -0.4081(5) 0.4580(4)
C27 C 0.6454(6) -0.4786(6) 0.4740(5)
H23 H 0.6491 -0.5268 0.5238
C28 C 0.5870(6) -0.4758(6) 0.4164(5)
H24 H 0.5510 -0.5229 0.4262
C29 C 0.5808(6) -0.4018(6) 0.3421(5)
H25 H 0.5411 -0.3989 0.3018
C30 C 0.6345(5) -0.3340(5) 0.3305(4)
H26 H 0.6308 -0.2850 0.2811
C31 C 0.4112(4) 0.0092(4) 0.2413(3)
H27 H 0.3714 0.0188 0.2856
C32 C 0.3458(5) 0.1118(5) 0.1698(3)
H28 H 0.3117 0.1809 0.1822
H29 H 0.3918 0.1232 0.1293
C33 C 0.2605(6) 0.0795(6) 0.1457(4)
H30 H 0.1890 0.1289 0.1535
H31 H 0.2619 0.0875 0.0919
C34 C 0.2868(6) -0.0408(6) 0.1937(4)
H32 H 0.2774 -0.0818 0.1630
H33 H 0.2405 -0.0443 0.2349
C35 C 0.4044(4) -0.0912(5) 0.2256(3)
H34 H 0.4530 -0.1137 0.1884
H35 H 0.4206 -0.1564 0.2722
C36 C 0.9180(4) 0.0208(5) 0.3055(3)
H36 H 0.9688 -0.0226 0.2766
C37 C 0.9090(5) 0.1437(5) 0.2739(3)
H37 H 0.9140 0.1675 0.2190
H38 H 0.8414 0.1964 0.2844
C38 C 1.0051(6) 0.1372(6) 0.3167(4)
H39 H 1.0707 0.1085 0.2929
H40 H 0.9929 0.2116 0.3176
C39 C 1.0124(6) 0.0571(6) 0.3956(4)
H41 H 0.9695 0.0984 0.4278
H42 H 1.0868 0.0167 0.4182
C40 C 0.9695(5) -0.0270(5) 0.3887(3)
H43 H 0.9161 -0.0325 0.4245
H44 H 1.0279 -0.1021 0.3994
C41 C 0.4555(5) 0.4187(5) 0.2618(3)
H45 H 0.4131 0.4144 0.3024
C42 C 0.4261(5) 0.5222(5) 0.2030(3)
H46 H 0.3648 0.5851 0.2044
C43 C 0.4884(4) 0.5319(5) 0.1422(3)
C44 C 0.5797(4) 0.4348(5) 0.1444(3)
H47 H 0.6254 0.4378 0.1057
C45 C 0.6020(4) 0.3339(5) 0.2043(3)
H48 H 0.6619 0.2692 0.2037
C46 C 0.4554(4) 0.6412(4) 0.0774(3)
C47 C 0.3864(6) 0.7430(5) 0.0862(3)
H49 H 0.3650 0.7439 0.1343
C48 C 0.6508(6) 0.1573(5) -0.0244(3)
H50 H 0.6966 0.0905 -0.0324
C49 C 0.5544(4) 0.2471(5) 0.0558(3)
H51 H 0.5324 0.2443 0.1043
C50 C 0.4880(4) 0.6477(4) 0.0043(3)
H52 H 0.5375 0.5829 -0.0044
H59 H 0.448(5) 0.116(6) 0.559(4)
H60 H 0.978(6) -0.247(6) 0.096(4)
H61 H 0.752(6) -0.447(6) 0.558(4)
Cu1A Cu 0.43619(5) 0.84694(5) -0.34723(3)
Cu2A Cu 0.27150(5) 1.00812(5) -0.14680(4)
Cu3A Cu 0.25059(5) 1.21641(5) -0.35954(4)
P1A P 0.20927(11) 0.98860(11) -0.29665(7)
P2A P 0.45563(11) 1.00138(11) -0.26047(7)
O1A O 0.2822(3) 0.9270(3) -0.3470(2)
O2A O 0.2526(3) 0.9319(3) -0.2121(2)
O3A O 0.1832(3) 1.1154(3) -0.3253(2)
O4A O 0.4742(3) 0.8873(3) -0.2664(2)
O5A O 0.3939(3) 1.0291(3) -0.1944(2)
O6A O 0.4033(3) 1.1004(3) -0.3370(2)
O7A O 0.1596(4) 1.2899(4) -0.2690(2)
N1A N 0.4010(4) 0.8192(4) -0.4403(2)
N2A N 0.5299(4) 0.8713(4) -0.5131(3)
N3A N 0.5876(4) 0.8147(4) -0.3825(3)
N4A N 0.2612(4) 1.1168(4) -0.0923(2)
N5A N 0.0717(5) 1.1927(6) -0.0982(3)
N6A N 0.1323(4) 1.0096(5) -0.1048(3)
N7A N 0.3071(4) 1.3346(4) -0.3872(3)
N8A N 0.2402(5) 1.4121(5) -0.5174(3)
N9A N 0.1350(4) 1.3179(4) -0.4504(3)
N10A N 0.4581(4) 0.6755(4) -0.2632(3)
N11A N 0.3755(4) 0.8485(4) -0.0468(3)
C1A C 0.3177(4) 0.7890(5) -0.4376(3)
H3A H 0.2862 0.7747 -0.3919
C2A C 0.2777(5) 0.7784(5) -0.4992(3)
H4A H 0.2194 0.7591 -0.4954
C3A C 0.3251(5) 0.7968(5) -0.5672(3)
H5A H 0.2996 0.7896 -0.6097
C4A C 0.4103(5) 0.8257(5) -0.5703(3)
H6A H 0.4443 0.8376 -0.6150
C5A C 0.4461(4) 0.8373(4) -0.5057(3)
C6A C 0.6037(4) 0.8529(4) -0.4563(3)
C7A C 0.6946(4) 0.8748(5) -0.4788(3)
H7A H 0.7005 0.9092 -0.5302
C8A C 0.7737(5) 0.8447(5) -0.4239(4)
H8A H 0.8350 0.8576 -0.4375
C9A C 0.7627(5) 0.7945(5) -0.3473(3)
H9A H 0.8174 0.7703 -0.3092
C10A C 0.6696(4) 0.7818(5) -0.3295(3)
H10A H 0.6619 0.7489 -0.2782
C11A C 0.3533(6) 1.1215(6) -0.0742(3)
H11A H 0.4186 1.0665 -0.0798
C12A C 0.3559(7) 1.2021(7) -0.0484(4)
H12A H 0.4213 1.2018 -0.0364
C13A C 0.2590(9) 1.2848(6) -0.0401(4)
H13A H 0.2585 1.3413 -0.0229
C14A C 0.1658(8) 1.2824(6) -0.0575(4)
H14A H 0.1003 1.3379 -0.0528
C15A C 0.1675(5) 1.1958(5) -0.0828(3)
C16A C 0.0521(5) 1.1030(7) -0.0994(4)
C17A C -0.0540(6) 1.1093(10) -0.0923(4)
H15A H -0.1108 1.1759 -0.0912
C18A C -0.0712(8) 1.0164(13) -0.0871(5)
H16A H -0.1406 1.0196 -0.0830
C19A C 0.0142(8) 0.9169(11) -0.0880(5)
H17A H 0.0042 0.8516 -0.0818
C20A C 0.1121(7) 0.9183(8) -0.0982(4)
H18A H 0.1691 0.8528 -0.1008
C21A C 0.0438(5) 1.3021(5) -0.4505(3)
H19A H 0.0303 1.2559 -0.4054
C22A C -0.0300(5) 1.3499(5) -0.5132(4)
H20A H -0.0920 1.3368 -0.5105
C23A C -0.0103(5) 1.4183(5) -0.5808(4)
H21A H -0.0578 1.4501 -0.6247
C24A C 0.0799(6) 1.4381(5) -0.5817(3)
H22A H 0.0945 1.4840 -0.6265
C25A C 0.1505(5) 1.3887(5) -0.5147(3)
C26A C 0.2992(5) 1.4081(5) -0.4580(4)
C27A C 0.3546(6) 1.4786(6) -0.4740(5)
H23A H 0.3509 1.5268 -0.5238
C28A C 0.4130(6) 1.4758(6) -0.4164(5)
H24A H 0.4490 1.5229 -0.4262
C29A C 0.4192(6) 1.4018(6) -0.3421(5)
H25A H 0.4589 1.3989 -0.3018
C30A C 0.3655(5) 1.3340(5) -0.3305(4)
H26A H 0.3692 1.2850 -0.2811
C31A C 0.5888(4) 0.9908(4) -0.2413(3)
H27A H 0.6286 0.9812 -0.2856
C32A C 0.6542(5) 0.8882(5) -0.1698(3)
H28A H 0.6883 0.8191 -0.1822
H29A H 0.6082 0.8768 -0.1293
C33A C 0.7395(6) 0.9205(6) -0.1457(4)
H30A H 0.8110 0.8711 -0.1535
H31A H 0.7381 0.9125 -0.0919
C34A C 0.7132(6) 1.0408(6) -0.1937(4)
H32A H 0.7226 1.0818 -0.1630
H33A H 0.7595 1.0443 -0.2349
C35A C 0.5956(4) 1.0912(5) -0.2256(3)
H34A H 0.5470 1.1137 -0.1884
H35A H 0.5794 1.1564 -0.2722
C36A C 0.0820(4) 0.9792(5) -0.3055(3)
H36A H 0.0312 1.0226 -0.2766
C37A C 0.0910(5) 0.8563(5) -0.2739(3)
H37A H 0.0860 0.8325 -0.2190
H38A H 0.1586 0.8036 -0.2844
C38A C -0.0051(6) 0.8628(6) -0.3167(4)
H39A H -0.0707 0.8915 -0.2929
H40A H 0.0071 0.7884 -0.3176
C39A C -0.0124(6) 0.9429(6) -0.3956(4)
H41A H 0.0305 0.9016 -0.4278
H42A H -0.0868 0.9833 -0.4182
C40A C 0.0305(5) 1.0270(5) -0.3887(3)
H43A H 0.0839 1.0325 -0.4245
H44A H -0.0279 1.1021 -0.3994
C41A C 0.5445(5) 0.5813(5) -0.2618(3)
H45A H 0.5869 0.5856 -0.3024
C42A C 0.5739(5) 0.4778(5) -0.2030(3)
H46A H 0.6352 0.4149 -0.2044
C43A C 0.5116(4) 0.4681(5) -0.1422(3)
C44A C 0.4203(4) 0.5652(5) -0.1444(3)
H47A H 0.3746 0.5622 -0.1057
C45A C 0.3980(4) 0.6661(5) -0.2043(3)
H48A H 0.3381 0.7308 -0.2037
C46A C 0.5446(4) 0.3588(4) -0.0774(3)
C47A C 0.6136(6) 0.2570(5) -0.0862(3)
H49A H 0.6350 0.2561 -0.1343
C48A C 0.3492(6) 0.8427(5) 0.0244(3)
H50A H 0.3034 0.9095 0.0324
C49A C 0.4456(4) 0.7529(5) -0.0558(3)
H51A H 0.4676 0.7557 -0.1043
C50A C 0.5120(4) 0.3523(4) -0.0043(3)
H52A H 0.4625 0.4171 0.0044
H59A H 0.552(5) 0.884(6) -0.559(4)
H60A H 0.022(6) 1.247(6) -0.096(4)
H61A H 0.248(6) 1.447(6) -0.558(4)
Cl1 Cl 0.81289(19) 0.32069(14) 0.69336(10)
O8 O 0.8346(4) 0.2849(5) 0.6303(3)
O9 O 0.7558(5) 0.4404(4) 0.6711(3)
O10 O 0.9231(5) 0.2956(6) 0.7266(4)
O11 O 0.7657(6) 0.2620(5) 0.7479(4)
Cl2 Cl 0.8134(2) 0.4150(3) 0.9759(3)
O12 O 0.8053(13) 0.375(3) 1.0557(14)
O13 O 0.9108(10) 0.3852(13) 0.9711(14)
O14 O 0.7783(19) 0.3602(12) 0.9495(10)
O15 O 0.7502(11) 0.5296(13) 0.9427(16)
O16 O 0.1912(15) 0.4721(16) 0.2062(10)
O17 O 0.8665(6) 0.5158(5) 0.2409(3)
H1 H 0.9256 0.4809 0.2283
C52 C 0.7894(9) 0.4837(8) 0.2193(5)
H56 H 0.7856 0.4216 0.2610
H57 H 0.8104 0.4605 0.1755
H58 H 0.7200 0.5473 0.2066
O18 O 0.0534(9) 0.4105(9) 0.1917(6)
H2 H 0.0946 0.4421 0.1814
C51 C 0.0414(9) 0.3780(9) 0.1332(8)
H53 H -0.0064 0.4430 0.0922
H54 H 0.0115 0.3227 0.1504
H55 H 0.1104 0.3450 0.1153
loop_
_geom_bond_atom_site_label_1
_geom_bond_atom_site_label_2
_geom_bond_site_symmetry_1
_geom_bond_site_symmetry_2
Cu1 O1 1_555 1_555
Cu2 O2 1_555 1_555
Cu3 O3 1_555 1_555
Cl1 O8 1_555 1_555
Cl2 O12 1_555 1_555
P1 O1 1_555 1_555
P2 O4 1_555 1_555
O2 P1 1_555 1_555
O3 P1 1_555 1_555
O4 Cu1 1_555 1_555
O5 Cu2 1_555 1_555
O6 Cu3 1_555 1_555
O7 Cu3 1_555 1_555
O9 Cl1 1_555 1_555
O10 Cl1 1_555 1_555
O11 Cl1 1_555 1_555
O13 Cl2 1_555 1_555
O14 Cl2 1_555 1_555
O15 Cl2 1_555 1_555
O17 H1 1_555 1_555
O18 H2 1_555 1_555
N1 Cu1 1_555 1_555
N2 C5 1_555 1_555
N3 Cu1 1_555 1_555
N4 Cu2 1_555 1_555
N5 C15 1_555 1_555
N6 Cu2 1_555 1_555
N7 Cu3 1_555 1_555
N8 C25 1_555 1_555
N9 Cu3 1_555 1_555
N10 Cu1 1_555 1_555
N11 Cu2 1_555 1_555
C1 N1 1_555 1_555
H3 C1 1_555 1_555
C2 C1 1_555 1_555
H4 C2 1_555 1_555
C3 C2 1_555 1_555
H5 C3 1_555 1_555
C4 C3 1_555 1_555
H6 C4 1_555 1_555
C5 N1 1_555 1_555
C6 N2 1_555 1_555
C7 C6 1_555 1_555
H7 C7 1_555 1_555
C8 C7 1_555 1_555
H8 C8 1_555 1_555
C9 C8 1_555 1_555
H9 C9 1_555 1_555
C10 N3 1_555 1_555
H10 C10 1_555 1_555
C11 N4 1_555 1_555
H11 C11 1_555 1_555
C12 C11 1_555 1_555
H12 C12 1_555 1_555
C13 C12 1_555 1_555
H13 C13 1_555 1_555
C14 C13 1_555 1_555
H14 C14 1_555 1_555
C15 N4 1_555 1_555
C16 N5 1_555 1_555
C17 C16 1_555 1_555
H15 C17 1_555 1_555
C18 C17 1_555 1_555
H16 C18 1_555 1_555
C19 C18 1_555 1_555
H17 C19 1_555 1_555
C20 N6 1_555 1_555
H18 C20 1_555 1_555
C21 N9 1_555 1_555
H19 C21 1_555 1_555
C22 C21 1_555 1_555
H20 C22 1_555 1_555
C23 C22 1_555 1_555
H21 C23 1_555 1_555
C24 C23 1_555 1_555
H22 C24 1_555 1_555
C25 N9 1_555 1_555
C26 N7 1_555 1_555
C27 C26 1_555 1_555
H23 C27 1_555 1_555
C28 C27 1_555 1_555
H24 C28 1_555 1_555
C29 C28 1_555 1_555
H25 C29 1_555 1_555
C30 N7 1_555 1_555
H26 C30 1_555 1_555
C31 P2 1_555 1_555
H27 C31 1_555 1_555
C32 C31 1_555 1_555
H28 C32 1_555 1_555
H29 C32 1_555 1_555
C33 C32 1_555 1_555
H30 C33 1_555 1_555
H31 C33 1_555 1_555
C34 C33 1_555 1_555
H32 C34 1_555 1_555
H33 C34 1_555 1_555
C35 C31 1_555 1_555
H34 C35 1_555 1_555
H35 C35 1_555 1_555
C36 P1 1_555 1_555
H36 C36 1_555 1_555
C37 C36 1_555 1_555
H37 C37 1_555 1_555
H38 C37 1_555 1_555
C38 C37 1_555 1_555
H39 C38 1_555 1_555
H40 C38 1_555 1_555
C39 C38 1_555 1_555
H41 C39 1_555 1_555
H42 C39 1_555 1_555
C40 C36 1_555 1_555
H43 C40 1_555 1_555
H44 C40 1_555 1_555
C41 N10 1_555 1_555
H45 C41 1_555 1_555
C42 C41 1_555 1_555
H46 C42 1_555 1_555
C43 C42 1_555 1_555
C44 C43 1_555 1_555
H47 C44 1_555 1_555
C45 N10 1_555 1_555
H48 C45 1_555 1_555
C46 C43 1_555 1_555
C47 C46 1_555 1_555
H49 C47 1_555 1_555
C48 N11 1_555 1_555
H50 C48 1_555 1_555
C49 N11 1_555 1_555
H51 C49 1_555 1_555
C50 C46 1_555 1_555
H52 C50 1_555 1_555
C51 O18 1_555 1_555
H53 C51 1_555 1_555
H54 C51 1_555 1_555
H55 C51 1_555 1_555
C52 O17 1_555 1_555
H56 C52 1_555 1_555
H57 C52 1_555 1_555
H58 C52 1_555 1_555
H59 N2 1_555 1_555
H60 N5 1_555 1_555
H61 N8 1_555 1_555
Cu1A O1A 1_555 1_555
Cu2A O2A 1_555 1_555
Cu3A O3A 1_555 1_555
P1A O1A 1_555 1_555
P2A O4A 1_555 1_555
O2A P1A 1_555 1_555
O3A P1A 1_555 1_555
O4A Cu1A 1_555 1_555
O5A Cu2A 1_555 1_555
O6A Cu3A 1_555 1_555
O7A Cu3A 1_555 1_555
N1A Cu1A 1_555 1_555
N2A C5A 1_555 1_555
N3A Cu1A 1_555 1_555
N4A Cu2A 1_555 1_555
N5A C15A 1_555 1_555
N6A Cu2A 1_555 1_555
N7A Cu3A 1_555 1_555
N8A C25A 1_555 1_555
N9A Cu3A 1_555 1_555
N10A Cu1A 1_555 1_555
N11A Cu2A 1_555 1_555
C1A N1A 1_555 1_555
H3A C1A 1_555 1_555
C2A C1A 1_555 1_555
H4A C2A 1_555 1_555
C3A C2A 1_555 1_555
H5A C3A 1_555 1_555
C4A C3A 1_555 1_555
H6A C4A 1_555 1_555
C5A N1A 1_555 1_555
C6A N2A 1_555 1_555
C7A C6A 1_555 1_555
H7A C7A 1_555 1_555
C8A C7A 1_555 1_555
H8A C8A 1_555 1_555
C9A C8A 1_555 1_555
H9A C9A 1_555 1_555
C10A N3A 1_555 1_555
H10A C10A 1_555 1_555
C11A N4A 1_555 1_555
H11A C11A 1_555 1_555
C12A C11A 1_555 1_555
H12A C12A 1_555 1_555
C13A C12A 1_555 1_555
H13A C13A 1_555 1_555
C14A C13A 1_555 1_555
H14A C14A 1_555 1_555
C15A N4A 1_555 1_555
C16A N5A 1_555 1_555
C17A C16A 1_555 1_555
H15A C17A 1_555 1_555
C18A C17A 1_555 1_555
H16A C18A 1_555 1_555
C19A C18A 1_555 1_555
H17A C19A 1_555 1_555
C20A N6A 1_555 1_555
H18A C20A 1_555 1_555
C21A N9A 1_555 1_555
H19A C21A 1_555 1_555
C22A C21A 1_555 1_555
H20A C22A 1_555 1_555
C23A C22A 1_555 1_555
H21A C23A 1_555 1_555
C24A C23A 1_555 1_555
H22A C24A 1_555 1_555
C25A N9A 1_555 1_555
C26A N7A 1_555 1_555
C27A C26A 1_555 1_555
H23A C27A 1_555 1_555
C28A C27A 1_555 1_555
H24A C28A 1_555 1_555
C29A C28A 1_555 1_555
H25A C29A 1_555 1_555
C30A N7A 1_555 1_555
H26A C30A 1_555 1_555
C31A P2A 1_555 1_555
H27A C31A 1_555 1_555
C32A C31A 1_555 1_555
H28A C32A 1_555 1_555
H29A C32A 1_555 1_555
C33A C32A 1_555 1_555
H30A C33A 1_555 1_555
H31A C33A 1_555 1_555
C34A C33A 1_555 1_555
H32A C34A 1_555 1_555
H33A C34A 1_555 1_555
C35A C31A 1_555 1_555
H34A C35A 1_555 1_555
H35A C35A 1_555 1_555
C36A P1A 1_555 1_555
H36A C36A 1_555 1_555
C37A C36A 1_555 1_555
H37A C37A 1_555 1_555
H38A C37A 1_555 1_555
C38A C37A 1_555 1_555
H39A C38A 1_555 1_555
H40A C38A 1_555 1_555
C39A C38A 1_555 1_555
H41A C39A 1_555 1_555
H42A C39A 1_555 1_555
C40A C36A 1_555 1_555
H43A C40A 1_555 1_555
H44A C40A 1_555 1_555
C41A N10A 1_555 1_555
H45A C41A 1_555 1_555
C42A C41A 1_555 1_555
H46A C42A 1_555 1_555
C43A C42A 1_555 1_555
C44A C43A 1_555 1_555
H47A C44A 1_555 1_555
C45A N10A 1_555 1_555
H48A C45A 1_555 1_555
C46A C43A 1_555 1_555
C47A C48 1_555 1_555
H49A C47A 1_555 1_555
C48A C47 1_555 1_555
H50A C48A 1_555 1_555
C49A C50 1_555 1_555
H51A C49A 1_555 1_555
C50A C49 1_555 1_555
H52A C50A 1_555 1_555
H59A N2A 1_555 1_555
H60A N5A 1_555 1_555
H61A N8A 1_555 1_555
P2 O5 1_555 1_555
P2 O6 1_555 1_555
N3 C6 1_555 1_555
N6 C16 1_555 1_555
N8 C26 1_555 1_555
C4 C5 1_555 1_555
C9 C10 1_555 1_555
C14 C15 1_555 1_555
C19 C20 1_555 1_555
C24 C25 1_555 1_555
C29 C30 1_555 1_555
C34 C35 1_555 1_555
C39 C40 1_555 1_555
C44 C45 1_555 1_555
P2A O5A 1_555 1_555
P2A O6A 1_555 1_555
N3A C6A 1_555 1_555
N6A C16A 1_555 1_555
N8A C26A 1_555 1_555
N11A C48A 1_555 1_555
N11A C49A 1_555 1_555
C4A C5A 1_555 1_555
C9A C10A 1_555 1_555
C14A C15A 1_555 1_555
C19A C20A 1_555 1_555
C24A C25A 1_555 1_555
C29A C30A 1_555 1_555
C34A C35A 1_555 1_555
C39A C40A 1_555 1_555
C44A C45A 1_555 1_555
C46A C47A 1_555 1_555
C46A C50A 1_555 1_555

#END
