
#######################################################################
#
#                 Cambridge Crystallographic Data Centre
#                                CCDC 
#
#######################################################################
#
# If this CIF has been generated from an entry in the Cambridge 
# Structural Database, then it will include bibliographic, chemical, 
# crystal, experimental, refinement or atomic coordinate data resulting 
# from the CCDC's data processing and validation procedures.
#
#######################################################################

data_HUBSAZ
_chemical_formula_moiety         
'C92 H96 Cu6 N16 O14 P4 4+,4(Cl1 O4 1-),9(H2 O1)'
_chemical_name_systematic        
"tetrakis(\m~3~-isopropylphosphonato)-bis(\m~2~-4,4'-bipyridine)-hexakis(2,2'-bipyridine)-diaqua-hexa-copper(ii) tetraperchlorate nonahydrate"
_symmetry_cell_setting           triclinic
_symmetry_space_group_name_H-M   'P -1'
_symmetry_Int_Tables_number      2
_space_group_name_Hall           '-P 1'
loop_
_symmetry_equiv_pos_site_id
_symmetry_equiv_pos_as_xyz
1 x,y,z
2 -x,-y,-z
_cell_length_a                   12.979(5)
_cell_length_b                   18.441(5)
_cell_length_c                   23.548(5)
_cell_angle_alpha                93.134(5)
_cell_angle_beta                 97.002(5)
_cell_angle_gamma                97.235(5)
_cell_volume                     5535.49
_exptl_crystal_colour            blue
_exptl_crystal_description       block
_chemical_melting_point          '285 deg.C'
_cell_formula_units_Z            2
_exptl_crystal_recrystallization_method methanol/dichloromethane
_exptl_crystal_preparation       'magnetic properties'
loop_
_atom_site_label
_atom_site_type_symbol
_atom_site_fract_x
_atom_site_fract_y
_atom_site_fract_z
Cu1 Cu 0.48392(8) 0.36223(6) 0.45446(5)
Cu2 Cu 0.36526(8) 0.19817(6) 0.47549(5)
Cu3 Cu 0.12365(7) 0.36267(5) 0.51066(5)
P1 P 0.35678(17) 0.33580(14) 0.56100(10)
P2 P 0.25529(17) 0.32199(12) 0.40484(10)
O1 O 0.3374(5) 0.2547(3) 0.5409(3)
O2 O 0.4426(4) 0.3788(3) 0.5302(3)
O3 O 0.2579(4) 0.3720(3) 0.5567(3)
O4 O 0.1674(4) 0.3440(3) 0.4363(2)
O5 O 0.2868(4) 0.2476(3) 0.4177(3)
O6 O 0.3511(4) 0.3812(3) 0.4136(3)
O29 O 0.5852(5) 0.4704(3) 0.4686(4)
N1 N 0.6066(5) 0.3099(4) 0.4838(3)
N2 N 0.5384(5) 0.3377(4) 0.3805(3)
N3 N 0.4752(5) 0.1499(4) 0.5255(3)
N4 N 0.4372(5) 0.1507(4) 0.4144(3)
N5 N 0.0575(5) 0.3985(4) 0.5786(3)
N6 N -0.0138(5) 0.3907(4) 0.4700(3)
N13 N 0.0641(5) 0.2452(4) 0.5187(3)
N14 N 0.2415(5) 0.1022(4) 0.4771(3)
C1 C 0.6389(7) 0.3034(4) 0.5403(4)
H1 H 0.6023 0.3215 0.5684
C2 C 0.7262(7) 0.2697(5) 0.5556(5)
H2 H 0.7503 0.2667 0.5941
C3 C 0.7773(6) 0.2407(5) 0.5141(4)
H3 H 0.8359 0.2177 0.5245
C4 C 0.7427(7) 0.2453(5) 0.4573(5)
H4 H 0.7761 0.2244 0.4290
C5 C 0.6561(6) 0.2820(4) 0.4425(4)
C6 C 0.6168(6) 0.2969(4) 0.3833(4)
C7 C 0.6584(7) 0.2741(5) 0.3356(4)
H5 H 0.7094 0.2429 0.3384
C8 C 0.6227(6) 0.2987(5) 0.2834(4)
H6 H 0.6505 0.2849 0.2505
C9 C 0.5456(7) 0.3436(5) 0.2803(4)
H7 H 0.5225 0.3616 0.2456
C10 C 0.5038(7) 0.3615(5) 0.3280(4)
H8 H 0.4502 0.3907 0.3253
C11 C 0.4893(7) 0.1547(5) 0.5824(4)
H9 H 0.4484 0.1827 0.6020
C12 C 0.5632(7) 0.1191(5) 0.6134(4)
H10 H 0.5716 0.1230 0.6533
C13 C 0.6228(7) 0.0787(5) 0.5846(5)
H11 H 0.6720 0.0540 0.6047
C14 C 0.6104(7) 0.0740(5) 0.5248(5)
H12 H 0.6519 0.0469 0.5048
C15 C 0.5361(6) 0.1101(4) 0.4957(4)
C16 C 0.5127(6) 0.1098(5) 0.4323(4)
C17 C 0.5636(7) 0.0729(5) 0.3947(4)
H13 H 0.6170 0.0467 0.4084
C18 C 0.5350(8) 0.0747(5) 0.3361(5)
H14 H 0.5691 0.0501 0.3101
C19 C 0.4545(7) 0.1141(5) 0.3169(4)
H15 H 0.4317 0.1152 0.2780
C20 C 0.4097(6) 0.1516(5) 0.3581(4)
H16 H 0.3570 0.1790 0.3456
C21 C 0.0959(7) 0.3989(4) 0.6340(4)
H17 H 0.1626 0.3858 0.6426
C22 C 0.0444(6) 0.4172(4) 0.6784(4)
H18 H 0.0746 0.4166 0.7163
C23 C -0.0559(7) 0.4371(5) 0.6651(4)
H19 H -0.0938 0.4496 0.6944
C24 C -0.0979(7) 0.4381(5) 0.6094(4)
H20 H -0.1641 0.4518 0.6002
C25 C -0.0399(6) 0.4181(4) 0.5663(4)
C26 C -0.0764(6) 0.4178(4) 0.5044(4)
C27 C -0.1674(6) 0.4436(5) 0.4808(4)
H21 H -0.2097 0.4634 0.5051
C28 C -0.1956(6) 0.4407(5) 0.4235(4)
H22 H -0.2576 0.4567 0.4083
C29 C -0.1292(6) 0.4128(5) 0.3875(4)
H23 H -0.1453 0.4110 0.3478
C30 C -0.0390(6) 0.3880(5) 0.4126(4)
H24 H 0.0053 0.3690 0.3892
C31 C 0.0485(7) 0.2159(5) 0.5687(4)
H25 H 0.0744 0.2442 0.6025
C32 C -0.0038(7) 0.1457(5) 0.5731(4)
H26 H -0.0107 0.1277 0.6088
C33 C -0.0460(6) 0.1029(5) 0.5221(4)
C34 C -0.0270(6) 0.1323(5) 0.4689(4)
H27 H -0.0499 0.1054 0.4341
C35 C 0.0273(6) 0.2026(4) 0.4712(4)
H28 H 0.0389 0.2216 0.4364
C36 C -0.1097(6) 0.0317(4) 0.5226(4)
C37 C -0.1589(6) -0.0087(4) 0.4728(4)
H29 H -0.1492 0.0093 0.4374
C38 C 0.2207(6) 0.0738(5) 0.5257(4)
H30 H 0.2496 0.0995 0.5603
C39 C 0.1940(6) 0.0646(4) 0.4291(4)
H31 H 0.2072 0.0839 0.3947
C40 C -0.1287(6) -0.0011(5) 0.5742(4)
H32 H -0.0967 0.0207 0.6096
C41 C 0.2037(7) 0.3117(5) 0.3295(4)
H33 H 0.2595 0.2954 0.3094
C42 C 0.1817(8) 0.3848(6) 0.3052(4)
H34 H 0.1656 0.3780 0.2643
H35 H 0.2425 0.4207 0.3151
H36 H 0.1234 0.4013 0.3212
C43 C 0.1122(7) 0.2531(6) 0.3158(4)
H37 H 0.0590 0.2624 0.3392
H38 H 0.1341 0.2064 0.3233
H39 H 0.0845 0.2529 0.2761
C44 C 0.4094(8) 0.3420(8) 0.6356(5)
H40 H 0.4780 0.3247 0.6369
C45 C 0.3387(9) 0.2828(8) 0.6661(5)
H41 H 0.3813 0.2640 0.6967
H42 H 0.3078 0.2433 0.6386
H43 H 0.2843 0.3054 0.6815
C46 C 0.4309(10) 0.4199(9) 0.6616(5)
H44 H 0.3795 0.4280 0.6865
H45 H 0.4273 0.4530 0.6316
H46 H 0.4994 0.4281 0.6832
Cu1A Cu -0.48392(8) -0.36223(6) 0.54554(5)
Cu2A Cu -0.36526(8) -0.19817(6) 0.52451(5)
Cu3A Cu -0.12365(7) -0.36267(5) 0.48934(5)
P1A P -0.35678(17) -0.33580(14) 0.43900(10)
P2A P -0.25529(17) -0.32199(12) 0.59516(10)
O1A O -0.3374(5) -0.2547(3) 0.4591(3)
O2A O -0.4426(4) -0.3788(3) 0.4698(3)
O3A O -0.2579(4) -0.3720(3) 0.4433(3)
O4A O -0.1674(4) -0.3440(3) 0.5637(2)
O5A O -0.2868(4) -0.2476(3) 0.5823(3)
O6A O -0.3511(4) -0.3812(3) 0.5864(3)
O29A O -0.5852(5) -0.4704(3) 0.5314(4)
N1A N -0.6066(5) -0.3099(4) 0.5162(3)
N2A N -0.5384(5) -0.3377(4) 0.6195(3)
N3A N -0.4752(5) -0.1499(4) 0.4745(3)
N4A N -0.4372(5) -0.1507(4) 0.5856(3)
N5A N -0.0575(5) -0.3985(4) 0.4214(3)
N6A N 0.0138(5) -0.3907(4) 0.5300(3)
N13A N -0.0641(5) -0.2452(4) 0.4813(3)
N14A N -0.2415(5) -0.1022(4) 0.5229(3)
C1A C -0.6389(7) -0.3034(4) 0.4597(4)
H1A H -0.6023 -0.3215 0.4316
C2A C -0.7262(7) -0.2697(5) 0.4444(5)
H2A H -0.7503 -0.2667 0.4059
C3A C -0.7773(6) -0.2407(5) 0.4859(4)
H3A H -0.8359 -0.2177 0.4755
C4A C -0.7427(7) -0.2453(5) 0.5427(5)
H4A H -0.7761 -0.2244 0.5710
C5A C -0.6561(6) -0.2820(4) 0.5575(4)
C6A C -0.6168(6) -0.2969(4) 0.6167(4)
C7A C -0.6584(7) -0.2741(5) 0.6644(4)
H5A H -0.7094 -0.2429 0.6616
C8A C -0.6227(6) -0.2987(5) 0.7166(4)
H6A H -0.6505 -0.2849 0.7495
C9A C -0.5456(7) -0.3436(5) 0.7197(4)
H7A H -0.5225 -0.3616 0.7544
C10A C -0.5038(7) -0.3615(5) 0.6720(4)
H8A H -0.4502 -0.3907 0.6747
C11A C -0.4893(7) -0.1547(5) 0.4176(4)
H9A H -0.4484 -0.1827 0.3980
C12A C -0.5632(7) -0.1191(5) 0.3866(4)
H10A H -0.5716 -0.1230 0.3467
C13A C -0.6228(7) -0.0787(5) 0.4154(5)
H11A H -0.6720 -0.0540 0.3953
C14A C -0.6104(7) -0.0740(5) 0.4752(5)
H12A H -0.6519 -0.0469 0.4952
C15A C -0.5361(6) -0.1101(4) 0.5043(4)
C16A C -0.5127(6) -0.1098(5) 0.5677(4)
C17A C -0.5636(7) -0.0729(5) 0.6053(4)
H13A H -0.6170 -0.0467 0.5916
C18A C -0.5350(8) -0.0747(5) 0.6639(5)
H14A H -0.5691 -0.0501 0.6899
C19A C -0.4545(7) -0.1141(5) 0.6831(4)
H15A H -0.4317 -0.1152 0.7220
C20A C -0.4097(6) -0.1516(5) 0.6419(4)
H16A H -0.3570 -0.1790 0.6544
C21A C -0.0959(7) -0.3989(4) 0.3660(4)
H17A H -0.1626 -0.3858 0.3574
C22A C -0.0444(6) -0.4172(4) 0.3216(4)
H18A H -0.0746 -0.4166 0.2837
C23A C 0.0559(7) -0.4371(5) 0.3349(4)
H19A H 0.0938 -0.4496 0.3056
C24A C 0.0979(7) -0.4381(5) 0.3906(4)
H20A H 0.1641 -0.4518 0.3998
C25A C 0.0399(6) -0.4181(4) 0.4337(4)
C26A C 0.0764(6) -0.4178(4) 0.4956(4)
C27A C 0.1674(6) -0.4436(5) 0.5192(4)
H21A H 0.2097 -0.4634 0.4949
C28A C 0.1956(6) -0.4407(5) 0.5765(4)
H22A H 0.2576 -0.4567 0.5917
C29A C 0.1292(6) -0.4128(5) 0.6125(4)
H23A H 0.1453 -0.4110 0.6522
C30A C 0.0390(6) -0.3880(5) 0.5874(4)
H24A H -0.0053 -0.3690 0.6108
C31A C -0.0485(7) -0.2159(5) 0.4313(4)
H25A H -0.0744 -0.2442 0.3975
C32A C 0.0038(7) -0.1457(5) 0.4269(4)
H26A H 0.0107 -0.1277 0.3912
C33A C 0.0460(6) -0.1029(5) 0.4779(4)
C34A C 0.0270(6) -0.1323(5) 0.5311(4)
H27A H 0.0499 -0.1054 0.5659
C35A C -0.0273(6) -0.2026(4) 0.5288(4)
H28A H -0.0389 -0.2216 0.5636
C36A C 0.1097(6) -0.0317(4) 0.4774(4)
C37A C 0.1589(6) 0.0087(4) 0.5272(4)
H29A H 0.1492 -0.0093 0.5626
C38A C -0.2207(6) -0.0738(5) 0.4743(4)
H30A H -0.2496 -0.0995 0.4397
C39A C -0.1940(6) -0.0646(4) 0.5709(4)
H31A H -0.2072 -0.0839 0.6053
C40A C 0.1287(6) 0.0011(5) 0.4258(4)
H32A H 0.0967 -0.0207 0.3904
C41A C -0.2037(7) -0.3117(5) 0.6705(4)
H33A H -0.2595 -0.2954 0.6906
C42A C -0.1817(8) -0.3848(6) 0.6948(4)
H34A H -0.1656 -0.3780 0.7357
H35A H -0.2425 -0.4207 0.6849
H36A H -0.1234 -0.4013 0.6788
C43A C -0.1122(7) -0.2531(6) 0.6842(4)
H37A H -0.0590 -0.2624 0.6608
H38A H -0.1341 -0.2064 0.6767
H39A H -0.0845 -0.2529 0.7239
C44A C -0.4094(8) -0.3420(8) 0.3644(5)
H40A H -0.4780 -0.3247 0.3631
C45A C -0.3387(9) -0.2828(8) 0.3339(5)
H41A H -0.3813 -0.2640 0.3033
H42A H -0.3078 -0.2433 0.3614
H43A H -0.2843 -0.3054 0.3185
C46A C -0.4309(10) -0.4199(9) 0.3384(5)
H44A H -0.3795 -0.4280 0.3135
H45A H -0.4273 -0.4530 0.3684
H46A H -0.4994 -0.4281 0.3168
Cu4 Cu 1.00504(8) 0.85667(5) 0.97983(5)
Cu5 Cu 0.87078(8) 0.70139(5) 1.01078(5)
Cu6 Cu 0.61933(7) 0.86139(5) 0.98180(5)
P3 P 0.79335(17) 0.80411(12) 0.90873(10)
P4 P 0.83325(17) 0.85354(12) 1.06686(10)
O7 O 0.8920(4) 0.8622(3) 0.9192(2)
O8 O 0.8103(4) 0.7360(3) 0.9398(2)
O9 O 0.6947(4) 0.8366(3) 0.9199(2)
O10 O 0.9279(4) 0.8885(3) 1.0401(3)
O11 O 0.7325(4) 0.8831(3) 1.0450(2)
O12 O 0.8228(4) 0.7695(3) 1.0628(3)
O30 O 1.1048(4) 0.9659(3) 0.9864(3)
N7 N 1.0874(5) 0.8121(4) 0.9243(3)
N8 N 1.1149(5) 0.8173(4) 1.0353(3)
N9 N 0.9601(5) 0.6424(4) 0.9665(3)
N10 N 0.9663(5) 0.6674(4) 1.0761(3)
N11 N 0.5212(5) 0.8991(4) 1.0325(3)
N12 N 0.4991(5) 0.8817(4) 0.9216(3)
N15 N 0.7453(5) 0.6059(4) 1.0105(3)
N16 N 0.5543(5) 0.7445(4) 0.9904(3)
C47 C 1.0687(7) 0.8108(5) 0.8667(4)
H47 H 1.0180 0.8379 0.8509
C48 C 1.1200(7) 0.7716(5) 0.8290(4)
H48 H 1.1034 0.7719 0.7895
C49 C 1.1968(7) 0.7324(5) 0.8529(5)
H49 H 1.2321 0.7049 0.8294
C50 C 1.2203(7) 0.7345(5) 0.9118(5)
H50 H 1.2737 0.7098 0.9280
C51 C 1.1644(6) 0.7735(5) 0.9473(4)
C52 C 1.1833(6) 0.7814(4) 1.0086(4)
C53 C 1.2641(7) 0.7524(5) 1.0410(4)
H51 H 1.3109 0.7277 1.0231
C54 C 1.2733(7) 0.7614(5) 1.1016(4)
H52 H 1.3252 0.7416 1.1242
C55 C 1.2041(7) 0.7999(5) 1.1268(5)
H53 H 1.2089 0.8073 1.1665
C56 C 1.1275(7) 0.8273(5) 1.0913(4)
H54 H 1.0822 0.8544 1.1082
C57 C 0.9512(6) 0.6296(4) 0.9095(4)
H55 H 0.9000 0.6504 0.8872
C58 C 1.0136(7) 0.5872(5) 0.8815(4)
H56 H 1.0055 0.5808 0.8417
C59 C 1.0877(7) 0.5549(5) 0.9144(4)
H57 H 1.1309 0.5262 0.8972
C60 C 1.0968(7) 0.5660(5) 0.9743(4)
H58 H 1.1451 0.5438 0.9974
C61 C 1.0329(7) 0.6107(5) 0.9988(4)
C62 C 1.0369(6) 0.6243(5) 1.0610(4)
C63 C 1.1039(7) 0.5969(5) 1.1023(4)
H59 H 1.1539 0.5686 1.0917
C64 C 1.0952(7) 0.6125(6) 1.1609(4)
H60 H 1.1374 0.5930 1.1894
C65 C 1.0238(7) 0.6566(5) 1.1750(4)
H61 H 1.0184 0.6688 1.2132
C66 C 0.9601(7) 0.6830(5) 1.1319(4)
H62 H 0.9110 0.7125 1.1418
C67 C 0.4944(6) 0.8718(5) 0.8649(4)
H63 H 0.5515 0.8556 0.8503
C68 C 0.4098(7) 0.8841(5) 0.8260(4)
H64 H 0.4087 0.8755 0.7867
C69 C 0.3263(6) 0.9101(5) 0.8496(4)
H65 H 0.2670 0.9183 0.8257
C70 C 0.3317(6) 0.9235(5) 0.9079(4)
H66 H 0.2777 0.9430 0.9234
C71 C 0.4175(6) 0.9080(5) 0.9432(4)
C72 C 0.4297(6) 0.9192(4) 1.0068(4)
C73 C 0.3576(6) 0.9468(4) 1.0369(4)
H67 H 0.2968 0.9605 1.0178
C74 C 0.3770(7) 0.9542(5) 1.0968(4)
H68 H 0.3303 0.9738 1.1183
C75 C 0.4676(7) 0.9316(5) 1.1233(4)
H69 H 0.4814 0.9338 1.1631
C76 C 0.5371(7) 0.9056(5) 1.0899(4)
H70 H 0.5985 0.8919 1.1082
C77 C 0.7072(6) 0.5677(5) 0.9619(4)
H71 H 0.7229 0.5865 0.9276
C78 C 0.6443(7) 0.5000(5) 0.9595(4)
H72 H 0.6189 0.4752 0.9242
C79 C 0.6196(6) 0.4698(4) 1.0095(4)
C80 C 0.6588(6) 0.5119(4) 1.0612(4)
H73 H 0.6442 0.4946 1.0961
C81 C 0.7189(6) 0.5792(5) 1.0598(4)
H74 H 0.7420 0.6070 1.0942
C82 C 0.5564(6) 0.3971(4) 1.0095(4)
C83 C 0.5136(6) 0.3558(5) 0.9600(4)
H75 H 0.5211 0.3750 0.9248
C84 C 0.5406(6) 0.7139(4) 1.0386(4)
H76 H 0.5683 0.7399 1.0732
C85 C 0.5165(6) 0.7052(4) 0.9413(4)
H77 H 0.5280 0.7252 0.9068
C86 C 0.5402(6) 0.3654(5) 1.0603(4)
H78 H 0.5668 0.3906 1.0953
C87 C 0.7766(6) 0.7771(5) 0.8326(4)
H79 H 0.8391 0.7555 0.8247
C88 C 0.6825(6) 0.7181(5) 0.8159(4)
H80 H 0.6190 0.7397 0.8162
H81 H 0.6840 0.6808 0.8428
H82 H 0.6853 0.6966 0.7782
C89 C 0.7700(7) 0.8414(5) 0.7967(4)
H83 H 0.7559 0.8245 0.7569
H84 H 0.8352 0.8735 0.8034
H85 H 0.7146 0.8676 0.8068
C90 C 0.8622(6) 0.8834(5) 1.1420(4)
H86 H 0.9264 0.8637 1.1562
C91 C 0.7774(7) 0.8515(6) 1.1777(4)
H87 H 0.8013 0.8631 1.2178
H88 H 0.7640 0.7993 1.1702
H89 H 0.7141 0.8724 1.1675
C92 C 0.8866(8) 0.9673(5) 1.1526(4)
H90 H 0.8244 0.9891 1.1417
H91 H 0.9401 0.9853 1.1302
H92 H 0.9106 0.9798 1.1926
Cu4A Cu -0.00504(8) 0.14333(5) 1.02017(5)
Cu5A Cu 0.12922(8) 0.29861(5) 0.98922(5)
Cu6A Cu 0.38067(7) 0.13861(5) 1.01820(5)
P3A P 0.20665(17) 0.19589(12) 1.09127(10)
P4A P 0.16675(17) 0.14646(12) 0.93314(10)
O7A O 0.1080(4) 0.1378(3) 1.0808(2)
O8A O 0.1897(4) 0.2640(3) 1.0602(2)
O9A O 0.3053(4) 0.1634(3) 1.0801(2)
O10A O 0.0721(4) 0.1115(3) 0.9599(3)
O11A O 0.2675(4) 0.1169(3) 0.9550(2)
O12A O 0.1772(4) 0.2305(3) 0.9372(3)
O30A O -0.1048(4) 0.0341(3) 1.0136(3)
N7A N -0.0874(5) 0.1879(4) 1.0757(3)
N8A N -0.1149(5) 0.1827(4) 0.9647(3)
N9A N 0.0399(5) 0.3576(4) 1.0335(3)
N10A N 0.0337(5) 0.3326(4) 0.9239(3)
N11A N 0.4788(5) 0.1009(4) 0.9675(3)
N12A N 0.5009(5) 0.1183(4) 1.0784(3)
N15A N 0.2547(5) 0.3941(4) 0.9895(3)
N16A N 0.4457(5) 0.2555(4) 1.0096(3)
C47A C -0.0687(7) 0.1892(5) 1.1333(4)
H47A H -0.0180 0.1621 1.1491
C48A C -0.1200(7) 0.2284(5) 1.1710(4)
H48A H -0.1034 0.2281 1.2105
C49A C -0.1968(7) 0.2676(5) 1.1471(5)
H49A H -0.2321 0.2951 1.1706
C50A C -0.2203(7) 0.2655(5) 1.0882(5)
H50A H -0.2737 0.2902 1.0720
C51A C -0.1644(6) 0.2265(5) 1.0527(4)
C52A C -0.1833(6) 0.2186(4) 0.9914(4)
C53A C -0.2641(7) 0.2476(5) 0.9590(4)
H51A H -0.3109 0.2723 0.9769
C54A C -0.2733(7) 0.2386(5) 0.8984(4)
H52A H -0.3252 0.2584 0.8758
C55A C -0.2041(7) 0.2001(5) 0.8732(5)
H53A H -0.2089 0.1927 0.8335
C56A C -0.1275(7) 0.1727(5) 0.9087(4)
H54A H -0.0822 0.1456 0.8918
C57A C 0.0488(6) 0.3704(4) 1.0905(4)
H55A H 0.1000 0.3496 1.1128
C58A C -0.0136(7) 0.4128(5) 1.1185(4)
H56A H -0.0055 0.4192 1.1583
C59A C -0.0877(7) 0.4451(5) 1.0856(4)
H57A H -0.1309 0.4738 1.1028
C60A C -0.0968(7) 0.4340(5) 1.0257(4)
H58A H -0.1451 0.4562 1.0026
C61A C -0.0329(7) 0.3893(5) 1.0012(4)
C62A C -0.0369(6) 0.3757(5) 0.9390(4)
C63A C -0.1039(7) 0.4031(5) 0.8977(4)
H59A H -0.1539 0.4314 0.9083
C64A C -0.0952(7) 0.3875(6) 0.8391(4)
H60A H -0.1374 0.4070 0.8106
C65A C -0.0238(7) 0.3434(5) 0.8250(4)
H61A H -0.0184 0.3312 0.7868
C66A C 0.0399(7) 0.3170(5) 0.8681(4)
H62A H 0.0890 0.2875 0.8582
C67A C 0.5056(6) 0.1282(5) 1.1351(4)
H63A H 0.4485 0.1444 1.1497
C68A C 0.5902(7) 0.1159(5) 1.1740(4)
H64A H 0.5913 0.1245 1.2133
C69A C 0.6737(6) 0.0899(5) 1.1504(4)
H65A H 0.7330 0.0817 1.1743
C70A C 0.6683(6) 0.0765(5) 1.0921(4)
H66A H 0.7223 0.0570 1.0766
C71A C 0.5825(6) 0.0920(5) 1.0568(4)
C72A C 0.5703(6) 0.0808(4) 0.9932(4)
C73A C 0.6424(6) 0.0532(4) 0.9631(4)
H67A H 0.7032 0.0395 0.9822
C74A C 0.6230(7) 0.0458(5) 0.9032(4)
H68A H 0.6697 0.0262 0.8817
C75A C 0.5324(7) 0.0684(5) 0.8767(4)
H69A H 0.5186 0.0662 0.8369
C76A C 0.4629(7) 0.0944(5) 0.9101(4)
H70A H 0.4015 0.1081 0.8918
C77A C 0.2928(6) 0.4323(5) 1.0381(4)
H71A H 0.2771 0.4135 1.0724
C78A C 0.3557(7) 0.5000(5) 1.0405(4)
H72A H 0.3811 0.5248 1.0758
C79A C 0.3804(6) 0.5302(4) 0.9905(4)
C80A C 0.3412(6) 0.4881(4) 0.9388(4)
H73A H 0.3558 0.5054 0.9039
C81A C 0.2811(6) 0.4208(5) 0.9402(4)
H74A H 0.2580 0.3930 0.9058
C82A C 0.4436(6) 0.6029(4) 0.9905(4)
C83A C 0.4864(6) 0.6442(5) 1.0400(4)
H75A H 0.4789 0.6250 1.0752
C84A C 0.4594(6) 0.2861(4) 0.9614(4)
H76A H 0.4317 0.2601 0.9268
C85A C 0.4835(6) 0.2948(4) 1.0587(4)
H77A H 0.4720 0.2748 1.0932
C86A C 0.4598(6) 0.6346(5) 0.9397(4)
H78A H 0.4332 0.6094 0.9047
C87A C 0.2234(6) 0.2229(5) 1.1674(4)
H79A H 0.1609 0.2445 1.1753
C88A C 0.3175(6) 0.2819(5) 1.1841(4)
H80A H 0.3810 0.2603 1.1838
H81A H 0.3160 0.3192 1.1572
H82A H 0.3147 0.3034 1.2218
C89A C 0.2300(7) 0.1586(5) 1.2033(4)
H83A H 0.2441 0.1755 1.2431
H84A H 0.1648 0.1265 1.1966
H85A H 0.2854 0.1324 1.1932
C90A C 0.1378(6) 0.1166(5) 0.8580(4)
H86A H 0.0736 0.1363 0.8438
C91A C 0.2226(7) 0.1485(6) 0.8223(4)
H87A H 0.1987 0.1369 0.7822
H88A H 0.2360 0.2007 0.8298
H89A H 0.2859 0.1276 0.8325
C92A C 0.1134(8) 0.0327(5) 0.8474(4)
H90A H 0.1756 0.0109 0.8583
H91A H 0.0599 0.0147 0.8698
H92A H 0.0894 0.0202 0.8074
Cl1 Cl 0.22927(18) 0.54327(13) 0.77886(10)
O13 O 0.1937(6) 0.4791(4) 0.8081(3)
O14 O 0.3107(5) 0.5886(3) 0.8168(3)
O15 O 0.2685(5) 0.5200(3) 0.7287(3)
O16 O 0.1437(5) 0.5835(4) 0.7648(3)
Cl2 Cl 0.66742(19) 0.48456(13) 0.79229(12)
O17 O 0.5969(7) 0.5326(4) 0.7731(5)
O18 O 0.6193(6) 0.4263(4) 0.8218(3)
O19 O 0.7543(5) 0.5241(4) 0.8295(3)
O20 O 0.7057(5) 0.4515(4) 0.7426(3)
Cl3 Cl 0.24406(18) 0.95466(13) 0.25448(10)
O21 O 0.1461(5) 0.9459(4) 0.2168(3)
O22 O 0.2637(6) 0.8843(4) 0.2719(4)
O23 O 0.3263(5) 0.9851(4) 0.2238(3)
O24 O 0.2360(6) 1.0018(4) 0.3034(3)
Cl4 Cl 0.8364(2) 0.08682(18) 0.30822(12)
O25 O 0.7462(11) 0.0504(12) 0.2766(8)
O26 O 0.8968(18) 0.1065(12) 0.2614(9)
O27 O 0.8978(7) 0.0378(5) 0.3354(3)
O28 O 0.8122(11) 0.1328(7) 0.3515(4)
O31 O 0.1503(4) 0.0004(3) 0.1021(3)
O32 O 0.1420(6) 0.7594(4) 0.3129(3)
O33 O 0.9800(5) 0.9145(4) 0.2934(3)
O34 O 0.2350(5) 0.3313(4) 0.7890(3)
O35 O 0.0737(5) 0.2398(4) 0.7153(3)
O36 O 0.4505(6) 0.3071(5) 0.8173(3)
O37 O 0.6747(7) 0.3046(5) 0.6995(4)
O38 O 0.3413(5) 0.5250(4) 0.4159(5)
O39 O 0.4468(9) 0.7957(5) 0.2372(5)
O40? O 0.7451(18) 0.0352(12) 0.2819(14)
O41? O 0.8946(19) 0.1280(12) 0.2722(9)
loop_
_geom_bond_atom_site_label_1
_geom_bond_atom_site_label_2
_geom_bond_site_symmetry_1
_geom_bond_site_symmetry_2
Cu1 O2 1_555 1_555
Cu2 O1 1_555 1_555
Cu3 O3 1_555 1_555
Cu4 O7 1_555 1_555
Cu5 O8 1_555 1_555
Cu6 O9 1_555 1_555
Cl1 O13 1_555 1_555
Cl2 O17 1_555 1_555
Cl3 O21 1_555 1_555
Cl4 O25 1_555 1_555
P1 O1 1_555 1_555
P2 O4 1_555 1_555
P3 O7 1_555 1_555
P4 O10 1_555 1_555
O2 P1 1_555 1_555
O3 P1 1_555 1_555
O4 Cu3 1_555 1_555
O5 Cu2 1_555 1_555
O6 Cu1 1_555 1_555
O8 P3 1_555 1_555
O9 P3 1_555 1_555
O10 Cu4 1_555 1_555
O11 Cu6 1_555 1_555
O12 Cu5 1_555 1_555
O14 Cl1 1_555 1_555
O15 Cl1 1_555 1_555
O16 Cl1 1_555 1_555
O18 Cl2 1_555 1_555
O19 Cl2 1_555 1_555
O20 Cl2 1_555 1_555
O22 Cl3 1_555 1_555
O23 Cl3 1_555 1_555
O24 Cl3 1_555 1_555
O26 Cl4 1_555 1_555
O27 Cl4 1_555 1_555
O28 Cl4 1_555 1_555
O29 Cu1 1_555 1_555
O30 Cu4 1_555 1_555
N1 Cu1 1_555 1_555
N2 Cu1 1_555 1_555
N3 Cu2 1_555 1_555
N4 Cu2 1_555 1_555
N5 Cu3 1_555 1_555
N6 Cu3 1_555 1_555
N7 Cu4 1_555 1_555
N8 Cu4 1_555 1_555
N9 Cu5 1_555 1_555
N10 Cu5 1_555 1_555
N11 Cu6 1_555 1_555
N12 Cu6 1_555 1_555
N13 Cu3 1_555 1_555
N14 Cu2 1_555 1_555
N15 Cu5 1_555 1_555
N16 Cu6 1_555 1_555
C1 N1 1_555 1_555
H1 C1 1_555 1_555
C2 C1 1_555 1_555
H2 C2 1_555 1_555
C3 C2 1_555 1_555
H3 C3 1_555 1_555
C4 C3 1_555 1_555
H4 C4 1_555 1_555
C5 N1 1_555 1_555
C6 N2 1_555 1_555
C7 C6 1_555 1_555
H5 C7 1_555 1_555
C8 C7 1_555 1_555
H6 C8 1_555 1_555
C9 C8 1_555 1_555
H7 C9 1_555 1_555
C10 N2 1_555 1_555
H8 C10 1_555 1_555
C11 N3 1_555 1_555
H9 C11 1_555 1_555
C12 C11 1_555 1_555
H10 C12 1_555 1_555
C13 C12 1_555 1_555
H11 C13 1_555 1_555
C14 C13 1_555 1_555
H12 C14 1_555 1_555
C15 N3 1_555 1_555
C16 N4 1_555 1_555
C17 C16 1_555 1_555
H13 C17 1_555 1_555
C18 C17 1_555 1_555
H14 C18 1_555 1_555
C19 C18 1_555 1_555
H15 C19 1_555 1_555
C20 N4 1_555 1_555
H16 C20 1_555 1_555
C21 N5 1_555 1_555
H17 C21 1_555 1_555
C22 C21 1_555 1_555
H18 C22 1_555 1_555
C23 C22 1_555 1_555
H19 C23 1_555 1_555
C24 C23 1_555 1_555
H20 C24 1_555 1_555
C25 N5 1_555 1_555
C26 N6 1_555 1_555
C27 C26 1_555 1_555
H21 C27 1_555 1_555
C28 C27 1_555 1_555
H22 C28 1_555 1_555
C29 C28 1_555 1_555
H23 C29 1_555 1_555
C30 N6 1_555 1_555
H24 C30 1_555 1_555
C31 N13 1_555 1_555
H25 C31 1_555 1_555
C32 C31 1_555 1_555
H26 C32 1_555 1_555
C33 C32 1_555 1_555
C34 C33 1_555 1_555
H27 C34 1_555 1_555
C35 N13 1_555 1_555
H28 C35 1_555 1_555
C36 C33 1_555 1_555
C37 C36 1_555 1_555
H29 C37 1_555 1_555
C38 N14 1_555 1_555
H30 C38 1_555 1_555
C39 N14 1_555 1_555
H31 C39 1_555 1_555
C40 C36 1_555 1_555
H32 C40 1_555 1_555
C41 P2 1_555 1_555
H33 C41 1_555 1_555
C42 C41 1_555 1_555
H34 C42 1_555 1_555
H35 C42 1_555 1_555
H36 C42 1_555 1_555
C43 C41 1_555 1_555
H37 C43 1_555 1_555
H38 C43 1_555 1_555
H39 C43 1_555 1_555
C44 P1 1_555 1_555
H40 C44 1_555 1_555
C45 C44 1_555 1_555
H41 C45 1_555 1_555
H42 C45 1_555 1_555
H43 C45 1_555 1_555
C46 C44 1_555 1_555
H44 C46 1_555 1_555
H45 C46 1_555 1_555
H46 C46 1_555 1_555
C47 N7 1_555 1_555
H47 C47 1_555 1_555
C48 C47 1_555 1_555
H48 C48 1_555 1_555
C49 C48 1_555 1_555
H49 C49 1_555 1_555
C50 C49 1_555 1_555
H50 C50 1_555 1_555
C51 N7 1_555 1_555
C52 N8 1_555 1_555
C53 C52 1_555 1_555
H51 C53 1_555 1_555
C54 C53 1_555 1_555
H52 C54 1_555 1_555
C55 C54 1_555 1_555
H53 C55 1_555 1_555
C56 N8 1_555 1_555
H54 C56 1_555 1_555
C57 N9 1_555 1_555
H55 C57 1_555 1_555
C58 C57 1_555 1_555
H56 C58 1_555 1_555
C59 C58 1_555 1_555
H57 C59 1_555 1_555
C60 C59 1_555 1_555
H58 C60 1_555 1_555
C61 N9 1_555 1_555
C62 N10 1_555 1_555
C63 C62 1_555 1_555
H59 C63 1_555 1_555
C64 C63 1_555 1_555
H60 C64 1_555 1_555
C65 C64 1_555 1_555
H61 C65 1_555 1_555
C66 N10 1_555 1_555
H62 C66 1_555 1_555
C67 N12 1_555 1_555
H63 C67 1_555 1_555
C68 C67 1_555 1_555
H64 C68 1_555 1_555
C69 C68 1_555 1_555
H65 C69 1_555 1_555
C70 C69 1_555 1_555
H66 C70 1_555 1_555
C71 N12 1_555 1_555
C72 N11 1_555 1_555
C73 C72 1_555 1_555
H67 C73 1_555 1_555
C74 C73 1_555 1_555
H68 C74 1_555 1_555
C75 C74 1_555 1_555
H69 C75 1_555 1_555
C76 N11 1_555 1_555
H70 C76 1_555 1_555
C77 N15 1_555 1_555
H71 C77 1_555 1_555
C78 C77 1_555 1_555
H72 C78 1_555 1_555
C79 C78 1_555 1_555
C80 C79 1_555 1_555
H73 C80 1_555 1_555
C81 N15 1_555 1_555
H74 C81 1_555 1_555
C82 C79 1_555 1_555
C83 C82 1_555 1_555
H75 C83 1_555 1_555
C84 N16 1_555 1_555
H76 C84 1_555 1_555
C85 N16 1_555 1_555
H77 C85 1_555 1_555
C86 C82 1_555 1_555
H78 C86 1_555 1_555
C87 P3 1_555 1_555
H79 C87 1_555 1_555
C88 C87 1_555 1_555
H80 C88 1_555 1_555
H81 C88 1_555 1_555
H82 C88 1_555 1_555
C89 C87 1_555 1_555
H83 C89 1_555 1_555
H84 C89 1_555 1_555
H85 C89 1_555 1_555
C90 P4 1_555 1_555
H86 C90 1_555 1_555
C91 C90 1_555 1_555
H87 C91 1_555 1_555
H88 C91 1_555 1_555
H89 C91 1_555 1_555
C92 C90 1_555 1_555
H90 C92 1_555 1_555
H91 C92 1_555 1_555
H92 C92 1_555 1_555
Cu1A O2A 1_555 1_555
Cu2A O1A 1_555 1_555
Cu3A O3A 1_555 1_555
Cu4A O7A 1_555 1_555
Cu5A O8A 1_555 1_555
Cu6A O9A 1_555 1_555
P1A O1A 1_555 1_555
P2A O4A 1_555 1_555
P3A O7A 1_555 1_555
P4A O10A 1_555 1_555
O2A P1A 1_555 1_555
O3A P1A 1_555 1_555
O4A Cu3A 1_555 1_555
O5A Cu2A 1_555 1_555
O6A Cu1A 1_555 1_555
O8A P3A 1_555 1_555
O9A P3A 1_555 1_555
O10A Cu4A 1_555 1_555
O11A Cu6A 1_555 1_555
O12A Cu5A 1_555 1_555
O29A Cu1A 1_555 1_555
O30A Cu4A 1_555 1_555
N1A Cu1A 1_555 1_555
N2A Cu1A 1_555 1_555
N3A Cu2A 1_555 1_555
N4A Cu2A 1_555 1_555
N5A Cu3A 1_555 1_555
N6A Cu3A 1_555 1_555
N7A Cu4A 1_555 1_555
N8A Cu4A 1_555 1_555
N9A Cu5A 1_555 1_555
N10A Cu5A 1_555 1_555
N11A Cu6A 1_555 1_555
N12A Cu6A 1_555 1_555
N13A Cu3A 1_555 1_555
N14A Cu2A 1_555 1_555
N15A Cu5A 1_555 1_555
N16A Cu6A 1_555 1_555
C1A N1A 1_555 1_555
H1A C1A 1_555 1_555
C2A C1A 1_555 1_555
H2A C2A 1_555 1_555
C3A C2A 1_555 1_555
H3A C3A 1_555 1_555
C4A C3A 1_555 1_555
H4A C4A 1_555 1_555
C5A N1A 1_555 1_555
C6A N2A 1_555 1_555
C7A C6A 1_555 1_555
H5A C7A 1_555 1_555
C8A C7A 1_555 1_555
H6A C8A 1_555 1_555
C9A C8A 1_555 1_555
H7A C9A 1_555 1_555
C10A N2A 1_555 1_555
H8A C10A 1_555 1_555
C11A N3A 1_555 1_555
H9A C11A 1_555 1_555
C12A C11A 1_555 1_555
H10A C12A 1_555 1_555
C13A C12A 1_555 1_555
H11A C13A 1_555 1_555
C14A C13A 1_555 1_555
H12A C14A 1_555 1_555
C15A N3A 1_555 1_555
C16A N4A 1_555 1_555
C17A C16A 1_555 1_555
H13A C17A 1_555 1_555
C18A C17A 1_555 1_555
H14A C18A 1_555 1_555
C19A C18A 1_555 1_555
H15A C19A 1_555 1_555
C20A N4A 1_555 1_555
H16A C20A 1_555 1_555
C21A N5A 1_555 1_555
H17A C21A 1_555 1_555
C22A C21A 1_555 1_555
H18A C22A 1_555 1_555
C23A C22A 1_555 1_555
H19A C23A 1_555 1_555
C24A C23A 1_555 1_555
H20A C24A 1_555 1_555
C25A N5A 1_555 1_555
C26A N6A 1_555 1_555
C27A C26A 1_555 1_555
H21A C27A 1_555 1_555
C28A C27A 1_555 1_555
H22A C28A 1_555 1_555
C29A C28A 1_555 1_555
H23A C29A 1_555 1_555
C30A N6A 1_555 1_555
H24A C30A 1_555 1_555
C31A N13A 1_555 1_555
H25A C31A 1_555 1_555
C32A C31A 1_555 1_555
H26A C32A 1_555 1_555
C33A C32A 1_555 1_555
C34A C33A 1_555 1_555
H27A C34A 1_555 1_555
C35A N13A 1_555 1_555
H28A C35A 1_555 1_555
C36A C33A 1_555 1_555
C37A C38 1_555 1_555
H29A C37A 1_555 1_555
C38A C37 1_555 1_555
H30A C38A 1_555 1_555
C39A C40 1_555 1_555
H31A C39A 1_555 1_555
C40A C39 1_555 1_555
H32A C40A 1_555 1_555
C41A P2A 1_555 1_555
H33A C41A 1_555 1_555
C42A C41A 1_555 1_555
H34A C42A 1_555 1_555
H35A C42A 1_555 1_555
H36A C42A 1_555 1_555
C43A C41A 1_555 1_555
H37A C43A 1_555 1_555
H38A C43A 1_555 1_555
H39A C43A 1_555 1_555
C44A P1A 1_555 1_555
H40A C44A 1_555 1_555
C45A C44A 1_555 1_555
H41A C45A 1_555 1_555
H42A C45A 1_555 1_555
H43A C45A 1_555 1_555
C46A C44A 1_555 1_555
H44A C46A 1_555 1_555
H45A C46A 1_555 1_555
H46A C46A 1_555 1_555
C47A N7A 1_555 1_555
H47A C47A 1_555 1_555
C48A C47A 1_555 1_555
H48A C48A 1_555 1_555
C49A C48A 1_555 1_555
H49A C49A 1_555 1_555
C50A C49A 1_555 1_555
H50A C50A 1_555 1_555
C51A N7A 1_555 1_555
C52A N8A 1_555 1_555
C53A C52A 1_555 1_555
H51A C53A 1_555 1_555
C54A C53A 1_555 1_555
H52A C54A 1_555 1_555
C55A C54A 1_555 1_555
H53A C55A 1_555 1_555
C56A N8A 1_555 1_555
H54A C56A 1_555 1_555
C57A N9A 1_555 1_555
H55A C57A 1_555 1_555
C58A C57A 1_555 1_555
H56A C58A 1_555 1_555
C59A C58A 1_555 1_555
H57A C59A 1_555 1_555
C60A C59A 1_555 1_555
H58A C60A 1_555 1_555
C61A N9A 1_555 1_555
C62A N10A 1_555 1_555
C63A C62A 1_555 1_555
H59A C63A 1_555 1_555
C64A C63A 1_555 1_555
H60A C64A 1_555 1_555
C65A C64A 1_555 1_555
H61A C65A 1_555 1_555
C66A N10A 1_555 1_555
H62A C66A 1_555 1_555
C67A N12A 1_555 1_555
H63A C67A 1_555 1_555
C68A C67A 1_555 1_555
H64A C68A 1_555 1_555
C69A C68A 1_555 1_555
H65A C69A 1_555 1_555
C70A C69A 1_555 1_555
H66A C70A 1_555 1_555
C71A N12A 1_555 1_555
C72A N11A 1_555 1_555
C73A C72A 1_555 1_555
H67A C73A 1_555 1_555
C74A C73A 1_555 1_555
H68A C74A 1_555 1_555
C75A C74A 1_555 1_555
H69A C75A 1_555 1_555
C76A N11A 1_555 1_555
H70A C76A 1_555 1_555
C77A N15A 1_555 1_555
H71A C77A 1_555 1_555
C78A C77A 1_555 1_555
H72A C78A 1_555 1_555
C79A C78A 1_555 1_555
C80A C79A 1_555 1_555
H73A C80A 1_555 1_555
C81A N15A 1_555 1_555
H74A C81A 1_555 1_555
C82A C79A 1_555 1_555
C83A C84 1_555 1_555
H75A C83A 1_555 1_555
C84A C83 1_555 1_555
H76A C84A 1_555 1_555
C85A C86 1_555 1_555
H77A C85A 1_555 1_555
C86A C85 1_555 1_555
H78A C86A 1_555 1_555
C87A P3A 1_555 1_555
H79A C87A 1_555 1_555
C88A C87A 1_555 1_555
H80A C88A 1_555 1_555
H81A C88A 1_555 1_555
H82A C88A 1_555 1_555
C89A C87A 1_555 1_555
H83A C89A 1_555 1_555
H84A C89A 1_555 1_555
H85A C89A 1_555 1_555
C90A P4A 1_555 1_555
H86A C90A 1_555 1_555
C91A C90A 1_555 1_555
H87A C91A 1_555 1_555
H88A C91A 1_555 1_555
H89A C91A 1_555 1_555
C92A C90A 1_555 1_555
H90A C92A 1_555 1_555
H91A C92A 1_555 1_555
H92A C92A 1_555 1_555
P2 O5 1_555 1_555
P2 O6 1_555 1_555
P4 O11 1_555 1_555
P4 O12 1_555 1_555
C4 C5 1_555 1_555
C5 C6 1_555 1_555
C9 C10 1_555 1_555
C14 C15 1_555 1_555
C15 C16 1_555 1_555
C19 C20 1_555 1_555
C24 C25 1_555 1_555
C25 C26 1_555 1_555
C29 C30 1_555 1_555
C34 C35 1_555 1_555
C50 C51 1_555 1_555
C51 C52 1_555 1_555
C55 C56 1_555 1_555
C60 C61 1_555 1_555
C61 C62 1_555 1_555
C65 C66 1_555 1_555
C70 C71 1_555 1_555
C71 C72 1_555 1_555
C75 C76 1_555 1_555
C80 C81 1_555 1_555
P2A O5A 1_555 1_555
P2A O6A 1_555 1_555
P4A O11A 1_555 1_555
P4A O12A 1_555 1_555
N14A C38A 1_555 1_555
N14A C39A 1_555 1_555
N16A C84A 1_555 1_555
N16A C85A 1_555 1_555
C4A C5A 1_555 1_555
C5A C6A 1_555 1_555
C9A C10A 1_555 1_555
C14A C15A 1_555 1_555
C15A C16A 1_555 1_555
C19A C20A 1_555 1_555
C24A C25A 1_555 1_555
C25A C26A 1_555 1_555
C29A C30A 1_555 1_555
C34A C35A 1_555 1_555
C36A C37A 1_555 1_555
C36A C40A 1_555 1_555
C50A C51A 1_555 1_555
C51A C52A 1_555 1_555
C55A C56A 1_555 1_555
C60A C61A 1_555 1_555
C61A C62A 1_555 1_555
C65A C66A 1_555 1_555
C70A C71A 1_555 1_555
C71A C72A 1_555 1_555
C75A C76A 1_555 1_555
C80A C81A 1_555 1_555
C82A C83A 1_555 1_555
C82A C86A 1_555 1_555

#END
