
#######################################################################
#
#                 Cambridge Crystallographic Data Centre
#                                CCDC 
#
#######################################################################
#
# If this CIF has been generated from an entry in the Cambridge 
# Structural Database, then it will include bibliographic, chemical, 
# crystal, experimental, refinement or atomic coordinate data resulting 
# from the CCDC's data processing and validation procedures.
#
#######################################################################

data_HUHBER
_chemical_formula_moiety         
'C44 H36 Ag2 N8 2+,C22 H18 N4,2(C1 F3 O3 S1 1-),0.5(C2 H6 O1),2(H2 O1)'
_chemical_name_systematic        
'bis((\m~2~-1,2-bis(benzimidazol-1-ylmethyl)benzene)-silver(i)) 1,2-bis(benzimidazol-1-ylmethyl)benzene bis(trifluoromethanesulfonate) ethanol solvate dihydrate'
_symmetry_cell_setting           triclinic
_symmetry_space_group_name_H-M   'P -1'
_symmetry_Int_Tables_number      2
_space_group_name_Hall           '-P 1'
loop_
_symmetry_equiv_pos_site_id
_symmetry_equiv_pos_as_xyz
1 x,y,z
2 -x,-y,-z
_cell_length_a                   13.818(2)
_cell_length_b                   17.594(3)
_cell_length_c                   18.139(3)
_cell_angle_alpha                102.552(4)
_cell_angle_beta                 109.424(4)
_cell_angle_gamma                111.242(3)
_cell_volume                     3578.61
_exptl_crystal_colour            colorless
_exptl_crystal_description       block
_chemical_melting_point          194-195deg.C
_cell_formula_units_Z            2
loop_
_atom_site_label
_atom_site_type_symbol
_atom_site_fract_x
_atom_site_fract_y
_atom_site_fract_z
Ag1 Ag 0.75784(3) 0.55868(2) 0.74708(3)
Ag2 Ag 0.95643(3) 0.54498(3) 0.90542(3)
N1 N 0.6492(3) 0.4431(2) 0.7575(3)
N2 N 0.5323(4) 0.3074(3) 0.7368(3)
N3 N 0.7147(3) 0.3083(3) 0.9004(3)
N4 N 0.8485(3) 0.4404(3) 0.9262(3)
N9 N 0.8691(3) 0.6787(3) 0.7447(3)
N10 N 1.0060(3) 0.7731(3) 0.7251(3)
N11 N 1.1853(3) 0.7781(2) 0.8963(3)
N12 N 1.0629(3) 0.6712(3) 0.9151(3)
C1 C 0.5898(4) 0.4468(3) 0.8044(3)
C2 C 0.5962(5) 0.5194(4) 0.8584(4)
H1 H 0.6473 0.5767 0.8687
C3 C 0.5246(7) 0.5033(6) 0.8955(5)
H2 H 0.5262 0.5508 0.9315
C4 C 0.4502(7) 0.4193(7) 0.8817(5)
H3 H 0.4041 0.4120 0.9097
C5 C 0.4403(5) 0.3463(5) 0.8291(5)
H4 H 0.3882 0.2894 0.8191
C6 C 0.5143(5) 0.3628(4) 0.7909(4)
C7 C 0.6130(4) 0.3593(3) 0.7182(3)
H5 H 0.6394 0.3378 0.6818
C8 C 0.4746(5) 0.2080(3) 0.7032(5)
H6 H 0.4379 0.1881 0.7374
H7 H 0.4138 0.1850 0.6458
C9 C 0.5545(5) 0.1708(3) 0.7026(4)
C10 C 0.5510(7) 0.1339(4) 0.6280(5)
H8 H 0.4996 0.1324 0.5784
C11 C 0.6267(11) 0.0973(5) 0.6258(7)
H9 H 0.6265 0.0717 0.5751
C12 C 0.6990(9) 0.1006(5) 0.6994(9)
H10 H 0.7489 0.0768 0.6987
C13 C 0.7013(6) 0.1369(4) 0.7732(6)
H11 H 0.7519 0.1378 0.8228
C14 C 0.6304(5) 0.1718(3) 0.7754(4)
C15 C 0.6380(5) 0.2114(4) 0.8600(4)
H12 H 0.5606 0.1988 0.8535
H13 H 0.6675 0.1841 0.8967
C16 C 0.7932(4) 0.3551(3) 0.8773(3)
H14 H 0.8066 0.3308 0.8332
C17 C 0.7193(4) 0.3666(4) 0.9680(3)
C18 C 0.6612(5) 0.3553(5) 1.0179(4)
H15 H 0.6046 0.2998 1.0070
C19 C 0.6891(6) 0.4264(5) 1.0816(5)
H16 H 0.6502 0.4205 1.1148
C20 C 0.7752(6) 0.5088(5) 1.0992(4)
H17 H 0.7940 0.5572 1.1447
C21 C 0.8343(5) 0.5209(4) 1.0500(4)
H18 H 0.8921 0.5765 1.0622
C22 C 0.8050(4) 0.4492(3) 0.9840(3)
C23 C 0.8694(4) 0.7602(3) 0.7661(3)
C24 C 0.8025(5) 0.7851(4) 0.7962(4)
H19 H 0.7469 0.7463 0.8067
C25 C 0.8215(5) 0.8710(4) 0.8104(5)
H20 H 0.7768 0.8897 0.8301
C26 C 0.9039(6) 0.9292(4) 0.7963(5)
H21 H 0.9130 0.9861 0.8063
C27 C 0.9731(5) 0.9057(4) 0.7679(4)
H22 H 1.0305 0.9455 0.7596
C28 C 0.9526(4) 0.8191(3) 0.7522(3)
C29 C 0.9511(4) 0.6899(3) 0.7209(3)
H23 H 0.9696 0.6456 0.7031
C30 C 1.1041(5) 0.8103(4) 0.7045(4)
H24 H 1.1570 0.8709 0.7442
H25 H 1.0740 0.8106 0.6481
C31 C 1.1697(4) 0.7582(3) 0.7084(4)
C32 C 1.1527(6) 0.7032(4) 0.6329(4)
H26 H 1.1020 0.6989 0.5813
C33 C 1.2144(8) 0.6534(5) 0.6359(6)
H27 H 1.1997 0.6137 0.5853
C34 C 1.2918(7) 0.6617(5) 0.7079(7)
H28 H 1.3335 0.6304 0.7080
C35 C 1.3094(5) 0.7176(4) 0.7828(5)
H29 H 1.3628 0.7231 0.8337
C36 C 1.2490(4) 0.7665(3) 0.7842(4)
C37 C 1.2706(4) 0.8244(3) 0.8686(4)
H30 H 1.3485 0.8425 0.9106
H31 H 1.2660 0.8771 0.8645
C38 C 1.1354(4) 0.6923(3) 0.8816(4)
H32 H 1.1501 0.6517 0.8511
C39 C 1.1410(4) 0.8164(3) 0.9422(3)
C40 C 1.1585(5) 0.9030(3) 0.9718(4)
H33 H 1.2089 0.9483 0.9634
C41 C 1.0972(6) 0.9166(4) 1.0138(5)
H34 H 1.1062 0.9731 1.0348
C42 C 1.0219(6) 0.8494(5) 1.0262(5)
H35 H 0.9814 0.8620 1.0547
C43 C 1.0053(5) 0.7647(4) 0.9977(4)
H36 H 0.9554 0.7201 1.0072
C44 C 1.0658(4) 0.7484(3) 0.9543(3)
N5 N 0.5562(4) 0.5741(3) 0.6668(3)
N6 N 0.4787(4) 0.5882(3) 0.5445(3)
N7 N 0.4053(4) 0.8189(3) 0.6036(3)
N8 N 0.3156(5) 0.9013(4) 0.6029(4)
C45 C 0.4349(5) 0.5197(3) 0.6269(4)
C46 C 0.3638(6) 0.4640(4) 0.6524(4)
H37 H 0.3943 0.4579 0.7035
C47 C 0.2482(6) 0.4189(4) 0.5992(5)
H38 H 0.1987 0.3819 0.6152
C48 C 0.2009(6) 0.4255(5) 0.5228(5)
H39 H 0.1213 0.3914 0.4878
C49 C 0.2678(5) 0.4807(5) 0.4968(4)
H40 H 0.2352 0.4866 0.4459
C50 C 0.3879(4) 0.5283(3) 0.5504(3)
C51 C 0.5743(5) 0.6109(3) 0.6146(4)
H41 H 0.6484 0.6502 0.6250
C52 C 0.4729(5) 0.6201(3) 0.4771(3)
H42 H 0.3942 0.6099 0.4457
H43 H 0.4915 0.5874 0.4384
C53 C 0.5560(5) 0.7170(4) 0.5108(3)
C54 C 0.6562(6) 0.7459(5) 0.4993(4)
H44 H 0.6695 0.7043 0.4688
C55 C 0.7348(6) 0.8324(5) 0.5313(5)
H45 H 0.8003 0.8499 0.5220
C56 C 0.7169(5) 0.8937(5) 0.5772(5)
H46 H 0.7711 0.9532 0.6002
C57 C 0.6170(5) 0.8673(4) 0.5900(4)
H47 H 0.6048 0.9093 0.6211
C58 C 0.5377(4) 0.7799(3) 0.5566(3)
C59 C 0.4312(5) 0.7500(3) 0.5709(4)
H48 H 0.3647 0.7067 0.5176
H49 H 0.4408 0.7204 0.6101
C60 C 0.3289(5) 0.8403(4) 0.5580(4)
H50 H 0.2886 0.8141 0.4993
C61 C 0.4470(5) 0.8710(3) 0.6869(4)
C62 C 0.5252(5) 0.8764(4) 0.7615(5)
H51 H 0.5632 0.8423 0.7621
C63 C 0.5438(6) 0.9358(5) 0.8354(5)
H52 H 0.5966 0.9422 0.8872
C64 C 0.4876(7) 0.9843(4) 0.8342(5)
H53 H 0.5022 1.0227 0.8854
C65 C 0.4103(7) 0.9792(4) 0.7609(6)
H54 H 0.3716 1.0129 0.7613
C66 C 0.3913(5) 0.9218(3) 0.6855(4)
S1 S 0.35342(15) 1.12136(10) 0.91986(12)
O1 O 0.4624(5) 1.1426(4) 0.9825(4)
O2 O 0.2721(5) 1.0332(3) 0.8877(4)
O3 O 0.3658(5) 1.1574(3) 0.8600(4)
F1 F 0.2052(8) 1.1699(7) 0.9246(7)
F2 F 0.3744(8) 1.2620(5) 1.0147(6)
F3 F 0.2787(7) 1.1519(5) 1.0310(5)
C67 C 0.3038(8) 1.1806(7) 0.9741(8)
S2 S 0.88605(12) 0.41598(10) 0.68963(10)
O4 O 0.7774(7) 0.3406(6) 0.6235(5)
O5 O 0.9237(7) 0.4133(6) 0.7694(5)
O6 O 0.8734(9) 0.4924(6) 0.6853(7)
F4 F 0.9535(7) 0.3351(6) 0.5965(6)
F5 F 1.0879(7) 0.4385(7) 0.6968(5)
F6 F 0.9770(7) 0.4596(6) 0.5921(5)
C68 C 0.9860(7) 0.4169(6) 0.6480(5)
O10 O 0.1581(10) 1.0636(7) 0.6930(7)
O11 O -0.1717(10) 1.0232(8) 0.4423(8)
C69 C -0.0302(15) 1.0995(12) 0.6359(11)
H55 H -0.0513 1.0956 0.5786
H56 H -0.0972 1.0606 0.6391
H57 H 0.0297 1.0825 0.6533
C70 C 0.008(3) 1.181(2) 0.686(2)
H58 H 0.0774 1.2176 0.6828
H59 H -0.0500 1.1985 0.6616
O12 O 0.0314(19) 1.1986(15) 0.7589(16)
H60 H 0.0463 1.2500 0.7807
O7? O 0.7812(8) 0.3926(8) 0.6236(6)
O8? O 0.8983(9) 0.3609(7) 0.7361(7)
O9? O 0.9437(10) 0.5066(6) 0.7441(7)
F7? F 0.9542(10) 0.3958(10) 0.5750(8)
F8? F 1.0305(11) 0.3623(9) 0.6714(8)
F9? F 1.0878(8) 0.4902(7) 0.7016(6)
loop_
_geom_bond_atom_site_label_1
_geom_bond_atom_site_label_2
_geom_bond_site_symmetry_1
_geom_bond_site_symmetry_2
Ag1 N1 1_555 1_555
Ag2 N4 1_555 1_555
N1 C1 1_555 1_555
N2 C6 1_555 1_555
N3 C15 1_555 1_555
N4 C16 1_555 1_555
N5 C45 1_555 1_555
N6 C50 1_555 1_555
N7 C59 1_555 1_555
N8 C60 1_555 1_555
N9 Ag1 1_555 1_555
N10 C28 1_555 1_555
N11 C37 1_555 1_555
N12 Ag2 1_555 1_555
C1 C2 1_555 1_555
C2 H1 1_555 1_555
C3 C2 1_555 1_555
H2 C3 1_555 1_555
C4 C3 1_555 1_555
H3 C4 1_555 1_555
C5 C4 1_555 1_555
H4 C5 1_555 1_555
C6 C1 1_555 1_555
C7 N1 1_555 1_555
H5 C7 1_555 1_555
C8 N2 1_555 1_555
H6 C8 1_555 1_555
H7 C8 1_555 1_555
C9 C8 1_555 1_555
C10 C9 1_555 1_555
H8 C10 1_555 1_555
C11 C10 1_555 1_555
H9 C11 1_555 1_555
C12 C11 1_555 1_555
H10 C12 1_555 1_555
C13 C12 1_555 1_555
H11 C13 1_555 1_555
C14 C9 1_555 1_555
C15 C14 1_555 1_555
H12 C15 1_555 1_555
H13 C15 1_555 1_555
C16 N3 1_555 1_555
H14 C16 1_555 1_555
C17 N3 1_555 1_555
C18 C17 1_555 1_555
H15 C18 1_555 1_555
C19 C18 1_555 1_555
H16 C19 1_555 1_555
C20 C19 1_555 1_555
H17 C20 1_555 1_555
C21 C20 1_555 1_555
H18 C21 1_555 1_555
C22 N4 1_555 1_555
C23 N9 1_555 1_555
C24 C23 1_555 1_555
H19 C24 1_555 1_555
C25 C24 1_555 1_555
H20 C25 1_555 1_555
C26 C25 1_555 1_555
H21 C26 1_555 1_555
C27 C26 1_555 1_555
H22 C27 1_555 1_555
C28 C23 1_555 1_555
C29 N9 1_555 1_555
H23 C29 1_555 1_555
C30 N10 1_555 1_555
H24 C30 1_555 1_555
H25 C30 1_555 1_555
C31 C30 1_555 1_555
C32 C31 1_555 1_555
H26 C32 1_555 1_555
C33 C32 1_555 1_555
H27 C33 1_555 1_555
C34 C33 1_555 1_555
H28 C34 1_555 1_555
C35 C34 1_555 1_555
H29 C35 1_555 1_555
C36 C31 1_555 1_555
C37 C36 1_555 1_555
H30 C37 1_555 1_555
H31 C37 1_555 1_555
C38 N11 1_555 1_555
H32 C38 1_555 1_555
C39 N11 1_555 1_555
C40 C39 1_555 1_555
H33 C40 1_555 1_555
C41 C40 1_555 1_555
H34 C41 1_555 1_555
C42 C41 1_555 1_555
H35 C42 1_555 1_555
C43 C42 1_555 1_555
H36 C43 1_555 1_555
C44 N12 1_555 1_555
C45 C46 1_555 1_555
C46 H37 1_555 1_555
C47 C46 1_555 1_555
H38 C47 1_555 1_555
C48 C47 1_555 1_555
H39 C48 1_555 1_555
C49 C48 1_555 1_555
H40 C49 1_555 1_555
C50 C45 1_555 1_555
C51 N5 1_555 1_555
H41 C51 1_555 1_555
C52 N6 1_555 1_555
H42 C52 1_555 1_555
H43 C52 1_555 1_555
C53 C52 1_555 1_555
C54 C53 1_555 1_555
H44 C54 1_555 1_555
C55 C54 1_555 1_555
H45 C55 1_555 1_555
C56 C55 1_555 1_555
H46 C56 1_555 1_555
C57 C56 1_555 1_555
H47 C57 1_555 1_555
C58 C53 1_555 1_555
C59 C58 1_555 1_555
H48 C59 1_555 1_555
H49 C59 1_555 1_555
C60 N7 1_555 1_555
H50 C60 1_555 1_555
C61 N7 1_555 1_555
C62 C61 1_555 1_555
H51 C62 1_555 1_555
C63 C62 1_555 1_555
H52 C63 1_555 1_555
C64 C63 1_555 1_555
H53 C64 1_555 1_555
C65 C64 1_555 1_555
H54 C65 1_555 1_555
C66 N8 1_555 1_555
S1 O1 1_555 1_555
O2 S1 1_555 1_555
O3 S1 1_555 1_555
F1 C67 1_555 1_555
F2 C67 1_555 1_555
F3 C67 1_555 1_555
C67 S1 1_555 1_555
S2 O4 1_555 1_555
O5 S2 1_555 1_555
O6 S2 1_555 1_555
F4 C68 1_555 1_555
F5 C68 1_555 1_555
F6 C68 1_555 1_555
C68 S2 1_555 1_555
C69 H55 1_555 1_555
H56 C69 1_555 1_555
H57 C69 1_555 1_555
C70 C69 1_555 1_555
H58 C70 1_555 1_555
H59 C70 1_555 1_555
O12 C70 1_555 1_555
H60 O12 1_555 1_555
N2 C7 1_555 1_555
N6 C51 1_555 1_555
N10 C29 1_555 1_555
N12 C38 1_555 1_555
C5 C6 1_555 1_555
C13 C14 1_555 1_555
C17 C22 1_555 1_555
C21 C22 1_555 1_555
C27 C28 1_555 1_555
C35 C36 1_555 1_555
C39 C44 1_555 1_555
C43 C44 1_555 1_555
C49 C50 1_555 1_555
C57 C58 1_555 1_555
C61 C66 1_555 1_555
C65 C66 1_555 1_555

#END
