
#######################################################################
#
#                 Cambridge Crystallographic Data Centre
#                                CCDC 
#
#######################################################################
#
# If this CIF has been generated from an entry in the Cambridge 
# Structural Database, then it will include bibliographic, chemical, 
# crystal, experimental, refinement or atomic coordinate data resulting 
# from the CCDC's data processing and validation procedures.
#
#######################################################################

data_HUHBAN
_chemical_formula_moiety         'C48 H36 Ag2 F6 N8 O4'
_chemical_name_systematic        
bis((\m~2~-1,2-bis(benzimidazol-1-ylmethyl)benzene)-(trifluoroacetato)-silver(i))
_symmetry_cell_setting           monoclinic
_symmetry_space_group_name_H-M   'P 21/c'
_symmetry_Int_Tables_number      14
_space_group_name_Hall           '-P 2ybc'
loop_
_symmetry_equiv_pos_site_id
_symmetry_equiv_pos_as_xyz
1 x,y,z
2 x,1/2-y,1/2+z
3 -x,-y,-z
4 -x,1/2+y,1/2-z
_cell_length_a                   10.2183(4)
_cell_length_b                   20.1038(8)
_cell_length_c                   10.5033(4)
_cell_angle_alpha                90
_cell_angle_beta                 90.1470(10)
_cell_angle_gamma                90
_cell_volume                     2157.65
_exptl_crystal_colour            colorless
_exptl_crystal_description       Block
_chemical_melting_point          182-184deg.C
_cell_formula_units_Z            2
loop_
_atom_site_label
_atom_site_type_symbol
_atom_site_fract_x
_atom_site_fract_y
_atom_site_fract_z
Ag1 Ag 0.948121(17) 0.069344(9) 0.437010(16)
N1 N 0.81164(18) 0.10180(9) 0.57611(17)
N2 N 0.64349(19) 0.09863(9) 0.70976(18)
N3 N 1.02572(18) 0.02225(10) 0.27196(17)
N4 N 0.82629(17) 0.00271(10) 0.87524(17)
C1 C 0.7072(2) 0.06839(11) 0.6130(2)
H1 H 0.6803 0.0285 0.5765
C2 C 0.8172(2) 0.15799(10) 0.6533(2)
C3 C 0.9088(3) 0.20832(12) 0.6584(3)
H2 H 0.9791 0.2096 0.6024
C4 C 0.8915(3) 0.25698(14) 0.7506(3)
H3 H 0.9520 0.2914 0.7575
C5 C 0.7849(4) 0.25502(14) 0.8329(3)
H4 H 0.7763 0.2886 0.8932
C6 C 0.6922(3) 0.20595(13) 0.8292(2)
H5 H 0.6211 0.2055 0.8842
C7 C 0.7111(2) 0.15639(11) 0.7373(2)
C8 C 0.5216(3) 0.07610(12) 0.7704(3)
H6 H 0.4481 0.0896 0.7178
H7 H 0.5129 0.0981 0.8521
C9 C 0.5152(2) 0.00201(12) 0.7906(2)
C10 C 0.4196(3) -0.03279(15) 0.7240(3)
H8 H 0.3666 -0.0103 0.6661
C11 C 0.4022(3) -0.10006(17) 0.7423(3)
H9 H 0.3374 -0.1226 0.6974
C12 C 0.4804(3) -0.13383(15) 0.8267(3)
H10 H 0.4684 -0.1792 0.8397
C13 C 0.5767(3) -0.10020(13) 0.8922(3)
H11 H 0.6302 -0.1234 0.9485
C14 C 0.5955(2) -0.03230(12) 0.8757(2)
C15 C 0.7040(2) 0.00128(14) 0.9486(2)
H12 H 0.6781 0.0464 0.9690
H13 H 0.7187 -0.0222 1.0280
C16 C 1.1384(2) 0.03858(13) 0.2197(2)
H14 H 1.1884 0.0748 0.2457
C17 C 0.9247(2) 0.04960(12) 0.8874(2)
C18 C 0.9402(2) 0.10379(13) 0.9682(2)
H15 H 0.8805 0.1133 1.0324
C19 C 1.0501(3) 0.14279(14) 0.9476(3)
H16 H 1.0647 0.1795 0.9996
C20 C 1.1394(3) 0.12864(14) 0.8510(3)
H17 H 1.2109 0.1566 0.8397
C21 C 1.1245(2) 0.07445(12) 0.7721(3)
H18 H 1.1841 0.0654 0.7076
C22 C 0.9838(2) -0.03386(11) 0.2067(2)
C23 C 1.2504(3) 0.13604(13) 0.4781(2)
C24 C 1.3382(3) 0.19689(15) 0.5014(3)
O1 O 1.1405(2) 0.15101(12) 0.4396(2)
O2 O 1.3009(3) 0.08215(10) 0.4998(2)
F1 F 1.3487(3) 0.23654(13) 0.4052(3)
F2 F 1.2913(4) 0.23477(19) 0.5875(4)
F3 F 1.4589(3) 0.18341(14) 0.5303(4)
C16B C 0.8616(2) -0.03858(13) 0.7803(2)
N3B N 0.97428(18) -0.02225(10) 0.72804(17)
Ag1B Ag 1.051879(17) -0.069344(9) 0.562990(16)
N1B N 1.18836(18) -0.10180(9) 0.42389(17)
C1B C 1.2928(2) -0.06839(11) 0.3870(2)
N2B N 1.35651(19) -0.09863(9) 0.29024(18)
C7B C 1.2889(2) -0.15639(11) 0.2627(2)
C2B C 1.1828(2) -0.15799(10) 0.3467(2)
C3B C 1.0912(3) -0.20832(12) 0.3416(3)
H2B H 1.0209 -0.2096 0.3976
C4B C 1.1085(3) -0.25698(14) 0.2494(3)
H3B H 1.0480 -0.2914 0.2425
C5B C 1.2151(4) -0.25502(14) 0.1671(3)
H4B H 1.2237 -0.2886 0.1068
C6B C 1.3078(3) -0.20595(13) 0.1708(2)
H5B H 1.3789 -0.2055 0.1158
C8B C 1.4784(3) -0.07610(12) 0.2296(3)
H6B H 1.5519 -0.0896 0.2822
H7B H 1.4871 -0.0981 0.1479
C9B C 1.4848(2) -0.00201(12) 0.2094(2)
C10B C 1.5804(3) 0.03279(15) 0.2760(3)
H8B H 1.6334 0.0103 0.3339
C11B C 1.5978(3) 0.10006(17) 0.2577(3)
H9B H 1.6626 0.1226 0.3026
C12B C 1.5196(3) 0.13383(15) 0.1733(3)
H10B H 1.5316 0.1792 0.1603
C13B C 1.4233(3) 0.10020(13) 0.1078(3)
H11B H 1.3698 0.1234 0.0515
C14B C 1.4045(2) 0.03230(12) 0.1243(2)
C15B C 1.2960(2) -0.00128(14) 0.0514(2)
N4B N 1.17371(17) -0.00271(10) 0.12476(17)
C17B C 1.0753(2) -0.04960(12) 0.1126(2)
C18B C 1.0598(2) -0.10379(13) 0.0318(2)
H15B H 1.1195 -0.1133 -0.0324
C19B C 0.9499(3) -0.14279(14) 0.0524(3)
H16B H 0.9353 -0.1795 0.0004
C20B C 0.8606(3) -0.12864(14) 0.1490(3)
H17B H 0.7891 -0.1566 0.1603
C21B C 0.8755(2) -0.07445(12) 0.2279(3)
H18B H 0.8159 -0.0654 0.2924
H12B H 1.3219 -0.0464 0.0310
H13B H 1.2813 0.0222 -0.0280
H1B H 1.3197 -0.0285 0.4235
O1B O 0.8595(2) -0.15101(12) 0.5604(2)
C23B C 0.7496(3) -0.13604(13) 0.5219(2)
C24B C 0.6618(3) -0.19689(15) 0.4986(3)
F1B F 0.6513(3) -0.23654(13) 0.5948(3)
F2B F 0.7087(4) -0.23477(19) 0.4125(4)
F3B F 0.5411(3) -0.18341(14) 0.4697(4)
O2B O 0.6991(3) -0.08215(10) 0.5002(2)
C22B C 1.0162(2) 0.03386(11) 0.7933(2)
H14B H 0.8116 -0.0748 0.7543
loop_
_geom_bond_atom_site_label_1
_geom_bond_atom_site_label_2
_geom_bond_site_symmetry_1
_geom_bond_site_symmetry_2
Ag1 N1 1_555 1_555
N1 C1 1_555 1_555
N2 C1 1_555 1_555
N3 Ag1 1_555 1_555
N4 C15 1_555 1_555
C1 H1 1_555 1_555
C2 N1 1_555 1_555
C3 C2 1_555 1_555
H2 C3 1_555 1_555
C4 C3 1_555 1_555
H3 C4 1_555 1_555
C5 C4 1_555 1_555
H4 C5 1_555 1_555
C6 C5 1_555 1_555
H5 C6 1_555 1_555
C7 N2 1_555 1_555
C8 N2 1_555 1_555
H6 C8 1_555 1_555
H7 C8 1_555 1_555
C9 C8 1_555 1_555
C10 C9 1_555 1_555
H8 C10 1_555 1_555
C11 C10 1_555 1_555
H9 C11 1_555 1_555
C12 C11 1_555 1_555
H10 C12 1_555 1_555
C13 C12 1_555 1_555
H11 C13 1_555 1_555
C14 C9 1_555 1_555
C15 C14 1_555 1_555
H12 C15 1_555 1_555
H13 C15 1_555 1_555
C16 N3 1_555 1_555
H14 C16 1_555 1_555
C17 N4 1_555 1_555
C18 C17 1_555 1_555
H15 C18 1_555 1_555
C19 C18 1_555 1_555
H16 C19 1_555 1_555
C20 C19 1_555 1_555
H17 C20 1_555 1_555
C21 C20 1_555 1_555
H18 C21 1_555 1_555
C22 N3 1_555 1_555
C23 C24 1_555 1_555
C24 F1 1_555 1_555
O1 Ag1 1_555 1_555
O2 C23 1_555 1_555
F2 C24 1_555 1_555
F3 C24 1_555 1_555
C16B N4 1_555 1_555
N3B C16B 1_555 1_555
Ag1B N3B 1_555 1_555
N1B Ag1B 1_555 1_555
C1B N1B 1_555 1_555
N2B C1B 1_555 1_555
C7B N2B 1_555 1_555
C2B N1B 1_555 1_555
C3B C2B 1_555 1_555
H2B C3B 1_555 1_555
C4B C3B 1_555 1_555
H3B C4B 1_555 1_555
C5B C4B 1_555 1_555
H4B C5B 1_555 1_555
C6B C7B 1_555 1_555
H5B C6B 1_555 1_555
C8B N2B 1_555 1_555
H6B C8B 1_555 1_555
H7B C8B 1_555 1_555
C9B C8B 1_555 1_555
C10B C9B 1_555 1_555
H8B C10B 1_555 1_555
C11B C10B 1_555 1_555
H9B C11B 1_555 1_555
C12B C11B 1_555 1_555
H10B C12B 1_555 1_555
C13B C12B 1_555 1_555
H11B C13B 1_555 1_555
C14B C9B 1_555 1_555
C15B C14B 1_555 1_555
N4B C16 1_555 1_555
C17B C22 1_555 1_555
C18B C17B 1_555 1_555
H15B C18B 1_555 1_555
C19B C18B 1_555 1_555
H16B C19B 1_555 1_555
C20B C19B 1_555 1_555
H17B C20B 1_555 1_555
C21B C22 1_555 1_555
H18B C21B 1_555 1_555
H12B C15B 1_555 1_555
H13B C15B 1_555 1_555
H1B C1B 1_555 1_555
O1B Ag1B 1_555 1_555
C23B O1B 1_555 1_555
C24B C23B 1_555 1_555
F1B C24B 1_555 1_555
F2B C24B 1_555 1_555
F3B C24B 1_555 1_555
O2B C23B 1_555 1_555
C22B C17 1_555 1_555
H14B C16B 1_555 1_555
C2 C7 1_555 1_555
C6 C7 1_555 1_555
C13 C14 1_555 1_555
C21 C22B 1_555 1_555
C23 O1 1_555 1_555
N3B C22B 1_555 1_555
C7B C2B 1_555 1_555
C5B C6B 1_555 1_555
C13B C14B 1_555 1_555
C15B N4B 1_555 1_555
N4B C17B 1_555 1_555
C20B C21B 1_555 1_555

#END
