
#######################################################################
#
#                 Cambridge Crystallographic Data Centre
#                                CCDC 
#
#######################################################################
#
# If this CIF has been generated from an entry in the Cambridge 
# Structural Database, then it will include bibliographic, chemical, 
# crystal, experimental, refinement or atomic coordinate data resulting 
# from the CCDC's data processing and validation procedures.
#
#######################################################################

data_HUKGUQ
_chemical_formula_moiety         'C106 H156 O10 P8 Pt4,C3 H6 O1'
_chemical_name_systematic        
'bis((\m~2~-5-(Benzyloxy)isophthalato)-(\m~2~-phenanthrene-2,9-diyl))-octakis(triethylphosphine)-tetra-platinum acetone solvate'
_symmetry_cell_setting           monoclinic
_symmetry_space_group_name_H-M   'P 21'
_symmetry_Int_Tables_number      4
_space_group_name_Hall           'P 2yb'
loop_
_symmetry_equiv_pos_site_id
_symmetry_equiv_pos_as_xyz
1 x,y,z
2 -x,1/2+y,-z
_cell_length_a                   15.5715(3)
_cell_length_b                   14.5131(4)
_cell_length_c                   25.4337(4)
_cell_angle_alpha                90
_cell_angle_beta                 99.9300(12)
_cell_angle_gamma                90
_cell_volume                     5661.67
_exptl_crystal_colour            colorless
_exptl_crystal_description       plate
_cell_formula_units_Z            2
loop_
_atom_site_label
_atom_site_type_symbol
_atom_site_fract_x
_atom_site_fract_y
_atom_site_fract_z
Pt1 Pt 0.56280(3) 0.76674(3) 0.405934(18)
Pt2 Pt 0.99668(3) 0.88371(4) 0.293322(18)
Pt3 Pt 0.92430(3) 0.43303(4) 0.089744(18)
Pt4 Pt 0.49047(3) 0.31455(3) 0.206441(18)
P1 P 0.5178(3) 0.8015(3) 0.31770(15)
P2 P 0.6242(2) 0.7281(3) 0.49190(14)
P3 P 0.8944(2) 0.9368(3) 0.22359(14)
P4 P 1.0899(2) 0.8205(4) 0.36346(14)
P5 P 0.8790(2) 0.4646(3) 0.00119(15)
P6 P 0.9632(2) 0.4080(3) 0.17959(13)
P7 P 0.39762(19) 0.3807(3) 0.13697(13)
P8 P 0.5925(2) 0.2612(3) 0.27593(13)
O1 O 1.0497(5) 0.8041(7) 0.2372(4)
O2 O 1.1679(6) 0.8950(9) 0.2431(4)
O3 O 1.3301(5) 0.7679(8) 0.1074(3)
O4 O 0.9935(5) 0.5585(7) 0.1058(3)
O5 O 1.0988(5) 0.5168(8) 0.0600(4)
O6 O 0.4395(5) 0.3905(7) 0.2648(3)
O7 O 0.3142(5) 0.3105(8) 0.2533(4)
O8 O 0.1615(5) 0.4301(7) 0.3962(3)
O9 O 0.4930(5) 0.6404(6) 0.3905(3)
O10 O 0.3950(5) 0.6793(7) 0.4420(3)
C1 C 0.6236(6) 0.8861(9) 0.4168(4)
C2 C 0.5862(7) 0.9614(10) 0.4411(5)
H1 H 0.5291 0.9545 0.4491
C3 C 0.6290(7) 1.0435(9) 0.4534(5)
H2 H 0.6015 1.0903 0.4707
C4 C 0.7121(7) 1.0601(9) 0.4413(5)
C5 C 0.7580(8) 1.1473(11) 0.4538(5)
H3 H 0.7314 1.1940 0.4717
C6 C 0.8356(8) 1.1631(11) 0.4409(5)
H4 H 0.8653 1.2190 0.4516
C7 C 0.8762(8) 1.0945(10) 0.4100(5)
C8 C 0.9536(8) 1.1136(10) 0.3910(5)
H5 H 0.9824 1.1705 0.4000
C9 C 0.9886(8) 1.0527(10) 0.3597(6)
H6 H 1.0406 1.0684 0.3470
C10 C 0.9481(7) 0.9655(9) 0.3458(5)
C11 C 0.8718(7) 0.9471(9) 0.3649(4)
H7 H 0.8440 0.8893 0.3566
C12 C 0.8333(7) 1.0103(9) 0.3960(4)
C13 C 0.7512(7) 0.9907(9) 0.4129(5)
C14 C 0.7058(7) 0.9053(9) 0.4043(4)
H8 H 0.7339 0.8570 0.3886
C15 C 1.1203(7) 0.8300(11) 0.2241(5)
C16 C 1.1475(7) 0.7749(11) 0.1794(4)
C17 C 1.0951(7) 0.7029(10) 0.1549(5)
H9 H 1.0414 0.6890 0.1661
C18 C 1.1218(7) 0.6521(9) 0.1145(5)
C19 C 1.1994(7) 0.6738(10) 0.0965(5)
H10 H 1.2155 0.6402 0.0676
C20 C 1.2522(7) 0.7426(11) 0.1200(5)
C21 C 1.2271(7) 0.7951(10) 0.1623(5)
H11 H 1.2636 0.8430 0.1789
C22 C 1.3618(7) 0.7172(11) 0.0672(5)
H12 H 1.3291 0.7348 0.0317
H13 H 1.3530 0.6505 0.0724
C23 C 1.4579(7) 0.7369(10) 0.0696(5)
C24 C 1.4956(9) 0.7192(14) 0.0272(6)
H14 H 1.4615 0.6980 -0.0052
C25 C 1.5859(9) 0.7319(14) 0.0307(6)
H15 H 1.6113 0.7220 -0.0002
C26 C 1.6376(9) 0.7577(15) 0.0764(7)
H16 H 1.6980 0.7691 0.0777
C27 C 1.6009(11) 0.7667(16) 0.1198(7)
H17 H 1.6368 0.7787 0.1532
C28 C 1.5084(9) 0.7587(14) 0.1171(6)
H18 H 1.4828 0.7684 0.1480
C29 C 1.0678(7) 0.5687(10) 0.0901(5)
C30 C 0.8589(7) 0.3095(10) 0.0782(4)
C31 C 0.8995(7) 0.2371(10) 0.0551(4)
H19 H 0.9557 0.2463 0.0463
C32 C 0.8588(8) 0.1528(11) 0.0451(5)
H20 H 0.8863 0.1045 0.0290
C33 C 0.7745(8) 0.1392(10) 0.0593(5)
C34 C 0.7307(9) 0.0545(10) 0.0471(6)
H21 H 0.7571 0.0078 0.0291
C35 C 0.6520(7) 0.0392(9) 0.0608(5)
H22 H 0.6226 -0.0170 0.0504
C36 C 0.6114(8) 0.1051(10) 0.0904(5)
C37 C 0.5347(8) 0.0843(10) 0.1086(6)
H23 H 0.5062 0.0270 0.0999
C38 C 0.4997(8) 0.1491(11) 0.1399(5)
H24 H 0.4462 0.1353 0.1514
C39 C 0.5411(7) 0.2344(9) 0.1553(5)
C40 C 0.6140(6) 0.2540(10) 0.1339(4)
H25 H 0.6399 0.3130 0.1408
C41 C 0.6531(6) 0.1924(9) 0.1025(5)
C42 C 0.7358(7) 0.2109(10) 0.0853(5)
C43 C 0.7807(7) 0.2960(10) 0.0939(5)
H26 H 0.7556 0.3446 0.1111
C44 C 0.3645(7) 0.3691(10) 0.2766(5)
C45 C 0.3405(6) 0.4263(9) 0.3227(4)
C46 C 0.2640(6) 0.4042(9) 0.3404(4)
H27 H 0.2286 0.3548 0.3248
C47 C 0.2400(7) 0.4555(9) 0.3814(5)
C48 C 0.2938(7) 0.5279(9) 0.4053(5)
H28 H 0.2774 0.5629 0.4336
C49 C 0.3708(7) 0.5471(10) 0.3869(5)
C50 C 0.3939(7) 0.4955(9) 0.3454(4)
H29 H 0.4466 0.5084 0.3329
C51 C 0.1311(7) 0.4800(10) 0.4371(5)
H30 H 0.1406 0.5468 0.4326
H31 H 0.1639 0.4611 0.4724
C52 C 0.0355(8) 0.4614(11) 0.4348(5)
C53 C -0.0079(8) 0.4984(14) 0.4727(5)
H32 H 0.0244 0.5312 0.5019
C54 C -0.0966(9) 0.4895(13) 0.4697(6)
H33 H -0.1247 0.5166 0.4961
C55 C -0.1430(9) 0.4424(17) 0.4293(7)
H34 H -0.2046 0.4386 0.4260
C56 C -0.1005(9) 0.3984(15) 0.3917(8)
H35 H -0.1319 0.3596 0.3650
C57 C -0.0133(9) 0.4126(14) 0.3944(7)
H36 H 0.0146 0.3877 0.3671
C58 C 0.4223(7) 0.6281(9) 0.4088(5)
C59 C 0.4955(13) 0.9188(14) 0.3010(7)
H37 H 0.4489 0.9400 0.3201
H38 H 0.5484 0.9552 0.3147
C60 C 0.4674(12) 0.9411(14) 0.2410(7)
H39 H 0.4608 1.0079 0.2363
H40 H 0.4117 0.9108 0.2275
H41 H 0.5119 0.9188 0.2211
C61 C 0.4368(11) 0.7271(11) 0.2792(5)
H42 H 0.4328 0.7394 0.2406
H43 H 0.4528 0.6616 0.2860
C62 C 0.3514(12) 0.7474(14) 0.2965(7)
H44 H 0.3059 0.7080 0.2766
H45 H 0.3361 0.8122 0.2892
H46 H 0.3563 0.7353 0.3348
C63 C 0.6113(14) 0.7873(15) 0.2815(7)
H47 H 0.5911 0.8001 0.2431
H48 H 0.6567 0.8333 0.2951
C64 C 0.650(2) 0.695(2) 0.2870(10)
H49 H 0.6992 0.6926 0.2675
H50 H 0.6063 0.6494 0.2724
H51 H 0.6711 0.6822 0.3249
C65 C 0.7429(9) 0.7379(12) 0.5034(6)
H52 H 0.7646 0.7031 0.4748
H53 H 0.7579 0.8035 0.4992
C66 C 0.7927(9) 0.7044(10) 0.5571(6)
H54 H 0.8555 0.7116 0.5578
H55 H 0.7794 0.6393 0.5619
H56 H 0.7752 0.7408 0.5859
C67 C 0.5912(8) 0.7979(11) 0.5442(5)
H57 H 0.6152 0.7702 0.5792
H58 H 0.6170 0.8601 0.5431
C68 C 0.4926(8) 0.8075(12) 0.5398(5)
H59 H 0.4796 0.8465 0.5689
H60 H 0.4666 0.7465 0.5422
H61 H 0.4682 0.8358 0.5054
C69 C 0.6034(9) 0.6095(12) 0.5103(6)
H62 H 0.6296 0.5993 0.5482
H63 H 0.5397 0.5999 0.5067
C70 C 0.6407(8) 0.5390(8) 0.4756(5)
H64 H 0.6289 0.4766 0.4872
H65 H 0.7039 0.5480 0.4791
H66 H 0.6134 0.5473 0.4382
C71 C 0.9176(12) 1.0463(16) 0.1951(8)
H67 H 0.8677 1.0638 0.1672
H68 H 0.9237 1.0941 0.2233
C72 C 1.0002(10) 1.0442(14) 0.1707(7)
H69 H 1.0105 1.1053 0.1566
H70 H 0.9936 0.9989 0.1417
H71 H 1.0499 1.0270 0.1981
C73 C 0.7859(10) 0.9461(15) 0.2394(6)
H72 H 0.7685 0.8847 0.2509
H73 H 0.7884 0.9882 0.2702
C74 C 0.7136(11) 0.9807(17) 0.1943(7)
H74 H 0.6582 0.9841 0.2075
H75 H 0.7078 0.9380 0.1640
H76 H 0.7290 1.0420 0.1827
C75 C 0.8782(10) 0.8551(12) 0.1669(6)
H77 H 0.8330 0.8800 0.1383
H78 H 0.9332 0.8502 0.1525
C76 C 0.8511(11) 0.7597(14) 0.1819(7)
H79 H 0.8428 0.7200 0.1503
H80 H 0.7963 0.7638 0.1959
H81 H 0.8965 0.7336 0.2093
C77 C 1.1440(9) 0.7176(12) 0.3477(7)
H82 H 1.1850 0.7344 0.3235
H83 H 1.1790 0.6936 0.3810
C78 C 1.0854(17) 0.6398(16) 0.3215(9)
H84 H 1.1216 0.5879 0.3139
H85 H 1.0506 0.6620 0.2881
H86 H 1.0465 0.6197 0.3457
C79 C 1.1785(14) 0.8954(15) 0.3868(9)
H87 H 1.2033 0.9144 0.3552
H88 H 1.1533 0.9515 0.4003
C80 C 1.2562(19) 0.866(3) 0.4301(12)
H89 H 1.2991 0.9161 0.4361
H90 H 1.2836 0.8108 0.4182
H91 H 1.2352 0.8526 0.4635
C81 C 1.0485(15) 0.808(2) 0.4263(8)
H92 H 1.0955 0.7833 0.4541
H93 H 1.0312 0.8688 0.4383
C82 C 0.977(2) 0.748(2) 0.4208(12)
H94 H 0.9560 0.7439 0.4549
H95 H 0.9945 0.6870 0.4103
H96 H 0.9304 0.7721 0.3934
C83 C 0.9232(8) 0.3887(12) -0.0451(5)
H97 H 0.8977 0.3266 -0.0430
H98 H 0.9039 0.4118 -0.0818
C84 C 1.0201(9) 0.3796(15) -0.0357(6)
H99 H 1.0373 0.3380 -0.0624
H100 H 1.0403 0.3547 0.0001
H101 H 1.0465 0.4403 -0.0387
C85 C 0.9037(9) 0.5829(12) -0.0163(6)
H102 H 0.8833 0.6255 0.0094
H103 H 0.9678 0.5898 -0.0123
C86 C 0.8610(12) 0.6128(12) -0.0751(6)
H104 H 0.8774 0.6765 -0.0814
H105 H 0.7974 0.6082 -0.0792
H106 H 0.8818 0.5720 -0.1009
C87 C 0.7613(8) 0.4515(14) -0.0216(7)
H107 H 0.7475 0.4649 -0.0604
H108 H 0.7446 0.3867 -0.0163
C88 C 0.7099(13) 0.5120(18) 0.0064(9)
H109 H 0.6477 0.5014 -0.0066
H110 H 0.7243 0.5763 0.0000
H111 H 0.7232 0.4991 0.0448
C89 C 1.0818(13) 0.4115(15) 0.2009(7)
H112 H 1.1042 0.4732 0.1937
H113 H 1.0966 0.3996 0.2397
C90 C 1.1258(12) 0.3349(15) 0.1689(9)
H114 H 1.1893 0.3378 0.1793
H115 H 1.1097 0.3462 0.1304
H116 H 1.1052 0.2737 0.1773
C91 C 0.9247(17) 0.5033(11) 0.2167(7)
H117 H 0.9457 0.4943 0.2553
H118 H 0.9494 0.5619 0.2060
C92 C 0.8242(13) 0.5099(15) 0.2062(10)
H119 H 0.8060 0.5611 0.2269
H120 H 0.7996 0.4522 0.2171
H121 H 0.8034 0.5205 0.1681
C93 C 0.9300(10) 0.3012(11) 0.2066(6)
H122 H 0.8655 0.2986 0.2001
H123 H 0.9510 0.2494 0.1869
C94 C 0.9635(13) 0.2863(15) 0.2676(8)
H124 H 0.9427 0.2268 0.2786
H125 H 0.9415 0.3358 0.2879
H126 H 1.0274 0.2870 0.2747
C95 C 0.4548(9) 0.4308(13) 0.0865(6)
H127 H 0.4735 0.3802 0.0650
H128 H 0.4132 0.4697 0.0623
C96 C 0.5359(10) 0.4900(11) 0.1092(7)
H129 H 0.5619 0.5145 0.0797
H130 H 0.5787 0.4517 0.1322
H131 H 0.5181 0.5411 0.1301
C97 C 0.3298(8) 0.4732(11) 0.1551(5)
H132 H 0.2933 0.4969 0.1222
H133 H 0.2900 0.4471 0.1778
C98 C 0.3788(10) 0.5548(11) 0.1850(6)
H134 H 0.3367 0.6010 0.1926
H135 H 0.4175 0.5824 0.1628
H136 H 0.4134 0.5331 0.2186
C99 C 0.3189(10) 0.2996(13) 0.1002(6)
H137 H 0.3511 0.2470 0.0882
H138 H 0.2813 0.2754 0.1246
C100 C 0.2614(10) 0.3420(11) 0.0518(6)
H139 H 0.2215 0.2951 0.0338
H140 H 0.2980 0.3654 0.0270
H141 H 0.2277 0.3929 0.0634
C101 C 0.6980(9) 0.2271(14) 0.2587(6)
H142 H 0.6875 0.1796 0.2304
H143 H 0.7238 0.2814 0.2436
C102 C 0.7634(11) 0.1901(16) 0.3045(7)
H144 H 0.8176 0.1745 0.2918
H145 H 0.7397 0.1348 0.3188
H146 H 0.7754 0.2369 0.3325
C103 C 0.6160(11) 0.3437(13) 0.3296(6)
H147 H 0.5624 0.3557 0.3445
H148 H 0.6603 0.3178 0.3584
C104 C 0.6499(13) 0.4351(18) 0.3099(8)
H149 H 0.6622 0.4785 0.3398
H150 H 0.6056 0.4613 0.2819
H151 H 0.7034 0.4234 0.2956
C105 C 0.5639(10) 0.1580(13) 0.3089(6)
H152 H 0.5604 0.1053 0.2840
H153 H 0.6099 0.1444 0.3400
C106 C 0.4740(10) 0.1700(14) 0.3283(6)
H154 H 0.4602 0.1135 0.3463
H155 H 0.4282 0.1820 0.2975
H156 H 0.4776 0.2219 0.3533
O11 O 1.1397(16) 0.1622(18) 0.2783(10)
C107 C 1.275(2) 0.077(2) 0.3158(12)
H157 H 1.2537 0.0832 0.3498
H158 H 1.3311 0.1089 0.3184
H159 H 1.2819 0.0121 0.3078
C108 C 1.2097(19) 0.121(2) 0.2718(11)
C109 C 1.2494(14) 0.1069(17) 0.2164(8)
H160 H 1.2078 0.1309 0.1862
H161 H 1.2594 0.0412 0.2109
H162 H 1.3047 0.1404 0.2192
loop_
_geom_bond_atom_site_label_1
_geom_bond_atom_site_label_2
_geom_bond_site_symmetry_1
_geom_bond_site_symmetry_2
Pt1 P1 1_555 1_555
Pt2 P3 1_555 1_555
Pt3 P5 1_555 1_555
Pt4 P7 1_555 1_555
P1 C59 1_555 1_555
P2 Pt1 1_555 1_555
P3 C71 1_555 1_555
P4 Pt2 1_555 1_555
P5 C83 1_555 1_555
P6 Pt3 1_555 1_555
P7 C95 1_555 1_555
P8 Pt4 1_555 1_555
O1 Pt2 1_555 1_555
O2 C15 1_555 1_555
O3 C20 1_555 1_555
O4 Pt3 1_555 1_555
O5 C29 1_555 1_555
O6 Pt4 1_555 1_555
O7 C44 1_555 1_555
O8 C47 1_555 1_555
O9 Pt1 1_555 1_555
O10 C58 1_555 1_555
C1 Pt1 1_555 1_555
C2 C1 1_555 1_555
H1 C2 1_555 1_555
C3 C2 1_555 1_555
H2 C3 1_555 1_555
C4 C3 1_555 1_555
C5 C4 1_555 1_555
H3 C5 1_555 1_555
C6 C5 1_555 1_555
H4 C6 1_555 1_555
C7 C6 1_555 1_555
C8 C7 1_555 1_555
H5 C8 1_555 1_555
C9 C8 1_555 1_555
H6 C9 1_555 1_555
C10 Pt2 1_555 1_555
C11 C10 1_555 1_555
H7 C11 1_555 1_555
C12 C7 1_555 1_555
C13 C4 1_555 1_555
C14 C1 1_555 1_555
H8 C14 1_555 1_555
C15 O1 1_555 1_555
C16 C15 1_555 1_555
C17 C16 1_555 1_555
H9 C17 1_555 1_555
C18 C17 1_555 1_555
C19 C18 1_555 1_555
H10 C19 1_555 1_555
C20 C19 1_555 1_555
C21 C16 1_555 1_555
H11 C21 1_555 1_555
C22 O3 1_555 1_555
H12 C22 1_555 1_555
H13 C22 1_555 1_555
C23 C22 1_555 1_555
C24 C23 1_555 1_555
H14 C24 1_555 1_555
C25 C24 1_555 1_555
H15 C25 1_555 1_555
C26 C25 1_555 1_555
H16 C26 1_555 1_555
C27 C26 1_555 1_555
H17 C27 1_555 1_555
C28 C23 1_555 1_555
H18 C28 1_555 1_555
C29 O4 1_555 1_555
C30 Pt3 1_555 1_555
C31 C30 1_555 1_555
H19 C31 1_555 1_555
C32 C31 1_555 1_555
H20 C32 1_555 1_555
C33 C32 1_555 1_555
C34 C33 1_555 1_555
H21 C34 1_555 1_555
C35 C34 1_555 1_555
H22 C35 1_555 1_555
C36 C35 1_555 1_555
C37 C36 1_555 1_555
H23 C37 1_555 1_555
C38 C37 1_555 1_555
H24 C38 1_555 1_555
C39 Pt4 1_555 1_555
C40 C39 1_555 1_555
H25 C40 1_555 1_555
C41 C36 1_555 1_555
C42 C33 1_555 1_555
C43 C30 1_555 1_555
H26 C43 1_555 1_555
C44 O6 1_555 1_555
C45 C44 1_555 1_555
C46 C45 1_555 1_555
H27 C46 1_555 1_555
C47 C46 1_555 1_555
C48 C47 1_555 1_555
H28 C48 1_555 1_555
C49 C48 1_555 1_555
C50 C45 1_555 1_555
H29 C50 1_555 1_555
C51 O8 1_555 1_555
H30 C51 1_555 1_555
H31 C51 1_555 1_555
C52 C51 1_555 1_555
C53 C52 1_555 1_555
H32 C53 1_555 1_555
C54 C53 1_555 1_555
H33 C54 1_555 1_555
C55 C54 1_555 1_555
H34 C55 1_555 1_555
C56 C55 1_555 1_555
H35 C56 1_555 1_555
C57 C52 1_555 1_555
H36 C57 1_555 1_555
C58 O9 1_555 1_555
C59 H37 1_555 1_555
H38 C59 1_555 1_555
C60 C59 1_555 1_555
H39 C60 1_555 1_555
H40 C60 1_555 1_555
H41 C60 1_555 1_555
C61 P1 1_555 1_555
H42 C61 1_555 1_555
H43 C61 1_555 1_555
C62 C61 1_555 1_555
H44 C62 1_555 1_555
H45 C62 1_555 1_555
H46 C62 1_555 1_555
C63 P1 1_555 1_555
H47 C63 1_555 1_555
H48 C63 1_555 1_555
C64 C63 1_555 1_555
H49 C64 1_555 1_555
H50 C64 1_555 1_555
H51 C64 1_555 1_555
C65 P2 1_555 1_555
H52 C65 1_555 1_555
H53 C65 1_555 1_555
C66 C65 1_555 1_555
H54 C66 1_555 1_555
H55 C66 1_555 1_555
H56 C66 1_555 1_555
C67 P2 1_555 1_555
H57 C67 1_555 1_555
H58 C67 1_555 1_555
C68 C67 1_555 1_555
H59 C68 1_555 1_555
H60 C68 1_555 1_555
H61 C68 1_555 1_555
C69 P2 1_555 1_555
H62 C69 1_555 1_555
H63 C69 1_555 1_555
C70 C69 1_555 1_555
H64 C70 1_555 1_555
H65 C70 1_555 1_555
H66 C70 1_555 1_555
C71 H67 1_555 1_555
H68 C71 1_555 1_555
C72 C71 1_555 1_555
H69 C72 1_555 1_555
H70 C72 1_555 1_555
H71 C72 1_555 1_555
C73 P3 1_555 1_555
H72 C73 1_555 1_555
H73 C73 1_555 1_555
C74 C73 1_555 1_555
H74 C74 1_555 1_555
H75 C74 1_555 1_555
H76 C74 1_555 1_555
C75 P3 1_555 1_555
H77 C75 1_555 1_555
H78 C75 1_555 1_555
C76 C75 1_555 1_555
H79 C76 1_555 1_555
H80 C76 1_555 1_555
H81 C76 1_555 1_555
C77 P4 1_555 1_555
H82 C77 1_555 1_555
H83 C77 1_555 1_555
C78 C77 1_555 1_555
H84 C78 1_555 1_555
H85 C78 1_555 1_555
H86 C78 1_555 1_555
C79 P4 1_555 1_555
H87 C79 1_555 1_555
H88 C79 1_555 1_555
C80 C79 1_555 1_555
H89 C80 1_555 1_555
H90 C80 1_555 1_555
H91 C80 1_555 1_555
C81 P4 1_555 1_555
H92 C81 1_555 1_555
H93 C81 1_555 1_555
C82 C81 1_555 1_555
H94 C82 1_555 1_555
H95 C82 1_555 1_555
H96 C82 1_555 1_555
C83 H97 1_555 1_555
H98 C83 1_555 1_555
C84 C83 1_555 1_555
H99 C84 1_555 1_555
H100 C84 1_555 1_555
H101 C84 1_555 1_555
C85 P5 1_555 1_555
H102 C85 1_555 1_555
H103 C85 1_555 1_555
C86 C85 1_555 1_555
H104 C86 1_555 1_555
H105 C86 1_555 1_555
H106 C86 1_555 1_555
C87 P5 1_555 1_555
H107 C87 1_555 1_555
H108 C87 1_555 1_555
C88 C87 1_555 1_555
H109 C88 1_555 1_555
H110 C88 1_555 1_555
H111 C88 1_555 1_555
C89 P6 1_555 1_555
H112 C89 1_555 1_555
H113 C89 1_555 1_555
C90 C89 1_555 1_555
H114 C90 1_555 1_555
H115 C90 1_555 1_555
H116 C90 1_555 1_555
C91 P6 1_555 1_555
H117 C91 1_555 1_555
H118 C91 1_555 1_555
C92 C91 1_555 1_555
H119 C92 1_555 1_555
H120 C92 1_555 1_555
H121 C92 1_555 1_555
C93 P6 1_555 1_555
H122 C93 1_555 1_555
H123 C93 1_555 1_555
C94 C93 1_555 1_555
H124 C94 1_555 1_555
H125 C94 1_555 1_555
H126 C94 1_555 1_555
C95 H127 1_555 1_555
H128 C95 1_555 1_555
C96 C95 1_555 1_555
H129 C96 1_555 1_555
H130 C96 1_555 1_555
H131 C96 1_555 1_555
C97 P7 1_555 1_555
H132 C97 1_555 1_555
H133 C97 1_555 1_555
C98 C97 1_555 1_555
H134 C98 1_555 1_555
H135 C98 1_555 1_555
H136 C98 1_555 1_555
C99 P7 1_555 1_555
H137 C99 1_555 1_555
H138 C99 1_555 1_555
C100 C99 1_555 1_555
H139 C100 1_555 1_555
H140 C100 1_555 1_555
H141 C100 1_555 1_555
C101 P8 1_555 1_555
H142 C101 1_555 1_555
H143 C101 1_555 1_555
C102 C101 1_555 1_555
H144 C102 1_555 1_555
H145 C102 1_555 1_555
H146 C102 1_555 1_555
C103 P8 1_555 1_555
H147 C103 1_555 1_555
H148 C103 1_555 1_555
C104 C103 1_555 1_555
H149 C104 1_555 1_555
H150 C104 1_555 1_555
H151 C104 1_555 1_555
C105 P8 1_555 1_555
H152 C105 1_555 1_555
H153 C105 1_555 1_555
C106 C105 1_555 1_555
H154 C106 1_555 1_555
H155 C106 1_555 1_555
H156 C106 1_555 1_555
O11 C108 1_555 1_555
C107 H157 1_555 1_555
H158 C107 1_555 1_555
H159 C107 1_555 1_555
C108 C107 1_555 1_555
C109 C108 1_555 1_555
H160 C109 1_555 1_555
H161 C109 1_555 1_555
H162 C109 1_555 1_555
C9 C10 1_555 1_555
C11 C12 1_555 1_555
C12 C13 1_555 1_555
C13 C14 1_555 1_555
C18 C29 1_555 1_555
C20 C21 1_555 1_555
C27 C28 1_555 1_555
C38 C39 1_555 1_555
C40 C41 1_555 1_555
C41 C42 1_555 1_555
C42 C43 1_555 1_555
C49 C50 1_555 1_555
C49 C58 1_555 1_555
C56 C57 1_555 1_555

#END
