
#######################################################################
#
#                 Cambridge Crystallographic Data Centre
#                                CCDC 
#
#######################################################################
#
# If this CIF has been generated from an entry in the Cambridge 
# Structural Database, then it will include bibliographic, chemical, 
# crystal, experimental, refinement or atomic coordinate data resulting 
# from the CCDC's data processing and validation procedures.
#
#######################################################################

data_HUKHAX
_chemical_formula_moiety         'C134 H180 O14 P8 Pt4,3(C3 H6 O1)'
_chemical_name_systematic        
'bis((\m~2~-5-((3,5-bis(Benzyloxy)benzyl)oxy)isophthalato)-(\m~2~-phenanthrene-2,9-diyl))-octakis(triethylphosphine)-tetra-platinum acetone solvate'
_symmetry_cell_setting           triclinic
_symmetry_space_group_name_H-M   'P -1'
_symmetry_Int_Tables_number      2
_space_group_name_Hall           '-P 1'
loop_
_symmetry_equiv_pos_site_id
_symmetry_equiv_pos_as_xyz
1 x,y,z
2 -x,-y,-z
_cell_length_a                   15.6185(2)
_cell_length_b                   16.1923(2)
_cell_length_c                   29.9377(4)
_cell_angle_alpha                81.5975(8)
_cell_angle_beta                 81.9972(7)
_cell_angle_gamma                72.5629(8)
_cell_volume                     7109.14
_exptl_crystal_colour            colorless
_exptl_crystal_description       plate
_cell_formula_units_Z            2
loop_
_atom_site_label
_atom_site_type_symbol
_atom_site_fract_x
_atom_site_fract_y
_atom_site_fract_z
Pt1 Pt 0.90228(4) 0.29486(3) 0.415893(16)
Pt2 Pt 1.21231(7) 0.17164(6) 0.18630(3)
Pt3 Pt 1.06628(5) 0.69928(3) 0.07367(2)
Pt4 Pt 0.77504(5) 0.82201(4) 0.30649(2)
P1 P 0.7889(3) 0.2728(3) 0.3823(2)
P2 P 1.0200(3) 0.3113(2) 0.44686(12)
P3 P 1.0944(3) 0.1478(3) 0.16019(15)
P4 P 1.3344(3) 0.1964(3) 0.21310(13)
P5 P 0.9366(3) 0.6699(3) 0.06331(15)
P6 P 1.1926(3) 0.7280(3) 0.0896(2)
P7 P 0.6656(3) 0.7920(3) 0.27486(13)
P8 P 0.8983(3) 0.8378(3) 0.33483(14)
O1 O 1.2196(5) 0.2643(5) 0.1287(3)
O2 O 1.3326(6) 0.1672(5) 0.0941(3)
O3 O 1.1420(7) 0.5709(5) 0.0622(3)
O4 O 1.2124(9) 0.6131(6) -0.0044(3)
O5 O 1.4294(6) 0.3229(5) -0.0484(3)
O6 O 1.5831(8) 0.0946(6) -0.1477(3)
O7 O 1.6146(8) 0.3620(8) -0.2355(3)
O8 O 0.7683(6) 0.7288(5) 0.3645(3)
O9 O 0.6576(7) 0.8300(6) 0.3992(3)
O10 O 0.8273(6) 0.4234(5) 0.4272(3)
O11 O 0.7634(7) 0.3851(6) 0.4951(3)
O12 O 0.5755(6) 0.6781(5) 0.5467(3)
O13 O 0.4430(7) 0.9159(6) 0.6420(4)
O14 O 0.4410(11) 0.6751(8) 0.7450(4)
C1 C 0.9788(8) 0.1733(7) 0.4056(3)
C2 C 0.9766(10) 0.1038(9) 0.4413(4)
H1 H 0.9357 0.1154 0.4678
C3 C 1.0323(11) 0.0216(8) 0.4377(4)
H2 H 1.0312 -0.0227 0.4622
C4 C 1.0909(10) 0.0015(8) 0.3985(4)
C5 C 1.1524(11) -0.0831(8) 0.3950(5)
H3 H 1.1515 -0.1274 0.4195
C6 C 1.2113(14) -0.1025(10) 0.3585(6)
H4 H 1.2533 -0.1588 0.3580
C7 C 1.2111(11) -0.0386(8) 0.3200(5)
C8 C 1.2692(14) -0.0580(9) 0.2805(6)
H5 H 1.3096 -0.1150 0.2798
C9 C 1.2707(11) 0.0009(9) 0.2429(5)
H6 H 1.3128 -0.0149 0.2173
C10 C 1.2083(9) 0.0866(8) 0.2423(4)
C11 C 1.1511(9) 0.1056(8) 0.2806(4)
H7 H 1.1090 0.1618 0.2807
C12 C 1.1512(9) 0.0460(8) 0.3202(4)
C13 C 1.0921(9) 0.0667(8) 0.3616(4)
C14 C 1.0337(8) 0.1528(7) 0.3672(4)
H8 H 1.0336 0.1975 0.3429
C15 C 1.2798(8) 0.2408(8) 0.0963(4)
C16 C 1.2891(8) 0.3116(7) 0.0579(4)
C17 C 1.3521(8) 0.2897(7) 0.0211(4)
H9 H 1.3874 0.2309 0.0197
C18 C 1.3641(9) 0.3529(7) -0.0137(4)
C19 C 1.3125(10) 0.4394(9) -0.0121(4)
H10 H 1.3205 0.4830 -0.0359
C20 C 1.2492(10) 0.4604(8) 0.0249(4)
C21 C 1.2372(9) 0.3982(8) 0.0599(4)
H11 H 1.1941 0.4139 0.0852
C22 C 1.1972(12) 0.5558(9) 0.0258(5)
C23 C 1.4363(9) 0.3787(7) -0.0889(4)
H12 H 1.4648 0.4232 -0.0840
H13 H 1.3757 0.4087 -0.0988
C24 C 1.4939(9) 0.3221(8) -0.1244(4)
C25 C 1.5112(10) 0.2329(8) -0.1171(4)
H14 H 1.4880 0.2061 -0.0896
C26 C 1.5633(11) 0.1821(9) -0.1506(5)
C27 C 1.6004(11) 0.2235(10) -0.1909(4)
H15 H 1.6387 0.1895 -0.2131
C28 C 1.5804(11) 0.3129(10) -0.1975(5)
C29 C 1.5285(10) 0.3628(9) -0.1641(4)
H16 H 1.5168 0.4243 -0.1682
C30 C 1.5714(10) 0.0490(8) -0.1037(5)
H17 H 1.5963 0.0736 -0.0818
H18 H 1.6069 -0.0128 -0.1045
C31 C 1.4742(11) 0.0527(9) -0.0866(5)
C32 C 1.4416(13) 0.0675(10) -0.0428(6)
H19 H 1.4806 0.0771 -0.0236
C33 C 1.3531(14) 0.0692(10) -0.0248(6)
H20 H 1.3324 0.0797 0.0058
C34 C 1.2959(13) 0.0548(12) -0.0537(8)
H21 H 1.2365 0.0525 -0.0426
C35 C 1.3284(14) 0.0441(11) -0.0992(7)
H22 H 1.2907 0.0360 -0.1194
C36 C 1.4152(13) 0.0454(10) -0.1142(6)
H23 H 1.4350 0.0410 -0.1455
C37 C 1.6782(12) 0.3133(11) -0.2664(6)
H24 H 1.6518 0.2749 -0.2795
H25 H 1.7315 0.2769 -0.2513
C38 C 1.7043(14) 0.3784(13) -0.3030(6)
C39 C 1.7258(13) 0.4475(12) -0.2929(6)
H26 H 1.7143 0.4650 -0.2632
C40 C 1.7667(14) 0.4922(14) -0.3298(9)
H27 H 1.7852 0.5403 -0.3242
C41 C 1.7807(14) 0.470(2) -0.3718(9)
H28 H 1.8066 0.5031 -0.3957
C42 C 1.7586(19) 0.4022(15) -0.3800(8)
H29 H 1.7691 0.3862 -0.4100
C43 C 1.7234(15) 0.3576(12) -0.3486(7)
H30 H 1.7092 0.3083 -0.3558
C44 C 0.9944(9) 0.8217(8) 0.0860(4)
C45 C 0.9864(10) 0.8892(8) 0.0485(5)
H31 H 1.0156 0.8752 0.0195
C46 C 0.9378(10) 0.9730(8) 0.0540(5)
H32 H 0.9339 1.0163 0.0287
C47 C 0.8930(8) 0.9969(7) 0.0965(4)
C48 C 0.8404(9) 1.0849(8) 0.1019(5)
H33 H 0.8364 1.1282 0.0765
C49 C 0.7965(9) 1.1069(8) 0.1425(4)
H34 H 0.7663 1.1663 0.1462
C50 C 0.7952(8) 1.0410(8) 0.1803(4)
C51 C 0.7438(9) 1.0622(8) 0.2222(4)
H35 H 0.7116 1.1212 0.2259
C52 C 0.7402(10) 0.9990(8) 0.2572(4)
H36 H 0.7048 1.0154 0.2847
C53 C 0.7862(9) 0.9115(7) 0.2546(4)
C54 C 0.8395(8) 0.8922(7) 0.2140(4)
H37 H 0.8739 0.8334 0.2117
C55 C 0.8461(8) 0.9528(7) 0.1766(4)
C56 C 0.8981(8) 0.9309(7) 0.1336(4)
C57 C 0.9507(8) 0.8454(7) 0.1265(4)
H38 H 0.9557 0.8018 0.1517
C58 C 0.7072(9) 0.7570(9) 0.3969(4)
C59 C 0.6990(8) 0.6849(7) 0.4357(4)
C60 C 0.6446(9) 0.7103(8) 0.4749(4)
H39 H 0.6152 0.7701 0.4778
C61 C 0.6339(9) 0.6457(8) 0.5104(4)
C62 C 0.6763(9) 0.5609(8) 0.5069(4)
H40 H 0.6682 0.5182 0.5312
C63 C 0.7324(9) 0.5354(8) 0.4676(4)
C64 C 0.7434(8) 0.5986(7) 0.4322(4)
H41 H 0.7818 0.5820 0.4056
C65 C 0.7771(9) 0.4396(8) 0.4640(4)
C66 C 0.5765(9) 0.6248(8) 0.5885(4)
H42 H 0.6395 0.5934 0.5945
H43 H 0.5441 0.5812 0.5875
C67 C 0.5307(8) 0.6824(8) 0.6258(4)
C68 C 0.5091(9) 0.7726(8) 0.6156(4)
H44 H 0.5242 0.7964 0.5857
C69 C 0.4670(9) 0.8277(8) 0.6477(5)
C70 C 0.4448(10) 0.7911(10) 0.6913(5)
H45 H 0.4152 0.8279 0.7142
C71 C 0.4660(11) 0.7004(10) 0.7016(4)
C72 C 0.5099(9) 0.6464(8) 0.6687(4)
H46 H 0.5256 0.5849 0.6758
C73 C 0.4546(11) 0.9555(9) 0.5964(5)
H47 H 0.4209 1.0181 0.5952
H48 H 0.4274 0.9288 0.5765
C74 C 0.5508(11) 0.9477(8) 0.5776(6)
C75 C 0.5787(11) 0.9314(9) 0.5333(5)
H49 H 0.5373 0.9226 0.5153
C76 C 0.6629(15) 0.9278(11) 0.5150(7)
H50 H 0.6816 0.9156 0.4845
C77 C 0.7237(14) 0.9425(12) 0.5418(9)
H51 H 0.7823 0.9439 0.5288
C78 C 0.6980(14) 0.9543(13) 0.5859(9)
H52 H 0.7406 0.9604 0.6041
C79 C 0.6107(14) 0.9579(10) 0.6057(7)
H53 H 0.5928 0.9669 0.6367
C80 C 0.4388(14) 0.5910(12) 0.7559(5)
H54 H 0.4988 0.5536 0.7637
H55 H 0.4230 0.5697 0.7297
C81 C 0.3671(15) 0.5865(10) 0.7972(5)
C82 C 0.3018(12) 0.5450(11) 0.7973(5)
H56 H 0.2990 0.5201 0.7709
C83 C 0.2410(13) 0.5386(14) 0.8343(7)
H57 H 0.1991 0.5064 0.8344
C84 C 0.2415(12) 0.5814(12) 0.8730(5)
H58 H 0.2001 0.5794 0.8993
C85 C 0.3043(15) 0.6248(12) 0.8698(7)
H59 H 0.3010 0.6594 0.8934
C86 C 0.3733(15) 0.6227(13) 0.8347(6)
H60 H 0.4220 0.6453 0.8367
C87 C 0.8294(15) 0.2447(16) 0.3226(6)
H61 H 0.8531 0.2923 0.3063
H62 H 0.8814 0.1917 0.3246
C88 C 0.7695(19) 0.2295(19) 0.2938(10)
H63 H 0.8026 0.2152 0.2643
H64 H 0.7189 0.2821 0.2894
H65 H 0.7465 0.1809 0.3082
C89 C 0.7516(14) 0.1823(12) 0.4081(11)
H66 H 0.7049 0.1761 0.3907
H67 H 0.8029 0.1287 0.4068
C90 C 0.7118(18) 0.1907(16) 0.4588(7)
H68 H 0.6910 0.1397 0.4711
H69 H 0.6609 0.2436 0.4604
H70 H 0.7585 0.1940 0.4766
C91 C 0.6873(12) 0.3604(13) 0.3816(9)
H71 H 0.6395 0.3397 0.3725
H72 H 0.6683 0.3769 0.4128
C92 C 0.6947(15) 0.4399(14) 0.3505(9)
H73 H 0.6361 0.4843 0.3515
H74 H 0.7131 0.4245 0.3194
H75 H 0.7398 0.4628 0.3601
C93 C 1.1269(10) 0.2841(11) 0.4141(5)
H76 H 1.1405 0.2228 0.4080
H77 H 1.1204 0.3204 0.3845
C94 C 1.2103(11) 0.2936(11) 0.4333(7)
H78 H 1.2637 0.2756 0.4116
H79 H 1.2197 0.2567 0.4622
H80 H 1.2002 0.3545 0.4381
C95 C 1.0383(12) 0.2470(13) 0.5021(5)
H81 H 1.0604 0.1844 0.4978
H82 H 1.0854 0.2620 0.5155
C96 C 0.9530(13) 0.2628(14) 0.5348(6)
H83 H 0.9657 0.2268 0.5637
H84 H 0.9063 0.2473 0.5218
H85 H 0.9317 0.3244 0.5398
C97 C 1.0057(12) 0.4205(10) 0.4617(7)
H86 H 0.9489 0.4387 0.4817
H87 H 1.0562 0.4193 0.4787
C98 C 1.0029(13) 0.4868(11) 0.4196(7)
H88 H 0.9952 0.5444 0.4289
H89 H 0.9523 0.4890 0.4031
H90 H 1.0595 0.4696 0.4000
C99 C 1.110(2) 0.125(2) 0.1008(11)
H91 H 1.0552 0.1129 0.0938
H92 H 1.1172 0.1772 0.0809
C100 C 1.176(2) 0.063(2) 0.0917(10)
H93 H 1.1807 0.0563 0.0593
H94 H 1.1675 0.0094 0.1096
H95 H 1.2305 0.0731 0.0989
C101 C 1.036(2) 0.074(2) 0.1924(11)
H96 H 1.0265 0.0824 0.2251
H97 H 0.9772 0.0824 0.1812
C102 C 1.102(3) -0.018(2) 0.1844(15)
H98 H 1.0750 -0.0632 0.2007
H99 H 1.1596 -0.0249 0.1957
H100 H 1.1111 -0.0246 0.1519
C103 C 1.0029(19) 0.2495(18) 0.1554(10)
H101 H 1.0260 0.2969 0.1383
H102 H 0.9548 0.2424 0.1393
C104 C 0.965(2) 0.272(2) 0.2050(11)
H103 H 0.9165 0.3269 0.2038
H104 H 1.0134 0.2776 0.2208
H105 H 0.9410 0.2252 0.2214
C105 C 1.4407(10) 0.1169(12) 0.1879(6)
H106 H 1.4387 0.0569 0.1996
H107 H 1.4393 0.1233 0.1546
C106 C 1.5264(15) 0.1264(15) 0.1971(8)
H108 H 1.5763 0.0827 0.1826
H109 H 1.5301 0.1179 0.2300
H110 H 1.5304 0.1848 0.1850
C107 C 1.3505(12) 0.1709(13) 0.2710(6)
H111 H 1.3444 0.1118 0.2813
H112 H 1.4125 0.1703 0.2752
C108 C 1.2816(14) 0.2371(13) 0.3009(6)
H113 H 1.2929 0.2201 0.3328
H114 H 1.2202 0.2372 0.2973
H115 H 1.2885 0.2955 0.2914
C109 C 1.3539(12) 0.3000(10) 0.1939(6)
H116 H 1.4014 0.3075 0.2103
H117 H 1.3747 0.3030 0.1611
C110 C 1.2672(14) 0.3716(14) 0.2024(7)
H118 H 1.2777 0.4283 0.1920
H119 H 1.2471 0.3684 0.2349
H120 H 1.2207 0.3642 0.1857
C111 C 0.8969(16) 0.7012(16) 0.0057(7)
H121 H 0.8505 0.6727 0.0024
H122 H 0.8709 0.7651 0.0001
C112 C 0.983(2) 0.669(2) -0.0282(11)
H123 H 0.9668 0.6840 -0.0594
H124 H 1.0078 0.6058 -0.0221
H125 H 1.0285 0.6974 -0.0241
C113 C 0.9491(15) 0.5539(14) 0.0733(7)
H126 H 0.8922 0.5428 0.0686
H127 H 0.9975 0.5231 0.0515
C114 C 0.9717(14) 0.5196(14) 0.1206(7)
H128 H 0.9783 0.4569 0.1255
H129 H 0.9232 0.5494 0.1422
H130 H 1.0284 0.5300 0.1252
C115 C 0.8373(11) 0.7234(10) 0.0972(6)
H131 H 0.8508 0.7113 0.1293
H132 H 0.8257 0.7869 0.0887
C116 C 0.7484(12) 0.7003(13) 0.0948(7)
H133 H 0.7000 0.7344 0.1150
H134 H 0.7572 0.6381 0.1044
H135 H 0.7321 0.7139 0.0636
C117 C 1.3002(12) 0.6437(11) 0.0878(7)
H136 H 1.3146 0.6238 0.0572
H137 H 1.3479 0.6691 0.0928
C118 C 1.3016(14) 0.5633(12) 0.1238(7)
H138 H 1.3608 0.5201 0.1206
H139 H 1.2548 0.5374 0.1190
H140 H 1.2900 0.5819 0.1543
C119 C 1.190(3) 0.767(3) 0.1354(13)
H141 H 1.2521 0.7683 0.1382
H142 H 1.1519 0.8280 0.1324
C120 C 1.1610(19) 0.7274(19) 0.1742(10)
H143 H 1.1626 0.7591 0.1994
H144 H 1.1999 0.6675 0.1790
H145 H 1.0990 0.7266 0.1727
C121 C 1.2239(19) 0.8146(18) 0.0374(9)
H146 H 1.2356 0.7886 0.0085
H147 H 1.1727 0.8682 0.0349
C122 C 1.292(3) 0.833(2) 0.0449(13)
H148 H 1.3067 0.8746 0.0201
H149 H 1.3425 0.7798 0.0468
H150 H 1.2798 0.8587 0.0736
C123 C 0.7106(12) 0.7470(11) 0.2176(6)
H151 H 0.6614 0.7374 0.2034
H152 H 0.7370 0.7884 0.1967
C124 C 0.7848(13) 0.6586(12) 0.2280(7)
H153 H 0.8100 0.6329 0.1997
H154 H 0.7577 0.6184 0.2487
H155 H 0.8328 0.6692 0.2422
C125 C 0.6222(12) 0.7084(11) 0.3083(6)
H156 H 0.6741 0.6580 0.3162
H157 H 0.5909 0.7310 0.3370
C126 C 0.5570(14) 0.6754(14) 0.2864(7)
H158 H 0.5375 0.6309 0.3077
H159 H 0.5876 0.6502 0.2586
H160 H 0.5042 0.7241 0.2791
C127 C 0.5735(13) 0.8798(11) 0.2568(6)
H161 H 0.5956 0.9235 0.2356
H162 H 0.5338 0.8584 0.2412
C128 C 0.5215(13) 0.9204(13) 0.2998(7)
H163 H 0.4696 0.9691 0.2912
H164 H 0.5615 0.9415 0.3148
H165 H 0.5004 0.8763 0.3206
C129 C 0.9744(13) 0.7337(14) 0.3530(8)
H166 H 1.0293 0.7424 0.3621
H167 H 0.9450 0.7051 0.3797
C130 C 1.001(2) 0.674(2) 0.3141(10)
H168 H 1.0422 0.6183 0.3244
H169 H 1.0304 0.7026 0.2878
H170 H 0.9464 0.6651 0.3055
C131 C 0.8712(16) 0.8811(15) 0.3902(7)
H171 H 0.8566 0.8354 0.4131
H172 H 0.9263 0.8912 0.3983
C132 C 0.8028(18) 0.9556(17) 0.3941(9)
H173 H 0.7946 0.9707 0.4252
H174 H 0.7471 0.9469 0.3868
H175 H 0.8175 1.0029 0.3730
C133 C 0.964(2) 0.904(2) 0.3002(12)
H176 H 0.9425 0.9239 0.2698
H177 H 0.9618 0.9557 0.3151
C134 C 1.045(5) 0.851(5) 0.298(2)
H178 H 1.0853 0.8788 0.2771
H179 H 1.0437 0.7980 0.2858
H180 H 1.0661 0.8361 0.3278
O15 O 0.5633(17) 0.2165(15) 0.0716(8)
C135 C 0.4826(13) 0.3517(12) 0.1000(6)
H181 H 0.4676 0.3159 0.1275
H182 H 0.4273 0.3837 0.0859
H183 H 0.5113 0.3931 0.1078
C136 C 0.5422(19) 0.2977(16) 0.0693(8)
C137 C 0.5513(17) 0.3703(16) 0.0311(8)
H184 H 0.5920 0.3446 0.0056
H185 H 0.5759 0.4114 0.0425
H186 H 0.4919 0.4012 0.0209
O16 O 0.0660(17) 0.4006(16) 0.3017(8)
C138 C 0.032(2) 0.506(2) 0.2393(10)
H187 H 0.0975 0.4903 0.2310
H188 H 0.0109 0.5662 0.2469
H189 H 0.0019 0.5009 0.2137
C139 C 0.013(2) 0.4509(18) 0.2763(10)
C140 C -0.088(2) 0.462(3) 0.2810(16)
H190 H -0.1031 0.4215 0.3065
H191 H -0.1048 0.4492 0.2530
H192 H -0.1207 0.5218 0.2867
O17 O 0.4276(18) 0.7970(18) 0.4339(9)
C141 C 0.4215(15) 0.7326(15) 0.3719(7)
H193 H 0.4029 0.7935 0.3587
H194 H 0.3748 0.7048 0.3694
H195 H 0.4784 0.7018 0.3557
C142 C 0.4330(11) 0.7292(15) 0.4166(7)
C143 C 0.459(2) 0.6323(16) 0.4338(10)
H196 H 0.4655 0.6249 0.4663
H197 H 0.5163 0.6026 0.4175
H198 H 0.4118 0.6072 0.4287
loop_
_geom_bond_atom_site_label_1
_geom_bond_atom_site_label_2
_geom_bond_site_symmetry_1
_geom_bond_site_symmetry_2
Pt1 P1 1_555 1_555
Pt2 P3 1_555 1_555
Pt3 P5 1_555 1_555
Pt4 P7 1_555 1_555
P1 C87 1_555 1_555
P2 Pt1 1_555 1_555
P3 C99 1_555 1_555
P4 Pt2 1_555 1_555
P5 C111 1_555 1_555
P6 Pt3 1_555 1_555
P7 C123 1_555 1_555
P8 Pt4 1_555 1_555
O1 Pt2 1_555 1_555
O2 C15 1_555 1_555
O3 Pt3 1_555 1_555
O4 C22 1_555 1_555
O5 C18 1_555 1_555
O6 C26 1_555 1_555
O7 C28 1_555 1_555
O8 Pt4 1_555 1_555
O9 C58 1_555 1_555
O10 Pt1 1_555 1_555
O11 C65 1_555 1_555
O12 C61 1_555 1_555
O13 C69 1_555 1_555
O14 C71 1_555 1_555
C1 Pt1 1_555 1_555
C2 C1 1_555 1_555
H1 C2 1_555 1_555
C3 C2 1_555 1_555
H2 C3 1_555 1_555
C4 C3 1_555 1_555
C5 C4 1_555 1_555
H3 C5 1_555 1_555
C6 C5 1_555 1_555
H4 C6 1_555 1_555
C7 C6 1_555 1_555
C8 C7 1_555 1_555
H5 C8 1_555 1_555
C9 C8 1_555 1_555
H6 C9 1_555 1_555
C10 Pt2 1_555 1_555
C11 C10 1_555 1_555
H7 C11 1_555 1_555
C12 C7 1_555 1_555
C13 C4 1_555 1_555
C14 C1 1_555 1_555
H8 C14 1_555 1_555
C15 O1 1_555 1_555
C16 C15 1_555 1_555
C17 C16 1_555 1_555
H9 C17 1_555 1_555
C18 C17 1_555 1_555
C19 C18 1_555 1_555
H10 C19 1_555 1_555
C20 C19 1_555 1_555
C21 C16 1_555 1_555
H11 C21 1_555 1_555
C22 O3 1_555 1_555
C23 O5 1_555 1_555
H12 C23 1_555 1_555
H13 C23 1_555 1_555
C24 C23 1_555 1_555
C25 C24 1_555 1_555
H14 C25 1_555 1_555
C26 C25 1_555 1_555
C27 C26 1_555 1_555
H15 C27 1_555 1_555
C28 C27 1_555 1_555
C29 C24 1_555 1_555
H16 C29 1_555 1_555
C30 O6 1_555 1_555
H17 C30 1_555 1_555
H18 C30 1_555 1_555
C31 C30 1_555 1_555
C32 C31 1_555 1_555
H19 C32 1_555 1_555
C33 C32 1_555 1_555
H20 C33 1_555 1_555
C34 C33 1_555 1_555
H21 C34 1_555 1_555
C35 C34 1_555 1_555
H22 C35 1_555 1_555
C36 C31 1_555 1_555
H23 C36 1_555 1_555
C37 O7 1_555 1_555
H24 C37 1_555 1_555
H25 C37 1_555 1_555
C38 C37 1_555 1_555
C39 C38 1_555 1_555
H26 C39 1_555 1_555
C40 C39 1_555 1_555
H27 C40 1_555 1_555
C41 C40 1_555 1_555
H28 C41 1_555 1_555
C42 C41 1_555 1_555
H29 C42 1_555 1_555
C43 C38 1_555 1_555
H30 C43 1_555 1_555
C44 Pt3 1_555 1_555
C45 C44 1_555 1_555
H31 C45 1_555 1_555
C46 C45 1_555 1_555
H32 C46 1_555 1_555
C47 C46 1_555 1_555
C48 C47 1_555 1_555
H33 C48 1_555 1_555
C49 C48 1_555 1_555
H34 C49 1_555 1_555
C50 C49 1_555 1_555
C51 C50 1_555 1_555
H35 C51 1_555 1_555
C52 C51 1_555 1_555
H36 C52 1_555 1_555
C53 Pt4 1_555 1_555
C54 C53 1_555 1_555
H37 C54 1_555 1_555
C55 C50 1_555 1_555
C56 C47 1_555 1_555
C57 C44 1_555 1_555
H38 C57 1_555 1_555
C58 O8 1_555 1_555
C59 C58 1_555 1_555
C60 C59 1_555 1_555
H39 C60 1_555 1_555
C61 C60 1_555 1_555
C62 C61 1_555 1_555
H40 C62 1_555 1_555
C63 C62 1_555 1_555
C64 C59 1_555 1_555
H41 C64 1_555 1_555
C65 O10 1_555 1_555
C66 O12 1_555 1_555
H42 C66 1_555 1_555
H43 C66 1_555 1_555
C67 C66 1_555 1_555
C68 C67 1_555 1_555
H44 C68 1_555 1_555
C69 C68 1_555 1_555
C70 C69 1_555 1_555
H45 C70 1_555 1_555
C71 C70 1_555 1_555
C72 C67 1_555 1_555
H46 C72 1_555 1_555
C73 O13 1_555 1_555
H47 C73 1_555 1_555
H48 C73 1_555 1_555
C74 C73 1_555 1_555
C75 C74 1_555 1_555
H49 C75 1_555 1_555
C76 C75 1_555 1_555
H50 C76 1_555 1_555
C77 C76 1_555 1_555
H51 C77 1_555 1_555
C78 C77 1_555 1_555
H52 C78 1_555 1_555
C79 C74 1_555 1_555
H53 C79 1_555 1_555
C80 O14 1_555 1_555
H54 C80 1_555 1_555
H55 C80 1_555 1_555
C81 C80 1_555 1_555
C82 C81 1_555 1_555
H56 C82 1_555 1_555
C83 C82 1_555 1_555
H57 C83 1_555 1_555
C84 C83 1_555 1_555
H58 C84 1_555 1_555
C85 C84 1_555 1_555
H59 C85 1_555 1_555
C86 C81 1_555 1_555
H60 C86 1_555 1_555
C87 H61 1_555 1_555
H62 C87 1_555 1_555
C88 C87 1_555 1_555
H63 C88 1_555 1_555
H64 C88 1_555 1_555
H65 C88 1_555 1_555
C89 P1 1_555 1_555
H66 C89 1_555 1_555
H67 C89 1_555 1_555
C90 C89 1_555 1_555
H68 C90 1_555 1_555
H69 C90 1_555 1_555
H70 C90 1_555 1_555
C91 P1 1_555 1_555
H71 C91 1_555 1_555
H72 C91 1_555 1_555
C92 C91 1_555 1_555
H73 C92 1_555 1_555
H74 C92 1_555 1_555
H75 C92 1_555 1_555
C93 P2 1_555 1_555
H76 C93 1_555 1_555
H77 C93 1_555 1_555
C94 C93 1_555 1_555
H78 C94 1_555 1_555
H79 C94 1_555 1_555
H80 C94 1_555 1_555
C95 P2 1_555 1_555
H81 C95 1_555 1_555
H82 C95 1_555 1_555
C96 C95 1_555 1_555
H83 C96 1_555 1_555
H84 C96 1_555 1_555
H85 C96 1_555 1_555
C97 P2 1_555 1_555
H86 C97 1_555 1_555
H87 C97 1_555 1_555
C98 C97 1_555 1_555
H88 C98 1_555 1_555
H89 C98 1_555 1_555
H90 C98 1_555 1_555
C99 H91 1_555 1_555
H92 C99 1_555 1_555
C100 C99 1_555 1_555
H93 C100 1_555 1_555
H94 C100 1_555 1_555
H95 C100 1_555 1_555
C101 P3 1_555 1_555
H96 C101 1_555 1_555
H97 C101 1_555 1_555
C102 C101 1_555 1_555
H98 C102 1_555 1_555
H99 C102 1_555 1_555
H100 C102 1_555 1_555
C103 P3 1_555 1_555
H101 C103 1_555 1_555
H102 C103 1_555 1_555
C104 C103 1_555 1_555
H103 C104 1_555 1_555
H104 C104 1_555 1_555
H105 C104 1_555 1_555
C105 P4 1_555 1_555
H106 C105 1_555 1_555
H107 C105 1_555 1_555
C106 C105 1_555 1_555
H108 C106 1_555 1_555
H109 C106 1_555 1_555
H110 C106 1_555 1_555
C107 P4 1_555 1_555
H111 C107 1_555 1_555
H112 C107 1_555 1_555
C108 C107 1_555 1_555
H113 C108 1_555 1_555
H114 C108 1_555 1_555
H115 C108 1_555 1_555
C109 P4 1_555 1_555
H116 C109 1_555 1_555
H117 C109 1_555 1_555
C110 C109 1_555 1_555
H118 C110 1_555 1_555
H119 C110 1_555 1_555
H120 C110 1_555 1_555
C111 H121 1_555 1_555
H122 C111 1_555 1_555
C112 C111 1_555 1_555
H123 C112 1_555 1_555
H124 C112 1_555 1_555
H125 C112 1_555 1_555
C113 P5 1_555 1_555
H126 C113 1_555 1_555
H127 C113 1_555 1_555
C114 C113 1_555 1_555
H128 C114 1_555 1_555
H129 C114 1_555 1_555
H130 C114 1_555 1_555
C115 P5 1_555 1_555
H131 C115 1_555 1_555
H132 C115 1_555 1_555
C116 C115 1_555 1_555
H133 C116 1_555 1_555
H134 C116 1_555 1_555
H135 C116 1_555 1_555
C117 P6 1_555 1_555
H136 C117 1_555 1_555
H137 C117 1_555 1_555
C118 C117 1_555 1_555
H138 C118 1_555 1_555
H139 C118 1_555 1_555
H140 C118 1_555 1_555
C119 P6 1_555 1_555
H141 C119 1_555 1_555
H142 C119 1_555 1_555
C120 C119 1_555 1_555
H143 C120 1_555 1_555
H144 C120 1_555 1_555
H145 C120 1_555 1_555
C121 P6 1_555 1_555
H146 C121 1_555 1_555
H147 C121 1_555 1_555
C122 C121 1_555 1_555
H148 C122 1_555 1_555
H149 C122 1_555 1_555
H150 C122 1_555 1_555
C123 H151 1_555 1_555
H152 C123 1_555 1_555
C124 C123 1_555 1_555
H153 C124 1_555 1_555
H154 C124 1_555 1_555
H155 C124 1_555 1_555
C125 P7 1_555 1_555
H156 C125 1_555 1_555
H157 C125 1_555 1_555
C126 C125 1_555 1_555
H158 C126 1_555 1_555
H159 C126 1_555 1_555
H160 C126 1_555 1_555
C127 P7 1_555 1_555
H161 C127 1_555 1_555
H162 C127 1_555 1_555
C128 C127 1_555 1_555
H163 C128 1_555 1_555
H164 C128 1_555 1_555
H165 C128 1_555 1_555
C129 P8 1_555 1_555
H166 C129 1_555 1_555
H167 C129 1_555 1_555
C130 C129 1_555 1_555
H168 C130 1_555 1_555
H169 C130 1_555 1_555
H170 C130 1_555 1_555
C131 P8 1_555 1_555
H171 C131 1_555 1_555
H172 C131 1_555 1_555
C132 C131 1_555 1_555
H173 C132 1_555 1_555
H174 C132 1_555 1_555
H175 C132 1_555 1_555
C133 P8 1_555 1_555
H176 C133 1_555 1_555
H177 C133 1_555 1_555
C134 C133 1_555 1_555
H178 C134 1_555 1_555
H179 C134 1_555 1_555
H180 C134 1_555 1_555
O15 C136 1_555 1_555
C135 H181 1_555 1_555
H182 C135 1_555 1_555
H183 C135 1_555 1_555
C136 C135 1_555 1_555
C137 C136 1_555 1_555
H184 C137 1_555 1_555
H185 C137 1_555 1_555
H186 C137 1_555 1_555
O16 C139 1_555 1_555
C138 H187 1_555 1_555
H188 C138 1_555 1_555
H189 C138 1_555 1_555
C139 C138 1_555 1_555
C140 C139 1_555 1_555
H190 C140 1_555 1_555
H191 C140 1_555 1_555
H192 C140 1_555 1_555
O17 C142 1_555 1_555
C141 H193 1_555 1_555
H194 C141 1_555 1_555
H195 C141 1_555 1_555
C142 C141 1_555 1_555
C143 C142 1_555 1_555
H196 C143 1_555 1_555
H197 C143 1_555 1_555
H198 C143 1_555 1_555
C9 C10 1_555 1_555
C11 C12 1_555 1_555
C12 C13 1_555 1_555
C13 C14 1_555 1_555
C20 C21 1_555 1_555
C20 C22 1_555 1_555
C28 C29 1_555 1_555
C35 C36 1_555 1_555
C42 C43 1_555 1_555
C52 C53 1_555 1_555
C54 C55 1_555 1_555
C55 C56 1_555 1_555
C56 C57 1_555 1_555
C63 C64 1_555 1_555
C63 C65 1_555 1_555
C71 C72 1_555 1_555
C78 C79 1_555 1_555
C85 C86 1_555 1_555

#END
