
#######################################################################
#
#                 Cambridge Crystallographic Data Centre
#                                CCDC 
#
#######################################################################
#
# If this CIF has been generated from an entry in the Cambridge 
# Structural Database, then it will include bibliographic, chemical, 
# crystal, experimental, refinement or atomic coordinate data resulting 
# from the CCDC's data processing and validation procedures.
#
#######################################################################

data_HUQVUL
_chemical_formula_moiety         'C84 H88 N8 O34 Zn6,2(C1 H4 O1)'
_chemical_name_systematic        
'meso-bis(\m~4~-1,5-bis(2-Oxido-3-(8-(2-oxido-3-methoxyphenyl)-3,6-dioxa-2,7-diazaocta-1,7-dien-1-yl)phenoxy)-3-oxapentane)-tetrakis(acetato-O)-hexa-zinc(ii) methanol solvate'
_symmetry_cell_setting           triclinic
_symmetry_space_group_name_H-M   'P -1'
_symmetry_Int_Tables_number      2
_space_group_name_Hall           '-P 1'
loop_
_symmetry_equiv_pos_site_id
_symmetry_equiv_pos_as_xyz
1 x,y,z
2 -x,-y,-z
_cell_length_a                   9.595(3)
_cell_length_b                   12.418(3)
_cell_length_c                   18.678(6)
_cell_angle_alpha                92.155(11)
_cell_angle_beta                 96.393(12)
_cell_angle_gamma                90.151(10)
_cell_volume                     2210.04
_exptl_crystal_colour            colorless
_exptl_crystal_description       prismatic
_cell_formula_units_Z            1
loop_
_atom_site_label
_atom_site_type_symbol
_atom_site_fract_x
_atom_site_fract_y
_atom_site_fract_z
Zn1 Zn 0.3723(2) 0.49245(14) 0.17796(11)
Zn2 Zn 0.3678(2) 0.31382(14) 0.29273(11)
Zn3 Zn 0.3301(2) 0.06564(14) 0.31356(12)
C1 C 0.4396(18) 0.2658(13) 0.0820(10)
C2 C 0.4969(16) 0.2748(14) 0.1521(11)
C3 C 0.6077(18) 0.2031(12) 0.1768(10)
C4 C 0.6479(16) 0.1241(13) 0.1290(12)
H1 H 0.7173 0.0732 0.1449
C5 C 0.5861(18) 0.1193(13) 0.0573(10)
H2 H 0.6179 0.0677 0.0240
C6 C 0.4808(17) 0.1882(13) 0.0348(10)
H3 H 0.4364 0.1823 -0.0133
O1 O 0.4575(10) 0.3446(7) 0.2015(6)
O2 O 0.6580(12) 0.2154(9) 0.2466(7)
C7 C 0.7644(17) 0.1420(13) 0.2740(10)
H4 H 0.7232 0.0701 0.2762
H5 H 0.8041 0.1670 0.3224
H6 H 0.8388 0.1388 0.2420
C8 C 0.3233(17) 0.3329(13) 0.0531(9)
H7 H 0.2737 0.3120 0.0078
N1 N 0.2857(13) 0.4165(11) 0.0849(7)
O3 O 0.1586(10) 0.4614(8) 0.0491(6)
C9 C 0.1898(18) 0.5543(12) 0.0109(10)
H8 H 0.0998 0.5850 -0.0098
H9 H 0.2406 0.5299 -0.0301
C10 C 0.2733(19) 0.6429(12) 0.0509(9)
H10 H 0.3665 0.6150 0.0692
H11 H 0.2879 0.7006 0.0172
O4 O 0.2068(11) 0.6885(8) 0.1107(7)
N2 N 0.2185(13) 0.6187(9) 0.1678(7)
C11 C 0.1423(17) 0.6528(13) 0.2160(10)
H12 H 0.0921 0.7175 0.2069
C12 C 0.1259(18) 0.6030(14) 0.2816(11)
C13 C 0.1990(19) 0.5080(13) 0.3074(10)
C14 C 0.162(2) 0.4625(14) 0.3657(11)
C15 C 0.0594(19) 0.4991(15) 0.4081(10)
H13 H 0.0371 0.4631 0.4494
C16 C -0.0067(19) 0.5921(15) 0.3848(11)
H14 H -0.0767 0.6220 0.4117
C17 C 0.0241(18) 0.6432(12) 0.3247(11)
H15 H -0.0242 0.7074 0.3117
O5 O 0.2983(10) 0.4622(7) 0.2702(6)
O6 O 0.2368(12) 0.3686(9) 0.3833(6)
C18 C 0.196(2) 0.2982(13) 0.4382(10)
H16 H 0.1933 0.2223 0.4197
H17 H 0.1016 0.3177 0.4507
C19 C 0.303(2) 0.3112(12) 0.5048(11)
H18 H 0.2870 0.2543 0.5386
H19 H 0.3986 0.3011 0.4901
O7 O 0.2968(12) 0.4147(8) 0.5413(7)
C20 C 0.384(2) 0.4247(17) 0.6066(10)
H20 H 0.4829 0.4221 0.5966
H21 H 0.3666 0.3628 0.6364
C21 C 0.3592(17) 0.5292(13) 0.6488(11)
H22 H 0.2601 0.5512 0.6388
H23 H 0.3794 0.5183 0.7012
O8 O 0.4524(11) 0.6135(9) 0.6269(7)
C22 C 0.3912(18) 0.6920(15) 0.5833(10)
C23 C 0.4454(17) 0.7944(14) 0.5976(9)
C24 C 0.3863(19) 0.8793(14) 0.5570(12)
C25 C 0.2785(19) 0.8596(14) 0.5066(10)
H24 H 0.2366 0.9185 0.4814
C26 C 0.2250(18) 0.7571(13) 0.4894(11)
H25 H 0.1510 0.7442 0.4518
C27 C 0.2858(19) 0.6729(13) 0.5303(10)
H26 H 0.2519 0.6013 0.5204
O9 O 0.4432(11) 0.1933(7) 0.3514(6)
C28 C 0.4185(19) 0.9899(15) 0.5789(10)
H27 H 0.3636 1.0422 0.5529
N3 N 0.4912(14) -0.0269(10) 0.3726(9)
O10 O 0.4981(13) -0.1397(9) 0.3645(8)
C29 C 0.412(2) -0.1814(14) 0.3046(14)
H28 H 0.3945 -0.2588 0.3112
H29 H 0.3200 -0.1444 0.3023
C30 C 0.472(3) -0.1691(15) 0.2328(13)
H30 H 0.4063 -0.2032 0.1938
H31 H 0.5614 -0.2093 0.2344
O11 O 0.4978(12) -0.0616(9) 0.2147(7)
N4 N 0.3692(12) 0.0050(9) 0.2166(9)
C31 C 0.3186(19) 0.0221(14) 0.1536(11)
H32 H 0.3561 -0.0122 0.1138
C32 C 0.2008(19) 0.0959(15) 0.1425(12)
C33 C 0.1713(17) 0.1783(12) 0.1936(13)
C34 C 0.0514(17) 0.2465(14) 0.1710(10)
C35 C -0.0137(17) 0.2350(13) 0.1013(10)
H33 H -0.0875 0.2833 0.0875
C36 C 0.018(2) 0.1617(15) 0.0519(12)
H34 H -0.0336 0.1569 0.0055
C37 C 0.128(2) 0.0934(14) 0.0692(10)
H35 H 0.1564 0.0442 0.0336
O12 O 0.2383(11) 0.1895(8) 0.2585(6)
O13 O 0.0278(12) 0.3178(9) 0.2235(7)
C38 C -0.078(2) 0.3927(13) 0.2045(10)
H36 H -0.1644 0.3544 0.1861
H37 H -0.0935 0.4376 0.2470
H38 H -0.0483 0.4383 0.1671
O14 O 0.5356(12) 0.5871(8) 0.2015(7)
O15 O 0.5909(11) 0.5193(10) 0.1022(8)
C39 C 0.615(2) 0.5798(13) 0.1562(13)
C40 C 0.7520(18) 0.6389(14) 0.1683(11)
H39 H 0.7918 0.6330 0.2186
H40 H 0.7372 0.7150 0.1577
H41 H 0.8169 0.6073 0.1364
O16 O 0.1841(13) 0.0371(9) 0.3777(7)
O17 O 0.0898(12) -0.0449(10) 0.2817(8)
C41 C 0.081(2) -0.0127(15) 0.3477(13)
C42 C -0.038(2) -0.0398(13) 0.3875(11)
H42 H -0.0024 -0.0708 0.4334
H43 H -0.0911 0.0255 0.3967
H44 H -0.0992 -0.0924 0.3588
Zn1A Zn 0.6277(2) 0.50755(14) 0.82204(11)
Zn2A Zn 0.6322(2) 0.68618(14) 0.70727(11)
Zn3A Zn 0.6699(2) 0.93436(14) 0.68644(12)
C1A C 0.5604(18) 0.7342(13) 0.9180(10)
C2A C 0.5031(16) 0.7252(14) 0.8479(11)
C3A C 0.3923(18) 0.7969(12) 0.8232(10)
C4A C 0.3521(16) 0.8759(13) 0.8710(12)
H1A H 0.2827 0.9268 0.8551
C5A C 0.4139(18) 0.8807(13) 0.9427(10)
H2A H 0.3821 0.9323 0.9760
C6A C 0.5192(17) 0.8118(13) 0.9652(10)
H3A H 0.5636 0.8177 1.0133
O1A O 0.5425(10) 0.6554(7) 0.7985(6)
O2A O 0.3420(12) 0.7846(9) 0.7534(7)
C7A C 0.2356(17) 0.8580(13) 0.7260(10)
H4A H 0.2768 0.9299 0.7238
H5A H 0.1959 0.8330 0.6776
H6A H 0.1612 0.8612 0.7580
C8A C 0.6767(17) 0.6671(13) 0.9469(9)
H7A H 0.7263 0.6880 0.9922
N1A N 0.7143(13) 0.5835(11) 0.9151(7)
O3A O 0.8414(10) 0.5386(8) 0.9509(6)
C9A C 0.8102(18) 0.4457(12) 0.9891(10)
H8A H 0.9002 0.4150 1.0098
H9A H 0.7594 0.4701 1.0301
C10A C 0.7267(19) 0.3571(12) 0.9491(9)
H10A H 0.6335 0.3850 0.9308
H11A H 0.7121 0.2994 0.9828
O4A O 0.7932(11) 0.3115(8) 0.8893(7)
N2A N 0.7815(13) 0.3813(9) 0.8322(7)
C11A C 0.8577(17) 0.3472(13) 0.7840(10)
H12A H 0.9079 0.2825 0.7931
C12A C 0.8741(18) 0.3970(14) 0.7184(11)
C13A C 0.8010(19) 0.4920(13) 0.6926(10)
C14A C 0.838(2) 0.5375(14) 0.6343(11)
C15A C 0.9406(19) 0.5009(15) 0.5919(10)
H13A H 0.9629 0.5369 0.5506
C16A C 1.0067(19) 0.4079(15) 0.6152(11)
H14A H 1.0767 0.3780 0.5883
C17A C 0.9759(18) 0.3568(12) 0.6753(11)
H15A H 1.0242 0.2926 0.6883
O5A O 0.7017(10) 0.5378(7) 0.7298(6)
O6A O 0.7632(12) 0.6314(9) 0.6167(6)
C18A C 0.804(2) 0.7018(13) 0.5618(10)
H16A H 0.8067 0.7777 0.5803
H17A H 0.8984 0.6823 0.5493
C19A C 0.697(2) 0.6888(12) 0.4952(11)
H18A H 0.7130 0.7457 0.4614
H19A H 0.6014 0.6989 0.5099
O7A O 0.7032(12) 0.5853(8) 0.4587(7)
C20A C 0.616(2) 0.5753(17) 0.3934(10)
H20A H 0.5171 0.5779 0.4034
H21A H 0.6334 0.6372 0.3636
C21A C 0.6408(17) 0.4708(13) 0.3512(11)
H22A H 0.7399 0.4488 0.3612
H23A H 0.6206 0.4817 0.2988
O8A O 0.5476(11) 0.3865(9) 0.3731(7)
C22A C 0.6088(18) 0.3080(15) 0.4167(10)
C23A C 0.5546(17) 0.2056(14) 0.4024(9)
C24A C 0.6137(19) 0.1207(14) 0.4430(12)
C25A C 0.7215(19) 0.1404(14) 0.4934(10)
H24A H 0.7634 0.0815 0.5186
C26A C 0.7750(18) 0.2429(13) 0.5106(11)
H25A H 0.8490 0.2558 0.5482
C27A C 0.7142(19) 0.3271(13) 0.4697(10)
H26A H 0.7481 0.3987 0.4796
O9A O 0.5568(11) 0.8067(7) 0.6486(6)
C28A C 0.5815(19) 0.0101(15) 0.4211(10)
H27A H 0.6364 -0.0422 0.4471
N3A N 0.5088(14) 1.0269(10) 0.6274(9)
O10A O 0.5019(13) 1.1397(9) 0.6355(8)
C29A C 0.588(2) 1.1814(14) 0.6954(14)
H28A H 0.6055 1.2588 0.6888
H29A H 0.6800 1.1444 0.6977
C30A C 0.528(3) 1.1691(15) 0.7672(13)
H30A H 0.5937 1.2032 0.8062
H31A H 0.4386 1.2093 0.7656
O11A O 0.5022(12) 1.0616(9) 0.7853(7)
N4A N 0.6308(12) 0.9950(9) 0.7834(9)
C31A C 0.6814(19) 0.9779(14) 0.8464(11)
H32A H 0.6439 1.0122 0.8862
C32A C 0.7992(19) 0.9041(15) 0.8575(12)
C33A C 0.8287(17) 0.8217(12) 0.8064(13)
C34A C 0.9486(17) 0.7535(14) 0.8290(10)
C35A C 1.0137(17) 0.7650(13) 0.8987(10)
H33A H 1.0875 0.7167 0.9125
C36A C 0.982(2) 0.8383(15) 0.9481(12)
H34A H 1.0336 0.8431 0.9945
C37A C 0.872(2) 0.9066(14) 0.9308(10)
H35A H 0.8436 0.9558 0.9664
O12A O 0.7617(11) 0.8105(8) 0.7415(6)
O13A O 0.9722(12) 0.6822(9) 0.7765(7)
C38A C 1.078(2) 0.6073(13) 0.7955(10)
H36A H 1.1644 0.6456 0.8139
H37A H 1.0935 0.5624 0.7530
H38A H 1.0483 0.5617 0.8329
O14A O 0.4644(12) 0.4129(8) 0.7985(7)
O15A O 0.4091(11) 0.4807(10) 0.8978(8)
C39A C 0.385(2) 0.4202(13) 0.8438(13)
C40A C 0.2480(18) 0.3611(14) 0.8317(11)
H39A H 0.2082 0.3670 0.7814
H40A H 0.2628 0.2850 0.8423
H41A H 0.1831 0.3927 0.8636
O16A O 0.8159(13) 0.9629(9) 0.6223(7)
O17A O 0.9102(12) 1.0449(10) 0.7183(8)
C41A C 0.919(2) 1.0127(15) 0.6523(13)
C42A C 1.038(2) 1.0398(13) 0.6125(11)
H42A H 1.0024 1.0708 0.5666
H43A H 1.0911 0.9745 0.6033
H44A H 1.0992 1.0924 0.6412
O18 O 1.1389(14) 1.1187(14) 0.8009(9)
H45 H 1.0653 1.1124 0.7721
C43 C 1.107(2) 1.1120(14) 0.8704(11)
H46 H 1.1930 1.1156 0.9037
H47 H 1.0580 1.0436 0.8754
H48 H 1.0455 1.1720 0.8816
loop_
_geom_bond_atom_site_label_1
_geom_bond_atom_site_label_2
_geom_bond_site_symmetry_1
_geom_bond_site_symmetry_2
Zn1 O1 1_555 1_555
Zn2 O1 1_555 1_555
Zn3 O9 1_555 1_555
C1 C2 1_555 1_555
C2 C3 1_555 1_555
C3 C4 1_555 1_555
C4 H1 1_555 1_555
C5 C4 1_555 1_555
H2 C5 1_555 1_555
C6 C1 1_555 1_555
H3 C6 1_555 1_555
O1 C2 1_555 1_555
O2 C3 1_555 1_555
C7 O2 1_555 1_555
H4 C7 1_555 1_555
H5 C7 1_555 1_555
H6 C7 1_555 1_555
C8 C1 1_555 1_555
H7 C8 1_555 1_555
N1 Zn1 1_555 1_555
O3 N1 1_555 1_555
C9 O3 1_555 1_555
H8 C9 1_555 1_555
H9 C9 1_555 1_555
C10 C9 1_555 1_555
H10 C10 1_555 1_555
H11 C10 1_555 1_555
O4 C10 1_555 1_555
N2 Zn1 1_555 1_555
C11 N2 1_555 1_555
H12 C11 1_555 1_555
C12 C11 1_555 1_555
C13 C12 1_555 1_555
C14 C13 1_555 1_555
C15 C14 1_555 1_555
H13 C15 1_555 1_555
C16 C15 1_555 1_555
H14 C16 1_555 1_555
C17 C12 1_555 1_555
H15 C17 1_555 1_555
O5 Zn1 1_555 1_555
O6 C14 1_555 1_555
C18 O6 1_555 1_555
H16 C18 1_555 1_555
H17 C18 1_555 1_555
C19 C18 1_555 1_555
H18 C19 1_555 1_555
H19 C19 1_555 1_555
O7 C19 1_555 1_555
C20 O7 1_555 1_555
H20 C20 1_555 1_555
H21 C20 1_555 1_555
C21 C20 1_555 1_555
H22 C21 1_555 1_555
H23 C21 1_555 1_555
O8 C21 1_555 1_555
C22 O8 1_555 1_555
C23 C22 1_555 1_555
C24 C23 1_555 1_555
C25 C24 1_555 1_555
H24 C25 1_555 1_555
C26 C25 1_555 1_555
H25 C26 1_555 1_555
C27 C22 1_555 1_555
H26 C27 1_555 1_555
O9 Zn2 1_555 1_555
C28 C24 1_555 1_555
H27 C28 1_555 1_555
N3 Zn3 1_555 1_555
O10 N3 1_555 1_555
C29 O10 1_555 1_555
H28 C29 1_555 1_555
H29 C29 1_555 1_555
C30 C29 1_555 1_555
H30 C30 1_555 1_555
H31 C30 1_555 1_555
O11 C30 1_555 1_555
N4 Zn3 1_555 1_555
C31 N4 1_555 1_555
H32 C31 1_555 1_555
C32 C31 1_555 1_555
C33 C32 1_555 1_555
C34 C33 1_555 1_555
C35 C34 1_555 1_555
H33 C35 1_555 1_555
C36 C35 1_555 1_555
H34 C36 1_555 1_555
C37 C32 1_555 1_555
H35 C37 1_555 1_555
O12 Zn2 1_555 1_555
O13 C34 1_555 1_555
C38 O13 1_555 1_555
H36 C38 1_555 1_555
H37 C38 1_555 1_555
H38 C38 1_555 1_555
O14 Zn1 1_555 1_555
O15 C39 1_555 1_555
C39 O14 1_555 1_555
C40 C39 1_555 1_555
H39 C40 1_555 1_555
H40 C40 1_555 1_555
H41 C40 1_555 1_555
O16 Zn3 1_555 1_555
O17 C41 1_555 1_555
C41 O16 1_555 1_555
C42 C41 1_555 1_555
H42 C42 1_555 1_555
H43 C42 1_555 1_555
H44 C42 1_555 1_555
O18 H45 1_555 1_555
C43 O18 1_555 1_555
H46 C43 1_555 1_555
H47 C43 1_555 1_555
H48 C43 1_555 1_555
Zn1A O1A 1_555 1_555
Zn2A O1A 1_555 1_555
Zn3A O9A 1_555 1_555
C1A C2A 1_555 1_555
C2A C3A 1_555 1_555
C3A C4A 1_555 1_555
C4A H1A 1_555 1_555
C5A C4A 1_555 1_555
H2A C5A 1_555 1_555
C6A C1A 1_555 1_555
H3A C6A 1_555 1_555
O1A C2A 1_555 1_555
O2A C3A 1_555 1_555
C7A O2A 1_555 1_555
H4A C7A 1_555 1_555
H5A C7A 1_555 1_555
H6A C7A 1_555 1_555
C8A C1A 1_555 1_555
H7A C8A 1_555 1_555
N1A Zn1A 1_555 1_555
O3A N1A 1_555 1_555
C9A O3A 1_555 1_555
H8A C9A 1_555 1_555
H9A C9A 1_555 1_555
C10A C9A 1_555 1_555
H10A C10A 1_555 1_555
H11A C10A 1_555 1_555
O4A C10A 1_555 1_555
N2A Zn1A 1_555 1_555
C11A N2A 1_555 1_555
H12A C11A 1_555 1_555
C12A C11A 1_555 1_555
C13A C12A 1_555 1_555
C14A C13A 1_555 1_555
C15A C14A 1_555 1_555
H13A C15A 1_555 1_555
C16A C15A 1_555 1_555
H14A C16A 1_555 1_555
C17A C12A 1_555 1_555
H15A C17A 1_555 1_555
O5A Zn1A 1_555 1_555
O6A C14A 1_555 1_555
C18A O6A 1_555 1_555
H16A C18A 1_555 1_555
H17A C18A 1_555 1_555
C19A C18A 1_555 1_555
H18A C19A 1_555 1_555
H19A C19A 1_555 1_555
O7A C19A 1_555 1_555
C20A O7A 1_555 1_555
H20A C20A 1_555 1_555
H21A C20A 1_555 1_555
C21A C20A 1_555 1_555
H22A C21A 1_555 1_555
H23A C21A 1_555 1_555
O8A C21A 1_555 1_555
C22A O8A 1_555 1_555
C23A O9 1_555 1_555
C24A C23A 1_555 1_555
C25A C24A 1_555 1_555
H24A C25A 1_555 1_555
C26A C25A 1_555 1_555
H25A C26A 1_555 1_555
C27A C22A 1_555 1_555
H26A C27A 1_555 1_555
O9A C23 1_555 1_555
C28A N3 1_555 1_555
H27A C28A 1_555 1_555
N3A C28 1_555 1_555
O10A N3A 1_555 1_555
C29A O10A 1_555 1_555
H28A C29A 1_555 1_555
H29A C29A 1_555 1_555
C30A C29A 1_555 1_555
H30A C30A 1_555 1_555
H31A C30A 1_555 1_555
O11A C30A 1_555 1_555
N4A Zn3A 1_555 1_555
C31A N4A 1_555 1_555
H32A C31A 1_555 1_555
C32A C31A 1_555 1_555
C33A C32A 1_555 1_555
C34A C33A 1_555 1_555
C35A C34A 1_555 1_555
H33A C35A 1_555 1_555
C36A C35A 1_555 1_555
H34A C36A 1_555 1_555
C37A C32A 1_555 1_555
H35A C37A 1_555 1_555
O12A Zn2A 1_555 1_555
O13A C34A 1_555 1_555
C38A O13A 1_555 1_555
H36A C38A 1_555 1_555
H37A C38A 1_555 1_555
H38A C38A 1_555 1_555
O14A Zn1A 1_555 1_555
O15A C39A 1_555 1_555
C39A O14A 1_555 1_555
C40A C39A 1_555 1_555
H39A C40A 1_555 1_555
H40A C40A 1_555 1_555
H41A C40A 1_555 1_555
O16A Zn3A 1_555 1_555
O17A C41A 1_555 1_555
C41A O16A 1_555 1_555
C42A C41A 1_555 1_555
H42A C42A 1_555 1_555
H43A C42A 1_555 1_555
H44A C42A 1_555 1_555
Zn2 O5 1_555 1_555
Zn3 O12 1_555 1_555
C5 C6 1_555 1_555
C8 N1 1_555 1_555
O4 N2 1_555 1_555
C13 O5 1_555 1_555
C16 C17 1_555 1_555
C26 C27 1_555 1_555
O11 N4 1_555 1_555
C33 O12 1_555 1_555
C36 C37 1_555 1_555
Zn2A O5A 1_555 1_555
Zn2A O9A 1_555 1_555
Zn3A N3A 1_555 1_555
Zn3A O12A 1_555 1_555
C5A C6A 1_555 1_555
C8A N1A 1_555 1_555
O4A N2A 1_555 1_555
C13A O5A 1_555 1_555
C16A C17A 1_555 1_555
C22A C23A 1_555 1_555
C24A C28A 1_555 1_555
C26A C27A 1_555 1_555
O11A N4A 1_555 1_555
C33A O12A 1_555 1_555
C36A C37A 1_555 1_555

#END
