# generated using pymatgen
data_B17H120Pd6C168N48O139F112
_symmetry_space_group_name_H-M   'P 1'
_cell_length_a   31.46504733
_cell_length_b   31.46504733
_cell_length_c   31.46500000
_cell_angle_alpha   109.46918904
_cell_angle_beta   109.46918904
_cell_angle_gamma   109.47056739
_symmetry_Int_Tables_number   1
_chemical_formula_structural   B17H120Pd6C168N48O139F112
_chemical_formula_sum   'B34 H240 Pd12 C336 N96 O278 F224'
_cell_volume   23982.13814584
_cell_formula_units_Z   2
loop_
 _symmetry_equiv_pos_site_id
 _symmetry_equiv_pos_as_xyz
  1  'x, y, z'
loop_
 _atom_site_type_symbol
 _atom_site_label
 _atom_site_symmetry_multiplicity
 _atom_site_fract_x
 _atom_site_fract_y
 _atom_site_fract_z
 _atom_site_occupancy
  B  B1  1  0.657100  0.998300  0.342400  1
  B  B2  1  0.001700  0.342900  0.657600  1
  B  B3  1  0.342900  0.001700  0.657600  1
  B  B4  1  0.998300  0.657100  0.342400  1
  B  B5  1  0.820500  0.993700  0.166500  1
  B  B6  1  0.006300  0.179500  0.833500  1
  B  B7  1  0.179500  0.006300  0.833500  1
  B  B8  1  0.993700  0.820500  0.166500  1
  B  B9  1  0.849900  0.008300  0.224300  1
  B  B10  1  0.991700  0.150100  0.775700  1
  B  B11  1  0.150100  0.991700  0.775700  1
  B  B12  1  0.008300  0.849900  0.224300  1
  B  B13  1  0.342400  0.342400  0.684500  1
  B  B14  1  0.657600  0.657600  0.315500  1
  B  B15  1  0.178400  0.171600  0.346400  1
  B  B16  1  0.828400  0.821600  0.653600  1
  B  B17  1  0.821600  0.828400  0.653600  1
  B  B18  1  0.171600  0.178400  0.346400  1
  B  B19  1  0.662700  0.349700  0.998600  1
  B  B20  1  0.650300  0.337300  0.001400  1
  B  B21  1  0.337300  0.650300  0.001400  1
  B  B22  1  0.349700  0.662700  0.998600  1
  B  B23  1  0.806000  0.167400  0.017100  1
  B  B24  1  0.832600  0.194000  0.982900  1
  B  B25  1  0.194000  0.832600  0.982900  1
  B  B26  1  0.167400  0.806000  0.017100  1
  B  B27  1  0.646700  0.814700  0.814600  1
  B  B28  1  0.185300  0.353300  0.185400  1
  B  B29  1  0.353300  0.185300  0.185400  1
  B  B30  1  0.814700  0.646700  0.814600  1
  B  B31  1  0.314000  0.657000  0.657500  1
  B  B32  1  0.343000  0.686000  0.342500  1
  B  B33  1  0.686000  0.343000  0.342500  1
  B  B34  1  0.657000  0.314000  0.657500  1
  C  C35  1  0.534200  0.534200  0.710100  1.0
  C  C36  1  0.465800  0.465800  0.289900  1.0
  C  C37  1  0.449100  0.449100  0.667600  1.0
  C  C38  1  0.550900  0.550900  0.332400  1.0
  C  C39  1  0.826400  0.826400  0.291200  1.0
  C  C40  1  0.173600  0.173600  0.708800  1.0
  C  C41  1  0.780300  0.780300  0.332900  1.0
  C  C42  1  0.219700  0.219700  0.667100  1.0
  C  C43  1  0.254200  0.476200  0.326100  1.0
  C  C44  1  0.523800  0.745800  0.673900  1.0
  C  C45  1  0.745800  0.523800  0.673900  1.0
  C  C46  1  0.476200  0.254200  0.326100  1.0
  C  C47  1  0.263900  0.473700  0.371600  1.0
  C  C48  1  0.526300  0.736100  0.628400  1.0
  C  C49  1  0.736100  0.526300  0.628400  1.0
  C  C50  1  0.473700  0.263900  0.371600  1.0
  C  C51  1  0.292000  0.516200  0.417700  1.0
  C  C52  1  0.483800  0.708000  0.582300  1.0
  C  C53  1  0.708000  0.483800  0.582300  1.0
  C  C54  1  0.516200  0.292000  0.417700  1.0
  C  C55  1  0.308300  0.561900  0.419100  1.0
  C  C56  1  0.438100  0.691700  0.580900  1.0
  C  C57  1  0.691700  0.438100  0.580900  1.0
  C  C58  1  0.561900  0.308300  0.419100  1.0
  C  C59  1  0.300000  0.564200  0.374600  1.0
  C  C60  1  0.435800  0.700000  0.625400  1.0
  C  C61  1  0.700000  0.435800  0.625400  1.0
  C  C62  1  0.564200  0.300000  0.374600  1.0
  C  C63  1  0.290300  0.466300  0.466200  1.0
  C  C64  1  0.533700  0.709700  0.533800  1.0
  C  C65  1  0.709700  0.533700  0.533800  1.0
  C  C66  1  0.466300  0.290300  0.466200  1.0
  C  C67  1  0.302900  0.511700  0.466100  1.0
  C  C68  1  0.488300  0.697100  0.533900  1.0
  C  C69  1  0.697100  0.488300  0.533900  1.0
  C  C70  1  0.511700  0.302900  0.466100  1.0
  C  C71  1  0.332600  0.550200  0.550700  1.0
  C  C72  1  0.449800  0.667400  0.449300  1.0
  C  C73  1  0.667400  0.449800  0.449300  1.0
  C  C74  1  0.550200  0.332600  0.550700  1.0
  C  C75  1  0.303300  0.466500  0.512200  1.0
  C  C76  1  0.533500  0.696700  0.487800  1.0
  C  C77  1  0.696700  0.533500  0.487800  1.0
  C  C78  1  0.466500  0.303300  0.512200  1.0
  C  C79  1  0.254300  0.326100  0.476400  1.0
  C  C80  1  0.673900  0.745700  0.523600  1.0
  C  C81  1  0.745700  0.673900  0.523600  1.0
  C  C82  1  0.326100  0.254300  0.476400  1.0
  C  C83  1  0.262200  0.369800  0.472800  1.0
  C  C84  1  0.630200  0.737800  0.527200  1.0
  C  C85  1  0.737800  0.630200  0.527200  1.0
  C  C86  1  0.369800  0.262200  0.472800  1.0
  C  C87  1  0.292400  0.418800  0.517100  1.0
  C  C88  1  0.581200  0.707600  0.482900  1.0
  C  C89  1  0.707600  0.581200  0.482900  1.0
  C  C90  1  0.418800  0.292400  0.517100  1.0
  C  C91  1  0.309200  0.421000  0.563100  1.0
  C  C92  1  0.579000  0.690800  0.436900  1.0
  C  C93  1  0.690800  0.579000  0.436900  1.0
  C  C94  1  0.421000  0.309200  0.563100  1.0
  C  C95  1  0.299500  0.373700  0.565200  1.0
  C  C96  1  0.626300  0.700500  0.434800  1.0
  C  C97  1  0.700500  0.626300  0.434800  1.0
  C  C98  1  0.373700  0.299500  0.565200  1.0
  C  C99  1  0.150200  0.221400  0.476100  1.0
  C  C100  1  0.778600  0.849800  0.523900  1.0
  C  C101  1  0.849800  0.778600  0.523900  1.0
  C  C102  1  0.221400  0.150200  0.476100  1.0
  C  C103  1  0.102500  0.209300  0.472100  1.0
  C  C104  1  0.790700  0.897500  0.527900  1.0
  C  C105  1  0.897500  0.790700  0.527900  1.0
  C  C106  1  0.209300  0.102500  0.472100  1.0
  C  C107  1  0.098200  0.223600  0.516300  1.0
  C  C108  1  0.776400  0.901800  0.483700  1.0
  C  C109  1  0.901800  0.776400  0.483700  1.0
  C  C110  1  0.223600  0.098200  0.516300  1.0
  C  C111  1  0.141600  0.253000  0.562500  1.0
  C  C112  1  0.747000  0.858400  0.437500  1.0
  C  C113  1  0.858400  0.747000  0.437500  1.0
  C  C114  1  0.253000  0.141600  0.562500  1.0
  C  C115  1  0.189300  0.264300  0.563900  1.0
  C  C116  1  0.735700  0.810700  0.436100  1.0
  C  C117  1  0.810700  0.735700  0.436100  1.0
  C  C118  1  0.264300  0.189300  0.563900  1.0
  C  C119  1  0.000600  0.175600  0.466100  1.0
  C  C120  1  0.824400  0.999400  0.533900  1.0
  C  C121  1  0.999400  0.824400  0.533900  1.0
  C  C122  1  0.175600  0.000600  0.466100  1.0
  C  C123  1  0.045100  0.209300  0.511900  1.0
  C  C124  1  0.790700  0.954900  0.488100  1.0
  C  C125  1  0.954900  0.790700  0.488100  1.0
  C  C126  1  0.209300  0.045100  0.511900  1.0
  C  C127  1  1.000000  0.218400  0.552400  1.0
  C  C128  1  0.781600  0.000000  0.447600  1.0
  C  C129  1  0.000000  0.781600  0.447600  1.0
  C  C130  1  0.218400  1.000000  0.552400  1.0
  C  C131  1  0.953500  0.163500  0.465900  1.0
  C  C132  1  0.836500  0.046500  0.534100  1.0
  C  C133  1  0.046500  0.836500  0.534100  1.0
  C  C134  1  0.163500  0.953500  0.465900  1.0
  C  C135  1  0.849500  0.072300  0.326400  1.0
  C  C136  1  0.927700  0.150500  0.673600  1.0
  C  C137  1  0.150500  0.927700  0.673600  1.0
  C  C138  1  0.072300  0.849500  0.326400  1.0
  C  C139  1  0.897400  0.107000  0.370100  1.0
  C  C140  1  0.893000  0.102600  0.629900  1.0
  C  C141  1  0.102600  0.893000  0.629900  1.0
  C  C142  1  0.107000  0.897400  0.370100  1.0
  C  C143  1  0.902000  0.126200  0.418600  1.0
  C  C144  1  0.873800  0.098000  0.581400  1.0
  C  C145  1  0.098000  0.873800  0.581400  1.0
  C  C146  1  0.126200  0.902000  0.418600  1.0
  C  C147  1  0.857400  0.112000  0.420200  1.0
  C  C148  1  0.888000  0.142600  0.579800  1.0
  C  C149  1  0.142600  0.888000  0.579800  1.0
  C  C150  1  0.112000  0.857400  0.420200  1.0
  C  C151  1  0.810400  0.075000  0.374800  1.0
  C  C152  1  0.925000  0.189600  0.625200  1.0
  C  C153  1  0.189600  0.925000  0.625200  1.0
  C  C154  1  0.075000  0.810400  0.374800  1.0
  C  C155  1  0.747100  0.072300  0.223800  1.0
  C  C156  1  0.927700  0.252900  0.776200  1.0
  C  C157  1  0.252900  0.927700  0.776200  1.0
  C  C158  1  0.072300  0.747100  0.223800  1.0
  C  C159  1  0.739100  0.108900  0.210500  1.0
  C  C160  1  0.891100  0.260900  0.789500  1.0
  C  C161  1  0.260900  0.891100  0.789500  1.0
  C  C162  1  0.108900  0.739100  0.210500  1.0
  C  C163  1  0.707400  0.125800  0.224500  1.0
  C  C164  1  0.874200  0.292600  0.775500  1.0
  C  C165  1  0.292600  0.874200  0.775500  1.0
  C  C166  1  0.125800  0.707400  0.224500  1.0
  C  C167  1  0.690600  0.110400  0.253400  1.0
  C  C168  1  0.889600  0.309400  0.746600  1.0
  C  C169  1  0.309400  0.889600  0.746600  1.0
  C  C170  1  0.110400  0.690600  0.253400  1.0
  C  C171  1  0.700400  0.075000  0.265700  1.0
  C  C172  1  0.925000  0.299600  0.734300  1.0
  C  C173  1  0.299600  0.925000  0.734300  1.0
  C  C174  1  0.075000  0.700400  0.265700  1.0
  C  C175  1  0.709500  0.175700  0.175100  1.0
  C  C176  1  0.824300  0.290500  0.824900  1.0
  C  C177  1  0.290500  0.824300  0.824900  1.0
  C  C178  1  0.175700  0.709500  0.175100  1.0
  C  C179  1  0.697300  0.162700  0.208300  1.0
  C  C180  1  0.837300  0.302700  0.791700  1.0
  C  C181  1  0.302700  0.837300  0.791700  1.0
  C  C182  1  0.162700  0.697300  0.208300  1.0
  C  C183  1  0.666300  0.216100  0.217800  1.0
  C  C184  1  0.783900  0.333700  0.782200  1.0
  C  C185  1  0.333700  0.783900  0.782200  1.0
  C  C186  1  0.216100  0.666300  0.217800  1.0
  C  C187  1  0.697300  0.209300  0.163000  1.0
  C  C188  1  0.790700  0.302700  0.837000  1.0
  C  C189  1  0.302700  0.790700  0.837000  1.0
  C  C190  1  0.209300  0.697300  0.163000  1.0
  C  C191  1  0.745600  0.221400  0.071900  1.0
  C  C192  1  0.778600  0.254400  0.928100  1.0
  C  C193  1  0.254400  0.778600  0.928100  1.0
  C  C194  1  0.221400  0.745600  0.071900  1.0
  C  C195  1  0.737500  0.209900  0.107800  1.0
  C  C196  1  0.790100  0.262500  0.892200  1.0
  C  C197  1  0.262500  0.790100  0.892200  1.0
  C  C198  1  0.209900  0.737500  0.107800  1.0
  C  C199  1  0.707700  0.224300  0.126000  1.0
  C  C200  1  0.775700  0.292300  0.874000  1.0
  C  C201  1  0.292300  0.775700  0.874000  1.0
  C  C202  1  0.224300  0.707700  0.126000  1.0
  C  C203  1  0.691000  0.253600  0.111200  1.0
  C  C204  1  0.746400  0.309000  0.888800  1.0
  C  C205  1  0.309000  0.746400  0.888800  1.0
  C  C206  1  0.253600  0.691000  0.111200  1.0
  C  C207  1  0.699500  0.264300  0.074700  1.0
  C  C208  1  0.735700  0.300500  0.925300  1.0
  C  C209  1  0.300500  0.735700  0.925300  1.0
  C  C210  1  0.264300  0.699500  0.074700  1.0
  C  C211  1  0.674200  0.150200  0.928400  1.0
  C  C212  1  0.849800  0.325800  0.071600  1.0
  C  C213  1  0.325800  0.849800  0.071600  1.0
  C  C214  1  0.150200  0.674200  0.928400  1.0
  C  C215  1  0.629200  0.101400  0.892400  1.0
  C  C216  1  0.898600  0.370800  0.107600  1.0
  C  C217  1  0.370800  0.898600  0.107600  1.0
  C  C218  1  0.101400  0.629200  0.892400  1.0
  C  C219  1  0.582700  0.097700  0.874600  1.0
  C  C220  1  0.902300  0.417300  0.125400  1.0
  C  C221  1  0.417300  0.902300  0.125400  1.0
  C  C222  1  0.097700  0.582700  0.874600  1.0
  C  C223  1  0.579600  0.142000  0.889600  1.0
  C  C224  1  0.858000  0.420400  0.110400  1.0
  C  C225  1  0.420400  0.858000  0.110400  1.0
  C  C226  1  0.142000  0.579600  0.889600  1.0
  C  C227  1  0.627300  0.190500  0.925600  1.0
  C  C228  1  0.809500  0.372700  0.074400  1.0
  C  C229  1  0.372700  0.809500  0.074400  1.0
  C  C230  1  0.190500  0.627300  0.925600  1.0
  C  C231  1  0.534200  0.999800  0.824700  1.0
  C  C232  1  0.000200  0.465800  0.175300  1.0
  C  C233  1  0.465800  0.000200  0.175300  1.0
  C  C234  1  0.999800  0.534200  0.824700  1.0
  C  C235  1  0.534000  0.045600  0.836700  1.0
  C  C236  1  0.954400  0.466000  0.163300  1.0
  C  C237  1  0.466000  0.954400  0.163300  1.0
  C  C238  1  0.045600  0.534000  0.836700  1.0
  C  C239  1  0.448400  0.999400  0.781200  1.0
  C  C240  1  0.000600  0.551600  0.218800  1.0
  C  C241  1  0.551600  0.000600  0.218800  1.0
  C  C242  1  0.999400  0.448400  0.781200  1.0
  C  C243  1  0.488000  0.954200  0.790500  1.0
  C  C244  1  0.045800  0.512000  0.209500  1.0
  C  C245  1  0.512000  0.045800  0.209500  1.0
  C  C246  1  0.954200  0.488000  0.790500  1.0
  C  C247  1  0.523300  0.849300  0.777700  1.0
  C  C248  1  0.150700  0.476700  0.222300  1.0
  C  C249  1  0.476700  0.150700  0.222300  1.0
  C  C250  1  0.849300  0.523300  0.777700  1.0
  C  C251  1  0.527700  0.898100  0.790300  1.0
  C  C252  1  0.101900  0.472300  0.209700  1.0
  C  C253  1  0.472300  0.101900  0.209700  1.0
  C  C254  1  0.898100  0.527700  0.790300  1.0
  C  C255  1  0.484100  0.901700  0.775700  1.0
  C  C256  1  0.098300  0.515900  0.224300  1.0
  C  C257  1  0.515900  0.098300  0.224300  1.0
  C  C258  1  0.901700  0.484100  0.775700  1.0
  C  C259  1  0.437900  0.857500  0.747100  1.0
  C  C260  1  0.142500  0.562100  0.252900  1.0
  C  C261  1  0.562100  0.142500  0.252900  1.0
  C  C262  1  0.857500  0.437900  0.747100  1.0
  C  C263  1  0.436000  0.810000  0.735300  1.0
  C  C264  1  0.190000  0.564000  0.264700  1.0
  C  C265  1  0.564000  0.190000  0.264700  1.0
  C  C266  1  0.810000  0.436000  0.735300  1.0
  C  C267  1  0.523300  0.776900  0.849200  1.0
  C  C268  1  0.223100  0.476700  0.150800  1.0
  C  C269  1  0.476700  0.223100  0.150800  1.0
  C  C270  1  0.776900  0.523300  0.849200  1.0
  C  C271  1  0.527800  0.790200  0.898300  1.0
  C  C272  1  0.209800  0.472200  0.101700  1.0
  C  C273  1  0.472200  0.209800  0.101700  1.0
  C  C274  1  0.790200  0.527800  0.898300  1.0
  C  C275  1  0.484200  0.775800  0.902000  1.0
  C  C276  1  0.224200  0.515800  0.098000  1.0
  C  C277  1  0.515800  0.224200  0.098000  1.0
  C  C278  1  0.775800  0.484200  0.902000  1.0
  C  C279  1  0.437000  0.745200  0.857000  1.0
  C  C280  1  0.254800  0.563000  0.143000  1.0
  C  C281  1  0.563000  0.254800  0.143000  1.0
  C  C282  1  0.745200  0.437000  0.857000  1.0
  C  C283  1  0.435100  0.734300  0.809700  1.0
  C  C284  1  0.265700  0.564900  0.190300  1.0
  C  C285  1  0.564900  0.265700  0.190300  1.0
  C  C286  1  0.734300  0.435100  0.809700  1.0
  C  C287  1  0.534300  0.824900  0.000400  1.0
  C  C288  1  0.175100  0.465700  0.999600  1.0
  C  C289  1  0.465700  0.175100  0.999600  1.0
  C  C290  1  0.824900  0.534300  0.000400  1.0
  C  C291  1  0.488200  0.790800  0.954800  1.0
  C  C292  1  0.209200  0.511800  0.045200  1.0
  C  C293  1  0.511800  0.209200  0.045200  1.0
  C  C294  1  0.790800  0.488200  0.954800  1.0
  C  C295  1  0.447600  0.781000  0.999400  1.0
  C  C296  1  0.219000  0.552400  0.000600  1.0
  C  C297  1  0.552400  0.219000  0.000600  1.0
  C  C298  1  0.781000  0.447600  0.999400  1.0
  C  C299  1  0.534000  0.836600  0.045600  1.0
  C  C300  1  0.163400  0.466000  0.954400  1.0
  C  C301  1  0.466000  0.163400  0.954400  1.0
  C  C302  1  0.836600  0.534000  0.045600  1.0
  C  C303  1  0.674000  0.928200  0.150700  1.0
  C  C304  1  0.071800  0.326000  0.849300  1.0
  C  C305  1  0.326000  0.071800  0.849300  1.0
  C  C306  1  0.928200  0.674000  0.150700  1.0
  C  C307  1  0.630100  0.893300  0.103100  1.0
  C  C308  1  0.106700  0.369900  0.896900  1.0
  C  C309  1  0.369900  0.106700  0.896900  1.0
  C  C310  1  0.893300  0.630100  0.103100  1.0
  C  C311  1  0.582300  0.873700  0.097900  1.0
  C  C312  1  0.126300  0.417700  0.902100  1.0
  C  C313  1  0.417700  0.126300  0.902100  1.0
  C  C314  1  0.873700  0.582300  0.097900  1.0
  C  C315  1  0.579400  0.888400  0.142400  1.0
  C  C316  1  0.111600  0.420600  0.857600  1.0
  C  C317  1  0.420600  0.111600  0.857600  1.0
  C  C318  1  0.888400  0.579400  0.142400  1.0
  C  C319  1  0.625600  0.924600  0.190000  1.0
  C  C320  1  0.075400  0.374400  0.810000  1.0
  C  C321  1  0.374400  0.075400  0.810000  1.0
  C  C322  1  0.924600  0.625600  0.190000  1.0
  C  C323  1  0.523800  0.673800  0.746400  1.0
  C  C324  1  0.326200  0.476200  0.253600  1.0
  C  C325  1  0.476200  0.326200  0.253600  1.0
  C  C326  1  0.673800  0.523800  0.746400  1.0
  C  C327  1  0.526900  0.629500  0.737100  1.0
  C  C328  1  0.370500  0.473100  0.262900  1.0
  C  C329  1  0.473100  0.370500  0.262900  1.0
  C  C330  1  0.629500  0.526900  0.737100  1.0
  C  C331  1  0.484300  0.582700  0.708000  1.0
  C  C332  1  0.417300  0.515700  0.292000  1.0
  C  C333  1  0.515700  0.417300  0.292000  1.0
  C  C334  1  0.582700  0.484300  0.708000  1.0
  C  C335  1  0.437500  0.579500  0.690600  1.0
  C  C336  1  0.420500  0.562500  0.309400  1.0
  C  C337  1  0.562500  0.420500  0.309400  1.0
  C  C338  1  0.579500  0.437500  0.690600  1.0
  C  C339  1  0.436600  0.626600  0.700800  1.0
  C  C340  1  0.373400  0.563400  0.299200  1.0
  C  C341  1  0.563400  0.373400  0.299200  1.0
  C  C342  1  0.626600  0.436600  0.700800  1.0
  C  C343  1  0.487000  0.533400  0.696600  1.0
  C  C344  1  0.466600  0.513000  0.303400  1.0
  C  C345  1  0.513000  0.466600  0.303400  1.0
  C  C346  1  0.533400  0.487000  0.696600  1.0
  C  C347  1  0.777200  0.927200  0.253800  1.0
  C  C348  1  0.072800  0.222800  0.746200  1.0
  C  C349  1  0.222800  0.072800  0.746200  1.0
  C  C350  1  0.927200  0.777200  0.253800  1.0
  C  C351  1  0.790800  0.893400  0.263100  1.0
  C  C352  1  0.106600  0.209200  0.736900  1.0
  C  C353  1  0.209200  0.106600  0.736900  1.0
  C  C354  1  0.893400  0.790800  0.263100  1.0
  C  C355  1  0.776200  0.874600  0.292600  1.0
  C  C356  1  0.125400  0.223800  0.707400  1.0
  C  C357  1  0.223800  0.125400  0.707400  1.0
  C  C358  1  0.874600  0.776200  0.292600  1.0
  C  C359  1  0.746400  0.888800  0.309400  1.0
  C  C360  1  0.111200  0.253600  0.690600  1.0
  C  C361  1  0.253600  0.111200  0.690600  1.0
  C  C362  1  0.888800  0.746400  0.309400  1.0
  C  C363  1  0.735500  0.925500  0.300200  1.0
  C  C364  1  0.074500  0.264500  0.699800  1.0
  C  C365  1  0.264500  0.074500  0.699800  1.0
  C  C366  1  0.925500  0.735500  0.300200  1.0
  C  C367  1  0.790700  0.836500  0.302900  1.0
  C  C368  1  0.163500  0.209300  0.697100  1.0
  C  C369  1  0.209300  0.163500  0.697100  1.0
  C  C370  1  0.836500  0.790700  0.302900  1.0
  F  F371  1  0.706100  0.008900  0.380400  1
  F  F372  1  0.991100  0.293900  0.619600  1
  F  F373  1  0.293900  0.991100  0.619600  1
  F  F374  1  0.008900  0.706100  0.380400  1
  F  F375  1  0.634600  0.017600  0.365800  1
  F  F376  1  0.982400  0.365400  0.634200  1
  F  F377  1  0.365400  0.982400  0.634200  1
  F  F378  1  0.017600  0.634600  0.365800  1
  F  F379  1  0.668200  0.007800  0.307800  1
  F  F380  1  0.992200  0.331800  0.692200  1
  F  F381  1  0.331800  0.992200  0.692200  1
  F  F382  1  0.007800  0.668200  0.307800  1
  F  F383  1  0.627600  0.942000  0.317800  1
  F  F384  1  0.058000  0.372400  0.682200  1
  F  F385  1  0.372400  0.058000  0.682200  1
  F  F386  1  0.942000  0.627600  0.317800  1
  F  F387  1  0.384400  0.370600  0.733500  1
  F  F388  1  0.629400  0.615600  0.266500  1
  F  F389  1  0.615600  0.629400  0.266500  1
  F  F390  1  0.370600  0.384400  0.733500  1
  F  F391  1  0.307100  0.360700  0.677000  1
  F  F392  1  0.639300  0.692900  0.323000  1
  F  F393  1  0.692900  0.639300  0.323000  1
  F  F394  1  0.360700  0.307100  0.677000  1
  F  F395  1  0.596600  0.802800  0.793300  1
  F  F396  1  0.197200  0.403400  0.206700  1
  F  F397  1  0.403400  0.197200  0.206700  1
  F  F398  1  0.802800  0.596600  0.793300  1
  F  F399  1  0.645100  0.765300  0.783700  1
  F  F400  1  0.234700  0.354900  0.216300  1
  F  F401  1  0.354900  0.234700  0.216300  1
  F  F402  1  0.765300  0.645100  0.783700  1
  F  F403  1  0.661900  0.823500  0.863000  1
  F  F404  1  0.176500  0.338100  0.137000  1
  F  F405  1  0.338100  0.176500  0.137000  1
  F  F406  1  0.823500  0.661900  0.863000  1
  F  F407  1  0.675800  0.851600  0.808300  1
  F  F408  1  0.148400  0.324200  0.191700  1
  F  F409  1  0.324200  0.148400  0.191700  1
  F  F410  1  0.851600  0.675800  0.808300  1
  F  F411  1  0.679800  0.800800  0.840100  1
  F  F412  1  0.199200  0.320200  0.159900  1
  F  F413  1  0.320200  0.199200  0.159900  1
  F  F414  1  0.800800  0.679800  0.840100  1
  F  F415  1  0.597400  0.790600  0.807200  1
  F  F416  1  0.209400  0.402600  0.192800  1
  F  F417  1  0.402600  0.209400  0.192800  1
  F  F418  1  0.790600  0.597400  0.807200  1
  F  F419  1  0.663600  0.866600  0.840900  1
  F  F420  1  0.133400  0.336400  0.159100  1
  F  F421  1  0.336400  0.133400  0.159100  1
  F  F422  1  0.866600  0.663600  0.840900  1
  F  F423  1  0.640600  0.801600  0.763600  1
  F  F424  1  0.198400  0.359400  0.236400  1
  F  F425  1  0.359400  0.198400  0.236400  1
  F  F426  1  0.801600  0.640600  0.763600  1
  F  F427  1  0.363900  0.696900  0.699800  1
  F  F428  1  0.303100  0.636100  0.300200  1
  F  F429  1  0.636100  0.303100  0.300200  1
  F  F430  1  0.696900  0.363900  0.699800  1
  F  F431  1  0.271800  0.648200  0.658700  1
  F  F432  1  0.351800  0.728200  0.341300  1
  F  F433  1  0.728200  0.351800  0.341300  1
  F  F434  1  0.648200  0.271800  0.658700  1
  F  F435  1  0.316900  0.669300  0.617900  1
  F  F436  1  0.330700  0.683100  0.382100  1
  F  F437  1  0.683100  0.330700  0.382100  1
  F  F438  1  0.669300  0.316900  0.617900  1
  F  F439  1  0.320500  0.611900  0.645600  1
  F  F440  1  0.388100  0.679500  0.354400  1
  F  F441  1  0.679500  0.388100  0.354400  1
  F  F442  1  0.611900  0.320500  0.645600  1
  F  F443  1  0.363300  0.668500  0.666000  1
  F  F444  1  0.331500  0.636700  0.334000  1
  F  F445  1  0.636700  0.331500  0.334000  1
  F  F446  1  0.668500  0.363300  0.666000  1
  F  F447  1  0.271700  0.620500  0.613500  1
  F  F448  1  0.379500  0.728300  0.386500  1
  F  F449  1  0.728300  0.379500  0.386500  1
  F  F450  1  0.620500  0.271700  0.613500  1
  F  F451  1  0.313300  0.647300  0.699600  1
  F  F452  1  0.352700  0.686700  0.300400  1
  F  F453  1  0.686700  0.352700  0.300400  1
  F  F454  1  0.647300  0.313300  0.699600  1
  F  F455  1  0.317500  0.707500  0.675200  1
  F  F456  1  0.292500  0.682500  0.324800  1
  F  F457  1  0.682500  0.292500  0.324800  1
  F  F458  1  0.707500  0.317500  0.675200  1
  F  F459  1  0.799000  0.999600  0.198600  1
  F  F460  1  0.000400  0.201000  0.801400  1
  F  F461  1  0.201000  0.000400  0.801400  1
  F  F462  1  0.999600  0.799000  0.198600  1
  F  F463  1  0.818600  0.945400  0.150000  1
  F  F464  1  0.054600  0.181400  0.850000  1
  F  F465  1  0.181400  0.054600  0.850000  1
  F  F466  1  0.945400  0.818600  0.150000  1
  F  F467  1  0.792500  0.995500  0.122700  1
  F  F468  1  0.004500  0.207500  0.877300  1
  F  F469  1  0.207500  0.004500  0.877300  1
  F  F470  1  0.995500  0.792500  0.122700  1
  F  F471  1  0.872600  0.033400  0.194300  1
  F  F472  1  0.966600  0.127400  0.805700  1
  F  F473  1  0.127400  0.966600  0.805700  1
  F  F474  1  0.033400  0.872600  0.194300  1
  F  F475  1  0.812000  0.004000  0.239200  1
  F  F476  1  0.996000  0.188000  0.760800  1
  F  F477  1  0.188000  0.996000  0.760800  1
  F  F478  1  0.004000  0.812000  0.239200  1
  F  F479  1  0.863700  0.970300  0.225000  1
  F  F480  1  0.029700  0.136300  0.775000  1
  F  F481  1  0.136300  0.029700  0.775000  1
  F  F482  1  0.970300  0.863700  0.225000  1
  F  F483  1  0.828500  0.000900  0.173900  1
  F  F484  1  0.999100  0.171500  0.826100  1
  F  F485  1  0.171500  0.999100  0.826100  1
  F  F486  1  0.000900  0.828500  0.173900  1
  F  F487  1  0.894200  0.058000  0.259300  1
  F  F488  1  0.942000  0.105800  0.740700  1
  F  F489  1  0.105800  0.942000  0.740700  1
  F  F490  1  0.058000  0.894200  0.259300  1
  F  F491  1  0.607800  0.979800  0.298200  1
  F  F492  1  0.020200  0.392200  0.701800  1
  F  F493  1  0.392200  0.020200  0.701800  1
  F  F494  1  0.979800  0.607800  0.298200  1
  F  F495  1  0.687700  0.987700  0.323900  1
  F  F496  1  0.012300  0.312300  0.676100  1
  F  F497  1  0.312300  0.012300  0.676100  1
  F  F498  1  0.987700  0.687700  0.323900  1
  F  F499  1  0.650100  0.987700  0.376700  1
  F  F500  1  0.012300  0.349900  0.623300  1
  F  F501  1  0.349900  0.012300  0.623300  1
  F  F502  1  0.987700  0.650100  0.376700  1
  F  F503  1  0.681100  0.054300  0.362100  1
  F  F504  1  0.945700  0.318900  0.637900  1
  F  F505  1  0.318900  0.945700  0.637900  1
  F  F506  1  0.054300  0.681100  0.362100  1
  F  F507  1  0.833400  0.174000  0.993900  1
  F  F508  1  0.826000  0.166600  0.006100  1
  F  F509  1  0.166600  0.826000  0.006100  1
  F  F510  1  0.174000  0.833400  0.993900  1
  F  F511  1  0.793100  0.207700  0.027500  1
  F  F512  1  0.792300  0.206900  0.972500  1
  F  F513  1  0.206900  0.792300  0.972500  1
  F  F514  1  0.207700  0.793100  0.027500  1
  F  F515  1  0.826400  0.162200  0.059900  1
  F  F516  1  0.837800  0.173600  0.940100  1
  F  F517  1  0.173600  0.837800  0.940100  1
  F  F518  1  0.162200  0.826400  0.059900  1
  F  F519  1  0.754600  0.120400  0.979900  1
  F  F520  1  0.879600  0.245400  0.020100  1
  F  F521  1  0.245400  0.879600  0.020100  1
  F  F522  1  0.120400  0.754600  0.979900  1
  F  F523  1  0.312400  0.301600  0.633000  1
  F  F524  1  0.698400  0.687600  0.367000  1
  F  F525  1  0.687600  0.698400  0.367000  1
  F  F526  1  0.301600  0.312400  0.633000  1
  F  F527  1  0.318600  0.343800  0.712100  1
  F  F528  1  0.656200  0.681400  0.287900  1
  F  F529  1  0.681400  0.656200  0.287900  1
  F  F530  1  0.343800  0.318600  0.712100  1
  F  F531  1  0.312600  0.289600  0.674200  1
  F  F532  1  0.710400  0.687400  0.325800  1
  F  F533  1  0.687400  0.710400  0.325800  1
  F  F534  1  0.289600  0.312600  0.674200  1
  F  F535  1  0.363100  0.388300  0.682200  1
  F  F536  1  0.611700  0.636900  0.317800  1
  F  F537  1  0.636900  0.611700  0.317800  1
  F  F538  1  0.388300  0.363100  0.682200  1
  F  F539  1  0.351500  0.333900  0.643300  1
  F  F540  1  0.666100  0.648500  0.356700  1
  F  F541  1  0.648500  0.666100  0.356700  1
  F  F542  1  0.333900  0.351500  0.643300  1
  F  F543  1  0.386700  0.337100  0.708300  1
  F  F544  1  0.662900  0.613300  0.291700  1
  F  F545  1  0.613300  0.662900  0.291700  1
  F  F546  1  0.337100  0.386700  0.708300  1
  F  F547  1  0.193500  0.205900  0.397900  1
  F  F548  1  0.794100  0.806500  0.602100  1
  F  F549  1  0.806500  0.794100  0.602100  1
  F  F550  1  0.205900  0.193500  0.397900  1
  F  F551  1  0.149100  0.121100  0.334200  1
  F  F552  1  0.878900  0.850900  0.665800  1
  F  F553  1  0.850900  0.878900  0.665800  1
  F  F554  1  0.121100  0.149100  0.334200  1
  F  F555  1  0.225800  0.180200  0.346400  1
  F  F556  1  0.819800  0.774200  0.653600  1
  F  F557  1  0.774200  0.819800  0.653600  1
  F  F558  1  0.180200  0.225800  0.346400  1
  F  F559  1  0.152500  0.185500  0.313400  1
  F  F560  1  0.814500  0.847500  0.686600  1
  F  F561  1  0.847500  0.814500  0.686600  1
  F  F562  1  0.185500  0.152500  0.313400  1
  F  F563  1  0.668000  0.306400  0.998200  1
  F  F564  1  0.693600  0.332000  0.001800  1
  F  F565  1  0.332000  0.693600  0.001800  1
  F  F566  1  0.306400  0.668000  0.998200  1
  F  F567  1  0.709200  0.393200  0.043300  1
  F  F568  1  0.606800  0.290800  0.956700  1
  F  F569  1  0.290800  0.606800  0.956700  1
  F  F570  1  0.393200  0.709200  0.043300  1
  F  F571  1  0.620200  0.348400  0.999800  1
  F  F572  1  0.651600  0.379800  0.000200  1
  F  F573  1  0.379800  0.651600  0.000200  1
  F  F574  1  0.348400  0.620200  0.999800  1
  F  F575  1  0.663100  0.350500  0.954500  1
  F  F576  1  0.649500  0.336900  0.045500  1
  F  F577  1  0.336900  0.649500  0.045500  1
  F  F578  1  0.350500  0.663100  0.954500  1
  F  F579  1  0.798700  0.196500  0.994200  1
  F  F580  1  0.803500  0.201300  0.005800  1
  F  F581  1  0.201300  0.803500  0.005800  1
  F  F582  1  0.196500  0.798700  0.994200  1
  F  F583  1  0.780600  0.163600  0.045700  1
  F  F584  1  0.836400  0.219400  0.954300  1
  F  F585  1  0.219400  0.836400  0.954300  1
  F  F586  1  0.163600  0.780600  0.045700  1
  F  F587  1  0.861400  0.194400  0.053400  1
  F  F588  1  0.805600  0.138600  0.946600  1
  F  F589  1  0.138600  0.805600  0.946600  1
  F  F590  1  0.194400  0.861400  0.053400  1
  F  F591  1  0.793600  0.118000  0.981800  1
  F  F592  1  0.882000  0.206400  0.018200  1
  F  F593  1  0.206400  0.882000  0.018200  1
  F  F594  1  0.118000  0.793600  0.981800  1
  H  H595  1  0.565300  0.565300  0.727500  1.0
  H  H596  1  0.434700  0.434700  0.272500  1.0
  H  H597  1  0.418700  0.418700  0.654700  1.0
  H  H598  1  0.581300  0.581300  0.345300  1.0
  H  H599  1  0.842500  0.842500  0.276600  1.0
  H  H600  1  0.157500  0.157500  0.723400  1.0
  H  H601  1  0.762400  0.762400  0.345300  1.0
  H  H602  1  0.237600  0.237600  0.654700  1.0
  H  H603  1  0.234300  0.445700  0.294100  1.0
  H  H604  1  0.554300  0.765700  0.705900  1.0
  H  H605  1  0.765700  0.554300  0.705900  1.0
  H  H606  1  0.445700  0.234300  0.294100  1.0
  H  H607  1  0.250100  0.441300  0.369300  1.0
  H  H608  1  0.558700  0.749900  0.630700  1.0
  H  H609  1  0.749900  0.558700  0.630700  1.0
  H  H610  1  0.441300  0.250100  0.369300  1.0
  H  H611  1  0.325700  0.592500  0.450800  1.0
  H  H612  1  0.407500  0.674300  0.549200  1.0
  H  H613  1  0.674300  0.407500  0.549200  1.0
  H  H614  1  0.592500  0.325700  0.450800  1.0
  H  H615  1  0.313600  0.596800  0.377200  1.0
  H  H616  1  0.403200  0.686400  0.622800  1.0
  H  H617  1  0.686400  0.403200  0.622800  1.0
  H  H618  1  0.596800  0.313600  0.377200  1.0
  H  H619  1  0.272900  0.435100  0.435100  1.0
  H  H620  1  0.564900  0.727100  0.564900  1.0
  H  H621  1  0.727100  0.564900  0.564900  1.0
  H  H622  1  0.435100  0.272900  0.435100  1.0
  H  H623  1  0.345100  0.580500  0.580900  1.0
  H  H624  1  0.419500  0.654900  0.419100  1.0
  H  H625  1  0.654900  0.419500  0.419100  1.0
  H  H626  1  0.580500  0.345100  0.580900  1.0
  H  H627  1  0.235100  0.294100  0.445900  1.0
  H  H628  1  0.705900  0.764900  0.554100  1.0
  H  H629  1  0.764900  0.705900  0.554100  1.0
  H  H630  1  0.294100  0.235100  0.445900  1.0
  H  H631  1  0.247200  0.366800  0.440200  1.0
  H  H632  1  0.633200  0.752800  0.559800  1.0
  H  H633  1  0.752800  0.633200  0.559800  1.0
  H  H634  1  0.366800  0.247200  0.440200  1.0
  H  H635  1  0.326900  0.452900  0.593700  1.0
  H  H636  1  0.547100  0.673100  0.406300  1.0
  H  H637  1  0.673100  0.547100  0.406300  1.0
  H  H638  1  0.452900  0.326900  0.593700  1.0
  H  H639  1  0.312400  0.375600  0.597400  1.0
  H  H640  1  0.624400  0.687600  0.402600  1.0
  H  H641  1  0.687600  0.624400  0.402600  1.0
  H  H642  1  0.375600  0.312400  0.597400  1.0
  H  H643  1  0.152300  0.209900  0.446000  1.0
  H  H644  1  0.790100  0.847700  0.554000  1.0
  H  H645  1  0.847700  0.790100  0.554000  1.0
  H  H646  1  0.209900  0.152300  0.446000  1.0
  H  H647  1  0.073000  0.191600  0.439400  1.0
  H  H648  1  0.808400  0.927000  0.560600  1.0
  H  H649  1  0.927000  0.808400  0.560600  1.0
  H  H650  1  0.191600  0.073000  0.439400  1.0
  H  H651  1  0.140300  0.265700  0.593000  1.0
  H  H652  1  0.734300  0.859700  0.407000  1.0
  H  H653  1  0.859700  0.734300  0.407000  1.0
  H  H654  1  0.265700  0.140300  0.593000  1.0
  H  H655  1  0.001100  0.160900  0.435400  1.0
  H  H656  1  0.839100  0.998900  0.564600  1.0
  H  H657  1  0.998900  0.839100  0.564600  1.0
  H  H658  1  0.160900  0.001100  0.435400  1.0
  H  H659  1  0.999700  0.233300  0.583200  1.0
  H  H660  1  0.766700  0.000300  0.416800  1.0
  H  H661  1  0.000300  0.766700  0.416800  1.0
  H  H662  1  0.233300  0.999700  0.583200  1.0
  H  H663  1  0.847400  0.060600  0.294000  1.0
  H  H664  1  0.939400  0.152600  0.706000  1.0
  H  H665  1  0.152600  0.939400  0.706000  1.0
  H  H666  1  0.060600  0.847400  0.294000  1.0
  H  H667  1  0.927100  0.117700  0.367000  1.0
  H  H668  1  0.882300  0.072900  0.633000  1.0
  H  H669  1  0.072900  0.882300  0.633000  1.0
  H  H670  1  0.117700  0.927100  0.367000  1.0
  H  H671  1  0.858200  0.127000  0.451600  1.0
  H  H672  1  0.873000  0.141800  0.548400  1.0
  H  H673  1  0.141800  0.873000  0.548400  1.0
  H  H674  1  0.127000  0.858200  0.451600  1.0
  H  H675  1  0.780300  0.063700  0.377000  1.0
  H  H676  1  0.936300  0.219700  0.623000  1.0
  H  H677  1  0.219700  0.936300  0.623000  1.0
  H  H678  1  0.063700  0.780300  0.377000  1.0
  H  H679  1  0.767500  0.060100  0.214200  1.0
  H  H680  1  0.939900  0.232500  0.785800  1.0
  H  H681  1  0.232500  0.939900  0.785800  1.0
  H  H682  1  0.060100  0.767500  0.214200  1.0
  H  H683  1  0.754200  0.121200  0.193200  1.0
  H  H684  1  0.878800  0.245800  0.806800  1.0
  H  H685  1  0.245800  0.878800  0.806800  1.0
  H  H686  1  0.121200  0.754200  0.193200  1.0
  H  H687  1  0.672100  0.123700  0.265600  1.0
  H  H688  1  0.876300  0.327900  0.734400  1.0
  H  H689  1  0.327900  0.876300  0.734400  1.0
  H  H690  1  0.123700  0.672100  0.265600  1.0
  H  H691  1  0.688100  0.065100  0.285900  1.0
  H  H692  1  0.934900  0.311900  0.714100  1.0
  H  H693  1  0.311900  0.934900  0.714100  1.0
  H  H694  1  0.065100  0.688100  0.285900  1.0
  H  H695  1  0.726400  0.161600  0.160800  1.0
  H  H696  1  0.838400  0.273600  0.839200  1.0
  H  H697  1  0.273600  0.838400  0.839200  1.0
  H  H698  1  0.161600  0.726400  0.160800  1.0
  H  H699  1  0.651700  0.232100  0.234100  1.0
  H  H700  1  0.767900  0.348300  0.765900  1.0
  H  H701  1  0.348300  0.767900  0.765900  1.0
  H  H702  1  0.232100  0.651700  0.234100  1.0
  H  H703  1  0.764400  0.210000  0.058700  1.0
  H  H704  1  0.790000  0.235600  0.941300  1.0
  H  H705  1  0.235600  0.790000  0.941300  1.0
  H  H706  1  0.210000  0.764400  0.058700  1.0
  H  H707  1  0.752300  0.192300  0.119900  1.0
  H  H708  1  0.807700  0.247700  0.880100  1.0
  H  H709  1  0.247700  0.807700  0.880100  1.0
  H  H710  1  0.192300  0.752300  0.119900  1.0
  H  H711  1  0.673500  0.266700  0.125400  1.0
  H  H712  1  0.733300  0.326500  0.874600  1.0
  H  H713  1  0.326500  0.733300  0.874600  1.0
  H  H714  1  0.266700  0.673500  0.125400  1.0
  H  H715  1  0.685600  0.282800  0.063400  1.0
  H  H716  1  0.717200  0.314400  0.936600  1.0
  H  H717  1  0.314400  0.717200  0.936600  1.0
  H  H718  1  0.282800  0.685600  0.063400  1.0
  H  H719  1  0.706400  0.152000  0.940700  1.0
  H  H720  1  0.848000  0.293600  0.059300  1.0
  H  H721  1  0.293600  0.848000  0.059300  1.0
  H  H722  1  0.152000  0.706400  0.940700  1.0
  H  H723  1  0.631800  0.071600  0.880900  1.0
  H  H724  1  0.928400  0.368200  0.119100  1.0
  H  H725  1  0.368200  0.928400  0.119100  1.0
  H  H726  1  0.071600  0.631800  0.880900  1.0
  H  H727  1  0.547800  0.140800  0.876800  1.0
  H  H728  1  0.859200  0.452200  0.123200  1.0
  H  H729  1  0.452200  0.859200  0.123200  1.0
  H  H730  1  0.140800  0.547800  0.876800  1.0
  H  H731  1  0.625800  0.221000  0.935200  1.0
  H  H732  1  0.779000  0.374200  0.064800  1.0
  H  H733  1  0.374200  0.779000  0.064800  1.0
  H  H734  1  0.221000  0.625800  0.935200  1.0
  H  H735  1  0.565000  0.999600  0.839700  1.0
  H  H736  1  0.000400  0.435000  0.160300  1.0
  H  H737  1  0.435000  0.000400  0.160300  1.0
  H  H738  1  0.999600  0.565000  0.839700  1.0
  H  H739  1  0.417700  0.999100  0.764300  1.0
  H  H740  1  0.000900  0.582300  0.235700  1.0
  H  H741  1  0.582300  0.000900  0.235700  1.0
  H  H742  1  0.999100  0.417700  0.764300  1.0
  H  H743  1  0.553600  0.847400  0.788800  1.0
  H  H744  1  0.152600  0.446400  0.211200  1.0
  H  H745  1  0.446400  0.152600  0.211200  1.0
  H  H746  1  0.847400  0.553600  0.788800  1.0
  H  H747  1  0.560400  0.927800  0.808400  1.0
  H  H748  1  0.072200  0.439600  0.191600  1.0
  H  H749  1  0.439600  0.072200  0.191600  1.0
  H  H750  1  0.927800  0.560400  0.808400  1.0
  H  H751  1  0.407200  0.858600  0.735100  1.0
  H  H752  1  0.141400  0.592800  0.264900  1.0
  H  H753  1  0.592800  0.141400  0.264900  1.0
  H  H754  1  0.858600  0.407200  0.735100  1.0
  H  H755  1  0.403700  0.779700  0.715700  1.0
  H  H756  1  0.220300  0.596300  0.284300  1.0
  H  H757  1  0.596300  0.220300  0.284300  1.0
  H  H758  1  0.779700  0.403700  0.715700  1.0
  H  H759  1  0.553300  0.786900  0.846800  1.0
  H  H760  1  0.213100  0.446700  0.153200  1.0
  H  H761  1  0.446700  0.213100  0.153200  1.0
  H  H762  1  0.786900  0.553300  0.846800  1.0
  H  H763  1  0.560300  0.808700  0.928000  1.0
  H  H764  1  0.191300  0.439700  0.072000  1.0
  H  H765  1  0.439700  0.191300  0.072000  1.0
  H  H766  1  0.808700  0.560300  0.928000  1.0
  H  H767  1  0.406500  0.731700  0.858200  1.0
  H  H768  1  0.268300  0.593500  0.141800  1.0
  H  H769  1  0.593500  0.268300  0.141800  1.0
  H  H770  1  0.731700  0.406500  0.858200  1.0
  H  H771  1  0.402700  0.714900  0.779600  1.0
  H  H772  1  0.285100  0.597300  0.220400  1.0
  H  H773  1  0.597300  0.285100  0.220400  1.0
  H  H774  1  0.714900  0.402700  0.779600  1.0
  H  H775  1  0.565200  0.839800  0.000300  1.0
  H  H776  1  0.160200  0.434800  0.999700  1.0
  H  H777  1  0.434800  0.160200  0.999700  1.0
  H  H778  1  0.839800  0.565200  0.000300  1.0
  H  H779  1  0.416900  0.764300  0.999200  1.0
  H  H780  1  0.235700  0.583100  0.000800  1.0
  H  H781  1  0.583100  0.235700  0.000800  1.0
  H  H782  1  0.764300  0.416900  0.999200  1.0
  H  H783  1  0.706300  0.940300  0.152700  1.0
  H  H784  1  0.059700  0.293700  0.847300  1.0
  H  H785  1  0.293700  0.059700  0.847300  1.0
  H  H786  1  0.940300  0.706300  0.152700  1.0
  H  H787  1  0.633300  0.882500  0.073500  1.0
  H  H788  1  0.117500  0.366700  0.926500  1.0
  H  H789  1  0.366700  0.117500  0.926500  1.0
  H  H790  1  0.882500  0.633300  0.073500  1.0
  H  H791  1  0.547500  0.874500  0.141100  1.0
  H  H792  1  0.125500  0.452500  0.858900  1.0
  H  H793  1  0.452500  0.125500  0.858900  1.0
  H  H794  1  0.874500  0.547500  0.141100  1.0
  H  H795  1  0.623500  0.934700  0.220200  1.0
  H  H796  1  0.065300  0.376500  0.779800  1.0
  H  H797  1  0.376500  0.065300  0.779800  1.0
  H  H798  1  0.934700  0.623500  0.220200  1.0
  H  H799  1  0.554300  0.705900  0.766700  1.0
  H  H800  1  0.294100  0.445700  0.233300  1.0
  H  H801  1  0.445700  0.294100  0.233300  1.0
  H  H802  1  0.705900  0.554300  0.766700  1.0
  H  H803  1  0.559400  0.632200  0.751300  1.0
  H  H804  1  0.367800  0.440600  0.248700  1.0
  H  H805  1  0.440600  0.367800  0.248700  1.0
  H  H806  1  0.632200  0.559400  0.751300  1.0
  H  H807  1  0.406900  0.547700  0.672400  1.0
  H  H808  1  0.452300  0.593100  0.327600  1.0
  H  H809  1  0.593100  0.452300  0.327600  1.0
  H  H810  1  0.547700  0.406900  0.672400  1.0
  H  H811  1  0.404400  0.624800  0.688000  1.0
  H  H812  1  0.375200  0.595600  0.312000  1.0
  H  H813  1  0.595600  0.375200  0.312000  1.0
  H  H814  1  0.624800  0.404400  0.688000  1.0
  H  H815  1  0.786600  0.938800  0.233000  1.0
  H  H816  1  0.061200  0.213400  0.767000  1.0
  H  H817  1  0.213400  0.061200  0.767000  1.0
  H  H818  1  0.938800  0.786600  0.233000  1.0
  H  H819  1  0.810000  0.882800  0.249500  1.0
  H  H820  1  0.117200  0.190000  0.750500  1.0
  H  H821  1  0.190000  0.117200  0.750500  1.0
  H  H822  1  0.882800  0.810000  0.249500  1.0
  H  H823  1  0.733300  0.874300  0.326700  1.0
  H  H824  1  0.125700  0.266700  0.673300  1.0
  H  H825  1  0.266700  0.125700  0.673300  1.0
  H  H826  1  0.874300  0.733300  0.326700  1.0
  H  H827  1  0.716700  0.936900  0.313600  1.0
  H  H828  1  0.063100  0.283300  0.686400  1.0
  H  H829  1  0.283300  0.063100  0.686400  1.0
  H  H830  1  0.936900  0.716700  0.313600  1.0
  H  H831  1  0.219600  0.283600  0.596200  1.0
  H  H832  1  0.716400  0.780400  0.403800  1.0
  H  H833  1  0.780400  0.716400  0.403800  1.0
  H  H834  1  0.283600  0.219600  0.596200  1.0
  N  N835  1  0.273720  0.522680  0.328300  1.0
  N  N836  1  0.477320  0.726280  0.671700  1.0
  N  N837  1  0.726280  0.477320  0.671700  1.0
  N  N838  1  0.522680  0.273720  0.328300  1.0
  N  N839  1  0.324900  0.555700  0.508700  1.0
  N  N840  1  0.444300  0.675100  0.491300  1.0
  N  N841  1  0.675100  0.444300  0.491300  1.0
  N  N842  1  0.555700  0.324900  0.508700  1.0
  N  N843  1  0.325500  0.509300  0.556500  1.0
  N  N844  1  0.490700  0.674500  0.443500  1.0
  N  N845  1  0.674500  0.490700  0.443500  1.0
  N  N846  1  0.509300  0.325500  0.556500  1.0
  N  N847  1  0.273010  0.327590  0.522200  1.0
  N  N848  1  0.672410  0.726990  0.477800  1.0
  N  N849  1  0.726990  0.672410  0.477800  1.0
  N  N850  1  0.327590  0.273010  0.522200  1.0
  N  N851  1  0.193400  0.249000  0.522200  1.0
  N  N852  1  0.751000  0.806600  0.477800  1.0
  N  N853  1  0.806600  0.751000  0.477800  1.0
  N  N854  1  0.249000  0.193400  0.522200  1.0
  N  N855  1  0.046900  0.232500  0.557200  1.0
  N  N856  1  0.767500  0.953100  0.442800  1.0
  N  N857  1  0.953100  0.767500  0.442800  1.0
  N  N858  1  0.232500  0.046900  0.557200  1.0
  N  N859  1  0.954200  0.186000  0.510200  1.0
  N  N860  1  0.814000  0.045800  0.489800  1.0
  N  N861  1  0.045800  0.814000  0.489800  1.0
  N  N862  1  0.186000  0.954200  0.510200  1.0
  N  N863  1  0.806210  0.054790  0.328500  1.0
  N  N864  1  0.945210  0.193790  0.671500  1.0
  N  N865  1  0.193790  0.945210  0.671500  1.0
  N  N866  1  0.054790  0.806210  0.328500  1.0
  N  N867  1  0.726740  0.054860  0.249300  1.0
  N  N868  1  0.945140  0.273260  0.750700  1.0
  N  N869  1  0.273260  0.945140  0.750700  1.0
  N  N870  1  0.054860  0.726740  0.249300  1.0
  N  N871  1  0.674600  0.184400  0.231000  1.0
  N  N872  1  0.815600  0.325400  0.769000  1.0
  N  N873  1  0.325400  0.815600  0.769000  1.0
  N  N874  1  0.184400  0.674600  0.231000  1.0
  N  N875  1  0.674800  0.230600  0.184100  1.0
  N  N876  1  0.769400  0.325200  0.815900  1.0
  N  N877  1  0.325200  0.769400  0.815900  1.0
  N  N878  1  0.230600  0.674800  0.184100  1.0
  N  N879  1  0.726640  0.249360  0.055000  1.0
  N  N880  1  0.750640  0.273360  0.945000  1.0
  N  N881  1  0.273360  0.750640  0.945000  1.0
  N  N882  1  0.249360  0.726640  0.055000  1.0
  N  N883  1  0.672690  0.194110  0.945500  1.0
  N  N884  1  0.805890  0.327310  0.054500  1.0
  N  N885  1  0.327310  0.805890  0.054500  1.0
  N  N886  1  0.194110  0.672690  0.945500  1.0
  N  N887  1  0.490100  0.046100  0.814400  1.0
  N  N888  1  0.953900  0.509900  0.185600  1.0
  N  N889  1  0.509900  0.953900  0.185600  1.0
  N  N890  1  0.046100  0.490100  0.814400  1.0
  N  N891  1  0.443800  0.953600  0.768500  1.0
  N  N892  1  0.046400  0.556200  0.231500  1.0
  N  N893  1  0.556200  0.046400  0.231500  1.0
  N  N894  1  0.953600  0.443800  0.768500  1.0
  N  N895  1  0.478170  0.806030  0.750900  1.0
  N  N896  1  0.193970  0.521830  0.249100  1.0
  N  N897  1  0.521830  0.193970  0.249100  1.0
  N  N898  1  0.806030  0.478170  0.750900  1.0
  N  N899  1  0.476650  0.749950  0.805500  1.0
  N  N900  1  0.250050  0.523350  0.194500  1.0
  N  N901  1  0.523350  0.250050  0.194500  1.0
  N  N902  1  0.749950  0.476650  0.805500  1.0
  N  N903  1  0.443700  0.768900  0.954400  1.0
  N  N904  1  0.231100  0.556300  0.045600  1.0
  N  N905  1  0.556300  0.231100  0.045600  1.0
  N  N906  1  0.768900  0.443700  0.954400  1.0
  N  N907  1  0.489300  0.814100  0.045400  1.0
  N  N908  1  0.185900  0.510700  0.954600  1.0
  N  N909  1  0.510700  0.185900  0.954600  1.0
  N  N910  1  0.814100  0.489300  0.045400  1.0
  N  N911  1  0.671680  0.945320  0.194300  1.0
  N  N912  1  0.054680  0.328320  0.805700  1.0
  N  N913  1  0.328320  0.054680  0.805700  1.0
  N  N914  1  0.945320  0.671680  0.194300  1.0
  N  N915  1  0.478150  0.672050  0.727100  1.0
  N  N916  1  0.327950  0.521850  0.272900  1.0
  N  N917  1  0.521850  0.327950  0.272900  1.0
  N  N918  1  0.672050  0.478150  0.727100  1.0
  N  N919  1  0.443700  0.490300  0.675200  1.0
  N  N920  1  0.509700  0.556300  0.324800  1.0
  N  N921  1  0.556300  0.509700  0.324800  1.0
  N  N922  1  0.490300  0.443700  0.675200  1.0
  N  N923  1  0.750960  0.944840  0.273200  1.0
  N  N924  1  0.055160  0.249040  0.726800  1.0
  N  N925  1  0.249040  0.055160  0.726800  1.0
  N  N926  1  0.944840  0.750960  0.273200  1.0
  N  N927  1  0.768500  0.814700  0.325000  1.0
  N  N928  1  0.185300  0.231500  0.675000  1.0
  N  N929  1  0.231500  0.185300  0.675000  1.0
  N  N930  1  0.814700  0.768500  0.325000  1.0
  O  O931  1  0.712200  0.091800  0.006000  1
  O  O932  1  0.908200  0.287800  0.994000  1
  O  O933  1  0.287800  0.908200  0.994000  1
  O  O934  1  0.091800  0.712200  0.006000  1
  O  O935  1  0.708800  0.063200  0.062000  1
  O  O936  1  0.936800  0.291200  0.938000  1
  O  O937  1  0.291200  0.936800  0.938000  1
  O  O938  1  0.063200  0.708800  0.062000  1
  O  O939  1  0.807200  0.156800  0.160000  1
  O  O940  1  0.843200  0.192800  0.840000  1
  O  O941  1  0.192800  0.843200  0.840000  1
  O  O942  1  0.156800  0.807200  0.160000  1
  O  O943  1  0.803400  0.082600  0.098000  1
  O  O944  1  0.917400  0.196600  0.902000  1
  O  O945  1  0.196600  0.917400  0.902000  1
  O  O946  1  0.082600  0.803400  0.098000  1
  O  O947  1  0.705100  0.006900  0.086000  1
  O  O948  1  0.993100  0.294900  0.914000  1
  O  O949  1  0.294900  0.993100  0.914000  1
  O  O950  1  0.006900  0.705100  0.086000  1
  O  O951  1  0.621000  0.933000  0.909000  1
  O  O952  1  0.067000  0.379000  0.091000  1
  O  O953  1  0.379000  0.067000  0.091000  1
  O  O954  1  0.933000  0.621000  0.909000  1
  O  O955  1  0.656300  0.939700  0.844000  1
  O  O956  1  0.060300  0.343700  0.156000  1
  O  O957  1  0.343700  0.060300  0.156000  1
  O  O958  1  0.939700  0.656300  0.844000  1
  O  O959  1  0.652700  0.859300  0.935000  1
  O  O960  1  0.140700  0.347300  0.065000  1
  O  O961  1  0.347300  0.140700  0.065000  1
  O  O962  1  0.859300  0.652700  0.935000  1
  O  O963  1  0.699000  0.917000  0.912000  1
  O  O964  1  0.083000  0.301000  0.088000  1
  O  O965  1  0.301000  0.083000  0.088000  1
  O  O966  1  0.917000  0.699000  0.912000  1
  O  O967  1  0.641400  0.000600  0.830000  1
  O  O968  1  0.999400  0.358600  0.170000  1
  O  O969  1  0.358600  0.999400  0.170000  1
  O  O970  1  0.000600  0.641400  0.830000  1
  O  O971  1  0.652900  0.005100  0.927000  1
  O  O972  1  0.994900  0.347100  0.073000  1
  O  O973  1  0.347100  0.994900  0.073000  1
  O  O974  1  0.005100  0.652900  0.927000  1
  O  O975  1  0.727300  0.064700  0.910000  1
  O  O976  1  0.935300  0.272700  0.090000  1
  O  O977  1  0.272700  0.935300  0.090000  1
  O  O978  1  0.064700  0.727300  0.910000  1
  O  O979  1  0.000900  0.110700  0.352700  1
  O  O980  1  0.889300  0.999100  0.647300  1
  O  O981  1  0.999100  0.889300  0.647300  1
  O  O982  1  0.110700  0.000900  0.352700  1
  O  O983  1  0.986000  0.126000  0.300000  1
  O  O984  1  0.874000  0.014000  0.700000  1
  O  O985  1  0.014000  0.874000  0.700000  1
  O  O986  1  0.126000  0.986000  0.300000  1
  O  O987  1  0.056000  0.188000  0.350000  1
  O  O988  1  0.812000  0.944000  0.650000  1
  O  O989  1  0.944000  0.812000  0.650000  1
  O  O990  1  0.188000  0.056000  0.350000  1
  O  O991  1  0.277600  0.352800  0.353000  1
  O  O992  1  0.647200  0.722400  0.647000  1
  O  O993  1  0.722400  0.647200  0.647000  1
  O  O994  1  0.352800  0.277600  0.353000  1
  O  O995  1  0.193800  0.288200  0.303000  1
  O  O996  1  0.711800  0.806200  0.697000  1
  O  O997  1  0.806200  0.711800  0.697000  1
  O  O998  1  0.288200  0.193800  0.303000  1
  O  O999  1  0.185800  0.357400  0.360000  1
  O  O1000  1  0.642600  0.814200  0.640000  1
  O  O1001  1  0.814200  0.642600  0.640000  1
  O  O1002  1  0.357400  0.185800  0.360000  1
  O  O1003  1  0.678000  0.678000  0.615000  1
  O  O1004  1  0.322000  0.322000  0.385000  1
  O  O1005  1  0.923000  0.923000  0.264000  1
  O  O1006  1  0.077000  0.077000  0.736000  1
  O  O1007  1  0.835000  0.835000  0.179000  1
  O  O1008  1  0.165000  0.165000  0.821000  1
  O  O1009  1  0.651400  0.934600  0.009000  1
  O  O1010  1  0.065400  0.348600  0.991000  1
  O  O1011  1  0.348600  0.065400  0.991000  1
  O  O1012  1  0.934600  0.651400  0.009000  1
  O  O1013  1  0.694000  0.850000  0.990000  1
  O  O1014  1  0.150000  0.306000  0.010000  1
  O  O1015  1  0.306000  0.150000  0.010000  1
  O  O1016  1  0.850000  0.694000  0.990000  1
  O  O1017  1  0.420000  0.420000  0.524000  1
  O  O1018  1  0.580000  0.580000  0.476000  1
  O  O1019  1  0.568500  0.105500  0.050000  1
  O  O1020  1  0.894500  0.431500  0.950000  1
  O  O1021  1  0.431500  0.894500  0.950000  1
  O  O1022  1  0.105500  0.568500  0.050000  1
  O  O1023  1  0.519000  0.061000  0.950000  1
  O  O1024  1  0.939000  0.481000  0.050000  1
  O  O1025  1  0.481000  0.939000  0.050000  1
  O  O1026  1  0.061000  0.519000  0.950000  1
  O  O1027  1  0.648000  0.648000  0.809000  1
  O  O1028  1  0.352000  0.352000  0.191000  1
  O  O1029  1  0.653000  0.653000  0.722000  1
  O  O1030  1  0.347000  0.347000  0.278000  1
  O  O1031  1  0.834000  0.834000  0.116000  1
  O  O1032  1  0.166000  0.166000  0.884000  1
  O  O1033  1  0.142000  0.358000  0.498000  1
  O  O1034  1  0.642000  0.858000  0.502000  1
  O  O1035  1  0.858000  0.642000  0.502000  1
  O  O1036  1  0.358000  0.142000  0.498000  1
  O  O1037  1  0.212300  0.339700  0.286000  1
  O  O1038  1  0.660300  0.787700  0.714000  1
  O  O1039  1  0.787700  0.660300  0.714000  1
  O  O1040  1  0.339700  0.212300  0.286000  1
  O  O1041  1  0.938000  0.044000  0.295000  1
  O  O1042  1  0.956000  0.062000  0.705000  1
  O  O1043  1  0.062000  0.956000  0.705000  1
  O  O1044  1  0.044000  0.938000  0.295000  1
  O  O1045  1  0.530200  0.099800  0.102000  1
  O  O1046  1  0.900200  0.469800  0.898000  1
  O  O1047  1  0.469800  0.900200  0.898000  1
  O  O1048  1  0.099800  0.530200  0.102000  1
  O  O1049  1  0.002300  0.183700  0.185000  1
  O  O1050  1  0.816300  0.997700  0.815000  1
  O  O1051  1  0.997700  0.816300  0.815000  1
  O  O1052  1  0.183700  0.002300  0.185000  1
  O  O1053  1  0.993500  0.090500  0.557000  1
  O  O1054  1  0.909500  0.006500  0.443000  1
  O  O1055  1  0.006500  0.909500  0.443000  1
  O  O1056  1  0.090500  0.993500  0.557000  1
  O  O1057  1  0.572300  0.001700  0.098000  1
  O  O1058  1  0.998300  0.427700  0.902000  1
  O  O1059  1  0.427700  0.998300  0.902000  1
  O  O1060  1  0.001700  0.572300  0.098000  1
  O  O1061  1  0.897600  0.956400  0.471000  1
  O  O1062  1  0.043600  0.102400  0.529000  1
  O  O1063  1  0.102400  0.043600  0.529000  1
  O  O1064  1  0.956400  0.897600  0.471000  1
  O  O1065  1  0.482400  0.573600  0.570000  1
  O  O1066  1  0.426400  0.517600  0.430000  1
  O  O1067  1  0.517600  0.426400  0.430000  1
  O  O1068  1  0.573600  0.482400  0.570000  1
  O  O1069  1  0.855000  0.201000  0.329000  1
  O  O1070  1  0.799000  0.145000  0.671000  1
  O  O1071  1  0.145000  0.799000  0.671000  1
  O  O1072  1  0.201000  0.855000  0.329000  1
  O  O1073  1  0.589000  0.887000  0.709000  1
  O  O1074  1  0.113000  0.411000  0.291000  1
  O  O1075  1  0.411000  0.113000  0.291000  1
  O  O1076  1  0.887000  0.589000  0.709000  1
  O  O1077  1  0.741000  0.893000  0.092000  1
  O  O1078  1  0.107000  0.259000  0.908000  1
  O  O1079  1  0.259000  0.107000  0.908000  1
  O  O1080  1  0.893000  0.741000  0.092000  1
  O  O1081  1  0.712000  0.990000  0.916000  1
  O  O1082  1  0.010000  0.288000  0.084000  1
  O  O1083  1  0.288000  0.010000  0.084000  1
  O  O1084  1  0.990000  0.712000  0.916000  1
  O  O1085  1  0.876000  0.146000  0.270000  1
  O  O1086  1  0.854000  0.124000  0.730000  1
  O  O1087  1  0.124000  0.854000  0.730000  1
  O  O1088  1  0.146000  0.876000  0.270000  1
  O  O1089  1  0.832000  0.892000  0.932000  1
  O  O1090  1  0.108000  0.168000  0.068000  1
  O  O1091  1  0.168000  0.108000  0.068000  1
  O  O1092  1  0.892000  0.832000  0.932000  1
  O  O1093  1  0.715000  0.923000  0.009000  1
  O  O1094  1  0.077000  0.285000  0.991000  1
  O  O1095  1  0.285000  0.077000  0.991000  1
  O  O1096  1  0.923000  0.715000  0.009000  1
  O  O1097  1  0.819000  0.081000  0.180000  1
  O  O1098  1  0.919000  0.181000  0.820000  1
  O  O1099  1  0.181000  0.919000  0.820000  1
  O  O1100  1  0.081000  0.819000  0.180000  1
  O  O1101  1  0.080900  0.125100  0.372000  1
  O  O1102  1  0.874900  0.919100  0.628000  1
  O  O1103  1  0.919100  0.874900  0.628000  1
  O  O1104  1  0.125100  0.080900  0.372000  1
  O  O1105  1  0.689000  0.689000  0.988000  1
  O  O1106  1  0.311000  0.311000  0.012000  1
  O  O1107  1  0.839000  0.839000  0.012000  1
  O  O1108  1  0.161000  0.161000  0.988000  1
  O  O1109  1  0.998800  0.163800  0.356000  1
  O  O1110  1  0.836200  0.001200  0.644000  1
  O  O1111  1  0.001200  0.836200  0.644000  1
  O  O1112  1  0.163800  0.998800  0.356000  1
  O  O1113  1  1.000000  0.178000  0.302000  1
  O  O1114  1  0.822000  1.000000  0.698000  1
  O  O1115  1  0.000000  0.822000  0.698000  1
  O  O1116  1  0.178000  1.000000  0.302000  1
  O  O1117  1  0.910000  0.910000  0.478000  1
  O  O1118  1  0.090000  0.090000  0.522000  1
  O  O1119  1  0.229900  0.352300  0.352200  1
  O  O1120  1  0.647700  0.770100  0.647800  1
  O  O1121  1  0.770100  0.647700  0.647800  1
  O  O1122  1  0.352300  0.229900  0.352200  1
  O  O1123  1  0.163300  0.312700  0.311000  1
  O  O1124  1  0.687300  0.836700  0.689000  1
  O  O1125  1  0.836700  0.687300  0.689000  1
  O  O1126  1  0.312700  0.163300  0.311000  1
  O  O1127  1  0.439000  0.523000  0.547000  1
  O  O1128  1  0.477000  0.561000  0.453000  1
  O  O1129  1  0.561000  0.477000  0.453000  1
  O  O1130  1  0.523000  0.439000  0.547000  1
  O  O1131  1  0.882000  0.882000  0.235000  1
  O  O1132  1  0.118000  0.118000  0.765000  1
  O  O1133  1  0.924000  0.988000  0.300000  1
  O  O1134  1  0.012000  0.076000  0.700000  1
  O  O1135  1  0.076000  0.012000  0.700000  1
  O  O1136  1  0.988000  0.924000  0.300000  1
  O  O1137  1  0.883000  0.883000  0.183000  1
  O  O1138  1  0.117000  0.117000  0.817000  1
  O  O1139  1  0.643000  0.643000  0.752000  1
  O  O1140  1  0.357000  0.357000  0.248000  1
  O  O1141  1  0.693000  0.693000  0.827000  1
  O  O1142  1  0.307000  0.307000  0.173000  1
  O  O1143  1  0.701000  0.701000  0.788000  1
  O  O1144  1  0.299000  0.299000  0.212000  1
  O  O1145  1  0.576000  0.018000  0.134000  1
  O  O1146  1  0.982000  0.424000  0.866000  1
  O  O1147  1  0.424000  0.982000  0.866000  1
  O  O1148  1  0.018000  0.576000  0.134000  1
  O  O1149  1  0.716300  0.917700  0.065000  1
  O  O1150  1  0.082300  0.283700  0.935000  1
  O  O1151  1  0.283700  0.082300  0.935000  1
  O  O1152  1  0.917700  0.716300  0.065000  1
  O  O1153  1  0.651600  0.832400  1.000000  1
  O  O1154  1  0.167600  0.348400  1.000000  1
  O  O1155  1  0.348400  0.167600  1.000000  1
  O  O1156  1  0.832400  0.651600  0.000000  1
  O  O1157  1  0.645200  0.881800  0.997300  1
  O  O1158  1  0.118200  0.354800  0.002700  1
  O  O1159  1  0.354800  0.118200  0.002700  1
  O  O1160  1  0.881800  0.645200  0.997300  1
  O  O1161  1  0.837000  0.933000  0.972000  1
  O  O1162  1  0.067000  0.163000  0.028000  1
  O  O1163  1  0.163000  0.067000  0.028000  1
  O  O1164  1  0.933000  0.837000  0.972000  1
  O  O1165  1  0.763200  0.060800  0.120000  1
  O  O1166  1  0.939200  0.236800  0.880000  1
  O  O1167  1  0.236800  0.939200  0.880000  1
  O  O1168  1  0.060800  0.763200  0.120000  1
  O  O1169  1  0.833000  0.149000  0.142000  1
  O  O1170  1  0.851000  0.167000  0.858000  1
  O  O1171  1  0.167000  0.851000  0.858000  1
  O  O1172  1  0.149000  0.833000  0.142000  1
  O  O1173  1  0.761100  0.113900  0.112300  1
  O  O1174  1  0.886100  0.238900  0.887700  1
  O  O1175  1  0.238900  0.886100  0.887700  1
  O  O1176  1  0.113900  0.761100  0.112300  1
  O  O1177  1  0.765400  0.120600  0.060000  1
  O  O1178  1  0.879400  0.234600  0.940000  1
  O  O1179  1  0.234600  0.879400  0.940000  1
  O  O1180  1  0.120600  0.765400  0.060000  1
  O  O1181  1  0.574100  0.103900  0.999000  1
  O  O1182  1  0.896100  0.425900  0.001000  1
  O  O1183  1  0.425900  0.896100  0.001000  1
  O  O1184  1  0.103900  0.574100  0.999000  1
  O  O1185  1  0.711800  0.060200  0.946000  1
  O  O1186  1  0.939800  0.288200  0.054000  1
  O  O1187  1  0.288200  0.939800  0.054000  1
  O  O1188  1  0.060200  0.711800  0.946000  1
  O  O1189  1  0.645300  0.995500  0.878100  1
  O  O1190  1  0.004500  0.354700  0.121900  1
  O  O1191  1  0.354700  0.004500  0.121900  1
  O  O1192  1  0.995500  0.645300  0.878100  1
  O  O1193  1  0.687300  0.994700  0.843000  1
  O  O1194  1  0.005300  0.312700  0.157000  1
  O  O1195  1  0.312700  0.005300  0.157000  1
  O  O1196  1  0.994700  0.687300  0.843000  1
  O  O1197  1  0.639300  0.908700  0.872000  1
  O  O1198  1  0.091300  0.360700  0.128000  1
  O  O1199  1  0.360700  0.091300  0.128000  1
  O  O1200  1  0.908700  0.639300  0.872000  1
  O  O1201  1  0.636400  0.857600  0.884000  1
  O  O1202  1  0.142400  0.363600  0.116000  1
  O  O1203  1  0.363600  0.142400  0.116000  1
  O  O1204  1  0.857600  0.636400  0.884000  1
  O  O1205  1  0.493000  0.859000  0.078000  1
  O  O1206  1  0.141000  0.507000  0.922000  1
  O  O1207  1  0.507000  0.141000  0.922000  1
  O  O1208  1  0.859000  0.493000  0.078000  1
  Pd  Pd1209  1  0.262140  0.262140  0.524230  1.0
  Pd  Pd1210  1  0.737860  0.737860  0.475770  1.0
  Pd  Pd1211  1  0.737860  0.262140  1.000000  1.0
  Pd  Pd1212  1  0.262140  0.737860  1.000000  1.0
  Pd  Pd1213  1  0.475740  0.737860  0.737960  1.0
  Pd  Pd1214  1  0.262140  0.524260  0.262040  1.0
  Pd  Pd1215  1  0.524260  0.262140  0.262040  1.0
  Pd  Pd1216  1  0.737860  0.475740  0.737960  1.0
  Pd  Pd1217  1  0.737800  0.999900  0.262110  1.0
  Pd  Pd1218  1  0.000100  0.262200  0.737890  1.0
  Pd  Pd1219  1  0.262200  0.000100  0.737890  1.0
  Pd  Pd1220  1  0.999900  0.737800  0.262110  1.0
