
#######################################################################
#
#                 Cambridge Crystallographic Data Centre
#                                CCDC 
#
#######################################################################
#
# If this CIF has been generated from an entry in the Cambridge 
# Structural Database, then it will include bibliographic, chemical, 
# crystal, experimental, refinement or atomic coordinate data resulting 
# from the CCDC's data processing and validation procedures.
#
#######################################################################

data_HUZYOS
_chemical_formula_moiety         
'C336 H240 N96 Pd12 24+,24(B1 F4 1-),102.80(H2 O1)'
_chemical_name_systematic        
'tetracosakis(\m~2~-4,6-bis(Pyridin-4-yl)pyrimidine)-dodeca-palladium tetracosakis(tetrafluoroborate) hydrate'
_symmetry_cell_setting           monoclinic
_symmetry_space_group_name_H-M   'C 2/m'
_symmetry_Int_Tables_number      12
_space_group_name_Hall           '-C 2y'
loop_
_symmetry_equiv_pos_site_id
_symmetry_equiv_pos_as_xyz
1 x,y,z
2 -x,y,-z
3 1/2+x,1/2+y,z
4 1/2-x,1/2+y,-z
5 -x,-y,-z
6 x,-y,z
7 1/2-x,1/2-y,-z
8 1/2+x,1/2-y,z
_cell_length_a                   36.333(7)
_cell_length_b                   51.382(10)
_cell_length_c                   31.465(6)
_cell_angle_alpha                90
_cell_angle_beta                 125.26(3)
_cell_angle_gamma                90
_cell_volume                     47964.3
_exptl_crystal_colour            colorless
_exptl_crystal_description       block
_cell_formula_units_Z            2
loop_
_atom_site_label
_atom_site_type_symbol
_atom_site_fract_x
_atom_site_fract_y
_atom_site_fract_z
N1 N -0.3982(3) 0.12448(16) -0.3283(4)
C1 C -0.3652(5) 0.1110(3) -0.3261(6)
H1 H -0.3400 0.1057 -0.2941
C2 C -0.3688(5) 0.1049(3) -0.3716(6)
H2 H -0.3457 0.0956 -0.3693
C3 C -0.4041(4) 0.1121(2) -0.4177(5)
C4 C -0.4351(4) 0.1268(2) -0.4191(5)
H3 H -0.4591 0.1334 -0.4508
C5 C -0.4321(4) 0.1321(2) -0.3746(5)
H4 H -0.4552 0.1416 -0.3772
C6 C -0.3783(4) 0.0880(2) -0.4662(5)
H5 H -0.3540 0.0811 -0.4351
C7 C -0.4073(5) 0.1044(3) -0.4661(5)
N2 N -0.4403(4) 0.1154(3) -0.5087(5)
C8 C -0.4414(6) 0.1088(4) -0.5507(7)
H6 H -0.4628 0.1177 -0.5809
N3 N -0.4174(5) 0.0919(3) -0.5565(5)
C9 C -0.3849(4) 0.0816(2) -0.5122(6)
N4 N -0.3003(3) 0.02729(17) -0.5222(4)
C10 C -0.2902(4) 0.0359(3) -0.4764(5)
H7 H -0.2646 0.0295 -0.4459
C11 C -0.3160(5) 0.0538(3) -0.4728(5)
H8 H -0.3070 0.0598 -0.4402
C12 C -0.3556(4) 0.0632(2) -0.5171(5)
C13 C -0.3651(4) 0.0559(3) -0.5631(5)
H9 H -0.3899 0.0630 -0.5937
C14 C -0.3366(4) 0.0371(2) -0.5652(5)
H10 H -0.3440 0.0316 -0.5974
N5 N -0.2212(3) 0.02780(16) -0.5222(4)
C15 C -0.1858(5) 0.0356(3) -0.4761(5)
H11 H -0.1811 0.0288 -0.4460
C16 C -0.1559(4) 0.0534(3) -0.4721(5)
H12 H -0.1323 0.0593 -0.4394
C17 C -0.1609(4) 0.0627(2) -0.5163(5)
C18 C -0.1973(4) 0.0557(2) -0.5625(5)
H13 H -0.2030 0.0627 -0.5930
C19 C -0.2268(4) 0.0375(3) -0.5639(5)
C20 C -0.0881(4) 0.0875(2) -0.4661(5)
H14 H -0.0810 0.0799 -0.4354
C21 C -0.1272(4) 0.0821(3) -0.5119(6)
N6 N -0.1397(4) 0.0928(3) -0.5572(4)
C22 C -0.1092(7) 0.1092(4) -0.5524(7)
H15 H -0.1165 0.1168 -0.5832
N7 N -0.0701(5) 0.1159(3) -0.5102(5)
C23 C -0.0585(4) 0.1050(3) -0.4659(5)
N8 N 0.0695(3) 0.12429(16) -0.3285(4)
C24 C 0.0391(5) 0.1114(3) -0.3264(6)
H16 H 0.0460 0.1066 -0.2940
C25 C -0.0022(5) 0.1048(3) -0.3701(6)
H17 H -0.0224 0.0953 -0.3670
C26 C -0.0141(4) 0.1121(2) -0.4186(5)
C27 C 0.0153(4) 0.1273(2) -0.4202(5)
H18 H 0.0074 0.1344 -0.4516
C28 C 0.0573(4) 0.1323(2) -0.3748(6)
H19 H 0.0780 0.1417 -0.3770
N9 N 0.1092(3) 0.16406(17) -0.2493(3)
C29 C 0.0903(6) 0.1626(2) -0.2238(6)
H20 H 0.0862 0.1463 -0.2142
C30 C 0.0760(6) 0.1849(2) -0.2105(6)
H21 H 0.0623 0.1835 -0.1932
C31 C 0.0834(4) 0.2092(2) -0.2245(5)
C32 C 0.0995(5) 0.2099(2) -0.2534(5)
H22 H 0.1021 0.2258 -0.2656
C33 C 0.1123(4) 0.1873(3) -0.2657(5)
H23 H 0.1234 0.1885 -0.2859
C34 C 0.0574(4) 0.2331(2) -0.1751(5)
H24 H 0.0560 0.2176 -0.1608
C35 C 0.0700(5) 0.2327(2) -0.2083(5)
N10 N 0.0705(5) 0.2549(2) -0.2310(6)
C36 C 0.0588(9) 0.2749(3) -0.2178(9)
H25 H 0.0581 0.2902 -0.2341
N11 N 0.0473(5) 0.2779(2) -0.1841(6)
C37 C 0.0467(4) 0.2560(3) -0.1630(5)
N12 N 0.0120(3) 0.26136(18) -0.0550(3)
C38 C 0.0165(5) 0.2379(2) -0.0719(6)
H26 H 0.0128 0.2228 -0.0587
C39 C 0.0263(5) 0.2362(2) -0.1078(6)
H27 H 0.0277 0.2200 -0.1199
C40 C 0.0340(4) 0.2583(2) -0.1260(5)
C41 C 0.0277(4) 0.2813(2) -0.1112(5)
H28 H 0.0299 0.2966 -0.1254
C42 C 0.0181(4) 0.2824(2) -0.0747(5)
H29 H 0.0158 0.2986 -0.0634
N13 N 0.0666(3) 0.26071(18) 0.0545(3)
C43 C 0.0878(5) 0.2380(2) 0.0716(6)
H30 H 0.0708 0.2228 0.0593
C44 C 0.1347(5) 0.2361(2) 0.1076(7)
H31 H 0.1483 0.2199 0.1191
C45 C 0.1598(4) 0.2575(2) 0.1254(5)
C46 C 0.1392(4) 0.2812(2) 0.1104(5)
H32 H 0.1557 0.2965 0.1232
C47 C 0.0911(4) 0.2816(3) 0.0744(5)
H33 H 0.0766 0.2976 0.0648
C48 C 0.2330(4) 0.2328(2) 0.1753(5)
H34 H 0.2177 0.2173 0.1603
C49 C 0.2102(4) 0.2558(3) 0.1633(5)
N14 N 0.2319(4) 0.2780(2) 0.1856(6)
C50 C 0.2761(6) 0.2755(3) 0.2188(8)
H35 H 0.2916 0.2907 0.2357
N15 N 0.3013(4) 0.2549(2) 0.2315(5)
C51 C 0.2789(4) 0.2331(2) 0.2095(5)
N16 N 0.3579(3) 0.16393(17) 0.2491(3)
C52 C 0.3137(5) 0.1630(2) 0.2223(6)
H36 H 0.2995 0.1469 0.2112
C53 C 0.2871(4) 0.1852(3) 0.2097(6)
H37 H 0.2559 0.1837 0.1916
C54 C 0.3071(5) 0.2088(2) 0.2243(5)
C55 C 0.3523(4) 0.2098(2) 0.2529(5)
H38 H 0.3671 0.2257 0.2649
C56 C 0.3770(4) 0.1870(3) 0.2647(4)
H39 H 0.4083 0.1880 0.2843
N17 N 0.3867(3) 0.13665(16) 0.1945(3)
C57 C 0.3499(5) 0.1268(3) 0.1508(6)
H40 H 0.3299 0.1168 0.1532
C58 C 0.3410(5) 0.1312(3) 0.1017(5)
H41 H 0.3155 0.1242 0.0720
C59 C 0.3700(4) 0.1458(2) 0.0980(5)
C60 C 0.4089(4) 0.1541(2) 0.1430(5)
H42 H 0.4309 0.1626 0.1418
C61 C 0.4153(4) 0.1496(2) 0.1903(5)
H43 H 0.4412 0.1561 0.2204
C62 C 0.3204(4) 0.1453(2) -0.0004(5)
H44 H 0.2975 0.1373 -0.0003
C63 C 0.3605(5) 0.1513(3) 0.0452(5)
N18 N 0.3937(4) 0.1626(3) 0.0456(5)
C64 C 0.3857(6) 0.1667(4) 0.0006(7)
H45 H 0.4094 0.1737 0.0008
N19 N 0.3483(5) 0.1624(3) -0.0454(5)
C65 C 0.3147(4) 0.1513(2) -0.0456(5)
N20 N 0.1915(3) 0.13682(16) -0.1943(3)
C66 C 0.1989(5) 0.1271(3) -0.1507(6)
H46 H 0.1767 0.1170 -0.1527
C67 C 0.2383(6) 0.1316(3) -0.1031(6)
H47 H 0.2421 0.1246 -0.0735
C68 C 0.2720(4) 0.1457(2) -0.0979(4)
C69 C 0.2661(4) 0.1545(2) -0.1424(5)
H48 H 0.2890 0.1635 -0.1411
C70 C 0.2249(5) 0.1495(2) -0.1900(5)
H49 H 0.2209 0.1556 -0.2202
N21 N 0.4249(3) 0.09695(16) 0.2729(3)
C71 C 0.4012(4) 0.0750(3) 0.2536(6)
H50 H 0.3699 0.0758 0.2333
C72 C 0.4218(5) 0.0513(2) 0.2629(6)
H51 H 0.4042 0.0364 0.2487
C73 C 0.4665(4) 0.0492(2) 0.2920(5)
C74 C 0.4915(4) 0.0710(2) 0.3094(5)
H52 H 0.5227 0.0704 0.3276
C75 C 0.4684(5) 0.0950(2) 0.2992(5)
H53 H 0.4854 0.1102 0.3120
C76 C 0.4658(5) 0.0000 0.2899(6)
H54 H 0.4347 0.0000 0.2725
C77 C 0.4898(4) 0.0232(2) 0.3034(5)
N22 N 0.5330(4) 0.0233(2) 0.3248(6)
C78 C 0.5509(7) 0.0000 0.3324(12)
H55 H 0.5813 0.0000 0.3453
N23 N 0.1521(3) 0.09694(16) -0.2732(3)
C79 C 0.1478(6) 0.0750(3) -0.2538(6)
H56 H 0.1373 0.0761 -0.2330
C80 C 0.1579(5) 0.0513(2) -0.2631(6)
H57 H 0.1536 0.0364 -0.2495
C81 C 0.1746(4) 0.0492(2) -0.2926(5)
C82 C 0.1824(4) 0.0712(2) -0.3094(5)
H58 H 0.1962 0.0705 -0.3267
C83 C 0.1695(4) 0.0950(2) -0.3002(5)
H59 H 0.1732 0.1101 -0.3136
C84 C 0.1736(6) 0.0000 -0.2912(6)
H60 H 0.1575 0.0000 -0.2766
C85 C 0.1864(4) 0.0229(2) -0.3029(5)
N24 N 0.2084(5) 0.0231(2) -0.3250(6)
C86 C 0.2197(11) 0.0000 -0.3329(12)
H61 H 0.2376 0.0000 -0.3453
Pd1 Pd -0.26214(3) 0.0000 -0.52423(4)
Pd2 Pd 0.39320(3) 0.131060(14) 0.26204(3)
Pd3 Pd 0.13115(3) 0.131050(14) -0.26211(3)
Pd4 Pd 0.0000 0.26214(2) 0.0000
H62 H -0.2516 0.0320 -0.5962
N21E N 0.4249(3) -0.09695(16) 0.2729(3)
C71E C 0.4012(4) -0.0750(3) 0.2536(6)
H50E H 0.3699 -0.0758 0.2333
C72E C 0.4218(5) -0.0513(2) 0.2629(6)
H51E H 0.4042 -0.0364 0.2487
C73E C 0.4665(4) -0.0492(2) 0.2920(5)
C74E C 0.4915(4) -0.0710(2) 0.3094(5)
H52E H 0.5227 -0.0704 0.3276
C75E C 0.4684(5) -0.0950(2) 0.2992(5)
H53E H 0.4854 -0.1102 0.3120
C77E C 0.4898(4) -0.0232(2) 0.3034(5)
N22E N 0.5330(4) -0.0233(2) 0.3248(6)
N23E N 0.1521(3) -0.09694(16) -0.2732(3)
C79E C 0.1478(6) -0.0750(3) -0.2538(6)
H56E H 0.1373 -0.0761 -0.2330
C80E C 0.1579(5) -0.0513(2) -0.2631(6)
H57E H 0.1536 -0.0364 -0.2495
C81E C 0.1746(4) -0.0492(2) -0.2926(5)
C82E C 0.1824(4) -0.0712(2) -0.3094(5)
H58E H 0.1962 -0.0705 -0.3267
C83E C 0.1695(4) -0.0950(2) -0.3002(5)
H59E H 0.1732 -0.1101 -0.3136
C85E C 0.1864(4) -0.0229(2) -0.3029(5)
N24E N 0.2084(5) -0.0231(2) -0.3250(6)
N1A N 0.3982(3) 0.12448(16) 0.3283(4)
C1A C 0.3652(5) 0.1110(3) 0.3261(6)
H1A H 0.3400 0.1057 0.2941
C2A C 0.3688(5) 0.1049(3) 0.3716(6)
H2A H 0.3457 0.0956 0.3693
C3A C 0.4041(4) 0.1121(2) 0.4177(5)
C4A C 0.4351(4) 0.1268(2) 0.4191(5)
H3A H 0.4591 0.1334 0.4508
C5A C 0.4321(4) 0.1321(2) 0.3746(5)
H4A H 0.4552 0.1416 0.3772
C6A C 0.3783(4) 0.0880(2) 0.4662(5)
H5A H 0.3540 0.0811 0.4351
C7A C 0.4073(5) 0.1044(3) 0.4661(5)
N2A N 0.4403(4) 0.1154(3) 0.5087(5)
C8A C 0.4414(6) 0.1088(4) 0.5507(7)
H6A H 0.4628 0.1177 0.5809
N3A N 0.4174(5) 0.0919(3) 0.5565(5)
C9A C 0.3849(4) 0.0816(2) 0.5122(6)
N4A N 0.3003(3) 0.02729(17) 0.5222(4)
C10A C 0.2902(4) 0.0359(3) 0.4764(5)
H7A H 0.2646 0.0295 0.4459
C11A C 0.3160(5) 0.0538(3) 0.4728(5)
H8A H 0.3070 0.0598 0.4402
C12A C 0.3556(4) 0.0632(2) 0.5171(5)
C13A C 0.3651(4) 0.0559(3) 0.5631(5)
H9A H 0.3899 0.0630 0.5937
C14A C 0.3366(4) 0.0371(2) 0.5652(5)
H10A H 0.3440 0.0316 0.5974
N5A N 0.2212(3) 0.02780(16) 0.5222(4)
C15A C 0.1858(5) 0.0356(3) 0.4761(5)
H11A H 0.1811 0.0288 0.4460
C16A C 0.1559(4) 0.0534(3) 0.4721(5)
H12A H 0.1323 0.0593 0.4394
C17A C 0.1609(4) 0.0627(2) 0.5163(5)
C18A C 0.1973(4) 0.0557(2) 0.5625(5)
H13A H 0.2030 0.0627 0.5930
C19A C 0.2268(4) 0.0375(3) 0.5639(5)
C20A C 0.0881(4) 0.0875(2) 0.4661(5)
H14A H 0.0810 0.0799 0.4354
C21A C 0.1272(4) 0.0821(3) 0.5119(6)
N6A N 0.1397(4) 0.0928(3) 0.5572(4)
C22A C 0.1092(7) 0.1092(4) 0.5524(7)
H15A H 0.1165 0.1168 0.5832
N7A N 0.0701(5) 0.1159(3) 0.5102(5)
C23A C 0.0585(4) 0.1050(3) 0.4659(5)
N8A N -0.0695(3) 0.12429(16) 0.3285(4)
C24A C -0.0391(5) 0.1114(3) 0.3264(6)
H16A H -0.0460 0.1066 0.2940
C25A C 0.0022(5) 0.1048(3) 0.3701(6)
H17A H 0.0224 0.0953 0.3670
C26A C 0.0141(4) 0.1121(2) 0.4186(5)
C27A C -0.0153(4) 0.1273(2) 0.4202(5)
H18A H -0.0074 0.1344 0.4516
C28A C -0.0573(4) 0.1323(2) 0.3748(6)
H19A H -0.0780 0.1417 0.3770
N9A N -0.1092(3) 0.16406(17) 0.2493(3)
C29A C -0.0903(6) 0.1626(2) 0.2238(6)
H20A H -0.0862 0.1463 0.2142
C30A C -0.0760(6) 0.1849(2) 0.2105(6)
H21A H -0.0623 0.1835 0.1932
C31A C -0.0834(4) 0.2092(2) 0.2245(5)
C32A C -0.0995(5) 0.2099(2) 0.2534(5)
H22A H -0.1021 0.2258 0.2656
C33A C -0.1123(4) 0.1873(3) 0.2657(5)
H23A H -0.1234 0.1885 0.2859
C34A C -0.0574(4) 0.2331(2) 0.1751(5)
H24A H -0.0560 0.2176 0.1608
C35A C -0.0700(5) 0.2327(2) 0.2083(5)
N10A N -0.0705(5) 0.2549(2) 0.2310(6)
C36A C -0.0588(9) 0.2749(3) 0.2178(9)
H25A H -0.0581 0.2902 0.2341
N11A N -0.0473(5) 0.2779(2) 0.1841(6)
C37A C -0.0467(4) 0.2560(3) 0.1630(5)
N12A N -0.0120(3) 0.26136(18) 0.0550(3)
C38A C -0.0165(5) 0.2379(2) 0.0719(6)
H26A H -0.0128 0.2228 0.0587
C39A C -0.0263(5) 0.2362(2) 0.1078(6)
H27A H -0.0277 0.2200 0.1199
C40A C -0.0340(4) 0.2583(2) 0.1260(5)
C41A C -0.0277(4) 0.2813(2) 0.1112(5)
H28A H -0.0299 0.2966 0.1254
C42A C -0.0181(4) 0.2824(2) 0.0747(5)
H29A H -0.0158 0.2986 0.0634
N13A N -0.0666(3) 0.26071(18) -0.0545(3)
C43A C -0.0878(5) 0.2380(2) -0.0716(6)
H30A H -0.0708 0.2228 -0.0593
C44A C -0.1347(5) 0.2361(2) -0.1076(7)
H31A H -0.1483 0.2199 -0.1191
C45A C -0.1598(4) 0.2575(2) -0.1254(5)
C46A C -0.1392(4) 0.2812(2) -0.1104(5)
H32A H -0.1557 0.2965 -0.1232
C47A C -0.0911(4) 0.2816(3) -0.0744(5)
H33A H -0.0766 0.2976 -0.0648
C48A C -0.2330(4) 0.2328(2) -0.1753(5)
H34A H -0.2177 0.2173 -0.1603
C49A C -0.2102(4) 0.2558(3) -0.1633(5)
N14A N -0.2319(4) 0.2780(2) -0.1856(6)
C50A C -0.2761(6) 0.2755(3) -0.2188(8)
H35A H -0.2916 0.2907 -0.2357
N15A N -0.3013(4) 0.2549(2) -0.2315(5)
C51A C -0.2789(4) 0.2331(2) -0.2095(5)
N16A N -0.3579(3) 0.16393(17) -0.2491(3)
C52A C -0.3137(5) 0.1630(2) -0.2223(6)
H36A H -0.2995 0.1469 -0.2112
C53A C -0.2871(4) 0.1852(3) -0.2097(6)
H37A H -0.2559 0.1837 -0.1916
C54A C -0.3071(5) 0.2088(2) -0.2243(5)
C55A C -0.3523(4) 0.2098(2) -0.2529(5)
H38A H -0.3671 0.2257 -0.2649
C56A C -0.3770(4) 0.1870(3) -0.2647(4)
H39A H -0.4083 0.1880 -0.2843
N17A N -0.3867(3) 0.13665(16) -0.1945(3)
C57A C -0.3499(5) 0.1268(3) -0.1508(6)
H40A H -0.3299 0.1168 -0.1532
C58A C -0.3410(5) 0.1312(3) -0.1017(5)
H41A H -0.3155 0.1242 -0.0720
C59A C -0.3700(4) 0.1458(2) -0.0980(5)
C60A C -0.4089(4) 0.1541(2) -0.1430(5)
H42A H -0.4309 0.1626 -0.1418
C61A C -0.4153(4) 0.1496(2) -0.1903(5)
H43A H -0.4412 0.1561 -0.2204
C62A C -0.3204(4) 0.1453(2) 0.0004(5)
H44A H -0.2975 0.1373 0.0003
C63A C -0.3605(5) 0.1513(3) -0.0452(5)
N18A N -0.3937(4) 0.1626(3) -0.0456(5)
C64A C -0.3857(6) 0.1667(4) -0.0006(7)
H45A H -0.4094 0.1737 -0.0008
N19A N -0.3483(5) 0.1624(3) 0.0454(5)
C65A C -0.3147(4) 0.1513(2) 0.0456(5)
N20A N -0.1915(3) 0.13682(16) 0.1943(3)
C66A C -0.1989(5) 0.1271(3) 0.1507(6)
H46A H -0.1767 0.1170 0.1527
C67A C -0.2383(6) 0.1316(3) 0.1031(6)
H47A H -0.2421 0.1246 0.0735
C68A C -0.2720(4) 0.1457(2) 0.0979(4)
C69A C -0.2661(4) 0.1545(2) 0.1424(5)
H48A H -0.2890 0.1635 0.1411
C70A C -0.2249(5) 0.1495(2) 0.1900(5)
H49A H -0.2209 0.1556 0.2202
N21A N -0.4249(3) 0.09695(16) -0.2729(3)
C71A C -0.4012(4) 0.0750(3) -0.2536(6)
H50A H -0.3699 0.0758 -0.2333
C72A C -0.4218(5) 0.0513(2) -0.2629(6)
H51A H -0.4042 0.0364 -0.2487
C73A C -0.4665(4) 0.0492(2) -0.2920(5)
C74A C -0.4915(4) 0.0710(2) -0.3094(5)
H52A H -0.5227 0.0704 -0.3276
C75A C -0.4684(5) 0.0950(2) -0.2992(5)
H53A H -0.4854 0.1102 -0.3120
C76A C -0.4658(5) 0.0000 -0.2899(6)
H54A H -0.4347 0.0000 -0.2725
C77A C -0.4898(4) 0.0232(2) -0.3034(5)
N22A N -0.5330(4) 0.0233(2) -0.3248(6)
C78A C -0.5509(7) 0.0000 -0.3324(12)
H55A H -0.5813 0.0000 -0.3453
N23A N -0.1521(3) 0.09694(16) 0.2732(3)
C79A C -0.1478(6) 0.0750(3) 0.2538(6)
H56A H -0.1373 0.0761 0.2330
C80A C -0.1579(5) 0.0513(2) 0.2631(6)
H57A H -0.1536 0.0364 0.2495
C81A C -0.1746(4) 0.0492(2) 0.2926(5)
C82A C -0.1824(4) 0.0712(2) 0.3094(5)
H58A H -0.1962 0.0705 0.3267
C83A C -0.1695(4) 0.0950(2) 0.3002(5)
H59A H -0.1732 0.1101 0.3136
C84A C -0.1736(6) 0.0000 0.2912(6)
H60A H -0.1575 0.0000 0.2766
C85A C -0.1864(4) 0.0229(2) 0.3029(5)
N24A N -0.2084(5) 0.0231(2) 0.3250(6)
C86A C -0.2197(11) 0.0000 0.3329(12)
H61A H -0.2376 0.0000 0.3453
Pd1A Pd 0.26214(3) 0.0000 0.52423(4)
Pd2A Pd -0.39320(3) 0.131060(14) -0.26204(3)
Pd3A Pd -0.13115(3) 0.131050(14) 0.26211(3)
H62A H 0.2516 0.0320 0.5962
N21D N -0.4249(3) -0.09695(16) -0.2729(3)
C71D C -0.4012(4) -0.0750(3) -0.2536(6)
H50D H -0.3699 -0.0758 -0.2333
C72D C -0.4218(5) -0.0513(2) -0.2629(6)
H51D H -0.4042 -0.0364 -0.2487
C73D C -0.4665(4) -0.0492(2) -0.2920(5)
C74D C -0.4915(4) -0.0710(2) -0.3094(5)
H52D H -0.5227 -0.0704 -0.3276
C75D C -0.4684(5) -0.0950(2) -0.2992(5)
H53D H -0.4854 -0.1102 -0.3120
C77D C -0.4898(4) -0.0232(2) -0.3034(5)
N22D N -0.5330(4) -0.0233(2) -0.3248(6)
N23D N -0.1521(3) -0.09694(16) 0.2732(3)
C79D C -0.1478(6) -0.0750(3) 0.2538(6)
H56D H -0.1373 -0.0761 0.2330
C80D C -0.1579(5) -0.0513(2) 0.2631(6)
H57D H -0.1536 -0.0364 0.2495
C81D C -0.1746(4) -0.0492(2) 0.2926(5)
C82D C -0.1824(4) -0.0712(2) 0.3094(5)
H58D H -0.1962 -0.0705 0.3267
C83D C -0.1695(4) -0.0950(2) 0.3002(5)
H59D H -0.1732 -0.1101 0.3136
C85D C -0.1864(4) -0.0229(2) 0.3029(5)
N24D N -0.2084(5) -0.0231(2) 0.3250(6)
N1D N 0.3982(3) -0.12448(16) 0.3283(4)
C1D C 0.3652(5) -0.1110(3) 0.3261(6)
H1D H 0.3400 -0.1057 0.2941
C2D C 0.3688(5) -0.1049(3) 0.3716(6)
H2D H 0.3457 -0.0956 0.3693
C3D C 0.4041(4) -0.1121(2) 0.4177(5)
C4D C 0.4351(4) -0.1268(2) 0.4191(5)
H3D H 0.4591 -0.1334 0.4508
C5D C 0.4321(4) -0.1321(2) 0.3746(5)
H4D H 0.4552 -0.1416 0.3772
C6D C 0.3783(4) -0.0880(2) 0.4662(5)
H5D H 0.3540 -0.0811 0.4351
C7D C 0.4073(5) -0.1044(3) 0.4661(5)
N2D N 0.4403(4) -0.1154(3) 0.5087(5)
C8D C 0.4414(6) -0.1088(4) 0.5507(7)
H6D H 0.4628 -0.1177 0.5809
N3D N 0.4174(5) -0.0919(3) 0.5565(5)
C9D C 0.3849(4) -0.0816(2) 0.5122(6)
N4D N 0.3003(3) -0.02729(17) 0.5222(4)
C10D C 0.2902(4) -0.0359(3) 0.4764(5)
H7D H 0.2646 -0.0295 0.4459
C11D C 0.3160(5) -0.0538(3) 0.4728(5)
H8D H 0.3070 -0.0598 0.4402
C12D C 0.3556(4) -0.0632(2) 0.5171(5)
C13D C 0.3651(4) -0.0559(3) 0.5631(5)
H9D H 0.3899 -0.0630 0.5937
C14D C 0.3366(4) -0.0371(2) 0.5652(5)
H10D H 0.3440 -0.0316 0.5974
N5D N 0.2212(3) -0.02780(16) 0.5222(4)
C15D C 0.1858(5) -0.0356(3) 0.4761(5)
H11D H 0.1811 -0.0288 0.4460
C16D C 0.1559(4) -0.0534(3) 0.4721(5)
H12D H 0.1323 -0.0593 0.4394
C17D C 0.1609(4) -0.0627(2) 0.5163(5)
C18D C 0.1973(4) -0.0557(2) 0.5625(5)
H13D H 0.2030 -0.0627 0.5930
C19D C 0.2268(4) -0.0375(3) 0.5639(5)
C20D C 0.0881(4) -0.0875(2) 0.4661(5)
H14D H 0.0810 -0.0799 0.4354
C21D C 0.1272(4) -0.0821(3) 0.5119(6)
N6D N 0.1397(4) -0.0928(3) 0.5572(4)
C22D C 0.1092(7) -0.1092(4) 0.5524(7)
H15D H 0.1165 -0.1168 0.5832
N7D N 0.0701(5) -0.1159(3) 0.5102(5)
C23D C 0.0585(4) -0.1050(3) 0.4659(5)
N8D N -0.0695(3) -0.12429(16) 0.3285(4)
C24D C -0.0391(5) -0.1114(3) 0.3264(6)
H16D H -0.0460 -0.1066 0.2940
C25D C 0.0022(5) -0.1048(3) 0.3701(6)
H17D H 0.0224 -0.0953 0.3670
C26D C 0.0141(4) -0.1121(2) 0.4186(5)
C27D C -0.0153(4) -0.1273(2) 0.4202(5)
H18D H -0.0074 -0.1344 0.4516
C28D C -0.0573(4) -0.1323(2) 0.3748(6)
H19D H -0.0780 -0.1417 0.3770
N9D N -0.1092(3) -0.16406(17) 0.2493(3)
C29D C -0.0903(6) -0.1626(2) 0.2238(6)
H20D H -0.0862 -0.1463 0.2142
C30D C -0.0760(6) -0.1849(2) 0.2105(6)
H21D H -0.0623 -0.1835 0.1932
C31D C -0.0834(4) -0.2092(2) 0.2245(5)
C32D C -0.0995(5) -0.2099(2) 0.2534(5)
H22D H -0.1021 -0.2258 0.2656
C33D C -0.1123(4) -0.1873(3) 0.2657(5)
H23D H -0.1234 -0.1885 0.2859
C34D C -0.0574(4) -0.2331(2) 0.1751(5)
H24D H -0.0560 -0.2176 0.1608
C35D C -0.0700(5) -0.2327(2) 0.2083(5)
N10D N -0.0705(5) -0.2549(2) 0.2310(6)
C36D C -0.0588(9) -0.2749(3) 0.2178(9)
H25D H -0.0581 -0.2902 0.2341
N11D N -0.0473(5) -0.2779(2) 0.1841(6)
C37D C -0.0467(4) -0.2560(3) 0.1630(5)
N12D N -0.0120(3) -0.26136(18) 0.0550(3)
C38D C -0.0165(5) -0.2379(2) 0.0719(6)
H26D H -0.0128 -0.2228 0.0587
C39D C -0.0263(5) -0.2362(2) 0.1078(6)
H27D H -0.0277 -0.2200 0.1199
C40D C -0.0340(4) -0.2583(2) 0.1260(5)
C41D C -0.0277(4) -0.2813(2) 0.1112(5)
H28D H -0.0299 -0.2966 0.1254
C42D C -0.0181(4) -0.2824(2) 0.0747(5)
H29D H -0.0158 -0.2986 0.0634
N13D N -0.0666(3) -0.26071(18) -0.0545(3)
C43D C -0.0878(5) -0.2380(2) -0.0716(6)
H30D H -0.0708 -0.2228 -0.0593
C44D C -0.1347(5) -0.2361(2) -0.1076(7)
H31D H -0.1483 -0.2199 -0.1191
C45D C -0.1598(4) -0.2575(2) -0.1254(5)
C46D C -0.1392(4) -0.2812(2) -0.1104(5)
H32D H -0.1557 -0.2965 -0.1232
C47D C -0.0911(4) -0.2816(3) -0.0744(5)
H33D H -0.0766 -0.2976 -0.0648
C48D C -0.2330(4) -0.2328(2) -0.1753(5)
H34D H -0.2177 -0.2173 -0.1603
C49D C -0.2102(4) -0.2558(3) -0.1633(5)
N14D N -0.2319(4) -0.2780(2) -0.1856(6)
C50D C -0.2761(6) -0.2755(3) -0.2188(8)
H35D H -0.2916 -0.2907 -0.2357
N15D N -0.3013(4) -0.2549(2) -0.2315(5)
C51D C -0.2789(4) -0.2331(2) -0.2095(5)
N16D N -0.3579(3) -0.16393(17) -0.2491(3)
C52D C -0.3137(5) -0.1630(2) -0.2223(6)
H36D H -0.2995 -0.1469 -0.2112
C53D C -0.2871(4) -0.1852(3) -0.2097(6)
H37D H -0.2559 -0.1837 -0.1916
C54D C -0.3071(5) -0.2088(2) -0.2243(5)
C55D C -0.3523(4) -0.2098(2) -0.2529(5)
H38D H -0.3671 -0.2257 -0.2649
C56D C -0.3770(4) -0.1870(3) -0.2647(4)
H39D H -0.4083 -0.1880 -0.2843
N17D N -0.3867(3) -0.13665(16) -0.1945(3)
C57D C -0.3499(5) -0.1268(3) -0.1508(6)
H40D H -0.3299 -0.1168 -0.1532
C58D C -0.3410(5) -0.1312(3) -0.1017(5)
H41D H -0.3155 -0.1242 -0.0720
C59D C -0.3700(4) -0.1458(2) -0.0980(5)
C60D C -0.4089(4) -0.1541(2) -0.1430(5)
H42D H -0.4309 -0.1626 -0.1418
C61D C -0.4153(4) -0.1496(2) -0.1903(5)
H43D H -0.4412 -0.1561 -0.2204
C62D C -0.3204(4) -0.1453(2) 0.0004(5)
H44D H -0.2975 -0.1373 0.0003
C63D C -0.3605(5) -0.1513(3) -0.0452(5)
N18D N -0.3937(4) -0.1626(3) -0.0456(5)
C64D C -0.3857(6) -0.1667(4) -0.0006(7)
H45D H -0.4094 -0.1737 -0.0008
N19D N -0.3483(5) -0.1624(3) 0.0454(5)
C65D C -0.3147(4) -0.1513(2) 0.0456(5)
N20D N -0.1915(3) -0.13682(16) 0.1943(3)
C66D C -0.1989(5) -0.1271(3) 0.1507(6)
H46D H -0.1767 -0.1170 0.1527
C67D C -0.2383(6) -0.1316(3) 0.1031(6)
H47D H -0.2421 -0.1246 0.0735
C68D C -0.2720(4) -0.1457(2) 0.0979(4)
C69D C -0.2661(4) -0.1545(2) 0.1424(5)
H48D H -0.2890 -0.1635 0.1411
C70D C -0.2249(5) -0.1495(2) 0.1900(5)
H49D H -0.2209 -0.1556 0.2202
Pd2D Pd -0.39320(3) -0.131060(14) -0.26204(3)
Pd3D Pd -0.13115(3) -0.131050(14) 0.26211(3)
Pd4D Pd 0.0000 -0.26214(2) 0.0000
H62D H 0.2516 -0.0320 0.5962
N1E N -0.3982(3) -0.12448(16) -0.3283(4)
C1E C -0.3652(5) -0.1110(3) -0.3261(6)
H1E H -0.3400 -0.1057 -0.2941
C2E C -0.3688(5) -0.1049(3) -0.3716(6)
H2E H -0.3457 -0.0956 -0.3693
C3E C -0.4041(4) -0.1121(2) -0.4177(5)
C4E C -0.4351(4) -0.1268(2) -0.4191(5)
H3E H -0.4591 -0.1334 -0.4508
C5E C -0.4321(4) -0.1321(2) -0.3746(5)
H4E H -0.4552 -0.1416 -0.3772
C6E C -0.3783(4) -0.0880(2) -0.4662(5)
H5E H -0.3540 -0.0811 -0.4351
C7E C -0.4073(5) -0.1044(3) -0.4661(5)
N2E N -0.4403(4) -0.1154(3) -0.5087(5)
C8E C -0.4414(6) -0.1088(4) -0.5507(7)
H6E H -0.4628 -0.1177 -0.5809
N3E N -0.4174(5) -0.0919(3) -0.5565(5)
C9E C -0.3849(4) -0.0816(2) -0.5122(6)
N4E N -0.3003(3) -0.02729(17) -0.5222(4)
C10E C -0.2902(4) -0.0359(3) -0.4764(5)
H7E H -0.2646 -0.0295 -0.4459
C11E C -0.3160(5) -0.0538(3) -0.4728(5)
H8E H -0.3070 -0.0598 -0.4402
C12E C -0.3556(4) -0.0632(2) -0.5171(5)
C13E C -0.3651(4) -0.0559(3) -0.5631(5)
H9E H -0.3899 -0.0630 -0.5937
C14E C -0.3366(4) -0.0371(2) -0.5652(5)
H10E H -0.3440 -0.0316 -0.5974
N5E N -0.2212(3) -0.02780(16) -0.5222(4)
C15E C -0.1858(5) -0.0356(3) -0.4761(5)
H11E H -0.1811 -0.0288 -0.4460
C16E C -0.1559(4) -0.0534(3) -0.4721(5)
H12E H -0.1323 -0.0593 -0.4394
C17E C -0.1609(4) -0.0627(2) -0.5163(5)
C18E C -0.1973(4) -0.0557(2) -0.5625(5)
H13E H -0.2030 -0.0627 -0.5930
C19E C -0.2268(4) -0.0375(3) -0.5639(5)
C20E C -0.0881(4) -0.0875(2) -0.4661(5)
H14E H -0.0810 -0.0799 -0.4354
C21E C -0.1272(4) -0.0821(3) -0.5119(6)
N6E N -0.1397(4) -0.0928(3) -0.5572(4)
C22E C -0.1092(7) -0.1092(4) -0.5524(7)
H15E H -0.1165 -0.1168 -0.5832
N7E N -0.0701(5) -0.1159(3) -0.5102(5)
C23E C -0.0585(4) -0.1050(3) -0.4659(5)
N8E N 0.0695(3) -0.12429(16) -0.3285(4)
C24E C 0.0391(5) -0.1114(3) -0.3264(6)
H16E H 0.0460 -0.1066 -0.2940
C25E C -0.0022(5) -0.1048(3) -0.3701(6)
H17E H -0.0224 -0.0953 -0.3670
C26E C -0.0141(4) -0.1121(2) -0.4186(5)
C27E C 0.0153(4) -0.1273(2) -0.4202(5)
H18E H 0.0074 -0.1344 -0.4516
C28E C 0.0573(4) -0.1323(2) -0.3748(6)
H19E H 0.0780 -0.1417 -0.3770
N9E N 0.1092(3) -0.16406(17) -0.2493(3)
C29E C 0.0903(6) -0.1626(2) -0.2238(6)
H20E H 0.0862 -0.1463 -0.2142
C30E C 0.0760(6) -0.1849(2) -0.2105(6)
H21E H 0.0623 -0.1835 -0.1932
C31E C 0.0834(4) -0.2092(2) -0.2245(5)
C32E C 0.0995(5) -0.2099(2) -0.2534(5)
H22E H 0.1021 -0.2258 -0.2656
C33E C 0.1123(4) -0.1873(3) -0.2657(5)
H23E H 0.1234 -0.1885 -0.2859
C34E C 0.0574(4) -0.2331(2) -0.1751(5)
H24E H 0.0560 -0.2176 -0.1608
C35E C 0.0700(5) -0.2327(2) -0.2083(5)
N10E N 0.0705(5) -0.2549(2) -0.2310(6)
C36E C 0.0588(9) -0.2749(3) -0.2178(9)
H25E H 0.0581 -0.2902 -0.2341
N11E N 0.0473(5) -0.2779(2) -0.1841(6)
C37E C 0.0467(4) -0.2560(3) -0.1630(5)
N12E N 0.0120(3) -0.26136(18) -0.0550(3)
C38E C 0.0165(5) -0.2379(2) -0.0719(6)
H26E H 0.0128 -0.2228 -0.0587
C39E C 0.0263(5) -0.2362(2) -0.1078(6)
H27E H 0.0277 -0.2200 -0.1199
C40E C 0.0340(4) -0.2583(2) -0.1260(5)
C41E C 0.0277(4) -0.2813(2) -0.1112(5)
H28E H 0.0299 -0.2966 -0.1254
C42E C 0.0181(4) -0.2824(2) -0.0747(5)
H29E H 0.0158 -0.2986 -0.0634
N13E N 0.0666(3) -0.26071(18) 0.0545(3)
C43E C 0.0878(5) -0.2380(2) 0.0716(6)
H30E H 0.0708 -0.2228 0.0593
C44E C 0.1347(5) -0.2361(2) 0.1076(7)
H31E H 0.1483 -0.2199 0.1191
C45E C 0.1598(4) -0.2575(2) 0.1254(5)
C46E C 0.1392(4) -0.2812(2) 0.1104(5)
H32E H 0.1557 -0.2965 0.1232
C47E C 0.0911(4) -0.2816(3) 0.0744(5)
H33E H 0.0766 -0.2976 0.0648
C48E C 0.2330(4) -0.2328(2) 0.1753(5)
H34E H 0.2177 -0.2173 0.1603
C49E C 0.2102(4) -0.2558(3) 0.1633(5)
N14E N 0.2319(4) -0.2780(2) 0.1856(6)
C50E C 0.2761(6) -0.2755(3) 0.2188(8)
H35E H 0.2916 -0.2907 0.2357
N15E N 0.3013(4) -0.2549(2) 0.2315(5)
C51E C 0.2789(4) -0.2331(2) 0.2095(5)
N16E N 0.3579(3) -0.16393(17) 0.2491(3)
C52E C 0.3137(5) -0.1630(2) 0.2223(6)
H36E H 0.2995 -0.1469 0.2112
C53E C 0.2871(4) -0.1852(3) 0.2097(6)
H37E H 0.2559 -0.1837 0.1916
C54E C 0.3071(5) -0.2088(2) 0.2243(5)
C55E C 0.3523(4) -0.2098(2) 0.2529(5)
H38E H 0.3671 -0.2257 0.2649
C56E C 0.3770(4) -0.1870(3) 0.2647(4)
H39E H 0.4083 -0.1880 0.2843
N17E N 0.3867(3) -0.13665(16) 0.1945(3)
C57E C 0.3499(5) -0.1268(3) 0.1508(6)
H40E H 0.3299 -0.1168 0.1532
C58E C 0.3410(5) -0.1312(3) 0.1017(5)
H41E H 0.3155 -0.1242 0.0720
C59E C 0.3700(4) -0.1458(2) 0.0980(5)
C60E C 0.4089(4) -0.1541(2) 0.1430(5)
H42E H 0.4309 -0.1626 0.1418
C61E C 0.4153(4) -0.1496(2) 0.1903(5)
H43E H 0.4412 -0.1561 0.2204
C62E C 0.3204(4) -0.1453(2) -0.0004(5)
H44E H 0.2975 -0.1373 -0.0003
C63E C 0.3605(5) -0.1513(3) 0.0452(5)
N18E N 0.3937(4) -0.1626(3) 0.0456(5)
C64E C 0.3857(6) -0.1667(4) 0.0006(7)
H45E H 0.4094 -0.1737 0.0008
N19E N 0.3483(5) -0.1624(3) -0.0454(5)
C65E C 0.3147(4) -0.1513(2) -0.0456(5)
N20E N 0.1915(3) -0.13682(16) -0.1943(3)
C66E C 0.1989(5) -0.1271(3) -0.1507(6)
H46E H 0.1767 -0.1170 -0.1527
C67E C 0.2383(6) -0.1316(3) -0.1031(6)
H47E H 0.2421 -0.1246 -0.0735
C68E C 0.2720(4) -0.1457(2) -0.0979(4)
C69E C 0.2661(4) -0.1545(2) -0.1424(5)
H48E H 0.2890 -0.1635 -0.1411
C70E C 0.2249(5) -0.1495(2) -0.1900(5)
H49E H 0.2209 -0.1556 -0.2202
Pd2E Pd 0.39320(3) -0.131060(14) 0.26204(3)
Pd3E Pd 0.13115(3) -0.131050(14) -0.26211(3)
H62E H -0.2516 -0.0320 -0.5962
B1 B 0.1723(6) 0.1706(3) -0.3424(6)
F1 F 0.1425(9) 0.1514(5) -0.3804(9)
F2 F 0.1739(10) 0.1915(4) -0.3658(9)
F3 F 0.1620(10) 0.1698(6) -0.3078(9)
F4 F 0.2152(7) 0.1572(5) -0.3178(10)
O1 O 0.098(3) 0.1898(16) -0.006(4)
O2 O 0.114(3) 0.1772(15) -0.062(3)
O3 O 0.018(2) 0.1748(11) -0.160(2)
O4 O 0.057(4) 0.1396(19) -0.098(4)
O5 O 0.144(3) 0.1509(17) -0.086(4)
O6 O 0.223(4) 0.156(3) 0.091(5)
O7 O 0.202(3) 0.1417(16) 0.156(3)
O8 O 0.244(3) 0.1033(17) 0.065(4)
O9 O 0.192(6) 0.109(4) 0.088(7)
O10 O 0.1790(17) 0.1796(10) 0.170(2)
O11 O 0.171(3) 0.1761(12) 0.073(3)
O12 O 0.104(4) 0.1687(19) 0.090(5)
O13 O -0.0558(11) 0.0549(7) -0.3527(13)
O14 O -0.056(5) 0.070(3) -0.300(5)
O15 O -0.122(4) 0.066(2) -0.350(4)
O16 O -0.3152(19) 0.0376(11) -0.353(2)
O17 O -0.241(2) 0.0472(15) -0.303(3)
O18 O -0.2716(18) 0.0858(10) -0.360(2)
O19 O 0.322(5) 0.0000 0.385(6)
O20 O 0.077(6) 0.0000 -0.264(7)
O21 O 0.165(3) 0.0000 -0.179(4)
O22 O 0.207(3) 0.1416(16) -0.009(3)
O23 O 0.228(4) 0.078(2) 0.010(4)
O24 O 0.580(3) 0.0000 0.476(3)
O25 O 0.163(3) 0.2685(15) -0.050(3)
O26 O 0.210(4) 0.271(2) 0.050(5)
O27 O 0.352(3) 0.0000 0.191(3)
O28 O 0.347(5) 0.0000 0.278(5)
O29 O 0.166(4) 0.0000 -0.116(5)
O30 O -0.250(3) 0.108(2) -0.498(4)
O31 O -0.276(3) 0.0637(15) -0.286(3)
O32 O 0.009(4) 0.053(2) -0.295(4)
O33 O 0.185(2) 0.2848(11) -0.102(2)
O34 O -0.093(3) 0.0907(15) -0.185(3)
O35 O -0.042(2) 0.0485(13) -0.557(2)
O36 O 0.213(4) 0.2147(19) -0.098(5)
O37 O 0.073(3) 0.0294(16) -0.471(3)
O38 O -0.528(4) 0.0456(18) -0.570(4)
O39 O -0.028(4) 0.173(2) -0.329(5)
O40 O 0.262(4) 0.149(3) 0.291(5)
O41 O 0.183(5) 0.076(3) -0.092(6)
O42 O 0.149(4) 0.139(2) 0.084(4)
O43 O -0.011(5) 0.135(3) -0.270(6)
O44 O 0.138(4) 0.030(2) 0.068(5)
O45 O 0.181(4) 0.104(2) -0.009(5)
O46 O 0.050(6) 0.131(3) -0.180(7)
O47 O -0.103(3) 0.0221(16) -0.372(4)
O48 O 0.311(5) 0.0000 0.012(6)
O49 O 0.161(3) 0.0000 -0.012(3)
F5? F -0.3775(8) -0.0069(7) -0.7335(8)
F6? F -0.3339(10) 0.0268(3) -0.6770(12)
F7? F 0.3003(7) 0.1031(4) 0.2067(10)
F8? F 0.2948(10) 0.0601(4) 0.2163(13)
F9? F 0.2573(9) 0.0808(5) 0.1370(8)
F10? F 0.2363(8) 0.0879(6) 0.1917(13)
F11? F 0.2597(11) 0.0605(5) 0.1599(14)
F12? F 0.3060(8) 0.0966(5) 0.1928(14)
F13? F 0.2349(7) 0.1015(5) 0.1591(13)
F14? F 0.2789(13) 0.0805(7) 0.2364(10)
F15? F 0.4696(6) 0.1665(6) 0.3002(8)
F16? F 0.5400(9) 0.1882(5) 0.3413(13)
F17? F 0.5069(9) 0.1762(7) 0.3821(9)
F18? F 0.5338(9) 0.1457(4) 0.3544(14)
F19? F 0.4841(8) 0.1526(4) 0.3340(12)
F20? F 0.5539(8) 0.1744(7) 0.3865(10)
F21? F 0.5197(11) 0.1670(8) 0.3004(11)
F22? F 0.4875(9) 0.1950(4) 0.3248(15)
B2? B 0.0929(12) 0.0866(7) -0.1665(12)
F23? F 0.1007(4) 0.1003(2) -0.1986(5)
F24? F 0.118(2) 0.0634(8) -0.150(2)
F25? F 0.106(2) 0.1015(11) -0.1227(14)
F26? F 0.0470(12) 0.0804(12) -0.1943(18)
B3? B 0.0709(14) 0.0792(8) -0.2243(11)
F27? F 0.092(2) 0.0960(13) -0.2392(18)
F28? F 0.083(2) 0.0533(8) -0.225(2)
F29? F 0.0853(6) 0.0862(3) -0.1739(6)
F30? F 0.0239(14) 0.0819(12) -0.2593(14)
F31? F 0.2062(9) 0.1860(6) -0.2982(9)
F32? F 0.1623(9) 0.1500(4) -0.3239(10)
F33? F 0.1811(11) 0.1688(6) -0.3767(10)
F34? F 0.1323(8) 0.1866(5) -0.3621(10)
F35? F -0.0037(12) 0.1703(3) 0.0061(14)
F36? F -0.0004(12) 0.2073(4) -0.0275(14)
F37? F 0.0057(13) 0.1679(6) -0.0599(11)
F38? F 0.0625(8) 0.1829(6) 0.0201(14)
F39? F -0.3070(8) -0.0054(7) -0.6330(7)
F40? F -0.3312(11) 0.0126(5) -0.7121(11)
F41? F -0.3011(7) -0.0115(5) -0.6742(12)
F42? F -0.3757(9) 0.0126(5) -0.6822(13)
F43? F -0.3427(10) -0.0088(5) -0.6433(9)
B4? B -0.3424(5) 0.0000 -0.6845(6)
F44? F -0.3619(11) -0.0248(4) -0.7083(13)
B5? B -0.1750(7) -0.0034(7) -0.3464(5)
F45? F -0.1997(5) 0.0062(6) -0.3979(6)
F46? F -0.1351(9) -0.0140(9) -0.3342(16)
F47? F -0.2030(12) -0.0228(9) -0.3464(13)
F48? F -0.1690(18) 0.0165(8) -0.3134(11)
B6? B -0.0062(8) 0.3435(3) 0.0014(12)
F49? F 0.0128(7) 0.3192(4) 0.0018(15)
F50? F -0.0512(8) 0.3420(6) -0.0433(16)
F51? F 0.0157(9) 0.3641(5) 0.0002(16)
F52? F -0.0068(17) 0.3437(6) 0.0455(16)
O50? O -0.0813(16) 0.0825(9) -0.3560(19)
O51? O -0.089(3) 0.0890(17) -0.302(3)
O52? O 0.090(3) 0.0000 -0.478(4)
O53? O -0.2911(12) 0.0612(8) -0.3522(14)
O54? O -0.238(2) 0.0747(14) -0.311(3)
O55? O -0.481(5) 0.042(3) -0.547(6)
O56? O 0.118(3) 0.0000 -0.235(3)
O57? O 0.044(4) 0.032(2) -0.300(4)
O58? O 0.117(10) 0.0000 -0.183(12)
O59? O 0.3570(17) 0.0000 0.248(2)
O60? O 0.307(6) 0.0000 0.173(6)
O61? O 0.299(6) 0.0000 0.212(8)
O62? O 0.203(5) 0.221(3) -0.134(6)
O63? O 0.183(3) 0.1007(17) -0.065(4)
O64? O 0.258(2) 0.0904(14) 0.000(2)
O65? O 0.2365(12) 0.1183(8) 0.0027(13)
O66? O 0.115(4) 0.048(3) 0.028(5)
O67? O 0.088(3) 0.1488(17) -0.120(4)
O68? O 0.009(4) 0.158(3) -0.142(5)
O69? O 0.0625(14) 0.1764(6) -0.1123(16)
O70? O 0.057(3) 0.1776(17) -0.060(4)
O71? O 0.161(3) 0.2649(13) 0.001(3)
O72? O 0.114(4) 0.1742(19) 0.054(4)
O73? O 0.1796(13) 0.1751(8) 0.1219(19)
O74? O 0.159(3) 0.1537(18) 0.157(3)
O75? O 0.226(3) 0.1347(19) 0.128(4)
O76? O 0.253(2) 0.1106(14) 0.116(3)
B7? B 0.0133(8) 0.1807(3) -0.0171(10)
F53? F 0.0024(17) 0.1989(5) 0.0058(19)
F54? F 0.0279(16) 0.1915(7) -0.0457(17)
F55? F -0.0279(11) 0.1665(7) -0.0534(16)
F56? F 0.0442(13) 0.1622(6) 0.0182(14)
O77? O 0.324(4) 0.183(2) -0.078(5)
B8? B 0.2693(6) 0.0840(3) 0.1854(8)
B9? B 0.5145(3) 0.1715(2) 0.3425(4)
loop_
_geom_bond_atom_site_label_1
_geom_bond_atom_site_label_2
_geom_bond_site_symmetry_1
_geom_bond_site_symmetry_2
N1 C1 1_555 1_555
C1 H1 1_555 1_555
C2 C1 1_555 1_555
H2 C2 1_555 1_555
C3 C2 1_555 1_555
C4 C3 1_555 1_555
H3 C4 1_555 1_555
C5 N1 1_555 1_555
H4 C5 1_555 1_555
C6 H5 1_555 1_555
C7 C3 1_555 1_555
N2 C7 1_555 1_555
C8 N2 1_555 1_555
H6 C8 1_555 1_555
N3 C8 1_555 1_555
C9 C6 1_555 1_555
N4 C10 1_555 1_555
C10 H7 1_555 1_555
C11 C10 1_555 1_555
H8 C11 1_555 1_555
C12 C9 1_555 1_555
C13 C12 1_555 1_555
H9 C13 1_555 1_555
C14 N4 1_555 1_555
H10 C14 1_555 1_555
N5 C15 1_555 1_555
C15 H11 1_555 1_555
C16 C15 1_555 1_555
H12 C16 1_555 1_555
C17 C16 1_555 1_555
C18 C17 1_555 1_555
H13 C18 1_555 1_555
C19 N5 1_555 1_555
C20 H14 1_555 1_555
C21 C17 1_555 1_555
N6 C21 1_555 1_555
C22 N6 1_555 1_555
H15 C22 1_555 1_555
N7 C22 1_555 1_555
C23 C20 1_555 1_555
N8 C24 1_555 1_555
C24 H16 1_555 1_555
C25 C24 1_555 1_555
H17 C25 1_555 1_555
C26 C23 1_555 1_555
C27 C26 1_555 1_555
H18 C27 1_555 1_555
C28 N8 1_555 1_555
H19 C28 1_555 1_555
N9 C29 1_555 1_555
C29 H20 1_555 1_555
C30 C29 1_555 1_555
H21 C30 1_555 1_555
C31 C30 1_555 1_555
C32 C31 1_555 1_555
H22 C32 1_555 1_555
C33 N9 1_555 1_555
H23 C33 1_555 1_555
C34 H24 1_555 1_555
C35 C31 1_555 1_555
N10 C35 1_555 1_555
C36 N10 1_555 1_555
H25 C36 1_555 1_555
N11 C36 1_555 1_555
C37 C34 1_555 1_555
N12 C38 1_555 1_555
C38 H26 1_555 1_555
C39 C38 1_555 1_555
H27 C39 1_555 1_555
C40 C37 1_555 1_555
C41 C40 1_555 1_555
H28 C41 1_555 1_555
C42 N12 1_555 1_555
H29 C42 1_555 1_555
N13 C43 1_555 1_555
C43 H30 1_555 1_555
C44 C43 1_555 1_555
H31 C44 1_555 1_555
C45 C44 1_555 1_555
C46 C45 1_555 1_555
H32 C46 1_555 1_555
C47 N13 1_555 1_555
H33 C47 1_555 1_555
C48 H34 1_555 1_555
C49 C45 1_555 1_555
N14 C49 1_555 1_555
C50 N14 1_555 1_555
H35 C50 1_555 1_555
N15 C50 1_555 1_555
C51 C48 1_555 1_555
N16 C52 1_555 1_555
C52 H36 1_555 1_555
C53 C52 1_555 1_555
H37 C53 1_555 1_555
C54 C51 1_555 1_555
C55 C54 1_555 1_555
H38 C55 1_555 1_555
C56 N16 1_555 1_555
H39 C56 1_555 1_555
N17 C57 1_555 1_555
C57 H40 1_555 1_555
C58 C57 1_555 1_555
H41 C58 1_555 1_555
C59 C58 1_555 1_555
C60 C59 1_555 1_555
H42 C60 1_555 1_555
C61 N17 1_555 1_555
H43 C61 1_555 1_555
C62 H44 1_555 1_555
C63 C59 1_555 1_555
N18 C63 1_555 1_555
C64 N18 1_555 1_555
H45 C64 1_555 1_555
N19 C64 1_555 1_555
C65 C62 1_555 1_555
N20 C66 1_555 1_555
C66 H46 1_555 1_555
C67 C66 1_555 1_555
H47 C67 1_555 1_555
C68 C65 1_555 1_555
C69 C68 1_555 1_555
H48 C69 1_555 1_555
C70 N20 1_555 1_555
H49 C70 1_555 1_555
N21 C71 1_555 1_555
C71 H50 1_555 1_555
C72 C71 1_555 1_555
H51 C72 1_555 1_555
C73 C72 1_555 1_555
C74 C73 1_555 1_555
H52 C74 1_555 1_555
C75 N21 1_555 1_555
H53 C75 1_555 1_555
C76 H54 1_555 1_555
C77 C73 1_555 1_555
N22 C77 1_555 1_555
C78 N22 1_555 1_555
H55 C78 1_555 1_555
N23 C79 1_555 1_555
C79 H56 1_555 1_555
C80 C79 1_555 1_555
H57 C80 1_555 1_555
C81 C80 1_555 1_555
C82 C81 1_555 1_555
H58 C82 1_555 1_555
C83 N23 1_555 1_555
H59 C83 1_555 1_555
C84 H60 1_555 1_555
C85 C81 1_555 1_555
N24 C85 1_555 1_555
C86 N24 1_555 1_555
H61 C86 1_555 1_555
Pd1 N4 1_555 1_555
Pd2 N16 1_555 1_555
Pd3 N8 1_555 1_555
Pd4 N12 1_555 1_555
H62 C19 1_555 1_555
B1 F1 1_555 1_555
F2 B1 1_555 1_555
F3 B1 1_555 1_555
F4 B1 1_555 1_555
N21E C71E 1_555 1_555
C71E H50E 1_555 1_555
C72E C71E 1_555 1_555
H51E C72E 1_555 1_555
C73E C72E 1_555 1_555
C74E C73E 1_555 1_555
H52E C74E 1_555 1_555
C75E N21E 1_555 1_555
H53E C75E 1_555 1_555
C77E C76 1_555 1_555
N22E C78 1_555 1_555
N23E C79E 1_555 1_555
C79E H56E 1_555 1_555
C80E C79E 1_555 1_555
H57E C80E 1_555 1_555
C81E C80E 1_555 1_555
C82E C81E 1_555 1_555
H58E C82E 1_555 1_555
C83E N23E 1_555 1_555
H59E C83E 1_555 1_555
C85E C84 1_555 1_555
N24E C86 1_555 1_555
N1A Pd2 1_555 1_555
C1A N1A 1_555 1_555
H1A C1A 1_555 1_555
C2A C1A 1_555 1_555
H2A C2A 1_555 1_555
C3A C2A 1_555 1_555
C4A C3A 1_555 1_555
H3A C4A 1_555 1_555
C5A N1A 1_555 1_555
H4A C5A 1_555 1_555
C6A H5A 1_555 1_555
C7A C3A 1_555 1_555
N2A C7A 1_555 1_555
C8A N2A 1_555 1_555
H6A C8A 1_555 1_555
N3A C8A 1_555 1_555
C9A C6A 1_555 1_555
N4A C10A 1_555 1_555
C10A H7A 1_555 1_555
C11A C10A 1_555 1_555
H8A C11A 1_555 1_555
C12A C9A 1_555 1_555
C13A C12A 1_555 1_555
H9A C13A 1_555 1_555
C14A N4A 1_555 1_555
H10A C14A 1_555 1_555
N5A C15A 1_555 1_555
C15A H11A 1_555 1_555
C16A C15A 1_555 1_555
H12A C16A 1_555 1_555
C17A C16A 1_555 1_555
C18A C17A 1_555 1_555
H13A C18A 1_555 1_555
C19A N5A 1_555 1_555
C20A H14A 1_555 1_555
C21A C17A 1_555 1_555
N6A C21A 1_555 1_555
C22A N6A 1_555 1_555
H15A C22A 1_555 1_555
N7A C22A 1_555 1_555
C23A C20A 1_555 1_555
N8A C24A 1_555 1_555
C24A H16A 1_555 1_555
C25A C24A 1_555 1_555
H17A C25A 1_555 1_555
C26A C23A 1_555 1_555
C27A C26A 1_555 1_555
H18A C27A 1_555 1_555
C28A N8A 1_555 1_555
H19A C28A 1_555 1_555
N9A C29A 1_555 1_555
C29A H20A 1_555 1_555
C30A C29A 1_555 1_555
H21A C30A 1_555 1_555
C31A C30A 1_555 1_555
C32A C31A 1_555 1_555
H22A C32A 1_555 1_555
C33A N9A 1_555 1_555
H23A C33A 1_555 1_555
C34A H24A 1_555 1_555
C35A C31A 1_555 1_555
N10A C35A 1_555 1_555
C36A N10A 1_555 1_555
H25A C36A 1_555 1_555
N11A C36A 1_555 1_555
C37A C34A 1_555 1_555
N12A Pd4 1_555 1_555
C38A N12A 1_555 1_555
H26A C38A 1_555 1_555
C39A C38A 1_555 1_555
H27A C39A 1_555 1_555
C40A C37A 1_555 1_555
C41A C40A 1_555 1_555
H28A C41A 1_555 1_555
C42A N12A 1_555 1_555
H29A C42A 1_555 1_555
N13A Pd4 1_555 1_555
C43A N13A 1_555 1_555
H30A C43A 1_555 1_555
C44A C43A 1_555 1_555
H31A C44A 1_555 1_555
C45A C44A 1_555 1_555
C46A C45A 1_555 1_555
H32A C46A 1_555 1_555
C47A N13A 1_555 1_555
H33A C47A 1_555 1_555
C48A H34A 1_555 1_555
C49A C45A 1_555 1_555
N14A C49A 1_555 1_555
C50A N14A 1_555 1_555
H35A C50A 1_555 1_555
N15A C50A 1_555 1_555
C51A C48A 1_555 1_555
N16A C52A 1_555 1_555
C52A H36A 1_555 1_555
C53A C52A 1_555 1_555
H37A C53A 1_555 1_555
C54A C51A 1_555 1_555
C55A C54A 1_555 1_555
H38A C55A 1_555 1_555
C56A N16A 1_555 1_555
H39A C56A 1_555 1_555
N17A C57A 1_555 1_555
C57A H40A 1_555 1_555
C58A C57A 1_555 1_555
H41A C58A 1_555 1_555
C59A C58A 1_555 1_555
C60A C59A 1_555 1_555
H42A C60A 1_555 1_555
C61A N17A 1_555 1_555
H43A C61A 1_555 1_555
C62A H44A 1_555 1_555
C63A C59A 1_555 1_555
N18A C63A 1_555 1_555
C64A N18A 1_555 1_555
H45A C64A 1_555 1_555
N19A C64A 1_555 1_555
C65A C62A 1_555 1_555
N20A C66A 1_555 1_555
C66A H46A 1_555 1_555
C67A C66A 1_555 1_555
H47A C67A 1_555 1_555
C68A C65A 1_555 1_555
C69A C68A 1_555 1_555
H48A C69A 1_555 1_555
C70A N20A 1_555 1_555
H49A C70A 1_555 1_555
N21A C71A 1_555 1_555
C71A H50A 1_555 1_555
C72A C71A 1_555 1_555
H51A C72A 1_555 1_555
C73A C72A 1_555 1_555
C74A C73A 1_555 1_555
H52A C74A 1_555 1_555
C75A N21A 1_555 1_555
H53A C75A 1_555 1_555
C76A H54A 1_555 1_555
C77A C73A 1_555 1_555
N22A C77A 1_555 1_555
C78A N22A 1_555 1_555
H55A C78A 1_555 1_555
N23A C79A 1_555 1_555
C79A H56A 1_555 1_555
C80A C79A 1_555 1_555
H57A C80A 1_555 1_555
C81A C80A 1_555 1_555
C82A C81A 1_555 1_555
H58A C82A 1_555 1_555
C83A N23A 1_555 1_555
H59A C83A 1_555 1_555
C84A H60A 1_555 1_555
C85A C81A 1_555 1_555
N24A C85A 1_555 1_555
C86A N24A 1_555 1_555
H61A C86A 1_555 1_555
Pd1A N4A 1_555 1_555
Pd2A N1 1_555 1_555
Pd3A N8A 1_555 1_555
H62A C19A 1_555 1_555
N21D C71D 1_555 1_555
C71D H50D 1_555 1_555
C72D C71D 1_555 1_555
H51D C72D 1_555 1_555
C73D C72D 1_555 1_555
C74D C73D 1_555 1_555
H52D C74D 1_555 1_555
C75D N21D 1_555 1_555
H53D C75D 1_555 1_555
C77D C76A 1_555 1_555
N22D C78A 1_555 1_555
N23D C79D 1_555 1_555
C79D H56D 1_555 1_555
C80D C79D 1_555 1_555
H57D C80D 1_555 1_555
C81D C80D 1_555 1_555
C82D C81D 1_555 1_555
H58D C82D 1_555 1_555
C83D N23D 1_555 1_555
H59D C83D 1_555 1_555
C85D C84A 1_555 1_555
N24D C86A 1_555 1_555
N1D C1D 1_555 1_555
C1D H1D 1_555 1_555
C2D C1D 1_555 1_555
H2D C2D 1_555 1_555
C3D C2D 1_555 1_555
C4D C3D 1_555 1_555
H3D C4D 1_555 1_555
C5D N1D 1_555 1_555
H4D C5D 1_555 1_555
C6D H5D 1_555 1_555
C7D C3D 1_555 1_555
N2D C7D 1_555 1_555
C8D N2D 1_555 1_555
H6D C8D 1_555 1_555
N3D C8D 1_555 1_555
C9D C6D 1_555 1_555
N4D Pd1A 1_555 1_555
C10D N4D 1_555 1_555
H7D C10D 1_555 1_555
C11D C10D 1_555 1_555
H8D C11D 1_555 1_555
C12D C9D 1_555 1_555
C13D C12D 1_555 1_555
H9D C13D 1_555 1_555
C14D N4D 1_555 1_555
H10D C14D 1_555 1_555
N5D Pd1A 1_555 1_555
C15D N5D 1_555 1_555
H11D C15D 1_555 1_555
C16D C15D 1_555 1_555
H12D C16D 1_555 1_555
C17D C16D 1_555 1_555
C18D C17D 1_555 1_555
H13D C18D 1_555 1_555
C19D N5D 1_555 1_555
C20D H14D 1_555 1_555
C21D C17D 1_555 1_555
N6D C21D 1_555 1_555
C22D N6D 1_555 1_555
H15D C22D 1_555 1_555
N7D C22D 1_555 1_555
C23D C20D 1_555 1_555
N8D C24D 1_555 1_555
C24D H16D 1_555 1_555
C25D C24D 1_555 1_555
H17D C25D 1_555 1_555
C26D C23D 1_555 1_555
C27D C26D 1_555 1_555
H18D C27D 1_555 1_555
C28D N8D 1_555 1_555
H19D C28D 1_555 1_555
N9D C29D 1_555 1_555
C29D H20D 1_555 1_555
C30D C29D 1_555 1_555
H21D C30D 1_555 1_555
C31D C30D 1_555 1_555
C32D C31D 1_555 1_555
H22D C32D 1_555 1_555
C33D N9D 1_555 1_555
H23D C33D 1_555 1_555
C34D H24D 1_555 1_555
C35D C31D 1_555 1_555
N10D C35D 1_555 1_555
C36D N10D 1_555 1_555
H25D C36D 1_555 1_555
N11D C36D 1_555 1_555
C37D C34D 1_555 1_555
N12D C38D 1_555 1_555
C38D H26D 1_555 1_555
C39D C38D 1_555 1_555
H27D C39D 1_555 1_555
C40D C37D 1_555 1_555
C41D C40D 1_555 1_555
H28D C41D 1_555 1_555
C42D N12D 1_555 1_555
H29D C42D 1_555 1_555
N13D C43D 1_555 1_555
C43D H30D 1_555 1_555
C44D C43D 1_555 1_555
H31D C44D 1_555 1_555
C45D C44D 1_555 1_555
C46D C45D 1_555 1_555
H32D C46D 1_555 1_555
C47D N13D 1_555 1_555
H33D C47D 1_555 1_555
C48D H34D 1_555 1_555
C49D C45D 1_555 1_555
N14D C49D 1_555 1_555
C50D N14D 1_555 1_555
H35D C50D 1_555 1_555
N15D C50D 1_555 1_555
C51D C48D 1_555 1_555
N16D C52D 1_555 1_555
C52D H36D 1_555 1_555
C53D C52D 1_555 1_555
H37D C53D 1_555 1_555
C54D C51D 1_555 1_555
C55D C54D 1_555 1_555
H38D C55D 1_555 1_555
C56D N16D 1_555 1_555
H39D C56D 1_555 1_555
N17D C57D 1_555 1_555
C57D H40D 1_555 1_555
C58D C57D 1_555 1_555
H41D C58D 1_555 1_555
C59D C58D 1_555 1_555
C60D C59D 1_555 1_555
H42D C60D 1_555 1_555
C61D N17D 1_555 1_555
H43D C61D 1_555 1_555
C62D H44D 1_555 1_555
C63D C59D 1_555 1_555
N18D C63D 1_555 1_555
C64D N18D 1_555 1_555
H45D C64D 1_555 1_555
N19D C64D 1_555 1_555
C65D C62D 1_555 1_555
N20D C66D 1_555 1_555
C66D H46D 1_555 1_555
C67D C66D 1_555 1_555
H47D C67D 1_555 1_555
C68D C65D 1_555 1_555
C69D C68D 1_555 1_555
H48D C69D 1_555 1_555
C70D N20D 1_555 1_555
H49D C70D 1_555 1_555
Pd2D N21D 1_555 1_555
Pd3D N23D 1_555 1_555
Pd4D N12D 1_555 1_555
H62D C19D 1_555 1_555
N1E Pd2D 1_555 1_555
C1E N1E 1_555 1_555
H1E C1E 1_555 1_555
C2E C1E 1_555 1_555
H2E C2E 1_555 1_555
C3E C2E 1_555 1_555
C4E C3E 1_555 1_555
H3E C4E 1_555 1_555
C5E N1E 1_555 1_555
H4E C5E 1_555 1_555
C6E H5E 1_555 1_555
C7E C3E 1_555 1_555
N2E C7E 1_555 1_555
C8E N2E 1_555 1_555
H6E C8E 1_555 1_555
N3E C8E 1_555 1_555
C9E C6E 1_555 1_555
N4E Pd1 1_555 1_555
C10E N4E 1_555 1_555
H7E C10E 1_555 1_555
C11E C10E 1_555 1_555
H8E C11E 1_555 1_555
C12E C9E 1_555 1_555
C13E C12E 1_555 1_555
H9E C13E 1_555 1_555
C14E N4E 1_555 1_555
H10E C14E 1_555 1_555
N5E Pd1 1_555 1_555
C15E N5E 1_555 1_555
H11E C15E 1_555 1_555
C16E C15E 1_555 1_555
H12E C16E 1_555 1_555
C17E C16E 1_555 1_555
C18E C17E 1_555 1_555
H13E C18E 1_555 1_555
C19E N5E 1_555 1_555
C20E H14E 1_555 1_555
C21E C17E 1_555 1_555
N6E C21E 1_555 1_555
C22E N6E 1_555 1_555
H15E C22E 1_555 1_555
N7E C22E 1_555 1_555
C23E C20E 1_555 1_555
N8E C24E 1_555 1_555
C24E H16E 1_555 1_555
C25E C24E 1_555 1_555
H17E C25E 1_555 1_555
C26E C23E 1_555 1_555
C27E C26E 1_555 1_555
H18E C27E 1_555 1_555
C28E N8E 1_555 1_555
H19E C28E 1_555 1_555
N9E C29E 1_555 1_555
C29E H20E 1_555 1_555
C30E C29E 1_555 1_555
H21E C30E 1_555 1_555
C31E C30E 1_555 1_555
C32E C31E 1_555 1_555
H22E C32E 1_555 1_555
C33E N9E 1_555 1_555
H23E C33E 1_555 1_555
C34E H24E 1_555 1_555
C35E C31E 1_555 1_555
N10E C35E 1_555 1_555
C36E N10E 1_555 1_555
H25E C36E 1_555 1_555
N11E C36E 1_555 1_555
C37E C34E 1_555 1_555
N12E Pd4D 1_555 1_555
C38E N12E 1_555 1_555
H26E C38E 1_555 1_555
C39E C38E 1_555 1_555
H27E C39E 1_555 1_555
C40E C37E 1_555 1_555
C41E C40E 1_555 1_555
H28E C41E 1_555 1_555
C42E N12E 1_555 1_555
H29E C42E 1_555 1_555
N13E Pd4D 1_555 1_555
C43E N13E 1_555 1_555
H30E C43E 1_555 1_555
C44E C43E 1_555 1_555
H31E C44E 1_555 1_555
C45E C44E 1_555 1_555
C46E C45E 1_555 1_555
H32E C46E 1_555 1_555
C47E N13E 1_555 1_555
H33E C47E 1_555 1_555
C48E H34E 1_555 1_555
C49E C45E 1_555 1_555
N14E C49E 1_555 1_555
C50E N14E 1_555 1_555
H35E C50E 1_555 1_555
N15E C50E 1_555 1_555
C51E C48E 1_555 1_555
N16E C52E 1_555 1_555
C52E H36E 1_555 1_555
C53E C52E 1_555 1_555
H37E C53E 1_555 1_555
C54E C51E 1_555 1_555
C55E C54E 1_555 1_555
H38E C55E 1_555 1_555
C56E N16E 1_555 1_555
H39E C56E 1_555 1_555
N17E C57E 1_555 1_555
C57E H40E 1_555 1_555
C58E C57E 1_555 1_555
H41E C58E 1_555 1_555
C59E C58E 1_555 1_555
C60E C59E 1_555 1_555
H42E C60E 1_555 1_555
C61E N17E 1_555 1_555
H43E C61E 1_555 1_555
C62E H44E 1_555 1_555
C63E C59E 1_555 1_555
N18E C63E 1_555 1_555
C64E N18E 1_555 1_555
H45E C64E 1_555 1_555
N19E C64E 1_555 1_555
C65E C62E 1_555 1_555
N20E C66E 1_555 1_555
C66E H46E 1_555 1_555
C67E C66E 1_555 1_555
H47E C67E 1_555 1_555
C68E C65E 1_555 1_555
C69E C68E 1_555 1_555
H48E C69E 1_555 1_555
C70E N20E 1_555 1_555
H49E C70E 1_555 1_555
Pd2E N21E 1_555 1_555
Pd3E N23E 1_555 1_555
H62E C19E 1_555 1_555
C4 C5 1_555 1_555
C6 C7 1_555 1_555
N3 C9 1_555 1_555
C11 C12 1_555 1_555
C13 C14 1_555 1_555
N5 Pd1 1_555 1_555
C18 C19 1_555 1_555
C20 C21 1_555 1_555
N7 C23 1_555 1_555
C25 C26 1_555 1_555
C27 C28 1_555 1_555
N9 Pd3 1_555 1_555
C32 C33 1_555 1_555
C34 C35 1_555 1_555
N11 C37 1_555 1_555
C39 C40 1_555 1_555
C41 C42 1_555 1_555
N13 Pd4 1_555 1_555
C46 C47 1_555 1_555
C48 C49 1_555 1_555
N15 C51 1_555 1_555
C53 C54 1_555 1_555
C55 C56 1_555 1_555
N17 Pd2 1_555 1_555
C60 C61 1_555 1_555
C62 C63 1_555 1_555
N19 C65 1_555 1_555
N20 Pd3 1_555 1_555
C67 C68 1_555 1_555
C69 C70 1_555 1_555
N21 Pd2 1_555 1_555
C74 C75 1_555 1_555
C76 C77 1_555 1_555
N23 Pd3 1_555 1_555
C82 C83 1_555 1_555
C84 C85 1_555 1_555
C73E C77E 1_555 1_555
C74E C75E 1_555 1_555
C77E N22E 1_555 1_555
C81E C85E 1_555 1_555
C82E C83E 1_555 1_555
C85E N24E 1_555 1_555
C4A C5A 1_555 1_555
C6A C7A 1_555 1_555
N3A C9A 1_555 1_555
C11A C12A 1_555 1_555
C13A C14A 1_555 1_555
N5A Pd1A 1_555 1_555
C18A C19A 1_555 1_555
C20A C21A 1_555 1_555
N7A C23A 1_555 1_555
C25A C26A 1_555 1_555
C27A C28A 1_555 1_555
N9A Pd3A 1_555 1_555
C32A C33A 1_555 1_555
C34A C35A 1_555 1_555
N11A C37A 1_555 1_555
C39A C40A 1_555 1_555
C41A C42A 1_555 1_555
C46A C47A 1_555 1_555
C48A C49A 1_555 1_555
N15A C51A 1_555 1_555
N16A Pd2A 1_555 1_555
C53A C54A 1_555 1_555
C55A C56A 1_555 1_555
N17A Pd2A 1_555 1_555
C60A C61A 1_555 1_555
C62A C63A 1_555 1_555
N19A C65A 1_555 1_555
N20A Pd3A 1_555 1_555
C67A C68A 1_555 1_555
C69A C70A 1_555 1_555
N21A Pd2A 1_555 1_555
C74A C75A 1_555 1_555
C76A C77A 1_555 1_555
N23A Pd3A 1_555 1_555
C82A C83A 1_555 1_555
C84A C85A 1_555 1_555
C73D C77D 1_555 1_555
C74D C75D 1_555 1_555
C77D N22D 1_555 1_555
C81D C85D 1_555 1_555
C82D C83D 1_555 1_555
C85D N24D 1_555 1_555
N1D Pd2E 1_555 1_555
C4D C5D 1_555 1_555
C6D C7D 1_555 1_555
N3D C9D 1_555 1_555
C11D C12D 1_555 1_555
C13D C14D 1_555 1_555
C18D C19D 1_555 1_555
C20D C21D 1_555 1_555
N7D C23D 1_555 1_555
N8D Pd3D 1_555 1_555
C25D C26D 1_555 1_555
C27D C28D 1_555 1_555
N9D Pd3D 1_555 1_555
C32D C33D 1_555 1_555
C34D C35D 1_555 1_555
N11D C37D 1_555 1_555
C39D C40D 1_555 1_555
C41D C42D 1_555 1_555
N13D Pd4D 1_555 1_555
C46D C47D 1_555 1_555
C48D C49D 1_555 1_555
N15D C51D 1_555 1_555
N16D Pd2D 1_555 1_555
C53D C54D 1_555 1_555
C55D C56D 1_555 1_555
N17D Pd2D 1_555 1_555
C60D C61D 1_555 1_555
C62D C63D 1_555 1_555
N19D C65D 1_555 1_555
N20D Pd3D 1_555 1_555
C67D C68D 1_555 1_555
C69D C70D 1_555 1_555
C4E C5E 1_555 1_555
C6E C7E 1_555 1_555
N3E C9E 1_555 1_555
C11E C12E 1_555 1_555
C13E C14E 1_555 1_555
C18E C19E 1_555 1_555
C20E C21E 1_555 1_555
N7E C23E 1_555 1_555
N8E Pd3E 1_555 1_555
C25E C26E 1_555 1_555
C27E C28E 1_555 1_555
N9E Pd3E 1_555 1_555
C32E C33E 1_555 1_555
C34E C35E 1_555 1_555
N11E C37E 1_555 1_555
C39E C40E 1_555 1_555
C41E C42E 1_555 1_555
C46E C47E 1_555 1_555
C48E C49E 1_555 1_555
N15E C51E 1_555 1_555
N16E Pd2E 1_555 1_555
C53E C54E 1_555 1_555
C55E C56E 1_555 1_555
N17E Pd2E 1_555 1_555
C60E C61E 1_555 1_555
C62E C63E 1_555 1_555
N19E C65E 1_555 1_555
N20E Pd3E 1_555 1_555
C67E C68E 1_555 1_555
C69E C70E 1_555 1_555

#END
