####################################################################### 
# 
# This file contains crystal structure data downloaded from the 
# Cambridge Structural Database (CSD) hosted by the Cambridge 
# Crystallographic Data Centre (CCDC).
# 
# Full information about CCDC data access policies and citation 
# guidelines are available at http://www.ccdc.cam.ac.uk/access/V1 
# 
# Audit and citation data items may have been added by the CCDC. 
# Please retain this information to preserve the provenance of 
# this file and to allow appropriate attribution of the data. 
# 
#######################################################################

data_p-1
_audit_block_doi                 10.5517/cc13nzrh
_database_code_depnum_ccdc_archive 'CCDC 1033067'
loop_
_citation_id
_citation_doi
_citation_year
1 10.1002/asia.201500519 2015
_audit_update_record             
;
2014-11-06 deposited with the CCDC.	2019-03-04 downloaded from the CCDC.
;

_audit_creation_method           SHELXL-97
_chemical_name_systematic        'pyrazol M24L48'
_chemical_name_common            'M24L48 spherical complex'
_chemical_melting_point          ?
_chemical_formula_moiety         '48(C13H10N4), 24Pd, 48(BF4), 50.6O'
_chemical_formula_sum            'C624 H480 B48 F192 N192 O50.60 Pd24'
_chemical_formula_weight         18198.08

loop_
_atom_type_symbol
_atom_type_description
_atom_type_scat_dispersion_real
_atom_type_scat_dispersion_imag
_atom_type_scat_source
C C 0.0036 0.0018 'International Tables Vol C Tables 4.2.6.8 and 6.1.1.4'
H H 0.0000 0.0000 'International Tables Vol C Tables 4.2.6.8 and 6.1.1.4'
B B 0.0018 0.0008 'International Tables Vol C Tables 4.2.6.8 and 6.1.1.4'
N N 0.0070 0.0037 'International Tables Vol C Tables 4.2.6.8 and 6.1.1.4'
F F 0.0197 0.0116 'International Tables Vol C Tables 4.2.6.8 and 6.1.1.4'
Pd Pd -0.8582 1.1145 'International Tables Vol C Tables 4.2.6.8 and 6.1.1.4'
O O 0.0123 0.0069 'International Tables Vol C Tables 4.2.6.8 and 6.1.1.4'

_symmetry_cell_setting           Triclinic
_symmetry_space_group_name_H-M   'P -1'
_symmetry_space_group_name_Hall  '-P 1'

loop_
_symmetry_equiv_pos_as_xyz
'x, y, z'
'-x, -y, -z'

_cell_length_a                   45.656(9)
_cell_length_b                   45.630(9)
_cell_length_c                   45.618(9)
_cell_angle_alpha                60.00(3)
_cell_angle_beta                 59.99(3)
_cell_angle_gamma                60.00(3)
_cell_volume                     67189(23)
_cell_formula_units_Z            1
_cell_measurement_temperature    296(2)
_cell_measurement_reflns_used    46112
_cell_measurement_theta_min      ?
_cell_measurement_theta_max      ?

_exptl_crystal_description       block
_exptl_crystal_colour            colorless
_exptl_crystal_size_max          0.18
_exptl_crystal_size_mid          0.18
_exptl_crystal_size_min          0.12
_exptl_crystal_density_meas      ?
_exptl_crystal_density_diffrn    0.450
_exptl_crystal_density_method    'not measured'
_exptl_crystal_F_000             9045
_exptl_absorpt_coefficient_mu    0.216
_exptl_absorpt_correction_type   empirical
_exptl_absorpt_correction_T_min  0.9621
_exptl_absorpt_correction_T_max  0.9745
_exptl_absorpt_process_details   'HKL2000 DENZO SCALEPACK'

_exptl_special_details           
; 
 ? 
;

_diffrn_ambient_temperature      296(2)
_diffrn_radiation_wavelength     0.75000
_diffrn_radiation_type           synchrotron
_diffrn_radiation_source         'KEK PF-AR NE3A beamline'
_diffrn_radiation_monochromator  'Si 111'
_diffrn_measurement_device_type  'CCD Quantum 270 (ADSC)'
_diffrn_measurement_method       'oscillation method, \w scans'
_diffrn_measurement.details      
;
Two data sets were merged:
(i) 1.00 degrees, 5.0 sec, detector distance 183.00 mm
(ii) 1.00 degrees, 1.5 sec, detector distance 183.00 mm
;
_diffrn_detector_area_resol_mean ?
_diffrn_standards_number         ?
_diffrn_standards_interval_count ?
_diffrn_standards_interval_time  ?
_diffrn_standards_decay_%        ?
_diffrn_reflns_number            114729
_diffrn_reflns_av_R_equivalents  0.1044
_diffrn_reflns_av_sigmaI/netI    0.0940
_diffrn_reflns_limit_h_min       -32
_diffrn_reflns_limit_h_max       32
_diffrn_reflns_limit_k_min       -32
_diffrn_reflns_limit_k_max       32
_diffrn_reflns_limit_l_min       -32
_diffrn_reflns_limit_l_max       32
_diffrn_reflns_theta_min         1.10
_diffrn_reflns_theta_max         15.50
_reflns_number_total             48587
_reflns_number_gt                28404
_reflns_threshold_expression     >2\s(I)

_computing_data_collection       'KEK ugui'
_computing_cell_refinement       HKL2000
_computing_data_reduction        HKL2000
_computing_structure_solution    superflip
_computing_structure_refinement  'SHELXL-97 (Sheldrick, 1997)'
_computing_molecular_graphics    'Yadokari-XG 2009 (Wakita Nemoto et al., 2009)'
_computing_publication_material  'Yadokari-XG 2009 (Wakita Nemoto et al., 2009)'

_refine_special_details          
; 
 Refinement of F^2^ against ALL reflections.  The weighted R-factor wR and 
 goodness of fit S are based on F^2^, conventional R-factors R are based 
 on F, with F set to zero for negative F^2^. The threshold expression of 
 F^2^ > 2sigma(F^2^) is used only for calculating R-factors(gt) etc. and is 
 not relevant to the choice of reflections for refinement.  R-factors based 
 on F^2^ are statistically about twice as large as those based on F, and R- 
 factors based on ALL data will be even larger. 
;

_refine_ls_structure_factor_coef Fsqd
_refine_ls_matrix_type           full
_refine_ls_weighting_scheme      calc
_refine_ls_weighting_details     
'calc w=1/[\s^2^(Fo^2^)+(0.2000P)^2^] where P=(Fo^2^+2Fc^2^)/3'
_atom_sites_solution_primary     iterative
_atom_sites_solution_secondary   difmap
_atom_sites_solution_hydrogens   geom
_refine_ls_hydrogen_treatment    constr
_refine_ls_extinction_method     none
_refine_ls_extinction_coef       ?
_refine_ls_number_reflns         48587
_refine_ls_number_parameters     4623
_refine_ls_number_restraints     3080
_refine_ls_R_factor_all          0.2435
_refine_ls_R_factor_gt           0.1976
_refine_ls_wR_factor_ref         0.5342
_refine_ls_wR_factor_gt          0.5004
_refine_ls_goodness_of_fit_ref   1.948
_refine_ls_restrained_S_all      1.982
_refine_ls_shift/su_max          0.066
_refine_ls_shift/su_mean         0.003

loop_
_atom_site_label
_atom_site_type_symbol
_atom_site_fract_x
_atom_site_fract_y
_atom_site_fract_z
_atom_site_U_iso_or_equiv
_atom_site_adp_type
_atom_site_occupancy
_atom_site_symmetry_multiplicity
_atom_site_calc_flag
_atom_site_refinement_flags
_atom_site_disorder_assembly
_atom_site_disorder_group
B1 B 0.8057(7) 1.0332(6) 0.3553(6) 0.186(10) Uiso 0.7789(9) 1 d PDU . .
F1A F 0.8105(15) 1.0029(10) 0.3854(11) 0.49(3) Uiso 0.3895(5) 1 d PDU A 1
F1B F 0.7695(9) 1.0493(13) 0.3587(15) 0.49(3) Uiso 0.3895(5) 1 d PDU A 1
F1C F 0.8187(14) 1.0573(13) 0.3510(15) 0.52(3) Uiso 0.3895(5) 1 d PDU A 1
F1D F 0.8248(16) 1.0218(16) 0.3250(12) 0.60(3) Uiso 0.3895(5) 1 d PDU A 1
F1E F 0.7868(8) 1.0376(8) 0.3888(7) 0.276(12) Uiso 0.3895(5) 1 d PDU A 2
F1F F 0.7997(15) 1.0659(9) 0.3285(9) 0.50(3) Uiso 0.3895(5) 1 d PDU A 2
F1G F 0.8425(7) 1.0164(15) 0.3511(14) 0.54(3) Uiso 0.3895(5) 1 d PDU A 2
F1H F 0.7946(15) 1.0103(13) 0.3539(14) 0.54(3) Uiso 0.3895(5) 1 d PDU A 2
B2 B 0.6885(6) 1.0512(5) 0.5743(5) 0.141(7) Uiso 0.7789(9) 1 d PDU . .
F2A F 0.6964(12) 1.0577(12) 0.5383(6) 0.37(3) Uiso 0.3895(5) 1 d PDU A 1
F2B F 0.6579(12) 1.0771(12) 0.5866(13) 0.56(3) Uiso 0.3895(5) 1 d PDU A 1
F2C F 0.7180(11) 1.0510(17) 0.5773(14) 0.53(3) Uiso 0.3895(5) 1 d PDU A 1
F2D F 0.6846(17) 1.0173(9) 0.5947(11) 0.49(3) Uiso 0.3895(5) 1 d PDU A 1
F2E F 0.7125(9) 1.0445(10) 0.5424(7) 0.32(2) Uiso 0.3895(5) 1 d PDU A 2
F2F F 0.6836(17) 1.0850(9) 0.5718(14) 0.57(3) Uiso 0.3895(5) 1 d PDU A 2
F2G F 0.7013(14) 1.0253(13) 0.6028(9) 0.55(3) Uiso 0.3895(5) 1 d PDU A 2
F2H F 0.6557(9) 1.0496(16) 0.5813(12) 0.45(2) Uiso 0.3895(5) 1 d PDU A 2
B3 B 0.8040(6) 0.8062(6) 0.3566(6) 0.186(10) Uiso 0.7789(9) 1 d PDU . .
F3A F 0.7781(13) 0.8082(16) 0.3474(15) 0.53(3) Uiso 0.3895(5) 1 d PDU A 1
F3B F 0.8316(11) 0.7734(10) 0.3578(17) 0.54(3) Uiso 0.3895(5) 1 d PDU A 1
F3C F 0.7884(14) 0.8114(15) 0.3896(10) 0.50(3) Uiso 0.3895(5) 1 d PDU A 1
F3D F 0.8182(17) 0.8342(13) 0.3302(13) 0.61(3) Uiso 0.3895(5) 1 d PDU A 1
F3E F 0.7871(7) 0.7845(7) 0.3888(7) 0.269(12) Uiso 0.3895(5) 1 d PDU A 2
F3F F 0.8205(16) 0.7905(14) 0.3301(10) 0.55(3) Uiso 0.3895(5) 1 d PDU A 2
F3G F 0.8304(13) 0.8100(16) 0.3607(15) 0.58(3) Uiso 0.3895(5) 1 d PDU A 2
F3H F 0.7789(13) 0.8399(9) 0.3464(13) 0.54(3) Uiso 0.3895(5) 1 d PDU A 2
B4 B 0.6881(6) 0.6862(5) 0.5743(5) 0.139(7) Uiso 0.7789(9) 1 d PDU . .
F4A F 0.7113(10) 0.7026(10) 0.5431(8) 0.36(2) Uiso 0.3895(5) 1 d PDU A 1
F4B F 0.6860(18) 0.6595(12) 0.5689(13) 0.53(3) Uiso 0.3895(5) 1 d PDU A 1
F4C F 0.6539(8) 0.7118(11) 0.5817(12) 0.47(3) Uiso 0.3895(5) 1 d PDU A 1
F4D F 0.6999(14) 0.6699(16) 0.6034(10) 0.56(3) Uiso 0.3895(5) 1 d PDU A 1
F4E F 0.6964(11) 0.7081(9) 0.5383(6) 0.35(2) Uiso 0.3895(5) 1 d PDU A 2
F4F F 0.6573(11) 0.6791(16) 0.5856(12) 0.53(3) Uiso 0.3895(5) 1 d PDU A 2
F4G F 0.6837(17) 0.7030(14) 0.5955(11) 0.53(3) Uiso 0.3895(5) 1 d PDU A 2
F4H F 0.7173(11) 0.6539(9) 0.5771(13) 0.48(3) Uiso 0.3895(5) 1 d PDU A 2
B5 B 1.0341(7) 0.8046(6) 0.3569(6) 0.195(10) Uiso 0.7789(9) 1 d PDU . .
F5A F 1.0248(13) 0.7855(10) 0.3934(7) 0.40(2) Uiso 0.3895(5) 1 d PDU A 1
F5B F 1.0135(16) 0.8053(18) 0.3418(14) 0.58(3) Uiso 0.3895(5) 1 d PDU A 1
F5C F 1.028(2) 0.8401(8) 0.3521(15) 0.56(3) Uiso 0.3895(5) 1 d PDU A 1
F5D F 1.0704(9) 0.7893(17) 0.3395(13) 0.57(3) Uiso 0.3895(5) 1 d PDU A 1
F5E F 1.0449(13) 0.7916(11) 0.3858(10) 0.41(3) Uiso 0.3895(5) 1 d PDU A 2
F5F F 0.9977(9) 0.8256(15) 0.3652(14) 0.53(3) Uiso 0.3895(5) 1 d PDU A 2
F5G F 1.0546(15) 0.8249(16) 0.3265(10) 0.55(3) Uiso 0.3895(5) 1 d PDU A 2
F5H F 1.039(2) 0.7756(13) 0.3499(16) 0.61(4) Uiso 0.3895(5) 1 d PDU A 2
B6 B 1.0518(5) 0.6877(5) 0.5738(5) 0.145(7) Uiso 0.7789(9) 1 d PDU . .
F6A F 1.0458(12) 0.7138(10) 0.5423(8) 0.36(2) Uiso 0.3895(5) 1 d PDU A 1
F6B F 1.0419(18) 0.6590(12) 0.5827(13) 0.52(3) Uiso 0.3895(5) 1 d PDU A 1
F6C F 1.0321(16) 0.7020(13) 0.6017(10) 0.56(3) Uiso 0.3895(5) 1 d PDU A 1
F6D F 1.0885(8) 0.6748(17) 0.5692(14) 0.54(3) Uiso 0.3895(5) 1 d PDU A 1
F6E F 1.0538(11) 0.6976(11) 0.5388(7) 0.34(2) Uiso 0.3895(5) 1 d PDU A 2
F6F F 1.0160(8) 0.6917(17) 0.5963(11) 0.54(3) Uiso 0.3895(5) 1 d PDU A 2
F6G F 1.0624(17) 0.7116(12) 0.5743(13) 0.47(3) Uiso 0.3895(5) 1 d PDU A 2
F6H F 1.0739(15) 0.6529(8) 0.5852(13) 0.57(3) Uiso 0.3895(5) 1 d PDU A 2
B7 B 0.9668(6) 1.1959(6) 0.1952(6) 0.185(9) Uiso 0.7789(9) 1 d PDU . .
F7A F 0.9899(14) 1.2022(14) 0.2014(15) 0.49(3) Uiso 0.3895(5) 1 d PDU A 1
F7B F 0.9863(13) 1.1754(14) 0.1726(14) 0.55(3) Uiso 0.3895(5) 1 d PDU A 1
F7C F 0.9468(15) 1.1769(14) 0.2284(10) 0.53(3) Uiso 0.3895(5) 1 d PDU A 1
F7D F 0.9434(14) 1.2282(10) 0.1802(15) 0.52(3) Uiso 0.3895(5) 1 d PDU A 1
F7E F 0.9589(11) 1.2153(8) 0.2154(8) 0.309(15) Uiso 0.3895(5) 1 d PDU A 2
F7F F 0.9900(14) 1.1609(8) 0.2073(16) 0.56(3) Uiso 0.3895(5) 1 d PDU A 2
F7G F 0.9364(10) 1.1952(15) 0.1966(15) 0.51(3) Uiso 0.3895(5) 1 d PDU A 2
F7H F 0.9858(15) 1.2124(15) 0.1590(7) 0.54(3) Uiso 0.3895(5) 1 d PDU A 2
B8 B 0.9485(6) 1.3143(5) 0.3114(5) 0.147(7) Uiso 0.7789(9) 1 d PDU . .
F8A F 0.9527(12) 1.2988(10) 0.2896(10) 0.35(2) Uiso 0.3895(5) 1 d PDU A 1
F8B F 0.9125(8) 1.3348(15) 0.3243(18) 0.52(3) Uiso 0.3895(5) 1 d PDU A 1
F8C F 0.9694(16) 1.3371(16) 0.2917(14) 0.58(3) Uiso 0.3895(5) 1 d PDU A 1
F8D F 0.960(2) 1.2876(11) 0.3405(14) 0.52(3) Uiso 0.3895(5) 1 d PDU A 1
F8E F 0.9842(9) 1.3023(18) 0.310(2) 0.53(3) Uiso 0.3895(5) 1 d PDU A 2
F8F F 0.9444(14) 1.2912(11) 0.3038(14) 0.42(3) Uiso 0.3895(5) 1 d PDU A 2
F8G F 0.942(2) 1.3487(8) 0.2845(13) 0.55(3) Uiso 0.3895(5) 1 d PDU A 2
F8H F 0.9252(16) 1.3178(18) 0.3446(10) 0.57(3) Uiso 0.3895(5) 1 d PDU A 2
B9 B 0.8018(7) 1.3573(6) 0.0329(6) 0.202(10) Uiso 0.7789(9) 1 d PDU . .
F9A F 0.7830(9) 1.3850(9) 0.0462(12) 0.35(2) Uiso 0.3895(5) 1 d PDU A 1
F9B F 0.8013(17) 1.3241(9) 0.0601(11) 0.55(3) Uiso 0.3895(5) 1 d PDU A 1
F9C F 0.7851(17) 1.3627(15) 0.0103(15) 0.61(4) Uiso 0.3895(5) 1 d PDU A 1
F9D F 0.8372(8) 1.3560(13) 0.0121(15) 0.50(3) Uiso 0.3895(5) 1 d PDU A 1
F9E F 0.7897(12) 1.3945(7) 0.0211(14) 0.41(3) Uiso 0.3895(5) 1 d PDU A 2
F9F F 0.8250(14) 1.3434(13) 0.0516(17) 0.52(3) Uiso 0.3895(5) 1 d PDU A 2
F9G F 0.7719(13) 1.3456(15) 0.0560(15) 0.55(3) Uiso 0.3895(5) 1 d PDU A 2
F9H F 0.8196(18) 1.3448(14) 0.0038(11) 0.62(4) Uiso 0.3895(5) 1 d PDU A 2
B10 B 0.6886(6) 1.5743(4) 0.0504(5) 0.139(7) Uiso 0.7789(9) 1 d PDU . .
F10A F 0.7101(10) 1.5388(6) 0.0527(12) 0.35(3) Uiso 0.3895(5) 1 d PDU A 1
F10B F 0.6938(19) 1.5855(13) 0.0703(17) 0.56(3) Uiso 0.3895(5) 1 d PDU A 1
F10C F 0.6526(7) 1.5784(13) 0.062(2) 0.53(3) Uiso 0.3895(5) 1 d PDU A 1
F10D F 0.6986(19) 1.5961(11) 0.0139(8) 0.52(3) Uiso 0.3895(5) 1 d PDU A 1
F10E F 0.6991(11) 1.5411(7) 0.0482(12) 0.36(3) Uiso 0.3895(5) 1 d PDU A 2
F10F F 0.7192(11) 1.5817(13) 0.041(2) 0.53(3) Uiso 0.3895(5) 1 d PDU A 2
F10G F 0.6677(18) 1.5737(13) 0.0862(8) 0.53(3) Uiso 0.3895(5) 1 d PDU A 2
F10H F 0.6684(18) 1.6014(11) 0.0285(17) 0.57(3) Uiso 0.3895(5) 1 d PDU A 2
B11 B 0.6436(7) 1.1953(6) 0.1946(6) 0.185(9) Uiso 0.7789(9) 1 d PDU . .
F11A F 0.6104(8) 1.2140(8) 0.2148(8) 0.300(13) Uiso 0.3895(5) 1 d PDU A 1
F11B F 0.6714(9) 1.1980(15) 0.1961(15) 0.51(3) Uiso 0.3895(5) 1 d PDU A 1
F11C F 0.6446(15) 1.2092(14) 0.1590(7) 0.55(3) Uiso 0.3895(5) 1 d PDU A 1
F11D F 0.6459(14) 1.1590(7) 0.2089(14) 0.53(3) Uiso 0.3895(5) 1 d PDU A 1
F11E F 0.6120(11) 1.1948(14) 0.1978(15) 0.49(3) Uiso 0.3895(5) 1 d PDU A 2
F11F F 0.6425(16) 1.2306(9) 0.1821(14) 0.50(3) Uiso 0.3895(5) 1 d PDU A 2
F11G F 0.6724(12) 1.1792(16) 0.1686(13) 0.59(3) Uiso 0.3895(5) 1 d PDU A 2
F11H F 0.6503(15) 1.1762(13) 0.2269(11) 0.52(3) Uiso 0.3895(5) 1 d PDU A 2
B12 B 0.4257(5) 1.3148(5) 0.3126(5) 0.143(7) Uiso 0.7789(9) 1 d PDU . .
F12A F 0.4599(7) 1.2897(10) 0.3041(12) 0.36(3) Uiso 0.3895(5) 1 d PDU A 1
F12B F 0.4014(10) 1.3033(16) 0.3147(18) 0.54(3) Uiso 0.3895(5) 1 d PDU A 1
F12C F 0.4161(14) 1.3188(16) 0.3447(10) 0.55(3) Uiso 0.3895(5) 1 d PDU A 1
F12D F 0.4258(15) 1.3479(8) 0.2848(11) 0.51(3) Uiso 0.3895(5) 1 d PDU A 1
F12E F 0.4573(8) 1.3025(10) 0.2877(10) 0.33(2) Uiso 0.3895(5) 1 d PDU A 2
F12F F 0.4174(14) 1.2860(11) 0.3433(10) 0.50(3) Uiso 0.3895(5) 1 d PDU A 2
F12G F 0.4291(14) 1.3372(14) 0.3232(16) 0.53(3) Uiso 0.3895(5) 1 d PDU A 2
F12H F 0.3976(10) 1.3352(16) 0.2989(14) 0.57(3) Uiso 0.3895(5) 1 d PDU A 2
B13 B 0.6426(7) 0.9655(6) 0.1962(7) 0.192(10) Uiso 0.7789(9) 1 d PDU . .
F13A F 0.6456(15) 0.9801(15) 0.2151(15) 0.56(3) Uiso 0.3895(5) 1 d PDU A 1
F13B F 0.6708(9) 0.9338(10) 0.1940(17) 0.52(3) Uiso 0.3895(5) 1 d PDU A 1
F13C F 0.6433(15) 0.9904(14) 0.1617(9) 0.56(3) Uiso 0.3895(5) 1 d PDU A 1
F13D F 0.6099(8) 0.9596(9) 0.2143(8) 0.306(14) Uiso 0.3895(5) 1 d PDU A 1
F13E F 0.6091(10) 0.9923(12) 0.2011(15) 0.49(3) Uiso 0.3895(5) 1 d PDU A 2
F13F F 0.6698(12) 0.9803(14) 0.1809(16) 0.57(3) Uiso 0.3895(5) 1 d PDU A 2
F13G F 0.6475(15) 0.9508(15) 0.1728(12) 0.51(3) Uiso 0.3895(5) 1 d PDU A 2
F13H F 0.6448(16) 0.9388(11) 0.2288(10) 0.49(3) Uiso 0.3895(5) 1 d PDU A 2
B14 B 0.4246(5) 0.9483(5) 0.3132(5) 0.154(8) Uiso 0.7789(9) 1 d PDU . .
F14A F 0.4568(8) 0.9537(12) 0.2899(11) 0.35(3) Uiso 0.3895(5) 1 d PDU A 1
F14B F 0.4274(14) 0.9128(9) 0.322(2) 0.56(3) Uiso 0.3895(5) 1 d PDU A 1
F14C F 0.3977(11) 0.9717(16) 0.2974(14) 0.56(3) Uiso 0.3895(5) 1 d PDU A 1
F14D F 0.4143(14) 0.954(2) 0.3448(11) 0.54(3) Uiso 0.3895(5) 1 d PDU A 1
F14E F 0.4595(7) 0.9475(13) 0.3025(13) 0.39(3) Uiso 0.3895(5) 1 d PDU A 2
F14F F 0.4241(14) 0.9380(19) 0.2892(15) 0.51(3) Uiso 0.3895(5) 1 d PDU A 2
F14G F 0.4013(11) 0.9834(8) 0.3109(18) 0.52(3) Uiso 0.3895(5) 1 d PDU A 2
F14H F 0.4151(15) 0.9250(16) 0.3479(10) 0.59(3) Uiso 0.3895(5) 1 d PDU A 2
B15 B 0.8033(7) 0.8040(6) 0.0344(6) 0.184(10) Uiso 0.7789(9) 1 d PDU . .
F15A F 0.7838(9) 0.7833(9) 0.0440(12) 0.352(19) Uiso 0.3895(5) 1 d PDU A 1
F15B F 0.8078(17) 0.7999(16) 0.0646(10) 0.55(3) Uiso 0.3895(5) 1 d PDU A 1
F15C F 0.8368(9) 0.7939(16) 0.0093(13) 0.53(3) Uiso 0.3895(5) 1 d PDU A 1
F15D F 0.7842(16) 0.8403(7) 0.0197(17) 0.56(3) Uiso 0.3895(5) 1 d PDU A 1
F15E F 0.7932(13) 0.7940(12) 0.0174(14) 0.45(3) Uiso 0.3895(5) 1 d PDU A 2
F15F F 0.7726(12) 0.8200(16) 0.0586(15) 0.55(3) Uiso 0.3895(5) 1 d PDU A 2
F15G F 0.8260(14) 0.7734(11) 0.0524(16) 0.51(3) Uiso 0.3895(5) 1 d PDU A 2
F15H F 0.8216(17) 0.8285(15) 0.0089(12) 0.60(3) Uiso 0.3895(5) 1 d PDU A 2
B16 B 0.6878(6) 0.6863(5) 0.0520(5) 0.138(7) Uiso 0.7789(9) 1 d PDU . .
F16A F 0.6999(10) 0.7114(9) 0.0462(10) 0.33(2) Uiso 0.3895(5) 1 d PDU A 1
F16B F 0.6689(16) 0.6987(13) 0.0297(15) 0.55(3) Uiso 0.3895(5) 1 d PDU A 1
F16C F 0.7173(11) 0.6553(10) 0.0470(18) 0.52(3) Uiso 0.3895(5) 1 d PDU A 1
F16D F 0.6650(15) 0.6765(17) 0.0881(9) 0.57(3) Uiso 0.3895(5) 1 d PDU A 1
F16E F 0.7100(10) 0.6945(12) 0.0573(12) 0.38(3) Uiso 0.3895(5) 1 d PDU A 2
F16F F 0.7014(16) 0.6881(16) 0.0162(8) 0.53(3) Uiso 0.3895(5) 1 d PDU A 2
F16G F 0.6865(17) 0.6521(9) 0.0748(14) 0.57(3) Uiso 0.3895(5) 1 d PDU A 2
F16H F 0.6535(8) 0.7117(12) 0.0588(17) 0.48(3) Uiso 0.3895(5) 1 d PDU A 2
B17 B 0.9678(6) 0.6438(6) 0.1949(6) 0.178(9) Uiso 0.7789(9) 1 d PDU . .
F17A F 0.9992(10) 0.6144(12) 0.1934(16) 0.50(3) Uiso 0.3895(5) 1 d PDU A 1
F17B F 0.9446(11) 0.6422(14) 0.1853(13) 0.46(2) Uiso 0.3895(5) 1 d PDU A 1
F17C F 0.9771(17) 0.6753(12) 0.1707(15) 0.61(3) Uiso 0.3895(5) 1 d PDU A 1
F17D F 0.9513(16) 0.6461(16) 0.2295(10) 0.57(3) Uiso 0.3895(5) 1 d PDU A 1
F17E F 0.9621(9) 0.6110(7) 0.2148(7) 0.277(12) Uiso 0.3895(5) 1 d PDU A 2
F17F F 0.9352(10) 0.6717(9) 0.1953(15) 0.53(3) Uiso 0.3895(5) 1 d PDU A 2
F17G F 0.9883(14) 0.6445(14) 0.1591(8) 0.56(3) Uiso 0.3895(5) 1 d PDU A 2
F17H F 0.9868(16) 0.6479(14) 0.2081(16) 0.57(3) Uiso 0.3895(5) 1 d PDU A 2
B18 B 0.9477(5) 0.4278(5) 0.3122(5) 0.144(7) Uiso 0.7789(9) 1 d PDU . .
F18A F 0.9410(12) 0.4640(6) 0.2910(9) 0.36(2) Uiso 0.3895(5) 1 d PDU A 1
F18B F 0.9805(10) 0.4070(11) 0.2952(16) 0.56(3) Uiso 0.3895(5) 1 d PDU A 1
F18C F 0.9199(12) 0.4173(12) 0.3197(18) 0.54(3) Uiso 0.3895(5) 1 d PDU A 1
F18D F 0.9472(19) 0.4245(13) 0.3448(9) 0.50(3) Uiso 0.3895(5) 1 d PDU A 1
F18E F 0.9569(11) 0.4581(8) 0.2970(10) 0.33(2) Uiso 0.3895(5) 1 d PDU A 2
F18F F 0.9736(13) 0.3979(9) 0.3264(17) 0.54(3) Uiso 0.3895(5) 1 d PDU A 2
F18G F 0.945(2) 0.4226(13) 0.2858(13) 0.53(3) Uiso 0.3895(5) 1 d PDU A 2
F18H F 0.9144(11) 0.4319(13) 0.3398(14) 0.56(3) Uiso 0.3895(5) 1 d PDU A 2
B19 B 1.1944(7) 0.6423(6) 0.1965(6) 0.202(10) Uiso 0.7789(9) 1 d PDU . .
F19A F 1.1989(15) 0.6096(9) 0.2243(11) 0.46(3) Uiso 0.3895(5) 1 d PDU A 1
F19B F 1.2126(14) 0.6611(12) 0.1938(17) 0.51(3) Uiso 0.3895(5) 1 d PDU A 1
F19C F 1.1586(8) 0.6625(13) 0.2011(15) 0.55(3) Uiso 0.3895(5) 1 d PDU A 1
F19D F 1.2105(16) 0.6346(16) 0.1642(10) 0.55(3) Uiso 0.3895(5) 1 d PDU A 1
F19E F 1.2208(11) 0.6105(8) 0.2070(12) 0.38(2) Uiso 0.3895(5) 1 d PDU A 2
F19F F 1.1707(14) 0.6340(14) 0.1927(16) 0.54(3) Uiso 0.3895(5) 1 d PDU A 2
F19G F 1.1743(14) 0.6575(12) 0.2241(11) 0.48(3) Uiso 0.3895(5) 1 d PDU A 2
F19H F 1.2082(13) 0.6665(12) 0.1648(11) 0.55(3) Uiso 0.3895(5) 1 d PDU A 2
B20 B 1.3129(6) 0.4265(5) 0.3117(5) 0.150(8) Uiso 0.7789(9) 1 d PDU . .
F20A F 1.3018(12) 0.4634(6) 0.2938(11) 0.39(3) Uiso 0.3895(5) 1 d PDU A 1
F20B F 1.2854(12) 0.4183(14) 0.3441(11) 0.55(3) Uiso 0.3895(5) 1 d PDU A 1
F20C F 1.3202(18) 0.4083(12) 0.2905(15) 0.54(3) Uiso 0.3895(5) 1 d PDU A 1
F20D F 1.3438(12) 0.4161(12) 0.3187(18) 0.52(3) Uiso 0.3895(5) 1 d PDU A 1
F20E F 1.2887(10) 0.4583(8) 0.2970(10) 0.34(2) Uiso 0.3895(5) 1 d PDU A 2
F20F F 1.314(2) 0.4287(14) 0.3404(13) 0.57(3) Uiso 0.3895(5) 1 d PDU A 2
F20G F 1.3033(15) 0.3972(9) 0.3230(18) 0.58(3) Uiso 0.3895(5) 1 d PDU A 2
F20H F 1.3471(8) 0.4228(12) 0.2850(13) 0.48(3) Uiso 0.3895(5) 1 d PDU A 2
B21 B 1.3566(7) 0.8046(6) 0.0351(6) 0.202(10) Uiso 0.7789(9) 1 d PDU . .
F21A F 1.3938(7) 0.7913(11) 0.0232(14) 0.40(3) Uiso 0.3895(5) 1 d PDU A 1
F21B F 1.3432(14) 0.7762(12) 0.0535(17) 0.53(3) Uiso 0.3895(5) 1 d PDU A 1
F21C F 1.3442(15) 0.8286(16) 0.0062(12) 0.63(4) Uiso 0.3895(5) 1 d PDU A 1
F21D F 1.3444(15) 0.8226(16) 0.0589(16) 0.58(3) Uiso 0.3895(5) 1 d PDU A 1
F21E F 1.3855(10) 0.7826(10) 0.0477(13) 0.37(2) Uiso 0.3895(5) 1 d PDU A 2
F21F F 1.3244(9) 0.8054(18) 0.0635(11) 0.58(3) Uiso 0.3895(5) 1 d PDU A 2
F21G F 1.3589(16) 0.7914(17) 0.0118(16) 0.56(3) Uiso 0.3895(5) 1 d PDU A 2
F21H F 1.3584(15) 0.8396(8) 0.0161(17) 0.56(3) Uiso 0.3895(5) 1 d PDU A 2
B22 B 1.5738(6) 0.6868(5) 0.0523(5) 0.155(8) Uiso 0.7789(9) 1 d PDU . .
F22A F 1.5436(8) 0.7129(9) 0.0434(10) 0.33(2) Uiso 0.3895(5) 1 d PDU A 1
F22B F 1.5801(14) 0.6548(9) 0.0498(18) 0.53(3) Uiso 0.3895(5) 1 d PDU A 1
F22C F 1.5677(14) 0.6812(17) 0.0880(9) 0.56(3) Uiso 0.3895(5) 1 d PDU A 1
F22D F 1.6038(10) 0.6977(14) 0.0299(15) 0.57(3) Uiso 0.3895(5) 1 d PDU A 1
F22E F 1.5384(7) 0.6945(12) 0.0575(11) 0.36(2) Uiso 0.3895(5) 1 d PDU A 2
F22F F 1.5857(13) 0.6548(10) 0.0781(13) 0.57(3) Uiso 0.3895(5) 1 d PDU A 2
F22G F 1.5762(14) 0.7150(11) 0.0547(17) 0.51(3) Uiso 0.3895(5) 1 d PDU A 2
F22H F 1.5954(11) 0.6838(16) 0.0181(9) 0.52(3) Uiso 0.3895(5) 1 d PDU A 2
B23 B 1.1946(7) 0.9657(6) 0.1952(6) 0.187(10) Uiso 0.7789(9) 1 d PDU . .
F23A F 1.2148(9) 0.9562(10) 0.2146(8) 0.313(15) Uiso 0.3895(5) 1 d PDU A 1
F23B F 1.2035(17) 0.9928(13) 0.1620(10) 0.59(3) Uiso 0.3895(5) 1 d PDU A 1
F23C F 1.1579(7) 0.9802(16) 0.2143(15) 0.55(3) Uiso 0.3895(5) 1 d PDU A 1
F23D F 1.1990(16) 0.9371(11) 0.1882(17) 0.55(3) Uiso 0.3895(5) 1 d PDU A 1
F23E F 1.1983(14) 0.9870(13) 0.2058(13) 0.46(3) Uiso 0.3895(5) 1 d PDU A 2
F23F F 1.2279(11) 0.9498(14) 0.1730(12) 0.50(3) Uiso 0.3895(5) 1 d PDU A 2
F23G F 1.1700(15) 0.9862(14) 0.1766(17) 0.64(4) Uiso 0.3895(5) 1 d PDU A 2
F23H F 1.1822(15) 0.9388(12) 0.2257(12) 0.53(3) Uiso 0.3895(5) 1 d PDU A 2
B24 B 1.3129(5) 0.9482(5) 0.3132(5) 0.136(7) Uiso 0.7789(9) 1 d PDU . .
F24A F 1.2966(11) 0.9427(12) 0.2984(11) 0.35(3) Uiso 0.3895(5) 1 d PDU A 1
F24B F 1.3380(16) 0.965(2) 0.2855(11) 0.54(3) Uiso 0.3895(5) 1 d PDU A 1
F24C F 1.2876(13) 0.9693(19) 0.3347(18) 0.54(3) Uiso 0.3895(5) 1 d PDU A 1
F24D F 1.3311(19) 0.9147(8) 0.3340(18) 0.53(3) Uiso 0.3895(5) 1 d PDU A 1
F24E F 1.2941(10) 0.9569(12) 0.2921(10) 0.34(3) Uiso 0.3895(5) 1 d PDU A 2
F24F F 1.3472(10) 0.9240(18) 0.303(2) 0.55(3) Uiso 0.3895(5) 1 d PDU A 2
F24G F 1.315(2) 0.9791(10) 0.310(2) 0.56(3) Uiso 0.3895(5) 1 d PDU A 2
F24H F 1.2942(18) 0.933(2) 0.3492(7) 0.55(3) Uiso 0.3895(5) 1 d PDU A 2
B41 B 0.8870(16) 1.1058(15) 0.3014(16) 0.50(5) Uiso 0.2211(9) 1 d PDU . .
F41A F 0.873(2) 1.1430(14) 0.294(2) 0.47(4) Uiso 0.2211(9) 1 d PDU . .
F41B F 0.859(2) 1.091(2) 0.325(3) 0.59(6) Uiso 0.2211(9) 1 d PDU . .
F41C F 0.902(3) 1.098(3) 0.269(2) 0.62(6) Uiso 0.2211(9) 1 d PDU . .
F41D F 0.9129(15) 1.0907(13) 0.3173(15) 0.31(2) Uiso 0.2211(9) 1 d PDU . .
B42 B 0.8856(19) 1.1105(15) 0.5142(17) 0.37(3) Uiso 0.2211(9) 1 d PDU . .
F42A F 0.874(3) 1.123(3) 0.485(3) 0.34(4) Uiso 0.1105(5) 1 d PDU . 1
F42B F 0.878(4) 1.079(2) 0.539(3) 0.42(5) Uiso 0.1105(5) 1 d PDU A 1
F42C F 0.9226(19) 1.103(4) 0.502(3) 0.38(4) Uiso 0.1105(5) 1 d PDU . 1
F42D F 0.868(3) 1.136(2) 0.531(3) 0.37(4) Uiso 0.1105(5) 1 d PDU . 1
F42E F 0.912(3) 1.077(2) 0.515(3) 0.40(4) Uiso 0.1105(5) 1 d PDU . 2
F42F F 0.885(3) 1.122(3) 0.538(2) 0.36(4) Uiso 0.1105(5) 1 d PDU . 2
F42G F 0.894(3) 1.135(3) 0.4791(18) 0.36(4) Uiso 0.1105(5) 1 d PDU . 2
F42H F 0.852(3) 1.108(4) 0.524(3) 0.37(4) Uiso 0.1105(5) 1 d PDU . 2
B43 B 0.8831(17) 1.3141(16) 0.0999(17) 0.38(4) Uiso 0.2211(9) 1 d PDU . .
F43A F 0.876(3) 1.292(3) 0.1358(19) 0.42(6) Uiso 0.1105(5) 1 d PDU A 1
F43B F 0.905(3) 1.294(3) 0.077(3) 0.44(5) Uiso 0.1105(5) 1 d PDU A 1
F43C F 0.901(2) 1.335(2) 0.094(2) 0.25(3) Uiso 0.1105(5) 1 d PDU A 1
F43D F 0.851(2) 1.336(3) 0.093(4) 0.45(6) Uiso 0.1105(5) 1 d PDU A 1
F43E F 0.9189(17) 1.307(3) 0.093(2) 0.26(4) Uiso 0.1105(5) 1 d PDU A 2
F43F F 0.862(2) 1.317(4) 0.134(2) 0.42(6) Uiso 0.1105(5) 1 d PDU A 2
F43G F 0.880(3) 1.286(3) 0.098(4) 0.49(6) Uiso 0.1105(5) 1 d PDU A 2
F43H F 0.870(3) 1.346(2) 0.074(3) 0.44(6) Uiso 0.1105(5) 1 d PDU A 2
B44 B 0.8817(15) 1.5259(16) 0.1222(17) 0.35(4) Uiso 0.2211(9) 1 d PDU . .
F44A F 0.875(2) 1.4946(16) 0.1340(18) 0.18(3) Uiso 0.1105(5) 1 d PDU A 1
F44B F 0.9189(18) 1.519(3) 0.107(4) 0.49(5) Uiso 0.1105(5) 1 d PDU A 1
F44C F 0.868(4) 1.538(3) 0.151(3) 0.42(5) Uiso 0.1105(5) 1 d PDU A 1
F44D F 0.866(4) 1.553(2) 0.096(3) 0.46(5) Uiso 0.1105(5) 1 d PDU A 1
F44E F 0.862(3) 1.511(2) 0.122(3) 0.28(4) Uiso 0.1105(5) 1 d PDU A 2
F44F F 0.900(4) 1.501(3) 0.147(4) 0.45(5) Uiso 0.1105(5) 1 d PDU A 2
F44G F 0.858(3) 1.557(2) 0.132(4) 0.39(4) Uiso 0.1105(5) 1 d PDU . 2
F44H F 0.907(3) 1.535(4) 0.088(3) 0.51(5) Uiso 0.1105(5) 1 d PDU A 2
B45 B 0.713(2) 1.267(2) 0.174(2) 0.65(6) Uiso 0.2211(9) 1 d PDU . .
F45A F 0.737(3) 1.258(4) 0.142(3) 0.75(8) Uiso 0.2211(9) 1 d PDU . .
F45B F 0.701(3) 1.304(2) 0.165(3) 0.53(5) Uiso 0.2211(9) 1 d PDU . .
F45C F 0.730(4) 1.250(3) 0.199(4) 0.73(8) Uiso 0.2211(9) 1 d PDU . .
F45D F 0.683(3) 1.256(3) 0.188(4) 0.63(6) Uiso 0.2211(9) 1 d PDU . .
B46 B 0.5001(13) 1.5003(13) 0.1343(12) 0.15(2) Uiso 0.2211(9) 1 d PDU . .
F46A F 0.4683(15) 1.511(2) 0.129(2) 0.28(3) Uiso 0.1105(5) 1 d PDU A 1
F46B F 0.523(2) 1.4670(16) 0.130(2) 0.25(3) Uiso 0.1105(5) 1 d PDU A 1
F46C F 0.518(2) 1.526(2) 0.1093(19) 0.28(3) Uiso 0.1105(5) 1 d PDU A 1
F46D F 0.493(3) 1.498(2) 0.1692(15) 0.38(5) Uiso 0.1105(5) 1 d PDU A 1
F46E F 0.512(3) 1.502(2) 0.156(2) 0.38(5) Uiso 0.1105(5) 1 d PDU A 2
F46F F 0.5296(17) 1.489(2) 0.107(2) 0.32(4) Uiso 0.1105(5) 1 d PDU A 2
F46G F 0.481(2) 1.476(2) 0.155(2) 0.28(3) Uiso 0.1105(5) 1 d PDU A 2
F46H F 0.477(2) 1.5342(16) 0.1207(18) 0.23(3) Uiso 0.1105(5) 1 d PDU A 2
B47 B 0.6963(19) 1.1141(18) 0.3009(18) 0.44(4) Uiso 0.2211(9) 1 d PDU . .
F47A F 0.666(2) 1.104(3) 0.319(3) 0.31(5) Uiso 0.1105(5) 1 d PDU A 1
F47B F 0.714(4) 1.109(4) 0.268(2) 0.63(7) Uiso 0.1105(5) 1 d PDU A 1
F47C F 0.687(4) 1.150(2) 0.296(5) 0.46(6) Uiso 0.1105(5) 1 d PDU A 1
F47D F 0.720(3) 1.093(4) 0.321(4) 0.45(6) Uiso 0.1105(5) 1 d PDU A 1
F47E F 0.682(3) 1.086(2) 0.325(2) 0.25(4) Uiso 0.1105(5) 1 d PDU A 2
F47F F 0.729(3) 1.102(4) 0.276(3) 0.62(7) Uiso 0.1105(5) 1 d PDU A 2
F47G F 0.672(4) 1.142(3) 0.283(4) 0.47(6) Uiso 0.1105(5) 1 d PDU A 2
F47H F 0.701(5) 1.127(4) 0.320(4) 0.45(5) Uiso 0.1105(5) 1 d PDU A 2
B48 B 0.4952(14) 1.1435(12) 0.4928(14) 0.36(4) Uiso 0.2211(9) 1 d PDU . .
F48A F 0.5288(14) 1.1233(14) 0.4752(14) 0.32(2) Uiso 0.2211(9) 1 d PDU . .
F48B F 0.4796(15) 1.1212(16) 0.5259(14) 0.37(3) Uiso 0.2211(9) 1 d PDU . .
F48C F 0.499(2) 1.1692(17) 0.498(2) 0.52(5) Uiso 0.2211(9) 1 d PDU . .
F48D F 0.4731(18) 1.1617(19) 0.4717(19) 0.52(5) Uiso 0.2211(9) 1 d PDU . .
B49 B 0.7084(18) 0.8810(18) 0.3062(19) 0.55(5) Uiso 0.2211(9) 1 d PDU . .
F49A F 0.6798(16) 0.9079(14) 0.3201(16) 0.33(2) Uiso 0.2211(9) 1 d PDU . .
F49B F 0.733(2) 0.896(3) 0.275(2) 0.72(7) Uiso 0.2211(9) 1 d PDU . .
F49C F 0.725(3) 0.855(2) 0.332(3) 0.58(6) Uiso 0.2211(9) 1 d PDU . .
F49D F 0.695(3) 0.865(3) 0.298(3) 0.64(6) Uiso 0.2211(9) 1 d PDU . .
B50 B 0.5826(19) 0.8019(16) 0.5737(19) 0.53(5) Uiso 0.2211(9) 1 d PDU . .
F50A F 0.596(3) 0.811(3) 0.5363(19) 0.61(6) Uiso 0.2211(9) 1 d PDU . .
F50B F 0.582(2) 0.8277(18) 0.5824(19) 0.39(3) Uiso 0.2211(9) 1 d PDU . .
F50C F 0.605(3) 0.7680(17) 0.589(3) 0.70(7) Uiso 0.2211(9) 1 d PDU . .
F50D F 0.548(2) 0.801(3) 0.587(3) 0.54(5) Uiso 0.2211(9) 1 d PDU . .
B51 B 0.6691(17) 0.9289(15) 0.1214(17) 0.46(3) Uiso 0.2211(9) 1 d PDU . .
F51A F 0.676(5) 0.911(4) 0.100(4) 0.45(3) Uiso 0.1105(5) 1 d PDU A 1
F51B F 0.693(3) 0.949(3) 0.104(4) 0.47(3) Uiso 0.1105(5) 1 d PDU A 1
F51C F 0.634(2) 0.952(3) 0.128(4) 0.47(3) Uiso 0.1105(5) 1 d PDU A 1
F51D F 0.674(4) 0.904(3) 0.154(2) 0.47(3) Uiso 0.1105(5) 1 d PDU A 1
F51E F 0.682(5) 0.909(4) 0.099(4) 0.45(3) Uiso 0.1105(5) 1 d PDU A 2
F51F F 0.697(3) 0.936(4) 0.118(4) 0.47(3) Uiso 0.1105(5) 1 d PDU A 2
F51G F 0.643(3) 0.961(2) 0.111(4) 0.47(3) Uiso 0.1105(5) 1 d PDU A 2
F51H F 0.654(4) 0.909(4) 0.157(2) 0.47(3) Uiso 0.1105(5) 1 d PDU A 2
B53 B 0.8745(16) 0.7114(14) 0.1091(16) 0.51(4) Uiso 0.2211(9) 1 d PDU . .
F53A F 0.9026(16) 0.6834(15) 0.0965(17) 0.36(3) Uiso 0.2211(9) 1 d PDU A .
F53B F 0.850(7) 0.729(9) 0.091(10) 0.51(6) Uiso 0.1105(5) 1 d PDU A 1
F53C F 0.857(9) 0.697(3) 0.146(3) 0.52(6) Uiso 0.1105(5) 1 d PDU A 1
F53D F 0.888(3) 0.736(7) 0.103(13) 0.57(6) Uiso 0.1105(5) 1 d PDU A 1
F53F F 0.850(7) 0.729(9) 0.091(10) 0.51(6) Uiso 0.1105(5) 1 d PDU A 2
F53G F 0.888(3) 0.736(7) 0.103(13) 0.57(6) Uiso 0.1105(5) 1 d PDU A 2
F53H F 0.857(9) 0.697(3) 0.146(3) 0.52(6) Uiso 0.1105(5) 1 d PDU A 2
B55 B 0.8799(16) 0.7160(14) 0.3246(17) 0.52(5) Uiso 0.2211(9) 1 d PDU . .
F55A F 0.8481(16) 0.719(3) 0.324(3) 0.60(6) Uiso 0.2211(9) 1 d PDU . .
F55B F 0.889(3) 0.7470(14) 0.299(3) 0.69(7) Uiso 0.2211(9) 1 d PDU . .
F55C F 0.9077(14) 0.6857(13) 0.3160(14) 0.30(2) Uiso 0.2211(9) 1 d PDU . .
F55D F 0.875(2) 0.713(2) 0.359(2) 0.51(5) Uiso 0.2211(9) 1 d PDU . .
B56 B 0.8877(16) 0.4910(15) 0.5027(16) 0.45(3) Uiso 0.2211(9) 1 d PDU . .
F56A F 0.898(2) 0.478(2) 0.4755(18) 0.46(4) Uiso 0.2211(9) 1 d PDU . .
F56B F 0.9180(18) 0.492(2) 0.502(2) 0.48(4) Uiso 0.2211(9) 1 d PDU . .
F56C F 0.873(2) 0.4679(19) 0.5361(16) 0.45(3) Uiso 0.2211(9) 1 d PDU . .
F56D F 0.8623(19) 0.5255(16) 0.497(2) 0.43(3) Uiso 0.2211(9) 1 d PDU . .
B57 B 1.1226(16) 0.6832(17) 0.2869(16) 0.48(5) Uiso 0.2211(9) 1 d PDU . .
F57A F 1.154(2) 0.681(5) 0.288(4) 0.53(7) Uiso 0.1105(5) 1 d PDU A 1
F57B F 1.130(4) 0.655(3) 0.277(4) 0.51(7) Uiso 0.1105(5) 1 d PDU A 1
F57C F 1.110(4) 0.716(3) 0.262(3) 0.57(7) Uiso 0.1105(5) 1 d PDU A 1
F57D F 1.096(3) 0.681(4) 0.321(2) 0.31(5) Uiso 0.1105(5) 1 d PDU A 1
F57E F 1.139(4) 0.698(4) 0.293(4) 0.52(7) Uiso 0.1105(5) 1 d PDU A 2
F57F F 1.144(3) 0.648(2) 0.288(4) 0.53(7) Uiso 0.1105(5) 1 d PDU A 2
F57G F 1.118(4) 0.703(4) 0.2532(19) 0.54(7) Uiso 0.1105(5) 1 d PDU A 2
F57H F 1.089(2) 0.684(3) 0.314(2) 0.28(4) Uiso 0.1105(5) 1 d PDU A 2
B58 B 1.1157(17) 0.4751(16) 0.5302(15) 0.44(3) Uiso 0.2211(9) 1 d PDU . .
F58A F 1.1313(18) 0.4992(17) 0.4990(15) 0.33(3) Uiso 0.2211(9) 1 d PDU . .
F58B F 1.121(3) 0.472(3) 0.5594(17) 0.60(6) Uiso 0.2211(9) 1 d PDU . .
F58C F 1.131(2) 0.4413(16) 0.526(2) 0.51(4) Uiso 0.2211(9) 1 d PDU . .
F58D F 1.0787(16) 0.488(2) 0.536(3) 0.50(4) Uiso 0.2211(9) 1 d PDU . .
B59 B 1.3027(19) 0.7113(17) 0.108(2) 0.51(5) Uiso 0.2211(9) 1 d PDU . .
F59A F 1.320(4) 0.685(3) 0.092(4) 0.34(4) Uiso 0.1105(5) 1 d PDU A 1
F59B F 1.328(4) 0.725(5) 0.101(6) 0.53(6) Uiso 0.1105(5) 1 d PDU A 1
F59C F 1.275(4) 0.739(3) 0.094(6) 0.58(6) Uiso 0.1105(5) 1 d PDU A 1
F59D F 1.288(6) 0.696(5) 0.145(2) 0.59(6) Uiso 0.1105(5) 1 d PDU A 1
F59E F 1.320(5) 0.683(3) 0.095(4) 0.34(4) Uiso 0.1105(5) 1 d PDU A 2
F59F F 1.316(5) 0.739(4) 0.083(5) 0.57(6) Uiso 0.1105(5) 1 d PDU A 2
F59G F 1.266(2) 0.724(5) 0.115(6) 0.59(6) Uiso 0.1105(5) 1 d PDU A 2
F59H F 1.309(6) 0.700(5) 0.140(4) 0.55(6) Uiso 0.1105(5) 1 d PDU A 2
B61 B 1.3116(17) 0.8776(15) 0.100(2) 0.45(4) Uiso 0.2211(9) 1 d PDU . .
F61A F 1.322(3) 0.908(2) 0.083(3) 0.30(4) Uiso 0.1105(5) 1 d PDU A 1
F61B F 1.282(3) 0.885(4) 0.092(4) 0.55(5) Uiso 0.1105(5) 1 d PDU A 1
F61C F 1.302(4) 0.868(4) 0.1377(19) 0.50(5) Uiso 0.1105(5) 1 d PDU A 1
F61D F 1.340(3) 0.849(3) 0.089(5) 0.47(5) Uiso 0.1105(5) 1 d PDU A 1
F61E F 1.314(4) 0.907(2) 0.099(3) 0.31(4) Uiso 0.1105(5) 1 d PDU A 2
F61F F 1.276(2) 0.884(4) 0.106(4) 0.55(5) Uiso 0.1105(5) 1 d PDU A 2
F61G F 1.323(5) 0.847(2) 0.128(4) 0.49(5) Uiso 0.1105(5) 1 d PDU A 2
F61H F 1.334(3) 0.871(4) 0.068(3) 0.47(5) Uiso 0.1105(5) 1 d PDU A 2
B62 B 1.4885(15) 0.8963(10) 0.1293(12) 0.33(3) Uiso 0.2211(9) 1 d PDU . .
F62A F 1.475(2) 0.876(2) 0.126(2) 0.23(3) Uiso 0.1105(5) 1 d PDU A 1
F62B F 1.471(2) 0.899(3) 0.1637(18) 0.40(4) Uiso 0.1105(5) 1 d PDU A 1
F62C F 1.484(2) 0.9302(13) 0.103(2) 0.48(5) Uiso 0.1105(5) 1 d PDU A 1
F62D F 1.5252(15) 0.8772(18) 0.1239(17) 0.19(2) Uiso 0.1105(5) 1 d PDU A 1
F62E F 1.4512(15) 0.904(2) 0.146(3) 0.41(5) Uiso 0.1105(5) 1 d PDU A 2
F62F F 1.502(3) 0.901(2) 0.148(3) 0.36(4) Uiso 0.1105(5) 1 d PDU A 2
F62G F 1.496(3) 0.9211(16) 0.0939(16) 0.45(5) Uiso 0.1105(5) 1 d PDU A 2
F62H F 1.505(2) 0.8620(11) 0.1283(14) 0.15(2) Uiso 0.1105(5) 1 d PDU A 2
B63 B 1.1032(18) 0.8776(15) 0.3071(17) 0.52(5) Uiso 0.2211(9) 1 d PDU . .
F63A F 1.0934(16) 0.9084(14) 0.3143(15) 0.33(2) Uiso 0.2211(9) 1 d PDU . .
F63B F 1.136(2) 0.8537(19) 0.312(3) 0.54(5) Uiso 0.2211(9) 1 d PDU . .
F63C F 1.106(3) 0.887(3) 0.271(2) 0.63(6) Uiso 0.2211(9) 1 d PDU . .
F63D F 1.077(2) 0.861(2) 0.331(3) 0.59(6) Uiso 0.2211(9) 1 d PDU . .
B64 B 1.1216(13) 0.8925(13) 0.5112(15) 0.42(3) Uiso 0.2211(9) 1 d PDU . .
F64A F 1.1332(16) 0.8698(14) 0.4926(15) 0.32(2) Uiso 0.2211(9) 1 d PDU . .
F64B F 1.1190(11) 0.8724(17) 0.5471(14) 0.45(3) Uiso 0.2211(9) 1 d PDU . .
F64C F 1.146(2) 0.9104(19) 0.496(2) 0.47(4) Uiso 0.2211(9) 1 d PDU . .
F64D F 1.0879(17) 0.9178(16) 0.5092(19) 0.48(4) Uiso 0.2211(9) 1 d PDU . .
B1X B 0.8516(15) 1.4457(14) 0.2584(15) 0.24(3) Uiso 0.2211(9) 1 d PDU . .
F1XA F 0.869(2) 1.456(2) 0.2212(14) 0.47(4) Uiso 0.2211(9) 1 d PDU . .
F1XB F 0.8279(18) 1.4765(16) 0.2678(19) 0.44(4) Uiso 0.2211(9) 1 d PDU . .
F1XC F 0.8772(19) 1.4270(19) 0.276(2) 0.48(4) Uiso 0.2211(9) 1 d PDU . .
F1XD F 0.833(2) 1.4239(19) 0.269(2) 0.49(4) Uiso 0.2211(9) 1 d PDU . .
B2X B 1.4466(13) 0.8512(12) 0.2559(13) 0.15(2) Uiso 0.2211(9) 1 d PDU . .
F2XA F 1.4697(18) 0.8272(17) 0.276(2) 0.49(4) Uiso 0.2211(9) 1 d PDU . .
F2XB F 1.4668(19) 0.857(2) 0.2193(14) 0.48(4) Uiso 0.2211(9) 1 d PDU . .
F2XC F 1.4294(19) 0.8838(14) 0.262(2) 0.47(4) Uiso 0.2211(9) 1 d PDU . .
F2XD F 1.4212(16) 0.8370(16) 0.2653(17) 0.39(3) Uiso 0.2211(9) 1 d PDU . .
B3X B 0.9558(15) 1.5975(14) -0.1643(14) 0.47(5) Uiso 0.2211(9) 1 d PDU . .
F3XA F 0.9468(14) 1.6237(13) -0.1949(15) 0.32(2) Uiso 0.2211(9) 1 d PDU . .
F3XB F 0.9923(15) 1.5882(14) -0.1704(16) 0.34(3) Uiso 0.2211(9) 1 d PDU . .
F3XC F 0.935(2) 1.611(3) -0.1355(16) 0.60(6) Uiso 0.2211(9) 1 d PDU . .
F3XD F 0.949(3) 1.5668(17) -0.155(3) 0.63(6) Uiso 0.2211(9) 1 d PDU . .
Pd1 Pd 0.74671(7) 1.04284(6) 0.46355(6) 0.2576(12) Uani 0.7789(9) 1 d P . .
Pd2 Pd 0.74686(7) 0.74684(6) 0.46359(6) 0.2579(12) Uani 0.7789(9) 1 d P . .
Pd3 Pd 1.04264(7) 0.74679(6) 0.46370(7) 0.2571(12) Uani 0.7789(9) 1 d P . .
Pd4 Pd 0.95705(7) 1.25305(6) 0.25327(6) 0.2579(12) Uani 0.7789(9) 1 d P . .
Pd5 Pd 0.74684(7) 1.46355(6) 0.04274(6) 0.2576(12) Uani 0.7789(9) 1 d P . .
Pd6 Pd 0.53652(7) 1.25316(6) 0.25320(6) 0.2585(12) Uani 0.7789(9) 1 d P . .
Pd7 Pd 0.53656(7) 0.95727(6) 0.25311(6) 0.2577(12) Uani 0.7789(9) 1 d P . .
Pd8 Pd 0.74700(7) 0.74682(6) 0.04278(6) 0.2574(12) Uani 0.7789(9) 1 d P . .
Pd9 Pd 0.95721(7) 0.53640(6) 0.25323(6) 0.2580(12) Uani 0.7789(9) 1 d P . .
Pd10 Pd 1.25300(7) 0.53662(6) 0.25322(6) 0.2559(12) Uani 0.7789(9) 1 d P . .
Pd11 Pd 1.46335(7) 0.74689(6) 0.04283(6) 0.2588(12) Uani 0.7789(9) 1 d P . .
Pd12 Pd 1.25312(7) 0.95718(6) 0.25316(6) 0.2574(12) Uani 0.7789(9) 1 d P . .
Pd21 Pd 0.89278(18) 1.10724(15) 0.40467(17) 0.204(3) Uani 0.2211(9) 1 d P . .
Pd22 Pd 0.89313(18) 1.40509(16) 0.10647(16) 0.202(3) Uani 0.2211(9) 1 d P . .
Pd23 Pd 0.59542(19) 1.40501(17) 0.10661(16) 0.206(3) Uani 0.2211(9) 1 d P . .
Pd24 Pd 0.59491(18) 1.10704(15) 0.40482(17) 0.199(3) Uani 0.2211(9) 1 d P . .
Pd25 Pd 0.59487(19) 0.89321(15) 0.40499(17) 0.202(3) Uani 0.2211(9) 1 d P . .
Pd26 Pd 0.59514(19) 0.89312(15) 0.10674(16) 0.204(3) Uani 0.2211(9) 1 d P . .
Pd27 Pd 0.89292(18) 0.59521(17) 0.10683(17) 0.208(3) Uani 0.2211(9) 1 d P . .
Pd28 Pd 0.89302(18) 0.59482(17) 0.40501(17) 0.204(3) Uani 0.2211(9) 1 d P . .
Pd29 Pd 1.10717(18) 0.59503(16) 0.40490(17) 0.203(3) Uani 0.2211(9) 1 d P . .
Pd30 Pd 1.40517(19) 0.59527(17) 0.10646(16) 0.205(3) Uani 0.2211(9) 1 d P . .
Pd31 Pd 1.40483(19) 0.89307(15) 0.10688(16) 0.204(3) Uani 0.2211(9) 1 d P . .
Pd32 Pd 1.10710(18) 0.89320(15) 0.40474(17) 0.205(3) Uani 0.2211(9) 1 d P . .
N1D N 0.7676(5) 1.0807(4) 0.4464(7) 0.268(8) Uiso 0.7789(9) 1 d PGU A 1
C1D C 0.7903(6) 1.0934(6) 0.4122(6) 0.284(12) Uiso 0.7789(9) 1 d PGU A 1
H25 H 0.7980 1.0837 0.3948 0.340 Uiso 0.7789(9) 1 calc PR A 1
C2D C 0.8016(5) 1.1207(6) 0.4038(6) 0.295(14) Uiso 0.7789(9) 1 d PGU A 1
H26 H 0.8169 1.1292 0.3809 0.353 Uiso 0.7789(9) 1 calc PR A 1
C3D C 0.7902(8) 1.1352(5) 0.4298(9) 0.376(16) Uiso 0.7789(9) 1 d PGDU A 1
C4D C 0.7674(8) 1.1224(7) 0.4641(7) 0.370(16) Uiso 0.7789(9) 1 d PGU A 1
H27 H 0.7598 1.1322 0.4814 0.444 Uiso 0.7789(9) 1 calc PR A 1
C5D C 0.7561(5) 1.0952(6) 0.4724(5) 0.320(13) Uiso 0.7789(9) 1 d PGU A 1
H28 H 0.7409 1.0867 0.4953 0.384 Uiso 0.7789(9) 1 calc PR A 1
N2D N 0.9205(4) 1.2326(5) 0.2948(5) 0.261(8) Uiso 0.7789(9) 1 d PGU A 1
C6D C 0.9077(6) 1.2105(5) 0.2950(5) 0.272(11) Uiso 0.7789(9) 1 d PGU A 1
H29 H 0.9164 1.2046 0.2747 0.326 Uiso 0.7789(9) 1 calc PR A 1
C7D C 0.8816(6) 1.1974(5) 0.3256(8) 0.277(11) Uiso 0.7789(9) 1 d PGU A 1
H30 H 0.8730 1.1827 0.3257 0.332 Uiso 0.7789(9) 1 calc PR A 1
C8D C 0.8685(5) 1.2063(6) 0.3559(5) 0.355(15) Uiso 0.7789(9) 1 d PGDU A 1
C9D C 0.8814(6) 1.2283(6) 0.3557(5) 0.311(14) Uiso 0.7789(9) 1 d PGU A 1
H31 H 0.8726 1.2343 0.3760 0.374 Uiso 0.7789(9) 1 calc PR A 1
C10D C 0.9074(6) 1.2415(5) 0.3252(7) 0.301(12) Uiso 0.7789(9) 1 d PGU A 1
H32 H 0.9160 1.2562 0.3250 0.361 Uiso 0.7789(9) 1 calc PR A 1
N3D N 0.8353(8) 1.1638(8) 0.3852(9) 0.327(11) Uiso 0.7789(9) 1 d PDU A 1
N4D N 0.8138(8) 1.1521(8) 0.4204(12) 0.434(15) Uiso 0.7789(9) 1 d PDU A 1
C11D C 0.8097(11) 1.1682(12) 0.4420(13) 0.46(2) Uiso 0.7789(9) 1 d PDU A 1
H483 H 0.7958 1.1647 0.4661 0.552 Uiso 0.7789(9) 1 calc PR A 1
C12D C 0.8307(12) 1.1909(11) 0.4201(14) 0.439(19) Uiso 0.7789(9) 1 d PDU A 1
H484 H 0.8354 1.2039 0.4267 0.526 Uiso 0.7789(9) 1 calc PR A 1
C13D C 0.8430(8) 1.1890(9) 0.3849(10) 0.360(15) Uiso 0.7789(9) 1 d PDU A 1
N1E N 0.9201(4) 1.2954(5) 0.2331(5) 0.255(8) Uiso 0.7789(9) 1 d PGU A 1
C1E C 0.9083(6) 1.2946(5) 0.2108(5) 0.278(11) Uiso 0.7789(9) 1 d PGU A 1
H33 H 0.9183 1.2743 0.2044 0.333 Uiso 0.7789(9) 1 calc PR A 1
C2E C 0.8815(6) 1.3242(7) 0.1980(5) 0.287(13) Uiso 0.7789(9) 1 d PGU A 1
H34 H 0.8736 1.3237 0.1831 0.344 Uiso 0.7789(9) 1 calc PR A 1
C3E C 0.8666(5) 1.3546(6) 0.2075(7) 0.358(15) Uiso 0.7789(9) 1 d PGDU A 1
C4E C 0.8784(6) 1.3553(5) 0.2298(7) 0.338(14) Uiso 0.7789(9) 1 d PGU A 1
H35 H 0.8685 1.3756 0.2362 0.405 Uiso 0.7789(9) 1 calc PR A 1
C5E C 0.9052(6) 1.3257(7) 0.2426(5) 0.285(11) Uiso 0.7789(9) 1 d PGU A 1
H36 H 0.9131 1.3262 0.2575 0.342 Uiso 0.7789(9) 1 calc PR A 1
N2E N 0.7668(5) 1.4475(7) 0.0804(4) 0.270(8) Uiso 0.7789(9) 1 d PGU A 1
C6E C 0.7890(6) 1.4129(6) 0.0933(6) 0.287(12) Uiso 0.7789(9) 1 d PGU A 1
H37 H 0.7961 1.3956 0.0839 0.345 Uiso 0.7789(9) 1 calc PR A 1
C7E C 0.8007(5) 1.4043(5) 0.1205(6) 0.291(13) Uiso 0.7789(9) 1 d PGU A 1
H38 H 0.8155 1.3812 0.1292 0.349 Uiso 0.7789(9) 1 calc PR A 1
C8E C 0.7901(7) 1.4303(8) 0.1346(5) 0.321(13) Uiso 0.7789(9) 1 d PGDU A 1
C9E C 0.7679(7) 1.4648(7) 0.1216(6) 0.350(15) Uiso 0.7789(9) 1 d PGU A 1
H39 H 0.7609 1.4822 0.1311 0.420 Uiso 0.7789(9) 1 calc PR A 1
C10E C 0.7563(5) 1.4734(4) 0.0945(6) 0.305(12) Uiso 0.7789(9) 1 d PGU A 1
H40 H 0.7414 1.4965 0.0858 0.365 Uiso 0.7789(9) 1 calc PR A 1
N3E N 0.8345(8) 1.3860(8) 0.1648(8) 0.322(11) Uiso 0.7789(9) 1 d PDU A 1
N4E N 0.8458(8) 1.3863(8) 0.1877(8) 0.393(14) Uiso 0.7789(9) 1 d PDU A 1
C11E C 0.8302(11) 1.4200(12) 0.1916(11) 0.433(19) Uiso 0.7789(9) 1 d PDU A 1
H489 H 0.8339 1.4260 0.2059 0.520 Uiso 0.7789(9) 1 calc PR A 1
C12E C 0.8081(11) 1.4433(12) 0.1702(12) 0.420(18) Uiso 0.7789(9) 1 d PDU A 1
H490 H 0.7943 1.4674 0.1669 0.504 Uiso 0.7789(9) 1 calc PR A 1
C13E C 0.8122(8) 1.4199(11) 0.1546(8) 0.322(13) Uiso 0.7789(9) 1 d PDU A 1
N1F N 0.7054(6) 1.4476(8) 0.0807(5) 0.277(9) Uiso 0.7789(9) 1 d PGU A 1
C1F C 0.7055(6) 1.4130(6) 0.0924(6) 0.307(12) Uiso 0.7789(9) 1 d PGU A 1
H41 H 0.7259 1.3959 0.0831 0.368 Uiso 0.7789(9) 1 calc PR A 1
C2F C 0.6750(9) 1.4039(5) 0.1179(7) 0.316(14) Uiso 0.7789(9) 1 d PGU A 1
H42 H 0.6751 1.3808 0.1258 0.380 Uiso 0.7789(9) 1 calc PR A 1
C3F C 0.6445(7) 1.4295(9) 0.1318(6) 0.399(16) Uiso 0.7789(9) 1 d PGDU A 1
C4F C 0.6444(6) 1.4641(8) 0.1200(7) 0.350(16) Uiso 0.7789(9) 1 d PGU A 1
H43 H 0.6240 1.4812 0.1293 0.420 Uiso 0.7789(9) 1 calc PR A 1
C5F C 0.6748(8) 1.4732(5) 0.0945(7) 0.314(13) Uiso 0.7789(9) 1 d PGU A 1
H44 H 0.6748 1.4963 0.0867 0.377 Uiso 0.7789(9) 1 calc PR A 1
N2F N 0.5518(8) 1.2953(5) 0.2333(5) 0.278(9) Uiso 0.7789(9) 1 d PGU A 1
C6F C 0.5866(7) 1.2949(5) 0.2109(6) 0.285(11) Uiso 0.7789(9) 1 d PGU A 1
H45 H 0.6037 1.2745 0.2050 0.342 Uiso 0.7789(9) 1 calc PR A 1
C7F C 0.5958(5) 1.3252(8) 0.1974(5) 0.308(14) Uiso 0.7789(9) 1 d PGU A 1
H46 H 0.6191 1.3249 0.1824 0.369 Uiso 0.7789(9) 1 calc PR A 1
C8F C 0.5703(9) 1.3558(6) 0.2061(7) 0.351(14) Uiso 0.7789(9) 1 d PGDU A 1
C9F C 0.5355(7) 1.3561(5) 0.2285(7) 0.345(16) Uiso 0.7789(9) 1 d PGU A 1
H47 H 0.5184 1.3766 0.2343 0.414 Uiso 0.7789(9) 1 calc PR A 1
C10F C 0.5263(5) 1.3259(8) 0.2420(5) 0.314(13) Uiso 0.7789(9) 1 d PGU A 1
H48 H 0.5030 1.3261 0.2570 0.376 Uiso 0.7789(9) 1 calc PR A 1
N3F N 0.6173(10) 1.3837(9) 0.1647(9) 0.353(12) Uiso 0.7789(9) 1 d PDU A 1
N4F N 0.6156(10) 1.4177(12) 0.1575(8) 0.442(16) Uiso 0.7789(9) 1 d PDU A 1
C11F C 0.5827(14) 1.4395(13) 0.1737(12) 0.50(2) Uiso 0.7789(9) 1 d PDU A 1
H491 H 0.5769 1.4631 0.1714 0.596 Uiso 0.7789(9) 1 calc PR A 1
C12F C 0.5598(14) 1.4187(14) 0.1945(12) 0.47(2) Uiso 0.7789(9) 1 d PDU A 1
H492 H 0.5361 1.4246 0.2095 0.563 Uiso 0.7789(9) 1 calc PR A 1
C13F C 0.5829(13) 1.3861(10) 0.1861(10) 0.378(16) Uiso 0.7789(9) 1 d PDU A 1
N1G N 0.5522(8) 1.2335(5) 0.2953(5) 0.272(8) Uiso 0.7789(9) 1 d PGU A 1
C1G C 0.5859(6) 1.2092(6) 0.2970(6) 0.280(11) Uiso 0.7789(9) 1 d PGU A 1
H49 H 0.6033 1.2022 0.2772 0.335 Uiso 0.7789(9) 1 calc PR A 1
C2G C 0.5936(5) 1.1954(5) 0.3282(8) 0.307(13) Uiso 0.7789(9) 1 d PGU A 1
H50 H 0.6161 1.1791 0.3293 0.369 Uiso 0.7789(9) 1 calc PR A 1
C3G C 0.5676(9) 1.2059(7) 0.3578(6) 0.383(16) Uiso 0.7789(9) 1 d PGDU A 1
C4G C 0.5338(7) 1.2302(7) 0.3561(6) 0.329(15) Uiso 0.7789(9) 1 d PGU A 1
H51 H 0.5164 1.2372 0.3758 0.394 Uiso 0.7789(9) 1 calc PR A 1
C5G C 0.5261(5) 1.2440(5) 0.3248(8) 0.313(13) Uiso 0.7789(9) 1 d PGU A 1
H52 H 0.5036 1.2603 0.3237 0.376 Uiso 0.7789(9) 1 calc PR A 1
N2G N 0.7045(5) 1.0805(4) 0.4494(7) 0.265(8) Uiso 0.7789(9) 1 d PGU A 1
C6G C 0.7054(6) 1.0918(6) 0.4145(6) 0.284(11) Uiso 0.7789(9) 1 d PGU A 1
H53 H 0.7260 1.0822 0.3978 0.341 Uiso 0.7789(9) 1 calc PR A 1
C7G C 0.6754(8) 1.1174(6) 0.4047(5) 0.308(13) Uiso 0.7789(9) 1 d PGU A 1
H54 H 0.6760 1.1249 0.3814 0.370 Uiso 0.7789(9) 1 calc PR A 1
C8G C 0.6445(6) 1.1318(5) 0.4297(9) 0.387(16) Uiso 0.7789(9) 1 d PGDU A 1
C9G C 0.6437(5) 1.1205(6) 0.4645(7) 0.330(15) Uiso 0.7789(9) 1 d PGU A 1
H55 H 0.6230 1.1301 0.4813 0.396 Uiso 0.7789(9) 1 calc PR A 1
C10G C 0.6737(8) 1.0949(6) 0.4744(4) 0.292(12) Uiso 0.7789(9) 1 d PGU A 1
H56 H 0.6731 1.0874 0.4977 0.350 Uiso 0.7789(9) 1 calc PR A 1
N3G N 0.6181(10) 1.1641(8) 0.3833(10) 0.357(12) Uiso 0.7789(9) 1 d PDU A 1
N4G N 0.5832(13) 1.1857(8) 0.3849(12) 0.444(16) Uiso 0.7789(9) 1 d PDU A 1
C11G C 0.5594(14) 1.1908(12) 0.4178(16) 0.51(2) Uiso 0.7789(9) 1 d PDU A 1
H493 H 0.5353 1.2048 0.4233 0.608 Uiso 0.7789(9) 1 calc PR A 1
C12G C 0.5798(15) 1.1702(14) 0.4409(14) 0.46(2) Uiso 0.7789(9) 1 d PDU A 1
H494 H 0.5725 1.1664 0.4652 0.557 Uiso 0.7789(9) 1 calc PR A 1
C13G C 0.6145(10) 1.1569(9) 0.4173(13) 0.384(16) Uiso 0.7789(9) 1 d PDU A 1
N1I N 0.5516(8) 0.9193(4) 0.2954(6) 0.279(9) Uiso 0.7789(9) 1 d PGU A 1
C1I C 0.5862(7) 0.9080(6) 0.2950(6) 0.277(11) Uiso 0.7789(9) 1 d PGU A 1
H65 H 0.6032 0.9173 0.2744 0.333 Uiso 0.7789(9) 1 calc PR A 1
C2I C 0.5954(6) 0.8829(7) 0.3255(9) 0.309(14) Uiso 0.7789(9) 1 d PGU A 1
H66 H 0.6186 0.8754 0.3252 0.371 Uiso 0.7789(9) 1 calc PR A 1
C3I C 0.5700(9) 0.8691(5) 0.3563(6) 0.402(16) Uiso 0.7789(9) 1 d PGDU A 1
C4I C 0.5354(8) 0.8804(7) 0.3567(6) 0.339(16) Uiso 0.7789(9) 1 d PGU A 1
H67 H 0.5184 0.8712 0.3773 0.407 Uiso 0.7789(9) 1 calc PR A 1
C5I C 0.5262(5) 0.9055(7) 0.3262(9) 0.326(13) Uiso 0.7789(9) 1 d PGU A 1
H68 H 0.5030 0.9130 0.3265 0.391 Uiso 0.7789(9) 1 calc PR A 1
N2I N 0.7034(6) 0.7659(5) 0.4507(8) 0.278(9) Uiso 0.7789(9) 1 d PGU A 1
C6I C 0.7059(6) 0.7883(6) 0.4154(7) 0.294(12) Uiso 0.7789(9) 1 d PGU A 1
H69 H 0.7270 0.7932 0.3995 0.353 Uiso 0.7789(9) 1 calc PR A 1
C7I C 0.6767(9) 0.8032(5) 0.4041(5) 0.314(14) Uiso 0.7789(9) 1 d PGU A 1
H70 H 0.6784 0.8182 0.3805 0.376 Uiso 0.7789(9) 1 calc PR A 1
C8I C 0.6451(7) 0.7958(7) 0.4279(9) 0.370(15) Uiso 0.7789(9) 1 d PGDU A 1
C9I C 0.6426(6) 0.7734(7) 0.4632(8) 0.336(16) Uiso 0.7789(9) 1 d PGU A 1
H71 H 0.6215 0.7685 0.4792 0.403 Uiso 0.7789(9) 1 calc PR A 1
C10I C 0.6718(9) 0.7585(5) 0.4746(5) 0.314(12) Uiso 0.7789(9) 1 d PGU A 1
H72 H 0.6701 0.7435 0.4981 0.377 Uiso 0.7789(9) 1 calc PR A 1
N3I N 0.6161(10) 0.8345(9) 0.3834(10) 0.360(12) Uiso 0.7789(9) 1 d PDU A 1
N4I N 0.5806(13) 0.8454(8) 0.3866(10) 0.447(16) Uiso 0.7789(9) 1 d PDU A 1
C11I C 0.5576(14) 0.8310(13) 0.4196(15) 0.49(2) Uiso 0.7789(9) 1 d PDU A 1
H497 H 0.5333 0.8356 0.4257 0.588 Uiso 0.7789(9) 1 calc PR A 1
C12I C 0.5786(14) 0.8081(13) 0.4420(14) 0.47(2) Uiso 0.7789(9) 1 d PDU A 1
H498 H 0.5718 0.7946 0.4662 0.569 Uiso 0.7789(9) 1 calc PR A 1
C13I C 0.6135(10) 0.8109(10) 0.4179(13) 0.420(17) Uiso 0.7789(9) 1 d PDU A 1
N1J N 0.5523(8) 0.9197(4) 0.2330(5) 0.277(9) Uiso 0.7789(9) 1 d PGU A 1
C1J C 0.5868(7) 0.9073(6) 0.2104(6) 0.283(11) Uiso 0.7789(9) 1 d PGU A 1
H73 H 0.6042 0.9164 0.2040 0.340 Uiso 0.7789(9) 1 calc PR A 1
C2J C 0.5953(5) 0.8813(6) 0.1973(5) 0.308(14) Uiso 0.7789(9) 1 d PGU A 1
H74 H 0.6184 0.8730 0.1821 0.369 Uiso 0.7789(9) 1 calc PR A 1
C3J C 0.5693(9) 0.8677(5) 0.2068(7) 0.376(16) Uiso 0.7789(9) 1 d PGDU A 1
C4J C 0.5348(7) 0.8801(7) 0.2294(7) 0.330(15) Uiso 0.7789(9) 1 d PGU A 1
H75 H 0.5175 0.8710 0.2357 0.396 Uiso 0.7789(9) 1 calc PR A 1
C5J C 0.5263(5) 0.9061(6) 0.2425(5) 0.299(12) Uiso 0.7789(9) 1 d PGU A 1
H76 H 0.5032 0.9144 0.2576 0.359 Uiso 0.7789(9) 1 calc PR A 1
N2J N 0.7055(5) 0.7659(5) 0.0800(4) 0.265(8) Uiso 0.7789(9) 1 d PGU A 1
C6J C 0.7058(6) 0.7888(6) 0.0914(6) 0.292(12) Uiso 0.7789(9) 1 d PGU A 1
H77 H 0.7260 0.7953 0.0814 0.350 Uiso 0.7789(9) 1 calc PR A 1
C7J C 0.6759(9) 0.8020(5) 0.1178(7) 0.310(13) Uiso 0.7789(9) 1 d PGU A 1
H78 H 0.6762 0.8174 0.1255 0.372 Uiso 0.7789(9) 1 calc PR A 1
C8J C 0.6457(6) 0.7923(7) 0.1328(5) 0.361(15) Uiso 0.7789(9) 1 d PGDU A 1
C9J C 0.6454(6) 0.7694(7) 0.1213(7) 0.331(15) Uiso 0.7789(9) 1 d PGU A 1
H79 H 0.6252 0.7629 0.1313 0.397 Uiso 0.7789(9) 1 calc PR A 1
C10J C 0.6753(8) 0.7562(5) 0.0950(7) 0.303(12) Uiso 0.7789(9) 1 d PGU A 1
H80 H 0.6751 0.7409 0.0873 0.363 Uiso 0.7789(9) 1 calc PR A 1
N3J N 0.6160(10) 0.8347(9) 0.1644(9) 0.354(12) Uiso 0.7789(9) 1 d PDU A 1
N4J N 0.5811(13) 0.8458(8) 0.1866(9) 0.465(17) Uiso 0.7789(9) 1 d PDU A 1
C11J C 0.5610(14) 0.8284(13) 0.1904(12) 0.51(2) Uiso 0.7789(9) 1 d PDU A 1
H499 H 0.5369 0.8321 0.2041 0.612 Uiso 0.7789(9) 1 calc PR A 1
C12J C 0.5818(15) 0.8043(12) 0.1710(13) 0.46(2) Uiso 0.7789(9) 1 d PDU A 1
H500 H 0.5760 0.7889 0.1687 0.549 Uiso 0.7789(9) 1 calc PR A 1
C13J C 0.6146(10) 0.8112(10) 0.1559(9) 0.377(16) Uiso 0.7789(9) 1 d PDU A 1
N1K N 0.7656(5) 0.7045(5) 0.0811(4) 0.264(8) Uiso 0.7789(9) 1 d PGU A 1
C1K C 0.7886(6) 0.7049(5) 0.0923(6) 0.282(11) Uiso 0.7789(9) 1 d PGU A 1
H81 H 0.7940 0.7256 0.0831 0.339 Uiso 0.7789(9) 1 calc PR A 1
C2K C 0.8033(5) 0.6745(8) 0.1173(7) 0.308(14) Uiso 0.7789(9) 1 d PGU A 1
H82 H 0.8187 0.6748 0.1248 0.369 Uiso 0.7789(9) 1 calc PR A 1
C3K C 0.7951(7) 0.6436(6) 0.1310(5) 0.382(16) Uiso 0.7789(9) 1 d PGDU A 1
C4K C 0.7722(7) 0.6431(5) 0.1198(6) 0.328(14) Uiso 0.7789(9) 1 d PGU A 1
H83 H 0.7667 0.6224 0.1290 0.394 Uiso 0.7789(9) 1 calc PR A 1
C5K C 0.7574(5) 0.6735(7) 0.0948(6) 0.296(12) Uiso 0.7789(9) 1 d PGU A 1
H84 H 0.7421 0.6732 0.0873 0.355 Uiso 0.7789(9) 1 calc PR A 1
N2K N 0.9196(5) 0.5498(7) 0.2346(5) 0.271(8) Uiso 0.7789(9) 1 d PGU A 1
C6K C 0.9093(6) 0.5845(6) 0.2113(6) 0.289(11) Uiso 0.7789(9) 1 d PGU A 1
H85 H 0.9191 0.6010 0.2058 0.347 Uiso 0.7789(9) 1 calc PR A 1
C7K C 0.8845(6) 0.5946(5) 0.1960(5) 0.282(12) Uiso 0.7789(9) 1 d PGU A 1
H86 H 0.8776 0.6178 0.1804 0.338 Uiso 0.7789(9) 1 calc PR A 1
C8K C 0.8699(5) 0.5699(8) 0.2042(7) 0.343(14) Uiso 0.7789(9) 1 d PGDU A 1
C9K C 0.8802(6) 0.5352(7) 0.2275(7) 0.309(14) Uiso 0.7789(9) 1 d PGU A 1
H87 H 0.8704 0.5187 0.2330 0.371 Uiso 0.7789(9) 1 calc PR A 1
C10K C 0.9050(6) 0.5252(4) 0.2427(5) 0.290(12) Uiso 0.7789(9) 1 d PGU A 1
H88 H 0.9119 0.5020 0.2584 0.348 Uiso 0.7789(9) 1 calc PR A 1
N3K N 0.8336(8) 0.6156(8) 0.1657(8) 0.322(11) Uiso 0.7789(9) 1 d PDU A 1
N4K N 0.8126(8) 0.6123(9) 0.1541(7) 0.409(15) Uiso 0.7789(9) 1 d PDU A 1
C11K C 0.8099(11) 0.5783(13) 0.1684(12) 0.46(2) Uiso 0.7789(9) 1 d PDU A 1
H501 H 0.7975 0.5712 0.1634 0.552 Uiso 0.7789(9) 1 calc PR A 1
C12K C 0.8301(12) 0.5568(12) 0.1921(12) 0.432(19) Uiso 0.7789(9) 1 d PDU A 1
H502 H 0.8333 0.5329 0.2068 0.518 Uiso 0.7789(9) 1 calc PR A 1
C13K C 0.8444(9) 0.5810(11) 0.1877(10) 0.363(15) Uiso 0.7789(9) 1 d PDU A 1
N1L N 0.9202(5) 0.5516(7) 0.2950(5) 0.274(8) Uiso 0.7789(9) 1 d PGU A 1
C1L C 0.9083(6) 0.5862(6) 0.2952(6) 0.282(11) Uiso 0.7789(9) 1 d PGU A 1
H89 H 0.9178 0.6033 0.2750 0.338 Uiso 0.7789(9) 1 calc PR A 1
C2L C 0.8822(7) 0.5952(5) 0.3255(8) 0.304(13) Uiso 0.7789(9) 1 d PGU A 1
H90 H 0.8742 0.6183 0.3255 0.365 Uiso 0.7789(9) 1 calc PR A 1
C3L C 0.8679(5) 0.5697(9) 0.3556(6) 0.370(15) Uiso 0.7789(9) 1 d PGDU A 1
C4L C 0.8798(7) 0.5351(7) 0.3555(6) 0.347(16) Uiso 0.7789(9) 1 d PGU A 1
H91 H 0.8703 0.5180 0.3757 0.417 Uiso 0.7789(9) 1 calc PR A 1
C5L C 0.9060(7) 0.5261(4) 0.3252(8) 0.313(13) Uiso 0.7789(9) 1 d PGU A 1
H92 H 0.9139 0.5030 0.3251 0.375 Uiso 0.7789(9) 1 calc PR A 1
N2L N 0.7675(5) 0.7053(5) 0.4467(7) 0.256(8) Uiso 0.7789(9) 1 d PGU A 1
C6L C 0.7902(5) 0.7046(5) 0.4122(6) 0.290(12) Uiso 0.7789(9) 1 d PGU A 1
H93 H 0.7969 0.7246 0.3948 0.348 Uiso 0.7789(9) 1 calc PR A 1
C7L C 0.8031(5) 0.6740(8) 0.4039(5) 0.312(15) Uiso 0.7789(9) 1 d PGU A 1
H94 H 0.8183 0.6735 0.3808 0.375 Uiso 0.7789(9) 1 calc PR A 1
C8L C 0.7931(7) 0.6441(6) 0.4299(8) 0.375(15) Uiso 0.7789(9) 1 d PGDU A 1
C9L C 0.7704(7) 0.6449(5) 0.4643(7) 0.343(15) Uiso 0.7789(9) 1 d PGU A 1
H95 H 0.7638 0.6249 0.4817 0.411 Uiso 0.7789(9) 1 calc PR A 1
C10L C 0.7576(5) 0.6755(7) 0.4727(5) 0.298(12) Uiso 0.7789(9) 1 d PGU A 1
H96 H 0.7424 0.6760 0.4957 0.357 Uiso 0.7789(9) 1 calc PR A 1
N3L N 0.8347(8) 0.6164(8) 0.3832(9) 0.333(11) Uiso 0.7789(9) 1 d PDU A 1
N4L N 0.8435(8) 0.5823(12) 0.3845(10) 0.436(15) Uiso 0.7789(9) 1 d PDU A 1
C11L C 0.8296(13) 0.5592(14) 0.4183(14) 0.51(2) Uiso 0.7789(9) 1 d PDU A 1
H503 H 0.8328 0.5354 0.4241 0.608 Uiso 0.7789(9) 1 calc PR A 1
C12L C 0.8097(13) 0.5795(14) 0.4417(14) 0.49(2) Uiso 0.7789(9) 1 d PDU A 1
H504 H 0.7967 0.5726 0.4660 0.585 Uiso 0.7789(9) 1 calc PR A 1
C13L C 0.8149(9) 0.6133(10) 0.4181(12) 0.376(16) Uiso 0.7789(9) 1 d PDU A 1
N1N N 1.2339(5) 0.5510(7) 0.2949(5) 0.260(8) Uiso 0.7789(9) 1 d PGU A 1
C1N C 1.2109(6) 0.5857(6) 0.2942(5) 0.275(11) Uiso 0.7789(9) 1 d PGU A 1
H105 H 1.2049 0.6024 0.2737 0.330 Uiso 0.7789(9) 1 calc PR A 1
C2N C 1.1969(5) 0.5956(5) 0.3242(8) 0.306(14) Uiso 0.7789(9) 1 d PGU A 1
H106 H 1.1815 0.6188 0.3237 0.368 Uiso 0.7789(9) 1 calc PR A 1
C3N C 1.2058(7) 0.5707(8) 0.3548(6) 0.366(15) Uiso 0.7789(9) 1 d PGDU A 1
C4N C 1.2288(7) 0.5359(7) 0.3555(5) 0.343(15) Uiso 0.7789(9) 1 d PGU A 1
H107 H 1.2348 0.5193 0.3760 0.411 Uiso 0.7789(9) 1 calc PR A 1
C5N C 1.2428(5) 0.5261(4) 0.3256(7) 0.298(12) Uiso 0.7789(9) 1 d PGU A 1
H108 H 1.2582 0.5029 0.3260 0.358 Uiso 0.7789(9) 1 calc PR A 1
N2N N 1.0810(4) 0.7049(5) 0.4482(7) 0.256(8) Uiso 0.7789(9) 1 d PGU A 1
C6N C 1.0926(6) 0.7052(5) 0.4135(6) 0.287(11) Uiso 0.7789(9) 1 d PGU A 1
H109 H 1.0830 0.7255 0.3966 0.344 Uiso 0.7789(9) 1 calc PR A 1
C7N C 1.1186(6) 0.6750(8) 0.4041(5) 0.299(13) Uiso 0.7789(9) 1 d PGU A 1
H110 H 1.1264 0.6752 0.3809 0.359 Uiso 0.7789(9) 1 calc PR A 1
C8N C 1.1330(5) 0.6446(5) 0.4294(8) 0.348(15) Uiso 0.7789(9) 1 d PGDU A 1
C9N C 1.1214(6) 0.6444(5) 0.4641(7) 0.333(14) Uiso 0.7789(9) 1 d PGU A 1
H111 H 1.1310 0.6240 0.4810 0.399 Uiso 0.7789(9) 1 calc PR A 1
C10N C 1.0954(6) 0.6745(7) 0.4734(4) 0.290(12) Uiso 0.7789(9) 1 d PGU A 1
H112 H 1.0877 0.6744 0.4966 0.348 Uiso 0.7789(9) 1 calc PR A 1
N3N N 1.1636(8) 0.6138(8) 0.3857(9) 0.330(11) Uiso 0.7789(9) 1 d PDU A 1
N4N N 1.1857(8) 0.5788(11) 0.3868(8) 0.375(13) Uiso 0.7789(9) 1 d PDU A 1
C11N C 1.1909(10) 0.5572(12) 0.4198(12) 0.422(18) Uiso 0.7789(9) 1 d PDU A 1
H507 H 1.2047 0.5330 0.4262 0.507 Uiso 0.7789(9) 1 calc PR A 1
C12N C 1.1715(12) 0.5788(12) 0.4416(12) 0.423(18) Uiso 0.7789(9) 1 d PDU A 1
H508 H 1.1697 0.5725 0.4651 0.508 Uiso 0.7789(9) 1 calc PR A 1
C13N C 1.1549(9) 0.6131(9) 0.4191(11) 0.353(15) Uiso 0.7789(9) 1 d PDU A 1
N1O N 1.2944(6) 0.5517(7) 0.2340(5) 0.269(8) Uiso 0.7789(9) 1 d PGU A 1
C1O C 1.2937(6) 0.5866(6) 0.2113(6) 0.283(11) Uiso 0.7789(9) 1 d PGU A 1
H113 H 1.2729 0.6035 0.2060 0.340 Uiso 0.7789(9) 1 calc PR A 1
C2O C 1.3240(8) 0.5961(5) 0.1966(5) 0.299(13) Uiso 0.7789(9) 1 d PGU A 1
H114 H 1.3235 0.6193 0.1815 0.359 Uiso 0.7789(9) 1 calc PR A 1
C3O C 1.3550(6) 0.5707(9) 0.2046(7) 0.367(15) Uiso 0.7789(9) 1 d PGDU A 1
C4O C 1.3557(6) 0.5359(7) 0.2272(7) 0.325(15) Uiso 0.7789(9) 1 d PGU A 1
H115 H 1.3765 0.5190 0.2326 0.390 Uiso 0.7789(9) 1 calc PR A 1
C5O C 1.3255(8) 0.5264(4) 0.2419(5) 0.306(12) Uiso 0.7789(9) 1 d PGU A 1
H116 H 1.3259 0.5031 0.2571 0.367 Uiso 0.7789(9) 1 calc PR A 1
N2O N 1.4499(8) 0.7043(5) 0.0803(4) 0.277(9) Uiso 0.7789(9) 1 d PGU A 1
C6O C 1.4149(7) 0.7056(5) 0.0916(6) 0.271(11) Uiso 0.7789(9) 1 d PGU A 1
H117 H 1.3983 0.7264 0.0820 0.325 Uiso 0.7789(9) 1 calc PR A 1
C7O C 1.4048(5) 0.6757(8) 0.1172(6) 0.292(13) Uiso 0.7789(9) 1 d PGU A 1
H118 H 1.3814 0.6765 0.1247 0.351 Uiso 0.7789(9) 1 calc PR A 1
C8O C 1.4297(9) 0.6445(6) 0.1314(5) 0.352(14) Uiso 0.7789(9) 1 d PGDU A 1
C9O C 1.4647(7) 0.6433(5) 0.1201(7) 0.329(15) Uiso 0.7789(9) 1 d PGU A 1
H119 H 1.4813 0.6224 0.1296 0.395 Uiso 0.7789(9) 1 calc PR A 1
C10O C 1.4748(5) 0.6731(8) 0.0945(7) 0.312(13) Uiso 0.7789(9) 1 d PGU A 1
H120 H 1.4982 0.6723 0.0869 0.375 Uiso 0.7789(9) 1 calc PR A 1
N3O N 1.3836(9) 0.6149(9) 0.1649(8) 0.329(11) Uiso 0.7789(9) 1 d PDU A 1
N4O N 1.3862(9) 0.5793(12) 0.1878(8) 0.413(15) Uiso 0.7789(9) 1 d PDU A 1
C11O C 1.4191(13) 0.5578(12) 0.1933(11) 0.441(19) Uiso 0.7789(9) 1 d PDU A 1
H509 H 1.4260 0.5337 0.2072 0.529 Uiso 0.7789(9) 1 calc PR A 1
C12O C 1.4394(14) 0.5807(14) 0.1730(13) 0.49(2) Uiso 0.7789(9) 1 d PDU A 1
H510 H 1.4625 0.5755 0.1716 0.588 Uiso 0.7789(9) 1 calc PR A 1
C13O C 1.4173(13) 0.6141(10) 0.1549(9) 0.371(16) Uiso 0.7789(9) 1 d PDU A 1
N1P N 1.4483(8) 0.7652(5) 0.0813(4) 0.274(8) Uiso 0.7789(9) 1 d PGU A 1
C1P C 1.4139(7) 0.7889(6) 0.0918(6) 0.284(11) Uiso 0.7789(9) 1 d PGU A 1
H121 H 1.3970 0.7945 0.0824 0.341 Uiso 0.7789(9) 1 calc PR A 1
C2P C 1.4046(5) 0.8041(5) 0.1164(7) 0.311(14) Uiso 0.7789(9) 1 d PGU A 1
H122 H 1.3816 0.8199 0.1235 0.373 Uiso 0.7789(9) 1 calc PR A 1
C3P C 1.4298(9) 0.7957(7) 0.1305(5) 0.376(15) Uiso 0.7789(9) 1 d PGDU A 1
C4P C 1.4642(8) 0.7720(7) 0.1200(7) 0.330(15) Uiso 0.7789(9) 1 d PGU A 1
H123 H 1.4811 0.7664 0.1294 0.397 Uiso 0.7789(9) 1 calc PR A 1
C5P C 1.4735(5) 0.7568(5) 0.0954(7) 0.313(13) Uiso 0.7789(9) 1 d PGU A 1
H124 H 1.4965 0.7409 0.0884 0.376 Uiso 0.7789(9) 1 calc PR A 1
N2P N 1.2949(5) 0.9202(4) 0.2336(5) 0.266(8) Uiso 0.7789(9) 1 d PGU A 1
C6P C 1.2945(6) 0.9097(6) 0.2100(6) 0.289(11) Uiso 0.7789(9) 1 d PGU A 1
H125 H 1.2741 0.9195 0.2040 0.347 Uiso 0.7789(9) 1 calc PR A 1
C7P C 1.3249(8) 0.8846(7) 0.1953(5) 0.306(14) Uiso 0.7789(9) 1 d PGU A 1
H126 H 1.3247 0.8776 0.1795 0.368 Uiso 0.7789(9) 1 calc PR A 1
C8P C 1.3555(6) 0.8700(5) 0.2042(7) 0.373(15) Uiso 0.7789(9) 1 d PGDU A 1
C9P C 1.3558(5) 0.8805(6) 0.2279(7) 0.316(15) Uiso 0.7789(9) 1 d PGU A 1
H127 H 1.3763 0.8707 0.2339 0.379 Uiso 0.7789(9) 1 calc PR A 1
C10P C 1.3255(8) 0.9056(6) 0.2426(5) 0.296(12) Uiso 0.7789(9) 1 d PGU A 1
H128 H 1.3257 0.9126 0.2584 0.355 Uiso 0.7789(9) 1 calc PR A 1
N3P N 1.3856(11) 0.8351(9) 0.1635(10) 0.357(12) Uiso 0.7789(9) 1 d PDU A 1
N4P N 1.4216(13) 0.8149(8) 0.1511(8) 0.413(15) Uiso 0.7789(9) 1 d PDU A 1
C11P C 1.4433(14) 0.8098(11) 0.1676(14) 0.47(2) Uiso 0.7789(9) 1 d PDU A 1
H511 H 1.4678 0.7976 0.1627 0.566 Uiso 0.7789(9) 1 calc PR A 1
C12P C 1.4200(15) 0.8272(13) 0.1934(14) 0.47(2) Uiso 0.7789(9) 1 d PDU A 1
H512 H 1.4255 0.8278 0.2101 0.570 Uiso 0.7789(9) 1 calc PR A 1
C13P C 1.3858(10) 0.8439(9) 0.1881(10) 0.393(17) Uiso 0.7789(9) 1 d PDU A 1
N1Q N 1.2334(6) 0.9193(4) 0.2944(5) 0.278(9) Uiso 0.7789(9) 1 d PGU A 1
C1Q C 1.2104(6) 0.9074(6) 0.2950(6) 0.295(12) Uiso 0.7789(9) 1 d PGU A 1
H129 H 1.2046 0.9161 0.2746 0.354 Uiso 0.7789(9) 1 calc PR A 1
C2Q C 1.1961(5) 0.8824(7) 0.3260(8) 0.311(14) Uiso 0.7789(9) 1 d PGU A 1
H130 H 1.1807 0.8745 0.3263 0.373 Uiso 0.7789(9) 1 calc PR A 1
C3Q C 1.2048(7) 0.8694(6) 0.3564(6) 0.381(16) Uiso 0.7789(9) 1 d PGDU A 1
C4Q C 1.2279(7) 0.8813(7) 0.3559(6) 0.332(15) Uiso 0.7789(9) 1 d PGU A 1
H131 H 1.2337 0.8725 0.3763 0.398 Uiso 0.7789(9) 1 calc PR A 1
C5Q C 1.2422(5) 0.9062(6) 0.3249(8) 0.316(13) Uiso 0.7789(9) 1 d PGU A 1
H132 H 1.2576 0.9142 0.3245 0.379 Uiso 0.7789(9) 1 calc PR A 1
N2Q N 1.0805(4) 0.7663(5) 0.4480(8) 0.270(8) Uiso 0.7789(9) 1 d PGU A 1
C6Q C 1.0927(6) 0.7889(6) 0.4133(6) 0.299(12) Uiso 0.7789(9) 1 d PGU A 1
H133 H 1.0834 0.7952 0.3961 0.359 Uiso 0.7789(9) 1 calc PR A 1
C7Q C 1.1188(7) 0.8020(5) 0.4045(5) 0.308(13) Uiso 0.7789(9) 1 d PGU A 1
H134 H 1.1270 0.8171 0.3813 0.369 Uiso 0.7789(9) 1 calc PR A 1
C8Q C 1.1327(5) 0.7926(7) 0.4302(9) 0.363(15) Uiso 0.7789(9) 1 d PGDU A 1
C9Q C 1.1205(7) 0.7700(7) 0.4648(8) 0.350(15) Uiso 0.7789(9) 1 d PGU A 1
H135 H 1.1298 0.7637 0.4821 0.420 Uiso 0.7789(9) 1 calc PR A 1
C10Q C 1.0944(7) 0.7568(5) 0.4737(5) 0.300(12) Uiso 0.7789(9) 1 d PGU A 1
H136 H 1.0862 0.7417 0.4968 0.360 Uiso 0.7789(9) 1 calc PR A 1
N3Q N 1.1662(8) 0.8335(9) 0.3838(9) 0.340(11) Uiso 0.7789(9) 1 d PDU A 1
N4Q N 1.1859(8) 0.8473(7) 0.3861(10) 0.414(15) Uiso 0.7789(9) 1 d PDU A 1
C11Q C 1.1891(11) 0.8345(12) 0.4197(14) 0.44(2) Uiso 0.7789(9) 1 d PDU A 1
H513 H 1.2009 0.8408 0.4262 0.533 Uiso 0.7789(9) 1 calc PR A 1
C12Q C 1.1704(12) 0.8097(11) 0.4413(12) 0.417(18) Uiso 0.7789(9) 1 d PDU A 1
H514 H 1.1674 0.7957 0.4654 0.501 Uiso 0.7789(9) 1 calc PR A 1
C13Q C 1.1570(9) 0.8108(9) 0.4181(12) 0.359(15) Uiso 0.7789(9) 1 d PDU A 1
N1A N 0.7308(8) 1.0023(6) 0.4796(10) 0.241(13) Uiso 0.5578(19) 1 d PGU A 2
C1A C 0.7417(7) 0.9837(9) 0.4574(6) 0.274(16) Uiso 0.5578(19) 1 d PGU A 2
H1 H 0.7562 0.9906 0.4337 0.328 Uiso 0.5578(19) 1 calc PR A 2
C2A C 0.7307(9) 0.9546(8) 0.4708(10) 0.276(15) Uiso 0.5578(19) 1 d PGU A 2
H2 H 0.7380 0.9421 0.4560 0.331 Uiso 0.5578(19) 1 calc PR A 2
C3A C 0.7089(9) 0.9441(7) 0.5063(11) 0.333(18) Uiso 0.5578(19) 1 d PGDU A 2
C4A C 0.6981(8) 0.9628(10) 0.5285(6) 0.33(2) Uiso 0.5578(19) 1 d PGU A 2
H3 H 0.6835 0.9559 0.5523 0.394 Uiso 0.5578(19) 1 calc PR A 2
C5A C 0.7090(9) 0.9919(8) 0.5151(9) 0.256(16) Uiso 0.5578(19) 1 d PGU A 2
H4 H 0.7017 1.0044 0.5300 0.307 Uiso 0.5578(19) 1 calc PR A 2
N2A N 0.7309(9) 0.7843(7) 0.4827(12) 0.282(17) Uiso 0.5578(19) 1 d PGU A 2
C6A C 0.7430(7) 0.8133(11) 0.4588(7) 0.266(16) Uiso 0.5578(19) 1 d PGU A 2
H5 H 0.7581 0.8138 0.4355 0.319 Uiso 0.5578(19) 1 calc PR A 2
C7A C 0.7326(9) 0.8416(7) 0.4697(10) 0.275(15) Uiso 0.5578(19) 1 d PGU A 2
H6 H 0.7407 0.8610 0.4537 0.329 Uiso 0.5578(19) 1 calc PR A 2
C8A C 0.7100(10) 0.8409(9) 0.5045(12) 0.337(18) Uiso 0.5578(19) 1 d PGDU A 2
C9A C 0.6979(8) 0.8119(12) 0.5285(7) 0.33(2) Uiso 0.5578(19) 1 d PGU A 2
H7 H 0.6827 0.8115 0.5518 0.398 Uiso 0.5578(19) 1 calc PR A 2
C10A C 0.7083(9) 0.7836(8) 0.5175(10) 0.30(2) Uiso 0.5578(19) 1 d PGU A 2
H8 H 0.7002 0.7642 0.5336 0.356 Uiso 0.5578(19) 1 calc PR A 2
N3A N 0.7077(10) 0.8998(12) 0.4955(10) 0.335(15) Uiso 0.5578(19) 1 d PDU A 2
N4A N 0.6930(12) 0.9184(10) 0.5186(14) 0.367(17) Uiso 0.5578(19) 1 d PDU A 2
C11A C 0.6742(12) 0.8996(14) 0.5513(13) 0.37(2) Uiso 0.5578(19) 1 d PDU A 2
H481 H 0.6619 0.9072 0.5710 0.439 Uiso 0.5578(19) 1 calc PR A 2
C12A C 0.6750(14) 0.8680(14) 0.5526(14) 0.37(2) Uiso 0.5578(19) 1 d PDU A 2
H482 H 0.6649 0.8507 0.5712 0.443 Uiso 0.5578(19) 1 calc PR A 2
C13A C 0.6962(14) 0.8712(10) 0.5162(15) 0.358(19) Uiso 0.5578(19) 1 d PDU A 2
N1B N 0.7859(8) 0.7309(8) 0.4823(12) 0.271(15) Uiso 0.5578(19) 1 d PGU A 2
C1B C 0.8150(12) 0.7425(6) 0.4577(7) 0.282(17) Uiso 0.5578(19) 1 d PGU A 2
H9 H 0.8155 0.7572 0.4343 0.339 Uiso 0.5578(19) 1 calc PR A 2
C2B C 0.8436(8) 0.7324(9) 0.4681(11) 0.313(17) Uiso 0.5578(19) 1 d PGU A 2
H10 H 0.8631 0.7402 0.4517 0.376 Uiso 0.5578(19) 1 calc PR A 2
C3B C 0.8429(9) 0.7105(9) 0.5031(13) 0.326(17) Uiso 0.5578(19) 1 d PGDU A 2
C4B C 0.8138(13) 0.6989(7) 0.5277(7) 0.315(18) Uiso 0.5578(19) 1 d PGU A 2
H11 H 0.8133 0.6843 0.5511 0.378 Uiso 0.5578(19) 1 calc PR A 2
C5B C 0.7852(8) 0.7091(9) 0.5173(10) 0.280(18) Uiso 0.5578(19) 1 d PGU A 2
H12 H 0.7657 0.7013 0.5337 0.336 Uiso 0.5578(19) 1 calc PR A 2
N2B N 1.0032(7) 0.7306(9) 0.4807(13) 0.274(17) Uiso 0.5578(19) 1 d PGU A 2
C6B C 0.9863(10) 0.7435(7) 0.4563(7) 0.305(19) Uiso 0.5578(19) 1 d PGU A 2
H13 H 0.9949 0.7580 0.4329 0.365 Uiso 0.5578(19) 1 calc PR A 2
C7B C 0.9566(10) 0.7346(9) 0.4668(11) 0.298(16) Uiso 0.5578(19) 1 d PGU A 2
H14 H 0.9453 0.7432 0.4505 0.358 Uiso 0.5578(19) 1 calc PR A 2
C8B C 0.9438(7) 0.7129(10) 0.5018(13) 0.325(17) Uiso 0.5578(19) 1 d PGDU A 2
C9B C 0.9607(11) 0.7000(8) 0.5262(7) 0.33(2) Uiso 0.5578(19) 1 d PGU A 2
H15 H 0.9522 0.6855 0.5496 0.398 Uiso 0.5578(19) 1 calc PR A 2
C10B C 0.9904(11) 0.7089(9) 0.5157(11) 0.29(2) Uiso 0.5578(19) 1 d PGU A 2
H16 H 1.0017 0.7002 0.5320 0.348 Uiso 0.5578(19) 1 calc PR A 2
N3B N 0.8993(17) 0.7056(11) 0.4971(12) 0.380(18) Uiso 0.5578(19) 1 d PDU A 2
N4B N 0.8714(12) 0.6924(13) 0.5173(17) 0.387(17) Uiso 0.5578(19) 1 d PDU A 2
C11B C 0.8720(16) 0.6726(13) 0.5522(15) 0.39(2) Uiso 0.5578(19) 1 d PDU A 2
H485 H 0.8561 0.6607 0.5710 0.474 Uiso 0.5578(19) 1 calc PR A 2
C12B C 0.9011(17) 0.6742(13) 0.5535(14) 0.37(2) Uiso 0.5578(19) 1 d PDU A 2
H486 H 0.9081 0.6638 0.5734 0.449 Uiso 0.5578(19) 1 calc PR A 2
C13B C 0.9177(13) 0.6947(15) 0.5183(17) 0.36(2) Uiso 0.5578(19) 1 d PDU A 2
N1C N 1.0017(7) 0.7860(8) 0.4785(10) 0.272(16) Uiso 0.5578(19) 1 d PGU A 2
C1C C 0.9821(10) 0.8156(10) 0.4571(6) 0.296(18) Uiso 0.5578(19) 1 d PGU A 2
H17 H 0.9875 0.8172 0.4340 0.355 Uiso 0.5578(19) 1 calc PR A 2
C2C C 0.9543(9) 0.8430(7) 0.4704(10) 0.296(17) Uiso 0.5578(19) 1 d PGU A 2
H18 H 0.9411 0.8628 0.4561 0.355 Uiso 0.5578(19) 1 calc PR A 2
C3C C 0.9462(7) 0.8406(8) 0.5050(11) 0.346(18) Uiso 0.5578(19) 1 d PGDU A 2
C4C C 0.9659(9) 0.8109(11) 0.5264(6) 0.294(17) Uiso 0.5578(19) 1 d PGU A 2
H19 H 0.9605 0.8094 0.5496 0.353 Uiso 0.5578(19) 1 calc PR A 2
C5C C 0.9936(8) 0.7836(7) 0.5132(9) 0.266(17) Uiso 0.5578(19) 1 d PGU A 2
H20 H 1.0068 0.7638 0.5275 0.320 Uiso 0.5578(19) 1 calc PR A 2
N2C N 0.7866(7) 1.0022(7) 0.4786(10) 0.268(15) Uiso 0.5578(19) 1 d PGU A 2
C6C C 0.8155(11) 0.9831(10) 0.4563(6) 0.308(19) Uiso 0.5578(19) 1 d PGU A 2
H21 H 0.8161 0.9890 0.4334 0.370 Uiso 0.5578(19) 1 calc PR A 2
C7C C 0.8436(8) 0.9552(9) 0.4683(10) 0.306(17) Uiso 0.5578(19) 1 d PGU A 2
H22 H 0.8629 0.9424 0.4534 0.368 Uiso 0.5578(19) 1 calc PR A 2
C8C C 0.8427(8) 0.9464(7) 0.5026(11) 0.302(16) Uiso 0.5578(19) 1 d PGDU A 2
C9C C 0.8137(11) 0.9655(9) 0.5249(6) 0.290(17) Uiso 0.5578(19) 1 d PGU A 2
H23 H 0.8131 0.9596 0.5478 0.347 Uiso 0.5578(19) 1 calc PR A 2
C10C C 0.7857(7) 0.9934(8) 0.5129(8) 0.244(16) Uiso 0.5578(19) 1 d PGU A 2
H24 H 0.7663 1.0062 0.5278 0.293 Uiso 0.5578(19) 1 calc PR A 2
N3C N 0.8971(16) 0.8997(15) 0.4943(12) 0.379(17) Uiso 0.5578(19) 1 d PDU A 2
N4C N 0.9187(10) 0.8716(10) 0.5143(17) 0.410(18) Uiso 0.5578(19) 1 d PDU A 2
C11C C 0.9043(18) 0.8719(16) 0.5492(16) 0.41(2) Uiso 0.5578(19) 1 d PDU A 2
H487 H 0.9144 0.8552 0.5672 0.497 Uiso 0.5578(19) 1 calc PR A 2
C12C C 0.8727(18) 0.9008(17) 0.5531(14) 0.40(2) Uiso 0.5578(19) 1 d PDU A 2
H488 H 0.8576 0.9082 0.5730 0.477 Uiso 0.5578(19) 1 calc PR A 2
C13C C 0.8698(12) 0.9163(10) 0.5181(16) 0.343(18) Uiso 0.5578(19) 1 d PDU A 2
N1H N 0.5174(13) 1.2150(8) 0.2701(10) 0.276(17) Uiso 0.5578(19) 1 d PGU A 2
C1H C 0.5419(8) 1.1869(12) 0.2567(7) 0.301(19) Uiso 0.5578(19) 1 d PGU A 2
H57 H 0.5647 1.1876 0.2409 0.361 Uiso 0.5578(19) 1 calc PR A 2
C2H C 0.5322(11) 1.1578(8) 0.2669(10) 0.290(16) Uiso 0.5578(19) 1 d PGU A 2
H58 H 0.5486 1.1390 0.2580 0.348 Uiso 0.5578(19) 1 calc PR A 2
C3H C 0.4981(13) 1.1568(9) 0.2905(10) 0.321(17) Uiso 0.5578(19) 1 d PGDU A 2
C4H C 0.4736(8) 1.1849(13) 0.3039(8) 0.34(2) Uiso 0.5578(19) 1 d PGU A 2
H59 H 0.4508 1.1842 0.3197 0.402 Uiso 0.5578(19) 1 calc PR A 2
C5H C 0.4833(11) 1.2140(9) 0.2937(10) 0.30(2) Uiso 0.5578(19) 1 d PGU A 2
H60 H 0.4669 1.2328 0.3027 0.361 Uiso 0.5578(19) 1 calc PR A 2
N2H N 0.5181(12) 0.9984(6) 0.2679(9) 0.287(15) Uiso 0.5578(19) 1 d PGU A 2
C6H C 0.5420(7) 1.0158(9) 0.2551(7) 0.291(17) Uiso 0.5578(19) 1 d PGU A 2
H61 H 0.5652 1.0082 0.2398 0.349 Uiso 0.5578(19) 1 calc PR A 2
C7H C 0.5313(10) 1.0447(8) 0.2653(9) 0.298(16) Uiso 0.5578(19) 1 d PGU A 2
H62 H 0.5473 1.0564 0.2567 0.357 Uiso 0.5578(19) 1 calc PR A 2
C8H C 0.4967(12) 1.0562(6) 0.2882(9) 0.328(17) Uiso 0.5578(19) 1 d PGDU A 2
C9H C 0.4728(7) 1.0387(10) 0.3010(8) 0.337(19) Uiso 0.5578(19) 1 d PGU A 2
H63 H 0.4497 1.0464 0.3164 0.405 Uiso 0.5578(19) 1 calc PR A 2
C10H C 0.4835(10) 1.0098(9) 0.2908(9) 0.289(18) Uiso 0.5578(19) 1 d PGU A 2
H64 H 0.4675 0.9982 0.2994 0.347 Uiso 0.5578(19) 1 calc PR A 2
N3H N 0.5031(14) 1.1008(17) 0.2946(12) 0.42(2) Uiso 0.5578(19) 1 d PDU A 2
N4H N 0.4833(17) 1.1290(12) 0.3081(13) 0.404(18) Uiso 0.5578(19) 1 d PDU A 2
C11H C 0.4489(15) 1.1289(16) 0.3290(13) 0.38(2) Uiso 0.5578(19) 1 d PDU A 2
H495 H 0.4304 1.1449 0.3409 0.455 Uiso 0.5578(19) 1 calc PR A 2
C12H C 0.4482(15) 1.0993(18) 0.3281(15) 0.42(2) Uiso 0.5578(19) 1 d PDU A 2
H496 H 0.4282 1.0919 0.3401 0.502 Uiso 0.5578(19) 1 calc PR A 2
C13H C 0.4818(19) 1.0818(12) 0.3065(15) 0.362(19) Uiso 0.5578(19) 1 d PDU A 2
N1M N 0.9983(7) 0.5153(11) 0.2714(8) 0.269(16) Uiso 0.5578(19) 1 d PGU A 2
C1M C 1.0150(9) 0.5404(7) 0.2565(7) 0.31(2) Uiso 0.5578(19) 1 d PGU A 2
H97 H 1.0066 0.5630 0.2408 0.374 Uiso 0.5578(19) 1 calc PR A 2
C2M C 1.0443(9) 0.5317(10) 0.2650(9) 0.317(18) Uiso 0.5578(19) 1 d PGU A 2
H98 H 1.0555 0.5484 0.2550 0.380 Uiso 0.5578(19) 1 calc PR A 2
C3M C 1.0568(8) 0.4979(12) 0.2885(11) 0.348(19) Uiso 0.5578(19) 1 d PGDU A 2
C4M C 1.0401(11) 0.4728(7) 0.3035(8) 0.321(19) Uiso 0.5578(19) 1 d PGU A 2
H99 H 1.0484 0.4502 0.3192 0.385 Uiso 0.5578(19) 1 calc PR A 2
C5M C 1.0108(10) 0.4815(9) 0.2949(8) 0.282(19) Uiso 0.5578(19) 1 d PGU A 2
H100 H 0.9996 0.4647 0.3049 0.339 Uiso 0.5578(19) 1 calc PR A 2
N2M N 1.2144(8) 0.5192(12) 0.2704(9) 0.261(15) Uiso 0.5578(19) 1 d PGU A 2
C6M C 1.1855(12) 0.5412(7) 0.2579(7) 0.287(18) Uiso 0.5578(19) 1 d PGU A 2
H101 H 1.1840 0.5647 0.2427 0.344 Uiso 0.5578(19) 1 calc PR A 2
C7M C 1.1589(8) 0.5281(11) 0.2682(9) 0.285(16) Uiso 0.5578(19) 1 d PGU A 2
H102 H 1.1395 0.5428 0.2599 0.342 Uiso 0.5578(19) 1 calc PR A 2
C8M C 1.1612(9) 0.4930(12) 0.2910(10) 0.335(18) Uiso 0.5578(19) 1 d PGDU A 2
C9M C 1.1901(12) 0.4710(7) 0.3035(8) 0.33(2) Uiso 0.5578(19) 1 d PGU A 2
H103 H 1.1916 0.4475 0.3188 0.395 Uiso 0.5578(19) 1 calc PR A 2
C10M C 1.2167(8) 0.4841(10) 0.2932(9) 0.277(18) Uiso 0.5578(19) 1 d PGU A 2
H104 H 1.2361 0.4694 0.3016 0.333 Uiso 0.5578(19) 1 calc PR A 2
N3M N 1.1021(16) 0.5064(11) 0.2901(11) 0.372(17) Uiso 0.5578(19) 1 d PDU A 2
N4M N 1.0834(11) 0.4840(16) 0.3042(13) 0.394(18) Uiso 0.5578(19) 1 d PDU A 2
C11M C 1.0979(17) 0.4498(13) 0.3260(13) 0.42(2) Uiso 0.5578(19) 1 d PDU A 2
H505 H 1.0890 0.4309 0.3378 0.499 Uiso 0.5578(19) 1 calc PR A 2
C12M C 1.1282(15) 0.4493(15) 0.3266(15) 0.40(2) Uiso 0.5578(19) 1 d PDU A 2
H506 H 1.1438 0.4309 0.3390 0.485 Uiso 0.5578(19) 1 calc PR A 2
C13M C 1.1292(11) 0.4846(17) 0.3031(15) 0.367(19) Uiso 0.5578(19) 1 d PDU A 2
N1R N 1.2132(9) 0.9977(7) 0.2701(9) 0.276(17) Uiso 0.5578(19) 1 d PGU A 2
C1R C 1.1847(13) 1.0159(11) 0.2572(7) 0.31(2) Uiso 0.5578(19) 1 d PGU A 2
H137 H 1.1843 1.0086 0.2417 0.374 Uiso 0.5578(19) 1 calc PR A 2
C2R C 1.1568(9) 1.0449(10) 0.2674(10) 0.315(18) Uiso 0.5578(19) 1 d PGU A 2
H138 H 1.1377 1.0571 0.2587 0.378 Uiso 0.5578(19) 1 calc PR A 2
C3R C 1.1574(9) 1.0558(7) 0.2905(10) 0.327(17) Uiso 0.5578(19) 1 d PGDU A 2
C4R C 1.1859(12) 1.0376(11) 0.3035(8) 0.307(17) Uiso 0.5578(19) 1 d PGU A 2
H139 H 1.1864 1.0449 0.3190 0.368 Uiso 0.5578(19) 1 calc PR A 2
C5R C 1.2138(8) 1.0086(10) 0.2932(9) 0.258(17) Uiso 0.5578(19) 1 d PGU A 2
H140 H 1.2329 0.9965 0.3019 0.309 Uiso 0.5578(19) 1 calc PR A 2
N2R N 0.9975(7) 1.2138(8) 0.2690(10) 0.283(18) Uiso 0.5578(19) 1 d PGU A 2
C6R C 1.0166(11) 1.1856(12) 0.2555(7) 0.291(18) Uiso 0.5578(19) 1 d PGU A 2
H141 H 1.0101 1.1853 0.2393 0.349 Uiso 0.5578(19) 1 calc PR A 2
C7R C 1.0455(10) 1.1578(8) 0.2661(10) 0.300(17) Uiso 0.5578(19) 1 d PGU A 2
H142 H 1.0582 1.1389 0.2571 0.360 Uiso 0.5578(19) 1 calc PR A 2
C8R C 1.0552(8) 1.1582(9) 0.2902(10) 0.309(17) Uiso 0.5578(19) 1 d PGDU A 2
C9R C 1.0362(12) 1.1864(12) 0.3037(8) 0.32(2) Uiso 0.5578(19) 1 d PGU A 2
H143 H 1.0427 1.1867 0.3198 0.382 Uiso 0.5578(19) 1 calc PR A 2
C10R C 1.0073(10) 1.2142(8) 0.2931(10) 0.29(2) Uiso 0.5578(19) 1 d PGU A 2
H144 H 0.9945 1.2331 0.3021 0.342 Uiso 0.5578(19) 1 calc PR A 2
N3R N 1.1010(13) 1.1036(13) 0.2893(10) 0.327(15) Uiso 0.5578(19) 1 d PDU A 2
N4R N 1.1266(9) 1.0815(10) 0.3053(12) 0.376(17) Uiso 0.5578(19) 1 d PDU A 2
C11R C 1.1252(15) 1.0974(17) 0.3252(14) 0.40(2) Uiso 0.5578(19) 1 d PDU A 2
H515 H 1.1408 1.0866 0.3380 0.485 Uiso 0.5578(19) 1 calc PR A 2
C12R C 1.0987(16) 1.1308(16) 0.3248(14) 0.40(2) Uiso 0.5578(19) 1 d PDU A 2
H516 H 1.0914 1.1467 0.3361 0.474 Uiso 0.5578(19) 1 calc PR A 2
C13R C 1.0866(10) 1.1317(11) 0.3007(13) 0.335(18) Uiso 0.5578(19) 1 d PDU A 2
N1S N 0.9992(7) 1.2709(8) 0.2134(8) 0.274(17) Uiso 0.5578(19) 1 d PGU A 2
C1S C 1.0170(10) 1.2575(6) 0.1852(11) 0.30(2) Uiso 0.5578(19) 1 d PGU A 2
H145 H 1.0095 1.2419 0.1853 0.361 Uiso 0.5578(19) 1 calc PR A 2
C2S C 1.0461(9) 1.2674(9) 0.1569(8) 0.296(17) Uiso 0.5578(19) 1 d PGU A 2
H146 H 1.0580 1.2584 0.1380 0.355 Uiso 0.5578(19) 1 calc PR A 2
C3S C 1.0573(8) 1.2907(10) 0.1567(9) 0.355(19) Uiso 0.5578(19) 1 d PGDU A 2
C4S C 1.0395(11) 1.3041(8) 0.1849(12) 0.313(18) Uiso 0.5578(19) 1 d PGU A 2
H147 H 1.0470 1.3197 0.1848 0.376 Uiso 0.5578(19) 1 calc PR A 2
C5S C 1.0105(10) 1.2942(8) 0.2132(8) 0.276(18) Uiso 0.5578(19) 1 d PGU A 2
H148 H 0.9986 1.3032 0.2321 0.332 Uiso 0.5578(19) 1 calc PR A 2
N2S N 1.2139(8) 1.2706(8) -0.0020(7) 0.255(15) Uiso 0.5578(19) 1 d PGU . 2
C6S C 1.1859(11) 1.2569(6) 0.0164(10) 0.295(18) Uiso 0.5578(19) 1 d PGU A 2
H149 H 1.1857 1.2415 0.0089 0.354 Uiso 0.5578(19) 1 calc PR A 2
C7S C 1.1583(8) 1.2662(9) 0.0461(10) 0.307(18) Uiso 0.5578(19) 1 d PGU A 2
H150 H 1.1396 1.2570 0.0584 0.368 Uiso 0.5578(19) 1 calc PR A 2
C8S C 1.1587(9) 1.2892(10) 0.0574(7) 0.337(18) Uiso 0.5578(19) 1 d PGDU A 2
C9S C 1.1867(12) 1.3029(8) 0.0390(11) 0.332(19) Uiso 0.5578(19) 1 d PGU A 2
H151 H 1.1869 1.3183 0.0465 0.398 Uiso 0.5578(19) 1 calc PR A 2
C10S C 1.2143(8) 1.2936(8) 0.0093(10) 0.279(18) Uiso 0.5578(19) 1 d PGU A 2
H152 H 1.2330 1.3028 -0.0030 0.335 Uiso 0.5578(19) 1 calc PR A 2
N3S N 1.0993(17) 1.2915(11) 0.1006(16) 0.385(18) Uiso 0.5578(19) 1 d PDU A 2
N4S N 1.0830(12) 1.3066(13) 0.1269(12) 0.429(19) Uiso 0.5578(19) 1 d PDU A 2
C11S C 1.0992(19) 1.3241(13) 0.1287(17) 0.42(2) Uiso 0.5578(19) 1 d PDU A 2
H517 H 1.0906 1.3351 0.1452 0.507 Uiso 0.5578(19) 1 calc PR A 2
C12S C 1.1312(18) 1.3215(15) 0.1002(19) 0.42(2) Uiso 0.5578(19) 1 d PDU A 2
H518 H 1.1495 1.3300 0.0925 0.507 Uiso 0.5578(19) 1 calc PR A 2
C13S C 1.1279(12) 1.3019(15) 0.0861(12) 0.38(2) Uiso 0.5578(19) 1 d PDU A 2
N1T N 0.7863(8) 1.4801(12) 0.0013(7) 0.276(18) Uiso 0.5578(19) 1 d PGU A 2
C1T C 0.8156(11) 1.4582(7) -0.0181(10) 0.285(18) Uiso 0.5578(19) 1 d PGU A 2
H153 H 0.8170 1.4349 -0.0120 0.342 Uiso 0.5578(19) 1 calc PR A 2
C2T C 0.8429(8) 1.4711(10) -0.0464(9) 0.271(15) Uiso 0.5578(19) 1 d PGU A 2
H154 H 0.8626 1.4565 -0.0594 0.325 Uiso 0.5578(19) 1 calc PR A 2
C3T C 0.8409(9) 1.5059(11) -0.0554(7) 0.321(17) Uiso 0.5578(19) 1 d PGDU A 2
C4T C 0.8115(13) 1.5277(6) -0.0361(11) 0.32(2) Uiso 0.5578(19) 1 d PGU A 2
H155 H 0.8101 1.5510 -0.0421 0.382 Uiso 0.5578(19) 1 calc PR A 2
C5T C 0.7842(9) 1.5148(10) -0.0077(10) 0.29(2) Uiso 0.5578(19) 1 d PGU A 2
H156 H 0.7646 1.5295 0.0052 0.348 Uiso 0.5578(19) 1 calc PR A 2
N2T N 1.0035(7) 1.4830(12) -0.2148(8) 0.283(18) Uiso 0.5578(19) 1 d PGU . 2
C6T C 0.9859(10) 1.4586(7) -0.1876(12) 0.30(2) Uiso 0.5578(19) 1 d PGU A 2
H157 H 0.9945 1.4355 -0.1881 0.366 Uiso 0.5578(19) 1 calc PR A 2
C7T C 0.9556(10) 1.4688(10) -0.1598(9) 0.313(18) Uiso 0.5578(19) 1 d PGU A 2
H158 H 0.9438 1.4525 -0.1416 0.376 Uiso 0.5578(19) 1 calc PR A 2
C8T C 0.9428(8) 1.5033(12) -0.1592(9) 0.311(17) Uiso 0.5578(19) 1 d PGDU A 2
C9T C 0.9604(11) 1.5277(7) -0.1863(12) 0.33(2) Uiso 0.5578(19) 1 d PGU A 2
H159 H 0.9518 1.5507 -0.1859 0.393 Uiso 0.5578(19) 1 calc PR A 2
C10T C 0.9907(11) 1.5175(10) -0.2141(9) 0.30(2) Uiso 0.5578(19) 1 d PGU A 2
H160 H 1.0025 1.5338 -0.2323 0.361 Uiso 0.5578(19) 1 calc PR A 2
N3T N 0.8983(16) 1.4950(11) -0.1018(16) 0.373(17) Uiso 0.5578(19) 1 d PDU A 2
N4T N 0.8706(11) 1.5172(18) -0.0824(11) 0.425(19) Uiso 0.5578(19) 1 d PDU A 2
C11T C 0.8724(18) 1.5516(17) -0.1008(19) 0.47(3) Uiso 0.5578(19) 1 d PDU A 2
H519 H 0.8562 1.5709 -0.0925 0.558 Uiso 0.5578(19) 1 calc PR A 2
C12T C 0.9010(19) 1.5546(15) -0.1330(18) 0.42(2) Uiso 0.5578(19) 1 d PDU A 2
H520 H 0.9082 1.5741 -0.1505 0.507 Uiso 0.5578(19) 1 calc PR A 2
C13T C 0.9154(12) 1.5178(17) -0.1305(13) 0.37(2) Uiso 0.5578(19) 1 d PDU A 2
N1U N 0.7310(11) 1.4825(14) 0.0015(8) 0.30(2) Uiso 0.5578(19) 1 d PGU A 2
C1U C 0.7452(8) 1.4597(8) -0.0177(11) 0.32(2) Uiso 0.5578(19) 1 d PGU A 2
H161 H 0.7619 1.4371 -0.0114 0.378 Uiso 0.5578(19) 1 calc PR A 2
C2U C 0.7344(10) 1.4707(11) -0.0462(10) 0.293(17) Uiso 0.5578(19) 1 d PGU A 2
H162 H 0.7439 1.4554 -0.0590 0.352 Uiso 0.5578(19) 1 calc PR A 2
C3U C 0.7094(11) 1.5045(13) -0.0557(8) 0.322(18) Uiso 0.5578(19) 1 d PGDU A 2
C4U C 0.6952(8) 1.5273(8) -0.0365(12) 0.33(2) Uiso 0.5578(19) 1 d PGU A 2
H163 H 0.6785 1.5499 -0.0428 0.399 Uiso 0.5578(19) 1 calc PR A 2
C5U C 0.7060(11) 1.5163(12) -0.0080(11) 0.32(2) Uiso 0.5578(19) 1 d PGU A 2
H164 H 0.6965 1.5315 0.0048 0.385 Uiso 0.5578(19) 1 calc PR A 2
N2U N 0.7281(8) 1.4835(10) -0.2146(7) 0.265(16) Uiso 0.5578(19) 1 d PGU . 2
C6U C 0.7426(7) 1.4593(7) -0.1873(10) 0.299(18) Uiso 0.5578(19) 1 d PGU A 2
H165 H 0.7583 1.4365 -0.1881 0.359 Uiso 0.5578(19) 1 calc PR A 2
C7U C 0.7335(9) 1.4691(9) -0.1587(8) 0.279(15) Uiso 0.5578(19) 1 d PGU A 2
H166 H 0.7432 1.4529 -0.1404 0.335 Uiso 0.5578(19) 1 calc PR A 2
C8U C 0.7099(10) 1.5032(11) -0.1575(8) 0.315(17) Uiso 0.5578(19) 1 d PGDU A 2
C9U C 0.6955(8) 1.5274(7) -0.1848(11) 0.33(2) Uiso 0.5578(19) 1 d PGU A 2
H167 H 0.6797 1.5502 -0.1840 0.402 Uiso 0.5578(19) 1 calc PR A 2
C10U C 0.7045(8) 1.5176(9) -0.2134(8) 0.28(2) Uiso 0.5578(19) 1 d PGU A 2
H168 H 0.6948 1.5338 -0.2317 0.340 Uiso 0.5578(19) 1 calc PR A 2
N3U N 0.7092(11) 1.4970(11) -0.1034(15) 0.350(16) Uiso 0.5578(19) 1 d PDU A 2
N4U N 0.6936(13) 1.5174(15) -0.0819(11) 0.385(18) Uiso 0.5578(19) 1 d PDU A 2
C11U C 0.6714(14) 1.5515(14) -0.0941(17) 0.39(2) Uiso 0.5578(19) 1 d PDU A 2
H521 H 0.6584 1.5692 -0.0835 0.470 Uiso 0.5578(19) 1 calc PR A 2
C12U C 0.6729(14) 1.5532(13) -0.1261(17) 0.39(2) Uiso 0.5578(19) 1 d PDU A 2
H522 H 0.6610 1.5729 -0.1417 0.463 Uiso 0.5578(19) 1 calc PR A 2
C13U C 0.6961(14) 1.5193(15) -0.1305(12) 0.337(18) Uiso 0.5578(19) 1 d PDU A 2
N1V N 0.5209(11) 1.2675(9) 0.2136(8) 0.266(15) Uiso 0.5578(19) 1 d PGU A 2
C1V C 0.5428(7) 1.2558(6) 0.1841(11) 0.289(18) Uiso 0.5578(19) 1 d PGU A 2
H169 H 0.5662 1.2403 0.1825 0.347 Uiso 0.5578(19) 1 calc PR A 2
C2V C 0.5298(11) 1.2672(9) 0.1570(8) 0.297(17) Uiso 0.5578(19) 1 d PGU A 2
H170 H 0.5445 1.2594 0.1373 0.356 Uiso 0.5578(19) 1 calc PR A 2
C3V C 0.4948(12) 1.2904(9) 0.1594(9) 0.340(18) Uiso 0.5578(19) 1 d PGDU A 2
C4V C 0.4728(7) 1.3020(7) 0.1889(12) 0.307(18) Uiso 0.5578(19) 1 d PGU A 2
H171 H 0.4494 1.3175 0.1905 0.368 Uiso 0.5578(19) 1 calc PR A 2
C5V C 0.4859(10) 1.2906(9) 0.2160(8) 0.263(17) Uiso 0.5578(19) 1 d PGU A 2
H172 H 0.4712 1.2984 0.2357 0.315 Uiso 0.5578(19) 1 calc PR A 2
N2V N 0.5186(13) 1.2694(9) -0.0018(7) 0.280(16) Uiso 0.5578(19) 1 d PGU . 2
C6V C 0.5412(7) 1.2575(7) 0.0169(11) 0.289(18) Uiso 0.5578(19) 1 d PGU A 2
H173 H 0.5647 1.2425 0.0098 0.347 Uiso 0.5578(19) 1 calc PR A 2
C7V C 0.5286(12) 1.2680(9) 0.0461(10) 0.303(17) Uiso 0.5578(19) 1 d PGU A 2
H174 H 0.5437 1.2600 0.0585 0.363 Uiso 0.5578(19) 1 calc PR A 2
C8V C 0.4934(13) 1.2904(10) 0.0567(7) 0.340(18) Uiso 0.5578(19) 1 d PGDU A 2
C9V C 0.4708(7) 1.3023(8) 0.0380(11) 0.33(2) Uiso 0.5578(19) 1 d PGU A 2
H175 H 0.4473 1.3173 0.0451 0.391 Uiso 0.5578(19) 1 calc PR A 2
C10V C 0.4834(11) 1.2918(10) 0.0088(10) 0.280(19) Uiso 0.5578(19) 1 d PGU A 2
H176 H 0.4683 1.2998 -0.0036 0.336 Uiso 0.5578(19) 1 calc PR A 2
N3V N 0.5046(12) 1.2907(11) 0.1030(16) 0.381(18) Uiso 0.5578(19) 1 d PDU A 2
N4V N 0.4835(17) 1.3062(14) 0.1294(11) 0.424(19) Uiso 0.5578(19) 1 d PDU A 2
C11V C 0.4499(15) 1.3293(13) 0.1267(17) 0.39(2) Uiso 0.5578(19) 1 d PDU A 2
H523 H 0.4318 1.3420 0.1422 0.469 Uiso 0.5578(19) 1 calc PR A 2
C12V C 0.4479(16) 1.3301(15) 0.0970(18) 0.41(2) Uiso 0.5578(19) 1 d PDU A 2
H524 H 0.4292 1.3434 0.0876 0.491 Uiso 0.5578(19) 1 calc PR A 2
C13V C 0.4821(18) 1.3050(15) 0.0844(11) 0.38(2) Uiso 0.5578(19) 1 d PDU A 2
N1W N 0.5180(12) 0.9980(6) 0.2145(8) 0.266(15) Uiso 0.5578(19) 1 d PGU A 2
C1W C 0.5413(7) 1.0162(10) 0.1861(11) 0.32(2) Uiso 0.5578(19) 1 d PGU A 2
H177 H 0.5644 1.0090 0.1859 0.384 Uiso 0.5578(19) 1 calc PR A 2
C2W C 0.5301(11) 1.0453(9) 0.1581(8) 0.298(17) Uiso 0.5578(19) 1 d PGU A 2
H178 H 0.5457 1.0575 0.1392 0.357 Uiso 0.5578(19) 1 calc PR A 2
C3W C 0.4956(12) 1.0561(6) 0.1584(8) 0.315(16) Uiso 0.5578(19) 1 d PGDU A 2
C4W C 0.4723(7) 1.0378(10) 0.1868(12) 0.299(17) Uiso 0.5578(19) 1 d PGU A 2
H179 H 0.4492 1.0450 0.1870 0.359 Uiso 0.5578(19) 1 calc PR A 2
C5W C 0.4835(10) 1.0088(9) 0.2148(8) 0.278(18) Uiso 0.5578(19) 1 d PGU A 2
H180 H 0.4679 0.9965 0.2337 0.334 Uiso 0.5578(19) 1 calc PR A 2
N2W N 0.5188(14) 1.2151(8) -0.0032(7) 0.287(17) Uiso 0.5578(19) 1 d PGU . 2
C6W C 0.5422(8) 1.1864(12) 0.0148(11) 0.286(19) Uiso 0.5578(19) 1 d PGU A 2
H181 H 0.5654 1.1859 0.0074 0.344 Uiso 0.5578(19) 1 calc PR A 2
C7W C 0.5309(12) 1.1584(8) 0.0438(10) 0.296(17) Uiso 0.5578(19) 1 d PGU A 2
H182 H 0.5465 1.1392 0.0558 0.355 Uiso 0.5578(19) 1 calc PR A 2
C8W C 0.4962(14) 1.1591(10) 0.0548(7) 0.336(18) Uiso 0.5578(19) 1 d PGDU A 2
C9W C 0.4728(8) 1.1878(14) 0.0368(12) 0.34(2) Uiso 0.5578(19) 1 d PGU A 2
H183 H 0.4495 1.1883 0.0442 0.408 Uiso 0.5578(19) 1 calc PR A 2
C10W C 0.4841(12) 1.2158(9) 0.0078(11) 0.32(2) Uiso 0.5578(19) 1 d PGU A 2
H184 H 0.4684 1.2350 -0.0042 0.387 Uiso 0.5578(19) 1 calc PR A 2
N3W N 0.5048(13) 1.1011(17) 0.1014(17) 0.397(19) Uiso 0.5578(19) 1 d PDU A 2
N4W N 0.4836(18) 1.0805(11) 0.1284(12) 0.402(18) Uiso 0.5578(19) 1 d PDU A 2
C11W C 0.4493(16) 1.0963(18) 0.1264(17) 0.42(2) Uiso 0.5578(19) 1 d PDU A 2
H525 H 0.4304 1.0874 0.1421 0.506 Uiso 0.5578(19) 1 calc PR A 2
C12W C 0.4481(16) 1.1278(17) 0.0970(17) 0.39(2) Uiso 0.5578(19) 1 d PDU A 2
H526 H 0.4291 1.1438 0.0883 0.469 Uiso 0.5578(19) 1 calc PR A 2
C13W C 0.4830(18) 1.1295(12) 0.0835(11) 0.361(19) Uiso 0.5578(19) 1 d PDU A 2
N1X N 0.7299(9) 0.7862(8) 0.0026(6) 0.261(16) Uiso 0.5578(19) 1 d PGU A 2
C1X C 0.7415(7) 0.8157(11) -0.0154(10) 0.285(17) Uiso 0.5578(19) 1 d PGU A 2
H185 H 0.7568 0.8167 -0.0084 0.342 Uiso 0.5578(19) 1 calc PR A 2
C2X C 0.7300(9) 0.8436(7) -0.0437(9) 0.272(15) Uiso 0.5578(19) 1 d PGU A 2
H186 H 0.7377 0.8633 -0.0558 0.327 Uiso 0.5578(19) 1 calc PR A 2
C3X C 0.7070(10) 0.8420(9) -0.0541(7) 0.315(17) Uiso 0.5578(19) 1 d PGDU A 2
C4X C 0.6955(8) 0.8125(12) -0.0361(11) 0.34(2) Uiso 0.5578(19) 1 d PGU A 2
H187 H 0.6802 0.8115 -0.0430 0.409 Uiso 0.5578(19) 1 calc PR A 2
C5X C 0.7070(9) 0.7846(8) -0.0077(9) 0.271(18) Uiso 0.5578(19) 1 d PGU A 2
H188 H 0.6993 0.7649 0.0043 0.325 Uiso 0.5578(19) 1 calc PR A 2
N2X N 0.7326(8) 1.0028(6) -0.2134(7) 0.242(14) Uiso 0.5578(19) 1 d PGU . 2
C6X C 0.7441(7) 0.9830(9) -0.1838(10) 0.284(17) Uiso 0.5578(19) 1 d PGU A 2
H189 H 0.7597 0.9888 -0.1818 0.340 Uiso 0.5578(19) 1 calc PR A 2
C7X C 0.7322(9) 0.9545(8) -0.1570(7) 0.303(17) Uiso 0.5578(19) 1 d PGU A 2
H190 H 0.7399 0.9412 -0.1372 0.363 Uiso 0.5578(19) 1 calc PR A 2
C8X C 0.7088(9) 0.9458(7) -0.1599(8) 0.310(17) Uiso 0.5578(19) 1 d PGDU A 2
C9X C 0.6973(7) 0.9656(9) -0.1895(10) 0.299(18) Uiso 0.5578(19) 1 d PGU A 2
H191 H 0.6817 0.9598 -0.1915 0.359 Uiso 0.5578(19) 1 calc PR A 2
C10X C 0.7092(9) 0.9941(8) -0.2163(7) 0.247(16) Uiso 0.5578(19) 1 d PGU A 2
H192 H 0.7015 1.0074 -0.2361 0.297 Uiso 0.5578(19) 1 calc PR A 2
N3X N 0.7092(11) 0.8983(16) -0.1027(15) 0.384(18) Uiso 0.5578(19) 1 d PDU A 2
N4X N 0.6957(14) 0.8704(10) -0.0829(9) 0.394(17) Uiso 0.5578(19) 1 d PDU A 2
C11X C 0.6722(14) 0.8729(16) -0.0950(16) 0.38(2) Uiso 0.5578(19) 1 d PDU A 2
H527 H 0.6602 0.8570 -0.0857 0.458 Uiso 0.5578(19) 1 calc PR A 2
C12X C 0.6703(15) 0.9045(17) -0.1243(15) 0.37(2) Uiso 0.5578(19) 1 d PDU A 2
H528 H 0.6561 0.9144 -0.1384 0.441 Uiso 0.5578(19) 1 calc PR A 2
C13X C 0.6940(15) 0.9187(12) -0.1286(11) 0.353(19) Uiso 0.5578(19) 1 d PDU A 2
N21A N 0.8860(12) 1.1599(9) 0.3734(15) 0.193(19) Uiso 0.2211(9) 1 d PGU A 3
C21A C 0.8916(12) 1.1753(15) 0.3367(14) 0.18(2) Uiso 0.2211(9) 1 d PGU A 3
H193 H 0.9012 1.1608 0.3231 0.222 Uiso 0.2211(9) 1 calc PR A 3
C22A C 0.8828(15) 1.2123(16) 0.3204(11) 0.23(3) Uiso 0.2211(9) 1 d PGU A 3
H194 H 0.8865 1.2226 0.2959 0.274 Uiso 0.2211(9) 1 calc PR A 3
C23A C 0.8685(17) 1.2340(9) 0.3408(18) 0.23(2) Uiso 0.2211(9) 1 d PGDU A 3
C24A C 0.8629(16) 1.2186(14) 0.3774(17) 0.27(3) Uiso 0.2211(9) 1 d PGU A 3
H195 H 0.8534 1.2331 0.3910 0.325 Uiso 0.2211(9) 1 calc PR A 3
C25A C 0.8717(15) 1.1816(15) 0.3937(11) 0.22(2) Uiso 0.2211(9) 1 d PGU A 3
H196 H 0.8680 1.1713 0.4182 0.266 Uiso 0.2211(9) 1 calc PR A 3
N22A N 0.8867(13) 1.3754(15) 0.1580(10) 0.205(19) Uiso 0.2211(9) 1 d PGU A 3
C26A C 0.8925(13) 1.3388(15) 0.1724(15) 0.20(2) Uiso 0.2211(9) 1 d PGU A 3
H197 H 0.8991 1.3264 0.1577 0.242 Uiso 0.2211(9) 1 calc PR A 3
C27A C 0.8883(18) 1.3207(11) 0.2086(17) 0.26(3) Uiso 0.2211(9) 1 d PGU A 3
H198 H 0.8922 1.2962 0.2182 0.308 Uiso 0.2211(9) 1 calc PR A 3
C28A C 0.8785(19) 1.3392(18) 0.2305(10) 0.27(3) Uiso 0.2211(9) 1 d PGDU A 3
C29A C 0.8727(17) 1.3759(18) 0.2162(15) 0.26(3) Uiso 0.2211(9) 1 d PGU A 3
H199 H 0.8661 1.3883 0.2308 0.308 Uiso 0.2211(9) 1 calc PR A 3
C30A C 0.8768(15) 1.3940(10) 0.1799(16) 0.21(2) Uiso 0.2211(9) 1 d PGU A 3
H200 H 0.8730 1.4185 0.1703 0.249 Uiso 0.2211(9) 1 calc PR A 3
N23A N 0.8809(15) 1.2792(18) 0.2814(17) 0.25(2) Uiso 0.2211(9) 1 d PDU A 3
N24A N 0.8812(15) 1.2626(15) 0.3158(16) 0.202(19) Uiso 0.2211(9) 1 d PDU A 3
C31A C 0.8753(18) 1.290(2) 0.325(3) 0.27(3) Uiso 0.2211(9) 1 d PDU A 3
H529 H 0.8742 1.2878 0.3468 0.322 Uiso 0.2211(9) 1 calc PR A 3
C32A C 0.871(2) 1.322(3) 0.296(2) 0.29(3) Uiso 0.2211(9) 1 d PDU A 3
H530 H 0.8661 1.3445 0.2964 0.343 Uiso 0.2211(9) 1 calc PR A 3
C33A C 0.8761(19) 1.3143(18) 0.2671(13) 0.23(2) Uiso 0.2211(9) 1 d PDU A 3
N21B N 0.8387(11) 1.4198(14) 0.1153(12) 0.195(19) Uiso 0.2211(9) 1 d PGU A 3
C21B C 0.8254(16) 1.4024(11) 0.1092(12) 0.20(2) Uiso 0.2211(9) 1 d PGU A 3
H201 H 0.8404 1.3814 0.1038 0.239 Uiso 0.2211(9) 1 calc PR A 3
C22B C 0.7898(18) 1.4166(18) 0.1113(17) 0.26(3) Uiso 0.2211(9) 1 d PGU A 3
H202 H 0.7809 1.4050 0.1073 0.309 Uiso 0.2211(9) 1 calc PR A 3
C23B C 0.7673(11) 1.4480(18) 0.1195(17) 0.24(2) Uiso 0.2211(9) 1 d PGDU A 3
C24B C 0.7806(15) 1.4654(11) 0.1255(14) 0.23(3) Uiso 0.2211(9) 1 d PGU A 3
H203 H 0.7656 1.4864 0.1310 0.271 Uiso 0.2211(9) 1 calc PR A 3
C25B C 0.8163(17) 1.4512(14) 0.1234(13) 0.22(2) Uiso 0.2211(9) 1 d PGU A 3
H204 H 0.8251 1.4628 0.1275 0.262 Uiso 0.2211(9) 1 calc PR A 3
N22B N 0.6271(16) 1.4208(16) 0.1119(12) 0.21(2) Uiso 0.2211(9) 1 d PGU A 3
C26B C 0.6626(17) 1.4005(12) 0.1099(12) 0.21(2) Uiso 0.2211(9) 1 d PGU A 3
H205 H 0.6741 1.3804 0.1028 0.255 Uiso 0.2211(9) 1 calc PR A 3
C27B C 0.6810(13) 1.4101(17) 0.1186(16) 0.24(3) Uiso 0.2211(9) 1 d PGU A 3
H206 H 0.7048 1.3965 0.1173 0.292 Uiso 0.2211(9) 1 calc PR A 3
C28B C 0.664(2) 1.440(2) 0.1292(18) 0.26(3) Uiso 0.2211(9) 1 d PGDU A 3
C29B C 0.628(2) 1.4604(14) 0.1312(16) 0.27(3) Uiso 0.2211(9) 1 d PGU A 3
H207 H 0.6170 1.4805 0.1383 0.327 Uiso 0.2211(9) 1 calc PR A 3
C30B C 0.6100(12) 1.4508(14) 0.1225(14) 0.22(2) Uiso 0.2211(9) 1 d PGU A 3
H208 H 0.5862 1.4644 0.1238 0.262 Uiso 0.2211(9) 1 calc PR A 3
N23B N 0.721(2) 1.4362(15) 0.1207(13) 0.22(2) Uiso 0.2211(9) 1 d PDU A 3
N24B N 0.7309(12) 1.4562(19) 0.1260(14) 0.23(2) Uiso 0.2211(9) 1 d PDU A 3
C31B C 0.707(2) 1.4889(19) 0.1309(17) 0.27(3) Uiso 0.2211(9) 1 d PDU A 3
H531 H 0.7098 1.5051 0.1352 0.330 Uiso 0.2211(9) 1 calc PR A 3
C32B C 0.678(3) 1.491(2) 0.1277(19) 0.28(3) Uiso 0.2211(9) 1 d PDU A 3
H532 H 0.6560 1.5095 0.1283 0.341 Uiso 0.2211(9) 1 calc PR A 3
C33B C 0.6867(19) 1.458(2) 0.1231(18) 0.22(2) Uiso 0.2211(9) 1 d PDU A 3
N21C N 0.5779(15) 1.3758(14) 0.1601(10) 0.185(18) Uiso 0.2211(9) 1 d PGU A 3
C21C C 0.5986(12) 1.3402(15) 0.1726(15) 0.20(2) Uiso 0.2211(9) 1 d PGU A 3
H209 H 0.6189 1.3294 0.1565 0.236 Uiso 0.2211(9) 1 calc PR A 3
C22C C 0.5889(17) 1.3208(11) 0.2091(17) 0.24(3) Uiso 0.2211(9) 1 d PGU A 3
H210 H 0.6027 1.2970 0.2175 0.292 Uiso 0.2211(9) 1 calc PR A 3
C23C C 0.5585(19) 1.3370(18) 0.2331(10) 0.25(2) Uiso 0.2211(9) 1 d PGDU A 3
C24C C 0.5379(13) 1.3726(18) 0.2206(15) 0.26(3) Uiso 0.2211(9) 1 d PGU A 3
H211 H 0.5176 1.3834 0.2366 0.309 Uiso 0.2211(9) 1 calc PR A 3
C25C C 0.5476(14) 1.3920(11) 0.1841(17) 0.22(2) Uiso 0.2211(9) 1 d PGU A 3
H212 H 0.5337 1.4158 0.1757 0.269 Uiso 0.2211(9) 1 calc PR A 3
N22C N 0.5785(16) 1.1604(9) 0.3735(15) 0.189(18) Uiso 0.2211(9) 1 d PGU A 3
C26C C 0.6007(12) 1.1734(15) 0.3389(16) 0.22(2) Uiso 0.2211(9) 1 d PGU A 3
H213 H 0.6210 1.1575 0.3279 0.267 Uiso 0.2211(9) 1 calc PR A 3
C27C C 0.5925(16) 1.2101(17) 0.3207(11) 0.22(3) Uiso 0.2211(9) 1 d PGU A 3
H214 H 0.6073 1.2188 0.2976 0.265 Uiso 0.2211(9) 1 calc PR A 3
C28C C 0.5621(19) 1.2339(9) 0.3372(18) 0.23(2) Uiso 0.2211(9) 1 d PGDU A 3
C29C C 0.5399(14) 1.2210(15) 0.3718(18) 0.25(3) Uiso 0.2211(9) 1 d PGU A 3
H215 H 0.5196 1.2369 0.3828 0.303 Uiso 0.2211(9) 1 calc PR A 3
C30C C 0.5481(14) 1.1842(17) 0.3899(11) 0.22(2) Uiso 0.2211(9) 1 d PGU A 3
H216 H 0.5332 1.1755 0.4130 0.263 Uiso 0.2211(9) 1 calc PR A 3
N23C N 0.5615(15) 1.2799(16) 0.2798(17) 0.194(18) Uiso 0.2211(9) 1 d PDU A 3
N24C N 0.5428(17) 1.3148(16) 0.2666(13) 0.211(19) Uiso 0.2211(9) 1 d PDU A 3
C31C C 0.5123(17) 1.324(2) 0.294(2) 0.26(3) Uiso 0.2211(9) 1 d PDU A 3
H533 H 0.4950 1.3468 0.2921 0.308 Uiso 0.2211(9) 1 calc PR A 3
C32C C 0.5113(18) 1.295(2) 0.325(2) 0.26(3) Uiso 0.2211(9) 1 d PDU A 3
H534 H 0.4938 1.2935 0.3476 0.314 Uiso 0.2211(9) 1 calc PR A 3
C33C C 0.5434(18) 1.2672(14) 0.3145(17) 0.20(2) Uiso 0.2211(9) 1 d PDU A 3
N21D N 0.8397(11) 1.1131(11) 0.4199(15) 0.195(19) Uiso 0.2211(9) 1 d PGU A 3
C21D C 0.8249(17) 1.1087(12) 0.4028(11) 0.21(2) Uiso 0.2211(9) 1 d PGU A 3
H217 H 0.8392 1.1032 0.3817 0.247 Uiso 0.2211(9) 1 calc PR A 3
C22D C 0.7887(19) 1.1125(16) 0.4172(19) 0.25(3) Uiso 0.2211(9) 1 d PGU A 3
H218 H 0.7788 1.1096 0.4057 0.302 Uiso 0.2211(9) 1 calc PR A 3
C23D C 0.7673(11) 1.1207(16) 0.4487(19) 0.26(2) Uiso 0.2211(9) 1 d PGDU A 3
C24D C 0.7821(16) 1.1251(13) 0.4659(12) 0.22(2) Uiso 0.2211(9) 1 d PGU A 3
H219 H 0.7678 1.1306 0.4870 0.266 Uiso 0.2211(9) 1 calc PR A 3
C25D C 0.8183(17) 1.1213(12) 0.4515(15) 0.22(2) Uiso 0.2211(9) 1 d PGU A 3
H220 H 0.8282 1.1242 0.4630 0.263 Uiso 0.2211(9) 1 calc PR A 3
N22D N 0.6285(19) 1.1133(12) 0.4190(17) 0.22(2) Uiso 0.2211(9) 1 d PGU A 3
C26D C 0.6646(19) 1.1100(12) 0.4017(13) 0.22(3) Uiso 0.2211(9) 1 d PGU A 3
H221 H 0.6781 1.1009 0.3828 0.264 Uiso 0.2211(9) 1 calc PR A 3
C27D C 0.6806(13) 1.1202(16) 0.4126(19) 0.27(3) Uiso 0.2211(9) 1 d PGU A 3
H222 H 0.7047 1.1180 0.4010 0.322 Uiso 0.2211(9) 1 calc PR A 3
C28D C 0.660(2) 1.1339(18) 0.441(2) 0.27(3) Uiso 0.2211(9) 1 d PGDU A 3
C29D C 0.624(2) 1.1372(16) 0.4581(14) 0.30(3) Uiso 0.2211(9) 1 d PGU A 3
H223 H 0.6108 1.1463 0.4770 0.363 Uiso 0.2211(9) 1 calc PR A 3
C30D C 0.6083(13) 1.1269(15) 0.4472(16) 0.23(2) Uiso 0.2211(9) 1 d PGU A 3
H224 H 0.5842 1.1292 0.4588 0.271 Uiso 0.2211(9) 1 calc PR A 3
N23D N 0.7201(19) 1.1196(11) 0.4371(15) 0.199(18) Uiso 0.2211(9) 1 d PDU A 3
N24D N 0.7319(14) 1.1253(13) 0.455(2) 0.23(2) Uiso 0.2211(9) 1 d PDU A 3
C31D C 0.705(3) 1.1319(16) 0.487(2) 0.29(3) Uiso 0.2211(9) 1 d PDU A 3
H535 H 0.7077 1.1366 0.5026 0.353 Uiso 0.2211(9) 1 calc PR A 3
C32D C 0.674(3) 1.1301(18) 0.490(2) 0.29(3) Uiso 0.2211(9) 1 d PDU A 3
H536 H 0.6520 1.1329 0.5077 0.346 Uiso 0.2211(9) 1 calc PR A 3
C33D C 0.6858(18) 1.1227(17) 0.458(2) 0.22(2) Uiso 0.2211(9) 1 d PDU A 3
N21E N 0.5783(17) 0.8884(12) 0.3743(18) 0.22(2) Uiso 0.2211(9) 1 d PGU A 3
C21E C 0.5988(13) 0.8901(12) 0.3389(18) 0.23(3) Uiso 0.2211(9) 1 d PGU A 3
H225 H 0.6182 0.8984 0.3271 0.275 Uiso 0.2211(9) 1 calc PR A 3
C22E C 0.5905(17) 0.8794(15) 0.3211(12) 0.24(3) Uiso 0.2211(9) 1 d PGU A 3
H226 H 0.6043 0.8805 0.2974 0.292 Uiso 0.2211(9) 1 calc PR A 3
C23E C 0.562(2) 0.8670(15) 0.3387(19) 0.24(2) Uiso 0.2211(9) 1 d PGDU A 3
C24E C 0.5411(14) 0.8654(15) 0.3742(19) 0.24(3) Uiso 0.2211(9) 1 d PGU A 3
H227 H 0.5218 0.8571 0.3860 0.294 Uiso 0.2211(9) 1 calc PR A 3
C25E C 0.5494(15) 0.8761(14) 0.3920(11) 0.21(2) Uiso 0.2211(9) 1 d PGU A 3
H228 H 0.5357 0.8750 0.4157 0.252 Uiso 0.2211(9) 1 calc PR A 3
N22E N 0.5775(17) 0.8892(11) 0.1576(10) 0.22(2) Uiso 0.2211(9) 1 d PGU A 3
C26E C 0.5976(13) 0.8906(12) 0.1716(18) 0.23(3) Uiso 0.2211(9) 1 d PGU A 3
H229 H 0.6181 0.8970 0.1563 0.274 Uiso 0.2211(9) 1 calc PR A 3
C27E C 0.5870(18) 0.8824(15) 0.208(2) 0.26(3) Uiso 0.2211(9) 1 d PGU A 3
H230 H 0.6005 0.8833 0.2177 0.308 Uiso 0.2211(9) 1 calc PR A 3
C28E C 0.556(2) 0.8728(16) 0.2312(11) 0.24(2) Uiso 0.2211(9) 1 d PGDU A 3
C29E C 0.5363(13) 0.8714(15) 0.2172(16) 0.23(3) Uiso 0.2211(9) 1 d PGU A 3
H231 H 0.5158 0.8650 0.2325 0.278 Uiso 0.2211(9) 1 calc PR A 3
C30E C 0.5469(16) 0.8796(13) 0.1804(18) 0.21(2) Uiso 0.2211(9) 1 d PGU A 3
H232 H 0.5335 0.8787 0.1711 0.256 Uiso 0.2211(9) 1 calc PR A 3
N23E N 0.5612(16) 0.8798(12) 0.2812(19) 0.22(2) Uiso 0.2211(9) 1 d PDU A 3
N24E N 0.543(2) 0.8766(14) 0.3165(19) 0.24(2) Uiso 0.2211(9) 1 d PDU A 3
C31E C 0.5122(19) 0.8700(16) 0.327(2) 0.27(3) Uiso 0.2211(9) 1 d PDU A 3
H537 H 0.4942 0.8669 0.3494 0.328 Uiso 0.2211(9) 1 calc PR A 3
C32E C 0.515(2) 0.8690(18) 0.296(2) 0.28(3) Uiso 0.2211(9) 1 d PDU A 3
H538 H 0.4993 0.8631 0.2949 0.337 Uiso 0.2211(9) 1 calc PR A 3
C33E C 0.545(2) 0.8776(16) 0.2650(15) 0.21(2) Uiso 0.2211(9) 1 d PDU A 3
N21F N 0.6303(18) 0.8411(10) 0.1126(12) 0.21(2) Uiso 0.2211(9) 1 d PGU A 3
C21F C 0.6661(18) 0.8238(18) 0.1104(13) 0.23(3) Uiso 0.2211(9) 1 d PGU A 3
H233 H 0.6795 0.8368 0.1053 0.278 Uiso 0.2211(9) 1 calc PR A 3
C22F C 0.6817(13) 0.7872(18) 0.1160(16) 0.24(3) Uiso 0.2211(9) 1 d PGU A 3
H234 H 0.7057 0.7756 0.1145 0.293 Uiso 0.2211(9) 1 calc PR A 3
C23F C 0.662(2) 0.7678(9) 0.1237(17) 0.25(2) Uiso 0.2211(9) 1 d PGDU A 3
C24F C 0.6258(19) 0.7851(16) 0.1258(15) 0.22(3) Uiso 0.2211(9) 1 d PGU A 3
H235 H 0.6123 0.7721 0.1310 0.258 Uiso 0.2211(9) 1 calc PR A 3
C25F C 0.6101(12) 0.8217(17) 0.1203(13) 0.23(2) Uiso 0.2211(9) 1 d PGU A 3
H236 H 0.5861 0.8332 0.1217 0.273 Uiso 0.2211(9) 1 calc PR A 3
N22F N 0.8405(10) 0.6248(16) 0.1119(12) 0.21(2) Uiso 0.2211(9) 1 d PGU A 3
C26F C 0.8257(17) 0.6600(16) 0.1113(13) 0.23(3) Uiso 0.2211(9) 1 d PGU A 3
H237 H 0.8404 0.6722 0.1050 0.273 Uiso 0.2211(9) 1 calc PR A 3
C27F C 0.7887(18) 0.6771(11) 0.1201(15) 0.24(3) Uiso 0.2211(9) 1 d PGU A 3
H238 H 0.7788 0.7007 0.1197 0.289 Uiso 0.2211(9) 1 calc PR A 3
C28F C 0.7667(11) 0.6589(18) 0.1296(15) 0.23(2) Uiso 0.2211(9) 1 d PGDU A 3
C29F C 0.7815(16) 0.6237(17) 0.1302(14) 0.23(2) Uiso 0.2211(9) 1 d PGU A 3
H239 H 0.7667 0.6115 0.1366 0.276 Uiso 0.2211(9) 1 calc PR A 3
C30F C 0.8184(17) 0.6066(10) 0.1214(13) 0.18(2) Uiso 0.2211(9) 1 d PGU A 3
H240 H 0.8284 0.5830 0.1218 0.220 Uiso 0.2211(9) 1 calc PR A 3
N23F N 0.7217(18) 0.7193(19) 0.1204(13) 0.23(2) Uiso 0.2211(9) 1 d PDU A 3
N24F N 0.6868(17) 0.7339(14) 0.1217(14) 0.23(2) Uiso 0.2211(9) 1 d PDU A 3
C31F C 0.676(3) 0.708(2) 0.1273(17) 0.28(3) Uiso 0.2211(9) 1 d PDU A 3
H539 H 0.6532 0.7111 0.1292 0.331 Uiso 0.2211(9) 1 calc PR A 3
C32F C 0.704(2) 0.675(3) 0.1298(18) 0.27(3) Uiso 0.2211(9) 1 d PDU A 3
H540 H 0.7042 0.6531 0.1338 0.325 Uiso 0.2211(9) 1 calc PR A 3
C33F C 0.7323(15) 0.6847(18) 0.1248(17) 0.22(2) Uiso 0.2211(9) 1 d PDU A 3
N21G N 0.8835(13) 0.5785(14) 0.1610(9) 0.196(19) Uiso 0.2211(9) 1 d PGU A 3
C21G C 0.8868(13) 0.5979(11) 0.1742(15) 0.23(3) Uiso 0.2211(9) 1 d PGU A 3
H241 H 0.8927 0.6187 0.1587 0.271 Uiso 0.2211(9) 1 calc PR A 3
C22G C 0.8814(16) 0.5863(16) 0.2105(16) 0.23(3) Uiso 0.2211(9) 1 d PGU A 3
H242 H 0.8836 0.5993 0.2194 0.279 Uiso 0.2211(9) 1 calc PR A 3
C23G C 0.8725(17) 0.5553(17) 0.2337(10) 0.23(2) Uiso 0.2211(9) 1 d PGDU A 3
C24G C 0.8692(15) 0.5359(11) 0.2204(13) 0.22(3) Uiso 0.2211(9) 1 d PGU A 3
H243 H 0.8633 0.5151 0.2359 0.261 Uiso 0.2211(9) 1 calc PR A 3
C25G C 0.8747(14) 0.5475(13) 0.1841(15) 0.19(2) Uiso 0.2211(9) 1 d PGU A 3
H244 H 0.8724 0.5345 0.1752 0.231 Uiso 0.2211(9) 1 calc PR A 3
N22G N 0.8856(12) 0.5784(13) 0.3758(14) 0.188(18) Uiso 0.2211(9) 1 d PGU A 3
C26G C 0.8896(13) 0.5972(11) 0.3396(15) 0.22(2) Uiso 0.2211(9) 1 d PGU A 3
H245 H 0.8966 0.6174 0.3279 0.259 Uiso 0.2211(9) 1 calc PR A 3
C27G C 0.8831(16) 0.5859(16) 0.3209(11) 0.24(3) Uiso 0.2211(9) 1 d PGU A 3
H246 H 0.8858 0.5984 0.2967 0.285 Uiso 0.2211(9) 1 calc PR A 3
C28G C 0.8727(17) 0.5557(17) 0.3384(17) 0.22(2) Uiso 0.2211(9) 1 d PGDU A 3
C29G C 0.8687(15) 0.5369(12) 0.3745(17) 0.21(2) Uiso 0.2211(9) 1 d PGU A 3
H247 H 0.8618 0.5168 0.3862 0.254 Uiso 0.2211(9) 1 calc PR A 3
C30G C 0.8752(14) 0.5483(13) 0.3932(10) 0.20(2) Uiso 0.2211(9) 1 d PGU A 3
H248 H 0.8726 0.5357 0.4174 0.246 Uiso 0.2211(9) 1 calc PR A 3
N23G N 0.8808(14) 0.5632(15) 0.2776(17) 0.22(2) Uiso 0.2211(9) 1 d PDU A 3
N24G N 0.8784(14) 0.5424(17) 0.2659(13) 0.206(19) Uiso 0.2211(9) 1 d PDU A 3
C31G C 0.8742(16) 0.5101(17) 0.292(2) 0.25(3) Uiso 0.2211(9) 1 d PDU A 3
H541 H 0.8723 0.4925 0.2887 0.296 Uiso 0.2211(9) 1 calc PR A 3
C32G C 0.8735(19) 0.5095(19) 0.323(2) 0.27(3) Uiso 0.2211(9) 1 d PDU A 3
H542 H 0.8705 0.4918 0.3450 0.329 Uiso 0.2211(9) 1 calc PR A 3
C33G C 0.8785(18) 0.5425(19) 0.3118(16) 0.20(2) Uiso 0.2211(9) 1 d PDU A 3
N21H N 0.8401(10) 0.6244(13) 0.4231(14) 0.176(17) Uiso 0.2211(9) 1 d PGU A 3
C21H C 0.8272(14) 0.6603(14) 0.4034(10) 0.17(2) Uiso 0.2211(9) 1 d PGU A 3
H249 H 0.8430 0.6715 0.3831 0.209 Uiso 0.2211(9) 1 calc PR A 3
C22H C 0.7907(16) 0.6795(10) 0.4140(16) 0.23(3) Uiso 0.2211(9) 1 d PGU A 3
H250 H 0.7821 0.7035 0.4008 0.270 Uiso 0.2211(9) 1 calc PR A 3
C23H C 0.7672(10) 0.6628(17) 0.4443(17) 0.23(2) Uiso 0.2211(9) 1 d PGDU A 3
C24H C 0.7800(15) 0.6269(17) 0.4641(12) 0.23(3) Uiso 0.2211(9) 1 d PGU A 3
H251 H 0.7642 0.6157 0.4844 0.272 Uiso 0.2211(9) 1 calc PR A 3
C25H C 0.8165(17) 0.6077(10) 0.4535(13) 0.21(2) Uiso 0.2211(9) 1 d PGU A 3
H252 H 0.8251 0.5836 0.4667 0.250 Uiso 0.2211(9) 1 calc PR A 3
N22H N 0.6249(18) 0.8392(10) 0.4235(17) 0.22(2) Uiso 0.2211(9) 1 d PGU A 3
C26H C 0.6608(18) 0.8266(17) 0.4037(13) 0.22(2) Uiso 0.2211(9) 1 d PGU A 3
H253 H 0.6725 0.8427 0.3848 0.265 Uiso 0.2211(9) 1 calc PR A 3
C27H C 0.6794(12) 0.790(2) 0.4122(18) 0.24(3) Uiso 0.2211(9) 1 d PGU A 3
H254 H 0.7035 0.7815 0.3990 0.285 Uiso 0.2211(9) 1 calc PR A 3
C28H C 0.662(2) 0.7658(10) 0.440(2) 0.26(3) Uiso 0.2211(9) 1 d PGDU A 3
C29H C 0.626(2) 0.7784(16) 0.4602(14) 0.30(3) Uiso 0.2211(9) 1 d PGU A 3
H255 H 0.6145 0.7622 0.4791 0.355 Uiso 0.2211(9) 1 calc PR A 3
C30H C 0.6075(12) 0.8150(19) 0.4518(15) 0.22(2) Uiso 0.2211(9) 1 d PGU A 3
H256 H 0.5835 0.8235 0.4650 0.268 Uiso 0.2211(9) 1 calc PR A 3
N23H N 0.721(2) 0.7194(19) 0.4377(17) 0.24(2) Uiso 0.2211(9) 1 d PDU A 3
N24H N 0.7326(12) 0.6848(18) 0.459(2) 0.23(2) Uiso 0.2211(9) 1 d PDU A 3
C31H C 0.709(2) 0.672(2) 0.4921(19) 0.25(3) Uiso 0.2211(9) 1 d PDU A 3
H543 H 0.7114 0.6500 0.5101 0.303 Uiso 0.2211(9) 1 calc PR A 3
C32H C 0.679(3) 0.703(2) 0.490(2) 0.28(3) Uiso 0.2211(9) 1 d PDU A 3
H544 H 0.6567 0.7054 0.5085 0.338 Uiso 0.2211(9) 1 calc PR A 3
C33H C 0.686(2) 0.7319(15) 0.457(2) 0.24(2) Uiso 0.2211(9) 1 d PDU A 3
N21I N 1.1580(11) 0.5782(16) 0.3742(16) 0.21(2) Uiso 0.2211(9) 1 d PGU A 3
C21I C 1.1735(18) 0.5982(11) 0.3393(16) 0.22(3) Uiso 0.2211(9) 1 d PGU A 3
H257 H 1.1593 0.6196 0.3273 0.260 Uiso 0.2211(9) 1 calc PR A 3
C22I C 1.2104(19) 0.5862(17) 0.3224(12) 0.24(3) Uiso 0.2211(9) 1 d PGU A 3
H258 H 1.2208 0.5995 0.2991 0.284 Uiso 0.2211(9) 1 calc PR A 3
C23I C 1.2318(11) 0.5542(19) 0.3404(19) 0.25(2) Uiso 0.2211(9) 1 d PGDU A 3
C24I C 1.2162(17) 0.5342(12) 0.3752(18) 0.22(2) Uiso 0.2211(9) 1 d PGU A 3
H259 H 1.2305 0.5128 0.3873 0.266 Uiso 0.2211(9) 1 calc PR A 3
C25I C 1.1793(18) 0.5462(14) 0.3921(11) 0.22(2) Uiso 0.2211(9) 1 d PGU A 3
H260 H 1.1689 0.5329 0.4155 0.266 Uiso 0.2211(9) 1 calc PR A 3
N22I N 1.3741(18) 0.5790(16) 0.1594(10) 0.22(2) Uiso 0.2211(9) 1 d PGU A 3
C26I C 1.3386(18) 0.5978(12) 0.1749(18) 0.24(3) Uiso 0.2211(9) 1 d PGU A 3
H261 H 1.3260 0.6184 0.1606 0.283 Uiso 0.2211(9) 1 calc PR A 3
C27I C 1.3221(12) 0.5859(18) 0.212(2) 0.26(3) Uiso 0.2211(9) 1 d PGU A 3
H262 H 1.2984 0.5985 0.2223 0.311 Uiso 0.2211(9) 1 calc PR A 3
C28I C 1.341(2) 0.555(2) 0.2334(11) 0.24(2) Uiso 0.2211(9) 1 d PGDU A 3
C29I C 1.3765(19) 0.5363(13) 0.2178(17) 0.25(3) Uiso 0.2211(9) 1 d PGU A 3
H263 H 1.3891 0.5157 0.2321 0.302 Uiso 0.2211(9) 1 calc PR A 3
C30I C 1.3930(12) 0.5482(15) 0.1808(18) 0.21(2) Uiso 0.2211(9) 1 d PGU A 3
H264 H 1.4167 0.5356 0.1704 0.246 Uiso 0.2211(9) 1 calc PR A 3
N23I N 1.279(2) 0.5609(16) 0.2771(19) 0.24(2) Uiso 0.2211(9) 1 d PDU A 3
N24I N 1.2649(17) 0.545(2) 0.3132(18) 0.25(2) Uiso 0.2211(9) 1 d PDU A 3
C31I C 1.291(3) 0.516(2) 0.327(3) 0.32(3) Uiso 0.2211(9) 1 d PDU A 3
H545 H 1.2882 0.5008 0.3503 0.382 Uiso 0.2211(9) 1 calc PR A 3
C32I C 1.322(3) 0.514(2) 0.298(3) 0.32(3) Uiso 0.2211(9) 1 d PDU A 3
H546 H 1.3448 0.4968 0.2980 0.388 Uiso 0.2211(9) 1 calc PR A 3
C33I C 1.314(2) 0.542(2) 0.2666(17) 0.22(2) Uiso 0.2211(9) 1 d PDU A 3
N21J N 1.4227(15) 0.6255(14) 0.1127(11) 0.186(18) Uiso 0.2211(9) 1 d PGU A 3
C21J C 1.4024(12) 0.6609(15) 0.1113(12) 0.21(2) Uiso 0.2211(9) 1 d PGU A 3
H265 H 1.3823 0.6726 0.1043 0.253 Uiso 0.2211(9) 1 calc PR A 3
C22J C 1.4122(17) 0.6788(11) 0.1204(15) 0.25(3) Uiso 0.2211(9) 1 d PGU A 3
H266 H 1.3987 0.7025 0.1195 0.297 Uiso 0.2211(9) 1 calc PR A 3
C23J C 1.4423(19) 0.6613(18) 0.1310(16) 0.25(2) Uiso 0.2211(9) 1 d PGDU A 3
C24J C 1.4626(13) 0.6259(18) 0.1324(16) 0.25(3) Uiso 0.2211(9) 1 d PGU A 3
H267 H 1.4827 0.6142 0.1394 0.298 Uiso 0.2211(9) 1 calc PR A 3
C25J C 1.4528(14) 0.6080(10) 0.1232(13) 0.21(2) Uiso 0.2211(9) 1 d PGU A 3
H268 H 1.4663 0.5843 0.1242 0.250 Uiso 0.2211(9) 1 calc PR A 3
N22J N 1.4238(16) 0.8399(9) 0.1113(12) 0.21(2) Uiso 0.2211(9) 1 d PGU A 3
C26J C 1.4009(12) 0.8277(13) 0.1121(12) 0.19(2) Uiso 0.2211(9) 1 d PGU A 3
H269 H 1.3807 0.8441 0.1055 0.228 Uiso 0.2211(9) 1 calc PR A 3
C27J C 1.4081(14) 0.7911(15) 0.1230(13) 0.19(3) Uiso 0.2211(9) 1 d PGU A 3
H270 H 1.3927 0.7830 0.1236 0.231 Uiso 0.2211(9) 1 calc PR A 3
C28J C 1.4383(17) 0.7667(9) 0.1330(14) 0.22(2) Uiso 0.2211(9) 1 d PGDU A 3
C29J C 1.4612(13) 0.7789(14) 0.1322(15) 0.23(3) Uiso 0.2211(9) 1 d PGU A 3
H271 H 1.4814 0.7626 0.1388 0.281 Uiso 0.2211(9) 1 calc PR A 3
C30J C 1.4540(14) 0.8155(16) 0.1213(14) 0.21(2) Uiso 0.2211(9) 1 d PGU A 3
H272 H 1.4694 0.8237 0.1207 0.249 Uiso 0.2211(9) 1 calc PR A 3
N23J N 1.4408(16) 0.7200(16) 0.1198(13) 0.21(2) Uiso 0.2211(9) 1 d PDU A 3
N24J N 1.4587(18) 0.6848(16) 0.1231(14) 0.23(2) Uiso 0.2211(9) 1 d PDU A 3
C31J C 1.4880(19) 0.678(2) 0.1301(16) 0.27(3) Uiso 0.2211(9) 1 d PDU A 3
H547 H 1.5054 0.6551 0.1339 0.326 Uiso 0.2211(9) 1 calc PR A 3
C32J C 1.4901(19) 0.706(2) 0.1313(18) 0.26(3) Uiso 0.2211(9) 1 d PDU A 3
H548 H 1.5074 0.7075 0.1354 0.316 Uiso 0.2211(9) 1 calc PR A 3
C33J C 1.4580(19) 0.7334(14) 0.1243(16) 0.20(2) Uiso 0.2211(9) 1 d PDU A 3
N21K N 1.3768(17) 0.8843(11) 0.1603(10) 0.194(19) Uiso 0.2211(9) 1 d PGU A 3
C21K C 1.3411(17) 0.8874(11) 0.1719(16) 0.22(2) Uiso 0.2211(9) 1 d PGU A 3
H273 H 1.3305 0.8950 0.1553 0.265 Uiso 0.2211(9) 1 calc PR A 3
C22K C 1.3212(12) 0.8794(15) 0.2083(19) 0.23(3) Uiso 0.2211(9) 1 d PGU A 3
H274 H 1.2973 0.8815 0.2160 0.278 Uiso 0.2211(9) 1 calc PR A 3
C23K C 1.337(2) 0.8681(16) 0.2331(10) 0.25(2) Uiso 0.2211(9) 1 d PGDU A 3
C24K C 1.373(2) 0.8649(15) 0.2215(16) 0.28(3) Uiso 0.2211(9) 1 d PGU A 3
H275 H 1.3833 0.8574 0.2381 0.333 Uiso 0.2211(9) 1 calc PR A 3
C25K C 1.3926(12) 0.8730(14) 0.1851(19) 0.22(2) Uiso 0.2211(9) 1 d PGU A 3
H276 H 1.4164 0.8709 0.1774 0.269 Uiso 0.2211(9) 1 calc PR A 3
N22K N 1.1587(11) 0.8883(12) 0.3748(17) 0.21(2) Uiso 0.2211(9) 1 d PGU A 3
C26K C 1.1737(18) 0.8903(12) 0.3391(17) 0.22(3) Uiso 0.2211(9) 1 d PGU A 3
H277 H 1.1589 0.8979 0.3264 0.267 Uiso 0.2211(9) 1 calc PR A 3
C27K C 1.211(2) 0.8811(15) 0.3223(11) 0.25(3) Uiso 0.2211(9) 1 d PGU A 3
H278 H 1.2206 0.8824 0.2984 0.297 Uiso 0.2211(9) 1 calc PR A 3
C28K C 1.2327(11) 0.8698(16) 0.3413(19) 0.23(2) Uiso 0.2211(9) 1 d PGDU A 3
C29K C 1.2177(17) 0.8678(14) 0.3770(18) 0.22(2) Uiso 0.2211(9) 1 d PGU A 3
H279 H 1.2325 0.8603 0.3897 0.268 Uiso 0.2211(9) 1 calc PR A 3
C30K C 1.1807(18) 0.8771(13) 0.3938(11) 0.20(2) Uiso 0.2211(9) 1 d PGU A 3
H280 H 1.1707 0.8757 0.4177 0.244 Uiso 0.2211(9) 1 calc PR A 3
N23K N 1.2797(19) 0.8821(11) 0.2780(17) 0.202(19) Uiso 0.2211(9) 1 d PDU A 3
N24K N 1.3154(19) 0.8773(13) 0.2644(14) 0.22(2) Uiso 0.2211(9) 1 d PDU A 3
C31K C 1.325(3) 0.8701(16) 0.293(2) 0.29(3) Uiso 0.2211(9) 1 d PDU A 3
H549 H 1.3473 0.8657 0.2916 0.345 Uiso 0.2211(9) 1 calc PR A 3
C32K C 1.294(3) 0.8705(18) 0.323(3) 0.29(3) Uiso 0.2211(9) 1 d PDU A 3
H550 H 1.2926 0.8659 0.3455 0.342 Uiso 0.2211(9) 1 calc PR A 3
C33K C 1.2643(17) 0.8792(16) 0.3128(17) 0.20(2) Uiso 0.2211(9) 1 d PDU A 3
N21L N 1.1175(13) 0.8389(9) 0.4178(13) 0.193(19) Uiso 0.2211(9) 1 d PGU A 3
C21L C 1.1104(14) 0.8246(14) 0.4023(12) 0.21(2) Uiso 0.2211(9) 1 d PGU A 3
H281 H 1.1043 0.8390 0.3815 0.250 Uiso 0.2211(9) 1 calc PR A 3
C22L C 1.1124(17) 0.7889(16) 0.4178(17) 0.25(3) Uiso 0.2211(9) 1 d PGU A 3
H282 H 1.1076 0.7793 0.4074 0.300 Uiso 0.2211(9) 1 calc PR A 3
C23L C 1.1214(18) 0.7674(9) 0.4489(17) 0.24(2) Uiso 0.2211(9) 1 d PGDU A 3
C24L C 1.1285(15) 0.7817(13) 0.4644(12) 0.22(3) Uiso 0.2211(9) 1 d PGU A 3
H283 H 1.1346 0.7673 0.4852 0.259 Uiso 0.2211(9) 1 calc PR A 3
C25L C 1.1265(13) 0.8174(14) 0.4489(13) 0.17(2) Uiso 0.2211(9) 1 d PGU A 3
H284 H 1.1313 0.8270 0.4593 0.209 Uiso 0.2211(9) 1 calc PR A 3
N22L N 1.1120(13) 0.6255(15) 0.4220(15) 0.201(19) Uiso 0.2211(9) 1 d PGU A 3
C26L C 1.1075(14) 0.6618(15) 0.4040(12) 0.22(2) Uiso 0.2211(9) 1 d PGU A 3
H285 H 1.0996 0.6740 0.3844 0.258 Uiso 0.2211(9) 1 calc PR A 3
C27L C 1.1148(17) 0.6799(11) 0.4154(17) 0.26(3) Uiso 0.2211(9) 1 d PGU A 3
H286 H 1.1118 0.7042 0.4033 0.310 Uiso 0.2211(9) 1 calc PR A 3
C28L C 1.1266(19) 0.6617(18) 0.4447(19) 0.25(2) Uiso 0.2211(9) 1 d PGDU A 3
C29L C 1.1311(17) 0.6253(18) 0.4627(14) 0.25(3) Uiso 0.2211(9) 1 d PGU A 3
H287 H 1.1390 0.6131 0.4823 0.301 Uiso 0.2211(9) 1 calc PR A 3
C30L C 1.1238(15) 0.6072(10) 0.4514(14) 0.23(3) Uiso 0.2211(9) 1 d PGU A 3
H288 H 1.1268 0.5829 0.4634 0.273 Uiso 0.2211(9) 1 calc PR A 3
N23L N 1.1223(12) 0.7198(15) 0.4362(13) 0.186(18) Uiso 0.2211(9) 1 d PDU A 3
N24L N 1.1233(14) 0.7328(11) 0.4567(16) 0.209(19) Uiso 0.2211(9) 1 d PDU A 3
C31L C 1.1286(16) 0.7074(19) 0.4888(17) 0.24(2) Uiso 0.2211(9) 1 d PDU A 3
H551 H 1.1301 0.7112 0.5062 0.286 Uiso 0.2211(9) 1 calc PR A 3
C32L C 1.1315(18) 0.675(2) 0.4902(17) 0.25(3) Uiso 0.2211(9) 1 d PDU A 3
H552 H 1.1354 0.6524 0.5078 0.295 Uiso 0.2211(9) 1 calc PR A 3
C33L C 1.1269(16) 0.6854(14) 0.4571(16) 0.18(2) Uiso 0.2211(9) 1 d PDU A 3
N41A N 0.8974(14) 1.0557(11) 0.4339(18) 0.26(2) Uiso 0.2211(9) 1 d PGU A 4
C41A C 0.9123(15) 1.0303(19) 0.4175(12) 0.25(3) Uiso 0.2211(9) 1 d PGU A 4
H289 H 0.9164 1.0376 0.3932 0.301 Uiso 0.2211(9) 1 calc PR A 4
C42A C 0.9211(14) 0.9939(16) 0.438(2) 0.25(3) Uiso 0.2211(9) 1 d PGU A 4
H290 H 0.9310 0.9769 0.4266 0.301 Uiso 0.2211(9) 1 calc PR A 4
C43A C 0.9150(16) 0.9830(11) 0.4740(19) 0.27(2) Uiso 0.2211(9) 1 d PGDU A 4
C44A C 0.9001(16) 1.008(2) 0.4903(12) 0.27(3) Uiso 0.2211(9) 1 d PGU A 4
H291 H 0.8960 1.0011 0.5147 0.330 Uiso 0.2211(9) 1 calc PR A 4
C45A C 0.8913(14) 1.0447(17) 0.4703(19) 0.25(3) Uiso 0.2211(9) 1 d PGU A 4
H292 H 0.8814 1.0617 0.4812 0.304 Uiso 0.2211(9) 1 calc PR A 4
N42A N 1.0108(13) 0.7929(11) 0.4807(16) 0.20(3) Uiso 0.2211(9) 1 d PGU A 4
C46A C 0.9986(15) 0.8228(16) 0.4538(11) 0.19(2) Uiso 0.2211(9) 1 d PGU A 4
H293 H 1.0052 0.8210 0.4317 0.233 Uiso 0.2211(9) 1 calc PR A 4
C47A C 0.9764(15) 0.8553(12) 0.4598(14) 0.19(2) Uiso 0.2211(9) 1 d PGU A 4
H294 H 0.9683 0.8753 0.4418 0.228 Uiso 0.2211(9) 1 calc PR A 4
C48A C 0.9665(14) 0.8579(12) 0.4928(17) 0.21(2) Uiso 0.2211(9) 1 d PGDU A 4
C49A C 0.9788(16) 0.8280(18) 0.5198(13) 0.22(3) Uiso 0.2211(9) 1 d PGU A 4
H295 H 0.9722 0.8298 0.5419 0.260 Uiso 0.2211(9) 1 calc PR A 4
C50A C 1.0009(15) 0.7955(14) 0.5137(14) 0.22(3) Uiso 0.2211(9) 1 d PGU A 4
H296 H 1.0091 0.7755 0.5317 0.258 Uiso 0.2211(9) 1 calc PR A 4
N43A N 0.940(2) 0.920(3) 0.480(2) 0.28(3) Uiso 0.2211(9) 1 d PDU A 4
N44A N 0.913(3) 0.9482(15) 0.491(3) 0.32(3) Uiso 0.2211(9) 1 d PDU A 4
C51A C 0.902(3) 0.931(3) 0.527(3) 0.34(3) Uiso 0.2211(9) 1 d PDU A 4
H553 H 0.8829 0.9425 0.5434 0.409 Uiso 0.2211(9) 1 calc PR A 4
C52A C 0.921(2) 0.894(3) 0.539(2) 0.28(3) Uiso 0.2211(9) 1 d PDU A 4
H554 H 0.9177 0.8782 0.5624 0.333 Uiso 0.2211(9) 1 calc PR A 4
C53A C 0.946(2) 0.888(2) 0.506(3) 0.24(2) Uiso 0.2211(9) 1 d PDU A 4
N41B N 0.9477(14) 1.1002(15) 0.386(2) 0.28(2) Uiso 0.2211(9) 1 d PGU A 4
C41B C 0.973(2) 1.0848(15) 0.3598(18) 0.30(3) Uiso 0.2211(9) 1 d PGU A 4
H297 H 0.9657 1.0793 0.3480 0.355 Uiso 0.2211(9) 1 calc PR A 4
C42B C 1.009(2) 1.0777(13) 0.3509(14) 0.26(3) Uiso 0.2211(9) 1 d PGU A 4
H298 H 1.0262 1.0674 0.3332 0.310 Uiso 0.2211(9) 1 calc PR A 4
C43B C 1.0202(14) 1.0860(16) 0.369(2) 0.29(3) Uiso 0.2211(9) 1 d PGDU A 4
C44B C 0.995(3) 1.1014(16) 0.3951(19) 0.28(3) Uiso 0.2211(9) 1 d PGU A 4
H299 H 1.0022 1.1069 0.4069 0.340 Uiso 0.2211(9) 1 calc PR A 4
C45B C 0.959(2) 1.1085(13) 0.4040(13) 0.27(3) Uiso 0.2211(9) 1 d PGU A 4
H300 H 0.9417 1.1188 0.4218 0.324 Uiso 0.2211(9) 1 calc PR A 4
N42B N 1.205(2) 0.9887(17) 0.281(2) 0.26(3) Uiso 0.2211(9) 1 d PGU A 4
C46B C 1.174(3) 1.003(2) 0.2736(18) 0.28(3) Uiso 0.2211(9) 1 d PGU A 4
H301 H 1.1736 0.9986 0.2560 0.340 Uiso 0.2211(9) 1 calc PR A 4
C47B C 1.143(2) 1.025(2) 0.292(2) 0.27(3) Uiso 0.2211(9) 1 d PGU A 4
H302 H 1.1217 1.0345 0.2871 0.321 Uiso 0.2211(9) 1 calc PR A 4
C48B C 1.143(2) 1.0317(17) 0.318(2) 0.28(3) Uiso 0.2211(9) 1 d PGDU A 4
C49B C 1.174(3) 1.017(2) 0.3260(16) 0.25(3) Uiso 0.2211(9) 1 d PGU A 4
H303 H 1.1746 1.0218 0.3436 0.302 Uiso 0.2211(9) 1 calc PR A 4
C50B C 1.206(2) 0.996(2) 0.307(2) 0.26(3) Uiso 0.2211(9) 1 d PGU A 4
H304 H 1.2265 0.9860 0.3125 0.306 Uiso 0.2211(9) 1 calc PR A 4
N43B N 1.078(3) 1.062(3) 0.341(2) 0.33(3) Uiso 0.2211(9) 1 d PDU A 4
N44B N 1.0538(19) 1.091(3) 0.352(3) 0.35(3) Uiso 0.2211(9) 1 d PDU A 4
C51B C 1.073(4) 1.097(3) 0.362(3) 0.37(3) Uiso 0.2211(9) 1 d PDU A 4
H555 H 1.0640 1.1159 0.3711 0.444 Uiso 0.2211(9) 1 calc PR A 4
C52B C 1.108(4) 1.073(3) 0.357(3) 0.31(3) Uiso 0.2211(9) 1 d PDU A 4
H556 H 1.1253 1.0723 0.3630 0.375 Uiso 0.2211(9) 1 calc PR A 4
C53B C 1.111(3) 1.051(2) 0.342(2) 0.31(3) Uiso 0.2211(9) 1 d PDU A 4
N41C N 0.9460(14) 1.3854(18) 0.1003(14) 0.25(2) Uiso 0.2211(9) 1 d PGU A 4
C41C C 0.975(2) 1.3594(15) 0.0855(14) 0.26(3) Uiso 0.2211(9) 1 d PGU A 4
H305 H 0.9703 1.3462 0.0786 0.313 Uiso 0.2211(9) 1 calc PR A 4
C42C C 1.0093(17) 1.3531(13) 0.0811(13) 0.25(3) Uiso 0.2211(9) 1 d PGU A 4
H306 H 1.0284 1.3357 0.0712 0.303 Uiso 0.2211(9) 1 calc PR A 4
C43C C 1.0156(13) 1.3729(18) 0.0914(16) 0.26(2) Uiso 0.2211(9) 1 d PGDU A 4
C44C C 0.987(2) 1.3989(16) 0.1061(15) 0.26(3) Uiso 0.2211(9) 1 d PGU A 4
H307 H 0.9914 1.4121 0.1130 0.316 Uiso 0.2211(9) 1 calc PR A 4
C45C C 0.9523(16) 1.4051(12) 0.1105(13) 0.25(3) Uiso 0.2211(9) 1 d PGU A 4
H308 H 0.9332 1.4225 0.1204 0.304 Uiso 0.2211(9) 1 calc PR A 4
N42C N 1.2045(17) 1.2816(17) -0.0139(14) 0.23(3) Uiso 0.2211(9) 1 d PGU . 4
C46C C 1.173(2) 1.2726(15) 0.0036(19) 0.25(3) Uiso 0.2211(9) 1 d PGU A 4
H309 H 1.1723 1.2556 -0.0011 0.299 Uiso 0.2211(9) 1 calc PR A 4
C47C C 1.1442(15) 1.2890(19) 0.0281(18) 0.22(3) Uiso 0.2211(9) 1 d PGU A 4
H310 H 1.1235 1.2830 0.0398 0.270 Uiso 0.2211(9) 1 calc PR A 4
C48C C 1.1460(16) 1.3143(17) 0.0350(15) 0.24(2) Uiso 0.2211(9) 1 d PGDU A 4
C49C C 1.177(2) 1.3233(13) 0.0175(19) 0.23(3) Uiso 0.2211(9) 1 d PGU A 4
H311 H 1.1781 1.3403 0.0222 0.273 Uiso 0.2211(9) 1 calc PR A 4
C50C C 1.2062(15) 1.3069(17) -0.0069(17) 0.20(3) Uiso 0.2211(9) 1 d PGU A 4
H312 H 1.2270 1.3130 -0.0186 0.245 Uiso 0.2211(9) 1 calc PR A 4
N43C N 1.085(2) 1.3360(16) 0.0611(18) 0.27(2) Uiso 0.2211(9) 1 d PDU A 4
N44C N 1.0532(16) 1.358(2) 0.077(2) 0.31(3) Uiso 0.2211(9) 1 d PDU A 4
C51C C 1.066(4) 1.368(3) 0.091(3) 0.34(3) Uiso 0.2211(9) 1 d PDU A 4
H557 H 1.0514 1.3833 0.1046 0.408 Uiso 0.2211(9) 1 calc PR A 4
C52C C 1.103(3) 1.352(2) 0.083(2) 0.29(3) Uiso 0.2211(9) 1 d PDU A 4
H558 H 1.1166 1.3559 0.0897 0.350 Uiso 0.2211(9) 1 calc PR A 4
C53C C 1.1162(19) 1.330(2) 0.0626(19) 0.25(2) Uiso 0.2211(9) 1 d PDU A 4
N41D N 0.8987(14) 1.4362(17) 0.0537(11) 0.24(2) Uiso 0.2211(9) 1 d PGU A 4
C41D C 0.9118(14) 1.4198(11) 0.029(2) 0.27(3) Uiso 0.2211(9) 1 d PGU A 4
H313 H 0.9165 1.3952 0.0364 0.323 Uiso 0.2211(9) 1 calc PR A 4
C42D C 0.9177(14) 1.440(2) -0.0074(17) 0.26(3) Uiso 0.2211(9) 1 d PGU A 4
H314 H 0.9265 1.4290 -0.0240 0.314 Uiso 0.2211(9) 1 calc PR A 4
C43D C 0.9107(16) 1.4766(19) -0.0188(11) 0.28(3) Uiso 0.2211(9) 1 d PGDU A 4
C44D C 0.8977(16) 1.4931(11) 0.0061(19) 0.27(3) Uiso 0.2211(9) 1 d PGU A 4
H315 H 0.8929 1.5176 -0.0015 0.326 Uiso 0.2211(9) 1 calc PR A 4
C45D C 0.8917(14) 1.4729(18) 0.0423(16) 0.27(3) Uiso 0.2211(9) 1 d PGU A 4
H316 H 0.8830 1.4839 0.0589 0.323 Uiso 0.2211(9) 1 calc PR A 4
N42D N 1.0114(16) 1.472(2) -0.2039(19) 0.25(3) Uiso 0.2211(9) 1 d PGU . 4
C46D C 0.9953(19) 1.4497(14) -0.171(2) 0.26(3) Uiso 0.2211(9) 1 d PGU A 4
H317 H 1.0005 1.4262 -0.1687 0.307 Uiso 0.2211(9) 1 calc PR A 4
C47D C 0.9716(19) 1.4624(19) -0.1427(16) 0.24(3) Uiso 0.2211(9) 1 d PGU A 4
H318 H 0.9608 1.4474 -0.1209 0.291 Uiso 0.2211(9) 1 calc PR A 4
C48D C 0.9638(16) 1.497(2) -0.1466(17) 0.24(2) Uiso 0.2211(9) 1 d PGDU A 4
C49D C 0.980(2) 1.5199(14) -0.179(2) 0.24(3) Uiso 0.2211(9) 1 d PGU A 4
H319 H 0.9747 1.5434 -0.1818 0.291 Uiso 0.2211(9) 1 calc PR A 4
C50D C 1.0036(19) 1.507(2) -0.2079(16) 0.24(3) Uiso 0.2211(9) 1 d PGU A 4
H320 H 1.0144 1.5222 -0.2297 0.288 Uiso 0.2211(9) 1 calc PR A 4
N43D N 0.9342(18) 1.477(2) -0.081(2) 0.27(3) Uiso 0.2211(9) 1 d PDU A 4
N44D N 0.9291(17) 1.489(2) -0.0564(12) 0.28(2) Uiso 0.2211(9) 1 d PDU A 4
C51D C 0.927(2) 1.525(2) -0.073(3) 0.32(3) Uiso 0.2211(9) 1 d PDU A 4
H559 H 0.9242 1.5392 -0.0621 0.383 Uiso 0.2211(9) 1 calc PR A 4
C52D C 0.931(2) 1.535(3) -0.108(3) 0.33(3) Uiso 0.2211(9) 1 d PDU A 4
H560 H 0.9291 1.5572 -0.1252 0.393 Uiso 0.2211(9) 1 calc PR A 4
C53D C 0.936(2) 1.503(3) -0.1126(18) 0.26(3) Uiso 0.2211(9) 1 d PDU A 4
N41E N 0.6124(17) 1.4358(16) 0.0548(11) 0.22(2) Uiso 0.2211(9) 1 d PGU A 4
C41E C 0.6413(15) 1.4203(11) 0.0295(19) 0.25(3) Uiso 0.2211(9) 1 d PGU A 4
H321 H 0.6549 1.3962 0.0369 0.304 Uiso 0.2211(9) 1 calc PR A 4
C42E C 0.6498(13) 1.4408(19) -0.0067(16) 0.24(3) Uiso 0.2211(9) 1 d PGU A 4
H322 H 0.6692 1.4304 -0.0236 0.289 Uiso 0.2211(9) 1 calc PR A 4
C43E C 0.6294(18) 1.4768(18) -0.0177(11) 0.26(2) Uiso 0.2211(9) 1 d PGDU A 4
C44E C 0.6005(16) 1.4923(10) 0.0076(19) 0.25(2) Uiso 0.2211(9) 1 d PGU A 4
H323 H 0.5868 1.5164 0.0003 0.295 Uiso 0.2211(9) 1 calc PR A 4
C45E C 0.5920(12) 1.4718(17) 0.0438(16) 0.25(3) Uiso 0.2211(9) 1 d PGU A 4
H324 H 0.5726 1.4822 0.0607 0.296 Uiso 0.2211(9) 1 calc PR A 4
N42E N 0.7215(16) 1.471(2) -0.2032(17) 0.25(3) Uiso 0.2211(9) 1 d PGU . 4
C46E C 0.7248(17) 1.4478(13) -0.170(2) 0.26(3) Uiso 0.2211(9) 1 d PGU A 4
H325 H 0.7400 1.4242 -0.1666 0.318 Uiso 0.2211(9) 1 calc PR A 4
C47E C 0.705(2) 1.4602(18) -0.1406(15) 0.22(3) Uiso 0.2211(9) 1 d PGU A 4
H326 H 0.7074 1.4449 -0.1182 0.268 Uiso 0.2211(9) 1 calc PR A 4
C48E C 0.6824(17) 1.496(2) -0.1452(16) 0.23(2) Uiso 0.2211(9) 1 d PGDU A 4
C49E C 0.6791(15) 1.5186(14) -0.179(2) 0.25(3) Uiso 0.2211(9) 1 d PGU A 4
H327 H 0.6638 1.5422 -0.1818 0.301 Uiso 0.2211(9) 1 calc PR A 4
C50E C 0.6987(18) 1.5062(19) -0.2078(14) 0.21(3) Uiso 0.2211(9) 1 d PGU A 4
H328 H 0.6965 1.5215 -0.2302 0.247 Uiso 0.2211(9) 1 calc PR A 4
N43E N 0.6655(19) 1.476(2) -0.083(2) 0.27(3) Uiso 0.2211(9) 1 d PDU A 4
N44E N 0.643(2) 1.490(3) -0.0557(12) 0.30(3) Uiso 0.2211(9) 1 d PDU A 4
C51E C 0.632(3) 1.527(3) -0.067(3) 0.30(3) Uiso 0.2211(9) 1 d PDU A 4
H561 H 0.6179 1.5423 -0.0537 0.359 Uiso 0.2211(9) 1 calc PR A 4
C52E C 0.648(2) 1.536(2) -0.104(3) 0.25(3) Uiso 0.2211(9) 1 d PDU A 4
H562 H 0.6448 1.5593 -0.1206 0.302 Uiso 0.2211(9) 1 calc PR A 4
C53E C 0.669(2) 1.504(3) -0.1127(18) 0.24(2) Uiso 0.2211(9) 1 d PDU A 4
N41F N 0.5674(18) 1.3856(17) 0.1023(13) 0.23(2) Uiso 0.2211(9) 1 d PGU A 4
C41F C 0.5829(13) 1.3587(15) 0.0876(14) 0.25(3) Uiso 0.2211(9) 1 d PGU A 4
H329 H 0.6073 1.3459 0.0827 0.298 Uiso 0.2211(9) 1 calc PR A 4
C42F C 0.562(2) 1.3509(13) 0.0804(14) 0.29(3) Uiso 0.2211(9) 1 d PGU A 4
H330 H 0.5723 1.3329 0.0705 0.342 Uiso 0.2211(9) 1 calc PR A 4
C43F C 0.525(2) 1.3700(19) 0.0877(16) 0.27(2) Uiso 0.2211(9) 1 d PGDU A 4
C44F C 0.5099(12) 1.3969(17) 0.1024(16) 0.27(3) Uiso 0.2211(9) 1 d PGU A 4
H331 H 0.4854 1.4097 0.1073 0.321 Uiso 0.2211(9) 1 calc PR A 4
C45F C 0.531(2) 1.4047(12) 0.1097(13) 0.27(3) Uiso 0.2211(9) 1 d PGU A 4
H332 H 0.5205 1.4227 0.1195 0.329 Uiso 0.2211(9) 1 calc PR A 4
N42F N 0.522(2) 1.2850(17) -0.0124(13) 0.21(3) Uiso 0.2211(9) 1 d PGU . 4
C46F C 0.5469(13) 1.2766(14) 0.0014(17) 0.21(3) Uiso 0.2211(9) 1 d PGU A 4
H333 H 0.5700 1.2611 -0.0060 0.257 Uiso 0.2211(9) 1 calc PR A 4
C47F C 0.5377(18) 1.2914(17) 0.0264(16) 0.21(2) Uiso 0.2211(9) 1 d PGU A 4
H334 H 0.5547 1.2858 0.0356 0.248 Uiso 0.2211(9) 1 calc PR A 4
C48F C 0.503(2) 1.3146(16) 0.0375(13) 0.22(2) Uiso 0.2211(9) 1 d PGDU A 4
C49F C 0.4778(14) 1.3230(14) 0.0237(18) 0.24(3) Uiso 0.2211(9) 1 d PGU A 4
H335 H 0.4547 1.3385 0.0311 0.291 Uiso 0.2211(9) 1 calc PR A 4
C50F C 0.4870(18) 1.3082(18) -0.0013(17) 0.22(3) Uiso 0.2211(9) 1 d PGU A 4
H336 H 0.4700 1.3138 -0.0105 0.268 Uiso 0.2211(9) 1 calc PR A 4
N43F N 0.522(2) 1.3348(18) 0.0603(19) 0.27(2) Uiso 0.2211(9) 1 d PDU A 4
N44F N 0.510(3) 1.357(2) 0.078(2) 0.31(3) Uiso 0.2211(9) 1 d PDU A 4
C51F C 0.473(3) 1.373(2) 0.088(2) 0.33(3) Uiso 0.2211(9) 1 d PDU A 4
H563 H 0.4580 1.3887 0.1003 0.397 Uiso 0.2211(9) 1 calc PR A 4
C52F C 0.4610(19) 1.360(2) 0.075(2) 0.27(3) Uiso 0.2211(9) 1 d PDU A 4
H564 H 0.4377 1.3650 0.0772 0.329 Uiso 0.2211(9) 1 calc PR A 4
C53F C 0.493(3) 1.3360(18) 0.0585(18) 0.24(2) Uiso 0.2211(9) 1 d PDU A 4
N41G N 0.5666(15) 1.1018(9) 0.3850(13) 0.25(2) Uiso 0.2211(9) 1 d PGU A 4
C41G C 0.5817(13) 1.0891(11) 0.3567(13) 0.30(3) Uiso 0.2211(9) 1 d PGU A 4
H337 H 0.6060 1.0848 0.3434 0.358 Uiso 0.2211(9) 1 calc PR A 4
C42G C 0.5606(11) 1.0829(8) 0.3481(10) 0.30(3) Uiso 0.2211(9) 1 d PGU A 4
H338 H 0.5707 1.0745 0.3291 0.365 Uiso 0.2211(9) 1 calc PR A 4
C43G C 0.5242(11) 1.0893(7) 0.3678(10) 0.31(3) Uiso 0.2211(9) 1 d PGDU A 4
C44G C 0.5091(13) 1.1020(11) 0.3962(11) 0.30(3) Uiso 0.2211(9) 1 d PGU A 4
H339 H 0.4848 1.1063 0.4094 0.359 Uiso 0.2211(9) 1 calc PR A 4
C45G C 0.5303(15) 1.1082(10) 0.4047(12) 0.28(3) Uiso 0.2211(9) 1 d PGU A 4
H340 H 0.5201 1.1166 0.4237 0.339 Uiso 0.2211(9) 1 calc PR A 4
N42G N 0.5271(14) 0.9903(10) 0.2811(12) 0.21(2) Uiso 0.2211(9) 1 d PGU A 4
C46G C 0.5491(12) 1.0064(11) 0.2760(11) 0.23(3) Uiso 0.2211(9) 1 d PGU A 4
H341 H 0.5726 1.0015 0.2603 0.275 Uiso 0.2211(9) 1 calc PR A 4
C47G C 0.5359(11) 1.0297(8) 0.2942(9) 0.21(2) Uiso 0.2211(9) 1 d PGU A 4
H342 H 0.5506 1.0405 0.2907 0.250 Uiso 0.2211(9) 1 calc PR A 4
C48G C 0.5008(10) 1.0369(8) 0.3176(10) 0.24(2) Uiso 0.2211(9) 1 d PGDU A 4
C49G C 0.4788(12) 1.0209(12) 0.3227(12) 0.23(3) Uiso 0.2211(9) 1 d PGU A 4
H343 H 0.4553 1.0257 0.3384 0.277 Uiso 0.2211(9) 1 calc PR A 4
C50G C 0.4919(14) 0.9975(11) 0.3045(12) 0.20(3) Uiso 0.2211(9) 1 d PGU A 4
H344 H 0.4772 0.9868 0.3079 0.240 Uiso 0.2211(9) 1 calc PR A 4
N43G N 0.520(2) 1.060(2) 0.339(2) 0.28(3) Uiso 0.2211(9) 1 d PDU A 4
N44G N 0.504(3) 1.083(2) 0.357(2) 0.33(3) Uiso 0.2211(9) 1 d PDU A 4
C51G C 0.467(3) 1.095(2) 0.368(3) 0.32(3) Uiso 0.2211(9) 1 d PDU A 4
H565 H 0.4508 1.1106 0.3804 0.385 Uiso 0.2211(9) 1 calc PR A 4
C52G C 0.458(3) 1.078(2) 0.356(3) 0.27(3) Uiso 0.2211(9) 1 d PDU A 4
H566 H 0.4360 1.0800 0.3591 0.320 Uiso 0.2211(9) 1 calc PR A 4
C53G C 0.493(3) 1.0582(19) 0.3381(18) 0.23(2) Uiso 0.2211(9) 1 d PDU A 4
N41H N 0.6145(19) 1.0540(11) 0.4359(19) 0.25(2) Uiso 0.2211(9) 1 d PGU A 4
C41H C 0.6417(17) 1.028(2) 0.4199(13) 0.29(3) Uiso 0.2211(9) 1 d PGU A 4
H345 H 0.6554 1.0356 0.3957 0.342 Uiso 0.2211(9) 1 calc PR A 4
C42H C 0.6486(15) 0.9921(18) 0.440(2) 0.28(3) Uiso 0.2211(9) 1 d PGU A 4
H346 H 0.6668 0.9750 0.4292 0.334 Uiso 0.2211(9) 1 calc PR A 4
C43H C 0.628(2) 0.9814(12) 0.476(2) 0.28(3) Uiso 0.2211(9) 1 d PGDU A 4
C44H C 0.6010(19) 1.007(2) 0.4920(13) 0.28(3) Uiso 0.2211(9) 1 d PGU A 4
H347 H 0.5874 0.9998 0.5162 0.332 Uiso 0.2211(9) 1 calc PR A 4
C45H C 0.5942(14) 1.0433(19) 0.472(2) 0.28(3) Uiso 0.2211(9) 1 d PGU A 4
H348 H 0.5760 1.0604 0.4827 0.338 Uiso 0.2211(9) 1 calc PR A 4
N42H N 0.7165(15) 0.7953(13) 0.4756(18) 0.19(2) Uiso 0.2211(9) 1 d PGU A 4
C46H C 0.7229(14) 0.8272(17) 0.4507(12) 0.21(3) Uiso 0.2211(9) 1 d PGU A 4
H349 H 0.7378 0.8284 0.4272 0.252 Uiso 0.2211(9) 1 calc PR A 4
C47H C 0.7070(17) 0.8572(12) 0.4610(15) 0.19(2) Uiso 0.2211(9) 1 d PGU A 4
H350 H 0.7112 0.8785 0.4444 0.231 Uiso 0.2211(9) 1 calc PR A 4
C48H C 0.6847(15) 0.8553(13) 0.4962(18) 0.20(2) Uiso 0.2211(9) 1 d PGDU A 4
C49H C 0.6783(14) 0.8235(18) 0.5210(12) 0.22(3) Uiso 0.2211(9) 1 d PGU A 4
H351 H 0.6634 0.8222 0.5446 0.267 Uiso 0.2211(9) 1 calc PR A 4
C50H C 0.6942(16) 0.7934(13) 0.5108(16) 0.19(3) Uiso 0.2211(9) 1 d PGU A 4
H352 H 0.6900 0.7721 0.5274 0.225 Uiso 0.2211(9) 1 calc PR A 4
N43H N 0.665(2) 0.915(2) 0.483(3) 0.31(3) Uiso 0.2211(9) 1 d PDU A 4
N44H N 0.637(2) 0.9434(12) 0.493(3) 0.30(2) Uiso 0.2211(9) 1 d PDU A 4
C51H C 0.626(3) 0.926(3) 0.529(3) 0.30(3) Uiso 0.2211(9) 1 d PDU A 4
H567 H 0.6073 0.9387 0.5446 0.364 Uiso 0.2211(9) 1 calc PR A 4
C52H C 0.644(3) 0.890(3) 0.543(2) 0.25(3) Uiso 0.2211(9) 1 d PDU A 4
H568 H 0.6409 0.8744 0.5670 0.298 Uiso 0.2211(9) 1 calc PR A 4
C53H C 0.669(2) 0.884(2) 0.510(3) 0.23(2) Uiso 0.2211(9) 1 d PDU A 4
N41I N 0.613(2) 0.9002(13) 0.4342(19) 0.25(2) Uiso 0.2211(9) 1 d PGU A 5
C41I C 0.6410(17) 0.9131(14) 0.4203(13) 0.27(3) Uiso 0.2211(9) 1 d PGU A 5
H353 H 0.6553 0.9169 0.3963 0.322 Uiso 0.2211(9) 1 calc PR A 5
C42I C 0.6475(15) 0.9203(13) 0.442(2) 0.28(3) Uiso 0.2211(9) 1 d PGU A 5
H354 H 0.6662 0.9289 0.4331 0.332 Uiso 0.2211(9) 1 calc PR A 5
C43I C 0.626(2) 0.9145(15) 0.478(2) 0.29(3) Uiso 0.2211(9) 1 d PGDU A 5
C44I C 0.5983(18) 0.9017(15) 0.4922(12) 0.29(3) Uiso 0.2211(9) 1 d PGU A 5
H355 H 0.5841 0.8978 0.5162 0.344 Uiso 0.2211(9) 1 calc PR A 5
C45I C 0.5919(14) 0.8945(13) 0.470(2) 0.28(3) Uiso 0.2211(9) 1 d PGU A 5
H356 H 0.5732 0.8859 0.4794 0.332 Uiso 0.2211(9) 1 calc PR A 5
N42I N 0.7120(17) 1.0172(13) 0.476(2) 0.22(3) Uiso 0.2211(9) 1 d PGU A 5
C46I C 0.7215(16) 1.0037(17) 0.4503(13) 0.25(3) Uiso 0.2211(9) 1 d PGU A 5
H357 H 0.7365 1.0123 0.4272 0.296 Uiso 0.2211(9) 1 calc PR A 5
C47I C 0.7087(18) 0.9776(17) 0.4587(17) 0.22(2) Uiso 0.2211(9) 1 d PGU A 5
H358 H 0.7151 0.9686 0.4412 0.260 Uiso 0.2211(9) 1 calc PR A 5
C48I C 0.6863(16) 0.9649(13) 0.493(2) 0.21(2) Uiso 0.2211(9) 1 d PGDU A 5
C49I C 0.6767(15) 0.9783(17) 0.5194(13) 0.22(3) Uiso 0.2211(9) 1 d PGU A 5
H359 H 0.6618 0.9698 0.5425 0.261 Uiso 0.2211(9) 1 calc PR A 5
C50I C 0.6896(18) 1.0044(17) 0.5110(17) 0.22(3) Uiso 0.2211(9) 1 d PGU A 5
H360 H 0.6832 1.0134 0.5285 0.261 Uiso 0.2211(9) 1 calc PR A 5
N43I N 0.6680(19) 0.936(2) 0.481(3) 0.31(3) Uiso 0.2211(9) 1 d PDU A 5
N44I N 0.652(2) 0.915(3) 0.487(4) 0.34(3) Uiso 0.2211(9) 1 d PDU A 5
C51I C 0.638(3) 0.903(3) 0.524(4) 0.35(3) Uiso 0.2211(9) 1 d PDU A 5
H569 H 0.6251 0.8873 0.5378 0.422 Uiso 0.2211(9) 1 calc PR A 5
C52I C 0.647(2) 0.917(2) 0.538(3) 0.29(3) Uiso 0.2211(9) 1 d PDU A 5
H570 H 0.6405 0.9128 0.5623 0.348 Uiso 0.2211(9) 1 calc PR A 5
C53I C 0.666(2) 0.940(2) 0.509(3) 0.25(3) Uiso 0.2211(9) 1 d PDU A 5
N41J N 0.567(2) 0.9444(11) 0.3850(18) 0.23(2) Uiso 0.2211(9) 1 d PGU A 5
C41J C 0.5838(13) 0.969(2) 0.3575(16) 0.27(3) Uiso 0.2211(9) 1 d PGU A 5
H361 H 0.6082 0.9618 0.3449 0.328 Uiso 0.2211(9) 1 calc PR A 5
C42J C 0.564(2) 1.0058(18) 0.3489(14) 0.27(3) Uiso 0.2211(9) 1 d PGU A 5
H362 H 0.5751 1.0225 0.3305 0.320 Uiso 0.2211(9) 1 calc PR A 5
C43J C 0.527(2) 1.0171(11) 0.368(2) 0.28(3) Uiso 0.2211(9) 1 d PGDU A 5
C44J C 0.5109(13) 0.992(2) 0.3953(18) 0.27(3) Uiso 0.2211(9) 1 d PGU A 5
H363 H 0.4865 0.9997 0.4079 0.326 Uiso 0.2211(9) 1 calc PR A 5
C45J C 0.531(2) 0.9557(18) 0.4039(13) 0.25(3) Uiso 0.2211(9) 1 d PGU A 5
H364 H 0.5197 0.9390 0.4222 0.299 Uiso 0.2211(9) 1 calc PR A 5
N42J N 0.523(2) 1.2053(15) 0.2834(17) 0.22(3) Uiso 0.2211(9) 1 d PGU A 5
C46J C 0.5490(15) 1.174(2) 0.2762(16) 0.23(3) Uiso 0.2211(9) 1 d PGU A 5
H365 H 0.5719 1.1739 0.2601 0.280 Uiso 0.2211(9) 1 calc PR A 5
C47J C 0.5404(18) 1.1428(15) 0.2930(19) 0.23(3) Uiso 0.2211(9) 1 d PGU A 5
H366 H 0.5577 1.1218 0.2882 0.274 Uiso 0.2211(9) 1 calc PR A 5
C48J C 0.506(2) 1.1429(15) 0.3170(17) 0.21(2) Uiso 0.2211(9) 1 d PGDU A 5
C49J C 0.4804(15) 1.174(2) 0.3242(15) 0.23(3) Uiso 0.2211(9) 1 d PGU A 5
H367 H 0.4575 1.1742 0.3402 0.275 Uiso 0.2211(9) 1 calc PR A 5
C50J C 0.489(2) 1.2054(15) 0.3073(19) 0.24(3) Uiso 0.2211(9) 1 d PGU A 5
H368 H 0.4717 1.2263 0.3121 0.286 Uiso 0.2211(9) 1 calc PR A 5
N43J N 0.518(3) 1.083(3) 0.340(2) 0.31(3) Uiso 0.2211(9) 1 d PDU A 5
N44J N 0.507(3) 1.0540(13) 0.363(3) 0.32(3) Uiso 0.2211(9) 1 d PDU A 5
C51J C 0.471(3) 1.070(3) 0.375(3) 0.32(3) Uiso 0.2211(9) 1 d PDU A 5
H571 H 0.4556 1.0571 0.3915 0.388 Uiso 0.2211(9) 1 calc PR A 5
C52J C 0.458(2) 1.107(3) 0.362(2) 0.27(3) Uiso 0.2211(9) 1 d PDU A 5
H572 H 0.4341 1.1233 0.3666 0.329 Uiso 0.2211(9) 1 calc PR A 5
C53J C 0.491(3) 1.114(2) 0.340(2) 0.26(3) Uiso 0.2211(9) 1 d PDU A 5
N41K N 0.5640(19) 0.9463(10) 0.1015(14) 0.23(2) Uiso 0.2211(9) 1 d PGU A 5
C41K C 0.5820(12) 0.970(2) 0.0853(14) 0.26(3) Uiso 0.2211(9) 1 d PGU A 5
H369 H 0.6068 0.9622 0.0796 0.308 Uiso 0.2211(9) 1 calc PR A 5
C42K C 0.563(2) 1.0071(17) 0.0777(13) 0.25(3) Uiso 0.2211(9) 1 d PGU A 5
H370 H 0.5752 1.0233 0.0669 0.305 Uiso 0.2211(9) 1 calc PR A 5
C43K C 0.526(2) 1.0195(10) 0.0862(16) 0.26(2) Uiso 0.2211(9) 1 d PGDU A 5
C44K C 0.5080(12) 0.995(2) 0.1024(16) 0.26(3) Uiso 0.2211(9) 1 d PGU A 5
H371 H 0.4833 1.0035 0.1081 0.311 Uiso 0.2211(9) 1 calc PR A 5
C45K C 0.527(2) 0.9587(18) 0.1100(13) 0.26(3) Uiso 0.2211(9) 1 d PGU A 5
H372 H 0.5149 0.9425 0.1208 0.317 Uiso 0.2211(9) 1 calc PR A 5
N42K N 0.522(2) 1.2043(14) -0.0090(12) 0.19(2) Uiso 0.2211(9) 1 d PGU . 5
C46K C 0.5466(13) 1.1730(19) 0.0051(15) 0.20(3) Uiso 0.2211(9) 1 d PGU A 5
H373 H 0.5695 1.1727 -0.0011 0.239 Uiso 0.2211(9) 1 calc PR A 5
C47K C 0.5374(18) 1.1422(13) 0.0282(16) 0.21(2) Uiso 0.2211(9) 1 d PGU A 5
H374 H 0.5541 1.1213 0.0376 0.258 Uiso 0.2211(9) 1 calc PR A 5
C48K C 0.503(2) 1.1427(15) 0.0374(14) 0.25(2) Uiso 0.2211(9) 1 d PGDU A 5
C49K C 0.4783(15) 1.174(2) 0.0234(18) 0.24(3) Uiso 0.2211(9) 1 d PGU A 5
H375 H 0.4554 1.1743 0.0295 0.293 Uiso 0.2211(9) 1 calc PR A 5
C50K C 0.4875(18) 1.2048(16) 0.0002(16) 0.22(3) Uiso 0.2211(9) 1 d PGU A 5
H376 H 0.4708 1.2257 -0.0092 0.263 Uiso 0.2211(9) 1 calc PR A 5
N43K N 0.515(3) 1.086(3) 0.067(2) 0.32(3) Uiso 0.2211(9) 1 d PDU A 5
N44K N 0.510(3) 1.0569(12) 0.0714(17) 0.28(3) Uiso 0.2211(9) 1 d PDU A 5
C51K C 0.474(3) 1.070(3) 0.074(2) 0.30(3) Uiso 0.2211(9) 1 d PDU A 5
H573 H 0.4619 1.0572 0.0772 0.363 Uiso 0.2211(9) 1 calc PR A 5
C52K C 0.459(2) 1.106(3) 0.072(2) 0.29(3) Uiso 0.2211(9) 1 d PDU A 5
H574 H 0.4348 1.1204 0.0743 0.350 Uiso 0.2211(9) 1 calc PR A 5
C53K C 0.486(3) 1.116(3) 0.0664(19) 0.26(3) Uiso 0.2211(9) 1 d PDU A 5
N41L N 0.6128(19) 0.9006(13) 0.0543(12) 0.25(2) Uiso 0.2211(9) 1 d PGU A 5
C41L C 0.6410(17) 0.9136(14) 0.029(2) 0.27(3) Uiso 0.2211(9) 1 d PGU A 5
H377 H 0.6537 0.9178 0.0367 0.323 Uiso 0.2211(9) 1 calc PR A 5
C42L C 0.6503(14) 0.9202(13) -0.0070(19) 0.27(3) Uiso 0.2211(9) 1 d PGU A 5
H378 H 0.6692 0.9290 -0.0238 0.320 Uiso 0.2211(9) 1 calc PR A 5
C43L C 0.631(2) 0.9139(16) -0.0182(13) 0.29(3) Uiso 0.2211(9) 1 d PGDU A 5
C44L C 0.6031(19) 0.9009(16) 0.007(2) 0.29(3) Uiso 0.2211(9) 1 d PGU A 5
H379 H 0.5904 0.8967 -0.0006 0.342 Uiso 0.2211(9) 1 calc PR A 5
C45L C 0.5939(13) 0.8942(13) 0.043(2) 0.26(3) Uiso 0.2211(9) 1 d PGU A 5
H380 H 0.5750 0.8855 0.0599 0.314 Uiso 0.2211(9) 1 calc PR A 5
N42L N 0.713(2) 1.0152(14) -0.2092(14) 0.24(3) Uiso 0.2211(9) 1 d PGU . 5
C46L C 0.7248(16) 1.0024(19) -0.181(2) 0.26(3) Uiso 0.2211(9) 1 d PGU A 5
H381 H 0.7415 1.0102 -0.1831 0.315 Uiso 0.2211(9) 1 calc PR A 5
C47L C 0.7114(19) 0.9778(18) -0.1484(16) 0.24(3) Uiso 0.2211(9) 1 d PGU A 5
H382 H 0.7191 0.9692 -0.1293 0.283 Uiso 0.2211(9) 1 calc PR A 5
C48L C 0.6865(18) 0.9661(14) -0.1447(15) 0.21(2) Uiso 0.2211(9) 1 d PGDU A 5
C49L C 0.6750(15) 0.9789(18) -0.173(2) 0.24(3) Uiso 0.2211(9) 1 d PGU A 5
H383 H 0.6584 0.9711 -0.1708 0.288 Uiso 0.2211(9) 1 calc PR A 5
C50L C 0.688(2) 1.0035(18) -0.2055(17) 0.24(3) Uiso 0.2211(9) 1 d PGU A 5
H384 H 0.6807 1.0121 -0.2246 0.288 Uiso 0.2211(9) 1 calc PR A 5
N43L N 0.666(2) 0.937(2) -0.081(3) 0.30(3) Uiso 0.2211(9) 1 d PDU A 5
N44L N 0.641(3) 0.921(2) -0.0552(14) 0.34(3) Uiso 0.2211(9) 1 d PDU A 5
C51L C 0.627(3) 0.914(2) -0.071(3) 0.35(3) Uiso 0.2211(9) 1 d PDU A 5
H575 H 0.6094 0.9035 -0.0595 0.414 Uiso 0.2211(9) 1 calc PR A 5
C52L C 0.644(3) 0.927(2) -0.108(3) 0.26(3) Uiso 0.2211(9) 1 d PDU A 5
H576 H 0.6392 0.9266 -0.1254 0.308 Uiso 0.2211(9) 1 calc PR A 5
C53L C 0.669(2) 0.9406(19) -0.114(2) 0.25(2) Uiso 0.2211(9) 1 d PDU A 5
N41M N 0.8997(15) 0.6127(18) 0.0536(12) 0.26(2) Uiso 0.2211(9) 1 d PGU A 5
C41M C 0.9130(14) 0.6404(15) 0.027(2) 0.27(3) Uiso 0.2211(9) 1 d PGU A 5
H385 H 0.9182 0.6534 0.0333 0.327 Uiso 0.2211(9) 1 calc PR A 5
C42M C 0.9185(14) 0.6486(13) -0.0086(17) 0.23(2) Uiso 0.2211(9) 1 d PGU A 5
H386 H 0.9274 0.6672 -0.0263 0.278 Uiso 0.2211(9) 1 calc PR A 5
C43M C 0.9108(17) 0.6292(19) -0.0179(13) 0.29(3) Uiso 0.2211(9) 1 d PGDU A 5
C44M C 0.8975(17) 0.6015(17) 0.009(2) 0.30(3) Uiso 0.2211(9) 1 d PGU A 5
H387 H 0.8922 0.5885 0.0023 0.354 Uiso 0.2211(9) 1 calc PR A 5
C45M C 0.8919(14) 0.5932(13) 0.0443(18) 0.27(3) Uiso 0.2211(9) 1 d PGU A 5
H388 H 0.8830 0.5747 0.0620 0.320 Uiso 0.2211(9) 1 calc PR A 5
N42M N 1.0112(15) 0.7228(15) -0.2049(16) 0.23(3) Uiso 0.2211(9) 1 d PGU . 5
C46M C 0.9934(18) 0.7297(14) -0.173(2) 0.24(3) Uiso 0.2211(9) 1 d PGU A 5
H389 H 0.9959 0.7476 -0.1707 0.292 Uiso 0.2211(9) 1 calc PR A 5
C47M C 0.9719(16) 0.7099(18) -0.1435(14) 0.20(2) Uiso 0.2211(9) 1 d PGU A 5
H390 H 0.9600 0.7145 -0.1219 0.245 Uiso 0.2211(9) 1 calc PR A 5
C48M C 0.9682(15) 0.6831(16) -0.1465(14) 0.22(2) Uiso 0.2211(9) 1 d PGDU A 5
C49M C 0.9860(17) 0.6762(12) -0.1787(19) 0.21(2) Uiso 0.2211(9) 1 d PGU A 5
H391 H 0.9835 0.6584 -0.1807 0.247 Uiso 0.2211(9) 1 calc PR A 5
C50M C 1.0074(16) 0.6961(16) -0.2079(14) 0.19(3) Uiso 0.2211(9) 1 d PGU A 5
H392 H 1.0193 0.6915 -0.2295 0.230 Uiso 0.2211(9) 1 calc PR A 5
N43M N 0.941(2) 0.663(2) -0.083(3) 0.32(3) Uiso 0.2211(9) 1 d PDU A 5
N44M N 0.926(2) 0.638(3) -0.0555(14) 0.32(3) Uiso 0.2211(9) 1 d PDU A 5
C51M C 0.916(3) 0.626(3) -0.071(3) 0.33(3) Uiso 0.2211(9) 1 d PDU A 5
H577 H 0.9054 0.6084 -0.0585 0.398 Uiso 0.2211(9) 1 calc PR A 5
C52M C 0.925(3) 0.644(3) -0.108(3) 0.29(3) Uiso 0.2211(9) 1 d PDU A 5
H578 H 0.9213 0.6416 -0.1242 0.349 Uiso 0.2211(9) 1 calc PR A 5
C53M C 0.942(2) 0.667(2) -0.114(2) 0.26(3) Uiso 0.2211(9) 1 d PDU A 5
N41N N 0.9467(12) 0.5621(16) 0.1005(13) 0.23(2) Uiso 0.2211(9) 1 d PGU A 5
C41N C 0.9705(17) 0.5799(10) 0.0870(13) 0.26(3) Uiso 0.2211(9) 1 d PGU A 5
H393 H 0.9619 0.6044 0.0831 0.316 Uiso 0.2211(9) 1 calc PR A 5
C42N C 1.0071(15) 0.5611(14) 0.0796(13) 0.26(3) Uiso 0.2211(9) 1 d PGDU A 5
H394 H 1.0230 0.5730 0.0706 0.310 Uiso 0.2211(9) 1 calc PR A 5
C43N C 1.0199(12) 0.5245(14) 0.0856(15) 0.26(2) Uiso 0.2211(9) 1 d PGDU A 5
C44N C 0.9961(16) 0.5067(11) 0.0990(14) 0.26(3) Uiso 0.2211(9) 1 d PGU A 5
H395 H 1.0047 0.4822 0.1030 0.310 Uiso 0.2211(9) 1 calc PR A 5
C45N C 0.9595(15) 0.5255(16) 0.1064(12) 0.24(2) Uiso 0.2211(9) 1 d PGU A 5
H396 H 0.9436 0.5136 0.1154 0.288 Uiso 0.2211(9) 1 calc PR A 5
N42N N 1.2077(16) 0.521(2) -0.0111(14) 0.22(3) Uiso 0.2211(9) 1 d PGU . 5
C46N C 1.177(2) 0.5464(13) 0.0021(19) 0.23(3) Uiso 0.2211(9) 1 d PGU A 5
H397 H 1.1773 0.5692 -0.0047 0.270 Uiso 0.2211(9) 1 calc PR A 5
C47N C 1.1456(16) 0.5382(19) 0.0255(18) 0.23(3) Uiso 0.2211(9) 1 d PGU A 5
H398 H 1.1250 0.5554 0.0343 0.276 Uiso 0.2211(9) 1 calc PR A 5
C48N C 1.1452(17) 0.504(2) 0.0356(16) 0.25(3) Uiso 0.2211(9) 1 d PGDU A 5
C49N C 1.176(2) 0.4784(14) 0.022(2) 0.26(3) Uiso 0.2211(9) 1 d PGU A 5
H399 H 1.1756 0.4556 0.0292 0.314 Uiso 0.2211(9) 1 calc PR A 5
C50N C 1.2073(18) 0.4866(18) -0.0010(19) 0.23(3) Uiso 0.2211(9) 1 d PGU A 5
H400 H 1.2279 0.4694 -0.0098 0.279 Uiso 0.2211(9) 1 calc PR A 5
N43N N 1.078(3) 0.519(3) 0.059(3) 0.32(3) Uiso 0.2211(9) 1 d PDU A 5
N44N N 1.0546(17) 0.504(2) 0.088(3) 0.33(3) Uiso 0.2211(9) 1 d PDU A 5
C51N C 1.076(2) 0.4683(18) 0.100(2) 0.35(3) Uiso 0.2211(9) 1 d PDU A 5
H579 H 1.0670 0.4506 0.1197 0.418 Uiso 0.2211(9) 1 calc PR A 5
C52N C 1.111(2) 0.462(2) 0.078(3) 0.29(3) Uiso 0.2211(9) 1 d PDU A 5
H580 H 1.1299 0.4409 0.0798 0.347 Uiso 0.2211(9) 1 calc PR A 5
C53N C 1.112(2) 0.496(3) 0.051(2) 0.28(3) Uiso 0.2211(9) 1 d PDU A 5
N41O N 0.9472(14) 0.565(2) 0.386(2) 0.28(3) Uiso 0.2211(9) 1 d PGU A 5
C41O C 0.972(3) 0.5824(13) 0.3579(19) 0.32(3) Uiso 0.2211(9) 1 d PGU A 5
H401 H 0.9636 0.6068 0.3454 0.381 Uiso 0.2211(9) 1 calc PR A 5
C42O C 1.008(2) 0.563(3) 0.3484(16) 0.31(3) Uiso 0.2211(9) 1 d PGU A 5
H402 H 1.0245 0.5743 0.3296 0.373 Uiso 0.2211(9) 1 calc PR A 5
C43O C 1.0201(14) 0.526(2) 0.367(2) 0.28(3) Uiso 0.2211(9) 1 d PGDU A 5
C44O C 0.996(3) 0.5094(13) 0.395(2) 0.29(3) Uiso 0.2211(9) 1 d PGU A 5
H403 H 1.0038 0.4850 0.4075 0.344 Uiso 0.2211(9) 1 calc PR A 5
C45O C 0.959(2) 0.529(2) 0.4045(15) 0.29(3) Uiso 0.2211(9) 1 d PGU A 5
H404 H 0.9429 0.5174 0.4233 0.348 Uiso 0.2211(9) 1 calc PR A 5
N42O N 1.2031(19) 0.526(3) 0.284(2) 0.26(3) Uiso 0.2211(9) 1 d PGU A 5
C46O C 1.172(3) 0.5493(15) 0.2751(16) 0.25(3) Uiso 0.2211(9) 1 d PGU A 5
H405 H 1.1711 0.5724 0.2588 0.302 Uiso 0.2211(9) 1 calc PR A 5
C47O C 1.1425(18) 0.538(2) 0.291(2) 0.24(3) Uiso 0.2211(9) 1 d PGU A 5
H406 H 1.1218 0.5542 0.2848 0.293 Uiso 0.2211(9) 1 calc PR A 5
C48O C 1.144(2) 0.504(3) 0.315(2) 0.27(3) Uiso 0.2211(9) 1 d PGDU A 5
C49O C 1.175(3) 0.4804(15) 0.3236(16) 0.25(3) Uiso 0.2211(9) 1 d PGU A 5
H407 H 1.1760 0.4573 0.3399 0.299 Uiso 0.2211(9) 1 calc PR A 5
C50O C 1.2045(19) 0.491(2) 0.308(2) 0.23(3) Uiso 0.2211(9) 1 d PGU A 5
H408 H 1.2253 0.4755 0.3139 0.281 Uiso 0.2211(9) 1 calc PR A 5
N43O N 1.082(3) 0.515(3) 0.335(2) 0.31(3) Uiso 0.2211(9) 1 d PDU A 5
N44O N 1.0534(19) 0.503(3) 0.351(3) 0.32(3) Uiso 0.2211(9) 1 d PDU A 5
C51O C 1.072(4) 0.467(3) 0.363(3) 0.34(3) Uiso 0.2211(9) 1 d PDU A 5
H581 H 1.0600 0.4505 0.3758 0.413 Uiso 0.2211(9) 1 calc PR A 5
C52O C 1.108(4) 0.457(3) 0.357(3) 0.31(3) Uiso 0.2211(9) 1 d PDU A 5
H582 H 1.1241 0.4339 0.3628 0.367 Uiso 0.2211(9) 1 calc PR A 5
C53O C 1.113(3) 0.491(4) 0.338(2) 0.29(3) Uiso 0.2211(9) 1 d PDU A 5
N41P N 0.8990(15) 0.614(2) 0.433(2) 0.28(2) Uiso 0.2211(9) 1 d PGU A 5
C41P C 0.9117(16) 0.6421(17) 0.4176(13) 0.30(3) Uiso 0.2211(9) 1 d PGU A 5
H409 H 0.9155 0.6557 0.3934 0.361 Uiso 0.2211(9) 1 calc PR A 5
C42P C 0.9186(15) 0.6501(14) 0.439(2) 0.28(3) Uiso 0.2211(9) 1 d PGU A 5
H410 H 0.9270 0.6691 0.4286 0.337 Uiso 0.2211(9) 1 calc PR A 5
C43P C 0.9129(17) 0.630(2) 0.475(2) 0.27(3) Uiso 0.2211(9) 1 d PGDU A 5
C44P C 0.9003(17) 0.6016(18) 0.4900(13) 0.27(3) Uiso 0.2211(9) 1 d PGU A 5
H411 H 0.8964 0.5880 0.5142 0.320 Uiso 0.2211(9) 1 calc PR A 5
C45P C 0.8933(14) 0.5935(13) 0.469(2) 0.27(3) Uiso 0.2211(9) 1 d PGU A 5
H412 H 0.8849 0.5746 0.4790 0.325 Uiso 0.2211(9) 1 calc PR A 5
N42P N 1.0094(13) 0.7211(15) 0.4737(19) 0.22(3) Uiso 0.2211(9) 1 d PGU A 5
C46P C 0.9962(16) 0.7260(14) 0.4495(12) 0.22(3) Uiso 0.2211(9) 1 d PGU A 5
H413 H 1.0019 0.7419 0.4262 0.261 Uiso 0.2211(9) 1 calc PR A 5
C47P C 0.9743(16) 0.7071(17) 0.4600(16) 0.20(2) Uiso 0.2211(9) 1 d PGU A 5
H414 H 0.9654 0.7104 0.4438 0.244 Uiso 0.2211(9) 1 calc PR A 5
C48P C 0.9657(14) 0.6834(15) 0.4949(19) 0.22(2) Uiso 0.2211(9) 1 d PGDU A 5
C49P C 0.9789(17) 0.6785(13) 0.5191(12) 0.20(2) Uiso 0.2211(9) 1 d PGU A 5
H415 H 0.9732 0.6626 0.5424 0.240 Uiso 0.2211(9) 1 calc PR A 5
C50P C 1.0008(16) 0.6974(16) 0.5086(17) 0.18(3) Uiso 0.2211(9) 1 d PGU A 5
H416 H 1.0097 0.6941 0.5248 0.219 Uiso 0.2211(9) 1 calc PR A 5
N43P N 0.932(2) 0.669(2) 0.482(3) 0.32(3) Uiso 0.2211(9) 1 d PDU A 5
N44P N 0.922(2) 0.640(3) 0.493(3) 0.32(3) Uiso 0.2211(9) 1 d PDU A 5
C51P C 0.920(2) 0.627(3) 0.528(3) 0.31(3) Uiso 0.2211(9) 1 d PDU A 5
H583 H 0.9139 0.6061 0.5436 0.376 Uiso 0.2211(9) 1 calc PR A 5
C52P C 0.928(2) 0.643(3) 0.541(2) 0.28(3) Uiso 0.2211(9) 1 d PDU A 5
H584 H 0.9273 0.6377 0.5636 0.334 Uiso 0.2211(9) 1 calc PR A 5
C53P C 0.936(2) 0.671(3) 0.508(3) 0.26(3) Uiso 0.2211(9) 1 d PDU A 5
N41Q N 1.0534(12) 0.6132(16) 0.4358(18) 0.22(2) Uiso 0.2211(9) 1 d PGU A 6
C41Q C 1.028(2) 0.6396(14) 0.4195(11) 0.26(3) Uiso 0.2211(9) 1 d PGU A 6
H417 H 1.0351 0.6521 0.3950 0.307 Uiso 0.2211(9) 1 calc PR A 6
C42Q C 0.9916(17) 0.6474(12) 0.440(2) 0.24(2) Uiso 0.2211(9) 1 d PGU A 6
H418 H 0.9745 0.6650 0.4288 0.288 Uiso 0.2211(9) 1 calc PR A 6
C43Q C 0.9809(12) 0.6288(18) 0.476(2) 0.25(2) Uiso 0.2211(9) 1 d PGDU A 6
C44Q C 1.006(2) 0.6024(16) 0.4927(11) 0.26(3) Uiso 0.2211(9) 1 d PGU A 6
H419 H 0.9992 0.5899 0.5173 0.313 Uiso 0.2211(9) 1 calc PR A 6
C45Q C 1.0427(18) 0.5946(12) 0.4725(19) 0.27(3) Uiso 0.2211(9) 1 d PGU A 6
H420 H 1.0598 0.5770 0.4834 0.320 Uiso 0.2211(9) 1 calc PR A 6
N42Q N 0.7947(15) 0.7169(14) 0.4744(19) 0.20(2) Uiso 0.2211(9) 1 d PGU A 6
C46Q C 0.827(2) 0.7229(13) 0.4512(11) 0.21(2) Uiso 0.2211(9) 1 d PGU A 6
H421 H 0.8295 0.7378 0.4274 0.252 Uiso 0.2211(9) 1 calc PR A 6
C47Q C 0.8558(13) 0.7067(17) 0.4634(17) 0.22(2) Uiso 0.2211(9) 1 d PGU A 6
H422 H 0.8775 0.7107 0.4479 0.259 Uiso 0.2211(9) 1 calc PR A 6
C48Q C 0.8522(15) 0.6845(15) 0.499(2) 0.22(2) Uiso 0.2211(9) 1 d PGDU A 6
C49Q C 0.820(2) 0.6785(13) 0.5221(12) 0.21(2) Uiso 0.2211(9) 1 d PGU A 6
H423 H 0.8173 0.6637 0.5458 0.248 Uiso 0.2211(9) 1 calc PR A 6
C50Q C 0.7910(14) 0.6947(15) 0.5098(17) 0.18(2) Uiso 0.2211(9) 1 d PGU A 6
H424 H 0.7693 0.6908 0.5254 0.220 Uiso 0.2211(9) 1 calc PR A 6
N43Q N 0.916(3) 0.6634(19) 0.480(3) 0.32(3) Uiso 0.2211(9) 1 d PDU A 6
N44Q N 0.9449(15) 0.649(2) 0.491(3) 0.31(3) Uiso 0.2211(9) 1 d PDU A 6
C51Q C 0.929(3) 0.638(3) 0.528(3) 0.32(3) Uiso 0.2211(9) 1 d PDU A 6
H585 H 0.9423 0.6275 0.5436 0.389 Uiso 0.2211(9) 1 calc PR A 6
C52Q C 0.893(3) 0.646(2) 0.541(3) 0.26(3) Uiso 0.2211(9) 1 d PDU A 6
H586 H 0.8769 0.6413 0.5641 0.318 Uiso 0.2211(9) 1 calc PR A 6
C53Q C 0.885(2) 0.662(2) 0.508(3) 0.27(3) Uiso 0.2211(9) 1 d PDU A 6
N41R N 1.1023(12) 0.5660(15) 0.3879(15) 0.207(19) Uiso 0.2211(9) 1 d PGU A 6
C41R C 1.0899(13) 0.5822(10) 0.3592(13) 0.21(2) Uiso 0.2211(9) 1 d PGU A 6
H425 H 1.0866 0.6064 0.3460 0.254 Uiso 0.2211(9) 1 calc PR A 6
C42R C 1.0824(14) 0.5622(17) 0.3503(13) 0.25(3) Uiso 0.2211(9) 1 d PGU A 6
H426 H 1.0741 0.5731 0.3311 0.295 Uiso 0.2211(9) 1 calc PR A 6
C43R C 1.0873(15) 0.5261(17) 0.3700(18) 0.24(2) Uiso 0.2211(9) 1 d PGDU A 6
C44R C 1.0997(15) 0.5098(10) 0.3987(16) 0.26(3) Uiso 0.2211(9) 1 d PGU A 6
H427 H 1.1030 0.4856 0.4119 0.307 Uiso 0.2211(9) 1 calc PR A 6
C45R C 1.1072(13) 0.5298(15) 0.4076(12) 0.24(2) Uiso 0.2211(9) 1 d PGU A 6
H428 H 1.1155 0.5189 0.4268 0.286 Uiso 0.2211(9) 1 calc PR A 6
N42R N 0.9883(14) 0.5284(18) 0.2797(15) 0.23(3) Uiso 0.2211(9) 1 d PGU A 6
C46R C 1.0062(18) 0.5496(12) 0.2729(16) 0.25(3) Uiso 0.2211(9) 1 d PGU A 6
H429 H 1.0026 0.5727 0.2562 0.300 Uiso 0.2211(9) 1 calc PR A 6
C47R C 1.0295(17) 0.5364(18) 0.291(2) 0.23(3) Uiso 0.2211(9) 1 d PGU A 6
H430 H 1.0414 0.5505 0.2867 0.270 Uiso 0.2211(9) 1 calc PR A 6
C48R C 1.0350(16) 0.5019(19) 0.3162(18) 0.25(2) Uiso 0.2211(9) 1 d PGDU A 6
C49R C 1.0171(19) 0.4808(13) 0.3230(14) 0.23(3) Uiso 0.2211(9) 1 d PGU A 6
H431 H 1.0208 0.4577 0.3397 0.274 Uiso 0.2211(9) 1 calc PR A 6
C50R C 0.9938(17) 0.4940(17) 0.3047(16) 0.19(3) Uiso 0.2211(9) 1 d PGU A 6
H432 H 0.9819 0.4798 0.3092 0.226 Uiso 0.2211(9) 1 calc PR A 6
N43R N 1.0640(19) 0.521(3) 0.334(2) 0.29(3) Uiso 0.2211(9) 1 d PDU A 6
N44R N 1.0729(19) 0.510(2) 0.363(2) 0.28(2) Uiso 0.2211(9) 1 d PDU A 6
C51R C 1.078(2) 0.474(2) 0.377(3) 0.31(3) Uiso 0.2211(9) 1 d PDU A 6
H587 H 1.0842 0.4579 0.3971 0.370 Uiso 0.2211(9) 1 calc PR A 6
C52R C 1.073(2) 0.464(3) 0.356(3) 0.30(3) Uiso 0.2211(9) 1 d PDU A 6
H588 H 1.0748 0.4408 0.3598 0.362 Uiso 0.2211(9) 1 calc PR A 6
C53R C 1.063(2) 0.496(3) 0.328(3) 0.27(3) Uiso 0.2211(9) 1 d PDU A 6
N41S N 1.389(2) 0.563(2) 0.1015(15) 0.26(2) Uiso 0.2211(9) 1 d PGU A 6
C41S C 1.3606(19) 0.5812(12) 0.0878(16) 0.28(3) Uiso 0.2211(9) 1 d PGU A 6
H433 H 1.3486 0.6057 0.0839 0.336 Uiso 0.2211(9) 1 calc PR A 6
C42S C 1.3505(15) 0.562(2) 0.0801(16) 0.31(3) Uiso 0.2211(9) 1 d PGU A 6
H434 H 1.3317 0.5743 0.0710 0.370 Uiso 0.2211(9) 1 calc PR A 6
C43S C 1.368(2) 0.526(2) 0.0861(18) 0.29(3) Uiso 0.2211(9) 1 d PGDU A 6
C44S C 1.396(2) 0.5081(12) 0.0997(18) 0.29(3) Uiso 0.2211(9) 1 d PGU A 6
H435 H 1.4083 0.4836 0.1037 0.351 Uiso 0.2211(9) 1 calc PR A 6
C45S C 1.4065(14) 0.527(2) 0.1074(15) 0.29(3) Uiso 0.2211(9) 1 d PGU A 6
H436 H 1.4252 0.5150 0.1165 0.346 Uiso 0.2211(9) 1 calc PR A 6
N42S N 1.2827(18) 0.5202(19) -0.0101(13) 0.19(3) Uiso 0.2211(9) 1 d PGU . 6
C46S C 1.2727(15) 0.5466(13) 0.0031(16) 0.22(3) Uiso 0.2211(9) 1 d PGU A 6
H437 H 1.2557 0.5688 -0.0036 0.263 Uiso 0.2211(9) 1 calc PR A 6
C47S C 1.2882(18) 0.5398(15) 0.0264(16) 0.20(2) Uiso 0.2211(9) 1 d PGU A 6
H438 H 1.2816 0.5575 0.0353 0.238 Uiso 0.2211(9) 1 calc PR A 6
C48S C 1.3137(17) 0.5066(19) 0.0365(14) 0.20(2) Uiso 0.2211(9) 1 d PGDU A 6
C49S C 1.3236(15) 0.4802(13) 0.0232(17) 0.22(3) Uiso 0.2211(9) 1 d PGU A 6
H439 H 1.3407 0.4580 0.0299 0.269 Uiso 0.2211(9) 1 calc PR A 6
C50S C 1.3081(18) 0.4870(16) -0.0001(17) 0.21(3) Uiso 0.2211(9) 1 d PGU A 6
H440 H 1.3148 0.4694 -0.0090 0.258 Uiso 0.2211(9) 1 calc PR A 6
N43S N 1.334(2) 0.518(3) 0.061(2) 0.32(3) Uiso 0.2211(9) 1 d PDU A 6
N44S N 1.359(3) 0.508(3) 0.076(2) 0.32(3) Uiso 0.2211(9) 1 d PDU A 6
C51S C 1.375(3) 0.471(3) 0.083(2) 0.31(3) Uiso 0.2211(9) 1 d PDU A 6
H589 H 1.3934 0.4576 0.0934 0.370 Uiso 0.2211(9) 1 calc PR A 6
C52S C 1.361(2) 0.458(2) 0.074(2) 0.27(3) Uiso 0.2211(9) 1 d PDU A 6
H590 H 1.3669 0.4341 0.0769 0.325 Uiso 0.2211(9) 1 calc PR A 6
C53S C 1.335(2) 0.489(3) 0.060(2) 0.25(3) Uiso 0.2211(9) 1 d PDU A 6
N41T N 1.4339(18) 0.6143(17) 0.0536(11) 0.22(2) Uiso 0.2211(9) 1 d PGU A 6
C41T C 1.4189(12) 0.6420(14) 0.027(2) 0.27(3) Uiso 0.2211(9) 1 d PGU A 6
H441 H 1.3947 0.6556 0.0341 0.322 Uiso 0.2211(9) 1 calc PR A 6
C42T C 1.440(2) 0.6494(13) -0.0086(17) 0.25(3) Uiso 0.2211(9) 1 d PGU A 6
H442 H 1.4300 0.6680 -0.0260 0.297 Uiso 0.2211(9) 1 calc PR A 6
C43T C 1.476(2) 0.6291(19) -0.0185(12) 0.26(2) Uiso 0.2211(9) 1 d PGDU A 6
C44T C 1.4912(12) 0.6013(17) 0.008(2) 0.26(3) Uiso 0.2211(9) 1 d PGU A 6
H443 H 1.5154 0.5877 0.0010 0.313 Uiso 0.2211(9) 1 calc PR A 6
C45T C 1.470(2) 0.5939(12) 0.0437(17) 0.27(3) Uiso 0.2211(9) 1 d PGU A 6
H444 H 1.4801 0.5754 0.0611 0.319 Uiso 0.2211(9) 1 calc PR A 6
N42T N 1.4800(19) 0.7154(16) -0.2055(13) 0.20(2) Uiso 0.2211(9) 1 d PGU . 6
C46T C 1.4538(13) 0.7257(14) -0.1758(19) 0.22(3) Uiso 0.2211(9) 1 d PGU A 6
H445 H 1.4315 0.7426 -0.1772 0.265 Uiso 0.2211(9) 1 calc PR A 6
C47T C 1.4610(16) 0.7108(17) -0.1441(14) 0.21(2) Uiso 0.2211(9) 1 d PGU A 6
H446 H 1.4436 0.7177 -0.1243 0.253 Uiso 0.2211(9) 1 calc PR A 6
C48T C 1.494(2) 0.6856(16) -0.1420(13) 0.22(2) Uiso 0.2211(9) 1 d PGDU A 6
C49T C 1.5205(14) 0.6753(13) -0.172(2) 0.21(2) Uiso 0.2211(9) 1 d PGU A 6
H447 H 1.5428 0.6585 -0.1702 0.254 Uiso 0.2211(9) 1 calc PR A 6
C50T C 1.5133(16) 0.6902(16) -0.2034(15) 0.20(3) Uiso 0.2211(9) 1 d PGU A 6
H448 H 1.5308 0.6834 -0.2232 0.240 Uiso 0.2211(9) 1 calc PR A 6
N43T N 1.481(3) 0.664(2) -0.083(3) 0.30(3) Uiso 0.2211(9) 1 d PDU A 6
N44T N 1.494(3) 0.636(3) -0.0560(12) 0.30(3) Uiso 0.2211(9) 1 d PDU A 6
C51T C 1.530(3) 0.618(3) -0.069(3) 0.31(3) Uiso 0.2211(9) 1 d PDU A 6
H591 H 1.5436 0.5978 -0.0555 0.371 Uiso 0.2211(9) 1 calc PR A 6
C52T C 1.541(2) 0.635(2) -0.106(3) 0.28(3) Uiso 0.2211(9) 1 d PDU A 6
H592 H 1.5641 0.6294 -0.1219 0.334 Uiso 0.2211(9) 1 calc PR A 6
C53T C 1.510(3) 0.664(2) -0.113(2) 0.25(2) Uiso 0.2211(9) 1 d PDU A 6
N41U N 1.436(2) 0.8975(13) 0.0546(12) 0.25(2) Uiso 0.2211(9) 1 d PGU A 6
C41U C 1.4195(13) 0.9122(14) 0.029(2) 0.27(3) Uiso 0.2211(9) 1 d PGU A 6
H449 H 1.3952 0.9161 0.0364 0.327 Uiso 0.2211(9) 1 calc PR A 6
C42U C 1.440(2) 0.9212(12) -0.0072(19) 0.25(3) Uiso 0.2211(9) 1 d PGU A 6
H450 H 1.4287 0.9311 -0.0242 0.300 Uiso 0.2211(9) 1 calc PR A 6
C43U C 1.476(2) 0.9154(15) -0.0181(12) 0.29(2) Uiso 0.2211(9) 1 d PGDU A 6
C44U C 1.4921(13) 0.9007(16) 0.007(2) 0.28(3) Uiso 0.2211(9) 1 d PGU A 6
H451 H 1.5163 0.8968 0.0001 0.334 Uiso 0.2211(9) 1 calc PR A 6
C45U C 1.472(2) 0.8917(12) 0.0437(19) 0.27(3) Uiso 0.2211(9) 1 d PGU A 6
H452 H 1.4829 0.8818 0.0607 0.323 Uiso 0.2211(9) 1 calc PR A 6
N42U N 1.471(2) 1.0150(13) -0.2059(16) 0.24(3) Uiso 0.2211(9) 1 d PGU . 6
C46U C 1.4490(13) 0.9975(18) -0.174(2) 0.23(3) Uiso 0.2211(9) 1 d PGU A 6
H453 H 1.4258 1.0021 -0.1717 0.281 Uiso 0.2211(9) 1 calc PR A 6
C47U C 1.4618(19) 0.9732(15) -0.1455(14) 0.21(2) Uiso 0.2211(9) 1 d PGU A 6
H454 H 1.4471 0.9616 -0.1241 0.247 Uiso 0.2211(9) 1 calc PR A 6
C48U C 1.496(2) 0.9663(13) -0.1489(15) 0.22(2) Uiso 0.2211(9) 1 d PGDU A 6
C49U C 1.5183(14) 0.9838(18) -0.181(2) 0.24(3) Uiso 0.2211(9) 1 d PGU A 6
H455 H 1.5415 0.9792 -0.1831 0.283 Uiso 0.2211(9) 1 calc PR A 6
C50U C 1.5055(19) 1.0081(16) -0.2093(14) 0.19(3) Uiso 0.2211(9) 1 d PGU A 6
H456 H 1.5201 1.0198 -0.2307 0.228 Uiso 0.2211(9) 1 calc PR A 6
N43U N 1.477(2) 0.9392(19) -0.084(2) 0.29(3) Uiso 0.2211(9) 1 d PDU A 6
N44U N 1.487(3) 0.918(2) -0.0540(16) 0.31(3) Uiso 0.2211(9) 1 d PDU A 6
C51U C 1.523(3) 0.911(2) -0.070(3) 0.33(3) Uiso 0.2211(9) 1 d PDU A 6
H593 H 1.5386 0.8970 -0.0565 0.397 Uiso 0.2211(9) 1 calc PR A 6
C52U C 1.536(3) 0.926(2) -0.107(3) 0.26(3) Uiso 0.2211(9) 1 d PDU A 6
H594 H 1.5593 0.9248 -0.1221 0.307 Uiso 0.2211(9) 1 calc PR A 6
C53U C 1.503(3) 0.9453(19) -0.1145(18) 0.26(2) Uiso 0.2211(9) 1 d PDU A 6
N41V N 1.3842(17) 0.9461(11) 0.0989(14) 0.24(2) Uiso 0.2211(9) 1 d PGU A 6
C41V C 1.3575(15) 0.974(2) 0.0847(14) 0.27(3) Uiso 0.2211(9) 1 d PGU A 6
H457 H 1.3439 0.9688 0.0791 0.321 Uiso 0.2211(9) 1 calc PR A 6
C42V C 1.3512(14) 1.0092(15) 0.0787(14) 0.24(3) Uiso 0.2211(9) 1 d PGU A 6
H458 H 1.3334 1.0277 0.0691 0.293 Uiso 0.2211(9) 1 calc PR A 6
C43V C 1.3716(19) 1.0168(12) 0.0869(16) 0.26(2) Uiso 0.2211(9) 1 d PGDU A 6
C44V C 1.3983(16) 0.989(2) 0.1011(15) 0.26(3) Uiso 0.2211(9) 1 d PGU A 6
H459 H 1.4119 0.9942 0.1066 0.318 Uiso 0.2211(9) 1 calc PR A 6
C45V C 1.4046(13) 0.9538(15) 0.1071(13) 0.25(3) Uiso 0.2211(9) 1 d PGU A 6
H460 H 1.4224 0.9352 0.1166 0.298 Uiso 0.2211(9) 1 calc PR A 6
N42V N 1.2851(18) 1.2053(15) -0.0142(14) 0.23(3) Uiso 0.2211(9) 1 d PGU . 6
C46V C 1.2774(16) 1.174(2) -0.0016(18) 0.25(3) Uiso 0.2211(9) 1 d PGU A 6
H461 H 1.2617 1.1745 -0.0090 0.306 Uiso 0.2211(9) 1 calc PR A 6
C47V C 1.2933(19) 1.1431(15) 0.0220(18) 0.23(3) Uiso 0.2211(9) 1 d PGU A 6
H462 H 1.2882 1.1223 0.0304 0.272 Uiso 0.2211(9) 1 calc PR A 6
C48V C 1.3169(17) 1.1428(15) 0.0330(15) 0.21(2) Uiso 0.2211(9) 1 d PGDU A 6
C49V C 1.3245(15) 1.174(2) 0.0205(18) 0.22(3) Uiso 0.2211(9) 1 d PGU A 6
H463 H 1.3402 1.1736 0.0279 0.268 Uiso 0.2211(9) 1 calc PR A 6
C50V C 1.3086(19) 1.2050(15) -0.0032(18) 0.22(3) Uiso 0.2211(9) 1 d PGU A 6
H464 H 1.3137 1.2258 -0.0116 0.262 Uiso 0.2211(9) 1 calc PR A 6
N43V N 1.340(2) 1.083(2) 0.0581(19) 0.30(3) Uiso 0.2211(9) 1 d PDU A 6
N44V N 1.364(2) 1.0541(12) 0.075(2) 0.28(2) Uiso 0.2211(9) 1 d PDU A 6
C51V C 1.375(3) 1.069(3) 0.086(2) 0.32(3) Uiso 0.2211(9) 1 d PDU A 6
H595 H 1.3911 1.0557 0.0982 0.383 Uiso 0.2211(9) 1 calc PR A 6
C52V C 1.359(2) 1.106(3) 0.076(2) 0.27(3) Uiso 0.2211(9) 1 d PDU A 6
H596 H 1.3624 1.1218 0.0802 0.329 Uiso 0.2211(9) 1 calc PR A 6
C53V C 1.338(2) 1.114(2) 0.0568(19) 0.24(2) Uiso 0.2211(9) 1 d PDU A 6
N41W N 1.1026(15) 0.9467(11) 0.3865(18) 0.26(2) Uiso 0.2211(9) 1 d PGU A 6
C41W C 1.0885(16) 0.973(2) 0.3593(16) 0.28(3) Uiso 0.2211(9) 1 d PGU A 6
H465 H 1.0849 0.9658 0.3455 0.341 Uiso 0.2211(9) 1 calc PR A 6
C42W C 1.0797(15) 1.0088(17) 0.3525(14) 0.26(3) Uiso 0.2211(9) 1 d PGU A 6
H466 H 1.0702 1.0262 0.3343 0.308 Uiso 0.2211(9) 1 calc PR A 6
C43W C 1.0850(16) 1.0190(11) 0.3731(19) 0.26(2) Uiso 0.2211(9) 1 d PGDU A 6
C44W C 1.0992(17) 0.993(2) 0.4003(17) 0.27(3) Uiso 0.2211(9) 1 d PGU A 6
H467 H 1.1027 0.9999 0.4140 0.329 Uiso 0.2211(9) 1 calc PR A 6
C45W C 1.1080(14) 0.9569(17) 0.4071(14) 0.26(3) Uiso 0.2211(9) 1 d PGU A 6
H468 H 1.1174 0.9396 0.4253 0.316 Uiso 0.2211(9) 1 calc PR A 6
N42W N 0.9866(14) 1.2066(13) 0.2847(18) 0.21(3) Uiso 0.2211(9) 1 d PGU A 6
C46W C 1.0012(16) 1.1751(18) 0.2772(15) 0.20(3) Uiso 0.2211(9) 1 d PGU A 6
H469 H 0.9951 1.1743 0.2611 0.239 Uiso 0.2211(9) 1 calc PR A 6
C47W C 1.0251(16) 1.1450(13) 0.2937(17) 0.19(2) Uiso 0.2211(9) 1 d PGU A 6
H470 H 1.0349 1.1239 0.2886 0.223 Uiso 0.2211(9) 1 calc PR A 6
C48W C 1.0343(15) 1.1463(15) 0.3177(17) 0.22(2) Uiso 0.2211(9) 1 d PGDU A 6
C49W C 1.0197(19) 1.178(2) 0.3252(15) 0.24(3) Uiso 0.2211(9) 1 d PGU A 6
H471 H 1.0258 1.1786 0.3413 0.291 Uiso 0.2211(9) 1 calc PR A 6
C50W C 0.9958(18) 1.2079(15) 0.3087(19) 0.24(3) Uiso 0.2211(9) 1 d PGU A 6
H472 H 0.9860 1.2290 0.3138 0.293 Uiso 0.2211(9) 1 calc PR A 6
N43W N 1.0667(19) 1.084(2) 0.3270(19) 0.28(3) Uiso 0.2211(9) 1 d PDU A 6
N44W N 1.0727(19) 1.0569(13) 0.358(2) 0.27(2) Uiso 0.2211(9) 1 d PDU A 6
C51W C 1.077(2) 1.071(3) 0.375(3) 0.31(3) Uiso 0.2211(9) 1 d PDU A 6
H597 H 1.0813 1.0586 0.3969 0.376 Uiso 0.2211(9) 1 calc PR A 6
C52W C 1.073(2) 1.106(3) 0.355(3) 0.29(3) Uiso 0.2211(9) 1 d PDU A 6
H598 H 1.0757 1.1223 0.3600 0.350 Uiso 0.2211(9) 1 calc PR A 6
C53W C 1.0658(19) 1.1148(19) 0.324(3) 0.23(2) Uiso 0.2211(9) 1 d PDU A 6
N41X N 1.0540(13) 0.9003(13) 0.435(2) 0.25(2) Uiso 0.2211(9) 1 d PGU A 6
C41X C 1.030(2) 0.9139(14) 0.4180(12) 0.29(3) Uiso 0.2211(9) 1 d PGU A 6
H473 H 1.0380 0.9184 0.3934 0.343 Uiso 0.2211(9) 1 calc PR A 6
C42X C 0.993(2) 0.9208(13) 0.437(2) 0.27(3) Uiso 0.2211(9) 1 d PGU A 6
H474 H 0.9772 0.9299 0.4256 0.327 Uiso 0.2211(9) 1 calc PR A 6
C43X C 0.9810(13) 0.9140(16) 0.474(2) 0.27(2) Uiso 0.2211(9) 1 d PGDU A 6
C44X C 1.005(2) 0.9004(15) 0.4914(12) 0.28(3) Uiso 0.2211(9) 1 d PGU A 6
H475 H 0.9970 0.8959 0.5160 0.339 Uiso 0.2211(9) 1 calc PR A 6
C45X C 1.042(2) 0.8935(12) 0.472(2) 0.25(3) Uiso 0.2211(9) 1 d PGU A 6
H476 H 1.0578 0.8844 0.4838 0.304 Uiso 0.2211(9) 1 calc PR A 6
N42X N 0.7912(15) 1.0119(15) 0.482(2) 0.25(3) Uiso 0.2211(9) 1 d PGU A 6
C46X C 0.821(2) 0.9974(19) 0.4568(14) 0.23(3) Uiso 0.2211(9) 1 d PGU A 6
H477 H 0.8204 1.0022 0.4349 0.276 Uiso 0.2211(9) 1 calc PR A 6
C47X C 0.8534(17) 0.9757(17) 0.4642(19) 0.24(3) Uiso 0.2211(9) 1 d PGU A 6
H478 H 0.8736 0.9659 0.4473 0.293 Uiso 0.2211(9) 1 calc PR A 6
C48X C 0.8549(17) 0.9685(16) 0.497(2) 0.26(3) Uiso 0.2211(9) 1 d PGDU A 6
C49X C 0.825(3) 0.983(2) 0.5221(16) 0.27(3) Uiso 0.2211(9) 1 d PGU A 6
H479 H 0.8257 0.9783 0.5440 0.320 Uiso 0.2211(9) 1 calc PR A 6
C50X C 0.7927(18) 1.0048(17) 0.5147(18) 0.25(3) Uiso 0.2211(9) 1 d PGU A 6
H480 H 0.7725 1.0145 0.5316 0.298 Uiso 0.2211(9) 1 calc PR A 6
N43X N 0.920(3) 0.9420(19) 0.478(3) 0.32(3) Uiso 0.2211(9) 1 d PDU A 6
N44X N 0.9449(16) 0.9306(19) 0.492(3) 0.30(2) Uiso 0.2211(9) 1 d PDU A 6
C51X C 0.927(3) 0.923(2) 0.529(2) 0.32(3) Uiso 0.2211(9) 1 d PDU A 6
H599 H 0.9379 0.9146 0.5455 0.386 Uiso 0.2211(9) 1 calc PR A 6
C52X C 0.891(2) 0.930(2) 0.538(2) 0.32(3) Uiso 0.2211(9) 1 d PDU A 6
H600 H 0.8732 0.9279 0.5602 0.384 Uiso 0.2211(9) 1 calc PR A 6
C53X C 0.888(2) 0.941(2) 0.504(4) 0.30(3) Uiso 0.2211(9) 1 d PDU A 6
O1 O 1.5583(12) 0.7422(10) 0.1493(11) 0.474(19) Uiso 0.60 1 d P . .
O2 O 0.8017(15) 0.6253(13) 0.6277(14) 0.49(3) Uiso 0.50 1 d P . .
O3 O 1.024(3) 1.236(2) 0.334(3) 0.62(5) Uiso 0.40 1 d P . .
O4 O 0.7410(11) 1.5541(10) 0.1475(11) 0.460(18) Uiso 0.60 1 d P . .
O5 O 0.387(3) 1.043(3) 0.179(3) 0.61(4) Uiso 0.50 1 d P . .
O6 O 1.1876(17) 1.0497(15) 0.3798(16) 0.47(3) Uiso 0.50 1 d P . .
O7 O 0.4470(11) 0.8499(10) 0.4451(11) 0.464(19) Uiso 0.60 1 d P . .
O8 O 0.5546(12) 1.5534(10) 0.1511(11) 0.473(19) Uiso 0.60 1 d P . .
O9 O 0.6221(18) 0.9487(17) 0.6197(19) 0.50(3) Uiso 0.50 1 d P . .
O10 O 0.7432(13) 0.5527(12) 0.5556(13) 0.45(2) Uiso 0.50 1 d P . .
O11 O 0.8469(12) 1.2618(11) 0.4437(12) 0.49(2) Uiso 0.60 1 d P . .
O12 O 1.3732(13) 0.3701(12) 0.1979(13) 0.45(2) Uiso 0.50 1 d P . .
O13 O 0.5545(14) 0.7397(12) 0.5539(13) 0.46(2) Uiso 0.50 1 d P . .
O14 O 1.4451(11) 0.4465(10) 0.2585(11) 0.463(19) Uiso 0.60 1 d P . .
O15 O 1.0510(17) 0.3825(15) 0.3814(18) 0.51(3) Uiso 0.50 1 d P . .
O16 O 1.3797(15) 0.3769(12) 0.0528(13) 0.44(2) Uiso 0.50 1 d P . .
O17 O 0.604(3) 0.765(3) 0.679(3) 0.54(5) Uiso 0.30 1 d P . .
O18 O 1.1725(14) 0.4172(12) 0.4135(13) 0.46(2) Uiso 0.50 1 d P . .
O19 O 0.817(2) 1.6124(19) -0.0467(19) 0.46(3) Uiso 0.40 1 d P . .
O20 O 0.9981(17) 1.1701(16) 0.4175(17) 0.54(3) Uiso 0.50 1 d P . .
O21 O 0.4161(15) 1.4154(14) 0.1703(15) 0.49(3) Uiso 0.50 1 d P . .
O22 O 0.681(3) 0.934(2) 0.612(3) 0.51(5) Uiso 0.30 1 d P . .
O23 O 0.738(3) 1.162(3) 0.536(4) 0.59(7) Uiso 0.40 1 d P . .
O24 O 0.4165(15) 1.0009(15) 0.1686(14) 0.47(2) Uiso 0.50 1 d P . .
O25 O 0.4194(15) 1.1697(14) -0.0074(15) 0.49(3) Uiso 0.50 1 d P . .
O26 O 0.4166(18) 0.9971(19) 0.4143(17) 0.54(3) Uiso 0.50 1 d P . .
O27 O 1.0530(15) 1.1859(15) 0.3790(15) 0.48(3) Uiso 0.50 1 d P . .
O28 O 0.8315(13) 1.5828(12) 0.0018(13) 0.50(2) Uiso 0.60 1 d P . .
O29 O 1.1684(16) 1.0017(15) 0.4165(15) 0.50(3) Uiso 0.50 1 d P . .
O30 O 0.8489(15) 0.4493(13) 0.4415(14) 0.49(2) Uiso 0.50 1 d P . .
O31 O 0.967(7) 1.399(6) 0.035(7) 0.47(12) Uiso 0.10 1 d P . .
O32 O 0.438(3) 0.952(4) 0.418(3) 0.58(6) Uiso 0.30 1 d P . .
O33 O 0.595(4) 0.991(3) 0.009(4) 0.49(6) Uiso 0.20 1 d P . .
O34 O 0.769(3) 1.597(3) -0.030(3) 0.59(6) Uiso 0.30 1 d P . .
O35 O 1.228(4) 1.249(4) 0.111(3) 0.62(7) Uiso 0.30 1 d P . .
O36 O 1.226(4) 0.432(3) 0.227(4) 0.49(6) Uiso 0.20 1 d P . .
O37 O 0.333(3) 1.261(2) 0.074(3) 0.51(5) Uiso 0.30 1 d P . .
O38 O 0.789(2) 1.638(2) -0.064(2) 0.58(4) Uiso 0.50 1 d P . .
O39 O 0.6274(18) 0.7999(17) 0.6294(18) 0.45(3) Uiso 0.40 1 d P . .
O40 O 1.338(3) 0.341(2) 0.248(3) 0.52(5) Uiso 0.30 1 d P . .
O41 O 1.335(3) 0.397(2) 0.021(3) 0.51(5) Uiso 0.30 1 d P . .
O42 O 1.076(4) 1.226(3) 0.320(5) 0.49(7) Uiso 0.20 1 d P . .
O43 O 1.232(4) 1.036(3) 0.403(4) 0.49(6) Uiso 0.20 1 d P . .
O44 O 0.672(3) 0.916(2) 0.661(2) 0.45(4) Uiso 0.30 1 d P . .
O45 O 0.740(2) 1.152(3) 0.562(3) 0.46(4) Uiso 0.40 1 d P . .
O46 O 0.369(2) 1.062(2) 0.206(2) 0.59(4) Uiso 0.50 1 d P . .
O47 O 0.245(3) 1.214(4) 0.107(3) 0.43(5) Uiso 0.20 1 d P . .
O48 O 1.107(5) 0.420(4) 0.242(5) 0.59(9) Uiso 0.20 1 d P . .
O49 O 0.295(4) 1.226(3) 0.087(4) 0.64(7) Uiso 0.30 1 d P . .
O50 O 1.331(3) 0.332(3) 0.062(3) 0.46(6) Uiso 0.20 1 d P . .
O51 O 0.9998(15) 0.4145(13) 0.4182(14) 0.48(2) Uiso 0.50 1 d P . .
O52 O 0.995(5) 0.578(5) 0.423(5) 0.60(9) Uiso 0.20 1 d P . .
O53 O 1.077(4) 0.421(4) 0.295(4) 0.52(7) Uiso 0.20 1 d P . .
O54 O 0.653(3) 0.766(2) 0.659(3) 0.66(4) Uiso 0.50 1 d P . .
O55 O 0.640(3) 0.932(2) 0.642(3) 0.53(5) Uiso 0.40 1 d P . .
O56 O 1.344(3) 0.362(2) 0.072(2) 0.57(4) Uiso 0.40 1 d P . .
O57 O 1.216(3) 1.069(2) 0.355(3) 0.56(4) Uiso 0.40 1 d P . .
O58 O 1.071(4) 0.329(4) 0.338(4) 0.56(8) Uiso 0.20 1 d P . .
O59 O 1.070(2) 1.223(2) 0.358(3) 0.62(4) Uiso 0.50 1 d P . .
O60 O 1.404(4) 0.333(3) 0.022(4) 0.50(7) Uiso 0.20 1 d P . .
O61 O 1.070(3) 0.365(3) 0.349(3) 0.54(5) Uiso 0.30 1 d P . .
O62 O 0.3623(18) 1.2064(16) 0.0654(17) 0.54(3) Uiso 0.50 1 d P . .
O63 O 0.745(4) 1.126(5) 0.565(5) 0.66(11) Uiso 0.30 1 d P . .

loop_
_atom_site_aniso_label
_atom_site_aniso_U_11
_atom_site_aniso_U_22
_atom_site_aniso_U_33
_atom_site_aniso_U_23
_atom_site_aniso_U_13
_atom_site_aniso_U_12
Pd1 0.246(3) 0.258(2) 0.275(3) -0.0913(18) -0.093(2) -0.079(2)
Pd2 0.251(3) 0.258(2) 0.277(3) -0.0977(19) -0.095(2) -0.0778(19)
Pd3 0.243(3) 0.253(2) 0.284(3) -0.0984(19) -0.088(2) -0.080(2)
Pd4 0.250(3) 0.253(2) 0.246(2) -0.0759(18) -0.079(2) -0.079(2)
Pd5 0.251(3) 0.289(2) 0.243(2) -0.0908(18) -0.073(2) -0.103(2)
Pd6 0.281(3) 0.258(2) 0.242(2) -0.0745(17) -0.090(2) -0.099(2)
Pd7 0.283(3) 0.256(2) 0.243(2) -0.0804(18) -0.095(2) -0.091(2)
Pd8 0.250(3) 0.256(2) 0.243(2) -0.0798(18) -0.076(2) -0.0775(19)
Pd9 0.252(3) 0.288(2) 0.244(2) -0.0981(19) -0.076(2) -0.094(2)
Pd10 0.246(3) 0.287(2) 0.245(2) -0.0979(19) -0.070(2) -0.098(2)
Pd11 0.288(3) 0.258(2) 0.240(2) -0.0814(18) -0.087(2) -0.099(2)
Pd12 0.247(3) 0.254(2) 0.246(2) -0.0823(18) -0.070(2) -0.080(2)
Pd21 0.194(7) 0.193(5) 0.213(6) -0.054(4) -0.064(5) -0.074(5)
Pd22 0.192(7) 0.225(6) 0.182(6) -0.058(5) -0.066(5) -0.071(5)
Pd23 0.221(7) 0.232(6) 0.186(6) -0.060(5) -0.065(5) -0.101(5)
Pd24 0.214(7) 0.188(5) 0.212(6) -0.054(4) -0.091(5) -0.070(5)
Pd25 0.227(7) 0.182(5) 0.218(6) -0.058(4) -0.103(6) -0.061(5)
Pd26 0.216(7) 0.198(5) 0.186(6) -0.065(4) -0.070(5) -0.057(5)
Pd27 0.191(7) 0.232(6) 0.187(6) -0.068(5) -0.067(5) -0.060(5)
Pd28 0.188(7) 0.231(6) 0.214(6) -0.101(5) -0.066(5) -0.058(5)
Pd29 0.189(7) 0.229(6) 0.210(6) -0.100(5) -0.057(5) -0.064(5)
Pd30 0.210(7) 0.232(6) 0.189(6) -0.075(5) -0.056(5) -0.091(5)
Pd31 0.226(7) 0.196(5) 0.185(6) -0.070(4) -0.061(5) -0.068(5)
Pd32 0.189(7) 0.193(5) 0.219(6) -0.066(5) -0.057(5) -0.067(5)

_geom_special_details            
; 
 All esds (except the esd in the dihedral angle between two l.s. planes) 
 are estimated using the full covariance matrix.  The cell esds are taken 
 into account individually in the estimation of esds in distances, angles 
 and torsion angles; correlations between esds in cell parameters are only 
 used when they are defined by crystal symmetry.  An approximate (isotropic) 
 treatment of cell esds is used for estimating esds involving l.s. planes. 
;

loop_
_geom_bond_atom_site_label_1
_geom_bond_atom_site_label_2
_geom_bond_distance
_geom_bond_site_symmetry_2
_geom_bond_publ_flag
B1 F1F 1.379(17) . ?
B1 F1C 1.385(17) . ?
B1 F1E 1.391(16) . ?
B1 F1B 1.393(18) . ?
B1 F1A 1.395(18) . ?
B1 F1G 1.408(18) . ?
B1 F1H 1.411(17) . ?
B1 F1D 1.417(18) . ?
B2 F2B 1.376(18) . ?
B2 F2E 1.390(17) . ?
B2 F2F 1.394(17) . ?
B2 F2A 1.395(17) . ?
B2 F2D 1.398(17) . ?
B2 F2H 1.401(17) . ?
B2 F2G 1.401(18) . ?
B2 F2C 1.412(18) . ?
B3 F3E 1.382(16) . ?
B3 F3B 1.387(18) . ?
B3 F3A 1.388(18) . ?
B3 F3F 1.396(17) . ?
B3 F3C 1.397(18) . ?
B3 F3H 1.398(17) . ?
B3 F3G 1.408(18) . ?
B3 F3D 1.418(18) . ?
B4 F4F 1.383(17) . ?
B4 F4A 1.388(17) . ?
B4 F4D 1.393(17) . ?
B4 F4E 1.395(17) . ?
B4 F4G 1.397(17) . ?
B4 F4C 1.399(17) . ?
B4 F4H 1.409(18) . ?
B4 F4B 1.412(17) . ?
B5 F5E 1.383(18) . ?
B5 F5A 1.387(18) . ?
B5 F5G 1.392(18) . ?
B5 F5D 1.393(18) . ?
B5 F5B 1.400(18) . ?
B5 F5F 1.402(18) . ?
B5 F5C 1.409(18) . ?
B5 F5H 1.409(18) . ?
B6 F6H 1.380(17) . ?
B6 F6A 1.385(17) . ?
B6 F6E 1.394(17) . ?
B6 F6C 1.395(18) . ?
B6 F6B 1.399(17) . ?
B6 F6F 1.401(18) . ?
B6 F6D 1.409(18) . ?
B6 F6G 1.411(17) . ?
B7 F7G 1.373(17) . ?
B7 F7E 1.388(16) . ?
B7 F7D 1.388(18) . ?
B7 F7B 1.393(18) . ?
B7 F7A 1.397(18) . ?
B7 F7C 1.408(18) . ?
B7 F7F 1.410(18) . ?
B7 F7H 1.419(18) . ?
B8 F8F 1.380(18) . ?
B8 F8H 1.382(18) . ?
B8 F8A 1.384(17) . ?
B8 F8D 1.395(18) . ?
B8 F8B 1.404(18) . ?
B8 F8E 1.405(18) . ?
B8 F8C 1.411(18) . ?
B8 F8G 1.424(18) . ?
B9 F9A 1.366(17) . ?
B9 F9E 1.388(17) . ?
B9 F9F 1.394(18) . ?
B9 F9D 1.395(18) . ?
B9 F9B 1.397(18) . ?
B9 F9H 1.400(18) . ?
B9 F9G 1.409(18) . ?
B9 F9C 1.430(18) . ?
B10 F10E 1.384(17) . ?
B10 F10H 1.388(18) . ?
B10 F10B 1.387(18) . ?
B10 F10C 1.393(18) . ?
B10 F10A 1.394(17) . ?
B10 F10F 1.405(18) . ?
B10 F10G 1.414(18) . ?
B10 F10D 1.419(18) . ?
B11 F11B 1.374(17) . ?
B11 F11E 1.385(18) . ?
B11 F11H 1.389(17) . ?
B11 F11F 1.396(17) . ?
B11 F11C 1.402(17) . ?
B11 F11A 1.404(17) . ?
B11 F11D 1.412(17) . ?
B11 F11G 1.421(18) . ?
B12 F12E 1.370(17) . ?
B12 F12C 1.383(17) . ?
B12 F12H 1.391(18) . ?
B12 F12A 1.397(18) . ?
B12 F12B 1.397(18) . ?
B12 F12F 1.402(17) . ?
B12 F12D 1.406(18) . ?
B12 F12G 1.419(18) . ?
B13 F13B 1.383(17) . ?
B13 F13H 1.386(18) . ?
B13 F13D 1.390(17) . ?
B13 F13E 1.393(18) . ?
B13 F13C 1.405(18) . ?
B13 F13G 1.406(18) . ?
B13 F13F 1.407(18) . ?
B13 F13A 1.412(18) . ?
B14 F14A 1.372(18) . ?
B14 F14H 1.386(18) . ?
B14 F14G 1.394(18) . ?
B14 F14E 1.401(18) . ?
B14 F14D 1.403(18) . ?
B14 F14C 1.404(18) . ?
B14 F14F 1.407(18) . ?
B14 F14B 1.408(18) . ?
B15 F15A 1.386(17) . ?
B15 F15F 1.394(18) . ?
B15 F15C 1.394(18) . ?
B15 F15E 1.398(18) . ?
B15 F15B 1.398(18) . ?
B15 F15G 1.399(18) . ?
B15 F15H 1.401(18) . ?
B15 F15D 1.408(18) . ?
B16 F16A 1.372(17) . ?
B16 F16B 1.382(17) . ?
B16 F16G 1.387(18) . ?
B16 F16E 1.396(17) . ?
B16 F16H 1.397(18) . ?
B16 F16F 1.400(18) . ?
B16 F16C 1.407(18) . ?
B16 F16D 1.417(18) . ?
B17 F17B 1.372(17) . ?
B17 F17E 1.386(16) . ?
B17 F17A 1.391(18) . ?
B17 F17F 1.391(17) . ?
B17 F17H 1.397(17) . ?
B17 F17D 1.403(18) . ?
B17 F17G 1.413(18) . ?
B17 F17C 1.423(18) . ?
B18 F18B 1.377(18) . ?
B18 F18E 1.380(17) . ?
B18 F18F 1.396(18) . ?
B18 F18A 1.396(17) . ?
B18 F18C 1.402(18) . ?
B18 F18H 1.403(18) . ?
B18 F18G 1.404(18) . ?
B18 F18D 1.409(18) . ?
B19 F19H 1.376(18) . ?
B19 F19C 1.383(18) . ?
B19 F19E 1.384(17) . ?
B19 F19A 1.391(18) . ?
B19 F19B 1.394(18) . ?
B19 F19G 1.411(18) . ?
B19 F19F 1.420(18) . ?
B19 F19D 1.422(18) . ?
B20 F20G 1.385(17) . ?
B20 F20E 1.394(17) . ?
B20 F20A 1.395(17) . ?
B20 F20C 1.395(18) . ?
B20 F20F 1.397(18) . ?
B20 F20D 1.395(18) . ?
B20 F20B 1.400(18) . ?
B20 F20H 1.410(18) . ?
B21 F21A 1.385(18) . ?
B21 F21E 1.388(18) . ?
B21 F21F 1.390(18) . ?
B21 F21C 1.396(18) . ?
B21 F21B 1.400(18) . ?
B21 F21G 1.403(18) . ?
B21 F21H 1.406(18) . ?
B21 F21D 1.408(18) . ?
B22 F22A 1.387(17) . ?
B22 F22E 1.388(17) . ?
B22 F22D 1.392(18) . ?
B22 F22F 1.392(18) . ?
B22 F22B 1.393(17) . ?
B22 F22H 1.400(18) . ?
B22 F22G 1.407(17) . ?
B22 F22C 1.415(18) . ?
B23 F23A 1.361(16) . ?
B23 F23E 1.386(17) . ?
B23 F23D 1.395(17) . ?
B23 F23F 1.399(18) . ?
B23 F23G 1.402(18) . ?
B23 F23H 1.402(18) . ?
B23 F23B 1.415(18) . ?
B23 F23C 1.418(18) . ?
B24 F24C 1.387(18) . ?
B24 F24E 1.389(17) . ?
B24 F24A 1.389(17) . ?
B24 F24G 1.392(18) . ?
B24 F24F 1.394(18) . ?
B24 F24B 1.398(18) . ?
B24 F24H 1.404(18) . ?
B24 F24D 1.411(18) . ?
B41 F41D 1.395(19) . ?
B41 F41A 1.400(19) . ?
B41 F41C 1.404(19) . ?
B41 F41B 1.405(19) . ?
B42 F64A 0.93(9) 2_776 ?
B42 F42A 1.397(19) . ?
B42 F42F 1.397(19) . ?
B42 F42C 1.400(19) . ?
B42 F42H 1.401(19) . ?
B42 F42D 1.402(19) . ?
B42 F42E 1.403(19) . ?
B42 F42G 1.405(19) . ?
B42 F42B 1.407(19) . ?
B42 B64 1.43(7) 2_776 ?
B42 F64D 1.67(8) 2_776 ?
F42A B64 0.58(12) 2_776 ?
F42A F64A 1.06(8) 2_776 ?
F42A F64B 1.28(8) 2_776 ?
F42C F64D 1.62(13) 2_776 ?
F42D F64A 1.26(8) 2_776 ?
F42E F64D 0.99(12) 2_776 ?
F42E B64 1.93(11) 2_776 ?
F42F F64A 1.75(9) 2_776 ?
F42G F64A 1.28(10) 2_776 ?
F42G B64 1.50(12) 2_776 ?
F42H F64A 1.19(10) 2_776 ?
F42H B64 1.47(12) 2_776 ?
F42H F64C 1.50(10) 2_776 ?
B43 F43E 1.388(19) . ?
B43 F43D 1.396(19) . ?
B43 F43B 1.398(19) . ?
B43 F43F 1.399(19) . ?
B43 F43A 1.402(19) . ?
B43 F43H 1.404(19) . ?
B43 F43C 1.410(19) . ?
B43 F43G 1.413(19) . ?
B44 F44A 1.394(19) . ?
B44 F44G 1.398(19) . ?
B44 F44H 1.400(19) . ?
B44 F44C 1.401(19) . ?
B44 F44F 1.402(19) . ?
B44 F44D 1.404(19) . ?
B44 F44E 1.404(19) . ?
B44 F44B 1.407(19) . ?
F44G Pd27 2.42(11) 1_565 ?
B45 F45B 1.401(19) . ?
B45 F45D 1.401(19) . ?
B45 F45C 1.402(19) . ?
B45 F45A 1.402(19) . ?
B46 F46A 1.384(18) . ?
B46 F46F 1.389(19) . ?
B46 F46B 1.398(19) . ?
B46 F46H 1.402(19) . ?
B46 F46E 1.407(19) . ?
B46 F46G 1.408(19) . ?
B46 F46C 1.411(19) . ?
B46 F46D 1.412(19) . ?
B47 F47E 1.395(19) . ?
B47 F47C 1.398(19) . ?
B47 F47A 1.399(19) . ?
B47 F47H 1.400(19) . ?
B47 F47F 1.403(19) . ?
B47 F47B 1.403(19) . ?
B47 F47D 1.406(19) . ?
B47 F47G 1.408(19) . ?
B48 F48B 1.391(19) . ?
B48 F48A 1.391(19) . ?
B48 F48D 1.405(19) . ?
B48 F48C 1.412(19) . ?
B49 F49A 1.399(19) . ?
B49 F49D 1.402(19) . ?
B49 F49C 1.402(19) . ?
B49 F49B 1.405(19) . ?
B50 F50A 1.400(19) . ?
B50 F50B 1.400(19) . ?
B50 F50D 1.400(19) . ?
B50 F50C 1.404(19) . ?
B51 F51C 1.401(19) . ?
B51 F51A 1.401(19) . ?
B51 F51H 1.401(19) . ?
B51 F51F 1.402(19) . ?
B51 F51E 1.402(19) . ?
B51 F51G 1.403(19) . ?
B51 F51B 1.403(19) . ?
B51 F51D 1.404(19) . ?
B53 F53H 1.401(19) . ?
B53 F53C 1.401(19) . ?
B53 F53A 1.402(18) . ?
B53 F53B 1.403(19) . ?
B53 F53F 1.402(19) . ?
B53 F53G 1.404(19) . ?
B53 F53D 1.404(19) . ?
B55 F55C 1.401(19) . ?
B55 F55A 1.401(19) . ?
B55 F55D 1.401(19) . ?
B55 F55B 1.405(19) . ?
B56 F58A 0.78(9) 2_766 ?
B56 F56D 1.398(19) . ?
B56 F56A 1.401(19) . ?
B56 F56C 1.401(19) . ?
B56 F56B 1.404(19) . ?
B56 B58 1.53(7) 2_766 ?
B56 F58D 1.87(9) 2_766 ?
F56A F58A 1.57(8) 2_766 ?
F56A B58 1.80(8) 2_766 ?
F56B F58D 1.50(10) 2_766 ?
F56C F58A 1.57(7) 2_766 ?
F56D F58A 0.95(7) 2_766 ?
F56D B58 1.14(9) 2_766 ?
F56D F58C 1.42(8) 2_766 ?
B57 F57D 1.401(19) . ?
B57 F57H 1.401(19) . ?
B57 F57E 1.402(19) . ?
B57 F57B 1.402(19) . ?
B57 F57G 1.402(19) . ?
B57 F57A 1.402(19) . ?
B57 F57F 1.404(19) . ?
B57 F57C 1.404(19) . ?
B58 F56D 1.14(9) 2_766 ?
B58 F58A 1.398(19) . ?
B58 F58B 1.400(19) . ?
B58 F58C 1.400(19) . ?
B58 F58D 1.404(19) . ?
B58 B56 1.53(7) 2_766 ?
B58 F56A 1.80(8) 2_766 ?
F58A B56 0.78(9) 2_766 ?
F58A F56D 0.95(7) 2_766 ?
F58A F56A 1.57(8) 2_766 ?
F58A F56C 1.57(7) 2_766 ?
F58C F56D 1.42(8) 2_766 ?
F58D F56B 1.50(10) 2_766 ?
F58D B56 1.87(9) 2_766 ?
B59 F59A 1.400(19) . ?
B59 F59H 1.402(19) . ?
B59 F59E 1.401(19) . ?
B59 F59B 1.401(19) . ?
B59 F59F 1.403(19) . ?
B59 F59G 1.403(19) . ?
B59 F59C 1.404(19) . ?
B59 F59D 1.404(19) . ?
B61 F61E 1.398(19) . ?
B61 F61D 1.399(19) . ?
B61 F61A 1.401(19) . ?
B61 F61G 1.402(19) . ?
B61 F61B 1.403(19) . ?
B61 F61F 1.404(19) . ?
B61 F61C 1.404(19) . ?
B61 F61H 1.405(19) . ?
B62 F62H 1.370(18) . ?
B62 F62C 1.391(19) . ?
B62 F62B 1.395(19) . ?
B62 F62D 1.404(19) . ?
B62 F62E 1.404(19) . ?
B62 F62F 1.411(19) . ?
B62 F62G 1.416(19) . ?
B62 F62A 1.418(19) . ?
B63 F63A 1.399(19) . ?
B63 F63B 1.401(19) . ?
B63 F63D 1.404(19) . ?
B63 F63C 1.405(19) . ?
B64 F42A 0.58(12) 2_776 ?
B64 F64B 1.396(19) . ?
B64 F64A 1.399(19) . ?
B64 F64C 1.401(19) . ?
B64 F64D 1.403(19) . ?
B64 B42 1.43(7) 2_776 ?
B64 F42H 1.47(12) 2_776 ?
B64 F42G 1.50(12) 2_776 ?
B64 F42E 1.93(11) 2_776 ?
F64A B42 0.93(9) 2_776 ?
F64A F42A 1.06(8) 2_776 ?
F64A F42H 1.19(10) 2_776 ?
F64A F42D 1.26(8) 2_776 ?
F64A F42G 1.28(10) 2_776 ?
F64A F42F 1.75(9) 2_776 ?
F64B F42A 1.28(8) 2_776 ?
F64B Pd21 2.52(6) 2_776 ?
F64C F42H 1.50(10) 2_776 ?
F64D F42E 0.99(12) 2_776 ?
F64D F42C 1.62(13) 2_776 ?
F64D B42 1.67(8) 2_776 ?
B1X F1XB 1.394(19) . ?
B1X F1XD 1.394(19) . ?
B1X F1XC 1.399(19) . ?
B1X F1XA 1.402(19) . ?
B2X F2XD 1.388(19) . ?
B2X F2XA 1.397(19) . ?
B2X F2XC 1.399(19) . ?
B2X F2XB 1.404(19) . ?
B3X F3XC 1.402(19) . ?
B3X F3XA 1.402(19) . ?
B3X F3XD 1.405(19) . ?
B3X F3XB 1.408(19) . ?
Pd1 N2C 1.96(2) . ?
Pd1 N2G 1.977(15) . ?
Pd1 N1A 1.98(2) . ?
Pd1 N1D 2.011(15) . ?
Pd1 N42I 2.11(4) . ?
Pd1 N42X 2.12(5) . ?
Pd2 N2A 1.96(2) . ?
Pd2 N2I 1.994(16) . ?
Pd2 N2L 2.005(14) . ?
Pd2 N1B 2.01(2) . ?
Pd2 N42Q 2.07(4) . ?
Pd2 N42H 2.12(4) . ?
Pd3 N1C 1.94(2) . ?
Pd3 N2B 1.94(2) . ?
Pd3 N2Q 1.988(16) . ?
Pd3 N2N 1.997(14) . ?
Pd3 N42P 2.11(4) . ?
Pd3 N42A 2.14(4) . ?
Pd4 N2D 1.967(15) . ?
Pd4 N2R 1.97(2) . ?
Pd4 N1E 1.984(14) . ?
Pd4 N42M 2.04(5) 2_775 ?
Pd4 N1S 2.07(3) . ?
Pd4 N42W 2.10(4) . ?
Pd5 N1T 1.98(2) . ?
Pd5 N1U 1.98(3) . ?
Pd5 N2E 1.989(15) . ?
Pd5 N1F 1.988(17) . ?
Pd5 N42N 2.09(5) 2_775 ?
Pd5 N42S 2.12(4) 2_775 ?
Pd6 N1V 1.96(2) . ?
Pd6 N1H 1.97(2) . ?
Pd6 N2F 1.992(15) . ?
Pd6 N1G 2.002(15) . ?
Pd6 N42J 2.13(4) . ?
Pd6 N42T 2.19(4) 2_775 ?
Pd7 N2H 1.95(2) . ?
Pd7 N1W 1.98(2) . ?
Pd7 N42U 1.98(4) 2_775 ?
Pd7 N1I 1.996(16) . ?
Pd7 N1J 1.995(15) . ?
Pd7 N42G 2.19(3) . ?
Pd8 N2J 1.961(16) . ?
Pd8 N1X 1.98(2) . ?
Pd8 N1K 1.993(15) . ?
Pd8 N2S 2.01(2) 2_775 ?
Pd8 N42C 2.06(5) 2_775 ?
Pd8 N42V 2.12(4) 2_775 ?
Pd9 N2T 1.97(3) 2_775 ?
Pd9 N1L 1.975(16) . ?
Pd9 N2K 1.982(15) . ?
Pd9 N1M 2.02(3) . ?
Pd9 N42D 2.09(5) 2_775 ?
Pd9 N42R 2.09(5) . ?
Pd10 N2M 1.93(2) . ?
Pd10 N1N 1.954(15) . ?
Pd10 N1O 1.965(16) . ?
Pd10 N2U 2.00(2) 2_775 ?
Pd10 N42E 2.10(5) 2_775 ?
Pd10 N42O 2.15(6) . ?
Pd11 N2W 1.94(2) 2_775 ?
Pd11 N2O 1.974(15) . ?
Pd11 N1P 1.985(15) . ?
Pd11 N2V 1.99(2) 2_775 ?
Pd11 N42F 2.14(4) 2_775 ?
Pd11 N42K 2.20(4) 2_775 ?
Pd12 N2X 1.94(2) 2_775 ?
Pd12 N2P 1.965(15) . ?
Pd12 N1Q 1.987(16) . ?
Pd12 N1R 2.00(2) . ?
Pd12 N42L 2.07(5) 2_775 ?
Pd12 N42B 2.09(5) . ?
Pd21 N41A 2.00(4) . ?
Pd21 N21A 2.04(3) . ?
Pd21 N21D 2.07(4) . ?
Pd21 N41B 2.11(5) . ?
Pd21 F64B 2.52(6) 2_776 ?
Pd22 N22A 1.99(4) . ?
Pd22 N41C 2.03(5) . ?
Pd22 N41D 2.05(4) . ?
Pd22 N21B 2.10(4) . ?
Pd23 N41F 2.01(4) . ?
Pd23 N41E 2.02(4) . ?
Pd23 N21C 2.06(4) . ?
Pd23 N22B 2.06(4) . ?
Pd24 N41G 2.06(3) . ?
Pd24 N22C 2.07(3) . ?
Pd24 N41H 2.08(4) . ?
Pd24 N22D 2.11(4) . ?
Pd25 N41J 1.99(4) . ?
Pd25 N21E 2.03(4) . ?
Pd25 N22H 2.09(4) . ?
Pd25 N41I 2.09(4) . ?
Pd26 N22E 1.98(4) . ?
Pd26 N41L 2.00(4) . ?
Pd26 N21F 2.07(4) . ?
Pd26 N41K 2.07(4) . ?
Pd27 N22F 2.03(4) . ?
Pd27 N41M 2.05(4) . ?
Pd27 N21G 2.06(3) . ?
Pd27 N41N 2.10(4) . ?
Pd27 F44G 2.42(11) 1_545 ?
Pd28 N41P 2.03(4) . ?
Pd28 N22G 2.04(3) . ?
Pd28 N21H 2.05(4) . ?
Pd28 N41O 2.09(5) . ?
Pd29 N41R 1.98(3) . ?
Pd29 N21I 1.99(4) . ?
Pd29 N22L 2.04(3) . ?
Pd29 N41Q 2.09(4) . ?
Pd30 N41T 2.04(4) . ?
Pd30 N22I 2.06(4) . ?
Pd30 N41S 2.08(4) . ?
Pd30 N21J 2.09(3) . ?
Pd31 N41V 2.02(4) . ?
Pd31 N21K 2.04(4) . ?
Pd31 N41U 2.04(4) . ?
Pd31 N22J 2.06(3) . ?
Pd32 N22K 2.01(4) . ?
Pd32 N41X 2.05(5) . ?
Pd32 N41W 2.08(4) . ?
Pd32 N21L 2.09(3) . ?
N1D C1D 1.3900 . ?
N1D C5D 1.3900 . ?
C1D C2D 1.3900 . ?
C2D C3D 1.3900 . ?
C3D C4D 1.3900 . ?
C3D N4D 1.408(19) . ?
C4D C5D 1.3900 . ?
N2D C10D 1.3900 . ?
N2D C6D 1.3900 . ?
C6D C7D 1.3900 . ?
C7D C8D 1.3900 . ?
C8D C9D 1.3900 . ?
C8D C13D 1.437(19) . ?
C9D C10D 1.3900 . ?
N3D C13D 1.353(19) . ?
N3D N4D 1.386(19) . ?
N4D C11D 1.39(2) . ?
C11D C12D 1.41(2) . ?
C12D C13D 1.44(2) . ?
N1E C1E 1.3900 . ?
N1E C5E 1.3900 . ?
C1E C2E 1.3900 . ?
C2E C3E 1.3900 . ?
C3E C4E 1.3900 . ?
C3E N4E 1.410(19) . ?
C4E C5E 1.3900 . ?
N2E C6E 1.3900 . ?
N2E C10E 1.3900 . ?
C6E C7E 1.3900 . ?
C7E C8E 1.3900 . ?
C8E C9E 1.3900 . ?
C8E C13E 1.442(19) . ?
C9E C10E 1.3900 . ?
N3E C13E 1.352(18) . ?
N3E N4E 1.387(18) . ?
N4E C11E 1.399(19) . ?
C11E C12E 1.41(2) . ?
C12E C13E 1.450(19) . ?
N1F C1F 1.3900 . ?
N1F C5F 1.3900 . ?
C1F C2F 1.3900 . ?
C2F C3F 1.3900 . ?
C3F C4F 1.3900 . ?
C3F N4F 1.39(2) . ?
C4F C5F 1.3900 . ?
N2F C6F 1.3900 . ?
N2F C10F 1.3900 . ?
C6F C7F 1.3900 . ?
C7F C8F 1.3900 . ?
C8F C9F 1.3900 . ?
C8F C13F 1.446(19) . ?
C9F C10F 1.3900 . ?
N3F C13F 1.354(19) . ?
N3F N4F 1.381(19) . ?
N4F C11F 1.39(2) . ?
C11F C12F 1.41(2) . ?
C12F C13F 1.44(2) . ?
N1G C1G 1.3900 . ?
N1G C5G 1.3900 . ?
C1G C2G 1.3900 . ?
C2G C3G 1.3900 . ?
C3G C4G 1.3900 . ?
C3G N4G 1.404(19) . ?
C4G C5G 1.3900 . ?
N2G C6G 1.3900 . ?
N2G C10G 1.3900 . ?
C6G C7G 1.3900 . ?
C7G C8G 1.3900 . ?
C8G C9G 1.3900 . ?
C8G C13G 1.44(2) . ?
C9G C10G 1.3900 . ?
N3G C13G 1.353(19) . ?
N3G N4G 1.380(19) . ?
N4G C11G 1.40(2) . ?
C11G C12G 1.40(2) . ?
C12G C13G 1.42(2) . ?
N1I C1I 1.3900 . ?
N1I C5I 1.3900 . ?
C1I C2I 1.3900 . ?
C2I C3I 1.3900 . ?
C3I C4I 1.3900 . ?
C3I N4I 1.40(2) . ?
C4I C5I 1.3900 . ?
N2I C6I 1.3900 . ?
N2I C10I 1.3900 . ?
C6I C7I 1.3900 . ?
C7I C8I 1.3900 . ?
C8I C9I 1.3900 . ?
C8I C13I 1.46(2) . ?
C9I C10I 1.3900 . ?
N3I C13I 1.38(2) . ?
N3I N4I 1.390(19) . ?
N4I C11I 1.39(2) . ?
C11I C12I 1.40(2) . ?
C12I C13I 1.44(2) . ?
N1J C1J 1.3900 . ?
N1J C5J 1.3900 . ?
C1J C2J 1.3900 . ?
C2J C3J 1.3900 . ?
C3J C4J 1.3900 . ?
C3J N4J 1.42(2) . ?
C4J C5J 1.3900 . ?
N2J C6J 1.3900 . ?
N2J C10J 1.3900 . ?
C6J C7J 1.3900 . ?
C7J C8J 1.3900 . ?
C8J C9J 1.3900 . ?
C8J C13J 1.44(2) . ?
C9J C10J 1.3900 . ?
N3J C13J 1.348(19) . ?
N3J N4J 1.383(19) . ?
N4J C11J 1.39(2) . ?
C11J C12J 1.41(2) . ?
C12J C13J 1.43(2) . ?
N1K C1K 1.3900 . ?
N1K C5K 1.3900 . ?
C1K C2K 1.3900 . ?
C2K C3K 1.3900 . ?
C3K C4K 1.3900 . ?
C3K N4K 1.407(19) . ?
C4K C5K 1.3900 . ?
N2K C6K 1.3900 . ?
N2K C10K 1.3900 . ?
C6K C7K 1.3900 . ?
C7K C8K 1.3900 . ?
C8K C9K 1.3900 . ?
C8K C13K 1.442(19) . ?
C9K C10K 1.3900 . ?
N3K C13K 1.369(19) . ?
N3K N4K 1.395(19) . ?
N4K C11K 1.39(2) . ?
C11K C12K 1.42(2) . ?
C12K C13K 1.434(19) . ?
N1L C1L 1.3900 . ?
N1L C5L 1.3900 . ?
C1L C2L 1.3900 . ?
C2L C3L 1.3900 . ?
C3L C4L 1.3900 . ?
C3L N4L 1.398(19) . ?
C4L C5L 1.3900 . ?
N2L C6L 1.3900 . ?
N2L C10L 1.3900 . ?
C6L C7L 1.3900 . ?
C7L C8L 1.3900 . ?
C8L C9L 1.3900 . ?
C8L C13L 1.445(19) . ?
C9L C10L 1.3900 . ?
N3L C13L 1.354(19) . ?
N3L N4L 1.375(19) . ?
N4L C11L 1.40(2) . ?
C11L C12L 1.41(2) . ?
C12L C13L 1.43(2) . ?
N1N C1N 1.3900 . ?
N1N C5N 1.3900 . ?
C1N C2N 1.3900 . ?
C2N C3N 1.3900 . ?
C3N C4N 1.3900 . ?
C3N N4N 1.404(19) . ?
C4N C5N 1.3900 . ?
N2N C6N 1.3900 . ?
N2N C10N 1.3900 . ?
C6N C7N 1.3900 . ?
C7N C8N 1.3900 . ?
C8N C9N 1.3900 . ?
C8N C13N 1.436(19) . ?
C9N C10N 1.3900 . ?
N3N C13N 1.357(19) . ?
N3N N4N 1.387(18) . ?
N4N C11N 1.391(19) . ?
C11N C12N 1.41(2) . ?
C12N C13N 1.435(19) . ?
N1O C1O 1.3900 . ?
N1O C5O 1.3900 . ?
C1O C2O 1.3900 . ?
C2O C3O 1.3900 . ?
C3O C4O 1.3900 . ?
C3O N4O 1.392(19) . ?
C4O C5O 1.3900 . ?
N2O C6O 1.3900 . ?
N2O C10O 1.3900 . ?
C6O C7O 1.3900 . ?
C7O C8O 1.3900 . ?
C8O C9O 1.3900 . ?
C8O C13O 1.445(19) . ?
C9O C10O 1.3900 . ?
N3O C13O 1.354(19) . ?
N3O N4O 1.405(19) . ?
N4O C11O 1.39(2) . ?
C11O C12O 1.40(2) . ?
C12O C13O 1.44(2) . ?
N1P C1P 1.3900 . ?
N1P C5P 1.3900 . ?
C1P C2P 1.3900 . ?
C2P C3P 1.3900 . ?
C3P C4P 1.3900 . ?
C3P N4P 1.394(19) . ?
C4P C5P 1.3900 . ?
N2P C6P 1.3900 . ?
N2P C10P 1.3900 . ?
C6P C7P 1.3900 . ?
C7P C8P 1.3900 . ?
C8P C9P 1.3900 . ?
C8P C13P 1.44(2) . ?
C9P C10P 1.3900 . ?
N3P C13P 1.369(19) . ?
N3P N4P 1.395(19) . ?
N4P C11P 1.39(2) . ?
C11P C12P 1.41(2) . ?
C12P C13P 1.44(2) . ?
N1Q C1Q 1.3900 . ?
N1Q C5Q 1.3900 . ?
C1Q C2Q 1.3900 . ?
C2Q C3Q 1.3900 . ?
C3Q N4Q 1.390(19) . ?
C3Q C4Q 1.3900 . ?
C4Q C5Q 1.3900 . ?
N2Q C6Q 1.3900 . ?
N2Q C10Q 1.3900 . ?
C6Q C7Q 1.3900 . ?
C7Q C8Q 1.3900 . ?
C8Q C9Q 1.3900 . ?
C8Q C13Q 1.440(19) . ?
C9Q C10Q 1.3900 . ?
N3Q C13Q 1.360(19) . ?
N3Q N4Q 1.392(19) . ?
N4Q C11Q 1.40(2) . ?
C11Q C12Q 1.41(2) . ?
C12Q C13Q 1.441(19) . ?
N1A C1A 1.3900 . ?
N1A C5A 1.3900 . ?
C1A C2A 1.3900 . ?
C2A C3A 1.3900 . ?
C3A C4A 1.3900 . ?
C3A N4A 1.42(2) . ?
C4A C5A 1.3900 . ?
N2A C6A 1.3900 . ?
N2A C10A 1.3900 . ?
C6A C7A 1.3900 . ?
C7A C8A 1.3900 . ?
C8A C9A 1.3900 . ?
C8A C13A 1.46(2) . ?
C9A C10A 1.3900 . ?
N3A C13A 1.35(2) . ?
N3A N4A 1.377(19) . ?
N4A C11A 1.37(2) . ?
C11A C12A 1.39(2) . ?
C12A C13A 1.41(2) . ?
N1B C1B 1.3900 . ?
N1B C5B 1.3900 . ?
C1B C2B 1.3900 . ?
C2B C3B 1.3900 . ?
C3B C4B 1.3900 . ?
C3B N4B 1.42(2) . ?
C4B C5B 1.3900 . ?
N2B C6B 1.3900 . ?
N2B C10B 1.3900 . ?
C6B C7B 1.3900 . ?
C7B C8B 1.3900 . ?
C8B C9B 1.3900 . ?
C8B C13B 1.46(2) . ?
C9B C10B 1.3900 . ?
N3B C13B 1.35(2) . ?
N3B N4B 1.37(2) . ?
N4B C11B 1.39(2) . ?
C11B C12B 1.40(2) . ?
C12B C13B 1.42(2) . ?
N1C C1C 1.3900 . ?
N1C C5C 1.3900 . ?
C1C C2C 1.3900 . ?
C2C C3C 1.3900 . ?
C3C C4C 1.3900 . ?
C3C N4C 1.43(2) . ?
C4C C5C 1.3900 . ?
N2C C6C 1.3900 . ?
N2C C10C 1.3900 . ?
C6C C7C 1.3900 . ?
C7C C8C 1.3900 . ?
C8C C9C 1.3900 . ?
C8C C13C 1.46(2) . ?
C9C C10C 1.3900 . ?
N3C C13C 1.35(2) . ?
N3C N4C 1.38(2) . ?
N4C C11C 1.39(2) . ?
C11C C12C 1.39(2) . ?
C12C C13C 1.44(2) . ?
N1H C1H 1.3900 . ?
N1H C5H 1.3900 . ?
C1H C2H 1.3900 . ?
C2H C3H 1.3900 . ?
C3H C4H 1.3900 . ?
C3H N4H 1.42(2) . ?
C4H C5H 1.3900 . ?
N2H C6H 1.3900 . ?
N2H C10H 1.3900 . ?
C6H C7H 1.3900 . ?
C7H C8H 1.3900 . ?
C8H C9H 1.3900 . ?
C8H C13H 1.46(2) . ?
C9H C10H 1.3900 . ?
N3H C13H 1.35(2) . ?
N3H N4H 1.39(2) . ?
N4H C11H 1.37(2) . ?
C11H C12H 1.39(2) . ?
C12H C13H 1.42(2) . ?
N1M C1M 1.3900 . ?
N1M C5M 1.3900 . ?
C1M C2M 1.3900 . ?
C2M C3M 1.3900 . ?
C3M C4M 1.3900 . ?
C3M N4M 1.43(2) . ?
C4M C5M 1.3900 . ?
N2M C6M 1.3900 . ?
N2M C10M 1.3900 . ?
C6M C7M 1.3900 . ?
C7M C8M 1.3900 . ?
C8M C9M 1.3900 . ?
C8M C13M 1.46(2) . ?
C9M C10M 1.3900 . ?
N3M C13M 1.34(2) . ?
N3M N4M 1.36(2) . ?
N4M C11M 1.39(2) . ?
C11M C12M 1.39(2) . ?
C12M C13M 1.43(2) . ?
N1R C1R 1.3900 . ?
N1R C5R 1.3900 . ?
C1R C2R 1.3900 . ?
C2R C3R 1.3900 . ?
C3R C4R 1.3900 . ?
C3R N4R 1.41(2) . ?
C4R C5R 1.3900 . ?
N2R C6R 1.3900 . ?
N2R C10R 1.3900 . ?
C6R C7R 1.3900 . ?
C7R C8R 1.3900 . ?
C8R C9R 1.3900 . ?
C8R C13R 1.45(2) . ?
C9R C10R 1.3900 . ?
N3R C13R 1.35(2) . ?
N3R N4R 1.36(2) . ?
N4R C11R 1.38(2) . ?
C11R C12R 1.39(2) . ?
C12R C13R 1.43(2) . ?
N1S C1S 1.3900 . ?
N1S C5S 1.3900 . ?
C1S C2S 1.3900 . ?
C2S C3S 1.3900 . ?
C3S C4S 1.3900 . ?
C3S N4S 1.42(2) . ?
C4S C5S 1.3900 . ?
N2S C6S 1.3900 . ?
N2S C10S 1.3900 . ?
N2S Pd8 2.01(2) 2_775 ?
C6S C7S 1.3900 . ?
C7S C8S 1.3900 . ?
C8S C9S 1.3900 . ?
C8S C13S 1.46(2) . ?
C9S C10S 1.3900 . ?
N3S C13S 1.34(2) . ?
N3S N4S 1.37(2) . ?
N4S C11S 1.38(2) . ?
N4S C13S 1.97(5) . ?
C11S C12S 1.38(2) . ?
C12S C13S 1.43(2) . ?
N1T C1T 1.3900 . ?
N1T C5T 1.3900 . ?
C1T C2T 1.3900 . ?
C2T C3T 1.3900 . ?
C3T C4T 1.3900 . ?
C3T N4T 1.42(2) . ?
C4T C5T 1.3900 . ?
N2T C6T 1.3900 . ?
N2T C10T 1.3900 . ?
N2T Pd9 1.97(3) 2_775 ?
C6T C7T 1.3900 . ?
C7T C8T 1.3900 . ?
C8T C9T 1.3900 . ?
C8T C13T 1.45(2) . ?
C9T C10T 1.3900 . ?
N3T C13T 1.36(2) . ?
N3T N4T 1.38(2) . ?
N4T C11T 1.39(2) . ?
C11T C12T 1.39(2) . ?
C12T C13T 1.43(2) . ?
N1U C1U 1.3900 . ?
N1U C5U 1.3900 . ?
C1U C2U 1.3900 . ?
C2U C3U 1.3900 . ?
C3U C4U 1.3900 . ?
C3U N4U 1.43(2) . ?
C4U C5U 1.3900 . ?
N2U C6U 1.3900 . ?
N2U C10U 1.3900 . ?
N2U Pd10 2.00(2) 2_775 ?
C6U C7U 1.3900 . ?
C7U C8U 1.3900 . ?
C8U C9U 1.3900 . ?
C8U C13U 1.46(2) . ?
C9U C10U 1.3900 . ?
N3U C13U 1.34(2) . ?
N3U N4U 1.37(2) . ?
N4U C11U 1.37(2) . ?
C11U C12U 1.39(2) . ?
C12U C13U 1.42(2) . ?
N1V C1V 1.3900 . ?
N1V C5V 1.3900 . ?
C1V C2V 1.3900 . ?
C2V C3V 1.3900 . ?
C3V C4V 1.3900 . ?
C3V N4V 1.42(2) . ?
C4V C5V 1.3900 . ?
N2V C6V 1.3900 . ?
N2V C10V 1.3900 . ?
N2V Pd11 1.99(2) 2_775 ?
C6V C7V 1.3900 . ?
C7V C8V 1.3900 . ?
C8V C9V 1.3900 . ?
C8V C13V 1.47(2) . ?
C9V C10V 1.3900 . ?
N3V C13V 1.36(2) . ?
N3V N4V 1.37(2) . ?
N4V C11V 1.39(2) . ?
C11V C12V 1.38(2) . ?
C12V C13V 1.43(2) . ?
N1W C1W 1.3900 . ?
N1W C5W 1.3900 . ?
C1W C2W 1.3900 . ?
C2W C3W 1.3900 . ?
C3W C4W 1.3900 . ?
C3W N4W 1.43(2) . ?
C4W C5W 1.3900 . ?
N2W C6W 1.3900 . ?
N2W C10W 1.3900 . ?
N2W Pd11 1.94(2) 2_775 ?
C6W C7W 1.3900 . ?
C7W C8W 1.3900 . ?
C8W C9W 1.3900 . ?
C8W C13W 1.47(2) . ?
C9W C10W 1.3900 . ?
N3W C13W 1.34(2) . ?
N3W N4W 1.38(2) . ?
N4W C11W 1.39(2) . ?
C11W C12W 1.39(2) . ?
C12W C13W 1.42(2) . ?
N1X C1X 1.3900 . ?
N1X C5X 1.3900 . ?
C1X C2X 1.3900 . ?
C2X C3X 1.3900 . ?
C3X C4X 1.3900 . ?
C3X N4X 1.41(2) . ?
C4X C5X 1.3900 . ?
N2X C6X 1.3900 . ?
N2X C10X 1.3900 . ?
N2X Pd12 1.93(2) 2_775 ?
C6X C7X 1.3900 . ?
C7X C8X 1.3900 . ?
C8X C9X 1.3900 . ?
C8X C13X 1.46(2) . ?
C9X C10X 1.3900 . ?
N3X C13X 1.35(2) . ?
N3X N4X 1.38(2) . ?
N4X C11X 1.37(2) . ?
C11X C12X 1.39(2) . ?
C12X C13X 1.41(2) . ?
N21A C21A 1.3900 . ?
N21A C25A 1.3900 . ?
C21A C22A 1.3900 . ?
C22A C23A 1.3900 . ?
C23A C24A 1.3900 . ?
C23A N24A 1.40(2) . ?
C24A C25A 1.3900 . ?
N22A C26A 1.3900 . ?
N22A C30A 1.3900 . ?
C26A C27A 1.3900 . ?
C27A C28A 1.3900 . ?
C28A C29A 1.3900 . ?
C28A C33A 1.46(2) . ?
C29A C30A 1.3900 . ?
N23A C33A 1.34(2) . ?
N23A N24A 1.36(2) . ?
N24A C31A 1.38(2) . ?
C31A C32A 1.38(2) . ?
C32A C33A 1.43(2) . ?
N21B C21B 1.3900 . ?
N21B C25B 1.3900 . ?
C21B C22B 1.3900 . ?
C22B C23B 1.3900 . ?
C23B C24B 1.3900 . ?
C23B N24B 1.41(2) . ?
C24B C25B 1.3900 . ?
N22B C26B 1.3900 . ?
N22B C30B 1.3900 . ?
C26B C27B 1.3900 . ?
C27B C28B 1.3900 . ?
C28B C29B 1.3900 . ?
C28B C33B 1.46(2) . ?
C29B C30B 1.3900 . ?
N23B C33B 1.34(2) . ?
N23B N24B 1.37(2) . ?
N24B C31B 1.39(2) . ?
C31B C32B 1.38(2) . ?
C32B C33B 1.44(2) . ?
N21C C21C 1.3900 . ?
N21C C25C 1.3900 . ?
C21C C22C 1.3900 . ?
C22C C23C 1.3900 . ?
C23C C24C 1.3900 . ?
C23C N24C 1.40(2) . ?
C24C C25C 1.3900 . ?
N22C C26C 1.3900 . ?
N22C C30C 1.3900 . ?
C26C C27C 1.3900 . ?
C27C C28C 1.3900 . ?
C28C C29C 1.3900 . ?
C28C C33C 1.46(2) . ?
C29C C30C 1.3900 . ?
N23C C33C 1.33(2) . ?
N23C N24C 1.35(2) . ?
N24C C31C 1.37(2) . ?
C31C C32C 1.37(2) . ?
C32C C33C 1.43(2) . ?
N21D C21D 1.3900 . ?
N21D C25D 1.3900 . ?
C21D C22D 1.3900 . ?
C22D C23D 1.3900 . ?
C23D C24D 1.3900 . ?
C23D N24D 1.41(2) . ?
C24D C25D 1.3900 . ?
N22D C26D 1.3900 . ?
N22D C30D 1.3900 . ?
C26D C27D 1.3900 . ?
C27D C28D 1.3900 . ?
C28D C29D 1.3900 . ?
C28D C33D 1.46(2) . ?
C29D C30D 1.3900 . ?
N23D C33D 1.34(2) . ?
N23D N24D 1.36(2) . ?
N24D C31D 1.39(2) . ?
C31D C32D 1.39(2) . ?
C32D C33D 1.43(2) . ?
N21E C21E 1.3900 . ?
N21E C25E 1.3900 . ?
C21E C22E 1.3900 . ?
C22E C23E 1.3900 . ?
C23E C24E 1.3900 . ?
C23E N24E 1.42(2) . ?
C24E C25E 1.3900 . ?
N22E C26E 1.3900 . ?
N22E C30E 1.3900 . ?
C26E C27E 1.3900 . ?
C27E C28E 1.3900 . ?
C28E C29E 1.3900 . ?
C28E C33E 1.46(2) . ?
C29E C30E 1.3900 . ?
N23E C33E 1.33(2) . ?
N23E N24E 1.36(2) . ?
N24E C31E 1.37(2) . ?
C31E C32E 1.38(2) . ?
C32E C33E 1.43(2) . ?
N21F C21F 1.3900 . ?
N21F C25F 1.3900 . ?
C21F C22F 1.3900 . ?
C22F C23F 1.3900 . ?
C23F C24F 1.3900 . ?
C23F N24F 1.41(2) . ?
C24F C25F 1.3900 . ?
N22F C26F 1.3900 . ?
N22F C30F 1.3900 . ?
C26F C27F 1.3900 . ?
C27F C28F 1.3900 . ?
C28F C29F 1.3900 . ?
C28F C33F 1.46(2) . ?
C29F C30F 1.3900 . ?
N23F C33F 1.34(2) . ?
N23F N24F 1.37(2) . ?
N24F C31F 1.39(2) . ?
C31F C32F 1.38(2) . ?
C32F C33F 1.44(2) . ?
N21G C21G 1.3900 . ?
N21G C25G 1.3900 . ?
C21G C22G 1.3900 . ?
C22G C23G 1.3900 . ?
C23G C24G 1.3900 . ?
C23G N24G 1.40(2) . ?
C24G C25G 1.3900 . ?
N22G C26G 1.3900 . ?
N22G C30G 1.3900 . ?
C26G C27G 1.3900 . ?
C27G C28G 1.3900 . ?
C28G C29G 1.3900 . ?
C28G C33G 1.47(2) . ?
C29G C30G 1.3900 . ?
N23G C33G 1.34(2) . ?
N23G N24G 1.36(2) . ?
N24G C31G 1.38(2) . ?
C31G C32G 1.38(2) . ?
C32G C33G 1.43(2) . ?
N21H C21H 1.3900 . ?
N21H C25H 1.3900 . ?
C21H C22H 1.3900 . ?
C22H C23H 1.3900 . ?
C23H C24H 1.3900 . ?
C23H N24H 1.41(2) . ?
C24H C25H 1.3900 . ?
N22H C26H 1.3900 . ?
N22H C30H 1.3900 . ?
C26H C27H 1.3900 . ?
C27H C28H 1.3900 . ?
C28H C29H 1.3900 . ?
C28H C33H 1.46(2) . ?
C29H C30H 1.3900 . ?
N23H C33H 1.34(2) . ?
N23H N24H 1.37(2) . ?
N24H C31H 1.38(2) . ?
C31H C32H 1.39(2) . ?
C32H C33H 1.44(2) . ?
N21I C21I 1.3900 . ?
N21I C25I 1.3900 . ?
C21I C22I 1.3900 . ?
C22I C23I 1.3900 . ?
C23I C24I 1.3900 . ?
C23I N24I 1.42(2) . ?
C24I C25I 1.3900 . ?
N22I C26I 1.3900 . ?
N22I C30I 1.3900 . ?
C26I C27I 1.3900 . ?
C27I C28I 1.3900 . ?
C28I C29I 1.3900 . ?
C28I C33I 1.46(2) . ?
C29I C30I 1.3900 . ?
N23I C33I 1.34(2) . ?
N23I N24I 1.36(2) . ?
N24I C31I 1.38(2) . ?
C31I C32I 1.38(2) . ?
C32I C33I 1.43(2) . ?
N21J C21J 1.3900 . ?
N21J C25J 1.3900 . ?
C21J C22J 1.3900 . ?
C22J C23J 1.3900 . ?
C23J C24J 1.3900 . ?
C23J N24J 1.41(2) . ?
C24J C25J 1.3900 . ?
N22J C30J 1.3900 . ?
N22J C26J 1.3900 . ?
C26J C27J 1.3900 . ?
C27J C28J 1.3900 . ?
C28J C29J 1.3900 . ?
C28J C33J 1.47(2) . ?
C29J C30J 1.3900 . ?
N23J C33J 1.34(2) . ?
N23J N24J 1.36(2) . ?
N24J C31J 1.38(2) . ?
C31J C32J 1.38(2) . ?
C32J C33J 1.43(2) . ?
N21K C21K 1.3900 . ?
N21K C25K 1.3900 . ?
C21K C22K 1.3900 . ?
C22K C23K 1.3900 . ?
C23K C24K 1.3900 . ?
C23K N24K 1.40(2) . ?
C24K C25K 1.3900 . ?
N22K C26K 1.3900 . ?
N22K C30K 1.3900 . ?
C26K C27K 1.3900 . ?
C27K C28K 1.3900 . ?
C28K C29K 1.3900 . ?
C28K C33K 1.46(2) . ?
C29K C30K 1.3900 . ?
N23K C33K 1.34(2) . ?
N23K N24K 1.36(2) . ?
N24K C31K 1.38(2) . ?
C31K C32K 1.39(2) . ?
C32K C33K 1.44(2) . ?
N21L C21L 1.3900 . ?
N21L C25L 1.3900 . ?
C21L C22L 1.3900 . ?
C22L C23L 1.3900 . ?
C23L C24L 1.3900 . ?
C23L N24L 1.40(2) . ?
C24L C25L 1.3900 . ?
N22L C26L 1.3900 . ?
N22L C30L 1.3900 . ?
C26L C27L 1.3900 . ?
C27L C28L 1.3900 . ?
C28L C29L 1.3900 . ?
C28L C33L 1.46(2) . ?
C29L C30L 1.3900 . ?
N23L C33L 1.34(2) . ?
N23L N24L 1.36(2) . ?
N24L C31L 1.39(2) . ?
C31L C32L 1.39(2) . ?
C32L C33L 1.43(2) . ?
N41A C41A 1.3900 . ?
N41A C45A 1.3900 . ?
C41A C42A 1.3900 . ?
C42A C43A 1.3900 . ?
C43A C44A 1.3900 . ?
C43A N44A 1.41(2) . ?
C44A C45A 1.3900 . ?
N42A C46A 1.3900 . ?
N42A C50A 1.3900 . ?
C46A C47A 1.3900 . ?
C47A C48A 1.3900 . ?
C48A C49A 1.3900 . ?
C48A C53A 1.47(2) . ?
C49A C50A 1.3900 . ?
N43A C53A 1.33(2) . ?
N43A N44A 1.36(2) . ?
N44A C51A 1.38(2) . ?
C51A C52A 1.38(2) . ?
C52A C53A 1.42(2) . ?
N41B C41B 1.3900 . ?
N41B C45B 1.3900 . ?
C41B C42B 1.3900 . ?
C42B C43B 1.3900 . ?
C43B C44B 1.3900 . ?
C43B N44B 1.41(2) . ?
C44B C45B 1.3900 . ?
N42B C46B 1.3900 . ?
N42B C50B 1.3900 . ?
C46B C47B 1.3900 . ?
C47B C48B 1.3900 . ?
C48B C49B 1.3900 . ?
C48B C53B 1.48(2) . ?
C49B C50B 1.3900 . ?
N43B C53B 1.34(2) . ?
N43B N44B 1.36(2) . ?
N44B C51B 1.38(2) . ?
C51B C52B 1.38(2) . ?
C52B C53B 1.42(2) . ?
N41C C41C 1.3900 . ?
N41C C45C 1.3900 . ?
C41C C42C 1.3900 . ?
C42C C43C 1.3900 . ?
C43C C44C 1.3900 . ?
C43C N44C 1.41(2) . ?
C44C C45C 1.3900 . ?
N42C C46C 1.3900 . ?
N42C C50C 1.3900 . ?
N42C Pd8 2.06(5) 2_775 ?
C46C C47C 1.3900 . ?
C47C C48C 1.3900 . ?
C48C C49C 1.3900 . ?
C48C C53C 1.47(2) . ?
C49C C50C 1.3900 . ?
N43C C53C 1.34(2) . ?
N43C N44C 1.36(2) . ?
N44C C51C 1.38(2) . ?
C51C C52C 1.39(2) . ?
C52C C53C 1.42(2) . ?
N41D C41D 1.3900 . ?
N41D C45D 1.3900 . ?
C41D C42D 1.3900 . ?
C42D C43D 1.3900 . ?
C43D C44D 1.3900 . ?
C43D N44D 1.43(2) . ?
C44D C45D 1.3900 . ?
N42D C46D 1.3900 . ?
N42D C50D 1.3900 . ?
N42D Pd9 2.09(5) 2_775 ?
C46D C47D 1.3900 . ?
C47D C48D 1.3900 . ?
C48D C49D 1.3900 . ?
C48D C53D 1.47(2) . ?
C49D C50D 1.3900 . ?
N43D C53D 1.35(2) . ?
N43D N44D 1.37(2) . ?
N44D C51D 1.37(2) . ?
C51D C52D 1.38(2) . ?
C52D C53D 1.43(2) . ?
N41E C41E 1.3900 . ?
N41E C45E 1.3900 . ?
C41E C42E 1.3900 . ?
C42E C43E 1.3900 . ?
C43E C44E 1.3900 . ?
C43E N44E 1.42(2) . ?
C44E C45E 1.3900 . ?
N42E C46E 1.3900 . ?
N42E C50E 1.3900 . ?
N42E Pd10 2.10(5) 2_775 ?
C46E C47E 1.3900 . ?
C47E C48E 1.3900 . ?
C48E C49E 1.3900 . ?
C48E C53E 1.47(2) . ?
C49E C50E 1.3900 . ?
N43E C53E 1.34(2) . ?
N43E N44E 1.37(2) . ?
N44E C51E 1.38(2) . ?
C51E C52E 1.38(2) . ?
C52E C53E 1.42(2) . ?
N41F C41F 1.3900 . ?
N41F C45F 1.3900 . ?
C41F C42F 1.3900 . ?
C42F C43F 1.3900 . ?
C43F C44F 1.3900 . ?
C43F N44F 1.41(2) . ?
C44F C45F 1.3900 . ?
N42F C46F 1.3900 . ?
N42F C50F 1.3900 . ?
N42F Pd11 2.14(4) 2_775 ?
C46F C47F 1.3900 . ?
C47F C48F 1.3900 . ?
C48F C49F 1.3900 . ?
C48F C53F 1.46(2) . ?
C49F C50F 1.3900 . ?
N43F C53F 1.33(2) . ?
N43F N44F 1.36(2) . ?
N44F C51F 1.38(2) . ?
C51F C52F 1.38(2) . ?
C52F C53F 1.42(2) . ?
N41G C41G 1.3900 . ?
N41G C45G 1.3900 . ?
C41G C42G 1.3900 . ?
C42G C43G 1.3900 . ?
C43G C44G 1.3900 . ?
C43G N44G 1.41(2) . ?
C44G C45G 1.3900 . ?
N42G C46G 1.3900 . ?
N42G C50G 1.3900 . ?
C46G C47G 1.3900 . ?
C47G C48G 1.3900 . ?
C48G C49G 1.3900 . ?
C48G C53G 1.47(2) . ?
C49G C50G 1.3900 . ?
N43G C53G 1.33(2) . ?
N43G N44G 1.36(2) . ?
N44G C51G 1.38(2) . ?
C51G C52G 1.38(2) . ?
C52G C53G 1.41(2) . ?
N41H C41H 1.3900 . ?
N41H C45H 1.3900 . ?
C41H C42H 1.3900 . ?
C42H C43H 1.3900 . ?
C43H C44H 1.3900 . ?
C43H N44H 1.43(2) . ?
C44H C45H 1.3900 . ?
N42H C46H 1.3900 . ?
N42H C50H 1.3900 . ?
C46H C47H 1.3900 . ?
C47H C48H 1.3900 . ?
C48H C49H 1.3900 . ?
C48H C53H 1.46(2) . ?
C49H C50H 1.3900 . ?
N43H C53H 1.35(2) . ?
N43H N44H 1.37(2) . ?
N44H C51H 1.38(2) . ?
C51H C52H 1.38(2) . ?
C52H C53H 1.42(2) . ?
N41I C41I 1.3900 . ?
N41I C45I 1.3900 . ?
C41I C42I 1.3900 . ?
C42I C43I 1.3900 . ?
C43I C44I 1.3900 . ?
C43I N44I 1.41(2) . ?
C44I C45I 1.3900 . ?
N42I C46I 1.3900 . ?
N42I C50I 1.3900 . ?
C46I C47I 1.3900 . ?
C47I C48I 1.3900 . ?
C48I C49I 1.3900 . ?
C48I C53I 1.47(2) . ?
C49I C50I 1.3900 . ?
N43I C53I 1.33(2) . ?
N43I N44I 1.36(2) . ?
N44I C51I 1.38(2) . ?
C51I C52I 1.38(2) . ?
C52I C53I 1.42(2) . ?
N41J C41J 1.3900 . ?
N41J C45J 1.3900 . ?
C41J C42J 1.3900 . ?
C42J C43J 1.3900 . ?
C43J C44J 1.3900 . ?
C43J N44J 1.42(2) . ?
C44J C45J 1.3900 . ?
N42J C46J 1.3900 . ?
N42J C50J 1.3900 . ?
C46J C47J 1.3900 . ?
C47J C48J 1.3900 . ?
C48J C49J 1.3900 . ?
C48J C53J 1.47(2) . ?
C49J C50J 1.3900 . ?
N43J C53J 1.34(2) . ?
N43J N44J 1.36(2) . ?
N44J C51J 1.37(2) . ?
C51J C52J 1.38(2) . ?
C52J C53J 1.42(2) . ?
N41K C41K 1.3900 . ?
N41K C45K 1.3900 . ?
C41K C42K 1.3900 . ?
C42K C43K 1.3900 . ?
C43K C44K 1.3900 . ?
C43K N44K 1.42(2) . ?
C44K C45K 1.3900 . ?
N42K C46K 1.3900 . ?
N42K C50K 1.3900 . ?
N42K Pd11 2.20(4) 2_775 ?
C46K C47K 1.3900 . ?
C47K C48K 1.3900 . ?
C48K C49K 1.3900 . ?
C48K C53K 1.46(2) . ?
C49K C50K 1.3900 . ?
N43K C53K 1.34(2) . ?
N43K N44K 1.36(2) . ?
N44K C51K 1.38(2) . ?
C51K C52K 1.38(2) . ?
C52K C53K 1.42(2) . ?
N41L C41L 1.3900 . ?
N41L C45L 1.3900 . ?
C41L C42L 1.3900 . ?
C42L C43L 1.3900 . ?
C43L C44L 1.3900 . ?
C43L N44L 1.42(2) . ?
C44L C45L 1.3900 . ?
N42L C46L 1.3900 . ?
N42L C50L 1.3900 . ?
N42L Pd12 2.07(5) 2_775 ?
C46L C47L 1.3900 . ?
C47L C48L 1.3900 . ?
C48L C49L 1.3900 . ?
C48L C53L 1.47(2) . ?
C49L C50L 1.3900 . ?
N43L C53L 1.34(2) . ?
N43L N44L 1.36(2) . ?
N44L C51L 1.38(2) . ?
C51L C52L 1.38(2) . ?
C52L C53L 1.42(2) . ?
N41M C41M 1.3900 . ?
N41M C45M 1.3900 . ?
C41M C42M 1.3900 . ?
C42M C43M 1.3900 . ?
C43M C44M 1.3900 . ?
C43M N44M 1.41(2) . ?
C44M C45M 1.3900 . ?
N42M C46M 1.3900 . ?
N42M C50M 1.3900 . ?
N42M Pd4 2.04(5) 2_775 ?
C46M C47M 1.3900 . ?
C47M C48M 1.3900 . ?
C48M C49M 1.3900 . ?
C48M C53M 1.47(2) . ?
C49M C50M 1.3900 . ?
N43M C53M 1.33(2) . ?
N43M N44M 1.36(2) . ?
N44M C51M 1.38(2) . ?
C51M C52M 1.39(2) . ?
C52M C53M 1.42(2) . ?
N41N C41N 1.3900 . ?
N41N C45N 1.3900 . ?
C41N C42N 1.3900 . ?
C42N C43N 1.3900 . ?
C43N C44N 1.3900 . ?
C43N N44N 1.41(2) . ?
C44N C45N 1.3900 . ?
N42N C46N 1.3900 . ?
N42N C50N 1.3900 . ?
N42N Pd5 2.09(5) 2_775 ?
C46N C47N 1.3900 . ?
C47N C48N 1.3900 . ?
C48N C49N 1.3900 . ?
C48N C53N 1.47(2) . ?
C49N C50N 1.3900 . ?
N43N C53N 1.33(2) . ?
N43N N44N 1.36(2) . ?
N44N C51N 1.38(2) . ?
C51N C52N 1.37(2) . ?
C52N C53N 1.41(2) . ?
N41O C41O 1.3900 . ?
N41O C45O 1.3900 . ?
C41O C42O 1.3900 . ?
C42O C43O 1.3900 . ?
C43O C44O 1.3900 . ?
C43O N44O 1.42(2) . ?
C44O C45O 1.3900 . ?
N42O C46O 1.3900 . ?
N42O C50O 1.3900 . ?
C46O C47O 1.3900 . ?
C47O C48O 1.3900 . ?
C48O C49O 1.3900 . ?
C48O C53O 1.47(2) . ?
C49O C50O 1.3900 . ?
N43O C53O 1.34(2) . ?
N43O N44O 1.36(2) . ?
N44O C51O 1.38(2) . ?
C51O C52O 1.38(2) . ?
C52O C53O 1.42(2) . ?
N41P C41P 1.3900 . ?
N41P C45P 1.3900 . ?
C41P C42P 1.3900 . ?
C42P C43P 1.3900 . ?
C43P C44P 1.3900 . ?
C43P N44P 1.42(2) . ?
C44P C45P 1.3900 . ?
N42P C46P 1.3900 . ?
N42P C50P 1.3900 . ?
C46P C47P 1.3900 . ?
C47P C48P 1.3900 . ?
C48P C49P 1.3900 . ?
C48P C53P 1.47(2) . ?
C49P C50P 1.3900 . ?
N43P C53P 1.34(2) . ?
N43P N44P 1.36(2) . ?
N44P C51P 1.38(2) . ?
C51P C52P 1.38(2) . ?
C52P C53P 1.42(2) . ?
N41Q C41Q 1.3900 . ?
N41Q C45Q 1.3900 . ?
C41Q C42Q 1.3900 . ?
C42Q C43Q 1.3900 . ?
C43Q C44Q 1.3900 . ?
C43Q N44Q 1.41(2) . ?
C44Q C45Q 1.3900 . ?
N42Q C46Q 1.3900 . ?
N42Q C50Q 1.3900 . ?
C46Q C47Q 1.3900 . ?
C47Q C48Q 1.3900 . ?
C48Q C49Q 1.3900 . ?
C48Q C53Q 1.47(2) . ?
C49Q C50Q 1.3900 . ?
N43Q C53Q 1.34(2) . ?
N43Q N44Q 1.36(2) . ?
N44Q C51Q 1.38(2) . ?
C51Q C52Q 1.38(2) . ?
C52Q C53Q 1.42(2) . ?
N41R C41R 1.3900 . ?
N41R C45R 1.3900 . ?
C41R C42R 1.3900 . ?
C42R C43R 1.3900 . ?
C43R C44R 1.3900 . ?
C43R N44R 1.42(2) . ?
C44R C45R 1.3900 . ?
N42R C46R 1.3900 . ?
N42R C50R 1.3900 . ?
C46R C47R 1.3900 . ?
C47R C48R 1.3900 . ?
C48R C49R 1.3900 . ?
C48R C53R 1.48(2) . ?
C49R C50R 1.3900 . ?
N43R C53R 1.34(2) . ?
N43R N44R 1.36(2) . ?
N44R C51R 1.38(2) . ?
C51R C52R 1.38(2) . ?
C52R C53R 1.43(2) . ?
N41S C41S 1.3900 . ?
N41S C45S 1.3900 . ?
C41S C42S 1.3900 . ?
C42S C43S 1.3900 . ?
C43S C44S 1.3900 . ?
C43S N44S 1.41(2) . ?
C44S C45S 1.3900 . ?
N42S C46S 1.3900 . ?
N42S C50S 1.3900 . ?
N42S Pd5 2.12(4) 2_775 ?
C46S C47S 1.3900 . ?
C47S C48S 1.3900 . ?
C48S C49S 1.3900 . ?
C48S C53S 1.47(2) . ?
C49S C50S 1.3900 . ?
N43S C53S 1.33(2) . ?
N43S N44S 1.36(2) . ?
N44S C51S 1.37(2) . ?
C51S C52S 1.38(2) . ?
C52S C53S 1.42(2) . ?
N41T C41T 1.3900 . ?
N41T C45T 1.3900 . ?
C41T C42T 1.3900 . ?
C42T C43T 1.3900 . ?
C43T C44T 1.3900 . ?
C43T N44T 1.42(2) . ?
C44T C45T 1.3900 . ?
N42T C46T 1.3900 . ?
N42T C50T 1.3900 . ?
N42T Pd6 2.19(4) 2_775 ?
C46T C47T 1.3900 . ?
C47T C48T 1.3900 . ?
C48T C49T 1.3900 . ?
C48T C53T 1.47(2) . ?
C49T C50T 1.3900 . ?
N43T C53T 1.34(2) . ?
N43T N44T 1.36(2) . ?
N44T C51T 1.38(2) . ?
C51T C52T 1.38(2) . ?
C52T C53T 1.43(2) . ?
N41U C41U 1.3900 . ?
N41U C45U 1.3900 . ?
C41U C42U 1.3900 . ?
C42U C43U 1.3900 . ?
C43U C44U 1.3900 . ?
C43U N44U 1.41(2) . ?
C44U C45U 1.3900 . ?
N42U C46U 1.3900 . ?
N42U C50U 1.3900 . ?
N42U Pd7 1.98(4) 2_775 ?
C46U C47U 1.3900 . ?
C47U C48U 1.3900 . ?
C48U C49U 1.3900 . ?
C48U C53U 1.48(2) . ?
C49U C50U 1.3900 . ?
N43U C53U 1.33(2) . ?
N43U N44U 1.36(2) . ?
N44U C51U 1.37(2) . ?
C51U C52U 1.37(2) . ?
C52U C53U 1.42(2) . ?
N41V C41V 1.3900 . ?
N41V C45V 1.3900 . ?
C41V C42V 1.3900 . ?
C42V C43V 1.3900 . ?
C43V C44V 1.3900 . ?
C43V N44V 1.40(2) . ?
C44V C45V 1.3900 . ?
N42V C46V 1.3900 . ?
N42V C50V 1.3900 . ?
N42V Pd8 2.12(4) 2_775 ?
C46V C47V 1.3900 . ?
C47V C48V 1.3900 . ?
C48V C49V 1.3900 . ?
C48V C53V 1.47(2) . ?
C49V C50V 1.3900 . ?
N43V C53V 1.33(2) . ?
N43V N44V 1.36(2) . ?
N44V C51V 1.38(2) . ?
C51V C52V 1.38(2) . ?
C52V C53V 1.42(2) . ?
N41W C41W 1.3900 . ?
N41W C45W 1.3900 . ?
C41W C42W 1.3900 . ?
C42W C43W 1.3900 . ?
C43W C44W 1.3900 . ?
C43W N44W 1.41(2) . ?
C44W C45W 1.3900 . ?
N42W C46W 1.3900 . ?
N42W C50W 1.3900 . ?
C46W C47W 1.3900 . ?
C47W C48W 1.3900 . ?
C48W C49W 1.3900 . ?
C48W C53W 1.47(2) . ?
C49W C50W 1.3900 . ?
N43W C53W 1.34(2) . ?
N43W N44W 1.36(2) . ?
N44W C51W 1.38(2) . ?
C51W C52W 1.38(2) . ?
C52W C53W 1.43(2) . ?
N41X C41X 1.3900 . ?
N41X C45X 1.3900 . ?
C41X C42X 1.3900 . ?
C42X C43X 1.3900 . ?
C43X C44X 1.3900 . ?
C43X N44X 1.41(2) . ?
C44X C45X 1.3900 . ?
N42X C46X 1.3900 . ?
N42X C50X 1.3900 . ?
C46X C47X 1.3900 . ?
C47X C48X 1.3900 . ?
C48X C49X 1.3900 . ?
C48X C53X 1.45(2) . ?
C49X C50X 1.3900 . ?
N43X C53X 1.34(2) . ?
N43X N44X 1.36(2) . ?
N44X C51X 1.38(2) . ?
C51X C52X 1.38(2) . ?
C52X C53X 1.43(2) . ?
O5 O46 1.47(9) . ?
O6 O57 1.56(9) . ?
O9 O55 1.31(11) . ?
O15 O61 1.68(12) . ?
O16 O56 1.72(9) . ?
O19 O38 1.49(8) . ?
O22 O55 1.71(11) . ?
O23 O45 1.09(12) . ?
O23 O63 1.51(18) . ?
O26 O32 1.72(11) . ?
O35 O47 1.47(13) 1_655 ?
O39 O54 1.81(9) . ?
O42 O59 1.59(14) . ?
O44 O55 1.71(12) . ?
O45 O63 1.07(18) . ?
O47 O35 1.47(13) 1_455 ?

loop_
_geom_angle_atom_site_label_1
_geom_angle_atom_site_label_2
_geom_angle_atom_site_label_3
_geom_angle
_geom_angle_site_symmetry_1
_geom_angle_site_symmetry_3
_geom_angle_publ_flag
F1F B1 F1C 63(2) . . ?
F1F B1 F1E 110.5(16) . . ?
F1C B1 F1E 79(2) . . ?
F1F B1 F1B 69(2) . . ?
F1C B1 F1B 110.5(17) . . ?
F1E B1 F1B 73(2) . . ?
F1F B1 F1A 172(2) . . ?
F1C B1 F1A 110.5(17) . . ?
F1E B1 F1A 62(2) . . ?
F1B B1 F1A 109.9(17) . . ?
F1F B1 F1G 110.7(17) . . ?
F1C B1 F1G 71(2) . . ?
F1E B1 F1G 109.0(16) . . ?
F1B B1 F1G 178(2) . . ?
F1A B1 F1G 70(2) . . ?
F1F B1 F1H 110.0(17) . . ?
F1C B1 F1H 171(2) . . ?
F1E B1 F1H 109.0(16) . . ?
F1B B1 F1H 71(2) . . ?
F1A B1 F1H 77(2) . . ?
F1G B1 F1H 107.6(16) . . ?
F1F B1 F1D 80(2) . . ?
F1C B1 F1D 109.8(17) . . ?
F1E B1 F1D 169(2) . . ?
F1B B1 F1D 108.4(17) . . ?
F1A B1 F1D 107.6(16) . . ?
F1G B1 F1D 70(2) . . ?
F1H B1 F1D 62(2) . . ?
F2B B2 F2E 140(3) . . ?
F2B B2 F2F 49(2) . . ?
F2E B2 F2F 110.5(17) . . ?
F2B B2 F2A 111.6(17) . . ?
F2E B2 F2A 30(2) . . ?
F2F B2 F2A 99(3) . . ?
F2B B2 F2D 110.3(17) . . ?
F2E B2 F2D 98(3) . . ?
F2F B2 F2D 151(3) . . ?
F2A B2 F2D 109.0(16) . . ?
F2B B2 F2H 63(2) . . ?
F2E B2 F2H 108.5(16) . . ?
F2F B2 F2H 109.7(17) . . ?
F2A B2 F2H 88(2) . . ?
F2D B2 F2H 65(2) . . ?
F2B B2 F2G 109(3) . . ?
F2E B2 F2G 110.5(17) . . ?
F2F B2 F2G 108.8(17) . . ?
F2A B2 F2G 140(3) . . ?
F2D B2 F2G 53(2) . . ?
F2H B2 F2G 108.8(17) . . ?
F2B B2 F2C 109.6(17) . . ?
F2E B2 F2C 86(2) . . ?
F2F B2 F2C 69(2) . . ?
F2A B2 F2C 107.6(17) . . ?
F2D B2 F2C 108.6(17) . . ?
F2H B2 F2C 165(2) . . ?
F2G B2 F2C 59(2) . . ?
F3E B3 F3B 80(2) . . ?
F3E B3 F3A 80(2) . . ?
F3B B3 F3A 111.1(17) . . ?
F3E B3 F3F 109.8(16) . . ?
F3B B3 F3F 56(2) . . ?
F3A B3 F3F 70(2) . . ?
F3E B3 F3C 55(2) . . ?
F3B B3 F3C 110.4(17) . . ?
F3A B3 F3C 109.9(17) . . ?
F3F B3 F3C 163(2) . . ?
F3E B3 F3H 109.7(17) . . ?
F3B B3 F3H 166(2) . . ?
F3A B3 F3H 62(2) . . ?
F3F B3 F3H 109.9(17) . . ?
F3C B3 F3H 84(2) . . ?
F3E B3 F3G 109.0(17) . . ?
F3B B3 F3G 75(3) . . ?
F3A B3 F3G 170(2) . . ?
F3F B3 F3G 109.0(17) . . ?
F3C B3 F3G 74(2) . . ?
F3H B3 F3G 109.4(17) . . ?
F3E B3 F3D 163(2) . . ?
F3B B3 F3D 109.2(17) . . ?
F3A B3 F3D 108.4(17) . . ?
F3F B3 F3D 88(3) . . ?
F3C B3 F3D 107.9(17) . . ?
F3H B3 F3D 64(2) . . ?
F3G B3 F3D 61(2) . . ?
F4F B4 F4A 140(3) . . ?
F4F B4 F4D 108(3) . . ?
F4A B4 F4D 112.0(17) . . ?
F4F B4 F4E 111.1(17) . . ?
F4A B4 F4E 29(2) . . ?
F4D B4 F4E 141(3) . . ?
F4F B4 F4G 110.0(17) . . ?
F4A B4 F4G 96(3) . . ?
F4D B4 F4G 53(2) . . ?
F4E B4 F4G 109.5(16) . . ?
F4F B4 F4C 58(2) . . ?
F4A B4 F4C 109.4(16) . . ?
F4D B4 F4C 109.8(17) . . ?
F4E B4 F4C 90(2) . . ?
F4G B4 F4C 68(2) . . ?
F4F B4 F4H 109.6(17) . . ?
F4A B4 F4H 88(2) . . ?
F4D B4 F4H 60(2) . . ?
F4E B4 F4H 107.4(16) . . ?
F4G B4 F4H 109.2(17) . . ?
F4C B4 F4H 162(2) . . ?
F4F B4 F4B 54(2) . . ?
F4A B4 F4B 108.7(16) . . ?
F4D B4 F4B 108.3(17) . . ?
F4E B4 F4B 96(3) . . ?
F4G B4 F4B 154(3) . . ?
F4C B4 F4B 108.7(17) . . ?
F4H B4 F4B 65(2) . . ?
F5E B5 F5A 40(2) . . ?
F5E B5 F5G 110.4(17) . . ?
F5A B5 F5G 150(3) . . ?
F5E B5 F5D 84(3) . . ?
F5A B5 F5D 110.4(17) . . ?
F5G B5 F5D 58(2) . . ?
F5E B5 F5B 150(3) . . ?
F5A B5 F5B 110.4(17) . . ?
F5G B5 F5B 100(3) . . ?
F5D B5 F5B 109.4(17) . . ?
F5E B5 F5F 109.4(17) . . ?
F5A B5 F5F 84(2) . . ?
F5G B5 F5F 110.1(17) . . ?
F5D B5 F5F 165(3) . . ?
F5B B5 F5F 62(2) . . ?
F5E B5 F5C 91(3) . . ?
F5A B5 F5C 108.7(17) . . ?
F5G B5 F5C 59(2) . . ?
F5D B5 F5C 108.9(17) . . ?
F5B B5 F5C 109.0(17) . . ?
F5F B5 F5C 66(2) . . ?
F5E B5 F5H 109.2(17) . . ?
F5A B5 F5H 90(3) . . ?
F5G B5 F5H 109.0(17) . . ?
F5D B5 F5H 71(3) . . ?
F5B B5 F5H 55(3) . . ?
F5F B5 F5H 108.6(17) . . ?
F5C B5 F5H 160(3) . . ?
F6H B6 F6A 139(3) . . ?
F6H B6 F6E 111.1(17) . . ?
F6A B6 F6E 29(2) . . ?
F6H B6 F6C 110(3) . . ?
F6A B6 F6C 110.4(17) . . ?
F6E B6 F6C 138(3) . . ?
F6H B6 F6B 60(2) . . ?
F6A B6 F6B 109.7(17) . . ?
F6E B6 F6B 88(2) . . ?
F6C B6 F6B 109.8(17) . . ?
F6H B6 F6F 110.9(17) . . ?
F6A B6 F6F 99(3) . . ?
F6E B6 F6F 108.8(17) . . ?
F6C B6 F6F 51(2) . . ?
F6B B6 F6F 68(2) . . ?
F6H B6 F6D 51(2) . . ?
F6A B6 F6D 109.7(17) . . ?
F6E B6 F6D 100(3) . . ?
F6C B6 F6D 108.6(17) . . ?
F6B B6 F6D 108.6(17) . . ?
F6F B6 F6D 150(3) . . ?
F6H B6 F6G 110.0(17) . . ?
F6A B6 F6G 86(2) . . ?
F6E B6 F6G 107.6(16) . . ?
F6C B6 F6G 60(2) . . ?
F6B B6 F6G 164(2) . . ?
F6F B6 F6G 108.4(16) . . ?
F6D B6 F6G 67(2) . . ?
F7G B7 F7E 112.0(17) . . ?
F7G B7 F7D 63(2) . . ?
F7E B7 F7D 80(2) . . ?
F7G B7 F7B 87(2) . . ?
F7E B7 F7B 161(2) . . ?
F7D B7 F7B 110.1(17) . . ?
F7G B7 F7A 162(2) . . ?
F7E B7 F7A 50(2) . . ?
F7D B7 F7A 110.3(17) . . ?
F7B B7 F7A 110.7(17) . . ?
F7G B7 F7C 63(2) . . ?
F7E B7 F7C 81(2) . . ?
F7D B7 F7C 108.8(17) . . ?
F7B B7 F7C 109.0(17) . . ?
F7A B7 F7C 108.0(17) . . ?
F7G B7 F7F 111.1(17) . . ?
F7E B7 F7F 108.7(16) . . ?
F7D B7 F7F 171(2) . . ?
F7B B7 F7F 62(2) . . ?
F7A B7 F7F 78(2) . . ?
F7C B7 F7F 72(2) . . ?
F7G B7 F7H 109.3(17) . . ?
F7E B7 F7H 108.1(16) . . ?
F7D B7 F7H 71(2) . . ?
F7B B7 F7H 63(2) . . ?
F7A B7 F7H 81(2) . . ?
F7C B7 F7H 170(2) . . ?
F7F B7 F7H 107.4(17) . . ?
F8F B8 F8H 112.5(18) . . ?
F8F B8 F8A 25(3) . . ?
F8H B8 F8A 136(3) . . ?
F8F B8 F8D 94(3) . . ?
F8H B8 F8D 65(2) . . ?
F8A B8 F8D 109.7(17) . . ?
F8F B8 F8B 100(3) . . ?
F8H B8 F8B 46(3) . . ?
F8A B8 F8B 110.6(17) . . ?
F8D B8 F8B 109.3(17) . . ?
F8F B8 F8E 109.5(17) . . ?
F8H B8 F8E 110.3(17) . . ?
F8A B8 F8E 101(3) . . ?
F8D B8 F8E 59(2) . . ?
F8B B8 F8E 149(3) . . ?
F8F B8 F8C 134(3) . . ?
F8H B8 F8C 113(3) . . ?
F8A B8 F8C 109.6(17) . . ?
F8D B8 F8C 109.1(17) . . ?
F8B B8 F8C 108.5(17) . . ?
F8E B8 F8C 57(2) . . ?
F8F B8 F8G 108.4(17) . . ?
F8H B8 F8G 108.7(17) . . ?
F8A B8 F8G 90(3) . . ?
F8D B8 F8G 157(3) . . ?
F8B B8 F8G 72(2) . . ?
F8E B8 F8G 107.3(17) . . ?
F8C B8 F8G 52(2) . . ?
F9A B9 F9E 40(2) . . ?
F9A B9 F9F 88(2) . . ?
F9E B9 F9F 110.1(17) . . ?
F9A B9 F9D 111.7(17) . . ?
F9E B9 F9D 92(2) . . ?
F9F B9 F9D 64(2) . . ?
F9A B9 F9B 112.2(17) . . ?
F9E B9 F9B 151(3) . . ?
F9F B9 F9B 66(2) . . ?
F9D B9 F9B 109.5(17) . . ?
F9A B9 F9H 150(3) . . ?
F9E B9 F9H 110.5(17) . . ?
F9F B9 F9H 109.3(17) . . ?
F9D B9 F9H 60(3) . . ?
F9B B9 F9H 97(3) . . ?
F9A B9 F9G 86(2) . . ?
F9E B9 F9G 108.4(17) . . ?
F9F B9 F9G 109.1(17) . . ?
F9D B9 F9G 160(3) . . ?
F9B B9 F9G 53(2) . . ?
F9H B9 F9G 109.3(17) . . ?
F9A B9 F9C 108.3(17) . . ?
F9E B9 F9C 84(2) . . ?
F9F B9 F9C 163(3) . . ?
F9D B9 F9C 107.8(17) . . ?
F9B B9 F9C 107.2(17) . . ?
F9H B9 F9C 55(3) . . ?
F9G B9 F9C 74(3) . . ?
F10E B10 F10H 111.7(17) . . ?
F10E B10 F10B 133(3) . . ?
F10H B10 F10B 115(3) . . ?
F10E B10 F10C 91(3) . . ?
F10H B10 F10C 61(2) . . ?
F10B B10 F10C 110.4(17) . . ?
F10E B10 F10A 24(3) . . ?
F10H B10 F10A 133(3) . . ?
F10B B10 F10A 111.0(17) . . ?
F10C B10 F10A 110.4(17) . . ?
F10E B10 F10F 109.3(17) . . ?
F10H B10 F10F 110.2(17) . . ?
F10B B10 F10F 54(2) . . ?
F10C B10 F10F 160(3) . . ?
F10A B10 F10F 89(3) . . ?
F10E B10 F10G 109.7(17) . . ?
F10H B10 F10G 108.3(17) . . ?
F10B B10 F10G 54(2) . . ?
F10C B10 F10G 62(2) . . ?
F10A B10 F10G 106(3) . . ?
F10F B10 F10G 107.5(17) . . ?
F10E B10 F10D 103(3) . . ?
F10H B10 F10D 48(3) . . ?
F10B B10 F10D 108.7(17) . . ?
F10C B10 F10D 108.2(17) . . ?
F10A B10 F10D 108.1(17) . . ?
F10F B10 F10D 70(2) . . ?
F10G B10 F10D 146(3) . . ?
F11B B11 F11E 170(2) . . ?
F11B B11 F11H 63(2) . . ?
F11E B11 F11H 111.4(17) . . ?
F11B B11 F11F 66(2) . . ?
F11E B11 F11F 110.5(17) . . ?
F11H B11 F11F 110.5(17) . . ?
F11B B11 F11C 110.7(17) . . ?
F11E B11 F11C 76(2) . . ?
F11H B11 F11C 167(2) . . ?
F11F B11 F11C 75(2) . . ?
F11B B11 F11A 110.9(16) . . ?
F11E B11 F11A 60(2) . . ?
F11H B11 F11A 84(2) . . ?
F11F B11 F11A 72(2) . . ?
F11C B11 F11A 108.7(16) . . ?
F11B B11 F11D 110.2(17) . . ?
F11E B11 F11D 73(2) . . ?
F11H B11 F11D 66(2) . . ?
F11F B11 F11D 176(2) . . ?
F11C B11 F11D 108.6(16) . . ?
F11A B11 F11D 107.7(16) . . ?
F11B B11 F11G 81(2) . . ?
F11E B11 F11G 108.6(17) . . ?
F11H B11 F11G 108.6(17) . . ?
F11F B11 F11G 107.1(17) . . ?
F11C B11 F11G 58(2) . . ?
F11A B11 F11G 166(2) . . ?
F11D B11 F11G 74(2) . . ?
F12E B12 F12C 136(3) . . ?
F12E B12 F12H 111.9(17) . . ?
F12C B12 F12H 111(3) . . ?
F12E B12 F12A 30(2) . . ?
F12C B12 F12A 111.6(17) . . ?
F12H B12 F12A 137(3) . . ?
F12E B12 F12B 106(3) . . ?
F12C B12 F12B 110.2(17) . . ?
F12H B12 F12B 52(2) . . ?
F12A B12 F12B 108.1(16) . . ?
F12E B12 F12F 110.2(16) . . ?
F12C B12 F12F 65(2) . . ?
F12H B12 F12F 109.8(17) . . ?
F12A B12 F12F 85(2) . . ?
F12B B12 F12F 64(2) . . ?
F12E B12 F12D 82(2) . . ?
F12C B12 F12D 109.3(17) . . ?
F12H B12 F12D 60(2) . . ?
F12A B12 F12D 108.3(16) . . ?
F12B B12 F12D 109.3(17) . . ?
F12F B12 F12D 167(2) . . ?
F12E B12 F12G 109.8(17) . . ?
F12C B12 F12G 44(2) . . ?
F12H B12 F12G 107.2(17) . . ?
F12A B12 F12G 106(3) . . ?
F12B B12 F12G 144(3) . . ?
F12F B12 F12G 107.8(16) . . ?
F12D B12 F12G 70(2) . . ?
F13B B13 F13H 65(2) . . ?
F13B B13 F13D 110.9(16) . . ?
F13H B13 F13D 74(2) . . ?
F13B B13 F13E 166(2) . . ?
F13H B13 F13E 110.3(17) . . ?
F13D B13 F13E 55(2) . . ?
F13B B13 F13C 110.1(17) . . ?
F13H B13 F13C 175(2) . . ?
F13D B13 F13C 109.0(16) . . ?
F13E B13 F13C 75(2) . . ?
F13B B13 F13G 63(2) . . ?
F13H B13 F13G 109.7(17) . . ?
F13D B13 F13G 84(2) . . ?
F13E B13 F13G 108.9(17) . . ?
F13C B13 F13G 67(2) . . ?
F13B B13 F13F 84(3) . . ?
F13H B13 F13F 109.3(17) . . ?
F13D B13 F13F 164(2) . . ?
F13E B13 F13F 109.8(17) . . ?
F13C B13 F13F 69(2) . . ?
F13G B13 F13F 108.7(17) . . ?
F13B B13 F13A 109.6(17) . . ?
F13H B13 F13A 74(2) . . ?
F13D B13 F13A 108.4(16) . . ?
F13E B13 F13A 80(2) . . ?
F13C B13 F13A 108.8(17) . . ?
F13G B13 F13A 167(2) . . ?
F13F B13 F13A 59(2) . . ?
F14A B14 F14H 132(3) . . ?
F14A B14 F14G 102(3) . . ?
F14H B14 F14G 110.8(17) . . ?
F14A B14 F14E 23(3) . . ?
F14H B14 F14E 110.0(17) . . ?
F14G B14 F14E 108.7(17) . . ?
F14A B14 F14D 110.2(17) . . ?
F14H B14 F14D 54(2) . . ?
F14G B14 F14D 70(2) . . ?
F14E B14 F14D 92(3) . . ?
F14A B14 F14C 110.6(17) . . ?
F14H B14 F14C 118(3) . . ?
F14G B14 F14C 46(2) . . ?
F14E B14 F14C 131(3) . . ?
F14D B14 F14C 108.9(17) . . ?
F14A B14 F14F 90(3) . . ?
F14H B14 F14F 110.3(17) . . ?
F14G B14 F14F 109.4(17) . . ?
F14E B14 F14F 107.5(17) . . ?
F14D B14 F14F 159(3) . . ?
F14C B14 F14F 64(2) . . ?
F14A B14 F14B 110.5(17) . . ?
F14H B14 F14B 55(2) . . ?
F14G B14 F14B 145(3) . . ?
F14E B14 F14B 106(3) . . ?
F14D B14 F14B 108.4(17) . . ?
F14C B14 F14B 108.1(17) . . ?
F14F B14 F14B 59(2) . . ?
F15A B15 F15F 83(2) . . ?
F15A B15 F15C 109.9(17) . . ?
F15F B15 F15C 167(3) . . ?
F15A B15 F15E 42(2) . . ?
F15F B15 F15E 109.1(17) . . ?
F15C B15 F15E 82(2) . . ?
F15A B15 F15B 110.5(17) . . ?
F15F B15 F15B 65(2) . . ?
F15C B15 F15B 109.1(17) . . ?
F15E B15 F15B 152(3) . . ?
F15A B15 F15G 88(2) . . ?
F15F B15 F15G 110.6(17) . . ?
F15C B15 F15G 71(2) . . ?
F15E B15 F15G 108.6(17) . . ?
F15B B15 F15G 55(2) . . ?
F15A B15 F15H 152(3) . . ?
F15F B15 F15H 109.6(17) . . ?
F15C B15 F15H 58(2) . . ?
F15E B15 F15H 109.8(17) . . ?
F15B B15 F15H 98(3) . . ?
F15G B15 F15H 109.1(17) . . ?
F15A B15 F15D 108.7(17) . . ?
F15F B15 F15D 64(2) . . ?
F15C B15 F15D 110.0(17) . . ?
F15E B15 F15D 90(3) . . ?
F15B B15 F15D 108.7(17) . . ?
F15G B15 F15D 161(3) . . ?
F15H B15 F15D 60(2) . . ?
F16A B16 F16B 112.4(17) . . ?
F16A B16 F16G 140(3) . . ?
F16B B16 F16G 107(3) . . ?
F16A B16 F16E 31(2) . . ?
F16B B16 F16E 142(3) . . ?
F16G B16 F16E 110.1(17) . . ?
F16A B16 F16H 86(2) . . ?
F16B B16 F16H 62(2) . . ?
F16G B16 F16H 110.3(17) . . ?
F16E B16 F16H 108.4(16) . . ?
F16A B16 F16F 97(3) . . ?
F16B B16 F16F 52(2) . . ?
F16G B16 F16F 110.0(17) . . ?
F16E B16 F16F 108.6(17) . . ?
F16H B16 F16F 109.3(17) . . ?
F16A B16 F16C 108.7(16) . . ?
F16B B16 F16C 110.4(17) . . ?
F16G B16 F16C 58(2) . . ?
F16E B16 F16C 85(2) . . ?
F16H B16 F16C 165(2) . . ?
F16F B16 F16C 70(2) . . ?
F16A B16 F16D 109.4(17) . . ?
F16B B16 F16D 108.5(17) . . ?
F16G B16 F16D 53(2) . . ?
F16E B16 F16D 98(3) . . ?
F16H B16 F16D 66(2) . . ?
F16F B16 F16D 153(3) . . ?
F16C B16 F16D 107.4(16) . . ?
F17B B17 F17E 69.8(19) . . ?
F17B B17 F17A 112.0(17) . . ?
F17E B17 F17A 66(2) . . ?
F17B B17 F17F 62(2) . . ?
F17E B17 F17F 110.3(16) . . ?
F17A B17 F17F 174(2) . . ?
F17B B17 F17H 171(2) . . ?
F17E B17 F17H 110.7(16) . . ?
F17A B17 F17H 75(2) . . ?
F17F B17 F17H 110.4(17) . . ?
F17B B17 F17D 110.8(17) . . ?
F17E B17 F17D 80(2) . . ?
F17A B17 F17D 109.6(17) . . ?
F17F B17 F17D 74(2) . . ?
F17H B17 F17D 62(2) . . ?
F17B B17 F17G 79(2) . . ?
F17E B17 F17G 108.0(16) . . ?
F17A B17 F17G 69(2) . . ?
F17F B17 F17G 108.5(17) . . ?
F17H B17 F17G 108.8(17) . . ?
F17D B17 F17G 170(2) . . ?
F17B B17 F17C 108.9(17) . . ?
F17E B17 F17C 172(2) . . ?
F17A B17 F17C 108.0(17) . . ?
F17F B17 F17C 75(2) . . ?
F17H B17 F17C 72(2) . . ?
F17D B17 F17C 107.4(17) . . ?
F17G B17 F17C 64(2) . . ?
F18B B18 F18E 96(3) . . ?
F18B B18 F18F 50(2) . . ?
F18E B18 F18F 110.1(17) . . ?
F18B B18 F18A 110.8(17) . . ?
F18E B18 F18A 33(2) . . ?
F18F B18 F18A 142(3) . . ?
F18B B18 F18C 111.2(17) . . ?
F18E B18 F18C 141(3) . . ?
F18F B18 F18C 109(3) . . ?
F18A B18 F18C 108.8(17) . . ?
F18B B18 F18H 152(3) . . ?
F18E B18 F18H 110.1(17) . . ?
F18F B18 F18H 109.0(17) . . ?
F18A B18 F18H 97(3) . . ?
F18C B18 F18H 53(2) . . ?
F18B B18 F18G 70(2) . . ?
F18E B18 F18G 109.0(16) . . ?
F18F B18 F18G 109.7(17) . . ?
F18A B18 F18G 87(2) . . ?
F18C B18 F18G 59(2) . . ?
F18H B18 F18G 108.9(17) . . ?
F18B B18 F18D 110.2(17) . . ?
F18E B18 F18D 87(2) . . ?
F18F B18 F18D 63(2) . . ?
F18A B18 F18D 107.4(16) . . ?
F18C B18 F18D 108.3(17) . . ?
F18H B18 F18D 63(2) . . ?
F18G B18 F18D 164(2) . . ?
F19H B19 F19C 97(3) . . ?
F19H B19 F19E 112.7(18) . . ?
F19C B19 F19E 150(3) . . ?
F19H B19 F19A 151(3) . . ?
F19C B19 F19A 111.9(18) . . ?
F19E B19 F19A 39(2) . . ?
F19H B19 F19B 57(2) . . ?
F19C B19 F19B 110.9(17) . . ?
F19E B19 F19B 89(3) . . ?
F19A B19 F19B 109.7(17) . . ?
F19H B19 F19G 110.1(17) . . ?
F19C B19 F19G 61(2) . . ?
F19E B19 F19G 109.0(16) . . ?
F19A B19 F19G 85(2) . . ?
F19B B19 F19G 71(2) . . ?
F19H B19 F19F 109.5(17) . . ?
F19C B19 F19F 56(2) . . ?
F19E B19 F19F 108.1(16) . . ?
F19A B19 F19F 88(3) . . ?
F19B B19 F19F 162(3) . . ?
F19G B19 F19F 107.3(17) . . ?
F19H B19 F19D 61(2) . . ?
F19C B19 F19D 108.9(17) . . ?
F19E B19 F19D 84(2) . . ?
F19A B19 F19D 107.4(17) . . ?
F19B B19 F19D 107.9(17) . . ?
F19G B19 F19D 167(3) . . ?
F19F B19 F19D 70(2) . . ?
F20G B20 F20E 111.1(17) . . ?
F20G B20 F20A 139(3) . . ?
F20E B20 F20A 28(3) . . ?
F20G B20 F20C 53(2) . . ?
F20E B20 F20C 97(3) . . ?
F20A B20 F20C 109.4(17) . . ?
F20G B20 F20F 110.4(17) . . ?
F20E B20 F20F 109.3(17) . . ?
F20A B20 F20F 96(3) . . ?
F20C B20 F20F 154(3) . . ?
F20G B20 F20D 111(3) . . ?
F20E B20 F20D 138(3) . . ?
F20A B20 F20D 110.0(17) . . ?
F20C B20 F20D 109.5(17) . . ?
F20F B20 F20D 53(2) . . ?
F20G B20 F20B 59(2) . . ?
F20E B20 F20B 91(3) . . ?
F20A B20 F20B 108.6(17) . . ?
F20C B20 F20B 109.7(17) . . ?
F20F B20 F20B 66(2) . . ?
F20D B20 F20B 109.6(17) . . ?
F20G B20 F20H 109.5(17) . . ?
F20E B20 F20H 107.8(16) . . ?
F20A B20 F20H 90(3) . . ?
F20C B20 F20H 66(2) . . ?
F20F B20 F20H 108.6(17) . . ?
F20D B20 F20H 58(2) . . ?
F20B B20 F20H 161(3) . . ?
F21A B21 F21E 38(2) . . ?
F21A B21 F21F 149(3) . . ?
F21E B21 F21F 110.7(17) . . ?
F21A B21 F21C 110.3(17) . . ?
F21E B21 F21C 149(3) . . ?
F21F B21 F21C 101(3) . . ?
F21A B21 F21B 109.4(17) . . ?
F21E B21 F21B 90(2) . . ?
F21F B21 F21B 57(3) . . ?
F21C B21 F21B 109.9(17) . . ?
F21A B21 F21G 86(3) . . ?
F21E B21 F21G 108.7(17) . . ?
F21F B21 F21G 109.8(17) . . ?
F21C B21 F21G 61(2) . . ?
F21B B21 F21G 68(2) . . ?
F21A B21 F21H 89(3) . . ?
F21E B21 F21H 109.1(17) . . ?
F21F B21 F21H 109.4(17) . . ?
F21C B21 F21H 56(2) . . ?
F21B B21 F21H 161(3) . . ?
F21G B21 F21H 109.0(17) . . ?
F21A B21 F21D 109.6(17) . . ?
F21E B21 F21D 86(3) . . ?
F21F B21 F21D 58(3) . . ?
F21C B21 F21D 109.1(17) . . ?
F21B B21 F21D 108.6(17) . . ?
F21G B21 F21D 164(3) . . ?
F21H B21 F21D 69(3) . . ?
F22A B22 F22E 35(2) . . ?
F22A B22 F22D 111.1(17) . . ?
F22E B22 F22D 145(3) . . ?
F22A B22 F22F 144(3) . . ?
F22E B22 F22F 111.0(17) . . ?
F22D B22 F22F 104(3) . . ?
F22A B22 F22B 110.0(17) . . ?
F22E B22 F22B 85(2) . . ?
F22D B22 F22B 109.9(17) . . ?
F22F B22 F22B 62(2) . . ?
F22A B22 F22H 97(2) . . ?
F22E B22 F22H 109.3(17) . . ?
F22D B22 F22H 55(2) . . ?
F22F B22 F22H 109.3(17) . . ?
F22B B22 F22H 66(2) . . ?
F22A B22 F22G 83(2) . . ?
F22E B22 F22G 108.5(16) . . ?
F22D B22 F22G 60(2) . . ?
F22F B22 F22G 109.3(17) . . ?
F22B B22 F22G 166(2) . . ?
F22H B22 F22G 109.4(17) . . ?
F22A B22 F22C 108.2(17) . . ?
F22E B22 F22C 95(3) . . ?
F22D B22 F22C 108.4(17) . . ?
F22F B22 F22C 52(2) . . ?
F22B B22 F22C 109.3(17) . . ?
F22H B22 F22C 154(3) . . ?
F22G B22 F22C 68(2) . . ?
F23A B23 F23E 51(2) . . ?
F23A B23 F23D 113.0(17) . . ?
F23E B23 F23D 163(2) . . ?
F23A B23 F23F 82(2) . . ?
F23E B23 F23F 109.6(17) . . ?
F23D B23 F23F 61(2) . . ?
F23A B23 F23G 161(2) . . ?
F23E B23 F23G 110.9(17) . . ?
F23D B23 F23G 86(3) . . ?
F23F B23 F23G 109.2(17) . . ?
F23A B23 F23H 80(2) . . ?
F23E B23 F23H 109.1(17) . . ?
F23D B23 F23H 65(2) . . ?
F23F B23 F23H 109.1(17) . . ?
F23G B23 F23H 108.9(17) . . ?
F23A B23 F23B 110.2(17) . . ?
F23E B23 F23B 79(2) . . ?
F23D B23 F23B 108.1(17) . . ?
F23F B23 F23B 72(2) . . ?
F23G B23 F23B 62(3) . . ?
F23H B23 F23B 170(2) . . ?
F23A B23 F23C 109.3(16) . . ?
F23E B23 F23C 82(2) . . ?
F23D B23 F23C 108.7(17) . . ?
F23F B23 F23C 168(2) . . ?
F23G B23 F23C 61(3) . . ?
F23H B23 F23C 69(2) . . ?
F23B B23 F23C 107.5(17) . . ?
F24C B24 F24E 100(3) . . ?
F24C B24 F24A 110.7(17) . . ?
F24E B24 F24A 22(3) . . ?
F24C B24 F24G 56(2) . . ?
F24E B24 F24G 109.9(17) . . ?
F24A B24 F24G 132(3) . . ?
F24C B24 F24F 150(3) . . ?
F24E B24 F24F 109.8(17) . . ?
F24A B24 F24F 98(3) . . ?
F24G B24 F24F 109.9(17) . . ?
F24C B24 F24B 109.9(17) . . ?
F24E B24 F24B 96(3) . . ?
F24A B24 F24B 109.1(17) . . ?
F24G B24 F24B 54(2) . . ?
F24F B24 F24B 67(2) . . ?
F24C B24 F24H 60(2) . . ?
F24E B24 F24H 108.4(17) . . ?
F24A B24 F24H 96(3) . . ?
F24G B24 F24H 109.1(17) . . ?
F24F B24 F24H 109.7(17) . . ?
F24B B24 F24H 155(3) . . ?
F24C B24 F24D 109.4(17) . . ?
F24E B24 F24D 131(3) . . ?
F24A B24 F24D 109.1(17) . . ?
F24G B24 F24D 119(3) . . ?
F24F B24 F24D 50(2) . . ?
F24B B24 F24D 108.5(17) . . ?
F24H B24 F24D 60(2) . . ?
F41D B41 F41A 109.4(18) . . ?
F41D B41 F41C 109.6(19) . . ?
F41A B41 F41C 109.4(18) . . ?
F41D B41 F41B 109.1(18) . . ?
F41A B41 F41B 110.0(19) . . ?
F41C B41 F41B 109.4(18) . . ?
F64A B42 F42A 49(5) 2_776 . ?
F64A B42 F42F 96(5) 2_776 . ?
F42A B42 F42F 142(6) . . ?
F64A B42 F42C 134(8) 2_776 . ?
F42A B42 F42C 110.0(18) . . ?
F42F B42 F42C 83(5) . . ?
F64A B42 F42H 57(6) 2_776 . ?
F42A B42 F42H 66(5) . . ?
F42F B42 F42H 110.0(18) . . ?
F42C B42 F42H 163(5) . . ?
F64A B42 F42D 62(5) 2_776 . ?
F42A B42 F42D 110.2(18) . . ?
F42F B42 F42D 34(6) . . ?
F42C B42 F42D 109.3(18) . . ?
F42H B42 F42D 87(5) . . ?
F64A B42 F42E 155(6) 2_776 . ?
F42A B42 F42E 107(6) . . ?
F42F B42 F42E 109.5(18) . . ?
F42C B42 F42E 55(5) . . ?
F42H B42 F42E 109.6(18) . . ?
F42D B42 F42E 143(6) . . ?
F64A B42 F42G 63(6) 2_776 . ?
F42A B42 F42G 47(5) . . ?
F42F B42 F42G 109.5(18) . . ?
F42C B42 F42G 74(5) . . ?
F42H B42 F42G 109.2(18) . . ?
F42D B42 F42G 95(6) . . ?
F42E B42 F42G 109.1(18) . . ?
F64A B42 F42B 116(7) 2_776 . ?
F42A B42 F42B 109.4(18) . . ?
F42F B42 F42B 98(6) . . ?
F42C B42 F42B 109.3(18) . . ?
F42H B42 F42B 60(5) . . ?
F42D B42 F42B 108.7(18) . . ?
F42E B42 F42B 59(5) . . ?
F42G B42 F42B 152(6) . . ?
F64A B42 B64 69(4) 2_776 2_776 ?
F42A B42 B64 24(5) . 2_776 ?
F42F B42 B64 165(5) . 2_776 ?
F42C B42 B64 107(6) . 2_776 ?
F42H B42 B64 63(6) . 2_776 ?
F42D B42 B64 131(5) . 2_776 ?
F42E B42 B64 86(5) . 2_776 ?
F42G B42 B64 64(6) . 2_776 ?
F42B B42 B64 89(5) . 2_776 ?
F64A B42 F64D 120(5) 2_776 2_776 ?
F42A B42 F64D 71(5) . 2_776 ?
F42F B42 F64D 142(6) . 2_776 ?
F42C B42 F64D 63(6) . 2_776 ?
F42H B42 F64D 101(7) . 2_776 ?
F42D B42 F64D 171(6) . 2_776 ?
F42E B42 F64D 36(5) . 2_776 ?
F42G B42 F64D 79(6) . 2_776 ?
F42B B42 F64D 78(6) . 2_776 ?
B64 B42 F64D 53(2) 2_776 2_776 ?
B64 F42A F64A 114(10) 2_776 2_776 ?
B64 F42A F64B 89(9) 2_776 2_776 ?
F64A F42A F64B 157(10) 2_776 2_776 ?
B64 F42A B42 82(7) 2_776 . ?
F64A F42A B42 42(5) 2_776 . ?
F64B F42A B42 152(9) 2_776 . ?
B42 F42C F64D 67(5) . 2_776 ?
F64A F42D B42 40(4) 2_776 . ?
F64D F42E B42 87(6) 2_776 . ?
F64D F42E B64 44(5) 2_776 2_776 ?
B42 F42E B64 48(3) . 2_776 ?
B42 F42F F64A 32(3) . 2_776 ?
F64A F42G B42 40(4) 2_776 . ?
F64A F42G B64 60(5) 2_776 2_776 ?
B42 F42G B64 59(4) . 2_776 ?
F64A F42H B42 41(4) 2_776 . ?
F64A F42H B64 62(5) 2_776 2_776 ?
B42 F42H B64 60(4) . 2_776 ?
F64A F42H F64C 116(9) 2_776 2_776 ?
B42 F42H F64C 110(8) . 2_776 ?
B64 F42H F64C 56(4) 2_776 2_776 ?
F43E B43 F43D 151(5) . . ?
F43E B43 F43B 70(4) . . ?
F43D B43 F43B 110.3(18) . . ?
F43E B43 F43F 110.5(18) . . ?
F43D B43 F43F 83(6) . . ?
F43B B43 F43F 151(6) . . ?
F43E B43 F43A 96(5) . . ?
F43D B43 F43A 109.8(18) . . ?
F43B B43 F43A 110.2(19) . . ?
F43F B43 F43A 41(6) . . ?
F43E B43 F43H 109.8(18) . . ?
F43D B43 F43H 42(5) . . ?
F43B B43 F43H 96(6) . . ?
F43F B43 F43H 109.9(19) . . ?
F43A B43 F43H 148(6) . . ?
F43E B43 F43C 48(4) . . ?
F43D B43 F43C 109.6(18) . . ?
F43B B43 F43C 108.6(18) . . ?
F43F B43 F43C 90(5) . . ?
F43A B43 F43C 108.4(18) . . ?
F43H B43 F43C 78(5) . . ?
F43E B43 F43G 109.6(18) . . ?
F43D B43 F43G 88(5) . . ?
F43B B43 F43G 49(5) . . ?
F43F B43 F43G 108.6(18) . . ?
F43A B43 F43G 79(6) . . ?
F43H B43 F43G 108.4(18) . . ?
F43C B43 F43G 156(4) . . ?
F44A B44 F44G 127(6) . . ?
F44A B44 F44H 118(6) . . ?
F44G B44 F44H 109.9(18) . . ?
F44A B44 F44C 110.5(19) . . ?
F44G B44 F44C 40(5) . . ?
F44H B44 F44C 130(7) . . ?
F44A B44 F44F 75(4) . . ?
F44G B44 F44F 109.8(18) . . ?
F44H B44 F44F 109.7(18) . . ?
F44C B44 F44F 71(5) . . ?
F44A B44 F44D 109.7(18) . . ?
F44G B44 F44D 70(5) . . ?
F44H B44 F44D 66(5) . . ?
F44C B44 F44D 109.3(18) . . ?
F44F B44 F44D 175(5) . . ?
F44A B44 F44E 35(4) . . ?
F44G B44 F44E 109.4(18) . . ?
F44H B44 F44E 109.2(18) . . ?
F44C B44 F44E 118(7) . . ?
F44F B44 F44E 108.7(18) . . ?
F44D B44 F44E 76(4) . . ?
F44A B44 F44B 109.4(18) . . ?
F44G B44 F44B 120(6) . . ?
F44H B44 F44B 43(5) . . ?
F44C B44 F44B 108.9(18) . . ?
F44F B44 F44B 67(5) . . ?
F44D B44 F44B 109.0(18) . . ?
F44E B44 F44B 128(6) . . ?
B44 F44G Pd27 107(6) . 1_565 ?
F45B B45 F45D 109.1(18) . . ?
F45B B45 F45C 109.5(19) . . ?
F45D B45 F45C 109.8(19) . . ?
F45B B45 F45A 109.8(19) . . ?
F45D B45 F45A 109.6(19) . . ?
F45C B45 F45A 108.9(18) . . ?
F46A B46 F46F 111(5) . . ?
F46A B46 F46B 111.4(18) . . ?
F46F B46 F46B 45(3) . . ?
F46A B46 F46H 48(3) . . ?
F46F B46 F46H 110.8(18) . . ?
F46B B46 F46H 146(4) . . ?
F46A B46 F46E 138(5) . . ?
F46F B46 F46E 109.9(18) . . ?
F46B B46 F46E 103(4) . . ?
F46H B46 F46E 108.9(18) . . ?
F46A B46 F46G 64(3) . . ?
F46F B46 F46G 109.6(18) . . ?
F46B B46 F46G 70(3) . . ?
F46H B46 F46G 108.5(18) . . ?
F46E B46 F46G 109.1(18) . . ?
F46A B46 F46C 109.9(18) . . ?
F46F B46 F46C 67(3) . . ?
F46B B46 F46C 108.7(18) . . ?
F46H B46 F46C 67(3) . . ?
F46E B46 F46C 80(4) . . ?
F46G B46 F46C 171(4) . . ?
F46A B46 F46D 109.5(18) . . ?
F46F B46 F46D 138(5) . . ?
F46B B46 F46D 108.9(18) . . ?
F46H B46 F46D 104(4) . . ?
F46E B46 F46D 34(4) . . ?
F46G B46 F46D 80(4) . . ?
F46C B46 F46D 108.3(18) . . ?
F47E B47 F47C 137(7) . . ?
F47E B47 F47A 33(5) . . ?
F47C B47 F47A 110.2(19) . . ?
F47E B47 F47H 110.3(19) . . ?
F47C B47 F47H 55(5) . . ?
F47A B47 F47H 114(8) . . ?
F47E B47 F47F 109.7(18) . . ?
F47C B47 F47F 113(7) . . ?
F47A B47 F47F 131(8) . . ?
F47H B47 F47F 109.4(18) . . ?
F47E B47 F47B 105(7) . . ?
F47C B47 F47B 109.8(19) . . ?
F47A B47 F47B 109.4(18) . . ?
F47H B47 F47B 137(8) . . ?
F47F B47 F47B 33(7) . . ?
F47E B47 F47D 80(5) . . ?
F47C B47 F47D 109.3(18) . . ?
F47A B47 F47D 108.9(18) . . ?
F47H B47 F47D 56(5) . . ?
F47F B47 F47D 77(7) . . ?
F47B B47 F47D 109.2(18) . . ?
F47E B47 F47G 109.1(18) . . ?
F47C B47 F47G 56(5) . . ?
F47A B47 F47G 77(5) . . ?
F47H B47 F47G 109.1(18) . . ?
F47F B47 F47G 109.1(18) . . ?
F47B B47 F47G 80(6) . . ?
F47D B47 F47G 165(5) . . ?
F48B B48 F48A 109.9(19) . . ?
F48B B48 F48D 109.8(19) . . ?
F48A B48 F48D 109.7(19) . . ?
F48B B48 F48C 109.6(18) . . ?
F48A B48 F48C 109.4(18) . . ?
F48D B48 F48C 108.4(18) . . ?
F49A B49 F49D 109.6(19) . . ?
F49A B49 F49C 109.6(19) . . ?
F49D B49 F49C 109.6(19) . . ?
F49A B49 F49B 109.7(19) . . ?
F49D B49 F49B 109.3(19) . . ?
F49C B49 F49B 109.1(18) . . ?
F50A B50 F50B 109.3(19) . . ?
F50A B50 F50D 109.5(19) . . ?
F50B B50 F50D 109.7(19) . . ?
F50A B50 F50C 109.4(19) . . ?
F50B B50 F50C 109.5(19) . . ?
F50D B50 F50C 109.4(19) . . ?
F51C B51 F51A 110.0(19) . . ?
F51C B51 F51H 80(9) . . ?
F51A B51 F51H 107(10) . . ?
F51C B51 F51F 122(10) . . ?
F51A B51 F51F 119(10) . . ?
F51H B51 F51F 109.4(18) . . ?
F51C B51 F51E 120(10) . . ?
F51A B51 F51E 10(10) . . ?
F51H B51 F51E 109.6(19) . . ?
F51F B51 F51E 109.8(19) . . ?
F51C B51 F51G 29(9) . . ?
F51A B51 F51G 102(10) . . ?
F51H B51 F51G 109.3(19) . . ?
F51F B51 F51G 109.2(18) . . ?
F51E B51 F51G 109.5(19) . . ?
F51C B51 F51B 109.3(18) . . ?
F51A B51 F51B 109.5(19) . . ?
F51H B51 F51B 135(10) . . ?
F51F B51 F51B 28(9) . . ?
F51E B51 F51B 103(10) . . ?
F51G B51 F51B 87(9) . . ?
F51C B51 F51D 109.1(18) . . ?
F51A B51 F51D 109.6(19) . . ?
F51H B51 F51D 32(8) . . ?
F51F B51 F51D 81(9) . . ?
F51E B51 F51D 106(10) . . ?
F51G B51 F51D 136(10) . . ?
F51B B51 F51D 109.3(18) . . ?
F53H B53 F53C 0(10) . . ?
F53H B53 F53A 109.5(18) . . ?
F53C B53 F53A 109.5(18) . . ?
F53H B53 F53B 109(10) . . ?
F53C B53 F53B 109.4(18) . . ?
F53A B53 F53B 109.7(18) . . ?
F53H B53 F53F 109.4(18) . . ?
F53C B53 F53F 109(10) . . ?
F53A B53 F53F 109.7(18) . . ?
F53B B53 F53F 0(10) . . ?
F53H B53 F53G 109.3(18) . . ?
F53C B53 F53G 109(10) . . ?
F53A B53 F53G 109.6(18) . . ?
F53B B53 F53G 109(10) . . ?
F53F B53 F53G 109.3(18) . . ?
F53H B53 F53D 109(10) . . ?
F53C B53 F53D 109.3(18) . . ?
F53A B53 F53D 109.6(18) . . ?
F53B B53 F53D 109.3(18) . . ?
F53F B53 F53D 109(10) . . ?
F53G B53 F53D 0(10) . . ?
F55C B55 F55A 109.6(18) . . ?
F55C B55 F55D 109.9(19) . . ?
F55A B55 F55D 109.4(19) . . ?
F55C B55 F55B 109.5(19) . . ?
F55A B55 F55B 109.3(19) . . ?
F55D B55 F55B 109.1(18) . . ?
F58A B56 F56D 40(6) 2_766 . ?
F58A B56 F56A 87(7) 2_766 . ?
F56D B56 F56A 109.4(18) . . ?
F58A B56 F56C 87(6) 2_766 . ?
F56D B56 F56C 109.7(19) . . ?
F56A B56 F56C 109.5(18) . . ?
F58A B56 F56B 150(6) 2_766 . ?
F56D B56 F56B 109.5(19) . . ?
F56A B56 F56B 109.5(19) . . ?
F56C B56 F56B 109.3(18) . . ?
F58A B56 B58 65(5) 2_766 2_766 ?
F56D B56 B58 46(4) . 2_766 ?
F56A B56 B58 76(4) . 2_766 ?
F56C B56 B58 152(5) . 2_766 ?
F56B B56 B58 94(5) . 2_766 ?
F58A B56 F58D 113(6) 2_766 2_766 ?
F56D B56 F58D 86(4) . 2_766 ?
F56A B56 F58D 75(4) . 2_766 ?
F56C B56 F58D 160(4) . 2_766 ?
F56B B56 F58D 52(4) . 2_766 ?
B58 B56 F58D 48(2) 2_766 2_766 ?
B56 F56A F58A 30(4) . 2_766 ?
B56 F56A B58 55(3) . 2_766 ?
F58A F56A B58 48(2) 2_766 2_766 ?
B56 F56B F58D 80(4) . 2_766 ?
B56 F56C F58A 30(4) . 2_766 ?
F58A F56D B58 83(6) 2_766 2_766 ?
F58A F56D B56 32(6) 2_766 . ?
B58 F56D B56 73(4) 2_766 . ?
F58A F56D F58C 148(9) 2_766 2_766 ?
B58 F56D F58C 65(4) 2_766 2_766 ?
B56 F56D F58C 128(6) . 2_766 ?
F57D B57 F57H 20(10) . . ?
F57D B57 F57E 93(9) . . ?
F57H B57 F57E 109.3(18) . . ?
F57D B57 F57B 109.7(18) . . ?
F57H B57 F57B 101(9) . . ?
F57E B57 F57B 141(9) . . ?
F57D B57 F57G 128(10) . . ?
F57H B57 F57G 109.8(19) . . ?
F57E B57 F57G 109.7(19) . . ?
F57B B57 F57G 81(9) . . ?
F57D B57 F57A 109.5(19) . . ?
F57H B57 F57A 130(10) . . ?
F57E B57 F57A 32(9) . . ?
F57B B57 F57A 109.6(19) . . ?
F57G B57 F57A 114(10) . . ?
F57D B57 F57F 106(9) . . ?
F57H B57 F57F 109.5(18) . . ?
F57E B57 F57F 109.5(19) . . ?
F57B B57 F57F 35(9) . . ?
F57G B57 F57F 109.1(18) . . ?
F57A B57 F57F 79(9) . . ?
F57D B57 F57C 109.5(19) . . ?
F57H B57 F57C 97(10) . . ?
F57E B57 F57C 91(9) . . ?
F57B B57 F57C 109.3(19) . . ?
F57G B57 F57C 29(9) . . ?
F57A B57 F57C 109.2(18) . . ?
F57F B57 F57C 138(10) . . ?
F56D B58 F58A 42(3) 2_766 . ?
F56D B58 F58B 123(7) 2_766 . ?
F58A B58 F58B 109.7(19) . . ?
F56D B58 F58C 67(4) 2_766 . ?
F58A B58 F58C 109.7(19) . . ?
F58B B58 F58C 109.3(19) . . ?
F56D B58 F58D 125(6) 2_766 . ?
F58A B58 F58D 109.2(19) . . ?
F58B B58 F58D 109.5(19) . . ?
F58C B58 F58D 109.4(18) . . ?
F56D B58 B56 61(3) 2_766 2_766 ?
F58A B58 B56 30(4) . 2_766 ?
F58B B58 B56 124(4) . 2_766 ?
F58C B58 B56 120(4) . 2_766 ?
F58D B58 B56 79(4) . 2_766 ?
F56D B58 F56A 99(5) 2_766 2_766 ?
F58A B58 F56A 57(3) . 2_766 ?
F58B B58 F56A 78(4) . 2_766 ?
F58C B58 F56A 167(4) . 2_766 ?
F58D B58 F56A 77(4) . 2_766 ?
B56 B58 F56A 49(2) 2_766 2_766 ?
B56 F58A F56D 108(10) 2_766 2_766 ?
B56 F58A B58 84(6) 2_766 . ?
F56D F58A B58 54(6) 2_766 . ?
B56 F58A F56A 63(5) 2_766 2_766 ?
F56D F58A F56A 129(7) 2_766 2_766 ?
B58 F58A F56A 75(4) . 2_766 ?
B56 F58A F56C 63(5) 2_766 2_766 ?
F56D F58A F56C 129(8) 2_766 2_766 ?
B58 F58A F56C 147(5) . 2_766 ?
F56A F58A F56C 94(4) 2_766 2_766 ?
B58 F58C F56D 48(3) . 2_766 ?
B58 F58D F56B 95(5) . 2_766 ?
B58 F58D B56 53(3) . 2_766 ?
F56B F58D B56 48(3) 2_766 2_766 ?
F59A B59 F59H 115(10) . . ?
F59A B59 F59E 6(10) . . ?
F59H B59 F59E 109.7(19) . . ?
F59A B59 F59B 109.8(19) . . ?
F59H B59 F59B 71(9) . . ?
F59E B59 F59B 111(10) . . ?
F59A B59 F59F 105(10) . . ?
F59H B59 F59F 109.3(18) . . ?
F59E B59 F59F 109.6(19) . . ?
F59B B59 F59F 41(9) . . ?
F59A B59 F59G 108(10) . . ?
F59H B59 F59G 109.5(19) . . ?
F59E B59 F59G 109.4(19) . . ?
F59B B59 F59G 137(10) . . ?
F59F B59 F59G 109.3(19) . . ?
F59A B59 F59C 109.5(19) . . ?
F59H B59 F59C 132(10) . . ?
F59E B59 F59C 114(10) . . ?
F59B B59 F59C 109.4(19) . . ?
F59F B59 F59C 73(9) . . ?
F59G B59 F59C 38(9) . . ?
F59A B59 F59D 109.5(19) . . ?
F59H B59 F59D 40(9) . . ?
F59E B59 F59D 104(10) . . ?
F59B B59 F59D 109.3(18) . . ?
F59F B59 F59D 142(10) . . ?
F59G B59 F59D 75(10) . . ?
F59C B59 F59D 109.3(19) . . ?
F61E B61 F61D 126(9) . . ?
F61E B61 F61A 26(6) . . ?
F61D B61 F61A 110.0(19) . . ?
F61E B61 F61G 110.1(19) . . ?
F61D B61 F61G 66(6) . . ?
F61A B61 F61G 126(9) . . ?
F61E B61 F61B 115(10) . . ?
F61D B61 F61B 109.5(18) . . ?
F61A B61 F61B 109.5(19) . . ?
F61G B61 F61B 123(10) . . ?
F61E B61 F61F 109.6(19) . . ?
F61D B61 F61F 123(10) . . ?
F61A B61 F61F 115(10) . . ?
F61G B61 F61F 109.3(18) . . ?
F61B B61 F61F 22(8) . . ?
F61E B61 F61C 84(6) . . ?
F61D B61 F61C 109.5(18) . . ?
F61A B61 F61C 109.1(18) . . ?
F61G B61 F61C 44(6) . . ?
F61B B61 F61C 109.3(18) . . ?
F61F B61 F61C 87(8) . . ?
F61E B61 F61H 109.3(18) . . ?
F61D B61 F61H 43(6) . . ?
F61A B61 F61H 84(6) . . ?
F61G B61 F61H 109.1(18) . . ?
F61B B61 F61H 88(8) . . ?
F61F B61 F61H 109.4(18) . . ?
F61C B61 F61H 153(7) . . ?
F62H B62 F62C 134(5) . . ?
F62H B62 F62B 115(5) . . ?
F62C B62 F62B 111.1(18) . . ?
F62H B62 F62D 56(2) . . ?
F62C B62 F62D 110.3(19) . . ?
F62B B62 F62D 109.6(18) . . ?
F62H B62 F62E 111.2(18) . . ?
F62C B62 F62E 90(5) . . ?
F62B B62 F62E 58(4) . . ?
F62D B62 F62E 159(4) . . ?
F62H B62 F62F 110.3(18) . . ?
F62C B62 F62F 99(5) . . ?
F62B B62 F62F 53(4) . . ?
F62D B62 F62F 66(3) . . ?
F62E B62 F62F 108.7(18) . . ?
F62H B62 F62G 109.8(18) . . ?
F62C B62 F62G 25(5) . . ?
F62B B62 F62G 135(5) . . ?
F62D B62 F62G 92(4) . . ?
F62E B62 F62G 108.6(18) . . ?
F62F B62 F62G 108.1(18) . . ?
F62H B62 F62A 52(3) . . ?
F62C B62 F62A 109.6(18) . . ?
F62B B62 F62A 109.0(18) . . ?
F62D B62 F62A 107.0(17) . . ?
F62E B62 F62A 67(3) . . ?
F62F B62 F62A 151(5) . . ?
F62G B62 F62A 101(5) . . ?
F63A B63 F63B 109.7(19) . . ?
F63A B63 F63D 109.2(18) . . ?
F63B B63 F63D 109.7(19) . . ?
F63A B63 F63C 109.7(19) . . ?
F63B B63 F63C 109.2(18) . . ?
F63D B63 F63C 109.3(18) . . ?
F42A B64 F64B 66(8) 2_776 . ?
F42A B64 F64A 44(8) 2_776 . ?
F64B B64 F64A 109.7(19) . . ?
F42A B64 F64C 124(10) 2_776 . ?
F64B B64 F64C 109.1(18) . . ?
F64A B64 F64C 109.8(19) . . ?
F42A B64 F64D 125(10) 2_776 . ?
F64B B64 F64D 109.6(19) . . ?
F64A B64 F64D 109.2(18) . . ?
F64C B64 F64D 109.4(18) . . ?
F42A B64 B42 75(6) 2_776 2_776 ?
F64B B64 B42 133(4) . 2_776 ?
F64A B64 B42 38(4) . 2_776 ?
F64C B64 B42 115(5) . 2_776 ?
F64D B64 B42 72(4) . 2_776 ?
F42A B64 F42H 84(10) 2_776 2_776 ?
F64B B64 F42H 138(7) . 2_776 ?
F64A B64 F42H 49(4) . 2_776 ?
F64C B64 F42H 63(4) . 2_776 ?
F64D B64 F42H 112(7) . 2_776 ?
B42 B64 F42H 58(3) 2_776 2_776 ?
F42A B64 F42G 39(10) 2_776 2_776 ?
F64B B64 F42G 76(4) . 2_776 ?
F64A B64 F42G 52(4) . 2_776 ?
F64C B64 F42G 161(5) . 2_776 ?
F64D B64 F42G 86(5) . 2_776 ?
B42 B64 F42G 57(4) 2_776 2_776 ?
F42H B64 F42G 100(5) 2_776 2_776 ?
F42A B64 F42E 116(10) 2_776 2_776 ?
F64B B64 F42E 136(6) . 2_776 ?
F64A B64 F42E 85(4) . 2_776 ?
F64C B64 F42E 104(6) . 2_776 ?
F64D B64 F42E 30(4) . 2_776 ?
B42 B64 F42E 46(3) 2_776 2_776 ?
F42H B64 F42E 83(4) 2_776 2_776 ?
F42G B64 F42E 82(5) 2_776 2_776 ?
B42 F64A F42A 89(7) 2_776 2_776 ?
B42 F64A F42H 82(7) 2_776 2_776 ?
F42A F64A F42H 86(7) 2_776 2_776 ?
B42 F64A F42D 78(6) 2_776 2_776 ?
F42A F64A F42D 163(10) 2_776 2_776 ?
F42H F64A F42D 104(9) 2_776 2_776 ?
B42 F64A F42G 77(7) 2_776 2_776 ?
F42A F64A F42G 56(7) 2_776 2_776 ?
F42H F64A F42G 136(7) 2_776 2_776 ?
F42D F64A F42G 109(9) 2_776 2_776 ?
B42 F64A B64 73(4) 2_776 . ?
F42A F64A B64 22(6) 2_776 . ?
F42H F64A B64 69(6) 2_776 . ?
F42D F64A B64 151(6) 2_776 . ?
F42G F64A B64 68(6) 2_776 . ?
B42 F64A F42F 52(4) 2_776 2_776 ?
F42A F64A F42F 139(9) 2_776 2_776 ?
F42H F64A F42F 101(6) 2_776 2_776 ?
F42D F64A F42F 26(5) 2_776 2_776 ?
F42G F64A F42F 97(6) 2_776 2_776 ?
B64 F64A F42F 125(5) . 2_776 ?
F42A F64B B64 25(5) 2_776 . ?
F42A F64B Pd21 152(7) 2_776 2_776 ?
B64 F64B Pd21 128(3) . 2_776 ?
B64 F64C F42H 61(4) . 2_776 ?
F42E F64D B64 106(8) 2_776 . ?
F42E F64D F42C 53(8) 2_776 2_776 ?
B64 F64D F42C 98(4) . 2_776 ?
F42E F64D B42 57(4) 2_776 2_776 ?
B64 F64D B42 55(3) . 2_776 ?
F42C F64D B42 50(3) 2_776 2_776 ?
F1XB B1X F1XD 109.9(19) . . ?
F1XB B1X F1XC 109.5(18) . . ?
F1XD B1X F1XC 109.7(18) . . ?
F1XB B1X F1XA 109.3(18) . . ?
F1XD B1X F1XA 109.4(18) . . ?
F1XC B1X F1XA 109.0(18) . . ?
F2XD B2X F2XA 110.0(18) . . ?
F2XD B2X F2XC 109.6(18) . . ?
F2XA B2X F2XC 109.7(18) . . ?
F2XD B2X F2XB 109.3(18) . . ?
F2XA B2X F2XB 108.8(18) . . ?
F2XC B2X F2XB 109.4(18) . . ?
F3XC B3X F3XA 109.2(18) . . ?
F3XC B3X F3XD 108.8(19) . . ?
F3XA B3X F3XD 109.4(18) . . ?
F3XC B3X F3XB 109.6(18) . . ?
F3XA B3X F3XB 110.6(19) . . ?
F3XD B3X F3XB 109.3(18) . . ?
N2C Pd1 N2G 174.6(9) . . ?
N2C Pd1 N1A 79.6(11) . . ?
N2G Pd1 N1A 95.0(9) . . ?
N2C Pd1 N1D 95.6(9) . . ?
N2G Pd1 N1D 89.8(6) . . ?
N1A Pd1 N1D 174.7(10) . . ?
N2C Pd1 N42I 102.1(17) . . ?
N2G Pd1 N42I 72.6(16) . . ?
N1A Pd1 N42I 22.6(15) . . ?
N1D Pd1 N42I 162.4(16) . . ?
N2C Pd1 N42X 19(2) . . ?
N2G Pd1 N42X 166(2) . . ?
N1A Pd1 N42X 96.5(18) . . ?
N1D Pd1 N42X 79.1(17) . . ?
N42I Pd1 N42X 118(2) . . ?
N2A Pd2 N2I 95.4(9) . . ?
N2A Pd2 N2L 173.5(9) . . ?
N2I Pd2 N2L 90.9(6) . . ?
N2A Pd2 N1B 77.2(11) . . ?
N2I Pd2 N1B 171.6(12) . . ?
N2L Pd2 N1B 96.3(8) . . ?
N2A Pd2 N42Q 97.6(16) . . ?
N2I Pd2 N42Q 166.8(14) . . ?
N2L Pd2 N42Q 76.1(14) . . ?
N1B Pd2 N42Q 20.4(14) . . ?
N2A Pd2 N42H 19.6(16) . . ?
N2I Pd2 N42H 76.3(15) . . ?
N2L Pd2 N42H 166.9(15) . . ?
N1B Pd2 N42H 96.7(16) . . ?
N42Q Pd2 N42H 117(2) . . ?
N1C Pd3 N2B 78.4(12) . . ?
N1C Pd3 N2Q 97.4(9) . . ?
N2B Pd3 N2Q 175.6(10) . . ?
N1C Pd3 N2N 173.7(10) . . ?
N2B Pd3 N2N 95.7(9) . . ?
N2Q Pd3 N2N 88.6(6) . . ?
N1C Pd3 N42P 92.0(18) . . ?
N2B Pd3 N42P 15(2) . . ?
N2Q Pd3 N42P 169.6(18) . . ?
N2N Pd3 N42P 81.8(16) . . ?
N1C Pd3 N42A 18.7(18) . . ?
N2B Pd3 N42A 95.8(17) . . ?
N2Q Pd3 N42A 79.8(16) . . ?
N2N Pd3 N42A 167.6(17) . . ?
N42P Pd3 N42A 110(2) . . ?
N2D Pd4 N2R 94.4(10) . . ?
N2D Pd4 N1E 91.9(7) . . ?
N2R Pd4 N1E 173.6(10) . . ?
N2D Pd4 N42M 169(2) . 2_775 ?
N2R Pd4 N42M 94(2) . 2_775 ?
N1E Pd4 N42M 79.5(18) . 2_775 ?
N2D Pd4 N1S 173.2(10) . . ?
N2R Pd4 N1S 79.3(11) . . ?
N1E Pd4 N1S 94.3(9) . . ?
N42M Pd4 N1S 18(2) 2_775 . ?
N2D Pd4 N42W 76.1(17) . . ?
N2R Pd4 N42W 18.5(18) . . ?
N1E Pd4 N42W 167.6(18) . . ?
N42M Pd4 N42W 113(2) 2_775 . ?
N1S Pd4 N42W 97.5(18) . . ?
N1T Pd5 N1U 77.1(12) . . ?
N1T Pd5 N2E 96.5(9) . . ?
N1U Pd5 N2E 173.4(10) . . ?
N1T Pd5 N1F 174.0(10) . . ?
N1U Pd5 N1F 97.0(10) . . ?
N2E Pd5 N1F 89.4(7) . . ?
N1T Pd5 N42N 17(2) . 2_775 ?
N1U Pd5 N42N 93.6(19) . 2_775 ?
N2E Pd5 N42N 79.9(17) . 2_775 ?
N1F Pd5 N42N 169.0(18) . 2_775 ?
N1T Pd5 N42S 93.1(18) . 2_775 ?
N1U Pd5 N42S 16.0(19) . 2_775 ?
N2E Pd5 N42S 170.2(17) . 2_775 ?
N1F Pd5 N42S 81.0(17) . 2_775 ?
N42N Pd5 N42S 109(2) 2_775 2_775 ?
N1V Pd6 N1H 78.5(11) . . ?
N1V Pd6 N2F 95.9(9) . . ?
N1H Pd6 N2F 173.6(11) . . ?
N1V Pd6 N1G 174.0(9) . . ?
N1H Pd6 N1G 95.7(9) . . ?
N2F Pd6 N1G 90.0(6) . . ?
N1V Pd6 N42J 95.7(18) . . ?
N1H Pd6 N42J 17.4(18) . . ?
N2F Pd6 N42J 168.4(16) . . ?
N1G Pd6 N42J 78.4(17) . . ?
N1V Pd6 N42T 17.3(16) . 2_775 ?
N1H Pd6 N42T 95.0(16) . 2_775 ?
N2F Pd6 N42T 79.1(14) . 2_775 ?
N1G Pd6 N42T 168.7(15) . 2_775 ?
N42J Pd6 N42T 112(2) . 2_775 ?
N2H Pd7 N1W 77.2(11) . . ?
N2H Pd7 N42U 96.6(18) . 2_775 ?
N1W Pd7 N42U 20.4(18) . 2_775 ?
N2H Pd7 N1I 97.5(9) . . ?
N1W Pd7 N1I 174.1(11) . . ?
N42U Pd7 N1I 165.5(17) 2_775 . ?
N2H Pd7 N1J 172.4(9) . . ?
N1W Pd7 N1J 95.3(9) . . ?
N42U Pd7 N1J 76.0(17) 2_775 . ?
N1I Pd7 N1J 90.0(6) . . ?
N2H Pd7 N42G 19.3(13) . . ?
N1W Pd7 N42G 95.7(13) . . ?
N42U Pd7 N42G 114.3(19) 2_775 . ?
N1I Pd7 N42G 79.3(11) . . ?
N1J Pd7 N42G 168.3(12) . . ?
N2J Pd8 N1X 94.6(9) . . ?
N2J Pd8 N1K 89.1(7) . . ?
N1X Pd8 N1K 175.3(12) . . ?
N2J Pd8 N2S 174.2(11) . 2_775 ?
N1X Pd8 N2S 80.6(11) . 2_775 ?
N1K Pd8 N2S 95.6(9) . 2_775 ?
N2J Pd8 N42C 165.9(17) . 2_775 ?
N1X Pd8 N42C 99.3(18) . 2_775 ?
N1K Pd8 N42C 77.2(17) . 2_775 ?
N2S Pd8 N42C 19.6(18) 2_775 2_775 ?
N2J Pd8 N42V 75.6(18) . 2_775 ?
N1X Pd8 N42V 19.0(17) . 2_775 ?
N1K Pd8 N42V 164.5(18) . 2_775 ?
N2S Pd8 N42V 99.6(19) 2_775 2_775 ?
N42C Pd8 N42V 118(2) 2_775 2_775 ?
N2T Pd9 N1L 174.4(13) 2_775 . ?
N2T Pd9 N2K 93.5(10) 2_775 . ?
N1L Pd9 N2K 90.6(7) . . ?
N2T Pd9 N1M 80.7(12) 2_775 . ?
N1L Pd9 N1M 94.7(9) . . ?
N2K Pd9 N1M 171.2(13) . . ?
N2T Pd9 N42D 17(3) 2_775 2_775 ?
N1L Pd9 N42D 168(2) . 2_775 ?
N2K Pd9 N42D 79.1(19) . 2_775 ?
N1M Pd9 N42D 96(2) . 2_775 ?
N2T Pd9 N42R 98.1(19) 2_775 . ?
N1L Pd9 N42R 78.0(18) . . ?
N2K Pd9 N42R 168.2(18) . . ?
N1M Pd9 N42R 20(2) . . ?
N42D Pd9 N42R 112(2) 2_775 . ?
N2M Pd10 N1N 93.6(9) . . ?
N2M Pd10 N1O 175.9(11) . . ?
N1N Pd10 N1O 90.0(7) . . ?
N2M Pd10 N2U 82.3(11) . 2_775 ?
N1N Pd10 N2U 173.4(13) . 2_775 ?
N1O Pd10 N2U 94.0(9) . 2_775 ?
N2M Pd10 N42E 97(2) . 2_775 ?
N1N Pd10 N42E 168(2) . 2_775 ?
N1O Pd10 N42E 79.6(19) . 2_775 ?
N2U Pd10 N42E 18(2) 2_775 2_775 ?
N2M Pd10 N42O 17.7(19) . . ?
N1N Pd10 N42O 76.3(18) . . ?
N1O Pd10 N42O 166.2(18) . . ?
N2U Pd10 N42O 99.8(19) 2_775 . ?
N42E Pd10 N42O 114(2) 2_775 . ?
N2W Pd11 N2O 173.3(14) 2_775 . ?
N2W Pd11 N1P 96.5(9) 2_775 . ?
N2O Pd11 N1P 88.7(6) . . ?
N2W Pd11 N2V 79.2(12) 2_775 2_775 ?
N2O Pd11 N2V 95.4(9) . 2_775 ?
N1P Pd11 N2V 175.3(11) . 2_775 ?
N2W Pd11 N42F 97.3(17) 2_775 2_775 ?
N2O Pd11 N42F 77.2(15) . 2_775 ?
N1P Pd11 N42F 165.6(16) . 2_775 ?
N2V Pd11 N42F 18.1(15) 2_775 2_775 ?
N2W Pd11 N42K 15.0(16) 2_775 2_775 ?
N2O Pd11 N42K 169.8(15) . 2_775 ?
N1P Pd11 N42K 81.6(14) . 2_775 ?
N2V Pd11 N42K 94.2(15) 2_775 2_775 ?
N42F Pd11 N42K 112(2) 2_775 2_775 ?
N2X Pd12 N2P 95.0(9) 2_775 . ?
N2X Pd12 N1Q 174.3(12) 2_775 . ?
N2P Pd12 N1Q 89.8(7) . . ?
N2X Pd12 N1R 80.2(11) 2_775 . ?
N2P Pd12 N1R 174.9(10) . . ?
N1Q Pd12 N1R 95.1(9) . . ?
N2X Pd12 N42L 21(2) 2_775 2_775 ?
N2P Pd12 N42L 75.4(18) . 2_775 ?
N1Q Pd12 N42L 164.1(19) . 2_775 ?
N1R Pd12 N42L 99.6(19) . 2_775 ?
N2X Pd12 N42B 95(2) 2_775 . ?
N2P Pd12 N42B 169(2) . . ?
N1Q Pd12 N42B 80(2) . . ?
N1R Pd12 N42B 16(2) . . ?
N42L Pd12 N42B 115(3) 2_775 . ?
N41A Pd21 N21A 176(2) . . ?
N41A Pd21 N21D 83.3(19) . . ?
N21A Pd21 N21D 94.0(17) . . ?
N41A Pd21 N41B 96(2) . . ?
N21A Pd21 N41B 86.4(19) . . ?
N21D Pd21 N41B 176(3) . . ?
N41A Pd21 F64B 98(3) . 2_776 ?
N21A Pd21 F64B 84(2) . 2_776 ?
N21D Pd21 F64B 94(2) . 2_776 ?
N41B Pd21 F64B 90(3) . 2_776 ?
N22A Pd22 N41C 85(2) . . ?
N22A Pd22 N41D 179(3) . . ?
N41C Pd22 N41D 96(2) . . ?
N22A Pd22 N21B 91.6(18) . . ?
N41C Pd22 N21B 174(2) . . ?
N41D Pd22 N21B 87.4(19) . . ?
N41F Pd23 N41E 99.4(18) . . ?
N41F Pd23 N21C 83.1(18) . . ?
N41E Pd23 N21C 177(2) . . ?
N41F Pd23 N22B 175(3) . . ?
N41E Pd23 N22B 82.3(18) . . ?
N21C Pd23 N22B 95.4(17) . . ?
N41G Pd24 N22C 82.9(15) . . ?
N41G Pd24 N41H 100.7(16) . . ?
N22C Pd24 N41H 176.0(19) . . ?
N41G Pd24 N22D 173(3) . . ?
N22C Pd24 N22D 94.9(16) . . ?
N41H Pd24 N22D 81.3(18) . . ?
N41J Pd25 N21E 80.4(18) . . ?
N41J Pd25 N22H 177(2) . . ?
N21E Pd25 N22H 97.4(17) . . ?
N41J Pd25 N41I 97.8(18) . . ?
N21E Pd25 N41I 177(3) . . ?
N22H Pd25 N41I 84.3(18) . . ?
N22E Pd26 N41L 176(2) . . ?
N22E Pd26 N21F 96.4(17) . . ?
N41L Pd26 N21F 86.7(18) . . ?
N22E Pd26 N41K 81.8(18) . . ?
N41L Pd26 N41K 94.8(19) . . ?
N21F Pd26 N41K 174(3) . . ?
N22F Pd27 N41M 84.2(19) . . ?
N22F Pd27 N21G 93.1(18) . . ?
N41M Pd27 N21G 177(2) . . ?
N22F Pd27 N41N 176(2) . . ?
N41M Pd27 N41N 94(2) . . ?
N21G Pd27 N41N 88.6(18) . . ?
N22F Pd27 F44G 70(3) . 1_545 ?
N41M Pd27 F44G 101(4) . 1_545 ?
N21G Pd27 F44G 78(4) . 1_545 ?
N41N Pd27 F44G 107(3) . 1_545 ?
N41P Pd28 N22G 177(3) . . ?
N41P Pd28 N21H 83(2) . . ?
N22G Pd28 N21H 94.8(17) . . ?
N41P Pd28 N41O 97(2) . . ?
N22G Pd28 N41O 85(2) . . ?
N21H Pd28 N41O 179(4) . . ?
N41R Pd29 N21I 81.0(19) . . ?
N41R Pd29 N22L 179(3) . . ?
N21I Pd29 N22L 99.1(19) . . ?
N41R Pd29 N41Q 98.0(18) . . ?
N21I Pd29 N41Q 178(2) . . ?
N22L Pd29 N41Q 81.9(19) . . ?
N41T Pd30 N22I 177(3) . . ?
N41T Pd30 N41S 97.6(19) . . ?
N22I Pd30 N41S 83(2) . . ?
N41T Pd30 N21J 83.4(17) . . ?
N22I Pd30 N21J 95.7(17) . . ?
N41S Pd30 N21J 178(3) . . ?
N41V Pd31 N21K 88.7(18) . . ?
N41V Pd31 N41U 95.8(19) . . ?
N21K Pd31 N41U 175(2) . . ?
N41V Pd31 N22J 174(3) . . ?
N21K Pd31 N22J 94.5(16) . . ?
N41U Pd31 N22J 81.1(18) . . ?
N22K Pd32 N41X 177.5(19) . . ?
N22K Pd32 N41W 81.8(19) . . ?
N41X Pd32 N41W 96(2) . . ?
N22K Pd32 N21L 91.6(18) . . ?
N41X Pd32 N21L 90.8(18) . . ?
N41W Pd32 N21L 173(2) . . ?
C1D N1D C5D 120.0 . . ?
C1D N1D Pd1 126.4(18) . . ?
C5D N1D Pd1 113.5(18) . . ?
N1D C1D C2D 120.0 . . ?
C3D C2D C1D 120.0 . . ?
C2D C3D C4D 120.0 . . ?
C2D C3D N4D 110(3) . . ?
C4D C3D N4D 126(3) . . ?
C5D C4D C3D 120.0 . . ?
C4D C5D N1D 120.0 . . ?
C10D N2D C6D 120.0 . . ?
C10D N2D Pd4 116.0(17) . . ?
C6D N2D Pd4 124.0(17) . . ?
C7D C6D N2D 120.0 . . ?
C6D C7D C8D 120.0 . . ?
C9D C8D C7D 120.0 . . ?
C9D C8D C13D 129(3) . . ?
C7D C8D C13D 111(3) . . ?
C8D C9D C10D 120.0 . . ?
C9D C10D N2D 120.0 . . ?
C13D N3D N4D 103(2) . . ?
N3D N4D C11D 113(3) . . ?
N3D N4D C3D 121(4) . . ?
C11D N4D C3D 123(4) . . ?
N4D C11D C12D 106(4) . . ?
C11D C12D C13D 103(4) . . ?
N3D C13D C8D 126(4) . . ?
N3D C13D C12D 114(3) . . ?
C8D C13D C12D 119(4) . . ?
C1E N1E C5E 120.0 . . ?
C1E N1E Pd4 121.3(16) . . ?
C5E N1E Pd4 118.7(16) . . ?
N1E C1E C2E 120.0 . . ?
C3E C2E C1E 120.0 . . ?
C2E C3E C4E 120.0 . . ?
C2E C3E N4E 117(3) . . ?
C4E C3E N4E 121(3) . . ?
C5E C4E C3E 120.0 . . ?
C4E C5E N1E 120.0 . . ?
C6E N2E C10E 120.0 . . ?
C6E N2E Pd5 124.8(17) . . ?
C10E N2E Pd5 115.2(17) . . ?
N2E C6E C7E 120.0 . . ?
C6E C7E C8E 120.0 . . ?
C9E C8E C7E 120.0 . . ?
C9E C8E C13E 126(3) . . ?
C7E C8E C13E 112(3) . . ?
C8E C9E C10E 120.0 . . ?
C9E C10E N2E 120.0 . . ?
C13E N3E N4E 104(2) . . ?
N3E N4E C11E 112(3) . . ?
N3E N4E C3E 122(4) . . ?
C11E N4E C3E 126(4) . . ?
N4E C11E C12E 109(4) . . ?
C11E C12E C13E 102(4) . . ?
N3E C13E C8E 122(4) . . ?
N3E C13E C12E 114(3) . . ?
C8E C13E C12E 123(4) . . ?
C1F N1F C5F 120.0 . . ?
C1F N1F Pd5 123(2) . . ?
C5F N1F Pd5 117(2) . . ?
N1F C1F C2F 120.0 . . ?
C1F C2F C3F 120.0 . . ?
C4F C3F C2F 120.0 . . ?
C4F C3F N4F 124(4) . . ?
C2F C3F N4F 116(4) . . ?
C3F C4F C5F 120.0 . . ?
C4F C5F N1F 120.0 . . ?
C6F N2F C10F 120.0 . . ?
C6F N2F Pd6 122(2) . . ?
C10F N2F Pd6 118(2) . . ?
N2F C6F C7F 120.0 . . ?
C8F C7F C6F 120.0 . . ?
C7F C8F C9F 120.0 . . ?
C7F C8F C13F 113(3) . . ?
C9F C8F C13F 127(3) . . ?
C10F C9F C8F 120.0 . . ?
C9F C10F N2F 120.0 . . ?
C13F N3F N4F 99(2) . . ?
N3F N4F C11F 116(3) . . ?
N3F N4F C3F 120(5) . . ?
C11F N4F C3F 124(5) . . ?
N4F C11F C12F 106(4) . . ?
C11F C12F C13F 102(4) . . ?
N3F C13F C12F 117(3) . . ?
N3F C13F C8F 123(5) . . ?
C12F C13F C8F 118(5) . . ?
C1G N1G C5G 120.0 . . ?
C1G N1G Pd6 124.1(19) . . ?
C5G N1G Pd6 115.8(19) . . ?
C2G C1G N1G 120.0 . . ?
C1G C2G C3G 120.0 . . ?
C4G C3G C2G 120.0 . . ?
C4G C3G N4G 134(4) . . ?
C2G C3G N4G 105(4) . . ?
C3G C4G C5G 120.0 . . ?
C4G C5G N1G 120.0 . . ?
C6G N2G C10G 120.0 . . ?
C6G N2G Pd1 119.7(19) . . ?
C10G N2G Pd1 120.3(19) . . ?
C7G C6G N2G 120.0 . . ?
C6G C7G C8G 120.0 . . ?
C9G C8G C7G 120.0 . . ?
C9G C8G C13G 124(3) . . ?
C7G C8G C13G 116(3) . . ?
C10G C9G C8G 120.0 . . ?
C9G C10G N2G 120.0 . . ?
C13G N3G N4G 98(2) . . ?
N3G N4G C11G 116(3) . . ?
N3G N4G C3G 130(5) . . ?
C11G N4G C3G 113(5) . . ?
N4G C11G C12G 105(4) . . ?
C11G C12G C13G 102(4) . . ?
N3G C13G C12G 118(3) . . ?
N3G C13G C8G 119(5) . . ?
C12G C13G C8G 122(5) . . ?
C1I N1I C5I 120.0 . . ?
C1I N1I Pd7 121(2) . . ?
C5I N1I Pd7 119(2) . . ?
N1I C1I C2I 120.0 . . ?
C3I C2I C1I 120.0 . . ?
C4I C3I C2I 120.0 . . ?
C4I C3I N4I 123(4) . . ?
C2I C3I N4I 117(4) . . ?
C3I C4I C5I 120.0 . . ?
C4I C5I N1I 120.0 . . ?
C6I N2I C10I 120.0 . . ?
C6I N2I Pd2 116(2) . . ?
C10I N2I Pd2 124(2) . . ?
N2I C6I C7I 120.0 . . ?
C8I C7I C6I 120.0 . . ?
C7I C8I C9I 120.0 . . ?
C7I C8I C13I 123(3) . . ?
C9I C8I C13I 117(3) . . ?
C8I C9I C10I 120.0 . . ?
C9I C10I N2I 120.0 . . ?
C13I N3I N4I 97(2) . . ?
C11I N4I N3I 118(3) . . ?
C11I N4I C3I 123(5) . . ?
N3I N4I C3I 119(5) . . ?
N4I C11I C12I 105(4) . . ?
C11I C12I C13I 102(4) . . ?
N3I C13I C12I 117(3) . . ?
N3I C13I C8I 116(5) . . ?
C12I C13I C8I 126(5) . . ?
C1J N1J C5J 120.0 . . ?
C1J N1J Pd7 124(2) . . ?
C5J N1J Pd7 116(2) . . ?
C2J C1J N1J 120.0 . . ?
C3J C2J C1J 120.0 . . ?
C2J C3J C4J 120.0 . . ?
C2J C3J N4J 112(3) . . ?
C4J C3J N4J 127(3) . . ?
C3J C4J C5J 120.0 . . ?
N1J C5J C4J 120.0 . . ?
C6J N2J C10J 120.0 . . ?
C6J N2J Pd8 121.4(19) . . ?
C10J N2J Pd8 118.6(19) . . ?
N2J C6J C7J 120.0 . . ?
C6J C7J C8J 120.0 . . ?
C9J C8J C7J 120.0 . . ?
C9J C8J C13J 124(3) . . ?
C7J C8J C13J 116(3) . . ?
C8J C9J C10J 120.0 . . ?
C9J C10J N2J 120.0 . . ?
C13J N3J N4J 101(2) . . ?
N3J N4J C11J 110(3) . . ?
N3J N4J C3J 124(5) . . ?
C11J N4J C3J 125(5) . . ?
N4J C11J C12J 112(4) . . ?
C11J C12J C13J 97(4) . . ?
N3J C13J C12J 119(3) . . ?
N3J C13J C8J 121(5) . . ?
C12J C13J C8J 120(5) . . ?
C1K N1K C5K 120.0 . . ?
C1K N1K Pd8 120.3(18) . . ?
C5K N1K Pd8 119.6(18) . . ?
N1K C1K C2K 120.0 . . ?
C1K C2K C3K 120.0 . . ?
C4K C3K C2K 120.0 . . ?
C4K C3K N4K 121(3) . . ?
C2K C3K N4K 119(3) . . ?
C3K C4K C5K 120.0 . . ?
C4K C5K N1K 120.0 . . ?
C6K N2K C10K 120.0 . . ?
C6K N2K Pd9 118.0(18) . . ?
C10K N2K Pd9 121.9(18) . . ?
C7K C6K N2K 120.0 . . ?
C6K C7K C8K 120.0 . . ?
C9K C8K C7K 120.0 . . ?
C9K C8K C13K 121(3) . . ?
C7K C8K C13K 119(3) . . ?
C8K C9K C10K 120.0 . . ?
N2K C10K C9K 120.0 . . ?
C13K N3K N4K 100(2) . . ?
C11K N4K N3K 116(3) . . ?
C11K N4K C3K 127(4) . . ?
N3K N4K C3K 117(4) . . ?
N4K C11K C12K 106(4) . . ?
C11K C12K C13K 103(4) . . ?
N3K C13K C12K 116(3) . . ?
N3K C13K C8K 121(4) . . ?
C12K C13K C8K 123(4) . . ?
C1L N1L C5L 120.0 . . ?
C1L N1L Pd9 122.8(19) . . ?
C5L N1L Pd9 117.2(19) . . ?
C2L C1L N1L 120.0 . . ?
C1L C2L C3L 120.0 . . ?
C2L C3L C4L 120.0 . . ?
C2L C3L N4L 113(3) . . ?
C4L C3L N4L 127(3) . . ?
C5L C4L C3L 120.0 . . ?
C4L C5L N1L 120.0 . . ?
C6L N2L C10L 120.0 . . ?
C6L N2L Pd2 125.4(17) . . ?
C10L N2L Pd2 114.6(17) . . ?
N2L C6L C7L 120.0 . . ?
C6L C7L C8L 120.0 . . ?
C9L C8L C7L 120.0 . . ?
C9L C8L C13L 128(3) . . ?
C7L C8L C13L 111(3) . . ?
C8L C9L C10L 120.0 . . ?
C9L C10L N2L 120.0 . . ?
C13L N3L N4L 100(2) . . ?
N3L N4L C3L 123(5) . . ?
N3L N4L C11L 115(3) . . ?
C3L N4L C11L 121(5) . . ?
N4L C11L C12L 106(4) . . ?
C11L C12L C13L 102(4) . . ?
N3L C13L C12L 117(3) . . ?
N3L C13L C8L 122(4) . . ?
C12L C13L C8L 119(4) . . ?
C1N N1N C5N 120.0 . . ?
C1N N1N Pd10 120.3(17) . . ?
C5N N1N Pd10 119.6(17) . . ?
C2N C1N N1N 120.0 . . ?
C1N C2N C3N 120.0 . . ?
C4N C3N C2N 120.0 . . ?
C4N C3N N4N 120(3) . . ?
C2N C3N N4N 118(3) . . ?
C3N C4N C5N 120.0 . . ?
C4N C5N N1N 120.0 . . ?
C6N N2N C10N 120.0 . . ?
C6N N2N Pd3 121.8(17) . . ?
C10N N2N Pd3 118.1(17) . . ?
N2N C6N C7N 120.0 . . ?
C8N C7N C6N 120.0 . . ?
C7N C8N C9N 120.0 . . ?
C7N C8N C13N 116(3) . . ?
C9N C8N C13N 124(3) . . ?
C10N C9N C8N 120.0 . . ?
C9N C10N N2N 120.0 . . ?
C13N N3N N4N 103(2) . . ?
N3N N4N C11N 113(3) . . ?
N3N N4N C3N 120(4) . . ?
C11N N4N C3N 126(4) . . ?
N4N C11N C12N 107(4) . . ?
C11N C12N C13N 104(3) . . ?
N3N C13N C12N 114(3) . . ?
N3N C13N C8N 122(4) . . ?
C12N C13N C8N 124(4) . . ?
C1O N1O C5O 120.0 . . ?
C1O N1O Pd10 121.2(19) . . ?
C5O N1O Pd10 118.8(19) . . ?
C2O C1O N1O 120.0 . . ?
C3O C2O C1O 120.0 . . ?
C2O C3O C4O 120.0 . . ?
C2O C3O N4O 120(3) . . ?
C4O C3O N4O 120(3) . . ?
C3O C4O C5O 120.0 . . ?
C4O C5O N1O 120.0 . . ?
C6O N2O C10O 120.0 . . ?
C6O N2O Pd11 118(2) . . ?
C10O N2O Pd11 121(2) . . ?
C7O C6O N2O 120.0 . . ?
C6O C7O C8O 120.0 . . ?
C7O C8O C9O 120.0 . . ?
C7O C8O C13O 115(3) . . ?
C9O C8O C13O 125(3) . . ?
C10O C9O C8O 120.0 . . ?
C9O C10O N2O 120.0 . . ?
C13O N3O N4O 101(2) . . ?
C11O N4O C3O 128(5) . . ?
C11O N4O N3O 116(3) . . ?
C3O N4O N3O 116(4) . . ?
N4O C11O C12O 104(4) . . ?
C11O C12O C13O 106(4) . . ?
N3O C13O C12O 114(3) . . ?
N3O C13O C8O 125(5) . . ?
C12O C13O C8O 121(5) . . ?
C1P N1P C5P 120.0 . . ?
C1P N1P Pd11 120(2) . . ?
C5P N1P Pd11 119(2) . . ?
N1P C1P C2P 120.0 . . ?
C1P C2P C3P 120.0 . . ?
C4P C3P C2P 120.0 . . ?
C4P C3P N4P 120(4) . . ?
C2P C3P N4P 119(4) . . ?
C3P C4P C5P 120.0 . . ?
N1P C5P C4P 120.0 . . ?
C6P N2P C10P 120.0 . . ?
C6P N2P Pd12 120.8(19) . . ?
C10P N2P Pd12 119.1(19) . . ?
C7P C6P N2P 120.0 . . ?
C8P C7P C6P 120.0 . . ?
C9P C8P C7P 120.0 . . ?
C9P C8P C13P 123(3) . . ?
C7P C8P C13P 117(3) . . ?
C8P C9P C10P 120.0 . . ?
C9P C10P N2P 120.0 . . ?
C13P N3P N4P 101(2) . . ?
C11P N4P C3P 127(5) . . ?
C11P N4P N3P 115(3) . . ?
C3P N4P N3P 116(5) . . ?
N4P C11P C12P 105(4) . . ?
C11P C12P C13P 105(4) . . ?
N3P C13P C12P 113(3) . . ?
N3P C13P C8P 122(5) . . ?
C12P C13P C8P 124(5) . . ?
C1Q N1Q C5Q 120.0 . . ?
C1Q N1Q Pd12 124(2) . . ?
C5Q N1Q Pd12 115.8(19) . . ?
C2Q C1Q N1Q 120.0 . . ?
C1Q C2Q C3Q 120.0 . . ?
N4Q C3Q C4Q 127(3) . . ?
N4Q C3Q C2Q 113(3) . . ?
C4Q C3Q C2Q 120.0 . . ?
C3Q C4Q C5Q 120.0 . . ?
C4Q C5Q N1Q 120.0 . . ?
C6Q N2Q C10Q 120.0 . . ?
C6Q N2Q Pd3 123.3(19) . . ?
C10Q N2Q Pd3 116.7(19) . . ?
N2Q C6Q C7Q 120.0 . . ?
C8Q C7Q C6Q 120.0 . . ?
C9Q C8Q C7Q 120.0 . . ?
C9Q C8Q C13Q 126(3) . . ?
C7Q C8Q C13Q 114(3) . . ?
C8Q C9Q C10Q 120.0 . . ?
C9Q C10Q N2Q 120.0 . . ?
C13Q N3Q N4Q 101(2) . . ?
C3Q N4Q N3Q 123(5) . . ?
C3Q N4Q C11Q 121(4) . . ?
N3Q N4Q C11Q 116(3) . . ?
N4Q C11Q C12Q 104(4) . . ?
C11Q C12Q C13Q 105(4) . . ?
N3Q C13Q C8Q 122(4) . . ?
N3Q C13Q C12Q 114(3) . . ?
C8Q C13Q C12Q 124(4) . . ?
C1A N1A C5A 120.0 . . ?
C1A N1A Pd1 123(2) . . ?
C5A N1A Pd1 117(2) . . ?
C2A C1A N1A 120.0 . . ?
C3A C2A C1A 120.0 . . ?
C4A C3A C2A 120.0 . . ?
C4A C3A N4A 119(4) . . ?
C2A C3A N4A 120(4) . . ?
C3A C4A C5A 120.0 . . ?
C4A C5A N1A 120.0 . . ?
C6A N2A C10A 120.0 . . ?
C6A N2A Pd2 116(3) . . ?
C10A N2A Pd2 124(3) . . ?
C7A C6A N2A 120.0 . . ?
C6A C7A C8A 120.0 . . ?
C9A C8A C7A 120.0 . . ?
C9A C8A C13A 118(4) . . ?
C7A C8A C13A 122(4) . . ?
C10A C9A C8A 120.0 . . ?
C9A C10A N2A 120.0 . . ?
C13A N3A N4A 103(3) . . ?
C11A N4A N3A 108(4) . . ?
C11A N4A C3A 136(5) . . ?
N3A N4A C3A 114(5) . . ?
N4A C11A C12A 115(4) . . ?
C11A C12A C13A 97(4) . . ?
N3A C13A C12A 118(3) . . ?
N3A C13A C8A 122(5) . . ?
C12A C13A C8A 119(5) . . ?
C1B N1B C5B 120.0 . . ?
C1B N1B Pd2 116(3) . . ?
C5B N1B Pd2 124(3) . . ?
N1B C1B C2B 120.0 . . ?
C3B C2B C1B 120.0 . . ?
C2B C3B C4B 120.0 . . ?
C2B C3B N4B 128(5) . . ?
C4B C3B N4B 111(5) . . ?
C5B C4B C3B 120.0 . . ?
C4B C5B N1B 120.0 . . ?
C6B N2B C10B 120.0 . . ?
C6B N2B Pd3 116(3) . . ?
C10B N2B Pd3 124(3) . . ?
C7B C6B N2B 120.0 . . ?
C6B C7B C8B 120.0 . . ?
C9B C8B C7B 120.0 . . ?
C9B C8B C13B 108(5) . . ?
C7B C8B C13B 132(5) . . ?
C8B C9B C10B 120.0 . . ?
C9B C10B N2B 120.0 . . ?
C13B N3B N4B 108(3) . . ?
N3B N4B C11B 110(4) . . ?
N3B N4B C3B 115(6) . . ?
C11B N4B C3B 131(6) . . ?
N4B C11B C12B 107(5) . . ?
C11B C12B C13B 106(5) . . ?
N3B C13B C12B 109(4) . . ?
N3B C13B C8B 113(6) . . ?
C12B C13B C8B 136(7) . . ?
C1C N1C C5C 120.0 . . ?
C1C N1C Pd3 125(3) . . ?
C5C N1C Pd3 114(3) . . ?
C2C C1C N1C 120.0 . . ?
C1C C2C C3C 120.0 . . ?
C2C C3C C4C 120.0 . . ?
C2C C3C N4C 114(4) . . ?
C4C C3C N4C 126(4) . . ?
C5C C4C C3C 120.0 . . ?
C4C C5C N1C 120.0 . . ?
C6C N2C C10C 120.0 . . ?
C6C N2C Pd1 123(3) . . ?
C10C N2C Pd1 117(3) . . ?
C7C C6C N2C 120.0 . . ?
C6C C7C C8C 120.0 . . ?
C7C C8C C9C 120.0 . . ?
C7C C8C C13C 124(4) . . ?
C9C C8C C13C 116(4) . . ?
C10C C9C C8C 120.0 . . ?
C9C C10C N2C 120.0 . . ?
C13C N3C N4C 103(3) . . ?
N3C N4C C11C 111(4) . . ?
N3C N4C C3C 126(6) . . ?
C11C N4C C3C 121(6) . . ?
C12C C11C N4C 110(5) . . ?
C11C C12C C13C 101(5) . . ?
N3C C13C C12C 115(4) . . ?
N3C C13C C8C 112(6) . . ?
C12C C13C C8C 133(6) . . ?
C1H N1H C5H 120.0 . . ?
C1H N1H Pd6 114(3) . . ?
C5H N1H Pd6 126(3) . . ?
N1H C1H C2H 120.0 . . ?
C3H C2H C1H 120.0 . . ?
C2H C3H C4H 120.0 . . ?
C2H C3H N4H 131(5) . . ?
C4H C3H N4H 109(5) . . ?
C5H C4H C3H 120.0 . . ?
C4H C5H N1H 120.0 . . ?
C6H N2H C10H 120.0 . . ?
C6H N2H Pd7 116(3) . . ?
C10H N2H Pd7 124(3) . . ?
C7H C6H N2H 120.0 . . ?
C6H C7H C8H 120.0 . . ?
C9H C8H C7H 120.0 . . ?
C9H C8H C13H 111(5) . . ?
C7H C8H C13H 129(5) . . ?
C10H C9H C8H 120.0 . . ?
C9H C10H N2H 120.0 . . ?
C13H N3H N4H 109(4) . . ?
C11H N4H N3H 111(4) . . ?
C11H N4H C3H 131(7) . . ?
N3H N4H C3H 115(6) . . ?
N4H C11H C12H 104(5) . . ?
C11H C12H C13H 111(5) . . ?
N3H C13H C12H 105(4) . . ?
N3H C13H C8H 114(6) . . ?
C12H C13H C8H 139(7) . . ?
C1M N1M C5M 120.0 . . ?
C1M N1M Pd9 110(3) . . ?
C5M N1M Pd9 130(3) . . ?
C2M C1M N1M 120.0 . . ?
C1M C2M C3M 120.0 . . ?
C2M C3M C4M 120.0 . . ?
C2M C3M N4M 130(4) . . ?
C4M C3M N4M 109(4) . . ?
C5M C4M C3M 120.0 . . ?
C4M C5M N1M 120.0 . . ?
C6M N2M C10M 120.0 . . ?
C6M N2M Pd10 120(3) . . ?
C10M N2M Pd10 120(3) . . ?
N2M C6M C7M 120.0 . . ?
C8M C7M C6M 120.0 . . ?
C7M C8M C9M 120.0 . . ?
C7M C8M C13M 114(5) . . ?
C9M C8M C13M 126(5) . . ?
C10M C9M C8M 120.0 . . ?
C9M C10M N2M 120.0 . . ?
C13M N3M N4M 101(3) . . ?
N3M N4M C11M 114(3) . . ?
N3M N4M C3M 113(6) . . ?
C11M N4M C3M 131(6) . . ?
C12M C11M N4M 107(3) . . ?
C11M C12M C13M 102(3) . . ?
N3M C13M C12M 116(3) . . ?
N3M C13M C8M 124(6) . . ?
C12M C13M C8M 119(6) . . ?
C1R N1R C5R 120.0 . . ?
C1R N1R Pd12 118(3) . . ?
C5R N1R Pd12 122(3) . . ?
C2R C1R N1R 120.0 . . ?
C1R C2R C3R 120.0 . . ?
C4R C3R C2R 120.0 . . ?
C4R C3R N4R 120(5) . . ?
C2R C3R N4R 120(5) . . ?
C3R C4R C5R 120.0 . . ?
C4R C5R N1R 120.0 . . ?
C6R N2R C10R 120.0 . . ?
C6R N2R Pd4 119(3) . . ?
C10R N2R Pd4 121(3) . . ?
C7R C6R N2R 120.0 . . ?
C8R C7R C6R 120.0 . . ?
C7R C8R C9R 120.0 . . ?
C7R C8R C13R 124(4) . . ?
C9R C8R C13R 116(4) . . ?
C10R C9R C8R 120.0 . . ?
C9R C10R N2R 120.0 . . ?
C13R N3R N4R 100(3) . . ?
N3R N4R C11R 109(4) . . ?
N3R N4R C3R 120(5) . . ?
C11R N4R C3R 125(5) . . ?
N4R C11R C12R 115(5) . . ?
C11R C12R C13R 94(4) . . ?
N3R C13R C12R 121(4) . . ?
N3R C13R C8R 111(5) . . ?
C12R C13R C8R 127(5) . . ?
C1S N1S C5S 120.0 . . ?
C1S N1S Pd4 115(3) . . ?
C5S N1S Pd4 125(3) . . ?
C2S C1S N1S 120.0 . . ?
C1S C2S C3S 120.0 . . ?
C4S C3S C2S 120.0 . . ?
C4S C3S N4S 115(4) . . ?
C2S C3S N4S 124(4) . . ?
C3S C4S C5S 120.0 . . ?
C4S C5S N1S 120.0 . . ?
C6S N2S C10S 120.0 . . ?
C6S N2S Pd8 116(3) . 2_775 ?
C10S N2S Pd8 124(3) . 2_775 ?
N2S C6S C7S 120.0 . . ?
C8S C7S C6S 120.0 . . ?
C7S C8S C9S 120.0 . . ?
C7S C8S C13S 120(5) . . ?
C9S C8S C13S 120(5) . . ?
C10S C9S C8S 120.0 . . ?
C9S C10S N2S 120.0 . . ?
C13S N3S N4S 93(3) . . ?
N3S N4S C11S 121(4) . . ?
N3S N4S C3S 111(6) . . ?
C11S N4S C3S 124(6) . . ?
N3S N4S C13S 43.0(16) . . ?
C11S N4S C13S 78(4) . . ?
C3S N4S C13S 149(5) . . ?
N4S C11S C12S 105(5) . . ?
C11S C12S C13S 99(5) . . ?
N3S C13S C12S 123(4) . . ?
N3S C13S C8S 119(6) . . ?
C12S C13S C8S 118(6) . . ?
N3S C13S N4S 44.3(16) . . ?
C12S C13S N4S 78(3) . . ?
C8S C13S N4S 162(6) . . ?
C1T N1T C5T 120.0 . . ?
C1T N1T Pd5 123(3) . . ?
C5T N1T Pd5 117(3) . . ?
N1T C1T C2T 120.0 . . ?
C3T C2T C1T 120.0 . . ?
C4T C3T C2T 120.0 . . ?
C4T C3T N4T 121(5) . . ?
C2T C3T N4T 119(5) . . ?
C5T C4T C3T 120.0 . . ?
C4T C5T N1T 120.0 . . ?
C6T N2T C10T 120.0 . . ?
C6T N2T Pd9 112(3) . 2_775 ?
C10T N2T Pd9 128(3) . 2_775 ?
N2T C6T C7T 120.0 . . ?
C8T C7T C6T 120.0 . . ?
C7T C8T C9T 120.0 . . ?
C7T C8T C13T 129(5) . . ?
C9T C8T C13T 110(4) . . ?
C10T C9T C8T 120.0 . . ?
C9T C10T N2T 120.0 . . ?
C13T N3T N4T 102(3) . . ?
N3T N4T C11T 109(4) . . ?
N3T N4T C3T 118(6) . . ?
C11T N4T C3T 129(6) . . ?
N4T C11T C12T 113(6) . . ?
C11T C12T C13T 97(5) . . ?
N3T C13T C12T 118(4) . . ?
N3T C13T C8T 115(6) . . ?
C12T C13T C8T 126(6) . . ?
C1U N1U C5U 120.0 . . ?
C1U N1U Pd5 117(3) . . ?
C5U N1U Pd5 123(3) . . ?
N1U C1U C2U 120.0 . . ?
C3U C2U C1U 120.0 . . ?
C2U C3U C4U 120.0 . . ?
C2U C3U N4U 125(5) . . ?
C4U C3U N4U 115(5) . . ?
C3U C4U C5U 120.0 . . ?
C4U C5U N1U 120.0 . . ?
C6U N2U C10U 120.0 . . ?
C6U N2U Pd10 112(2) . 2_775 ?
C10U N2U Pd10 128(2) . 2_775 ?
C7U C6U N2U 120.0 . . ?
C8U C7U C6U 120.0 . . ?
C7U C8U C9U 120.0 . . ?
C7U C8U C13U 130(4) . . ?
C9U C8U C13U 110(4) . . ?
C10U C9U C8U 120.0 . . ?
C9U C10U N2U 120.0 . . ?
C13U N3U N4U 103(3) . . ?
N3U N4U C11U 115(4) . . ?
N3U N4U C3U 116(6) . . ?
C11U N4U C3U 127(6) . . ?
N4U C11U C12U 103(5) . . ?
C11U C12U C13U 107(5) . . ?
N3U C13U C12U 112(4) . . ?
N3U C13U C8U 112(5) . . ?
C12U C13U C8U 136(6) . . ?
C1V N1V C5V 120.0 . . ?
C1V N1V Pd6 123(3) . . ?
C5V N1V Pd6 117(3) . . ?
C2V C1V N1V 120.0 . . ?
C1V C2V C3V 120.0 . . ?
C4V C3V C2V 120.0 . . ?
C4V C3V N4V 120(5) . . ?
C2V C3V N4V 120(5) . . ?
C3V C4V C5V 120.0 . . ?
C4V C5V N1V 120.0 . . ?
C6V N2V C10V 120.0 . . ?
C6V N2V Pd11 120(3) . 2_775 ?
C10V N2V Pd11 120(3) . 2_775 ?
C7V C6V N2V 120.0 . . ?
C6V C7V C8V 120.0 . . ?
C9V C8V C7V 120.0 . . ?
C9V C8V C13V 121(5) . . ?
C7V C8V C13V 119(5) . . ?
C8V C9V C10V 120.0 . . ?
C9V C10V N2V 120.0 . . ?
C13V N3V N4V 101(3) . . ?
N3V N4V C11V 113(4) . . ?
N3V N4V C3V 117(6) . . ?
C11V N4V C3V 128(6) . . ?
C12V C11V N4V 108(5) . . ?
C11V C12V C13V 102(5) . . ?
N3V C13V C12V 115(4) . . ?
N3V C13V C8V 117(6) . . ?
C12V C13V C8V 127(6) . . ?
C1W N1W C5W 120.0 . . ?
C1W N1W Pd7 117(3) . . ?
C5W N1W Pd7 123(3) . . ?
C2W C1W N1W 120.0 . . ?
C1W C2W C3W 120.0 . . ?
C4W C3W C2W 120.0 . . ?
C4W C3W N4W 114(5) . . ?
C2W C3W N4W 125(5) . . ?
C3W C4W C5W 120.0 . . ?
C4W C5W N1W 120.0 . . ?
C6W N2W C10W 120.0 . . ?
C6W N2W Pd11 117(3) . 2_775 ?
C10W N2W Pd11 123(3) . 2_775 ?
C7W C6W N2W 120.0 . . ?
C6W C7W C8W 120.0 . . ?
C7W C8W C9W 120.0 . . ?
C7W C8W C13W 123(5) . . ?
C9W C8W C13W 117(5) . . ?
C10W C9W C8W 120.0 . . ?
C9W C10W N2W 120.0 . . ?
C13W N3W N4W 104(3) . . ?
N3W N4W C11W 111(4) . . ?
N3W N4W C3W 115(6) . . ?
C11W N4W C3W 130(6) . . ?
N4W C11W C12W 108(5) . . ?
C11W C12W C13W 103(5) . . ?
N3W C13W C12W 113(4) . . ?
N3W C13W C8W 119(7) . . ?
C12W C13W C8W 128(7) . . ?
C1X N1X C5X 120.0 . . ?
C1X N1X Pd8 119(3) . . ?
C5X N1X Pd8 121(3) . . ?
N1X C1X C2X 120.0 . . ?
C3X C2X C1X 120.0 . . ?
C2X C3X C4X 120.0 . . ?
C2X C3X N4X 120(5) . . ?
C4X C3X N4X 120(5) . . ?
C3X C4X C5X 120.0 . . ?
C4X C5X N1X 120.0 . . ?
C6X N2X C10X 120.0 . . ?
C6X N2X Pd12 125(2) . 2_775 ?
C10X N2X Pd12 115(2) . 2_775 ?
C7X C6X N2X 120.0 . . ?
C6X C7X C8X 120.0 . . ?
C9X C8X C7X 120.0 . . ?
C9X C8X C13X 123(4) . . ?
C7X C8X C13X 116(4) . . ?
C8X C9X C10X 120.0 . . ?
C9X C10X N2X 120.0 . . ?
C13X N3X N4X 104(3) . . ?
C11X N4X N3X 113(4) . . ?
C11X N4X C3X 126(6) . . ?
N3X N4X C3X 121(6) . . ?
N4X C11X C12X 105(5) . . ?
C11X C12X C13X 107(5) . . ?
N3X C13X C12X 111(4) . . ?
N3X C13X C8X 119(6) . . ?
C12X C13X C8X 128(6) . . ?
C21A N21A C25A 120.00(6) . . ?
C21A N21A Pd21 128(4) . . ?
C25A N21A Pd21 112(4) . . ?
N21A C21A C22A 120.0 . . ?
C23A C22A C21A 120.0 . . ?
C22A C23A C24A 120.00(7) . . ?
C22A C23A N24A 102(6) . . ?
C24A C23A N24A 129(6) . . ?
C25A C24A C23A 120.0 . . ?
C24A C25A N21A 120.0 . . ?
C26A N22A C30A 120.00(6) . . ?
C26A N22A Pd22 125(4) . . ?
C30A N22A Pd22 115(4) . . ?
C27A C26A N22A 120.0 . . ?
C26A C27A C28A 120.0 . . ?
C29A C28A C27A 120.00(7) . . ?
C29A C28A C33A 131(6) . . ?
C27A C28A C33A 109(6) . . ?
C28A C29A C30A 120.0 . . ?
C29A C30A N22A 120.0 . . ?
C33A N23A N24A 117(5) . . ?
N23A N24A C31A 103(6) . . ?
N23A N24A C23A 125(6) . . ?
C31A N24A C23A 122(7) . . ?
N24A C31A C32A 110(8) . . ?
C31A C32A C33A 108(7) . . ?
N23A C33A C32A 102(6) . . ?
N23A C33A C28A 131(8) . . ?
C32A C33A C28A 126(8) . . ?
C21B N21B C25B 120.0 . . ?
C21B N21B Pd22 124(4) . . ?
C25B N21B Pd22 116(4) . . ?
C22B C21B N21B 120.0 . . ?
C21B C22B C23B 120.0 . . ?
C22B C23B C24B 120.0 . . ?
C22B C23B N24B 113(7) . . ?
C24B C23B N24B 126(7) . . ?
C25B C24B C23B 120.0 . . ?
C24B C25B N21B 120.0 . . ?
C26B N22B C30B 120.0 . . ?
C26B N22B Pd23 123(4) . . ?
C30B N22B Pd23 117(4) . . ?
N22B C26B C27B 120.0 . . ?
C26B C27B C28B 120.0 . . ?
C29B C28B C27B 120.0 . . ?
C29B C28B C33B 118(6) . . ?
C27B C28B C33B 117(6) . . ?
C30B C29B C28B 120.0 . . ?
C29B C30B N22B 120.0 . . ?
C33B N23B N24B 98(4) . . ?
N23B N24B C31B 120(6) . . ?
N23B N24B C23B 121(8) . . ?
C31B N24B C23B 118(8) . . ?
C32B C31B N24B 100(7) . . ?
C31B C32B C33B 107(8) . . ?
N23B C33B C32B 114(6) . . ?
N23B C33B C28B 114(7) . . ?
C32B C33B C28B 131(8) . . ?
C21C N21C C25C 120.0 . . ?
C21C N21C Pd23 119(4) . . ?
C25C N21C Pd23 121(4) . . ?
N21C C21C C22C 120.0 . . ?
C23C C22C C21C 120.0 . . ?
C22C C23C C24C 120.0 . . ?
C22C C23C N24C 118(6) . . ?
C24C C23C N24C 119(6) . . ?
C23C C24C C25C 120.0 . . ?
C24C C25C N21C 120.0 . . ?
C26C N22C C30C 120.00(8) . . ?
C26C N22C Pd24 121(4) . . ?
C30C N22C Pd24 118(4) . . ?
C27C C26C N22C 120.0 . . ?
C28C C27C C26C 120.0 . . ?
C29C C28C C27C 120.00(9) . . ?
C29C C28C C33C 114(6) . . ?
C27C C28C C33C 118(6) . . ?
C28C C29C C30C 120.0 . . ?
C29C C30C N22C 120.0 . . ?
C33C N23C N24C 109(5) . . ?
N23C N24C C31C 108(6) . . ?
N23C N24C C23C 121(7) . . ?
C31C N24C C23C 129(7) . . ?
N24C C31C C32C 110(7) . . ?
C31C C32C C33C 104(7) . . ?
N23C C33C C32C 110(6) . . ?
N23C C33C C28C 119(7) . . ?
C32C C33C C28C 128(7) . . ?
C21D N21D C25D 120.0 . . ?
C21D N21D Pd21 127(4) . . ?
C25D N21D Pd21 113(4) . . ?
C22D C21D N21D 120.0 . . ?
C21D C22D C23D 120.0 . . ?
C24D C23D C22D 120.0 . . ?
C24D C23D N24D 133(7) . . ?
C22D C23D N24D 107(7) . . ?
C23D C24D C25D 120.0 . . ?
C24D C25D N21D 120.0 . . ?
C26D N22D C30D 120.0 . . ?
C26D N22D Pd24 129(5) . . ?
C30D N22D Pd24 110(5) . . ?
C27D C26D N22D 120.0 . . ?
C28D C27D C26D 120.0 . . ?
C27D C28D C29D 120.0 . . ?
C27D C28D C33D 105(7) . . ?
C29D C28D C33D 126(7) . . ?
C28D C29D C30D 120.0 . . ?
C29D C30D N22D 120.0 . . ?
C33D N23D N24D 103(5) . . ?
N23D N24D C31D 112(6) . . ?
N23D N24D C23D 128(8) . . ?
C31D N24D C23D 119(8) . . ?
C32D C31D N24D 108(8) . . ?
C31D C32D C33D 101(8) . . ?
N23D C33D C32D 115(7) . . ?
N23D C33D C28D 118(8) . . ?
C32D C33D C28D 121(8) . . ?
C21E N21E C25E 120.0 . . ?
C21E N21E Pd25 122(5) . . ?
C25E N21E Pd25 117(4) . . ?
C22E C21E N21E 120.0 . . ?
C21E C22E C23E 120.0 . . ?
C22E C23E C24E 120.0 . . ?
C22E C23E N24E 114(7) . . ?
C24E C23E N24E 116(7) . . ?
C23E C24E C25E 120.0 . . ?
C24E C25E N21E 120.0 . . ?
C26E N22E C30E 120.0 . . ?
C26E N22E Pd26 122(5) . . ?
C30E N22E Pd26 118(5) . . ?
N22E C26E C27E 120.0 . . ?
C28E C27E C26E 120.0 . . ?
C27E C28E C29E 120.0 . . ?
C27E C28E C33E 108(7) . . ?
C29E C28E C33E 129(7) . . ?
C28E C29E C30E 120.0 . . ?
C29E C30E N22E 120.0 . . ?
C33E N23E N24E 115(5) . . ?
N23E N24E C31E 109(6) . . ?
N23E N24E C23E 119(7) . . ?
C31E N24E C23E 127(8) . . ?
N24E C31E C32E 101(8) . . ?
C31E C32E C33E 116(8) . . ?
N23E C33E C32E 98(6) . . ?
N23E C33E C28E 135(9) . . ?
C32E C33E C28E 125(8) . . ?
C21F N21F C25F 120.00(6) . . ?
C21F N21F Pd26 135(4) . . ?
C25F N21F Pd26 105(4) . . ?
C22F C21F N21F 120.0 . . ?
C21F C22F C23F 120.00(7) . . ?
C24F C23F C22F 120.00(7) . . ?
C24F C23F N24F 135(7) . . ?
C22F C23F N24F 104(7) . . ?
C23F C24F C25F 120.0 . . ?
C24F C25F N21F 120.0 . . ?
C26F N22F C30F 120.00(6) . . ?
C26F N22F Pd27 123(4) . . ?
C30F N22F Pd27 117(4) . . ?
C27F C26F N22F 120.0 . . ?
C26F C27F C28F 120.0 . . ?
C29F C28F C27F 120.00(7) . . ?
C29F C28F C33F 126(6) . . ?
C27F C28F C33F 110(6) . . ?
C28F C29F C30F 120.0 . . ?
C29F C30F N22F 120.0 . . ?
C33F N23F N24F 107(5) . . ?
N23F N24F C31F 109(6) . . ?
N23F N24F C23F 130(8) . . ?
C31F N24F C23F 120(8) . . ?
C32F C31F N24F 109(8) . . ?
C31F C32F C33F 103(7) . . ?
N23F C33F C32F 112(6) . . ?
N23F C33F C28F 123(8) . . ?
C32F C33F C28F 125(8) . . ?
C21G N21G C25G 120.0 . . ?
C21G N21G Pd27 120(4) . . ?
C25G N21G Pd27 120(4) . . ?
C22G C21G N21G 120.0 . . ?
C21G C22G C23G 120.0 . . ?
C24G C23G C22G 120.0 . . ?
C24G C23G N24G 126(6) . . ?
C22G C23G N24G 111(6) . . ?
C25G C24G C23G 120.0 . . ?
C24G C25G N21G 120.0 . . ?
C26G N22G C30G 120.0 . . ?
C26G N22G Pd28 122(4) . . ?
C30G N22G Pd28 118(4) . . ?
C27G C26G N22G 120.0 . . ?
C26G C27G C28G 120.0 . . ?
C27G C28G C29G 120.0 . . ?
C27G C28G C33G 110(6) . . ?
C29G C28G C33G 127(6) . . ?
C30G C29G C28G 120.0 . . ?
C29G C30G N22G 120.0 . . ?
C33G N23G N24G 102(4) . . ?
N23G N24G C31G 115(6) . . ?
N23G N24G C23G 123(7) . . ?
C31G N24G C23G 121(7) . . ?
C32G C31G N24G 106(7) . . ?
C31G C32G C33G 104(7) . . ?
N23G C33G C32G 114(6) . . ?
N23G C33G C28G 123(7) . . ?
C32G C33G C28G 121(7) . . ?
C21H N21H C25H 120.0 . . ?
C21H N21H Pd28 120(4) . . ?
C25H N21H Pd28 120(4) . . ?
N21H C21H C22H 120.0 . . ?
C23H C22H C21H 120.0 . . ?
C22H C23H C24H 120.0 . . ?
C22H C23H N24H 118(6) . . ?
C24H C23H N24H 120(6) . . ?
C25H C24H C23H 120.0 . . ?
C24H C25H N21H 120.0 . . ?
C26H N22H C30H 120.00(8) . . ?
C26H N22H Pd25 119(5) . . ?
C30H N22H Pd25 120(5) . . ?
N22H C26H C27H 120.0 . . ?
C28H C27H C26H 120.0 . . ?
C29H C28H C27H 120.00(10) . . ?
C29H C28H C33H 121(7) . . ?
C27H C28H C33H 113(7) . . ?
C30H C29H C28H 120.0 . . ?
C29H C30H N22H 120.0 . . ?
C33H N23H N24H 104(5) . . ?
N23H N24H C31H 118(6) . . ?
N23H N24H C23H 118(8) . . ?
C31H N24H C23H 124(8) . . ?
N24H C31H C32H 98(7) . . ?
C31H C32H C33H 112(7) . . ?
N23H C33H C32H 107(6) . . ?
N23H C33H C28H 120(8) . . ?
C32H C33H C28H 131(8) . . ?
C21I N21I C25I 120.0 . . ?
C21I N21I Pd29 125(4) . . ?
C25I N21I Pd29 114(4) . . ?
C22I C21I N21I 120.0 . . ?
C23I C22I C21I 120.0 . . ?
C22I C23I C24I 120.0 . . ?
C22I C23I N24I 105(7) . . ?
C24I C23I N24I 133(7) . . ?
C23I C24I C25I 120.0 . . ?
C24I C25I N21I 120.0 . . ?
C26I N22I C30I 120.0 . . ?
C26I N22I Pd30 126(4) . . ?
C30I N22I Pd30 114(4) . . ?
N22I C26I C27I 120.0 . . ?
C28I C27I C26I 120.0 . . ?
C27I C28I C29I 120.0 . . ?
C27I C28I C33I 106(7) . . ?
C29I C28I C33I 130(7) . . ?
C30I C29I C28I 120.0 . . ?
C29I C30I N22I 120.0 . . ?
C33I N23I N24I 108(5) . . ?
N23I N24I C31I 111(7) . . ?
N23I N24I C23I 135(9) . . ?
C31I N24I C23I 113(8) . . ?
N24I C31I C32I 106(9) . . ?
C31I C32I C33I 108(9) . . ?
N23I C33I C32I 108(7) . . ?
N23I C33I C28I 126(9) . . ?
C32I C33I C28I 123(9) . . ?
C21J N21J C25J 120.0 . . ?
C21J N21J Pd30 121(4) . . ?
C25J N21J Pd30 118(4) . . ?
N21J C21J C22J 120.0 . . ?
C23J C22J C21J 120.0 . . ?
C22J C23J C24J 120.0 . . ?
C22J C23J N24J 113(6) . . ?
C24J C23J N24J 120(6) . . ?
C23J C24J C25J 120.0 . . ?
C24J C25J N21J 120.0 . . ?
C30J N22J C26J 120.0 . . ?
C30J N22J Pd31 122(4) . . ?
C26J N22J Pd31 117(4) . . ?
C27J C26J N22J 120.0 . . ?
C28J C27J C26J 120.0 . . ?
C29J C28J C27J 120.0 . . ?
C29J C28J C33J 111(5) . . ?
C27J C28J C33J 120(5) . . ?
C28J C29J C30J 120.0 . . ?
C29J C30J N22J 120.0 . . ?
C33J N23J N24J 112(5) . . ?
N23J N24J C31J 102(6) . . ?
N23J N24J C23J 123(7) . . ?
C31J N24J C23J 130(7) . . ?
N24J C31J C32J 116(7) . . ?
C31J C32J C33J 100(7) . . ?
N23J C33J C32J 110(6) . . ?
N23J C33J C28J 119(7) . . ?
C32J C33J C28J 127(7) . . ?
C21K N21K C25K 120.00(6) . . ?
C21K N21K Pd31 117(4) . . ?
C25K N21K Pd31 123(5) . . ?
C22K C21K N21K 120.0 . . ?
C23K C22K C21K 120.0 . . ?
C22K C23K C24K 120.00(7) . . ?
C22K C23K N24K 118(7) . . ?
C24K C23K N24K 114(7) . . ?
C25K C24K C23K 120.0 . . ?
C24K C25K N21K 120.0 . . ?
C26K N22K C30K 120.00(6) . . ?
C26K N22K Pd32 124(4) . . ?
C30K N22K Pd32 115(4) . . ?
C27K C26K N22K 120.0 . . ?
C26K C27K C28K 120.0 . . ?
C29K C28K C27K 120.00(7) . . ?
C29K C28K C33K 131(6) . . ?
C27K C28K C33K 103(7) . . ?
C28K C29K C30K 120.0 . . ?
C29K C30K N22K 120.0 . . ?
C33K N23K N24K 114(5) . . ?
N23K N24K C31K 106(6) . . ?
N23K N24K C23K 120(7) . . ?
C31K N24K C23K 130(8) . . ?
N24K C31K C32K 107(8) . . ?
C31K C32K C33K 109(8) . . ?
N23K C33K C32K 103(6) . . ?
N23K C33K C28K 133(8) . . ?
C32K C33K C28K 118(7) . . ?
C21L N21L C25L 120.0 . . ?
C21L N21L Pd32 126(3) . . ?
C25L N21L Pd32 113(3) . . ?
N21L C21L C22L 120.0 . . ?
C23L C22L C21L 120.0 . . ?
C22L C23L C24L 120.0 . . ?
C22L C23L N24L 107(6) . . ?
C24L C23L N24L 133(6) . . ?
C25L C24L C23L 120.0 . . ?
C24L C25L N21L 120.0 . . ?
C26L N22L C30L 120.0 . . ?
C26L N22L Pd29 123(4) . . ?
C30L N22L Pd29 116(4) . . ?
N22L C26L C27L 120.0 . . ?
C26L C27L C28L 120.0 . . ?
C29L C28L C27L 120.0 . . ?
C29L C28L C33L 126(6) . . ?
C27L C28L C33L 113(6) . . ?
C28L C29L C30L 120.0 . . ?
C29L C30L N22L 120.0 . . ?
C33L N23L N24L 101(4) . . ?
N23L N24L C31L 114(5) . . ?
N23L N24L C23L 129(6) . . ?
C31L N24L C23L 117(6) . . ?
N24L C31L C32L 107(6) . . ?
C31L C32L C33L 101(6) . . ?
N23L C33L C32L 117(5) . . ?
N23L C33L C28L 118(6) . . ?
C32L C33L C28L 125(6) . . ?
C41A N41A C45A 120.0 . . ?
C41A N41A Pd21 121(5) . . ?
C45A N41A Pd21 118(5) . . ?
C42A C41A N41A 120.0 . . ?
C41A C42A C43A 120.0 . . ?
C44A C43A C42A 120.0 . . ?
C44A C43A N44A 127(8) . . ?
C42A C43A N44A 109(8) . . ?
C43A C44A C45A 120.0 . . ?
C44A C45A N41A 120.0 . . ?
C46A N42A C50A 120.0 . . ?
C46A N42A Pd3 111(4) . . ?
C50A N42A Pd3 129(4) . . ?
N42A C46A C47A 120.0 . . ?
C48A C47A C46A 120.0 . . ?
C47A C48A C49A 120.0 . . ?
C47A C48A C53A 132(6) . . ?
C49A C48A C53A 108(6) . . ?
C50A C49A C48A 120.0 . . ?
C49A C50A N42A 120.0 . . ?
C53A N43A N44A 116(6) . . ?
N43A N44A C51A 99(8) . . ?
N43A N44A C43A 122(9) . . ?
C51A N44A C43A 125(9) . . ?
C52A C51A N44A 116(10) . . ?
C51A C52A C53A 102(9) . . ?
N43A C53A C52A 107(7) . . ?
N43A C53A C48A 112(8) . . ?
C52A C53A C48A 137(9) . . ?
C41B N41B C45B 120.0 . . ?
C41B N41B Pd21 122(6) . . ?
C45B N41B Pd21 118(6) . . ?
C42B C41B N41B 120.0 . . ?
C43B C42B C41B 120.0 . . ?
C44B C43B C42B 120.0 . . ?
C44B C43B N44B 117(9) . . ?
C42B C43B N44B 119(9) . . ?
C45B C44B C43B 120.0 . . ?
C44B C45B N41B 120.0 . . ?
C46B N42B C50B 120.0 . . ?
C46B N42B Pd12 122(7) . . ?
C50B N42B Pd12 118(7) . . ?
C47B C46B N42B 120.0 . . ?
C48B C47B C46B 120.0 . . ?
C49B C48B C47B 120.0 . . ?
C49B C48B C53B 115(10) . . ?
C47B C48B C53B 125(10) . . ?
C48B C49B C50B 120.0 . . ?
C49B C50B N42B 120.0 . . ?
C53B N43B N44B 116(8) . . ?
N43B N44B C51B 102(9) . . ?
N43B N44B C43B 107(10) . . ?
C51B N44B C43B 134(10) . . ?
C52B C51B N44B 111(10) . . ?
C51B C52B C53B 106(10) . . ?
N43B C53B C52B 104(9) . . ?
N43B C53B C48B 121(10) . . ?
C52B C53B C48B 129(10) . . ?
C41C N41C C45C 120.0 . . ?
C41C N41C Pd22 131(5) . . ?
C45C N41C Pd22 109(5) . . ?
C42C C41C N41C 120.0 . . ?
C43C C42C C41C 120.0 . . ?
C42C C43C C44C 120.0 . . ?
C42C C43C N44C 93(8) . . ?
C44C C43C N44C 147(8) . . ?
C45C C44C C43C 120.0 . . ?
C44C C45C N41C 120.0 . . ?
C46C N42C C50C 120.0 . . ?
C46C N42C Pd8 125(5) . 2_775 ?
C50C N42C Pd8 114(5) . 2_775 ?
C47C C46C N42C 120.0 . . ?
C46C C47C C48C 120.0 . . ?
C49C C48C C47C 120.0 . . ?
C49C C48C C53C 119(7) . . ?
C47C C48C C53C 121(7) . . ?
C50C C49C C48C 120.0 . . ?
C49C C50C N42C 120.0 . . ?
C53C N43C N44C 122(7) . . ?
N43C N44C C51C 98(9) . . ?
N43C N44C C43C 157(10) . . ?
C51C N44C C43C 103(9) . . ?
N44C C51C C52C 112(10) . . ?
C51C C52C C53C 109(10) . . ?
N43C C53C C52C 98(7) . . ?
N43C C53C C48C 109(7) . . ?
C52C C53C C48C 148(9) . . ?
C41D N41D C45D 120.00(7) . . ?
C41D N41D Pd22 119(5) . . ?
C45D N41D Pd22 121(4) . . ?
N41D C41D C42D 120.0 . . ?
C41D C42D C43D 120.0 . . ?
C44D C43D C42D 120.00(7) . . ?
C44D C43D N44D 127(7) . . ?
C42D C43D N44D 110(7) . . ?
C43D C44D C45D 120.0 . . ?
C44D C45D N41D 120.0 . . ?
C46D N42D C50D 120.0 . . ?
C46D N42D Pd9 129(5) . 2_775 ?
C50D N42D Pd9 110(5) . 2_775 ?
N42D C46D C47D 120.0 . . ?
C48D C47D C46D 120.0 . . ?
C47D C48D C49D 120.0 . . ?
C47D C48D C53D 107(8) . . ?
C49D C48D C53D 133(7) . . ?
C48D C49D C50D 120.0 . . ?
C49D C50D N42D 120.0 . . ?
C53D N43D N44D 108(6) . . ?
N43D N44D C51D 110(3) . . ?
N43D N44D C43D 124(8) . . ?
C51D N44D C43D 119(9) . . ?
N44D C51D C52D 107(6) . . ?
C51D C52D C53D 107(8) . . ?
N43D C53D C52D 108(8) . . ?
N43D C53D C48D 123(8) . . ?
C52D C53D C48D 115(8) . . ?
C41E N41E C45E 120.0 . . ?
C41E N41E Pd23 120(4) . . ?
C45E N41E Pd23 119(4) . . ?
C42E C41E N41E 120.0 . . ?
C41E C42E C43E 120.0 . . ?
C44E C43E C42E 120.0 . . ?
C44E C43E N44E 133(8) . . ?
C42E C43E N44E 107(8) . . ?
C43E C44E C45E 120.0 . . ?
C44E C45E N41E 120.0 . . ?
C46E N42E C50E 120.0 . . ?
C46E N42E Pd10 132(5) . 2_775 ?
C50E N42E Pd10 108(5) . 2_775 ?
C47E C46E N42E 120.00(7) . . ?
C46E C47E C48E 120.00(8) . . ?
C49E C48E C47E 120.0 . . ?
C49E C48E C53E 129(7) . . ?
C47E C48E C53E 110(7) . . ?
C48E C49E C50E 120.0 . . ?
C49E C50E N42E 120.00(7) . . ?
C53E N43E N44E 105(5) . . ?
N43E N44E C51E 114(7) . . ?
N43E N44E C43E 136(10) . . ?
C51E N44E C43E 110(8) . . ?
N44E C51E C52E 103(9) . . ?
C51E C52E C53E 108(9) . . ?
N43E C53E C52E 109(7) . . ?
N43E C53E C48E 113(8) . . ?
C52E C53E C48E 133(8) . . ?
C41F N41F C45F 120.0 . . ?
C41F N41F Pd23 124(5) . . ?
C45F N41F Pd23 115(5) . . ?
N41F C41F C42F 120.0 . . ?
C43F C42F C41F 120.0 . . ?
C44F C43F C42F 120.0 . . ?
C44F C43F N44F 130(8) . . ?
C42F C43F N44F 110(8) . . ?
C43F C44F C45F 120.0 . . ?
C44F C45F N41F 120.0 . . ?
C46F N42F C50F 120.0 . . ?
C46F N42F Pd11 115(5) . 2_775 ?
C50F N42F Pd11 124(5) . 2_775 ?
N42F C46F C47F 120.0 . . ?
C46F C47F C48F 120.0 . . ?
C49F C48F C47F 120.0 . . ?
C49F C48F C53F 116(8) . . ?
C47F C48F C53F 123(8) . . ?
C50F C49F C48F 120.0 . . ?
C49F C50F N42F 120.0 . . ?
C53F N43F N44F 106(5) . . ?
N43F N44F C51F 110(6) . . ?
N43F N44F C43F 135(10) . . ?
C51F N44F C43F 115(9) . . ?
C52F C51F N44F 109(4) . . ?
C51F C52F C53F 103(3) . . ?
N43F C53F C52F 113(4) . . ?
N43F C53F C48F 112(8) . . ?
C52F C53F C48F 136(10) . . ?
C41G N41G C45G 120.0 . . ?
C41G N41G Pd24 125(2) . . ?
C45G N41G Pd24 115(2) . . ?
C42G C41G N41G 120.0 . . ?
C41G C42G C43G 120.0 . . ?
C44G C43G C42G 120.0 . . ?
C44G C43G N44G 122(5) . . ?
C42G C43G N44G 118(5) . . ?
C45G C44G C43G 120.0 . . ?
C44G C45G N41G 120.0 . . ?
C46G N42G C50G 120.0 . . ?
C46G N42G Pd7 129.9(19) . . ?
C50G N42G Pd7 109.8(19) . . ?
C47G C46G N42G 120.0 . . ?
C46G C47G C48G 120.0 . . ?
C47G C48G C49G 120.0 . . ?
C47G C48G C53G 113(4) . . ?
C49G C48G C53G 127(4) . . ?
C50G C49G C48G 120.0 . . ?
C49G C50G N42G 120.0 . . ?
C53G N43G N44G 102(4) . . ?
N43G N44G C51G 112(7) . . ?
N43G N44G C43G 120(9) . . ?
C51G N44G C43G 127(9) . . ?
N44G C51G C52G 108(9) . . ?
C51G C52G C53G 102(9) . . ?
N43G C53G C52G 116(6) . . ?
N43G C53G C48G 118(9) . . ?
C52G C53G C48G 127(9) . . ?
C41H N41H C45H 120.00(10) . . ?
C41H N41H Pd24 121(5) . . ?
C45H N41H Pd24 117(5) . . ?
C42H C41H N41H 120.0 . . ?
C41H C42H C43H 120.0 . . ?
C44H C43H C42H 120.00(10) . . ?
C44H C43H N44H 126(9) . . ?
C42H C43H N44H 114(9) . . ?
C43H C44H C45H 120.0 . . ?
C44H C45H N41H 120.0 . . ?
C46H N42H C50H 120.0 . . ?
C46H N42H Pd2 121(4) . . ?
C50H N42H Pd2 118(4) . . ?
N42H C46H C47H 120.0 . . ?
C46H C47H C48H 120.00(7) . . ?
C47H C48H C49H 120.0 . . ?
C47H C48H C53H 124(7) . . ?
C49H C48H C53H 116(7) . . ?
C50H C49H C48H 120.0 . . ?
C49H C50H N42H 120.0 . . ?
C53H N43H N44H 113(7) . . ?
N43H N44H C51H 98(7) . . ?
N43H N44H C43H 134(10) . . ?
C51H N44H C43H 124(9) . . ?
N44H C51H C52H 120(9) . . ?
C51H C52H C53H 98(8) . . ?
N43H C53H C52H 111(7) . . ?
N43H C53H C48H 106(7) . . ?
C52H C53H C48H 135(8) . . ?
C41I N41I C45I 120.0 . . ?
C41I N41I Pd25 127(5) . . ?
C45I N41I Pd25 113(5) . . ?
C42I C41I N41I 120.0 . . ?
C41I C42I C43I 120.0 . . ?
C42I C43I C44I 120.0 . . ?
C42I C43I N44I 92(9) . . ?
C44I C43I N44I 144(9) . . ?
C45I C44I C43I 120.0 . . ?
C44I C45I N41I 120.0 . . ?
C46I N42I C50I 120.0 . . ?
C46I N42I Pd1 113(4) . . ?
C50I N42I Pd1 124(4) . . ?
N42I C46I C47I 120.0 . . ?
C48I C47I C46I 120.0 . . ?
C49I C48I C47I 120.0 . . ?
C49I C48I C53I 107(7) . . ?
C47I C48I C53I 132(7) . . ?
C48I C49I C50I 120.0 . . ?
C49I C50I N42I 120.0 . . ?
C53I N43I N44I 120(8) . . ?
N43I N44I C51I 100(10) . . ?
N43I N44I C43I 143(10) . . ?
C51I N44I C43I 101(9) . . ?
N44I C51I C52I 111(10) . . ?
C51I C52I C53I 109(10) . . ?
N43I C53I C52I 100(8) . . ?
N43I C53I C48I 105(7) . . ?
C52I C53I C48I 155(10) . . ?
C41J N41J C45J 120.0 . . ?
C41J N41J Pd25 122(5) . . ?
C45J N41J Pd25 117(5) . . ?
C42J C41J N41J 120.0 . . ?
C43J C42J C41J 120.0 . . ?
C44J C43J C42J 120.0 . . ?
C44J C43J N44J 118(9) . . ?
C42J C43J N44J 121(9) . . ?
C43J C44J C45J 120.0 . . ?
C44J C45J N41J 120.0 . . ?
C46J N42J C50J 120.0 . . ?
C46J N42J Pd6 118(5) . . ?
C50J N42J Pd6 122(5) . . ?
C47J C46J N42J 120.00(6) . . ?
C46J C47J C48J 120.00(8) . . ?
C47J C48J C49J 120.0 . . ?
C47J C48J C53J 131(8) . . ?
C49J C48J C53J 109(8) . . ?
C48J C49J C50J 120.0 . . ?
C49J C50J N42J 120.00(7) . . ?
C53J N43J N44J 112(7) . . ?
N43J N44J C51J 101(7) . . ?
N43J N44J C43J 129(10) . . ?
C51J N44J C43J 130(10) . . ?
N44J C51J C52J 118(9) . . ?
C51J C52J C53J 98(8) . . ?
N43J C53J C52J 111(7) . . ?
N43J C53J C48J 107(9) . . ?
C52J C53J C48J 142(10) . . ?
C41K N41K C45K 120.00(7) . . ?
C41K N41K Pd26 117(5) . . ?
C45K N41K Pd26 123(5) . . ?
N41K C41K C42K 120.0 . . ?
C41K C42K C43K 120.0 . . ?
C44K C43K C42K 120.00(8) . . ?
C44K C43K N44K 122(8) . . ?
C42K C43K N44K 117(8) . . ?
C45K C44K C43K 120.0 . . ?
C44K C45K N41K 120.0 . . ?
C46K N42K C50K 120.0 . . ?
C46K N42K Pd11 118(5) . 2_775 ?
C50K N42K Pd11 121(5) . 2_775 ?
C47K C46K N42K 120.0 . . ?
C46K C47K C48K 120.0 . . ?
C49K C48K C47K 120.0 . . ?
C49K C48K C53K 111(8) . . ?
C47K C48K C53K 127(8) . . ?
C48K C49K C50K 120.0 . . ?
C49K C50K N42K 120.0 . . ?
C53K N43K N44K 116(9) . . ?
N43K N44K C51K 102(8) . . ?
N43K N44K C43K 132(10) . . ?
C51K N44K C43K 120(10) . . ?
N44K C51K C52K 112(8) . . ?
C51K C52K C53K 106(9) . . ?
N43K C53K C52K 104(9) . . ?
N43K C53K C48K 101(7) . . ?
C52K C53K C48K 133(8) . . ?
C41L N41L C45L 120.0 . . ?
C41L N41L Pd26 123(6) . . ?
C45L N41L Pd26 117(6) . . ?
N41L C41L C42L 120.0 . . ?
C43L C42L C41L 120.0 . . ?
C42L C43L C44L 120.0 . . ?
C42L C43L N44L 120(9) . . ?
C44L C43L N44L 120(9) . . ?
C43L C44L C45L 120.0 . . ?
C44L C45L N41L 120.0 . . ?
C46L N42L C50L 120.0 . . ?
C46L N42L Pd12 106(5) . 2_775 ?
C50L N42L Pd12 133(5) . 2_775 ?
N42L C46L C47L 120.0 . . ?
C48L C47L C46L 120.0 . . ?
C47L C48L C49L 120.0 . . ?
C47L C48L C53L 130(8) . . ?
C49L C48L C53L 110(8) . . ?
C50L C49L C48L 120.0 . . ?
C49L C50L N42L 120.0 . . ?
C53L N43L N44L 110(6) . . ?
N43L N44L C51L 109(7) . . ?
N43L N44L C43L 123(10) . . ?
C51L N44L C43L 128(10) . . ?
N44L C51L C52L 107(9) . . ?
C51L C52L C53L 108(9) . . ?
N43L C53L C52L 107(7) . . ?
N43L C53L C48L 116(10) . . ?
C52L C53L C48L 134(10) . . ?
C41M N41M C45M 120.0 . . ?
C41M N41M Pd27 125(5) . . ?
C45M N41M Pd27 115(5) . . ?
N41M C41M C42M 120.0 . . ?
C43M C42M C41M 120.0 . . ?
C42M C43M C44M 120.0 . . ?
C42M C43M N44M 108(9) . . ?
C44M C43M N44M 131(8) . . ?
C45M C44M C43M 120.0 . . ?
C44M C45M N41M 120.0 . . ?
C46M N42M C50M 120.0 . . ?
C46M N42M Pd4 131(4) . 2_775 ?
C50M N42M Pd4 109(4) . 2_775 ?
N42M C46M C47M 120.0 . . ?
C48M C47M C46M 120.0 . . ?
C49M C48M C47M 120.0 . . ?
C49M C48M C53M 127(7) . . ?
C47M C48M C53M 113(7) . . ?
C48M C49M C50M 120.0 . . ?
C49M C50M N42M 120.0 . . ?
C53M N43M N44M 111(7) . . ?
N43M N44M C51M 106(8) . . ?
N43M N44M C43M 134(10) . . ?
C51M N44M C43M 117(10) . . ?
N44M C51M C52M 110(10) . . ?
C51M C52M C53M 105(9) . . ?
N43M C53M C52M 107(7) . . ?
N43M C53M C48M 116(9) . . ?
C52M C53M C48M 133(10) . . ?
C41N N41N C45N 120.00(6) . . ?
C41N N41N Pd27 115(4) . . ?
C45N N41N Pd27 125(4) . . ?
N41N C41N C42N 120.0 . . ?
C43N C42N C41N 120.0 . . ?
C42N C43N C44N 120.00(7) . . ?
C42N C43N N44N 120(3) . . ?
C44N C43N N44N 118(4) . . ?
C43N C44N C45N 120.0 . . ?
C44N C45N N41N 120.0 . . ?
C46N N42N C50N 120.0 . . ?
C46N N42N Pd5 115(5) . 2_775 ?
C50N N42N Pd5 125(5) . 2_775 ?
C47N C46N N42N 120.0 . . ?
C46N C47N C48N 120.0 . . ?
C49N C48N C47N 120.0 . . ?
C49N C48N C53N 115(8) . . ?
C47N C48N C53N 123(8) . . ?
C50N C49N C48N 120.0 . . ?
C49N C50N N42N 120.0 . . ?
C53N N43N N44N 114(7) . . ?
N43N N44N C51N 103(7) . . ?
N43N N44N C43N 109(7) . . ?
C51N N44N C43N 141(7) . . ?
C52N C51N N44N 112(5) . . ?
C51N C52N C53N 105(3) . . ?
N43N C53N C52N 106(5) . . ?
N43N C53N C48N 127(10) . . ?
C52N C53N C48N 118(9) . . ?
C41O N41O C45O 120.0 . . ?
C41O N41O Pd28 121(6) . . ?
C45O N41O Pd28 119(6) . . ?
N41O C41O C42O 120.0 . . ?
C43O C42O C41O 120.00(7) . . ?
C44O C43O C42O 120.0 . . ?
C44O C43O N44O 115(10) . . ?
C42O C43O N44O 121(10) . . ?
C43O C44O C45O 120.0 . . ?
C44O C45O N41O 120.0 . . ?
C46O N42O C50O 120.0 . . ?
C46O N42O Pd10 122(6) . . ?
C50O N42O Pd10 117(6) . . ?
N42O C46O C47O 120.0 . . ?
C48O C47O C46O 120.00(8) . . ?
C47O C48O C49O 120.0 . . ?
C47O C48O C53O 126(9) . . ?
C49O C48O C53O 113(9) . . ?
C48O C49O C50O 120.0 . . ?
C49O C50O N42O 120.00(9) . . ?
C53O N43O N44O 117(8) . . ?
N43O N44O C51O 98(9) . . ?
N43O N44O C43O 115(10) . . ?
C51O N44O C43O 133(10) . . ?
C52O C51O N44O 118(10) . . ?
C51O C52O C53O 101(10) . . ?
N43O C53O C52O 106(8) . . ?
N43O C53O C48O 115(10) . . ?
C52O C53O C48O 138(10) . . ?
C41P N41P C45P 120.0 . . ?
C41P N41P Pd28 125(5) . . ?
C45P N41P Pd28 114(5) . . ?
N41P C41P C42P 120.0 . . ?
C43P C42P C41P 120.0 . . ?
C42P C43P C44P 120.0 . . ?
C42P C43P N44P 114(9) . . ?
C44P C43P N44P 126(9) . . ?
C45P C44P C43P 120.0 . . ?
C44P C45P N41P 120.0 . . ?
C46P N42P C50P 120.0 . . ?
C46P N42P Pd3 126(4) . . ?
C50P N42P Pd3 114(4) . . ?
N42P C46P C47P 120.0 . . ?
C48P C47P C46P 120.0 . . ?
C47P C48P C49P 120.0 . . ?
C47P C48P C53P 119(7) . . ?
C49P C48P C53P 120(7) . . ?
C50P C49P C48P 120.0 . . ?
C49P C50P N42P 120.0 . . ?
C53P N43P N44P 114(8) . . ?
N43P N44P C51P 98(8) . . ?
N43P N44P C43P 132(10) . . ?
C51P N44P C43P 130(10) . . ?
N44P C51P C52P 121(9) . . ?
C51P C52P C53P 97(8) . . ?
N43P C53P C52P 111(8) . . ?
N43P C53P C48P 113(8) . . ?
C52P C53P C48P 124(9) . . ?
C41Q N41Q C45Q 120.00(8) . . ?
C41Q N41Q Pd29 121(5) . . ?
C45Q N41Q Pd29 119(5) . . ?
N41Q C41Q C42Q 120.0 . . ?
C41Q C42Q C43Q 120.0 . . ?
C44Q C43Q C42Q 120.00(9) . . ?
C44Q C43Q N44Q 130(9) . . ?
C42Q C43Q N44Q 107(8) . . ?
C43Q C44Q C45Q 120.0 . . ?
C44Q C45Q N41Q 120.0 . . ?
C46Q N42Q C50Q 120.0 . . ?
C46Q N42Q Pd2 124(4) . . ?
C50Q N42Q Pd2 114(4) . . ?
N42Q C46Q C47Q 120.0 . . ?
C48Q C47Q C46Q 120.00(8) . . ?
C47Q C48Q C49Q 120.0 . . ?
C47Q C48Q C53Q 117(8) . . ?
C49Q C48Q C53Q 122(7) . . ?
C50Q C49Q C48Q 120.0 . . ?
C49Q C50Q N42Q 120.00(6) . . ?
C53Q N43Q N44Q 113(6) . . ?
N43Q N44Q C51Q 102(8) . . ?
N43Q N44Q C43Q 130(10) . . ?
C51Q N44Q C43Q 119(10) . . ?
C52Q C51Q N44Q 115(10) . . ?
C51Q C52Q C53Q 102(9) . . ?
N43Q C53Q C52Q 109(7) . . ?
N43Q C53Q C48Q 116(9) . . ?
C52Q C53Q C48Q 133(10) . . ?
C41R N41R C45R 120.0 . . ?
C41R N41R Pd29 121(4) . . ?
C45R N41R Pd29 119(4) . . ?
C42R C41R N41R 120.0 . . ?
C41R C42R C43R 120.0 . . ?
C44R C43R C42R 120.0 . . ?
C44R C43R N44R 124(7) . . ?
C42R C43R N44R 115(7) . . ?
C45R C44R C43R 120.0 . . ?
C44R C45R N41R 120.0 . . ?
C46R N42R C50R 120.0 . . ?
C46R N42R Pd9 131(4) . . ?
C50R N42R Pd9 109(4) . . ?
N42R C46R C47R 120.0 . . ?
C46R C47R C48R 120.0 . . ?
C49R C48R C47R 120.0 . . ?
C49R C48R C53R 135(7) . . ?
C47R C48R C53R 105(7) . . ?
C48R C49R C50R 120.0 . . ?
C49R C50R N42R 120.0 . . ?
C53R N43R N44R 115(7) . . ?
N43R N44R C51R 103(7) . . ?
N43R N44R C43R 128(9) . . ?
C51R N44R C43R 125(9) . . ?
N44R C51R C52R 112(9) . . ?
C51R C52R C53R 105(9) . . ?
N43R C53R C52R 105(8) . . ?
N43R C53R C48R 124(9) . . ?
C52R C53R C48R 119(9) . . ?
C41S N41S C45S 120.0 . . ?
C41S N41S Pd30 117(6) . . ?
C45S N41S Pd30 123(6) . . ?
N41S C41S C42S 120.0 . . ?
C43S C42S C41S 120.0 . . ?
C42S C43S C44S 120.0 . . ?
C42S C43S N44S 119(9) . . ?
C44S C43S N44S 121(9) . . ?
C45S C44S C43S 120.00(6) . . ?
C44S C45S N41S 120.0 . . ?
C46S N42S C50S 120.0 . . ?
C46S N42S Pd5 112(4) . 2_775 ?
C50S N42S Pd5 128(4) . 2_775 ?
C47S C46S N42S 120.0 . . ?
C48S C47S C46S 120.0 . . ?
C49S C48S C47S 120.0 . . ?
C49S C48S C53S 103(7) . . ?
C47S C48S C53S 137(7) . . ?
C48S C49S C50S 120.0 . . ?
C49S C50S N42S 120.0 . . ?
C53S N43S N44S 109(7) . . ?
N43S N44S C51S 106(8) . . ?
N43S N44S C43S 135(10) . . ?
C51S N44S C43S 119(10) . . ?
N44S C51S C52S 112(9) . . ?
C51S C52S C53S 102(8) . . ?
N43S C53S C52S 111(7) . . ?
N43S C53S C48S 99(7) . . ?
C52S C53S C48S 148(10) . . ?
C41T N41T C45T 120.00(8) . . ?
C41T N41T Pd30 124(5) . . ?
C45T N41T Pd30 115(5) . . ?
N41T C41T C42T 120.0 . . ?
C41T C42T C43T 120.0 . . ?
C44T C43T C42T 120.00(9) . . ?
C44T C43T N44T 125(8) . . ?
C42T C43T N44T 114(8) . . ?
C43T C44T C45T 120.0 . . ?
C44T C45T N41T 120.0 . . ?
C46T N42T C50T 120.0 . . ?
C46T N42T Pd6 112(4) . 2_775 ?
C50T N42T Pd6 127(4) . 2_775 ?
N42T C46T C47T 120.0 . . ?
C48T C47T C46T 120.00(7) . . ?
C49T C48T C47T 120.0 . . ?
C49T C48T C53T 106(7) . . ?
C47T C48T C53T 134(7) . . ?
C48T C49T C50T 120.0 . . ?
C49T C50T N42T 120.00(7) . . ?
C53T N43T N44T 104(7) . . ?
N43T N44T C51T 112(8) . . ?
N43T N44T C43T 128(10) . . ?
C51T N44T C43T 119(10) . . ?
N44T C51T C52T 107(9) . . ?
C51T C52T C53T 104(8) . . ?
N43T C53T C52T 112(7) . . ?
N43T C53T C48T 104(8) . . ?
C52T C53T C48T 140(10) . . ?
C41U N41U C45U 120.0 . . ?
C41U N41U Pd31 120(5) . . ?
C45U N41U Pd31 119(5) . . ?
C42U C41U N41U 120.0 . . ?
C43U C42U C41U 120.0 . . ?
C42U C43U C44U 120.0 . . ?
C42U C43U N44U 100(9) . . ?
C44U C43U N44U 137(8) . . ?
C45U C44U C43U 120.0 . . ?
C44U C45U N41U 120.0 . . ?
C46U N42U C50U 120.0 . . ?
C46U N42U Pd7 128(5) . 2_775 ?
C50U N42U Pd7 111(5) . 2_775 ?
C47U C46U N42U 120.0 . . ?
C48U C47U C46U 120.0 . . ?
C49U C48U C47U 120.0 . . ?
C49U C48U C53U 126(7) . . ?
C47U C48U C53U 113(7) . . ?
C48U C49U C50U 120.0 . . ?
C49U C50U N42U 120.0 . . ?
C53U N43U N44U 115(6) . . ?
N43U N44U C51U 99(8) . . ?
N43U N44U C43U 141(10) . . ?
C51U N44U C43U 111(9) . . ?
N44U C51U C52U 117(10) . . ?
C51U C52U C53U 101(9) . . ?
N43U C53U C52U 108(6) . . ?
N43U C53U C48U 121(9) . . ?
C52U C53U C48U 131(10) . . ?
C41V N41V C45V 120.0 . . ?
C41V N41V Pd31 132(5) . . ?
C45V N41V Pd31 107(5) . . ?
N41V C41V C42V 120.0 . . ?
C43V C42V C41V 120.0 . . ?
C42V C43V C44V 120.0 . . ?
C42V C43V N44V 110(8) . . ?
C44V C43V N44V 129(8) . . ?
C45V C44V C43V 120.0 . . ?
C44V C45V N41V 120.0 . . ?
C46V N42V C50V 120.0 . . ?
C46V N42V Pd8 117(5) . 2_775 ?
C50V N42V Pd8 123(5) . 2_775 ?
C47V C46V N42V 120.0 . . ?
C46V C47V C48V 120.0 . . ?
C49V C48V C47V 120.0 . . ?
C49V C48V C53V 108(7) . . ?
C47V C48V C53V 132(7) . . ?
C48V C49V C50V 120.0 . . ?
C49V C50V N42V 120.0 . . ?
C53V N43V N44V 113(6) . . ?
N43V N44V C51V 104(7) . . ?
N43V N44V C43V 133(10) . . ?
C51V N44V C43V 122(9) . . ?
N44V C51V C52V 112(9) . . ?
C51V C52V C53V 104(8) . . ?
N43V C53V C52V 107(7) . . ?
N43V C53V C48V 107(7) . . ?
C52V C53V C48V 145(10) . . ?
C41W N41W C45W 120.0 . . ?
C41W N41W Pd32 122(5) . . ?
C45W N41W Pd32 117(5) . . ?
C42W C41W N41W 120.0 . . ?
C41W C42W C43W 120.0 . . ?
C44W C43W C42W 120.0 . . ?
C44W C43W N44W 139(8) . . ?
C42W C43W N44W 101(8) . . ?
C45W C44W C43W 120.0 . . ?
C44W C45W N41W 120.0 . . ?
C46W N42W C50W 120.0 . . ?
C46W N42W Pd4 118(4) . . ?
C50W N42W Pd4 122(4) . . ?
C47W C46W N42W 120.0 . . ?
C48W C47W C46W 120.0 . . ?
C47W C48W C49W 120.0 . . ?
C47W C48W C53W 109(7) . . ?
C49W C48W C53W 129(7) . . ?
C48W C49W C50W 120.0 . . ?
C49W C50W N42W 120.0 . . ?
C53W N43W N44W 112(7) . . ?
N43W N44W C51W 107(8) . . ?
N43W N44W C43W 142(10) . . ?
C51W N44W C43W 107(8) . . ?
N44W C51W C52W 107(10) . . ?
C51W C52W C53W 109(10) . . ?
N43W C53W C52W 105(8) . . ?
N43W C53W C48W 117(7) . . ?
C52W C53W C48W 117(7) . . ?
C41X N41X C45X 120.00(7) . . ?
C41X N41X Pd32 118(6) . . ?
C45X N41X Pd32 122(6) . . ?
C42X C41X N41X 120.0 . . ?
C43X C42X C41X 120.0 . . ?
C42X C43X C44X 120.00(8) . . ?
C42X C43X N44X 122(9) . . ?
C44X C43X N44X 115(9) . . ?
C45X C44X C43X 120.0 . . ?
C44X C45X N41X 120.0 . . ?
C46X N42X C50X 120.0 . . ?
C46X N42X Pd1 111(5) . . ?
C50X N42X Pd1 129(5) . . ?
C47X C46X N42X 120.0 . . ?
C46X C47X C48X 120.0 . . ?
C49X C48X C47X 120.0 . . ?
C49X C48X C53X 125(9) . . ?
C47X C48X C53X 115(9) . . ?
C50X C49X C48X 120.0 . . ?
C49X C50X N42X 120.0 . . ?
C53X N43X N44X 111(7) . . ?
N43X N44X C51X 105(7) . . ?
N43X N44X C43X 118(10) . . ?
C51X N44X C43X 129(10) . . ?
N44X C51X C52X 112(5) . . ?
C51X C52X C53X 103(3) . . ?
N43X C53X C52X 109(5) . . ?
N43X C53X C48X 120(10) . . ?
C52X C53X C48X 119(10) . . ?
O45 O23 O63 45(8) . . ?
O63 O45 O23 89(10) . . ?
O9 O55 O22 99(8) . . ?
O9 O55 O44 163(10) . . ?
O22 O55 O44 65(6) . . ?
O45 O63 O23 46(9) . . ?

loop_
_geom_torsion_atom_site_label_1
_geom_torsion_atom_site_label_2
_geom_torsion_atom_site_label_3
_geom_torsion_atom_site_label_4
_geom_torsion
_geom_torsion_site_symmetry_1
_geom_torsion_site_symmetry_2
_geom_torsion_site_symmetry_3
_geom_torsion_site_symmetry_4
_geom_torsion_publ_flag
F64A B42 F42A B64 -142(21) 2_776 . . 2_776 ?
F42F B42 F42A B64 -168(14) . . . 2_776 ?
F42C B42 F42A B64 87(14) . . . 2_776 ?
F42H B42 F42A B64 -75(15) . . . 2_776 ?
F42D B42 F42A B64 -152(14) . . . 2_776 ?
F42E B42 F42A B64 29(15) . . . 2_776 ?
F42G B42 F42A B64 130(17) . . . 2_776 ?
F42B B42 F42A B64 -33(14) . . . 2_776 ?
F64D B42 F42A B64 37(11) 2_776 . . 2_776 ?
F42F B42 F42A F64A -26(11) . . . 2_776 ?
F42C B42 F42A F64A -131(10) . . . 2_776 ?
F42H B42 F42A F64A 66(9) . . . 2_776 ?
F42D B42 F42A F64A -11(10) . . . 2_776 ?
F42E B42 F42A F64A 171(9) . . . 2_776 ?
F42G B42 F42A F64A -89(10) . . . 2_776 ?
F42B B42 F42A F64A 109(10) . . . 2_776 ?
B64 B42 F42A F64A 142(21) 2_776 . . 2_776 ?
F64D B42 F42A F64A 178(13) 2_776 . . 2_776 ?
F64A B42 F42A F64B 146(25) 2_776 . . 2_776 ?
F42F B42 F42A F64B 119(19) . . . 2_776 ?
F42C B42 F42A F64B 14(19) . . . 2_776 ?
F42H B42 F42A F64B -148(20) . . . 2_776 ?
F42D B42 F42A F64B 135(19) . . . 2_776 ?
F42E B42 F42A F64B -44(19) . . . 2_776 ?
F42G B42 F42A F64B 57(18) . . . 2_776 ?
F42B B42 F42A F64B -106(19) . . . 2_776 ?
B64 B42 F42A F64B -73(18) 2_776 . . 2_776 ?
F64D B42 F42A F64B -36(17) 2_776 . . 2_776 ?
F64A B42 F42C F64D -107(8) 2_776 . . 2_776 ?
F42A B42 F42C F64D -55(6) . . . 2_776 ?
F42F B42 F42C F64D 162(6) . . . 2_776 ?
F42H B42 F42C F64D 19(17) . . . 2_776 ?
F42D B42 F42C F64D -176(6) . . . 2_776 ?
F42E B42 F42C F64D 42(6) . . . 2_776 ?
F42G B42 F42C F64D -86(6) . . . 2_776 ?
F42B B42 F42C F64D 65(6) . . . 2_776 ?
B64 B42 F42C F64D -30(5) 2_776 . . 2_776 ?
F42A B42 F42D F64A 9(9) . . . 2_776 ?
F42F B42 F42D F64A 173(14) . . . 2_776 ?
F42C B42 F42D F64A 130(8) . . . 2_776 ?
F42H B42 F42D F64A -54(8) . . . 2_776 ?
F42E B42 F42D F64A -173(9) . . . 2_776 ?
F42G B42 F42D F64A 55(8) . . . 2_776 ?
F42B B42 F42D F64A -111(9) . . . 2_776 ?
B64 B42 F42D F64A -5(7) 2_776 . . 2_776 ?
F64D B42 F42D F64A 106(32) 2_776 . . 2_776 ?
F64A B42 F42E F64D 29(17) 2_776 . . 2_776 ?
F42A B42 F42E F64D 12(13) . . . 2_776 ?
F42F B42 F42E F64D -157(12) . . . 2_776 ?
F42C B42 F42E F64D -91(12) . . . 2_776 ?
F42H B42 F42E F64D 82(12) . . . 2_776 ?
F42D B42 F42E F64D -165(11) . . . 2_776 ?
F42G B42 F42E F64D -37(12) . . . 2_776 ?
F42B B42 F42E F64D 115(13) . . . 2_776 ?
B64 B42 F42E F64D 23(9) 2_776 . . 2_776 ?
F64A B42 F42E B64 5(12) 2_776 . . 2_776 ?
F42A B42 F42E B64 -11(6) . . . 2_776 ?
F42F B42 F42E B64 180(6) . . . 2_776 ?
F42C B42 F42E B64 -114(7) . . . 2_776 ?
F42H B42 F42E B64 59(6) . . . 2_776 ?
F42D B42 F42E B64 171(9) . . . 2_776 ?
F42G B42 F42E B64 -61(6) . . . 2_776 ?
F42B B42 F42E B64 92(7) . . . 2_776 ?
F64D B42 F42E B64 -23(9) 2_776 . . 2_776 ?
F42A B42 F42F F64A 20(9) . . . 2_776 ?
F42C B42 F42F F64A 134(8) . . . 2_776 ?
F42H B42 F42F F64A -57(7) . . . 2_776 ?
F42D B42 F42F F64A -7(12) . . . 2_776 ?
F42E B42 F42F F64A -178(7) . . . 2_776 ?
F42G B42 F42F F64A 63(7) . . . 2_776 ?
F42B B42 F42F F64A -118(8) . . . 2_776 ?
B64 B42 F42F F64A 1(19) 2_776 . . 2_776 ?
F64D B42 F42F F64A 161(13) 2_776 . . 2_776 ?
F42A B42 F42G F64A 58(7) . . . 2_776 ?
F42F B42 F42G F64A -86(6) . . . 2_776 ?
F42C B42 F42G F64A -163(7) . . . 2_776 ?
F42H B42 F42G F64A 34(6) . . . 2_776 ?
F42D B42 F42G F64A -54(6) . . . 2_776 ?
F42E B42 F42G F64A 154(6) . . . 2_776 ?
F42B B42 F42G F64A 95(12) . . . 2_776 ?
B64 B42 F42G F64A 79(7) 2_776 . . 2_776 ?
F64D B42 F42G F64A 132(8) 2_776 . . 2_776 ?
F64A B42 F42G B64 -79(7) 2_776 . . 2_776 ?
F42A B42 F42G B64 -20(7) . . . 2_776 ?
F42F B42 F42G B64 -165(6) . . . 2_776 ?
F42C B42 F42G B64 118(6) . . . 2_776 ?
F42H B42 F42G B64 -45(6) . . . 2_776 ?
F42D B42 F42G B64 -133(6) . . . 2_776 ?
F42E B42 F42G B64 75(6) . . . 2_776 ?
F42B B42 F42G B64 16(11) . . . 2_776 ?
F64D B42 F42G B64 54(3) 2_776 . . 2_776 ?
F42A B42 F42H F64A -55(6) . . . 2_776 ?
F42F B42 F42H F64A 84(6) . . . 2_776 ?
F42C B42 F42H F64A -136(16) . . . 2_776 ?
F42D B42 F42H F64A 58(6) . . . 2_776 ?
F42E B42 F42H F64A -156(7) . . . 2_776 ?
F42G B42 F42H F64A -36(6) . . . 2_776 ?
F42B B42 F42H F64A 172(8) . . . 2_776 ?
B64 B42 F42H F64A -81(6) 2_776 . . 2_776 ?
F64D B42 F42H F64A -119(7) 2_776 . . 2_776 ?
F64A B42 F42H B64 81(6) 2_776 . . 2_776 ?
F42A B42 F42H B64 26(5) . . . 2_776 ?
F42F B42 F42H B64 165(6) . . . 2_776 ?
F42C B42 F42H B64 -55(17) . . . 2_776 ?
F42D B42 F42H B64 140(6) . . . 2_776 ?
F42E B42 F42H B64 -74(6) . . . 2_776 ?
F42G B42 F42H B64 45(6) . . . 2_776 ?
F42B B42 F42H B64 -107(6) . . . 2_776 ?
F64D B42 F42H B64 -37(5) 2_776 . . 2_776 ?
F64A B42 F42H F64C 107(10) 2_776 . . 2_776 ?
F42A B42 F42H F64C 51(9) . . . 2_776 ?
F42F B42 F42H F64C -169(9) . . . 2_776 ?
F42C B42 F42H F64C -29(20) . . . 2_776 ?
F42D B42 F42H F64C 165(9) . . . 2_776 ?
F42E B42 F42H F64C -49(10) . . . 2_776 ?
F42G B42 F42H F64C 70(10) . . . 2_776 ?
F42B B42 F42H F64C -81(9) . . . 2_776 ?
B64 B42 F42H F64C 25(6) 2_776 . . 2_776 ?
F64D B42 F42H F64C -12(10) 2_776 . . 2_776 ?
F44A B44 F44G Pd27 172(6) . . . 1_565 ?
F44H B44 F44G Pd27 -34(7) . . . 1_565 ?
F44C B44 F44G Pd27 95(11) . . . 1_565 ?
F44F B44 F44G Pd27 87(7) . . . 1_565 ?
F44D B44 F44G Pd27 -88(7) . . . 1_565 ?
F44E B44 F44G Pd27 -154(7) . . . 1_565 ?
F44B B44 F44G Pd27 12(9) . . . 1_565 ?
F56D B56 F56A F58A -34(5) . . . 2_766 ?
F56C B56 F56A F58A 86(6) . . . 2_766 ?
F56B B56 F56A F58A -154(6) . . . 2_766 ?
B58 B56 F56A F58A -65(4) 2_766 . . 2_766 ?
F58D B56 F56A F58A -115(6) 2_766 . . 2_766 ?
F58A B56 F56A B58 65(4) 2_766 . . 2_766 ?
F56D B56 F56A B58 31(5) . . . 2_766 ?
F56C B56 F56A B58 151(5) . . . 2_766 ?
F56B B56 F56A B58 -89(5) . . . 2_766 ?
F58D B56 F56A B58 -49(3) 2_766 . . 2_766 ?
F58A B56 F56B F58D -69(13) 2_766 . . 2_766 ?
F56D B56 F56B F58D -69(5) . . . 2_766 ?
F56A B56 F56B F58D 51(5) . . . 2_766 ?
F56C B56 F56B F58D 171(5) . . . 2_766 ?
B58 B56 F56B F58D -25(4) 2_766 . . 2_766 ?
F56D B56 F56C F58A 34(6) . . . 2_766 ?
F56A B56 F56C F58A -86(6) . . . 2_766 ?
F56B B56 F56C F58A 154(7) . . . 2_766 ?
B58 B56 F56C F58A 11(7) 2_766 . . 2_766 ?
F58D B56 F56C F58A 175(15) 2_766 . . 2_766 ?
F56A B56 F56D F58A 60(10) . . . 2_766 ?
F56C B56 F56D F58A -60(10) . . . 2_766 ?
F56B B56 F56D F58A 180(100) . . . 2_766 ?
B58 B56 F56D F58A 105(11) 2_766 . . 2_766 ?
F58D B56 F56D F58A 132(11) 2_766 . . 2_766 ?
F58A B56 F56D B58 -105(12) 2_766 . . 2_766 ?
F56A B56 F56D B58 -45(6) . . . 2_766 ?
F56C B56 F56D B58 -165(6) . . . 2_766 ?
F56B B56 F56D B58 75(6) . . . 2_766 ?
F58D B56 F56D B58 28(4) 2_766 . . 2_766 ?
F58A B56 F56D F58C -143(14) 2_766 . . 2_766 ?
F56A B56 F56D F58C -83(8) . . . 2_766 ?
F56C B56 F56D F58C 157(8) . . . 2_766 ?
F56B B56 F56D F58C 37(8) . . . 2_766 ?
B58 B56 F56D F58C -38(5) 2_766 . . 2_766 ?
F58D B56 F56D F58C -11(7) 2_766 . . 2_766 ?
F56D B58 F58A B56 117(12) 2_766 . . 2_766 ?
F58B B58 F58A B56 -125(7) . . . 2_766 ?
F58C B58 F58A B56 115(7) . . . 2_766 ?
F58D B58 F58A B56 -5(7) . . . 2_766 ?
F56A B58 F58A B56 -64(5) 2_766 . . 2_766 ?
F58B B58 F58A F56D 118(9) . . . 2_766 ?
F58C B58 F58A F56D -2(9) . . . 2_766 ?
F58D B58 F58A F56D -122(9) . . . 2_766 ?
B56 B58 F58A F56D -117(12) 2_766 . . 2_766 ?
F56A B58 F58A F56D 179(11) 2_766 . . 2_766 ?
F56D B58 F58A F56A -179(11) 2_766 . . 2_766 ?
F58B B58 F58A F56A -61(5) . . . 2_766 ?
F58C B58 F58A F56A 179(5) . . . 2_766 ?
F58D B58 F58A F56A 59(5) . . . 2_766 ?
B56 B58 F58A F56A 64(5) 2_766 . . 2_766 ?
F56D B58 F58A F56C 108(12) 2_766 . . 2_766 ?
F58B B58 F58A F56C -134(9) . . . 2_766 ?
F58C B58 F58A F56C 106(9) . . . 2_766 ?
F58D B58 F58A F56C -14(9) . . . 2_766 ?
B56 B58 F58A F56C -9(5) 2_766 . . 2_766 ?
F56A B58 F58A F56C -73(8) 2_766 . . 2_766 ?
F58A B58 F58C F56D 1(7) . . . 2_766 ?
F58B B58 F58C F56D -119(7) . . . 2_766 ?
F58D B58 F58C F56D 121(7) . . . 2_766 ?
B56 B58 F58C F56D 33(5) 2_766 . . 2_766 ?
F56A B58 F58C F56D 5(18) 2_766 . . 2_766 ?
F56D B58 F58D F56B -17(7) 2_766 . . 2_766 ?
F58A B58 F58D F56B 28(5) . . . 2_766 ?
F58B B58 F58D F56B 148(5) . . . 2_766 ?
F58C B58 F58D F56B -92(5) . . . 2_766 ?
B56 B58 F58D F56B 25(4) 2_766 . . 2_766 ?
F56A B58 F58D F56B 75(5) 2_766 . . 2_766 ?
F56D B58 F58D B56 -42(4) 2_766 . . 2_766 ?
F58A B58 F58D B56 2(3) . . . 2_766 ?
F58B B58 F58D B56 123(4) . . . 2_766 ?
F58C B58 F58D B56 -118(4) . . . 2_766 ?
F56A B58 F58D B56 50(2) 2_766 . . 2_766 ?
F42A B64 F64A B42 135(23) 2_776 . . 2_776 ?
F64B B64 F64A B42 135(7) . . . 2_776 ?
F64C B64 F64A B42 -105(7) . . . 2_776 ?
F64D B64 F64A B42 15(7) . . . 2_776 ?
F42H B64 F64A B42 -88(8) 2_776 . . 2_776 ?
F42G B64 F64A B42 83(8) 2_776 . . 2_776 ?
F42E B64 F64A B42 -2(4) 2_776 . . 2_776 ?
F64B B64 F64A F42A 0(19) . . . 2_776 ?
F64C B64 F64A F42A 120(19) . . . 2_776 ?
F64D B64 F64A F42A -120(19) . . . 2_776 ?
B42 B64 F64A F42A -135(23) 2_776 . . 2_776 ?
F42H B64 F64A F42A 137(22) 2_776 . . 2_776 ?
F42G B64 F64A F42A -52(17) 2_776 . . 2_776 ?
F42E B64 F64A F42A -137(21) 2_776 . . 2_776 ?
F42A B64 F64A F42H -137(22) 2_776 . . 2_776 ?
F64B B64 F64A F42H -137(8) . . . 2_776 ?
F64C B64 F64A F42H -17(8) . . . 2_776 ?
F64D B64 F64A F42H 103(8) . . . 2_776 ?
B42 B64 F64A F42H 88(8) 2_776 . . 2_776 ?
F42G B64 F64A F42H 171(9) 2_776 . . 2_776 ?
F42E B64 F64A F42H 86(6) 2_776 . . 2_776 ?
F42A B64 F64A F42D 143(26) 2_776 . . 2_776 ?
F64B B64 F64A F42D 143(14) . . . 2_776 ?
F64C B64 F64A F42D -97(14) . . . 2_776 ?
F64D B64 F64A F42D 23(14) . . . 2_776 ?
B42 B64 F64A F42D 8(11) 2_776 . . 2_776 ?
F42H B64 F64A F42D -80(15) 2_776 . . 2_776 ?
F42G B64 F64A F42D 91(15) 2_776 . . 2_776 ?
F42E B64 F64A F42D 6(13) 2_776 . . 2_776 ?
F42A B64 F64A F42G 52(18) 2_776 . . 2_776 ?
F64B B64 F64A F42G 52(6) . . . 2_776 ?
F64C B64 F64A F42G 172(6) . . . 2_776 ?
F64D B64 F64A F42G -68(6) . . . 2_776 ?
B42 B64 F64A F42G -83(8) 2_776 . . 2_776 ?
F42H B64 F64A F42G -171(9) 2_776 . . 2_776 ?
F42E B64 F64A F42G -85(6) 2_776 . . 2_776 ?
F42A B64 F64A F42F 135(20) 2_776 . . 2_776 ?
F64B B64 F64A F42F 135(6) . . . 2_776 ?
F64C B64 F64A F42F -105(6) . . . 2_776 ?
F64D B64 F64A F42F 15(6) . . . 2_776 ?
B42 B64 F64A F42F 0(5) 2_776 . . 2_776 ?
F42H B64 F64A F42F -88(7) 2_776 . . 2_776 ?
F42G B64 F64A F42F 83(6) 2_776 . . 2_776 ?
F42E B64 F64A F42F -2(6) 2_776 . . 2_776 ?
F64A B64 F64B F42A 0(14) . . . 2_776 ?
F64C B64 F64B F42A -120(14) . . . 2_776 ?
F64D B64 F64B F42A 120(14) . . . 2_776 ?
B42 B64 F64B F42A 37(12) 2_776 . . 2_776 ?
F42H B64 F64B F42A -49(13) 2_776 . . 2_776 ?
F42G B64 F64B F42A 40(13) 2_776 . . 2_776 ?
F42E B64 F64B F42A 103(16) 2_776 . . 2_776 ?
F42A B64 F64B Pd21 172(14) 2_776 . . 2_776 ?
F64A B64 F64B Pd21 172(3) . . . 2_776 ?
F64C B64 F64B Pd21 51(4) . . . 2_776 ?
F64D B64 F64B Pd21 -68(4) . . . 2_776 ?
B42 B64 F64B Pd21 -152(5) 2_776 . . 2_776 ?
F42H B64 F64B Pd21 122(6) 2_776 . . 2_776 ?
F42G B64 F64B Pd21 -148(6) 2_776 . . 2_776 ?
F42E B64 F64B Pd21 -85(7) 2_776 . . 2_776 ?
F42A B64 F64C F42H 61(10) 2_776 . . 2_776 ?
F64B B64 F64C F42H 135(8) . . . 2_776 ?
F64A B64 F64C F42H 15(7) . . . 2_776 ?
F64D B64 F64C F42H -105(8) . . . 2_776 ?
B42 B64 F64C F42H -26(6) 2_776 . . 2_776 ?
F42G B64 F64C F42H 34(17) 2_776 . . 2_776 ?
F42E B64 F64C F42H -75(7) 2_776 . . 2_776 ?
F42A B64 F64D F42E -82(15) 2_776 . . 2_776 ?
F64B B64 F64D F42E -155(12) . . . 2_776 ?
F64A B64 F64D F42E -35(12) . . . 2_776 ?
F64C B64 F64D F42E 85(12) . . . 2_776 ?
B42 B64 F64D F42E -26(9) 2_776 . . 2_776 ?
F42H B64 F64D F42E 17(13) 2_776 . . 2_776 ?
F42G B64 F64D F42E -82(11) 2_776 . . 2_776 ?
F42A B64 F64D F42C -28(13) 2_776 . . 2_776 ?
F64B B64 F64D F42C -102(6) . . . 2_776 ?
F64A B64 F64D F42C 18(6) . . . 2_776 ?
F64C B64 F64D F42C 138(6) . . . 2_776 ?
B42 B64 F64D F42C 28(4) 2_776 . . 2_776 ?
F42H B64 F64D F42C 71(8) 2_776 . . 2_776 ?
F42G B64 F64D F42C -29(5) 2_776 . . 2_776 ?
F42E B64 F64D F42C 54(9) 2_776 . . 2_776 ?
F42A B64 F64D B42 -56(10) 2_776 . . 2_776 ?
F64B B64 F64D B42 -130(5) . . . 2_776 ?
F64A B64 F64D B42 -10(4) . . . 2_776 ?
F64C B64 F64D B42 111(5) . . . 2_776 ?
F42H B64 F64D B42 43(5) 2_776 . . 2_776 ?
F42G B64 F64D B42 -57(4) 2_776 . . 2_776 ?
F42E B64 F64D B42 26(9) 2_776 . . 2_776 ?
N2C Pd1 N1D C1D 88.8(16) . . . . ?
N2G Pd1 N1D C1D -90.7(13) . . . . ?
N1A Pd1 N1D C1D 64(14) . . . . ?
N42I Pd1 N1D C1D -92(8) . . . . ?
N42X Pd1 N1D C1D 97(3) . . . . ?
N2C Pd1 N1D C5D -93.3(15) . . . . ?
N2G Pd1 N1D C5D 87.2(12) . . . . ?
N1A Pd1 N1D C5D -118(14) . . . . ?
N42I Pd1 N1D C5D 86(8) . . . . ?
N42X Pd1 N1D C5D -85(3) . . . . ?
C5D N1D C1D C2D 0.0 . . . . ?
Pd1 N1D C1D C2D 177.7(13) . . . . ?
N1D C1D C2D C3D 0.0 . . . . ?
C1D C2D C3D C4D 0.0 . . . . ?
C1D C2D C3D N4D 159(2) . . . . ?
C2D C3D C4D C5D 0.0 . . . . ?
N4D C3D C4D C5D -155(3) . . . . ?
C3D C4D C5D N1D 0.0 . . . . ?
C1D N1D C5D C4D 0.0 . . . . ?
Pd1 N1D C5D C4D -178.0(11) . . . . ?
N2R Pd4 N2D C10D 86.9(16) . . . . ?
N1E Pd4 N2D C10D -92.4(11) . . . . ?
N42M Pd4 N2D C10D -130(10) 2_775 . . . ?
N1S Pd4 N2D C10D 65(12) . . . . ?
N42W Pd4 N2D C10D 84(2) . . . . ?
N2R Pd4 N2D C6D -93.4(17) . . . . ?
N1E Pd4 N2D C6D 87.3(12) . . . . ?
N42M Pd4 N2D C6D 49(10) 2_775 . . . ?
N1S Pd4 N2D C6D -115(12) . . . . ?
N42W Pd4 N2D C6D -96(2) . . . . ?
C10D N2D C6D C7D 0.0 . . . . ?
Pd4 N2D C6D C7D -179.7(12) . . . . ?
N2D C6D C7D C8D 0.0 . . . . ?
C6D C7D C8D C9D 0.0 . . . . ?
C6D C7D C8D C13D -178(2) . . . . ?
C7D C8D C9D C10D 0.0 . . . . ?
C13D C8D C9D C10D 177(3) . . . . ?
C8D C9D C10D N2D 0.0 . . . . ?
C6D N2D C10D C9D 0.0 . . . . ?
Pd4 N2D C10D C9D 179.7(11) . . . . ?
C13D N3D N4D C11D -3(2) . . . . ?
C13D N3D N4D C3D 158(3) . . . . ?
C2D C3D N4D N3D 23(3) . . . . ?
C4D C3D N4D N3D -179.8(19) . . . . ?
C2D C3D N4D C11D -178(2) . . . . ?
C4D C3D N4D C11D -21(3) . . . . ?
N3D N4D C11D C12D -2(2) . . . . ?
C3D N4D C11D C12D -163(3) . . . . ?
N4D C11D C12D C13D 6(3) . . . . ?
N4D N3D C13D C8D 171(3) . . . . ?
N4D N3D C13D C12D 7(3) . . . . ?
C9D C8D C13D N3D -170(2) . . . . ?
C7D C8D C13D N3D 7(4) . . . . ?
C9D C8D C13D C12D -7(4) . . . . ?
C7D C8D C13D C12D 171(3) . . . . ?
C11D C12D C13D N3D -8(4) . . . . ?
C11D C12D C13D C8D -174(3) . . . . ?
N2D Pd4 N1E C1E -87.2(12) . . . . ?
N2R Pd4 N1E C1E 99(15) . . . . ?
N42M Pd4 N1E C1E 86(2) 2_775 . . . ?
N1S Pd4 N1E C1E 95.3(15) . . . . ?
N42W Pd4 N1E C1E -102(10) . . . . ?
N2D Pd4 N1E C5E 90.6(12) . . . . ?
N2R Pd4 N1E C5E -83(15) . . . . ?
N42M Pd4 N1E C5E -96(2) 2_775 . . . ?
N1S Pd4 N1E C5E -86.8(15) . . . . ?
N42W Pd4 N1E C5E 76(10) . . . . ?
C5E N1E C1E C2E 0.0 . . . . ?
Pd4 N1E C1E C2E 177.8(12) . . . . ?
N1E C1E C2E C3E 0.0 . . . . ?
C1E C2E C3E C4E 0.0 . . . . ?
C1E C2E C3E N4E 166(2) . . . . ?
C2E C3E C4E C5E 0.0 . . . . ?
N4E C3E C4E C5E -165(2) . . . . ?
C3E C4E C5E N1E 0.0 . . . . ?
C1E N1E C5E C4E 0.0 . . . . ?
Pd4 N1E C5E C4E -177.9(12) . . . . ?
N1T Pd5 N2E C6E -91.4(17) . . . . ?
N1U Pd5 N2E C6E -106(16) . . . . ?
N1F Pd5 N2E C6E 87.5(13) . . . . ?
N42N Pd5 N2E C6E -95(3) 2_775 . . . ?
N42S Pd5 N2E C6E 102(12) 2_775 . . . ?
N1T Pd5 N2E C10E 90.4(16) . . . . ?
N1U Pd5 N2E C10E 76(16) . . . . ?
N1F Pd5 N2E C10E -90.7(12) . . . . ?
N42N Pd5 N2E C10E 87(3) 2_775 . . . ?
N42S Pd5 N2E C10E -76(12) 2_775 . . . ?
C10E N2E C6E C7E 0.0 . . . . ?
Pd5 N2E C6E C7E -178.1(13) . . . . ?
N2E C6E C7E C8E 0.0 . . . . ?
C6E C7E C8E C9E 0.0 . . . . ?
C6E C7E C8E C13E -164(2) . . . . ?
C7E C8E C9E C10E 0.0 . . . . ?
C13E C8E C9E C10E 161(3) . . . . ?
C8E C9E C10E N2E 0.0 . . . . ?
C6E N2E C10E C9E 0.0 . . . . ?
Pd5 N2E C10E C9E 178.3(12) . . . . ?
C13E N3E N4E C11E 0(2) . . . . ?
C13E N3E N4E C3E 173(3) . . . . ?
C2E C3E N4E N3E 13(3) . . . . ?
C4E C3E N4E N3E 178.5(18) . . . . ?
C2E C3E N4E C11E -176.1(19) . . . . ?
C4E C3E N4E C11E -10(3) . . . . ?
N3E N4E C11E C12E -1(2) . . . . ?
C3E N4E C11E C12E -173(3) . . . . ?
N4E C11E C12E C13E 1(3) . . . . ?
N4E N3E C13E C8E -171(3) . . . . ?
N4E N3E C13E C12E 0(3) . . . . ?
C9E C8E C13E N3E -177(2) . . . . ?
C7E C8E C13E N3E -14(4) . . . . ?
C9E C8E C13E C12E 14(4) . . . . ?
C7E C8E C13E C12E 176(3) . . . . ?
C11E C12E C13E N3E 0(4) . . . . ?
C11E C12E C13E C8E 170(3) . . . . ?
N1T Pd5 N1F C1F 81(16) . . . . ?
N1U Pd5 N1F C1F 92.4(19) . . . . ?
N2E Pd5 N1F C1F -89.1(12) . . . . ?
N42N Pd5 N1F C1F -103(13) 2_775 . . . ?
N42S Pd5 N1F C1F 93(2) 2_775 . . . ?
N1T Pd5 N1F C5F -97(15) . . . . ?
N1U Pd5 N1F C5F -84.9(18) . . . . ?
N2E Pd5 N1F C5F 93.6(12) . . . . ?
N42N Pd5 N1F C5F 79(13) 2_775 . . . ?
N42S Pd5 N1F C5F -84(2) 2_775 . . . ?
C5F N1F C1F C2F 0.0 . . . . ?
Pd5 N1F C1F C2F -177.3(13) . . . . ?
N1F C1F C2F C3F 0.0 . . . . ?
C1F C2F C3F C4F 0.0 . . . . ?
C1F C2F C3F N4F -179(2) . . . . ?
C2F C3F C4F C5F 0.0 . . . . ?
N4F C3F C4F C5F 179(3) . . . . ?
C3F C4F C5F N1F 0.0 . . . . ?
C1F N1F C5F C4F 0.0 . . . . ?
Pd5 N1F C5F C4F 177.4(12) . . . . ?
N1V Pd6 N2F C6F -90.5(16) . . . . ?
N1H Pd6 N2F C6F -120(15) . . . . ?
N1G Pd6 N2F C6F 88.2(13) . . . . ?
N42J Pd6 N2F C6F 92(13) . . . . ?
N42T Pd6 N2F C6F -95(2) 2_775 . . . ?
N1V Pd6 N2F C10F 88.8(15) . . . . ?
N1H Pd6 N2F C10F 59(15) . . . . ?
N1G Pd6 N2F C10F -92.6(12) . . . . ?
N42J Pd6 N2F C10F -89(13) . . . . ?
N42T Pd6 N2F C10F 84(2) 2_775 . . . ?
C10F N2F C6F C7F 0.0 . . . . ?
Pd6 N2F C6F C7F 179.3(12) . . . . ?
N2F C6F C7F C8F 0.0 . . . . ?
C6F C7F C8F C9F 0.0 . . . . ?
C6F C7F C8F C13F -172(2) . . . . ?
C7F C8F C9F C10F 0.0 . . . . ?
C13F C8F C9F C10F 171(3) . . . . ?
C8F C9F C10F N2F 0.0 . . . . ?
C6F N2F C10F C9F 0.0 . . . . ?
Pd6 N2F C10F C9F -179.3(12) . . . . ?
C13F N3F N4F C11F 1(2) . . . . ?
C13F N3F N4F C3F -171(3) . . . . ?
C4F C3F N4F N3F 173.8(18) . . . . ?
C2F C3F N4F N3F -7(3) . . . . ?
C4F C3F N4F C11F 2(4) . . . . ?
C2F C3F N4F C11F -179(2) . . . . ?
N3F N4F C11F C12F 1(2) . . . . ?
C3F N4F C11F C12F 173(4) . . . . ?
N4F C11F C12F C13F -3(3) . . . . ?
N4F N3F C13F C12F -3(4) . . . . ?
N4F N3F C13F C8F -171(3) . . . . ?
C11F C12F C13F N3F 4(5) . . . . ?
C11F C12F C13F C8F 172(3) . . . . ?
C7F C8F C13F N3F -8(4) . . . . ?
C9F C8F C13F N3F -180(2) . . . . ?
C7F C8F C13F C12F -176(3) . . . . ?
C9F C8F C13F C12F 12(4) . . . . ?
N1V Pd6 N1G C1G 74(15) . . . . ?
N1H Pd6 N1G C1G 89.8(18) . . . . ?
N2F Pd6 N1G C1G -93.3(13) . . . . ?
N42J Pd6 N1G C1G 87(3) . . . . ?
N42T Pd6 N1G C1G -109(11) 2_775 . . . ?
N1V Pd6 N1G C5G -102(15) . . . . ?
N1H Pd6 N1G C5G -86.5(17) . . . . ?
N2F Pd6 N1G C5G 90.5(12) . . . . ?
N42J Pd6 N1G C5G -89(3) . . . . ?
N42T Pd6 N1G C5G 75(11) 2_775 . . . ?
C5G N1G C1G C2G 0.0 . . . . ?
Pd6 N1G C1G C2G -176.1(12) . . . . ?
N1G C1G C2G C3G 0.0 . . . . ?
C1G C2G C3G C4G 0.0 . . . . ?
C1G C2G C3G N4G 177(2) . . . . ?
C2G C3G C4G C5G 0.0 . . . . ?
N4G C3G C4G C5G -175(3) . . . . ?
C3G C4G C5G N1G 0.0 . . . . ?
C1G N1G C5G C4G 0.0 . . . . ?
Pd6 N1G C5G C4G 176.4(11) . . . . ?
N2C Pd1 N2G C6G -87(16) . . . . ?
N1A Pd1 N2G C6G -89.9(14) . . . . ?
N1D Pd1 N2G C6G 87.8(12) . . . . ?
N42I Pd1 N2G C6G -93(2) . . . . ?
N42X Pd1 N2G C6G 123(9) . . . . ?
N2C Pd1 N2G C10G 91(16) . . . . ?
N1A Pd1 N2G C10G 87.9(14) . . . . ?
N1D Pd1 N2G C10G -94.5(12) . . . . ?
N42I Pd1 N2G C10G 85(2) . . . . ?
N42X Pd1 N2G C10G -59(9) . . . . ?
C10G N2G C6G C7G 0.0 . . . . ?
Pd1 N2G C6G C7G 177.8(12) . . . . ?
N2G C6G C7G C8G 0.0 . . . . ?
C6G C7G C8G C9G 0.0 . . . . ?
C6G C7G C8G C13G -177(3) . . . . ?
C7G C8G C9G C10G 0.0 . . . . ?
C13G C8G C9G C10G 177(3) . . . . ?
C8G C9G C10G N2G 0.0 . . . . ?
C6G N2G C10G C9G 0.0 . . . . ?
Pd1 N2G C10G C9G -177.8(12) . . . . ?
C13G N3G N4G C11G -1(2) . . . . ?
C13G N3G N4G C3G 173(4) . . . . ?
C4G C3G N4G N3G -174(2) . . . . ?
C2G C3G N4G N3G 10(4) . . . . ?
C4G C3G N4G C11G 1(3) . . . . ?
C2G C3G N4G C11G -175.2(17) . . . . ?
N3G N4G C11G C12G -1(2) . . . . ?
C3G N4G C11G C12G -177(3) . . . . ?
N4G C11G C12G C13G 3(3) . . . . ?
N4G N3G C13G C12G 4(4) . . . . ?
N4G N3G C13G C8G 175(3) . . . . ?
C11G C12G C13G N3G -5(5) . . . . ?
C11G C12G C13G C8G -175(3) . . . . ?
C9G C8G C13G N3G -176(2) . . . . ?
C7G C8G C13G N3G 1(4) . . . . ?
C9G C8G C13G C12G -6(5) . . . . ?
C7G C8G C13G C12G 172(3) . . . . ?
N2H Pd7 N1I C1I -91.8(16) . . . . ?
N1W Pd7 N1I C1I -118(14) . . . . ?
N42U Pd7 N1I C1I 74(10) 2_775 . . . ?
N1J Pd7 N1I C1I 89.7(13) . . . . ?
N42G Pd7 N1I C1I -85.5(17) . . . . ?
N2H Pd7 N1I C5I 84.8(16) . . . . ?
N1W Pd7 N1I C5I 59(15) . . . . ?
N42U Pd7 N1I C5I -109(10) 2_775 . . . ?
N1J Pd7 N1I C5I -93.7(12) . . . . ?
N42G Pd7 N1I C5I 91.1(17) . . . . ?
C5I N1I C1I C2I 0.0 . . . . ?
Pd7 N1I C1I C2I 176.5(12) . . . . ?
N1I C1I C2I C3I 0.0 . . . . ?
C1I C2I C3I C4I 0.0 . . . . ?
C1I C2I C3I N4I -177(2) . . . . ?
C2I C3I C4I C5I 0.0 . . . . ?
N4I C3I C4I C5I 177(2) . . . . ?
C3I C4I C5I N1I 0.0 . . . . ?
C1I N1I C5I C4I 0.0 . . . . ?
Pd7 N1I C5I C4I -176.6(12) . . . . ?
N2A Pd2 N2I C6I 94.6(15) . . . . ?
N2L Pd2 N2I C6I -87.0(11) . . . . ?
N1B Pd2 N2I C6I 124(10) . . . . ?
N42Q Pd2 N2I C6I -95(10) . . . . ?
N42H Pd2 N2I C6I 90(2) . . . . ?
N2A Pd2 N2I C10I -84.5(16) . . . . ?
N2L Pd2 N2I C10I 93.9(12) . . . . ?
N1B Pd2 N2I C10I -55(10) . . . . ?
N42Q Pd2 N2I C10I 85(10) . . . . ?
N42H Pd2 N2I C10I -89(2) . . . . ?
C10I N2I C6I C7I 0.0 . . . . ?
Pd2 N2I C6I C7I -179.1(11) . . . . ?
N2I C6I C7I C8I 0.0 . . . . ?
C6I C7I C8I C9I 0.0 . . . . ?
C6I C7I C8I C13I 179(3) . . . . ?
C7I C8I C9I C10I 0.0 . . . . ?
C13I C8I C9I C10I -179(3) . . . . ?
C8I C9I C10I N2I 0.0 . . . . ?
C6I N2I C10I C9I 0.0 . . . . ?
Pd2 N2I C10I C9I 179.1(12) . . . . ?
C13I N3I N4I C11I 2(2) . . . . ?
C13I N3I N4I C3I -177(3) . . . . ?
C4I C3I N4I C11I 0(3) . . . . ?
C2I C3I N4I C11I 176.5(18) . . . . ?
C4I C3I N4I N3I 177.7(17) . . . . ?
C2I C3I N4I N3I -5(3) . . . . ?
N3I N4I C11I C12I 0(2) . . . . ?
C3I N4I C11I C12I 178(3) . . . . ?
N4I C11I C12I C13I -2(3) . . . . ?
N4I N3I C13I C12I -3(4) . . . . ?
N4I N3I C13I C8I -173(3) . . . . ?
C11I C12I C13I N3I 3(5) . . . . ?
C11I C12I C13I C8I 172(3) . . . . ?
C7I C8I C13I N3I -3(4) . . . . ?
C9I C8I C13I N3I 176(2) . . . . ?
C7I C8I C13I C12I -172(3) . . . . ?
C9I C8I C13I C12I 8(5) . . . . ?
N2H Pd7 N1J C1J 102(12) . . . . ?
N1W Pd7 N1J C1J 93.4(16) . . . . ?
N42U Pd7 N1J C1J 87(3) 2_775 . . . ?
N1I Pd7 N1J C1J -89.3(13) . . . . ?
N42G Pd7 N1J C1J -66(8) . . . . ?
N2H Pd7 N1J C5J -77(12) . . . . ?
N1W Pd7 N1J C5J -85.9(16) . . . . ?
N42U Pd7 N1J C5J -93(3) 2_775 . . . ?
N1I Pd7 N1J C5J 91.3(12) . . . . ?
N42G Pd7 N1J C5J 115(8) . . . . ?
C5J N1J C1J C2J 0.0 . . . . ?
Pd7 N1J C1J C2J -179.3(12) . . . . ?
N1J C1J C2J C3J 0.0 . . . . ?
C1J C2J C3J C4J 0.0 . . . . ?
C1J C2J C3J N4J 171(2) . . . . ?
C2J C3J C4J C5J 0.0 . . . . ?
N4J C3J C4J C5J -169(3) . . . . ?
C1J N1J C5J C4J 0.0 . . . . ?
Pd7 N1J C5J C4J 179.4(11) . . . . ?
C3J C4J C5J N1J 0.0 . . . . ?
N1X Pd8 N2J C6J -91.8(16) . . . . ?
N1K Pd8 N2J C6J 91.1(12) . . . . ?
N2S Pd8 N2J C6J -124(14) 2_775 . . . ?
N42C Pd8 N2J C6J 78(10) 2_775 . . . ?
N42V Pd8 N2J C6J -91(3) 2_775 . . . ?
N1X Pd8 N2J C10J 88.0(16) . . . . ?
N1K Pd8 N2J C10J -89.1(12) . . . . ?
N2S Pd8 N2J C10J 55(14) 2_775 . . . ?
N42C Pd8 N2J C10J -103(10) 2_775 . . . ?
N42V Pd8 N2J C10J 89(3) 2_775 . . . ?
C10J N2J C6J C7J 0.0 . . . . ?
Pd8 N2J C6J C7J 179.8(12) . . . . ?
N2J C6J C7J C8J 0.0 . . . . ?
C6J C7J C8J C9J 0.0 . . . . ?
C6J C7J C8J C13J -171(3) . . . . ?
C7J C8J C9J C10J 0.0 . . . . ?
C13J C8J C9J C10J 171(3) . . . . ?
C8J C9J C10J N2J 0.0 . . . . ?
C6J N2J C10J C9J 0.0 . . . . ?
Pd8 N2J C10J C9J -179.8(12) . . . . ?
C13J N3J N4J C11J 1(2) . . . . ?
C13J N3J N4J C3J 172(3) . . . . ?
C2J C3J N4J N3J 10(4) . . . . ?
C4J C3J N4J N3J 180(2) . . . . ?
C2J C3J N4J C11J 179(2) . . . . ?
C4J C3J N4J C11J -11(4) . . . . ?
N3J N4J C11J C12J 0(2) . . . . ?
C3J N4J C11J C12J -170(4) . . . . ?
N4J C11J C12J C13J -1(3) . . . . ?
N4J N3J C13J C12J -2(4) . . . . ?
N4J N3J C13J C8J -180(3) . . . . ?
C11J C12J C13J N3J 2(4) . . . . ?
C11J C12J C13J C8J 180(3) . . . . ?
C9J C8J C13J N3J -176(2) . . . . ?
C7J C8J C13J N3J -5(4) . . . . ?
C9J C8J C13J C12J 6(4) . . . . ?
C7J C8J C13J C12J 177(3) . . . . ?
N2J Pd8 N1K C1K -90.8(13) . . . . ?
N1X Pd8 N1K C1K 127(17) . . . . ?
N2S Pd8 N1K C1K 92.6(16) 2_775 . . . ?
N42C Pd8 N1K C1K 86(3) 2_775 . . . ?
N42V Pd8 N1K C1K -99(9) 2_775 . . . ?
N2J Pd8 N1K C5K 93.4(12) . . . . ?
N1X Pd8 N1K C5K -48(17) . . . . ?
N2S Pd8 N1K C5K -83.2(16) 2_775 . . . ?
N42C Pd8 N1K C5K -90(3) 2_775 . . . ?
N42V Pd8 N1K C5K 85(9) 2_775 . . . ?
C5K N1K C1K C2K 0.0 . . . . ?
Pd8 N1K C1K C2K -175.8(13) . . . . ?
N1K C1K C2K C3K 0.0 . . . . ?
C1K C2K C3K C4K 0.0 . . . . ?
C1K C2K C3K N4K 175(2) . . . . ?
C2K C3K C4K C5K 0.0 . . . . ?
N4K C3K C4K C5K -175(2) . . . . ?
C3K C4K C5K N1K 0.0 . . . . ?
C1K N1K C5K C4K 0.0 . . . . ?
Pd8 N1K C5K C4K 175.8(13) . . . . ?
N2T Pd9 N2K C6K -93.0(16) 2_775 . . . ?
N1L Pd9 N2K C6K 90.8(12) . . . . ?
N1M Pd9 N2K C6K -142(7) . . . . ?
N42D Pd9 N2K C6K -84(3) 2_775 . . . ?
N42R Pd9 N2K C6K 76(10) . . . . ?
N2T Pd9 N2K C10K 83.5(16) 2_775 . . . ?
N1L Pd9 N2K C10K -92.7(12) . . . . ?
N1M Pd9 N2K C10K 34(8) . . . . ?
N42D Pd9 N2K C10K 93(3) 2_775 . . . ?
N42R Pd9 N2K C10K -107(10) . . . . ?
C10K N2K C6K C7K 0.0 . . . . ?
Pd9 N2K C6K C7K 176.5(12) . . . . ?
N2K C6K C7K C8K 0.0 . . . . ?
C6K C7K C8K C9K 0.0 . . . . ?
C6K C7K C8K C13K -179(3) . . . . ?
C7K C8K C9K C10K 0.0 . . . . ?
C13K C8K C9K C10K 179(3) . . . . ?
C6K N2K C10K C9K 0.0 . . . . ?
Pd9 N2K C10K C9K -176.4(13) . . . . ?
C8K C9K C10K N2K 0.0 . . . . ?
C13K N3K N4K C11K 1(2) . . . . ?
C13K N3K N4K C3K 178(3) . . . . ?
C4K C3K N4K C11K 0(3) . . . . ?
C2K C3K N4K C11K -175.0(19) . . . . ?
C4K C3K N4K N3K -176.6(17) . . . . ?
C2K C3K N4K N3K 8(3) . . . . ?
N3K N4K C11K C12K 1(2) . . . . ?
C3K N4K C11K C12K -175(3) . . . . ?
N4K C11K C12K C13K -3(3) . . . . ?
N4K N3K C13K C12K -3(4) . . . . ?
N4K N3K C13K C8K 175(3) . . . . ?
C11K C12K C13K N3K 4(4) . . . . ?
C11K C12K C13K C8K -174(3) . . . . ?
C9K C8K C13K N3K 178(2) . . . . ?
C7K C8K C13K N3K -3(4) . . . . ?
C9K C8K C13K C12K -4(5) . . . . ?
C7K C8K C13K C12K 175(3) . . . . ?
N2T Pd9 N1L C1L 132(14) 2_775 . . . ?
N2K Pd9 N1L C1L -91.3(13) . . . . ?
N1M Pd9 N1L C1L 95.7(15) . . . . ?
N42D Pd9 N1L C1L -65(12) 2_775 . . . ?
N42R Pd9 N1L C1L 86(2) . . . . ?
N2T Pd9 N1L C5L -48(14) 2_775 . . . ?
N2K Pd9 N1L C5L 88.7(12) . . . . ?
N1M Pd9 N1L C5L -84.3(14) . . . . ?
N42D Pd9 N1L C5L 115(11) 2_775 . . . ?
N42R Pd9 N1L C5L -94(2) . . . . ?
C5L N1L C1L C2L 0.0 . . . . ?
Pd9 N1L C1L C2L 180.0(13) . . . . ?
N1L C1L C2L C3L 0.0 . . . . ?
C1L C2L C3L C4L 0.0 . . . . ?
C1L C2L C3L N4L 177(2) . . . . ?
C2L C3L C4L C5L 0.0 . . . . ?
N4L C3L C4L C5L -176(3) . . . . ?
C3L C4L C5L N1L 0.0 . . . . ?
C1L N1L C5L C4L 0.0 . . . . ?
Pd9 N1L C5L C4L 180.0(12) . . . . ?
N2A Pd2 N2L C6L -102(14) . . . . ?
N2I Pd2 N2L C6L 91.9(14) . . . . ?
N1B Pd2 N2L C6L -92.4(17) . . . . ?
N42Q Pd2 N2L C6L -90(2) . . . . ?
N42H Pd2 N2L C6L 81(9) . . . . ?
N2A Pd2 N2L C10L 77(14) . . . . ?
N2I Pd2 N2L C10L -88.6(12) . . . . ?
N1B Pd2 N2L C10L 87.1(16) . . . . ?
N42Q Pd2 N2L C10L 89(2) . . . . ?
N42H Pd2 N2L C10L -100(9) . . . . ?
C10L N2L C6L C7L 0.0 . . . . ?
Pd2 N2L C6L C7L 179.4(13) . . . . ?
N2L C6L C7L C8L 0.0 . . . . ?
C6L C7L C8L C9L 0.0 . . . . ?
C6L C7L C8L C13L -168(2) . . . . ?
C7L C8L C9L C10L 0.0 . . . . ?
C13L C8L C9L C10L 166(3) . . . . ?
C8L C9L C10L N2L 0.0 . . . . ?
C6L N2L C10L C9L 0.0 . . . . ?
Pd2 N2L C10L C9L -179.5(11) . . . . ?
C13L N3L N4L C3L -172(3) . . . . ?
C13L N3L N4L C11L 1(2) . . . . ?
C2L C3L N4L N3L 0(4) . . . . ?
C4L C3L N4L N3L 175.9(19) . . . . ?
C2L C3L N4L C11L -172.8(19) . . . . ?
C4L C3L N4L C11L 3(3) . . . . ?
N3L N4L C11L C12L 0(2) . . . . ?
C3L N4L C11L C12L 173(4) . . . . ?
N4L C11L C12L C13L -1(3) . . . . ?
N4L N3L C13L C12L -1(4) . . . . ?
N4L N3L C13L C8L -168(3) . . . . ?
C11L C12L C13L N3L 1(5) . . . . ?
C11L C12L C13L C8L 168(3) . . . . ?
C9L C8L C13L N3L 177(2) . . . . ?
C7L C8L C13L N3L -16(4) . . . . ?
C9L C8L C13L C12L 11(5) . . . . ?
C7L C8L C13L C12L 178(3) . . . . ?
N2M Pd10 N1N C1N -92.0(17) . . . . ?
N1O Pd10 N1N C1N 90.0(13) . . . . ?
N2U Pd10 N1N C1N -142(10) 2_775 . . . ?
N42E Pd10 N1N C1N 63(11) 2_775 . . . ?
N42O Pd10 N1N C1N -88(3) . . . . ?
N2M Pd10 N1N C5N 86.8(17) . . . . ?
N1O Pd10 N1N C5N -91.1(13) . . . . ?
N2U Pd10 N1N C5N 36(10) 2_775 . . . ?
N42E Pd10 N1N C5N -118(10) 2_775 . . . ?
N42O Pd10 N1N C5N 91(3) . . . . ?
C5N N1N C1N C2N 0.0 . . . . ?
Pd10 N1N C1N C2N 178.8(13) . . . . ?
N1N C1N C2N C3N 0.0 . . . . ?
C1N C2N C3N C4N 0.0 . . . . ?
C1N C2N C3N N4N -167(2) . . . . ?
C2N C3N C4N C5N 0.0 . . . . ?
N4N C3N C4N C5N 166(2) . . . . ?
C3N C4N C5N N1N 0.0 . . . . ?
C1N N1N C5N C4N 0.0 . . . . ?
Pd10 N1N C5N C4N -178.8(13) . . . . ?
N1C Pd3 N2N C6N 71(13) . . . . ?
N2B Pd3 N2N C6N 90.9(17) . . . . ?
N2Q Pd3 N2N C6N -89.9(12) . . . . ?
N42P Pd3 N2N C6N 86(2) . . . . ?
N42A Pd3 N2N C6N -111(8) . . . . ?
N1C Pd3 N2N C10N -107(13) . . . . ?
N2B Pd3 N2N C10N -87.0(17) . . . . ?
N2Q Pd3 N2N C10N 92.2(12) . . . . ?
N42P Pd3 N2N C10N -92(2) . . . . ?
N42A Pd3 N2N C10N 71(8) . . . . ?
C10N N2N C6N C7N 0.0 . . . . ?
Pd3 N2N C6N C7N -177.9(12) . . . . ?
N2N C6N C7N C8N 0.0 . . . . ?
C6N C7N C8N C9N 0.0 . . . . ?
C6N C7N C8N C13N 170(2) . . . . ?
C7N C8N C9N C10N 0.0 . . . . ?
C13N C8N C9N C10N -169(3) . . . . ?
C8N C9N C10N N2N 0.0 . . . . ?
C6N N2N C10N C9N 0.0 . . . . ?
Pd3 N2N C10N C9N 178.0(11) . . . . ?
C13N N3N N4N C11N -1(2) . . . . ?
C13N N3N N4N C3N -167(3) . . . . ?
C4N C3N N4N N3N 178.3(18) . . . . ?
C2N C3N N4N N3N -15(3) . . . . ?
C4N C3N N4N C11N 14(3) . . . . ?
C2N C3N N4N C11N -180(2) . . . . ?
N3N N4N C11N C12N 0(2) . . . . ?
C3N N4N C11N C12N 165(3) . . . . ?
N4N C11N C12N C13N 1(3) . . . . ?
N4N N3N C13N C12N 1(3) . . . . ?
N4N N3N C13N C8N 178(3) . . . . ?
C11N C12N C13N N3N -1(4) . . . . ?
C11N C12N C13N C8N -178(3) . . . . ?
C7N C8N C13N N3N 6(4) . . . . ?
C9N C8N C13N N3N 175(2) . . . . ?
C7N C8N C13N C12N -178(3) . . . . ?
C9N C8N C13N C12N -9(4) . . . . ?
N2M Pd10 N1O C1O 119(22) . . . . ?
N1N Pd10 N1O C1O -90.2(12) . . . . ?
N2U Pd10 N1O C1O 95.0(14) 2_775 . . . ?
N42E Pd10 N1O C1O 84(2) 2_775 . . . ?
N42O Pd10 N1O C1O -83(12) . . . . ?
N2M Pd10 N1O C5O -57(22) . . . . ?
N1N Pd10 N1O C5O 93.1(12) . . . . ?
N2U Pd10 N1O C5O -81.7(14) 2_775 . . . ?
N42E Pd10 N1O C5O -92(2) 2_775 . . . ?
N42O Pd10 N1O C5O 100(12) . . . . ?
C5O N1O C1O C2O 0.0 . . . . ?
Pd10 N1O C1O C2O -176.7(13) . . . . ?
N1O C1O C2O C3O 0.0 . . . . ?
C1O C2O C3O C4O 0.0 . . . . ?
C1O C2O C3O N4O 175(2) . . . . ?
C2O C3O C4O C5O 0.0 . . . . ?
N4O C3O C4O C5O -175(2) . . . . ?
C3O C4O C5O N1O 0.0 . . . . ?
C1O N1O C5O C4O 0.0 . . . . ?
Pd10 N1O C5O C4O 176.8(12) . . . . ?
N2W Pd11 N2O C6O -129(14) 2_775 . . . ?
N1P Pd11 N2O C6O 89.4(13) . . . . ?
N2V Pd11 N2O C6O -92.9(17) 2_775 . . . ?
N42F Pd11 N2O C6O -94(2) 2_775 . . . ?
N42K Pd11 N2O C6O 107(13) 2_775 . . . ?
N2W Pd11 N2O C10O 49(14) 2_775 . . . ?
N1P Pd11 N2O C10O -92.4(12) . . . . ?
N2V Pd11 N2O C10O 85.3(17) 2_775 . . . ?
N42F Pd11 N2O C10O 84(2) 2_775 . . . ?
N42K Pd11 N2O C10O -74(13) 2_775 . . . ?
C10O N2O C6O C7O 0.0 . . . . ?
Pd11 N2O C6O C7O 178.2(11) . . . . ?
N2O C6O C7O C8O 0.0 . . . . ?
C6O C7O C8O C9O 0.0 . . . . ?
C6O C7O C8O C13O -174(2) . . . . ?
C7O C8O C9O C10O 0.0 . . . . ?
C13O C8O C9O C10O 173(3) . . . . ?
C8O C9O C10O N2O 0.0 . . . . ?
C6O N2O C10O C9O 0.0 . . . . ?
Pd11 N2O C10O C9O -178.2(12) . . . . ?
C2O C3O N4O C11O 178(2) . . . . ?
C4O C3O N4O C11O -7(3) . . . . ?
C2O C3O N4O N3O 4(3) . . . . ?
C4O C3O N4O N3O 179.1(16) . . . . ?
C13O N3O N4O C11O 3(2) . . . . ?
C13O N3O N4O C3O 177(3) . . . . ?
C3O N4O C11O C12O -173(4) . . . . ?
N3O N4O C11O C12O 1(2) . . . . ?
N4O C11O C12O C13O -4(3) . . . . ?
N4O N3O C13O C12O -5(4) . . . . ?
N4O N3O C13O C8O -178(3) . . . . ?
C11O C12O C13O N3O 6(4) . . . . ?
C11O C12O C13O C8O 180(3) . . . . ?
C7O C8O C13O N3O -4(4) . . . . ?
C9O C8O C13O N3O -177(2) . . . . ?
C7O C8O C13O C12O -177(3) . . . . ?
C9O C8O C13O C12O 10(4) . . . . ?
N2W Pd11 N1P C1P 89.7(18) 2_775 . . . ?
N2O Pd11 N1P C1P -94.5(13) . . . . ?
N2V Pd11 N1P C1P 116(20) 2_775 . . . ?
N42F Pd11 N1P C1P -107(9) 2_775 . . . ?
N42K Pd11 N1P C1P 89(2) 2_775 . . . ?
N2W Pd11 N1P C5P -84.4(18) 2_775 . . . ?
N2O Pd11 N1P C5P 91.4(12) . . . . ?
N2V Pd11 N1P C5P -59(20) 2_775 . . . ?
N42F Pd11 N1P C5P 79(9) 2_775 . . . ?
N42K Pd11 N1P C5P -85(2) 2_775 . . . ?
C5P N1P C1P C2P 0.0 . . . . ?
Pd11 N1P C1P C2P -174.1(12) . . . . ?
N1P C1P C2P C3P 0.0 . . . . ?
C1P C2P C3P C4P 0.0 . . . . ?
C1P C2P C3P N4P 171(2) . . . . ?
C2P C3P C4P C5P 0.0 . . . . ?
N4P C3P C4P C5P -171(2) . . . . ?
C1P N1P C5P C4P 0.0 . . . . ?
Pd11 N1P C5P C4P 174.2(12) . . . . ?
C3P C4P C5P N1P 0.0 . . . . ?
N2X Pd12 N2P C6P -86.6(14) 2_775 . . . ?
N1Q Pd12 N2P C6P 90.4(13) . . . . ?
N1R Pd12 N2P C6P -106(18) . . . . ?
N42L Pd12 N2P C6P -95(3) 2_775 . . . ?
N42B Pd12 N2P C6P 86(18) . . . . ?
N2X Pd12 N2P C10P 90.7(14) 2_775 . . . ?
N1Q Pd12 N2P C10P -92.3(12) . . . . ?
N1R Pd12 N2P C10P 71(19) . . . . ?
N42L Pd12 N2P C10P 82(3) 2_775 . . . ?
N42B Pd12 N2P C10P -96(18) . . . . ?
C10P N2P C6P C7P 0.0 . . . . ?
Pd12 N2P C6P C7P 177.3(12) . . . . ?
N2P C6P C7P C8P 0.0 . . . . ?
C6P C7P C8P C9P 0.0 . . . . ?
C6P C7P C8P C13P 180(3) . . . . ?
C7P C8P C9P C10P 0.0 . . . . ?
C13P C8P C9P C10P -180(3) . . . . ?
C8P C9P C10P N2P 0.0 . . . . ?
C6P N2P C10P C9P 0.0 . . . . ?
Pd12 N2P C10P C9P -177.4(12) . . . . ?
C4P C3P N4P C11P -10(4) . . . . ?
C2P C3P N4P C11P 179(2) . . . . ?
C4P C3P N4P N3P -173.5(18) . . . . ?
C2P C3P N4P N3P 15(3) . . . . ?
C13P N3P N4P C11P 2(2) . . . . ?
C13P N3P N4P C3P 168(3) . . . . ?
C3P N4P C11P C12P -163(4) . . . . ?
N3P N4P C11P C12P 1(2) . . . . ?
N4P C11P C12P C13P -4(3) . . . . ?
N4P N3P C13P C12P -5(4) . . . . ?
N4P N3P C13P C8P 169(3) . . . . ?
C11P C12P C13P N3P 6(4) . . . . ?
C11P C12P C13P C8P -168(3) . . . . ?
C9P C8P C13P N3P -177(2) . . . . ?
C7P C8P C13P N3P 4(4) . . . . ?
C9P C8P C13P C12P -3(5) . . . . ?
C7P C8P C13P C12P 177(3) . . . . ?
N2X Pd12 N1Q C1Q 57(13) 2_775 . . . ?
N2P Pd12 N1Q C1Q -90.8(13) . . . . ?
N1R Pd12 N1Q C1Q 90.6(18) . . . . ?
N42L Pd12 N1Q C1Q -112(8) 2_775 . . . ?
N42B Pd12 N1Q C1Q 88(3) . . . . ?
N2X Pd12 N1Q C5Q -119(13) 2_775 . . . ?
N2P Pd12 N1Q C5Q 93.3(12) . . . . ?
N1R Pd12 N1Q C5Q -85.2(17) . . . . ?
N42L Pd12 N1Q C5Q 73(9) 2_775 . . . ?
N42B Pd12 N1Q C5Q -87(3) . . . . ?
C5Q N1Q C1Q C2Q 0.0 . . . . ?
Pd12 N1Q C1Q C2Q -175.7(13) . . . . ?
N1Q C1Q C2Q C3Q 0.0 . . . . ?
C1Q C2Q C3Q N4Q 174(2) . . . . ?
C1Q C2Q C3Q C4Q 0.0 . . . . ?
N4Q C3Q C4Q C5Q -174(3) . . . . ?
C2Q C3Q C4Q C5Q 0.0 . . . . ?
C3Q C4Q C5Q N1Q 0.0 . . . . ?
C1Q N1Q C5Q C4Q 0.0 . . . . ?
Pd12 N1Q C5Q C4Q 176.1(13) . . . . ?
N1C Pd3 N2Q C6Q -88.5(15) . . . . ?
N2B Pd3 N2Q C6Q -101(23) . . . . ?
N2N Pd3 N2Q C6Q 89.5(12) . . . . ?
N42P Pd3 N2Q C6Q 66(12) . . . . ?
N42A Pd3 N2Q C6Q -95(2) . . . . ?
N1C Pd3 N2Q C10Q 90.3(15) . . . . ?
N2B Pd3 N2Q C10Q 78(23) . . . . ?
N2N Pd3 N2Q C10Q -91.7(11) . . . . ?
N42P Pd3 N2Q C10Q -115(11) . . . . ?
N42A Pd3 N2Q C10Q 83.7(19) . . . . ?
C10Q N2Q C6Q C7Q 0.0 . . . . ?
Pd3 N2Q C6Q C7Q 178.8(12) . . . . ?
N2Q C6Q C7Q C8Q 0.0 . . . . ?
C6Q C7Q C8Q C9Q 0.0 . . . . ?
C6Q C7Q C8Q C13Q -175(2) . . . . ?
C7Q C8Q C9Q C10Q 0.0 . . . . ?
C13Q C8Q C9Q C10Q 174(3) . . . . ?
C8Q C9Q C10Q N2Q 0.0 . . . . ?
C6Q N2Q C10Q C9Q 0.0 . . . . ?
Pd3 N2Q C10Q C9Q -178.8(11) . . . . ?
C4Q C3Q N4Q N3Q -173.3(18) . . . . ?
C2Q C3Q N4Q N3Q 13(3) . . . . ?
C4Q C3Q N4Q C11Q 0(3) . . . . ?
C2Q C3Q N4Q C11Q -174.3(18) . . . . ?
C13Q N3Q N4Q C3Q 173(3) . . . . ?
C13Q N3Q N4Q C11Q 0(2) . . . . ?
C3Q N4Q C11Q C12Q -172(3) . . . . ?
N3Q N4Q C11Q C12Q 1(2) . . . . ?
N4Q C11Q C12Q C13Q -1(3) . . . . ?
N4Q N3Q C13Q C8Q 174(3) . . . . ?
N4Q N3Q C13Q C12Q 0(3) . . . . ?
C9Q C8Q C13Q N3Q -177(2) . . . . ?
C7Q C8Q C13Q N3Q -3(4) . . . . ?
C9Q C8Q C13Q C12Q -4(5) . . . . ?
C7Q C8Q C13Q C12Q 170(3) . . . . ?
C11Q C12Q C13Q N3Q 1(4) . . . . ?
C11Q C12Q C13Q C8Q -173(3) . . . . ?
N2C Pd1 N1A C1A -85.4(18) . . . . ?
N2G Pd1 N1A C1A 94.3(15) . . . . ?
N1D Pd1 N1A C1A -60(14) . . . . ?
N42I Pd1 N1A C1A 101(7) . . . . ?
N42X Pd1 N1A C1A -93(3) . . . . ?
N2C Pd1 N1A C5A 91.9(17) . . . . ?
N2G Pd1 N1A C5A -88.4(15) . . . . ?
N1D Pd1 N1A C5A 117(13) . . . . ?
N42I Pd1 N1A C5A -82(7) . . . . ?
N42X Pd1 N1A C5A 84(3) . . . . ?
C5A N1A C1A C2A 0.0 . . . . ?
Pd1 N1A C1A C2A 177.3(18) . . . . ?
N1A C1A C2A C3A 0.0 . . . . ?
C1A C2A C3A C4A 0.0 . . . . ?
C1A C2A C3A N4A 170(3) . . . . ?
C2A C3A C4A C5A 0.0 . . . . ?
N4A C3A C4A C5A -170(3) . . . . ?
C3A C4A C5A N1A 0.0 . . . . ?
C1A N1A C5A C4A 0.0 . . . . ?
Pd1 N1A C5A C4A -177.4(17) . . . . ?
N2I Pd2 N2A C6A -94.8(15) . . . . ?
N2L Pd2 N2A C6A 99(14) . . . . ?
N1B Pd2 N2A C6A 89.3(19) . . . . ?
N42Q Pd2 N2A C6A 87(2) . . . . ?
N42H Pd2 N2A C6A -83(8) . . . . ?
N2I Pd2 N2A C10A 84.0(17) . . . . ?
N2L Pd2 N2A C10A -82(14) . . . . ?
N1B Pd2 N2A C10A -92(2) . . . . ?
N42Q Pd2 N2A C10A -94(3) . . . . ?
N42H Pd2 N2A C10A 96(8) . . . . ?
C10A N2A C6A C7A 0.0 . . . . ?
Pd2 N2A C6A C7A 178.8(18) . . . . ?
N2A C6A C7A C8A 0.0 . . . . ?
C6A C7A C8A C9A 0.0 . . . . ?
C6A C7A C8A C13A -175(3) . . . . ?
C7A C8A C9A C10A 0.0 . . . . ?
C13A C8A C9A C10A 175(3) . . . . ?
C8A C9A C10A N2A 0.0 . . . . ?
C6A N2A C10A C9A 0.0 . . . . ?
Pd2 N2A C10A C9A -179(2) . . . . ?
C13A N3A N4A C11A 0(2) . . . . ?
C13A N3A N4A C3A 164(4) . . . . ?
C4A C3A N4A C11A -19(5) . . . . ?
C2A C3A N4A C11A 171(4) . . . . ?
C4A C3A N4A N3A -176(2) . . . . ?
C2A C3A N4A N3A 14(4) . . . . ?
N3A N4A C11A C12A 0(2) . . . . ?
C3A N4A C11A C12A -157(5) . . . . ?
N4A C11A C12A C13A -1(4) . . . . ?
N4A N3A C13A C12A -1(4) . . . . ?
N4A N3A C13A C8A -170(4) . . . . ?
C11A C12A C13A N3A 1(5) . . . . ?
C11A C12A C13A C8A 170(4) . . . . ?
C9A C8A C13A N3A 177(3) . . . . ?
C7A C8A C13A N3A -8(6) . . . . ?
C9A C8A C13A C12A 8(5) . . . . ?
C7A C8A C13A C12A -176(3) . . . . ?
N2A Pd2 N1B C1B -92.3(18) . . . . ?
N2I Pd2 N1B C1B -122(10) . . . . ?
N2L Pd2 N1B C1B 88.8(14) . . . . ?
N42Q Pd2 N1B C1B 82(8) . . . . ?
N42H Pd2 N1B C1B -90(2) . . . . ?
N2A Pd2 N1B C5B 88.7(19) . . . . ?
N2I Pd2 N1B C5B 59(10) . . . . ?
N2L Pd2 N1B C5B -90.1(16) . . . . ?
N42Q Pd2 N1B C5B -97(8) . . . . ?
N42H Pd2 N1B C5B 91(2) . . . . ?
C5B N1B C1B C2B 0.0 . . . . ?
Pd2 N1B C1B C2B -179.0(17) . . . . ?
N1B C1B C2B C3B 0.0 . . . . ?
C1B C2B C3B C4B 0.0 . . . . ?
C1B C2B C3B N4B 168(3) . . . . ?
C2B C3B C4B C5B 0.0 . . . . ?
N4B C3B C4B C5B -170(3) . . . . ?
C3B C4B C5B N1B 0.0 . . . . ?
C1B N1B C5B C4B 0.0 . . . . ?
Pd2 N1B C5B C4B 178.9(18) . . . . ?
N1C Pd3 N2B C6B 84.1(17) . . . . ?
N2Q Pd3 N2B C6B 97(23) . . . . ?
N2N Pd3 N2B C6B -93.7(14) . . . . ?
N42P Pd3 N2B C6B -74(11) . . . . ?
N42A Pd3 N2B C6B 91(2) . . . . ?
N1C Pd3 N2B C10B -92.5(19) . . . . ?
N2Q Pd3 N2B C10B -80(23) . . . . ?
N2N Pd3 N2B C10B 89.7(16) . . . . ?
N42P Pd3 N2B C10B 109(12) . . . . ?
N42A Pd3 N2B C10B -86(2) . . . . ?
C10B N2B C6B C7B 0.0 . . . . ?
Pd3 N2B C6B C7B -176.8(18) . . . . ?
N2B C6B C7B C8B 0.0 . . . . ?
C6B C7B C8B C9B 0.0 . . . . ?
C6B C7B C8B C13B -168(4) . . . . ?
C7B C8B C9B C10B 0.0 . . . . ?
C13B C8B C9B C10B 171(3) . . . . ?
C8B C9B C10B N2B 0.0 . . . . ?
C6B N2B C10B C9B 0.0 . . . . ?
Pd3 N2B C10B C9B 176.5(19) . . . . ?
C13B N3B N4B C11B 0(2) . . . . ?
C13B N3B N4B C3B 160(4) . . . . ?
C2B C3B N4B N3B 19(5) . . . . ?
C4B C3B N4B N3B -171(3) . . . . ?
C2B C3B N4B C11B 174(3) . . . . ?
C4B C3B N4B C11B -16(5) . . . . ?
N3B N4B C11B C12B 1(2) . . . . ?
C3B N4B C11B C12B -155(5) . . . . ?
N4B C11B C12B C13B -1(4) . . . . ?
N4B N3B C13B C12B -1(4) . . . . ?
N4B N3B C13B C8B -169(4) . . . . ?
C11B C12B C13B N3B 1(5) . . . . ?
C11B C12B C13B C8B 165(6) . . . . ?
C9B C8B C13B N3B 179(3) . . . . ?
C7B C8B C13B N3B -12(6) . . . . ?
C9B C8B C13B C12B 16(7) . . . . ?
C7B C8B C13B C12B -175(5) . . . . ?
N2B Pd3 N1C C1C -88(2) . . . . ?
N2Q Pd3 N1C C1C 92.9(17) . . . . ?
N2N Pd3 N1C C1C -68(13) . . . . ?
N42P Pd3 N1C C1C -83(2) . . . . ?
N42A Pd3 N1C C1C 113(7) . . . . ?
N2B Pd3 N1C C5C 95.1(19) . . . . ?
N2Q Pd3 N1C C5C -84.0(15) . . . . ?
N2N Pd3 N1C C5C 115(12) . . . . ?
N42P Pd3 N1C C5C 100(2) . . . . ?
N42A Pd3 N1C C5C -63(7) . . . . ?
C5C N1C C1C C2C 0.0 . . . . ?
Pd3 N1C C1C C2C -176.7(19) . . . . ?
N1C C1C C2C C3C 0.0 . . . . ?
C1C C2C C3C C4C 0.0 . . . . ?
C1C C2C C3C N4C 176(3) . . . . ?
C2C C3C C4C C5C 0.0 . . . . ?
N4C C3C C4C C5C -176(3) . . . . ?
C3C C4C C5C N1C 0.0 . . . . ?
C1C N1C C5C C4C 0.0 . . . . ?
Pd3 N1C C5C C4C 177.1(17) . . . . ?
N2G Pd1 N2C C6C 81(16) . . . . ?
N1A Pd1 N2C C6C 84.8(18) . . . . ?
N1D Pd1 N2C C6C -92.9(15) . . . . ?
N42I Pd1 N2C C6C 87(3) . . . . ?
N42X Pd1 N2C C6C -120(9) . . . . ?
N2G Pd1 N2C C10C -101(16) . . . . ?
N1A Pd1 N2C C10C -97.2(17) . . . . ?
N1D Pd1 N2C C10C 85.1(15) . . . . ?
N42I Pd1 N2C C10C -95(2) . . . . ?
N42X Pd1 N2C C10C 58(8) . . . . ?
C10C N2C C6C C7C 0.0 . . . . ?
Pd1 N2C C6C C7C 178.0(18) . . . . ?
N2C C6C C7C C8C 0.0 . . . . ?
C6C C7C C8C C9C 0.0 . . . . ?
C6C C7C C8C C13C 176(3) . . . . ?
C7C C8C C9C C10C 0.0 . . . . ?
C13C C8C C9C C10C -177(3) . . . . ?
C8C C9C C10C N2C 0.0 . . . . ?
C6C N2C C10C C9C 0.0 . . . . ?
Pd1 N2C C10C C9C -178.1(17) . . . . ?
C13C N3C N4C C11C 0(2) . . . . ?
C13C N3C N4C C3C 163(4) . . . . ?
C2C C3C N4C N3C 10(5) . . . . ?
C4C C3C N4C N3C -174(3) . . . . ?
C2C C3C N4C C11C 172(3) . . . . ?
C4C C3C N4C C11C -12(4) . . . . ?
N3C N4C C11C C12C -1(2) . . . . ?
C3C N4C C11C C12C -165(4) . . . . ?
N4C C11C C12C C13C 2(4) . . . . ?
N4C N3C C13C C12C 2(4) . . . . ?
N4C N3C C13C C8C -178(4) . . . . ?
C11C C12C C13C N3C -2(5) . . . . ?
C11C C12C C13C C8C 177(5) . . . . ?
C7C C8C C13C N3C 5(5) . . . . ?
C9C C8C C13C N3C -179(3) . . . . ?
C7C C8C C13C C12C -174(4) . . . . ?
C9C C8C C13C C12C 2(6) . . . . ?
N1V Pd6 N1H C1H 84.4(18) . . . . ?
N2F Pd6 N1H C1H 114(14) . . . . ?
N1G Pd6 N1H C1H -94.0(15) . . . . ?
N42J Pd6 N1H C1H -86(11) . . . . ?
N42T Pd6 N1H C1H 90(2) 2_775 . . . ?
N1V Pd6 N1H C5H -97(2) . . . . ?
N2F Pd6 N1H C5H -67(15) . . . . ?
N1G Pd6 N1H C5H 84.8(18) . . . . ?
N42J Pd6 N1H C5H 92(11) . . . . ?
N42T Pd6 N1H C5H -92(2) 2_775 . . . ?
C5H N1H C1H C2H 0.0 . . . . ?
Pd6 N1H C1H C2H 178.8(17) . . . . ?
N1H C1H C2H C3H 0.0 . . . . ?
C1H C2H C3H C4H 0.0 . . . . ?
C1H C2H C3H N4H -172(4) . . . . ?
C2H C3H C4H C5H 0.0 . . . . ?
N4H C3H C4H C5H 173(3) . . . . ?
C3H C4H C5H N1H 0.0 . . . . ?
C1H N1H C5H C4H 0.0 . . . . ?
Pd6 N1H C5H C4H -179(2) . . . . ?
N1W Pd7 N2H C6H -89.4(19) . . . . ?
N42U Pd7 N2H C6H -83(3) 2_775 . . . ?
N1I Pd7 N2H C6H 93.3(15) . . . . ?
N1J Pd7 N2H C6H -98(12) . . . . ?
N42G Pd7 N2H C6H 74(6) . . . . ?
N1W Pd7 N2H C10H 93(2) . . . . ?
N42U Pd7 N2H C10H 99(3) 2_775 . . . ?
N1I Pd7 N2H C10H -84.7(17) . . . . ?
N1J Pd7 N2H C10H 84(12) . . . . ?
N42G Pd7 N2H C10H -104(6) . . . . ?
C10H N2H C6H C7H 0.0 . . . . ?
Pd7 N2H C6H C7H -178.1(17) . . . . ?
N2H C6H C7H C8H 0.0 . . . . ?
C6H C7H C8H C9H 0.0 . . . . ?
C6H C7H C8H C13H 169(4) . . . . ?
C7H C8H C9H C10H 0.0 . . . . ?
C13H C8H C9H C10H -171(3) . . . . ?
C8H C9H C10H N2H 0.0 . . . . ?
C6H N2H C10H C9H 0.0 . . . . ?
Pd7 N2H C10H C9H 178.0(18) . . . . ?
C13H N3H N4H C11H 0(2) . . . . ?
C13H N3H N4H C3H -163(4) . . . . ?
C2H C3H N4H C11H -174(3) . . . . ?
C4H C3H N4H C11H 14(5) . . . . ?
C2H C3H N4H N3H -15(5) . . . . ?
C4H C3H N4H N3H 173(3) . . . . ?
N3H N4H C11H C12H 0(2) . . . . ?
C3H N4H C11H C12H 160(5) . . . . ?
N4H C11H C12H C13H -1(4) . . . . ?
N4H N3H C13H C12H 0(4) . . . . ?
N4H N3H C13H C8H 167(4) . . . . ?
C11H C12H C13H N3H 1(5) . . . . ?
C11H C12H C13H C8H -162(6) . . . . ?
C9H C8H C13H N3H -178(3) . . . . ?
C7H C8H C13H N3H 12(5) . . . . ?
C9H C8H C13H C12H -16(7) . . . . ?
C7H C8H C13H C12H 174(5) . . . . ?
N2T Pd9 N1M C1M 87.5(18) 2_775 . . . ?
N1L Pd9 N1M C1M -95.8(14) . . . . ?
N2K Pd9 N1M C1M 137(7) . . . . ?
N42D Pd9 N1M C1M 80(3) 2_775 . . . ?
N42R Pd9 N1M C1M -65(7) . . . . ?
N2T Pd9 N1M C5M -92(2) 2_775 . . . ?
N1L Pd9 N1M C5M 84.6(19) . . . . ?
N2K Pd9 N1M C5M -42(8) . . . . ?
N42D Pd9 N1M C5M -99(3) 2_775 . . . ?
N42R Pd9 N1M C5M 115(7) . . . . ?
C5M N1M C1M C2M 0.0 . . . . ?
Pd9 N1M C1M C2M -179.6(17) . . . . ?
N1M C1M C2M C3M 0.0 . . . . ?
C1M C2M C3M C4M 0.0 . . . . ?
C1M C2M C3M N4M -173(4) . . . . ?
C2M C3M C4M C5M 0.0 . . . . ?
N4M C3M C4M C5M 174(3) . . . . ?
C3M C4M C5M N1M 0.0 . . . . ?
C1M N1M C5M C4M 0.0 . . . . ?
Pd9 N1M C5M C4M 180(2) . . . . ?
N1N Pd10 N2M C6M 97.3(15) . . . . ?
N1O Pd10 N2M C6M -112(22) . . . . ?
N2U Pd10 N2M C6M -87.8(17) 2_775 . . . ?
N42E Pd10 N2M C6M -78(3) 2_775 . . . ?
N42O Pd10 N2M C6M 86(12) . . . . ?
N1N Pd10 N2M C10M -87.1(15) . . . . ?
N1O Pd10 N2M C10M 63(23) . . . . ?
N2U Pd10 N2M C10M 87.8(17) 2_775 . . . ?
N42E Pd10 N2M C10M 98(3) 2_775 . . . ?
N42O Pd10 N2M C10M -99(12) . . . . ?
C10M N2M C6M C7M 0.0 . . . . ?
Pd10 N2M C6M C7M 175.6(18) . . . . ?
N2M C6M C7M C8M 0.0 . . . . ?
C6M C7M C8M C9M 0.0 . . . . ?
C6M C7M C8M C13M 173(3) . . . . ?
C7M C8M C9M C10M 0.0 . . . . ?
C13M C8M C9M C10M -172(4) . . . . ?
C8M C9M C10M N2M 0.0 . . . . ?
C6M N2M C10M C9M 0.0 . . . . ?
Pd10 N2M C10M C9M -175.6(18) . . . . ?
C13M N3M N4M C11M 2(2) . . . . ?
C13M N3M N4M C3M -167(4) . . . . ?
C2M C3M N4M N3M -9(5) . . . . ?
C4M C3M N4M N3M 178(3) . . . . ?
C2M C3M N4M C11M -176(3) . . . . ?
C4M C3M N4M C11M 11(5) . . . . ?
N3M N4M C11M C12M 0(2) . . . . ?
C3M N4M C11M C12M 167(6) . . . . ?
N4M C11M C12M C13M -2(4) . . . . ?
N4M N3M C13M C12M -3(4) . . . . ?
N4M N3M C13M C8M 168(5) . . . . ?
C11M C12M C13M N3M 3(5) . . . . ?
C11M C12M C13M C8M -169(4) . . . . ?
C7M C8M C13M N3M 9(5) . . . . ?
C9M C8M C13M N3M -179(3) . . . . ?
C7M C8M C13M C12M 180(3) . . . . ?
C9M C8M C13M C12M -8(5) . . . . ?
N2X Pd12 N1R C1R 82.7(17) 2_775 . . . ?
N2P Pd12 N1R C1R 103(18) . . . . ?
N1Q Pd12 N1R C1R -94.2(15) . . . . ?
N42L Pd12 N1R C1R 92(3) 2_775 . . . ?
N42B Pd12 N1R C1R -86(15) . . . . ?
N2X Pd12 N1R C5R -95.5(18) 2_775 . . . ?
N2P Pd12 N1R C5R -76(19) . . . . ?
N1Q Pd12 N1R C5R 87.7(17) . . . . ?
N42L Pd12 N1R C5R -86(3) 2_775 . . . ?
N42B Pd12 N1R C5R 96(15) . . . . ?
C5R N1R C1R C2R 0.0 . . . . ?
Pd12 N1R C1R C2R -178.2(19) . . . . ?
N1R C1R C2R C3R 0.0 . . . . ?
C1R C2R C3R C4R 0.0 . . . . ?
C1R C2R C3R N4R -170(3) . . . . ?
C2R C3R C4R C5R 0.0 . . . . ?
N4R C3R C4R C5R 170(3) . . . . ?
C3R C4R C5R N1R 0.0 . . . . ?
C1R N1R C5R C4R 0.0 . . . . ?
Pd12 N1R C5R C4R 178.1(19) . . . . ?
N2D Pd4 N2R C6R 95.7(16) . . . . ?
N1E Pd4 N2R C6R -90(15) . . . . ?
N42M Pd4 N2R C6R -78(2) 2_775 . . . ?
N1S Pd4 N2R C6R -86.8(18) . . . . ?
N42W Pd4 N2R C6R 103(10) . . . . ?
N2D Pd4 N2R C10R -84.8(16) . . . . ?
N1E Pd4 N2R C10R 89(15) . . . . ?
N42M Pd4 N2R C10R 102(2) 2_775 . . . ?
N1S Pd4 N2R C10R 92.7(18) . . . . ?
N42W Pd4 N2R C10R -77(10) . . . . ?
C10R N2R C6R C7R 0.0 . . . . ?
Pd4 N2R C6R C7R 179.5(19) . . . . ?
N2R C6R C7R C8R 0.0 . . . . ?
C6R C7R C8R C9R 0.0 . . . . ?
C6R C7R C8R C13R -175(3) . . . . ?
C7R C8R C9R C10R 0.0 . . . . ?
C13R C8R C9R C10R 176(3) . . . . ?
C8R C9R C10R N2R 0.0 . . . . ?
C6R N2R C10R C9R 0.0 . . . . ?
Pd4 N2R C10R C9R -179.5(19) . . . . ?
C13R N3R N4R C11R 1(2) . . . . ?
C13R N3R N4R C3R -155(4) . . . . ?
C4R C3R N4R N3R 169(3) . . . . ?
C2R C3R N4R N3R -20(5) . . . . ?
C4R C3R N4R C11R 18(4) . . . . ?
C2R C3R N4R C11R -172(3) . . . . ?
N3R N4R C11R C12R 1(2) . . . . ?
C3R N4R C11R C12R 155(5) . . . . ?
N4R C11R C12R C13R -2(4) . . . . ?
N4R N3R C13R C12R -3(4) . . . . ?
N4R N3R C13R C8R -174(4) . . . . ?
C11R C12R C13R N3R 3(5) . . . . ?
C11R C12R C13R C8R 173(5) . . . . ?
C7R C8R C13R N3R -11(5) . . . . ?
C9R C8R C13R N3R 174(2) . . . . ?
C7R C8R C13R C12R 179(4) . . . . ?
C9R C8R C13R C12R 3(6) . . . . ?
N2D Pd4 N1S C1S 107(12) . . . . ?
N2R Pd4 N1S C1S 85.2(19) . . . . ?
N1E Pd4 N1S C1S -95.2(14) . . . . ?
N42M Pd4 N1S C1S -63(8) 2_775 . . . ?
N42W Pd4 N1S C1S 88(2) . . . . ?
N2D Pd4 N1S C5S -73(12) . . . . ?
N2R Pd4 N1S C5S -94(2) . . . . ?
N1E Pd4 N1S C5S 85.3(16) . . . . ?
N42M Pd4 N1S C5S 117(8) 2_775 . . . ?
N42W Pd4 N1S C5S -91(3) . . . . ?
C5S N1S C1S C2S 0.0 . . . . ?
Pd4 N1S C1S C2S -179.5(17) . . . . ?
N1S C1S C2S C3S 0.0 . . . . ?
C1S C2S C3S C4S 0.0 . . . . ?
C1S C2S C3S N4S -170(4) . . . . ?
C2S C3S C4S C5S 0.0 . . . . ?
N4S C3S C4S C5S 171(3) . . . . ?
C3S C4S C5S N1S 0.0 . . . . ?
C1S N1S C5S C4S 0.0 . . . . ?
Pd4 N1S C5S C4S 179.5(19) . . . . ?
C10S N2S C6S C7S 0.0 . . . . ?
Pd8 N2S C6S C7S 177.3(17) 2_775 . . . ?
N2S C6S C7S C8S 0.0 . . . . ?
C6S C7S C8S C9S 0.0 . . . . ?
C6S C7S C8S C13S 174(4) . . . . ?
C7S C8S C9S C10S 0.0 . . . . ?
C13S C8S C9S C10S -174(4) . . . . ?
C8S C9S C10S N2S 0.0 . . . . ?
C6S N2S C10S C9S 0.0 . . . . ?
Pd8 N2S C10S C9S -177.0(19) 2_775 . . . ?
C13S N3S N4S C11S 0(2) . . . . ?
C13S N3S N4S C3S -158(5) . . . . ?
C4S C3S N4S N3S 180(3) . . . . ?
C2S C3S N4S N3S -10(5) . . . . ?
C4S C3S N4S C11S 22(5) . . . . ?
C2S C3S N4S C11S -167(3) . . . . ?
C4S C3S N4S C13S 151(8) . . . . ?
C2S C3S N4S C13S -39(10) . . . . ?
N3S N4S C11S C12S 0(3) . . . . ?
C3S N4S C11S C12S 155(6) . . . . ?
C13S N4S C11S C12S 0(3) . . . . ?
N4S C11S C12S C13S 0(4) . . . . ?
N4S N3S C13S C12S 0(5) . . . . ?
N4S N3S C13S C8S 173(5) . . . . ?
C11S C12S C13S N3S 0(6) . . . . ?
C11S C12S C13S C8S -173(5) . . . . ?
C11S C12S C13S N4S 0(3) . . . . ?
C7S C8S C13S N3S -1(6) . . . . ?
C9S C8S C13S N3S 172(3) . . . . ?
C7S C8S C13S C12S 172(3) . . . . ?
C9S C8S C13S C12S -15(5) . . . . ?
C7S C8S C13S N4S 16(17) . . . . ?
C9S C8S C13S N4S -171(14) . . . . ?
C11S N4S C13S N3S 180(2) . . . . ?
C3S N4S C13S N3S 41(10) . . . . ?
N3S N4S C13S C12S -180(4) . . . . ?
C11S N4S C13S C12S 0(3) . . . . ?
C3S N4S C13S C12S -139(10) . . . . ?
N3S N4S C13S C8S -21(15) . . . . ?
C11S N4S C13S C8S 159(15) . . . . ?
C3S N4S C13S C8S 20(23) . . . . ?
N1U Pd5 N1T C1T -89(2) . . . . ?
N2E Pd5 N1T C1T 93.1(16) . . . . ?
N1F Pd5 N1T C1T -76(15) . . . . ?
N42N Pd5 N1T C1T 106(11) 2_775 . . . ?
N42S Pd5 N1T C1T -89(2) 2_775 . . . ?
N1U Pd5 N1T C5T 93(2) . . . . ?
N2E Pd5 N1T C5T -85.5(15) . . . . ?
N1F Pd5 N1T C5T 105(15) . . . . ?
N42N Pd5 N1T C5T -72(11) 2_775 . . . ?
N42S Pd5 N1T C5T 92(2) 2_775 . . . ?
C5T N1T C1T C2T 0.0 . . . . ?
Pd5 N1T C1T C2T -178.5(19) . . . . ?
N1T C1T C2T C3T 0.0 . . . . ?
C1T C2T C3T C4T 0.0 . . . . ?
C1T C2T C3T N4T 174(3) . . . . ?
C2T C3T C4T C5T 0.0 . . . . ?
N4T C3T C4T C5T -174(3) . . . . ?
C3T C4T C5T N1T 0.0 . . . . ?
C1T N1T C5T C4T 0.0 . . . . ?
Pd5 N1T C5T C4T 178.6(18) . . . . ?
C10T N2T C6T C7T 0.0 . . . . ?
Pd9 N2T C6T C7T -174.6(18) 2_775 . . . ?
N2T C6T C7T C8T 0.0 . . . . ?
C6T C7T C8T C9T 0.0 . . . . ?
C6T C7T C8T C13T -170(4) . . . . ?
C7T C8T C9T C10T 0.0 . . . . ?
C13T C8T C9T C10T 172(3) . . . . ?
C8T C9T C10T N2T 0.0 . . . . ?
C6T N2T C10T C9T 0.0 . . . . ?
Pd9 N2T C10T C9T 174(2) 2_775 . . . ?
C13T N3T N4T C11T 1(2) . . . . ?
C13T N3T N4T C3T 163(4) . . . . ?
C4T C3T N4T N3T -177(3) . . . . ?
C2T C3T N4T N3T 9(5) . . . . ?
C4T C3T N4T C11T -20(5) . . . . ?
C2T C3T N4T C11T 166(3) . . . . ?
N3T N4T C11T C12T 0(2) . . . . ?
C3T N4T C11T C12T -159(5) . . . . ?
N4T C11T C12T C13T -1(4) . . . . ?
N4T N3T C13T C12T -2(4) . . . . ?
N4T N3T C13T C8T -170(4) . . . . ?
C11T C12T C13T N3T 2(5) . . . . ?
C11T C12T C13T C8T 169(5) . . . . ?
C7T C8T C13T N3T -6(5) . . . . ?
C9T C8T C13T N3T -176(3) . . . . ?
C7T C8T C13T C12T -173(4) . . . . ?
C9T C8T C13T C12T 16(6) . . . . ?
N1T Pd5 N1U C1U 82(2) . . . . ?
N2E Pd5 N1U C1U 97(15) . . . . ?
N1F Pd5 N1U C1U -96.4(17) . . . . ?
N42N Pd5 N1U C1U 87(3) 2_775 . . . ?
N42S Pd5 N1U C1U -100(12) 2_775 . . . ?
N1T Pd5 N1U C5U -100(2) . . . . ?
N2E Pd5 N1U C5U -85(16) . . . . ?
N1F Pd5 N1U C5U 81.4(18) . . . . ?
N42N Pd5 N1U C5U -96(3) 2_775 . . . ?
N42S Pd5 N1U C5U 78(11) 2_775 . . . ?
C5U N1U C1U C2U 0.0 . . . . ?
Pd5 N1U C1U C2U 178(2) . . . . ?
N1U C1U C2U C3U 0.0 . . . . ?
C1U C2U C3U C4U 0.0 . . . . ?
C1U C2U C3U N4U -173(3) . . . . ?
C2U C3U C4U C5U 0.0 . . . . ?
N4U C3U C4U C5U 174(3) . . . . ?
C3U C4U C5U N1U 0.0 . . . . ?
C1U N1U C5U C4U 0.00(5) . . . . ?
Pd5 N1U C5U C4U -178(2) . . . . ?
C10U N2U C6U C7U 0.0 . . . . ?
Pd10 N2U C6U C7U 177.7(18) 2_775 . . . ?
N2U C6U C7U C8U 0.0 . . . . ?
C6U C7U C8U C9U 0.0 . . . . ?
C6U C7U C8U C13U 179(4) . . . . ?
C7U C8U C9U C10U 0.0 . . . . ?
C13U C8U C9U C10U -179(3) . . . . ?
C8U C9U C10U N2U 0.0 . . . . ?
C6U N2U C10U C9U 0.0 . . . . ?
Pd10 N2U C10U C9U -177(2) 2_775 . . . ?
C13U N3U N4U C11U 0(2) . . . . ?
C13U N3U N4U C3U -164(4) . . . . ?
C2U C3U N4U N3U -12(5) . . . . ?
C4U C3U N4U N3U 174(3) . . . . ?
C2U C3U N4U C11U -174(3) . . . . ?
C4U C3U N4U C11U 13(5) . . . . ?
N3U N4U C11U C12U 0(2) . . . . ?
C3U N4U C11U C12U 162(5) . . . . ?
N4U C11U C12U C13U 1(4) . . . . ?
N4U N3U C13U C12U 1(4) . . . . ?
N4U N3U C13U C8U 179(4) . . . . ?
C11U C12U C13U N3U -1(5) . . . . ?
C11U C12U C13U C8U -178(5) . . . . ?
C7U C8U C13U N3U 1(5) . . . . ?
C9U C8U C13U N3U 180(3) . . . . ?
C7U C8U C13U C12U 179(4) . . . . ?
C9U C8U C13U C12U -2(6) . . . . ?
N1H Pd6 N1V C1V -90(2) . . . . ?
N2F Pd6 N1V C1V 93.6(16) . . . . ?
N1G Pd6 N1V C1V -73(15) . . . . ?
N42J Pd6 N1V C1V -87(3) . . . . ?
N42T Pd6 N1V C1V 109(9) 2_775 . . . ?
N1H Pd6 N1V C5V 91(2) . . . . ?
N2F Pd6 N1V C5V -86.2(15) . . . . ?
N1G Pd6 N1V C5V 107(15) . . . . ?
N42J Pd6 N1V C5V 93(3) . . . . ?
N42T Pd6 N1V C5V -71(9) 2_775 . . . ?
C5V N1V C1V C2V 0.0 . . . . ?
Pd6 N1V C1V C2V -179.8(18) . . . . ?
N1V C1V C2V C3V 0.0 . . . . ?
C1V C2V C3V C4V 0.0 . . . . ?
C1V C2V C3V N4V 170(3) . . . . ?
C2V C3V C4V C5V 0.0 . . . . ?
N4V C3V C4V C5V -170(3) . . . . ?
C3V C4V C5V N1V 0.0 . . . . ?
C1V N1V C5V C4V 0.0 . . . . ?
Pd6 N1V C5V C4V 179.8(17) . . . . ?
C10V N2V C6V C7V 0.0 . . . . ?
Pd11 N2V C6V C7V -178.5(18) 2_775 . . . ?
N2V C6V C7V C8V 0.0 . . . . ?
C6V C7V C8V C9V 0.0 . . . . ?
C6V C7V C8V C13V -172(3) . . . . ?
C7V C8V C9V C10V 0.0 . . . . ?
C13V C8V C9V C10V 172(3) . . . . ?
C8V C9V C10V N2V 0.0 . . . . ?
C6V N2V C10V C9V 0.0 . . . . ?
Pd11 N2V C10V C9V 178.4(18) 2_775 . . . ?
C13V N3V N4V C11V -1(2) . . . . ?
C13V N3V N4V C3V 164(4) . . . . ?
C4V C3V N4V N3V -173(3) . . . . ?
C2V C3V N4V N3V 17(4) . . . . ?
C4V C3V N4V C11V -10(5) . . . . ?
C2V C3V N4V C11V 179(3) . . . . ?
N3V N4V C11V C12V -1(2) . . . . ?
C3V N4V C11V C12V -164(5) . . . . ?
N4V C11V C12V C13V 2(4) . . . . ?
N4V N3V C13V C12V 2(4) . . . . ?
N4V N3V C13V C8V -171(4) . . . . ?
C11V C12V C13V N3V -3(5) . . . . ?
C11V C12V C13V C8V 170(5) . . . . ?
C9V C8V C13V N3V 176(3) . . . . ?
C7V C8V C13V N3V -12(5) . . . . ?
C9V C8V C13V C12V 4(6) . . . . ?
C7V C8V C13V C12V 176(4) . . . . ?
N2H Pd7 N1W C1W 86.4(18) . . . . ?
N42U Pd7 N1W C1W -76(9) 2_775 . . . ?
N1I Pd7 N1W C1W 113(14) . . . . ?
N1J Pd7 N1W C1W -94.8(15) . . . . ?
N42G Pd7 N1W C1W 81.0(18) . . . . ?
N2H Pd7 N1W C5W -93(2) . . . . ?
N42U Pd7 N1W C5W 105(9) 2_775 . . . ?
N1I Pd7 N1W C5W -66(15) . . . . ?
N1J Pd7 N1W C5W 85.8(17) . . . . ?
N42G Pd7 N1W C5W -98(2) . . . . ?
C5W N1W C1W C2W 0.0 . . . . ?
Pd7 N1W C1W C2W -179.4(17) . . . . ?
N1W C1W C2W C3W 0.0 . . . . ?
C1W C2W C3W C4W 0.0 . . . . ?
C1W C2W C3W N4W -167(3) . . . . ?
C2W C3W C4W C5W 0.0 . . . . ?
N4W C3W C4W C5W 168(3) . . . . ?
C3W C4W C5W N1W 0.0 . . . . ?
C1W N1W C5W C4W 0.0 . . . . ?
Pd7 N1W C5W C4W 179.4(18) . . . . ?
C10W N2W C6W C7W 0.0 . . . . ?
Pd11 N2W C6W C7W 179.3(18) 2_775 . . . ?
N2W C6W C7W C8W 0.0 . . . . ?
C6W C7W C8W C9W 0.0 . . . . ?
C6W C7W C8W C13W 176(3) . . . . ?
C7W C8W C9W C10W 0.0 . . . . ?
C13W C8W C9W C10W -176(3) . . . . ?
C8W C9W C10W N2W 0.0 . . . . ?
C6W N2W C10W C9W 0.0 . . . . ?
Pd11 N2W C10W C9W -179.2(19) 2_775 . . . ?
C13W N3W N4W C11W 1(2) . . . . ?
C13W N3W N4W C3W -158(4) . . . . ?
C4W C3W N4W N3W 175(3) . . . . ?
C2W C3W N4W N3W -18(4) . . . . ?
C4W C3W N4W C11W 20(5) . . . . ?
C2W C3W N4W C11W -172(3) . . . . ?
N3W N4W C11W C12W 1(2) . . . . ?
C3W N4W C11W C12W 156(5) . . . . ?
N4W C11W C12W C13W -2(4) . . . . ?
N4W N3W C13W C12W -2(4) . . . . ?
N4W N3W C13W C8W 174(4) . . . . ?
C11W C12W C13W N3W 3(5) . . . . ?
C11W C12W C13W C8W -173(5) . . . . ?
C7W C8W C13W N3W 4(5) . . . . ?
C9W C8W C13W N3W 179(3) . . . . ?
C7W C8W C13W C12W 179(4) . . . . ?
C9W C8W C13W C12W -5(6) . . . . ?
N2J Pd8 N1X C1X 93.6(16) . . . . ?
N1K Pd8 N1X C1X -125(17) . . . . ?
N2S Pd8 N1X C1X -89.6(18) 2_775 . . . ?
N42C Pd8 N1X C1X -84(3) 2_775 . . . ?
N42V Pd8 N1X C1X 92(10) 2_775 . . . ?
N2J Pd8 N1X C5X -86.7(17) . . . . ?
N1K Pd8 N1X C5X 55(18) . . . . ?
N2S Pd8 N1X C5X 90.1(19) 2_775 . . . ?
N42C Pd8 N1X C5X 96(3) 2_775 . . . ?
N42V Pd8 N1X C5X -88(10) 2_775 . . . ?
C5X N1X C1X C2X 0.0 . . . . ?
Pd8 N1X C1X C2X 179.7(18) . . . . ?
N1X C1X C2X C3X 0.0 . . . . ?
C1X C2X C3X C4X 0.0 . . . . ?
C1X C2X C3X N4X -180(3) . . . . ?
C2X C3X C4X C5X 0.0 . . . . ?
N4X C3X C4X C5X 180(3) . . . . ?
C3X C4X C5X N1X 0.0 . . . . ?
C1X N1X C5X C4X 0.0 . . . . ?
Pd8 N1X C5X C4X -179.7(19) . . . . ?
C10X N2X C6X C7X 0.0 . . . . ?
Pd12 N2X C6X C7X -179.2(18) 2_775 . . . ?
N2X C6X C7X C8X 0.0 . . . . ?
C6X C7X C8X C9X 0.0 . . . . ?
C6X C7X C8X C13X -172(3) . . . . ?
C7X C8X C9X C10X 0.0 . . . . ?
C13X C8X C9X C10X 172(3) . . . . ?
C8X C9X C10X N2X 0.0 . . . . ?
C6X N2X C10X C9X 0.0 . . . . ?
Pd12 N2X C10X C9X 179.3(16) 2_775 . . . ?
C13X N3X N4X C11X -1(2) . . . . ?
C13X N3X N4X C3X 177(4) . . . . ?
C2X C3X N4X C11X -177(3) . . . . ?
C4X C3X N4X C11X 3(4) . . . . ?
C2X C3X N4X N3X 5(4) . . . . ?
C4X C3X N4X N3X -175(3) . . . . ?
N3X N4X C11X C12X 0(2) . . . . ?
C3X N4X C11X C12X -178(4) . . . . ?
N4X C11X C12X C13X 2(4) . . . . ?
N4X N3X C13X C12X 2(4) . . . . ?
N4X N3X C13X C8X -165(4) . . . . ?
C11X C12X C13X N3X -3(5) . . . . ?
C11X C12X C13X C8X 163(5) . . . . ?
C9X C8X C13X N3X 173(3) . . . . ?
C7X C8X C13X N3X -15(5) . . . . ?
C9X C8X C13X C12X 9(6) . . . . ?
C7X C8X C13X C12X -179(4) . . . . ?
N41A Pd21 N21A C21A -50(41) . . . . ?
N21D Pd21 N21A C21A -94(3) . . . . ?
N41B Pd21 N21A C21A 82(4) . . . . ?
F64B Pd21 N21A C21A 173(3) 2_776 . . . ?
N41A Pd21 N21A C25A 126(40) . . . . ?
N21D Pd21 N21A C25A 81(3) . . . . ?
N41B Pd21 N21A C25A -102(3) . . . . ?
F64B Pd21 N21A C25A -12(2) 2_776 . . . ?
C25A N21A C21A C22A 0.0 . . . . ?
Pd21 N21A C21A C22A 175(4) . . . . ?
N21A C21A C22A C23A 0.0 . . . . ?
C21A C22A C23A C24A 0.0 . . . . ?
C21A C22A C23A N24A 149(5) . . . . ?
C22A C23A C24A C25A 0.0 . . . . ?
N24A C23A C24A C25A -140(6) . . . . ?
C23A C24A C25A N21A 0.0 . . . . ?
C21A N21A C25A C24A 0.0 . . . . ?
Pd21 N21A C25A C24A -176(3) . . . . ?
N41C Pd22 N22A C26A -81(4) . . . . ?
N41D Pd22 N22A C26A 118(100) . . . . ?
N21B Pd22 N22A C26A 94(3) . . . . ?
N41C Pd22 N22A C30A 97(3) . . . . ?
N41D Pd22 N22A C30A -65(100) . . . . ?
N21B Pd22 N22A C30A -88(3) . . . . ?
C30A N22A C26A C27A 0.0 . . . . ?
Pd22 N22A C26A C27A 178(4) . . . . ?
N22A C26A C27A C28A 0.0 . . . . ?
C26A C27A C28A C29A 0.0 . . . . ?
C26A C27A C28A C33A -180(6) . . . . ?
C27A C28A C29A C30A 0.0 . . . . ?
C33A C28A C29A C30A 180(8) . . . . ?
C28A C29A C30A N22A 0.0 . . . . ?
C26A N22A C30A C29A 0.0 . . . . ?
Pd22 N22A C30A C29A -178(4) . . . . ?
C33A N23A N24A C31A 1(3) . . . . ?
C33A N23A N24A C23A 147(7) . . . . ?
C22A C23A N24A N23A 45(7) . . . . ?
C24A C23A N24A N23A -170(4) . . . . ?
C22A C23A N24A C31A -176(5) . . . . ?
C24A C23A N24A C31A -31(9) . . . . ?
N23A N24A C31A C32A 1(2) . . . . ?
C23A N24A C31A C32A -146(7) . . . . ?
N24A C31A C32A C33A -2(4) . . . . ?
N24A N23A C33A C32A -3(4) . . . . ?
N24A N23A C33A C28A 172(8) . . . . ?
C31A C32A C33A N23A 3(5) . . . . ?
C31A C32A C33A C28A -172(7) . . . . ?
C29A C28A C33A N23A 178(5) . . . . ?
C27A C28A C33A N23A -2(9) . . . . ?
C29A C28A C33A C32A -8(10) . . . . ?
C27A C28A C33A C32A 172(5) . . . . ?
N22A Pd22 N21B C21B -96(3) . . . . ?
N41C Pd22 N21B C21B -41(23) . . . . ?
N41D Pd22 N21B C21B 84(3) . . . . ?
N22A Pd22 N21B C25B 92(3) . . . . ?
N41C Pd22 N21B C25B 147(22) . . . . ?
N41D Pd22 N21B C25B -88(3) . . . . ?
C25B N21B C21B C22B 0.0 . . . . ?
Pd22 N21B C21B C22B -172(3) . . . . ?
N21B C21B C22B C23B 0.0 . . . . ?
C21B C22B C23B C24B 0.0 . . . . ?
C21B C22B C23B N24B -171(5) . . . . ?
C22B C23B C24B C25B 0.0 . . . . ?
N24B C23B C24B C25B 170(6) . . . . ?
C23B C24B C25B N21B 0.0 . . . . ?
C21B N21B C25B C24B 0.0 . . . . ?
Pd22 N21B C25B C24B 172(3) . . . . ?
N41F Pd23 N22B C26B 18(28) . . . . ?
N41E Pd23 N22B C26B -94(3) . . . . ?
N21C Pd23 N22B C26B 88(3) . . . . ?
N41F Pd23 N22B C30B -154(26) . . . . ?
N41E Pd23 N22B C30B 94(3) . . . . ?
N21C Pd23 N22B C30B -84(3) . . . . ?
C30B N22B C26B C27B 0.0 . . . . ?
Pd23 N22B C26B C27B -171(3) . . . . ?
N22B C26B C27B C28B 0.0 . . . . ?
C26B C27B C28B C29B 0.0 . . . . ?
C26B C27B C28B C33B -154(6) . . . . ?
C27B C28B C29B C30B 0.0 . . . . ?
C33B C28B C29B C30B 154(6) . . . . ?
C28B C29B C30B N22B 0.0 . . . . ?
C26B N22B C30B C29B 0.0 . . . . ?
Pd23 N22B C30B C29B 172(3) . . . . ?
C33B N23B N24B C31B -1(3) . . . . ?
C33B N23B N24B C23B -168(6) . . . . ?
C22B C23B N24B N23B -6(6) . . . . ?
C24B C23B N24B N23B -177(4) . . . . ?
C22B C23B N24B C31B -174(3) . . . . ?
C24B C23B N24B C31B 16(7) . . . . ?
N23B N24B C31B C32B -1(3) . . . . ?
C23B N24B C31B C32B 166(6) . . . . ?
N24B C31B C32B C33B 3(4) . . . . ?
N24B N23B C33B C32B 3(5) . . . . ?
N24B N23B C33B C28B -163(6) . . . . ?
C31B C32B C33B N23B -4(6) . . . . ?
C31B C32B C33B C28B 159(7) . . . . ?
C29B C28B C33B N23B -178(4) . . . . ?
C27B C28B C33B N23B -23(7) . . . . ?
C29B C28B C33B C32B 18(9) . . . . ?
C27B C28B C33B C32B 173(5) . . . . ?
N41F Pd23 N21C C21C 89(3) . . . . ?
N41E Pd23 N21C C21C -127(45) . . . . ?
N22B Pd23 N21C C21C -86(3) . . . . ?
N41F Pd23 N21C C25C -96(3) . . . . ?
N41E Pd23 N21C C25C 48(46) . . . . ?
N22B Pd23 N21C C25C 88(3) . . . . ?
C25C N21C C21C C22C 0.0 . . . . ?
Pd23 N21C C21C C22C 175(3) . . . . ?
N21C C21C C22C C23C 0.0 . . . . ?
C21C C22C C23C C24C 0.0 . . . . ?
C21C C22C C23C N24C 159(5) . . . . ?
C22C C23C C24C C25C 0.0 . . . . ?
N24C C23C C24C C25C -159(5) . . . . ?
C23C C24C C25C N21C 0.0 . . . . ?
C21C N21C C25C C24C 0.0 . . . . ?
Pd23 N21C C25C C24C -175(3) . . . . ?
N41G Pd24 N22C C26C -95(3) . . . . ?
N41H Pd24 N22C C26C 58(43) . . . . ?
N22D Pd24 N22C C26C 78(3) . . . . ?
N41G Pd24 N22C C30C 97(3) . . . . ?
N41H Pd24 N22C C30C -110(42) . . . . ?
N22D Pd24 N22C C30C -90(3) . . . . ?
C30C N22C C26C C27C 0.0 . . . . ?
Pd24 N22C C26C C27C -168(3) . . . . ?
N22C C26C C27C C28C 0.0 . . . . ?
C26C C27C C28C C29C 0.0 . . . . ?
C26C C27C C28C C33C -147(5) . . . . ?
C27C C28C C29C C30C 0.0 . . . . ?
C33C C28C C29C C30C 148(5) . . . . ?
C28C C29C C30C N22C 0.0 . . . . ?
C26C N22C C30C C29C 0.0 . . . . ?
Pd24 N22C C30C C29C 168(3) . . . . ?
C33C N23C N24C C31C 1(2) . . . . ?
C33C N23C N24C C23C 167(6) . . . . ?
C22C C23C N24C N23C 20(6) . . . . ?
C24C C23C N24C N23C 179(3) . . . . ?
C22C C23C N24C C31C -177(4) . . . . ?
C24C C23C N24C C31C -18(7) . . . . ?
N23C N24C C31C C32C -1(3) . . . . ?
C23C N24C C31C C32C -165(7) . . . . ?
N24C C31C C32C C33C 0(4) . . . . ?
N24C N23C C33C C32C -1(4) . . . . ?
N24C N23C C33C C28C -163(5) . . . . ?
C31C C32C C33C N23C 0(5) . . . . ?
C31C C32C C33C C28C 160(6) . . . . ?
C29C C28C C33C N23C -173(4) . . . . ?
C27C C28C C33C N23C -24(7) . . . . ?
C29C C28C C33C C32C 29(7) . . . . ?
C27C C28C C33C C32C 178(5) . . . . ?
N41A Pd21 N21D C21D -87(3) . . . . ?
N21A Pd21 N21D C21D 90(3) . . . . ?
N41B Pd21 N21D C21D -4(29) . . . . ?
F64B Pd21 N21D C21D 175(3) 2_776 . . . ?
N41A Pd21 N21D C25D 91(3) . . . . ?
N21A Pd21 N21D C25D -92(3) . . . . ?
N41B Pd21 N21D C25D 174(100) . . . . ?
F64B Pd21 N21D C25D -7(2) 2_776 . . . ?
C25D N21D C21D C22D 0.0 . . . . ?
Pd21 N21D C21D C22D 178(3) . . . . ?
N21D C21D C22D C23D 0.0 . . . . ?
C21D C22D C23D C24D 0.0 . . . . ?
C21D C22D C23D N24D 176(5) . . . . ?
C22D C23D C24D C25D 0.0 . . . . ?
N24D C23D C24D C25D -175(7) . . . . ?
C23D C24D C25D N21D 0.0 . . . . ?
C21D N21D C25D C24D 0.0 . . . . ?
Pd21 N21D C25D C24D -178(3) . . . . ?
N41G Pd24 N22D C26D -19(16) . . . . ?
N22C Pd24 N22D C26D -90(3) . . . . ?
N41H Pd24 N22D C26D 89(4) . . . . ?
N41G Pd24 N22D C30D 153(14) . . . . ?
N22C Pd24 N22D C30D 82(3) . . . . ?
N41H Pd24 N22D C30D -100(3) . . . . ?
C30D N22D C26D C27D 0.0 . . . . ?
Pd24 N22D C26D C27D 171(4) . . . . ?
N22D C26D C27D C28D 0.0 . . . . ?
C26D C27D C28D C29D 0.0 . . . . ?
C26D C27D C28D C33D 149(5) . . . . ?
C27D C28D C29D C30D 0.0 . . . . ?
C33D C28D C29D C30D -141(7) . . . . ?
C28D C29D C30D N22D 0.0 . . . . ?
C26D N22D C30D C29D 0.0 . . . . ?
Pd24 N22D C30D C29D -172(3) . . . . ?
C33D N23D N24D C31D 0(2) . . . . ?
C33D N23D N24D C23D 171(7) . . . . ?
C24D C23D N24D N23D -179(4) . . . . ?
C22D C23D N24D N23D 6(6) . . . . ?
C24D C23D N24D C31D -8(7) . . . . ?
C22D C23D N24D C31D 176(3) . . . . ?
N23D N24D C31D C32D 1(3) . . . . ?
C23D N24D C31D C32D -171(6) . . . . ?
N24D C31D C32D C33D -1(4) . . . . ?
N24D N23D C33D C32D -1(5) . . . . ?
N24D N23D C33D C28D 153(6) . . . . ?
C31D C32D C33D N23D 1(5) . . . . ?
C31D C32D C33D C28D -152(6) . . . . ?
C27D C28D C33D N23D 31(7) . . . . ?
C29D C28D C33D N23D 177(4) . . . . ?
C27D C28D C33D C32D -176(5) . . . . ?
C29D C28D C33D C32D -30(8) . . . . ?
N41J Pd25 N21E C21E 91(4) . . . . ?
N22H Pd25 N21E C21E -87(3) . . . . ?
N41I Pd25 N21E C21E 37(41) . . . . ?
N41J Pd25 N21E C25E -102(3) . . . . ?
N22H Pd25 N21E C25E 80(3) . . . . ?
N41I Pd25 N21E C25E -156(40) . . . . ?
C25E N21E C21E C22E 0.0 . . . . ?
Pd25 N21E C21E C22E 167(3) . . . . ?
N21E C21E C22E C23E 0.0 . . . . ?
C21E C22E C23E C24E 0.0 . . . . ?
C21E C22E C23E N24E 145(5) . . . . ?
C22E C23E C24E C25E 0.0 . . . . ?
N24E C23E C24E C25E -144(5) . . . . ?
C23E C24E C25E N21E 0.0 . . . . ?
C21E N21E C25E C24E 0.0 . . . . ?
Pd25 N21E C25E C24E -167(3) . . . . ?
N41L Pd26 N22E C26E -64(43) . . . . ?
N21F Pd26 N22E C26E 78(3) . . . . ?
N41K Pd26 N22E C26E -96(3) . . . . ?
N41L Pd26 N22E C30E 126(42) . . . . ?
N21F Pd26 N22E C30E -93(3) . . . . ?
N41K Pd26 N22E C30E 93(3) . . . . ?
C30E N22E C26E C27E 0.0 . . . . ?
Pd26 N22E C26E C27E -170(3) . . . . ?
N22E C26E C27E C28E 0.0 . . . . ?
C26E C27E C28E C29E 0.0 . . . . ?
C26E C27E C28E C33E -161(5) . . . . ?
C27E C28E C29E C30E 0.0 . . . . ?
C33E C28E C29E C30E 157(6) . . . . ?
C28E C29E C30E N22E 0.0 . . . . ?
C26E N22E C30E C29E 0.0 . . . . ?
Pd26 N22E C30E C29E 171(3) . . . . ?
C33E N23E N24E C31E 3(3) . . . . ?
C33E N23E N24E C23E 160(6) . . . . ?
C22E C23E N24E N23E 32(6) . . . . ?
C24E C23E N24E N23E 178(4) . . . . ?
C22E C23E N24E C31E -176(5) . . . . ?
C24E C23E N24E C31E -30(7) . . . . ?
N23E N24E C31E C32E 1(2) . . . . ?
C23E N24E C31E C32E -153(7) . . . . ?
N24E C31E C32E C33E -5(5) . . . . ?
N24E N23E C33E C32E -5(4) . . . . ?
N24E N23E C33E C28E -166(7) . . . . ?
C31E C32E C33E N23E 6(5) . . . . ?
C31E C32E C33E C28E 170(6) . . . . ?
C27E C28E C33E N23E -20(8) . . . . ?
C29E C28E C33E N23E -179(5) . . . . ?
C27E C28E C33E C32E -177(5) . . . . ?
C29E C28E C33E C32E 24(8) . . . . ?
N22E Pd26 N21F C21F -89(4) . . . . ?
N41L Pd26 N21F C21F 88(4) . . . . ?
N41K Pd26 N21F C21F -16(21) . . . . ?
N22E Pd26 N21F C25F 91(3) . . . . ?
N41L Pd26 N21F C25F -92(3) . . . . ?
N41K Pd26 N21F C25F 164(19) . . . . ?
C25F N21F C21F C22F 0.0 . . . . ?
Pd26 N21F C21F C22F -180(4) . . . . ?
N21F C21F C22F C23F 0.0 . . . . ?
C21F C22F C23F C24F 0.0 . . . . ?
C21F C22F C23F N24F 171(5) . . . . ?
C22F C23F C24F C25F 0.0 . . . . ?
N24F C23F C24F C25F -167(7) . . . . ?
C23F C24F C25F N21F 0.0 . . . . ?
C21F N21F C25F C24F 0.0 . . . . ?
Pd26 N21F C25F C24F 180(3) . . . . ?
N41M Pd27 N22F C26F -94(3) . . . . ?
N21G Pd27 N22F C26F 86(3) . . . . ?
N41N Pd27 N22F C26F -160(27) . . . . ?
F44G Pd27 N22F C26F 162(4) 1_545 . . . ?
N41M Pd27 N22F C30F 95(3) . . . . ?
N21G Pd27 N22F C30F -85(3) . . . . ?
N41N Pd27 N22F C30F 29(29) . . . . ?
F44G Pd27 N22F C30F -9(4) 1_545 . . . ?
C30F N22F C26F C27F 0.0 . . . . ?
Pd27 N22F C26F C27F -171(3) . . . . ?
N22F C26F C27F C28F 0.0 . . . . ?
C26F C27F C28F C29F 0.0 . . . . ?
C26F C27F C28F C33F -159(5) . . . . ?
C27F C28F C29F C30F 0.0 . . . . ?
C33F C28F C29F C30F 155(6) . . . . ?
C28F C29F C30F N22F 0.0 . . . . ?
C26F N22F C30F C29F 0.0 . . . . ?
Pd27 N22F C30F C29F 171(3) . . . . ?
C33F N23F N24F C31F 1(2) . . . . ?
C33F N23F N24F C23F 170(7) . . . . ?
C24F C23F N24F N23F -178(4) . . . . ?
C22F C23F N24F N23F 13(7) . . . . ?
C24F C23F N24F C31F -10(8) . . . . ?
C22F C23F N24F C31F -179(3) . . . . ?
N23F N24F C31F C32F 0(2) . . . . ?
C23F N24F C31F C32F -170(6) . . . . ?
N24F C31F C32F C33F -1(4) . . . . ?
N24F N23F C33F C32F -1(4) . . . . ?
N24F N23F C33F C28F -172(6) . . . . ?
C31F C32F C33F N23F 1(5) . . . . ?
C31F C32F C33F C28F 172(6) . . . . ?
C29F C28F C33F N23F -172(4) . . . . ?
C27F C28F C33F N23F -15(7) . . . . ?
C29F C28F C33F C32F 18(8) . . . . ?
C27F C28F C33F C32F 176(5) . . . . ?
N22F Pd27 N21G C21G -92(3) . . . . ?
N41M Pd27 N21G C21G -104(56) . . . . ?
N41N Pd27 N21G C21G 91(3) . . . . ?
F44G Pd27 N21G C21G -161(3) 1_545 . . . ?
N22F Pd27 N21G C25G 89(3) . . . . ?
N41M Pd27 N21G C25G 77(57) . . . . ?
N41N Pd27 N21G C25G -87(3) . . . . ?
F44G Pd27 N21G C25G 21(3) 1_545 . . . ?
C25G N21G C21G C22G 0.0 . . . . ?
Pd27 N21G C21G C22G -178(3) . . . . ?
N21G C21G C22G C23G 0.0 . . . . ?
C21G C22G C23G C24G 0.0 . . . . ?
C21G C22G C23G N24G 163(5) . . . . ?
C22G C23G C24G C25G 0.0 . . . . ?
N24G C23G C24G C25G -160(6) . . . . ?
C23G C24G C25G N21G 0.0 . . . . ?
C21G N21G C25G C24G 0.0 . . . . ?
Pd27 N21G C25G C24G 178(3) . . . . ?
N41P Pd28 N22G C26G 40(51) . . . . ?
N21H Pd28 N22G C26G 93(3) . . . . ?
N41O Pd28 N22G C26G -86(4) . . . . ?
N41P Pd28 N22G C30G -138(50) . . . . ?
N21H Pd28 N22G C30G -85(3) . . . . ?
N41O Pd28 N22G C30G 96(4) . . . . ?
C30G N22G C26G C27G 0.0 . . . . ?
Pd28 N22G C26G C27G -178(3) . . . . ?
N22G C26G C27G C28G 0.0 . . . . ?
C26G C27G C28G C29G 0.0 . . . . ?
C26G C27G C28G C33G -162(5) . . . . ?
C27G C28G C29G C30G 0.0 . . . . ?
C33G C28G C29G C30G 159(6) . . . . ?
C28G C29G C30G N22G 0.0 . . . . ?
C26G N22G C30G C29G 0.0 . . . . ?
Pd28 N22G C30G C29G 178(3) . . . . ?
C33G N23G N24G C31G 1(2) . . . . ?
C33G N23G N24G C23G 167(6) . . . . ?
C24G C23G N24G N23G -179(4) . . . . ?
C22G C23G N24G N23G 20(6) . . . . ?
C24G C23G N24G C31G -13(7) . . . . ?
C22G C23G N24G C31G -175(4) . . . . ?
N23G N24G C31G C32G 0(3) . . . . ?
C23G N24G C31G C32G -166(6) . . . . ?
N24G C31G C32G C33G -2(4) . . . . ?
N24G N23G C33G C32G -2(5) . . . . ?
N24G N23G C33G C28G -168(7) . . . . ?
C31G C32G C33G N23G 2(6) . . . . ?
C31G C32G C33G C28G 168(6) . . . . ?
C27G C28G C33G N23G -22(7) . . . . ?
C29G C28G C33G N23G 178(4) . . . . ?
C27G C28G C33G C32G 173(5) . . . . ?
C29G C28G C33G C32G 13(8) . . . . ?
N41P Pd28 N21H C21H 88(3) . . . . ?
N22G Pd28 N21H C21H -89(3) . . . . ?
N41O Pd28 N21H C21H 1(100) . . . . ?
N41P Pd28 N21H C25H -97(3) . . . . ?
N22G Pd28 N21H C25H 85(3) . . . . ?
N41O Pd28 N21H C25H 176(100) . . . . ?
C25H N21H C21H C22H 0.0 . . . . ?
Pd28 N21H C21H C22H 175(3) . . . . ?
N21H C21H C22H C23H 0.0 . . . . ?
C21H C22H C23H C24H 0.0 . . . . ?
C21H C22H C23H N24H 165(5) . . . . ?
C22H C23H C24H C25H 0.0 . . . . ?
N24H C23H C24H C25H -164(5) . . . . ?
C23H C24H C25H N21H 0.0 . . . . ?
C21H N21H C25H C24H 0.0 . . . . ?
Pd28 N21H C25H C24H -175(3) . . . . ?
N41J Pd25 N22H C26H 50(58) . . . . ?
N21E Pd25 N22H C26H 89(3) . . . . ?
N41I Pd25 N22H C26H -89(3) . . . . ?
N41J Pd25 N22H C30H -119(57) . . . . ?
N21E Pd25 N22H C30H -80(3) . . . . ?
N41I Pd25 N22H C30H 102(3) . . . . ?
C30H N22H C26H C27H 0.0 . . . . ?
Pd25 N22H C26H C27H -169(3) . . . . ?
N22H C26H C27H C28H 0.0 . . . . ?
C26H C27H C28H C29H 0.00(5) . . . . ?
C26H C27H C28H C33H -153(5) . . . . ?
C27H C28H C29H C30H 0.0 . . . . ?
C33H C28H C29H C30H 151(6) . . . . ?
C28H C29H C30H N22H 0.0 . . . . ?
C26H N22H C30H C29H 0.0 . . . . ?
Pd25 N22H C30H C29H 169(3) . . . . ?
C33H N23H N24H C31H 0(3) . . . . ?
C33H N23H N24H C23H 173(6) . . . . ?
C22H C23H N24H N23H 18(6) . . . . ?
C24H C23H N24H N23H -177(3) . . . . ?
C22H C23H N24H C31H -169(4) . . . . ?
C24H C23H N24H C31H -4(6) . . . . ?
N23H N24H C31H C32H 0(2) . . . . ?
C23H N24H C31H C32H -173(6) . . . . ?
N24H C31H C32H C33H 0(4) . . . . ?
N24H N23H C33H C32H 0(4) . . . . ?
N24H N23H C33H C28H -167(6) . . . . ?
C31H C32H C33H N23H -1(6) . . . . ?
C31H C32H C33H C28H 165(7) . . . . ?
C29H C28H C33H N23H 178(4) . . . . ?
C27H C28H C33H N23H -29(7) . . . . ?
C29H C28H C33H C32H 14(9) . . . . ?
C27H C28H C33H C32H 167(6) . . . . ?
N41R Pd29 N21I C21I 99(3) . . . . ?
N22L Pd29 N21I C21I -80(3) . . . . ?
N41Q Pd29 N21I C21I 47(69) . . . . ?
N41R Pd29 N21I C25I -91(3) . . . . ?
N22L Pd29 N21I C25I 90(3) . . . . ?
N41Q Pd29 N21I C25I -143(67) . . . . ?
C25I N21I C21I C22I 0.0 . . . . ?
Pd29 N21I C21I C22I 170(3) . . . . ?
N21I C21I C22I C23I 0.0 . . . . ?
C21I C22I C23I C24I 0.00(6) . . . . ?
C21I C22I C23I N24I 164(5) . . . . ?
C22I C23I C24I C25I 0.0 . . . . ?
N24I C23I C24I C25I -159(7) . . . . ?
C23I C24I C25I N21I 0.0 . . . . ?
C21I N21I C25I C24I 0.0 . . . . ?
Pd29 N21I C25I C24I -171(3) . . . . ?
N41T Pd30 N22I C26I 12(36) . . . . ?
N41S Pd30 N22I C26I -96(4) . . . . ?
N21J Pd30 N22I C26I 86(3) . . . . ?
N41T Pd30 N22I C30I -161(34) . . . . ?
N41S Pd30 N22I C30I 92(3) . . . . ?
N21J Pd30 N22I C30I -86(3) . . . . ?
C30I N22I C26I C27I 0.0 . . . . ?
Pd30 N22I C26I C27I -172(3) . . . . ?
N22I C26I C27I C28I 0.0 . . . . ?
C26I C27I C28I C29I 0.0 . . . . ?
C26I C27I C28I C33I -158(5) . . . . ?
C27I C28I C29I C30I 0.0 . . . . ?
C33I C28I C29I C30I 152(7) . . . . ?
C28I C29I C30I N22I 0.0 . . . . ?
C26I N22I C30I C29I 0.0 . . . . ?
Pd30 N22I C30I C29I 173(3) . . . . ?
C33I N23I N24I C31I 0(3) . . . . ?
C33I N23I N24I C23I 170(8) . . . . ?
C22I C23I N24I N23I 3(8) . . . . ?
C24I C23I N24I N23I 165(5) . . . . ?
C22I C23I N24I C31I 173(3) . . . . ?
C24I C23I N24I C31I -26(7) . . . . ?
N23I N24I C31I C32I 0(2) . . . . ?
C23I N24I C31I C32I -172(6) . . . . ?
N24I C31I C32I C33I -1(4) . . . . ?
N24I N23I C33I C32I -1(4) . . . . ?
N24I N23I C33I C28I -160(7) . . . . ?
C31I C32I C33I N23I 1(5) . . . . ?
C31I C32I C33I C28I 161(7) . . . . ?
C27I C28I C33I N23I -14(8) . . . . ?
C29I C28I C33I N23I -169(5) . . . . ?
C27I C28I C33I C32I -171(5) . . . . ?
C29I C28I C33I C32I 34(9) . . . . ?
N41T Pd30 N21J C21J 92(3) . . . . ?
N22I Pd30 N21J C21J -85(3) . . . . ?
N41S Pd30 N21J C21J -147(61) . . . . ?
N41T Pd30 N21J C25J -97(3) . . . . ?
N22I Pd30 N21J C25J 86(3) . . . . ?
N41S Pd30 N21J C25J 24(63) . . . . ?
C25J N21J C21J C22J 0.0 . . . . ?
Pd30 N21J C21J C22J 171(3) . . . . ?
N21J C21J C22J C23J 0.0 . . . . ?
C21J C22J C23J C24J 0.0 . . . . ?
C21J C22J C23J N24J 152(5) . . . . ?
C22J C23J C24J C25J 0.0 . . . . ?
N24J C23J C24J C25J -150(6) . . . . ?
C23J C24J C25J N21J 0.0 . . . . ?
C21J N21J C25J C24J 0.0 . . . . ?
Pd30 N21J C25J C24J -171(3) . . . . ?
N41V Pd31 N22J C30J 153(20) . . . . ?
N21K Pd31 N22J C30J -83(3) . . . . ?
N41U Pd31 N22J C30J 95(4) . . . . ?
N41V Pd31 N22J C26J -42(22) . . . . ?
N21K Pd31 N22J C26J 82(3) . . . . ?
N41U Pd31 N22J C26J -100(3) . . . . ?
C30J N22J C26J C27J 0.0 . . . . ?
Pd31 N22J C26J C27J -166(3) . . . . ?
N22J C26J C27J C28J 0.0 . . . . ?
C26J C27J C28J C29J 0.0 . . . . ?
C26J C27J C28J C33J -144(5) . . . . ?
C27J C28J C29J C30J 0.0 . . . . ?
C33J C28J C29J C30J 147(5) . . . . ?
C28J C29J C30J N22J 0.0 . . . . ?
C26J N22J C30J C29J 0.0 . . . . ?
Pd31 N22J C30J C29J 165(3) . . . . ?
C33J N23J N24J C31J 0(2) . . . . ?
C33J N23J N24J C23J 159(6) . . . . ?
C22J C23J N24J N23J 26(7) . . . . ?
C24J C23J N24J N23J 177(4) . . . . ?
C22J C23J N24J C31J 178(5) . . . . ?
C24J C23J N24J C31J -30(8) . . . . ?
N23J N24J C31J C32J 0(3) . . . . ?
C23J N24J C31J C32J -157(7) . . . . ?
N24J C31J C32J C33J 0(4) . . . . ?
N24J N23J C33J C32J 0(4) . . . . ?
N24J N23J C33J C28J -161(6) . . . . ?
C31J C32J C33J N23J 0(5) . . . . ?
C31J C32J C33J C28J 159(7) . . . . ?
C29J C28J C33J N23J -172(4) . . . . ?
C27J C28J C33J N23J -25(7) . . . . ?
C29J C28J C33J C32J 30(7) . . . . ?
C27J C28J C33J C32J 177(5) . . . . ?
N41V Pd31 N21K C21K 83(3) . . . . ?
N41U Pd31 N21K C21K -118(34) . . . . ?
N22J Pd31 N21K C21K -92(3) . . . . ?
N41V Pd31 N21K C25K -101(3) . . . . ?
N41U Pd31 N21K C25K 58(34) . . . . ?
N22J Pd31 N21K C25K 84(3) . . . . ?
C25K N21K C21K C22K 0.0 . . . . ?
Pd31 N21K C21K C22K 176(3) . . . . ?
N21K C21K C22K C23K 0.0 . . . . ?
C21K C22K C23K C24K 0.0 . . . . ?
C21K C22K C23K N24K 148(5) . . . . ?
C22K C23K C24K C25K 0.0 . . . . ?
N24K C23K C24K C25K -149(5) . . . . ?
C23K C24K C25K N21K 0.0 . . . . ?
C21K N21K C25K C24K 0.0 . . . . ?
Pd31 N21K C25K C24K -175(3) . . . . ?
N41X Pd32 N22K C26K -113(74) . . . . ?
N41W Pd32 N22K C26K -93(3) . . . . ?
N21L Pd32 N22K C26K 85(3) . . . . ?
N41X Pd32 N22K C30K 77(75) . . . . ?
N41W Pd32 N22K C30K 97(3) . . . . ?
N21L Pd32 N22K C30K -85(3) . . . . ?
C30K N22K C26K C27K 0.0 . . . . ?
Pd32 N22K C26K C27K -170(3) . . . . ?
N22K C26K C27K C28K 0.0 . . . . ?
C26K C27K C28K C29K 0.0 . . . . ?
C26K C27K C28K C33K -154(5) . . . . ?
C27K C28K C29K C30K 0.0 . . . . ?
C33K C28K C29K C30K 146(7) . . . . ?
C28K C29K C30K N22K 0.0 . . . . ?
C26K N22K C30K C29K 0.0 . . . . ?
Pd32 N22K C30K C29K 171(3) . . . . ?
C33K N23K N24K C31K 1(3) . . . . ?
C33K N23K N24K C23K 159(6) . . . . ?
C22K C23K N24K N23K 29(7) . . . . ?
C24K C23K N24K N23K 178(4) . . . . ?
C22K C23K N24K C31K -179(5) . . . . ?
C24K C23K N24K C31K -29(7) . . . . ?
N23K N24K C31K C32K 1(2) . . . . ?
C23K N24K C31K C32K -155(7) . . . . ?
N24K C31K C32K C33K -2(4) . . . . ?
N24K N23K C33K C32K -2(4) . . . . ?
N24K N23K C33K C28K -155(8) . . . . ?
C31K C32K C33K N23K 2(5) . . . . ?
C31K C32K C33K C28K 160(6) . . . . ?
C29K C28K C33K N23K -179(5) . . . . ?
C27K C28K C33K N23K -29(8) . . . . ?
C29K C28K C33K C32K 31(8) . . . . ?
C27K C28K C33K C32K -179(5) . . . . ?
N22K Pd32 N21L C21L -101(3) . . . . ?
N41X Pd32 N21L C21L 80(4) . . . . ?
N41W Pd32 N21L C21L -83(23) . . . . ?
N22K Pd32 N21L C25L 90(3) . . . . ?
N41X Pd32 N21L C25L -89(3) . . . . ?
N41W Pd32 N21L C25L 109(22) . . . . ?
C25L N21L C21L C22L 0.0 . . . . ?
Pd32 N21L C21L C22L -168(4) . . . . ?
N21L C21L C22L C23L 0.0 . . . . ?
C21L C22L C23L C24L 0.0 . . . . ?
C21L C22L C23L N24L -177(5) . . . . ?
C22L C23L C24L C25L 0.0 . . . . ?
N24L C23L C24L C25L 176(7) . . . . ?
C23L C24L C25L N21L 0.0 . . . . ?
C21L N21L C25L C24L 0.0 . . . . ?
Pd32 N21L C25L C24L 170(3) . . . . ?
N41R Pd29 N22L C26L -9(100) . . . . ?
N21I Pd29 N22L C26L 90(4) . . . . ?
N41Q Pd29 N22L C26L -88(4) . . . . ?
N41R Pd29 N22L C30L 178(100) . . . . ?
N21I Pd29 N22L C30L -83(3) . . . . ?
N41Q Pd29 N22L C30L 98(3) . . . . ?
C30L N22L C26L C27L 0.0 . . . . ?
Pd29 N22L C26L C27L -173(4) . . . . ?
N22L C26L C27L C28L 0.0 . . . . ?
C26L C27L C28L C29L 0.0 . . . . ?
C26L C27L C28L C33L -170(6) . . . . ?
C27L C28L C29L C30L 0.0 . . . . ?
C33L C28L C29L C30L 168(7) . . . . ?
C28L C29L C30L N22L 0.0 . . . . ?
C26L N22L C30L C29L 0.0 . . . . ?
Pd29 N22L C30L C29L 174(3) . . . . ?
C33L N23L N24L C31L 0(2) . . . . ?
C33L N23L N24L C23L 177(7) . . . . ?
C22L C23L N24L N23L 9(7) . . . . ?
C24L C23L N24L N23L -167(4) . . . . ?
C22L C23L N24L C31L -174(3) . . . . ?
C24L C23L N24L C31L 10(8) . . . . ?
N23L N24L C31L C32L 0(2) . . . . ?
C23L N24L C31L C32L -177(6) . . . . ?
N24L C31L C32L C33L -1(4) . . . . ?
N24L N23L C33L C32L -1(5) . . . . ?
N24L N23L C33L C28L 179(6) . . . . ?
C31L C32L C33L N23L 1(5) . . . . ?
C31L C32L C33L C28L -179(6) . . . . ?
C29L C28L C33L N23L 180(4) . . . . ?
C27L C28L C33L N23L -11(7) . . . . ?
C29L C28L C33L C32L -1(8) . . . . ?
C27L C28L C33L C32L 168(5) . . . . ?
N21A Pd21 N41A C41A 58(40) . . . . ?
N21D Pd21 N41A C41A 102(3) . . . . ?
N41B Pd21 N41A C41A -74(4) . . . . ?
F64B Pd21 N41A C41A -165(3) 2_776 . . . ?
N21A Pd21 N41A C45A -133(39) . . . . ?
N21D Pd21 N41A C45A -89(3) . . . . ?
N41B Pd21 N41A C45A 95(4) . . . . ?
F64B Pd21 N41A C45A 4(3) 2_776 . . . ?
C45A N41A C41A C42A 0.0 . . . . ?
Pd21 N41A C41A C42A 169(4) . . . . ?
N41A C41A C42A C43A 0.0 . . . . ?
C41A C42A C43A C44A 0.0 . . . . ?
C41A C42A C43A N44A 158(6) . . . . ?
C42A C43A C44A C45A 0.0 . . . . ?
N44A C43A C44A C45A -154(7) . . . . ?
C43A C44A C45A N41A 0.0 . . . . ?
C41A N41A C45A C44A 0.0 . . . . ?
Pd21 N41A C45A C44A -169(3) . . . . ?
N1C Pd3 N42A C46A -69(7) . . . . ?
N2B Pd3 N42A C46A -90(3) . . . . ?
N2Q Pd3 N42A C46A 90(2) . . . . ?
N2N Pd3 N42A C46A 112(8) . . . . ?
N42P Pd3 N42A C46A -86(3) . . . . ?
N1C Pd3 N42A C50A 109(7) . . . . ?
N2B Pd3 N42A C50A 88(3) . . . . ?
N2Q Pd3 N42A C50A -92(3) . . . . ?
N2N Pd3 N42A C50A -70(9) . . . . ?
N42P Pd3 N42A C50A 92(4) . . . . ?
C50A N42A C46A C47A 0.0 . . . . ?
Pd3 N42A C46A C47A 178(3) . . . . ?
N42A C46A C47A C48A 0.0 . . . . ?
C46A C47A C48A C49A 0.0 . . . . ?
C46A C47A C48A C53A 176(7) . . . . ?
C47A C48A C49A C50A 0.0 . . . . ?
C53A C48A C49A C50A -177(5) . . . . ?
C48A C49A C50A N42A 0.0 . . . . ?
C46A N42A C50A C49A 0.0 . . . . ?
Pd3 N42A C50A C49A -178(4) . . . . ?
C53A N43A N44A C51A 0(3) . . . . ?
C53A N43A N44A C43A 142(10) . . . . ?
C44A C43A N44A N43A -147(7) . . . . ?
C42A C43A N44A N43A 57(9) . . . . ?
C44A C43A N44A C51A -14(11) . . . . ?
C42A C43A N44A C51A -170(7) . . . . ?
N43A N44A C51A C52A 1(3) . . . . ?
C43A N44A C51A C52A -140(9) . . . . ?
N44A C51A C52A C53A -1(4) . . . . ?
N44A N43A C53A C52A -1(5) . . . . ?
N44A N43A C53A C48A 162(7) . . . . ?
C51A C52A C53A N43A 1(5) . . . . ?
C51A C52A C53A C48A -155(10) . . . . ?
C47A C48A C53A N43A -11(9) . . . . ?
C49A C48A C53A N43A 165(5) . . . . ?
C47A C48A C53A C52A 144(8) . . . . ?
C49A C48A C53A C52A -40(10) . . . . ?
N41A Pd21 N41B C41B 75(3) . . . . ?
N21A Pd21 N41B C41B -102(3) . . . . ?
N21D Pd21 N41B C41B -7(29) . . . . ?
F64B Pd21 N41B C41B 173(3) 2_776 . . . ?
N41A Pd21 N41B C45B -99(3) . . . . ?
N21A Pd21 N41B C45B 84(3) . . . . ?
N21D Pd21 N41B C45B 178(100) . . . . ?
F64B Pd21 N41B C45B -1(3) 2_776 . . . ?
C45B N41B C41B C42B 0.0 . . . . ?
Pd21 N41B C41B C42B -174(3) . . . . ?
N41B C41B C42B C43B 0.0 . . . . ?
C41B C42B C43B C44B 0.0 . . . . ?
C41B C42B C43B N44B -158(7) . . . . ?
C42B C43B C44B C45B 0.0 . . . . ?
N44B C43B C44B C45B 158(7) . . . . ?
C43B C44B C45B N41B 0.0 . . . . ?
C41B N41B C45B C44B 0.0 . . . . ?
Pd21 N41B C45B C44B 174(3) . . . . ?
N2X Pd12 N42B C46B 85(3) 2_775 . . . ?
N2P Pd12 N42B C46B -88(18) . . . . ?
N1Q Pd12 N42B C46B -92(3) . . . . ?
N1R Pd12 N42B C46B 96(15) . . . . ?
N42L Pd12 N42B C46B 93(4) 2_775 . . . ?
N2X Pd12 N42B C50B -94(3) 2_775 . . . ?
N2P Pd12 N42B C50B 93(18) . . . . ?
N1Q Pd12 N42B C50B 89(3) . . . . ?
N1R Pd12 N42B C50B -83(15) . . . . ?
N42L Pd12 N42B C50B -85(4) 2_775 . . . ?
C50B N42B C46B C47B 0.0 . . . . ?
Pd12 N42B C46B C47B -179(5) . . . . ?
N42B C46B C47B C48B 0.00(7) . . . . ?
C46B C47B C48B C49B 0.0 . . . . ?
C46B C47B C48B C53B -173(7) . . . . ?
C47B C48B C49B C50B 0.0 . . . . ?
C53B C48B C49B C50B 174(7) . . . . ?
C48B C49B C50B N42B 0.00(7) . . . . ?
C46B N42B C50B C49B 0.0 . . . . ?
Pd12 N42B C50B C49B 179(4) . . . . ?
C53B N43B N44B C51B -1(3) . . . . ?
C53B N43B N44B C43B -145(10) . . . . ?
C44B C43B N44B N43B 152(6) . . . . ?
C42B C43B N44B N43B -49(8) . . . . ?
C44B C43B N44B C51B 24(15) . . . . ?
C42B C43B N44B C51B -177(11) . . . . ?
N43B N44B C51B C52B -1(3) . . . . ?
C43B N44B C51B C52B 129(13) . . . . ?
N44B C51B C52B C53B 2(5) . . . . ?
N44B N43B C53B C52B 2(5) . . . . ?
N44B N43B C53B C48B -154(9) . . . . ?
C51B C52B C53B N43B -2(5) . . . . ?
C51B C52B C53B C48B 151(11) . . . . ?
C49B C48B C53B N43B -172(7) . . . . ?
C47B C48B C53B N43B 1(12) . . . . ?
C49B C48B C53B C52B 39(11) . . . . ?
C47B C48B C53B C52B -148(9) . . . . ?
N22A Pd22 N41C C41C 105(3) . . . . ?
N41D Pd22 N41C C41C -75(4) . . . . ?
N21B Pd22 N41C C41C 49(23) . . . . ?
N22A Pd22 N41C C45C -81(3) . . . . ?
N41D Pd22 N41C C45C 99(3) . . . . ?
N21B Pd22 N41C C45C -137(22) . . . . ?
C45C N41C C41C C42C 0.0 . . . . ?
Pd22 N41C C41C C42C 173(4) . . . . ?
N41C C41C C42C C43C 0.0 . . . . ?
C41C C42C C43C C44C 0.0 . . . . ?
C41C C42C C43C N44C -174(5) . . . . ?
C42C C43C C44C C45C 0.0 . . . . ?
N44C C43C C44C C45C 169(10) . . . . ?
C43C C44C C45C N41C 0.0 . . . . ?
C41C N41C C45C C44C 0.0 . . . . ?
Pd22 N41C C45C C44C -175(3) . . . . ?
C50C N42C C46C C47C 0.0 . . . . ?
Pd8 N42C C46C C47C 167(4) 2_775 . . . ?
N42C C46C C47C C48C 0.00(5) . . . . ?
C46C C47C C48C C49C 0.0 . . . . ?
C46C C47C C48C C53C -176(6) . . . . ?
C47C C48C C49C C50C 0.0 . . . . ?
C53C C48C C49C C50C 176(6) . . . . ?
C48C C49C C50C N42C 0.00(6) . . . . ?
C46C N42C C50C C49C 0.0 . . . . ?
Pd8 N42C C50C C49C -168(4) 2_775 . . . ?
C53C N43C N44C C51C 0(3) . . . . ?
C53C N43C N44C C43C -162(20) . . . . ?
C42C C43C N44C N43C -5(20) . . . . ?
C44C C43C N44C N43C -175(14) . . . . ?
C42C C43C N44C C51C -167(4) . . . . ?
C44C C43C N44C C51C 23(11) . . . . ?
N43C N44C C51C C52C 1(2) . . . . ?
C43C N44C C51C C52C 174(8) . . . . ?
N44C C51C C52C C53C -1(5) . . . . ?
N44C N43C C53C C52C 0(5) . . . . ?
N44C N43C C53C C48C -164(7) . . . . ?
C51C C52C C53C N43C 1(5) . . . . ?
C51C C52C C53C C48C 150(14) . . . . ?
C49C C48C C53C N43C 145(5) . . . . ?
C47C C48C C53C N43C -39(8) . . . . ?
C49C C48C C53C C52C -3(16) . . . . ?
C47C C48C C53C C52C 173(12) . . . . ?
N22A Pd22 N41D C41D -122(100) . . . . ?
N41C Pd22 N41D C41D 77(3) . . . . ?
N21B Pd22 N41D C41D -98(3) . . . . ?
N22A Pd22 N41D C45D 62(100) . . . . ?
N41C Pd22 N41D C45D -100(3) . . . . ?
N21B Pd22 N41D C45D 85(3) . . . . ?
C45D N41D C41D C42D 0.0 . . . . ?
Pd22 N41D C41D C42D -176(3) . . . . ?
N41D C41D C42D C43D 0.0 . . . . ?
C41D C42D C43D C44D 0.0 . . . . ?
C41D C42D C43D N44D 161(5) . . . . ?
C42D C43D C44D C45D 0.0 . . . . ?
N44D C43D C44D C45D -158(6) . . . . ?
C43D C44D C45D N41D 0.0 . . . . ?
C41D N41D C45D C44D 0.0 . . . . ?
Pd22 N41D C45D C44D 176(4) . . . . ?
C50D N42D C46D C47D 0.0 . . . . ?
Pd9 N42D C46D C47D -172(5) 2_775 . . . ?
N42D C46D C47D C48D 0.0 . . . . ?
C46D C47D C48D C49D 0.0 . . . . ?
C46D C47D C48D C53D 176(6) . . . . ?
C47D C48D C49D C50D 0.00(7) . . . . ?
C53D C48D C49D C50D -175(8) . . . . ?
C48D C49D C50D N42D 0.0 . . . . ?
C46D N42D C50D C49D 0.0 . . . . ?
Pd9 N42D C50D C49D 173(4) 2_775 . . . ?
C53D N43D N44D C51D 1(3) . . . . ?
C53D N43D N44D C43D 152(8) . . . . ?
C44D C43D N44D N43D -165(5) . . . . ?
C42D C43D N44D N43D 36(7) . . . . ?
C44D C43D N44D C51D -17(8) . . . . ?
C42D C43D N44D C51D -177(5) . . . . ?
N43D N44D C51D C52D 1(3) . . . . ?
C43D N44D C51D C52D -151(7) . . . . ?
N44D C51D C52D C53D -3(4) . . . . ?
N44D N43D C53D C52D -3(5) . . . . ?
N44D N43D C53D C48D 135(10) . . . . ?
C51D C52D C53D N43D 4(6) . . . . ?
C51D C52D C53D C48D -138(8) . . . . ?
C47D C48D C53D N43D 31(10) . . . . ?
C49D C48D C53D N43D -153(7) . . . . ?
C47D C48D C53D C52D 166(7) . . . . ?
C49D C48D C53D C52D -18(11) . . . . ?
N41F Pd23 N41E C41E -79(3) . . . . ?
N21C Pd23 N41E C41E 137(45) . . . . ?
N22B Pd23 N41E C41E 97(3) . . . . ?
N41F Pd23 N41E C45E 93(3) . . . . ?
N21C Pd23 N41E C45E -51(46) . . . . ?
N22B Pd23 N41E C45E -92(3) . . . . ?
C45E N41E C41E C42E 0.0 . . . . ?
Pd23 N41E C41E C42E 172(3) . . . . ?
N41E C41E C42E C43E 0.0 . . . . ?
C41E C42E C43E C44E 0.0 . . . . ?
C41E C42E C43E N44E -178(5) . . . . ?
C42E C43E C44E C45E 0.0 . . . . ?
N44E C43E C44E C45E 177(7) . . . . ?
C43E C44E C45E N41E 0.0 . . . . ?
C41E N41E C45E C44E 0.0 . . . . ?
Pd23 N41E C45E C44E -172(3) . . . . ?
C50E N42E C46E C47E 0.0 . . . . ?
Pd10 N42E C46E C47E 178(5) 2_775 . . . ?
N42E C46E C47E C48E 0.0 . . . . ?
C46E C47E C48E C49E 0.0 . . . . ?
C46E C47E C48E C53E -171(6) . . . . ?
C47E C48E C49E C50E 0.0 . . . . ?
C53E C48E C49E C50E 169(7) . . . . ?
C48E C49E C50E N42E 0.00(5) . . . . ?
C46E N42E C50E C49E 0.0 . . . . ?
Pd10 N42E C50E C49E -178(4) 2_775 . . . ?
C53E N43E N44E C51E 1(3) . . . . ?
C53E N43E N44E C43E -177(11) . . . . ?
C44E C43E N44E N43E -161(6) . . . . ?
C42E C43E N44E N43E 16(10) . . . . ?
C44E C43E N44E C51E 21(8) . . . . ?
C42E C43E N44E C51E -161(4) . . . . ?
N43E N44E C51E C52E 2(3) . . . . ?
C43E N44E C51E C52E 180(8) . . . . ?
N44E C51E C52E C53E -3(5) . . . . ?
N44E N43E C53E C52E -3(5) . . . . ?
N44E N43E C53E C48E -162(8) . . . . ?
C51E C52E C53E N43E 4(6) . . . . ?
C51E C52E C53E C48E 157(10) . . . . ?
C49E C48E C53E N43E 157(5) . . . . ?
C47E C48E C53E N43E -33(7) . . . . ?
C49E C48E C53E C52E 5(12) . . . . ?
C47E C48E C53E C52E 175(7) . . . . ?
N41E Pd23 N41F C41F 76(3) . . . . ?
N21C Pd23 N41F C41F -106(3) . . . . ?
N22B Pd23 N41F C41F -36(27) . . . . ?
N41E Pd23 N41F C45F -94(3) . . . . ?
N21C Pd23 N41F C45F 84(3) . . . . ?
N22B Pd23 N41F C45F 154(26) . . . . ?
C45F N41F C41F C42F 0.0 . . . . ?
Pd23 N41F C41F C42F -170(3) . . . . ?
N41F C41F C42F C43F 0.0 . . . . ?
C41F C42F C43F C44F 0.0 . . . . ?
C41F C42F C43F N44F -180(5) . . . . ?
C42F C43F C44F C45F 0.0 . . . . ?
N44F C43F C44F C45F 180(7) . . . . ?
C43F C44F C45F N41F 0.0 . . . . ?
C41F N41F C45F C44F 0.0 . . . . ?
Pd23 N41F C45F C44F 170(3) . . . . ?
C50F N42F C46F C47F 0.0 . . . . ?
Pd11 N42F C46F C47F -169(3) 2_775 . . . ?
N42F C46F C47F C48F 0.0 . . . . ?
C46F C47F C48F C49F 0.00(5) . . . . ?
C46F C47F C48F C53F -169(6) . . . . ?
C47F C48F C49F C50F 0.0 . . . . ?
C53F C48F C49F C50F 170(6) . . . . ?
C48F C49F C50F N42F 0.0 . . . . ?
C46F N42F C50F C49F 0.00(5) . . . . ?
Pd11 N42F C50F C49F 168(4) 2_775 . . . ?
C53F N43F N44F C51F 0(3) . . . . ?
C53F N43F N44F C43F -176(10) . . . . ?
C44F C43F N44F N43F 170(6) . . . . ?
C42F C43F N44F N43F -10(10) . . . . ?
C44F C43F N44F C51F -5(8) . . . . ?
C42F C43F N44F C51F 174(4) . . . . ?
N43F N44F C51F C52F 0(3) . . . . ?
C43F N44F C51F C52F 176(8) . . . . ?
N44F C51F C52F C53F 1(4) . . . . ?
N44F N43F C53F C52F 0(5) . . . . ?
N44F N43F C53F C48F 176(7) . . . . ?
C51F C52F C53F N43F -1(6) . . . . ?
C51F C52F C53F C48F -175(9) . . . . ?
C49F C48F C53F N43F -159(5) . . . . ?
C47F C48F C53F N43F 10(8) . . . . ?
C49F C48F C53F C52F 16(9) . . . . ?
C47F C48F C53F C52F -175(6) . . . . ?
N22C Pd24 N41G C41G 100(2) . . . . ?
N41H Pd24 N41G C41G -79(3) . . . . ?
N22D Pd24 N41G C41G 28(15) . . . . ?
N22C Pd24 N41G C45G -87(2) . . . . ?
N41H Pd24 N41G C45G 95(3) . . . . ?
N22D Pd24 N41G C45G -159(14) . . . . ?
C45G N41G C41G C42G 0.0 . . . . ?
Pd24 N41G C41G C42G 172.9(16) . . . . ?
N41G C41G C42G C43G 0.0 . . . . ?
C41G C42G C43G C44G 0.0 . . . . ?
C41G C42G C43G N44G 179(4) . . . . ?
C42G C43G C44G C45G 0.0 . . . . ?
N44G C43G C44G C45G -179(4) . . . . ?
C43G C44G C45G N41G 0.0 . . . . ?
C41G N41G C45G C44G 0.0 . . . . ?
Pd24 N41G C45G C44G -173.6(15) . . . . ?
N2H Pd7 N42G C46G -104(7) . . . . ?
N1W Pd7 N42G C46G -88.1(19) . . . . ?
N42U Pd7 N42G C46G -79(3) 2_775 . . . ?
N1I Pd7 N42G C46G 95.1(17) . . . . ?
N1J Pd7 N42G C46G 71(8) . . . . ?
N2H Pd7 N42G C50G 69(6) . . . . ?
N1W Pd7 N42G C50G 85(2) . . . . ?
N42U Pd7 N42G C50G 94(3) 2_775 . . . ?
N1I Pd7 N42G C50G -91.7(19) . . . . ?
N1J Pd7 N42G C50G -116(8) . . . . ?
C50G N42G C46G C47G 0.0 . . . . ?
Pd7 N42G C46G C47G 172.6(18) . . . . ?
N42G C46G C47G C48G 0.0 . . . . ?
C46G C47G C48G C49G 0.0 . . . . ?
C46G C47G C48G C53G 172(4) . . . . ?
C47G C48G C49G C50G 0.0 . . . . ?
C53G C48G C49G C50G -171(4) . . . . ?
C48G C49G C50G N42G 0.0 . . . . ?
C46G N42G C50G C49G 0.0 . . . . ?
Pd7 N42G C50G C49G -174.0(15) . . . . ?
C53G N43G N44G C51G 0(3) . . . . ?
C53G N43G N44G C43G 172(8) . . . . ?
C44G C43G N44G N43G -158(4) . . . . ?
C42G C43G N44G N43G 23(7) . . . . ?
C44G C43G N44G C51G 13(7) . . . . ?
C42G C43G N44G C51G -165(5) . . . . ?
N43G N44G C51G C52G 1(3) . . . . ?
C43G N44G C51G C52G -171(9) . . . . ?
N44G C51G C52G C53G -1(4) . . . . ?
N44G N43G C53G C52G -1(5) . . . . ?
N44G N43G C53G C48G 176(7) . . . . ?
C51G C52G C53G N43G 1(6) . . . . ?
C51G C52G C53G C48G -175(7) . . . . ?
C47G C48G C53G N43G -15(7) . . . . ?
C49G C48G C53G N43G 156(4) . . . . ?
C47G C48G C53G C52G 161(5) . . . . ?
C49G C48G C53G C52G -27(7) . . . . ?
N41G Pd24 N41H C41H 72(3) . . . . ?
N22C Pd24 N41H C41H -81(42) . . . . ?
N22D Pd24 N41H C41H -101(4) . . . . ?
N41G Pd24 N41H C45H -93(3) . . . . ?
N22C Pd24 N41H C45H 115(41) . . . . ?
N22D Pd24 N41H C45H 94(3) . . . . ?
C45H N41H C41H C42H 0.00(5) . . . . ?
Pd24 N41H C41H C42H -165(3) . . . . ?
N41H C41H C42H C43H 0.0 . . . . ?
C41H C42H C43H C44H 0.0 . . . . ?
C41H C42H C43H N44H 177(5) . . . . ?
C42H C43H C44H C45H 0.0 . . . . ?
N44H C43H C44H C45H -177(6) . . . . ?
C43H C44H C45H N41H 0.0 . . . . ?
C41H N41H C45H C44H 0.0 . . . . ?
Pd24 N41H C45H C44H 165(3) . . . . ?
N2A Pd2 N42H C46H 98(8) . . . . ?
N2I Pd2 N42H C46H -95(3) . . . . ?
N2L Pd2 N42H C46H -83(8) . . . . ?
N1B Pd2 N42H C46H 90(3) . . . . ?
N42Q Pd2 N42H C46H 87(4) . . . . ?
N2A Pd2 N42H C50H -72(7) . . . . ?
N2I Pd2 N42H C50H 96(3) . . . . ?
N2L Pd2 N42H C50H 107(8) . . . . ?
N1B Pd2 N42H C50H -80(3) . . . . ?
N42Q Pd2 N42H C50H -83(4) . . . . ?
C50H N42H C46H C47H 0.0 . . . . ?
Pd2 N42H C46H C47H -170(4) . . . . ?
N42H C46H C47H C48H 0.0 . . . . ?
C46H C47H C48H C49H 0.0 . . . . ?
C46H C47H C48H C53H 174(7) . . . . ?
C47H C48H C49H C50H 0.0 . . . . ?
C53H C48H C49H C50H -175(6) . . . . ?
C48H C49H C50H N42H 0.0 . . . . ?
C46H N42H C50H C49H 0.0 . . . . ?
Pd2 N42H C50H C49H 170(3) . . . . ?
C53H N43H N44H C51H 0(3) . . . . ?
C53H N43H N44H C43H 159(10) . . . . ?
C44H C43H N44H N43H -172(7) . . . . ?
C42H C43H N44H N43H 11(11) . . . . ?
C44H C43H N44H C51H -17(9) . . . . ?
C42H C43H N44H C51H 166(5) . . . . ?
N43H N44H C51H C52H 0(3) . . . . ?
C43H N44H C51H C52H -162(8) . . . . ?
N44H C51H C52H C53H -1(4) . . . . ?
N44H N43H C53H C52H -1(5) . . . . ?
N44H N43H C53H C48H 151(7) . . . . ?
C51H C52H C53H N43H 1(5) . . . . ?
C51H C52H C53H C48H -140(12) . . . . ?
C47H C48H C53H N43H 31(8) . . . . ?
C49H C48H C53H N43H -154(5) . . . . ?
C47H C48H C53H C52H 174(9) . . . . ?
C49H C48H C53H C52H -12(13) . . . . ?
N41J Pd25 N41I C41I -77(4) . . . . ?
N21E Pd25 N41I C41I -23(42) . . . . ?
N22H Pd25 N41I C41I 101(3) . . . . ?
N41J Pd25 N41I C45I 96(3) . . . . ?
N21E Pd25 N41I C45I 150(40) . . . . ?
N22H Pd25 N41I C45I -86(3) . . . . ?
C45I N41I C41I C42I 0.0 . . . . ?
Pd25 N41I C41I C42I 172(3) . . . . ?
N41I C41I C42I C43I 0.0 . . . . ?
C41I C42I C43I C44I 0.0 . . . . ?
C41I C42I C43I N44I 163(6) . . . . ?
C42I C43I C44I C45I 0.0 . . . . ?
N44I C43I C44I C45I -150(10) . . . . ?
C43I C44I C45I N41I 0.0 . . . . ?
C41I N41I C45I C44I 0.0 . . . . ?
Pd25 N41I C45I C44I -173(3) . . . . ?
N2C Pd1 N42I C46I -82(3) . . . . ?
N2G Pd1 N42I C46I 97(3) . . . . ?
N1A Pd1 N42I C46I -76(6) . . . . ?
N1D Pd1 N42I C46I 98(7) . . . . ?
N42X Pd1 N42I C46I -92(4) . . . . ?
N2C Pd1 N42I C50I 78(4) . . . . ?
N2G Pd1 N42I C50I -103(4) . . . . ?
N1A Pd1 N42I C50I 85(7) . . . . ?
N1D Pd1 N42I C50I -101(7) . . . . ?
N42X Pd1 N42I C50I 68(5) . . . . ?
C50I N42I C46I C47I 0.0 . . . . ?
Pd1 N42I C46I C47I 161(4) . . . . ?
N42I C46I C47I C48I 0.0 . . . . ?
C46I C47I C48I C49I 0.0 . . . . ?
C46I C47I C48I C53I 174(7) . . . . ?
C47I C48I C49I C50I 0.0 . . . . ?
C53I C48I C49I C50I -175(6) . . . . ?
C48I C49I C50I N42I 0.0 . . . . ?
C46I N42I C50I C49I 0.00(6) . . . . ?
Pd1 N42I C50I C49I -159(4) . . . . ?
C53I N43I N44I C51I -1(3) . . . . ?
C53I N43I N44I C43I 124(20) . . . . ?
C42I C43I N44I N43I 66(19) . . . . ?
C44I C43I N44I N43I -140(16) . . . . ?
C42I C43I N44I C51I -169(5) . . . . ?
C44I C43I N44I C51I -15(12) . . . . ?
N43I N44I C51I C52I 0(2) . . . . ?
C43I N44I C51I C52I -150(8) . . . . ?
N44I C51I C52I C53I 1(5) . . . . ?
N44I N43I C53I C52I 1(5) . . . . ?
N44I N43I C53I C48I -180(7) . . . . ?
C51I C52I C53I N43I -1(5) . . . . ?
C51I C52I C53I C48I -179(100) . . . . ?
C49I C48I C53I N43I 162(4) . . . . ?
C47I C48I C53I N43I -12(9) . . . . ?
C49I C48I C53I C52I -19(17) . . . . ?
C47I C48I C53I C52I 166(12) . . . . ?
N21E Pd25 N41J C41J -104(3) . . . . ?
N22H Pd25 N41J C41J -64(57) . . . . ?
N41I Pd25 N41J C41J 74(3) . . . . ?
N21E Pd25 N41J C45J 88(3) . . . . ?
N22H Pd25 N41J C45J 127(56) . . . . ?
N41I Pd25 N41J C45J -95(3) . . . . ?
C45J N41J C41J C42J 0.0 . . . . ?
Pd25 N41J C41J C42J -168(3) . . . . ?
N41J C41J C42J C43J 0.0 . . . . ?
C41J C42J C43J C44J 0.0 . . . . ?
C41J C42J C43J N44J 172(6) . . . . ?
C42J C43J C44J C45J 0.0 . . . . ?
N44J C43J C44J C45J -173(6) . . . . ?
C43J C44J C45J N41J 0.0 . . . . ?
C41J N41J C45J C44J 0.0 . . . . ?
Pd25 N41J C45J C44J 169(3) . . . . ?
N1V Pd6 N42J C46J 88(3) . . . . ?
N1H Pd6 N42J C46J 97(11) . . . . ?
N2F Pd6 N42J C46J -94(12) . . . . ?
N1G Pd6 N42J C46J -90(3) . . . . ?
N42T Pd6 N42J C46J 93(4) 2_775 . . . ?
N1V Pd6 N42J C50J -86(3) . . . . ?
N1H Pd6 N42J C50J -77(11) . . . . ?
N2F Pd6 N42J C50J 92(13) . . . . ?
N1G Pd6 N42J C50J 95(3) . . . . ?
N42T Pd6 N42J C50J -81(4) 2_775 . . . ?
C50J N42J C46J C47J 0.0 . . . . ?
Pd6 N42J C46J C47J -174(4) . . . . ?
N42J C46J C47J C48J 0.00(5) . . . . ?
C46J C47J C48J C49J 0.00(5) . . . . ?
C46J C47J C48J C53J -176(7) . . . . ?
C47J C48J C49J C50J 0.0 . . . . ?
C53J C48J C49J C50J 177(5) . . . . ?
C48J C49J C50J N42J 0.0 . . . . ?
C46J N42J C50J C49J 0.0 . . . . ?
Pd6 N42J C50J C49J 174(4) . . . . ?
C53J N43J N44J C51J 1(3) . . . . ?
C53J N43J N44J C43J 172(9) . . . . ?
C44J C43J N44J N43J 174(6) . . . . ?
C42J C43J N44J N43J 1(10) . . . . ?
C44J C43J N44J C51J -17(9) . . . . ?
C42J C43J N44J C51J 170(5) . . . . ?
N43J N44J C51J C52J 0(3) . . . . ?
C43J N44J C51J C52J -171(9) . . . . ?
N44J C51J C52J C53J -1(4) . . . . ?
N44J N43J C53J C52J -2(5) . . . . ?
N44J N43J C53J C48J 175(7) . . . . ?
C51J C52J C53J N43J 2(5) . . . . ?
C51J C52J C53J C48J -173(11) . . . . ?
C47J C48J C53J N43J 15(8) . . . . ?
C49J C48J C53J N43J -162(4) . . . . ?
C47J C48J C53J C52J -170(7) . . . . ?
C49J C48J C53J C52J 13(11) . . . . ?
N22E Pd26 N41K C41K 106(3) . . . . ?
N41L Pd26 N41K C41K -72(3) . . . . ?
N21F Pd26 N41K C41K 32(20) . . . . ?
N22E Pd26 N41K C45K -81(3) . . . . ?
N41L Pd26 N41K C45K 102(4) . . . . ?
N21F Pd26 N41K C45K -155(18) . . . . ?
C45K N41K C41K C42K 0.0 . . . . ?
Pd26 N41K C41K C42K 174(3) . . . . ?
N41K C41K C42K C43K 0.0 . . . . ?
C41K C42K C43K C44K 0.0 . . . . ?
C41K C42K C43K N44K -168(5) . . . . ?
C42K C43K C44K C45K 0.0 . . . . ?
N44K C43K C44K C45K 167(5) . . . . ?
C43K C44K C45K N41K 0.0 . . . . ?
C41K N41K C45K C44K 0.0 . . . . ?
Pd26 N41K C45K C44K -173(3) . . . . ?
C50K N42K C46K C47K 0.0 . . . . ?
Pd11 N42K C46K C47K 176(3) 2_775 . . . ?
N42K C46K C47K C48K 0.0 . . . . ?
C46K C47K C48K C49K 0.0 . . . . ?
C46K C47K C48K C53K -166(7) . . . . ?
C47K C48K C49K C50K 0.00(6) . . . . ?
C53K C48K C49K C50K 168(6) . . . . ?
C48K C49K C50K N42K 0.0 . . . . ?
C46K N42K C50K C49K 0.0 . . . . ?
Pd11 N42K C50K C49K -176(3) 2_775 . . . ?
C53K N43K N44K C51K -1(3) . . . . ?
C53K N43K N44K C43K -153(10) . . . . ?
C44K C43K N44K N43K 151(8) . . . . ?
C42K C43K N44K N43K -41(10) . . . . ?
C44K C43K N44K C51K 3(8) . . . . ?
C42K C43K N44K C51K 171(5) . . . . ?
N43K N44K C51K C52K -1(3) . . . . ?
C43K N44K C51K C52K 156(7) . . . . ?
N44K C51K C52K C53K 2(4) . . . . ?
N44K N43K C53K C52K 2(5) . . . . ?
N44K N43K C53K C48K -138(7) . . . . ?
C51K C52K C53K N43K -3(5) . . . . ?
C51K C52K C53K C48K 119(14) . . . . ?
C49K C48K C53K N43K 160(5) . . . . ?
C47K C48K C53K N43K -33(9) . . . . ?
C49K C48K C53K C52K 37(15) . . . . ?
C47K C48K C53K C52K -156(11) . . . . ?
N22E Pd26 N41L C41L 49(44) . . . . ?
N21F Pd26 N41L C41L -92(3) . . . . ?
N41K Pd26 N41L C41L 81(3) . . . . ?
N22E Pd26 N41L C45L -126(43) . . . . ?
N21F Pd26 N41L C45L 92(3) . . . . ?
N41K Pd26 N41L C45L -94(3) . . . . ?
C45L N41L C41L C42L 0.0 . . . . ?
Pd26 N41L C41L C42L -176(3) . . . . ?
N41L C41L C42L C43L 0.0 . . . . ?
C41L C42L C43L C44L 0.0 . . . . ?
C41L C42L C43L N44L 180(6) . . . . ?
C42L C43L C44L C45L 0.0 . . . . ?
N44L C43L C44L C45L -180(6) . . . . ?
C43L C44L C45L N41L 0.0 . . . . ?
C41L N41L C45L C44L 0.0 . . . . ?
Pd26 N41L C45L C44L 176(3) . . . . ?
C50L N42L C46L C47L 0.0 . . . . ?
Pd12 N42L C46L C47L -170(3) 2_775 . . . ?
N42L C46L C47L C48L 0.00(5) . . . . ?
C46L C47L C48L C49L 0.0 . . . . ?
C46L C47L C48L C53L -180(7) . . . . ?
C47L C48L C49L C50L 0.0 . . . . ?
C53L C48L C49L C50L 180(6) . . . . ?
C48L C49L C50L N42L 0.00(6) . . . . ?
C46L N42L C50L C49L 0.0 . . . . ?
Pd12 N42L C50L C49L 166(5) 2_775 . . . ?
C53L N43L N44L C51L 0(3) . . . . ?
C53L N43L N44L C43L -179(9) . . . . ?
C42L C43L N44L N43L -6(9) . . . . ?
C44L C43L N44L N43L 173(5) . . . . ?
C42L C43L N44L C51L 176(5) . . . . ?
C44L C43L N44L C51L -4(9) . . . . ?
N43L N44L C51L C52L -1(3) . . . . ?
C43L N44L C51L C52L 177(9) . . . . ?
N44L C51L C52L C53L 1(5) . . . . ?
N44L N43L C53L C52L 1(5) . . . . ?
N44L N43L C53L C48L 163(8) . . . . ?
C51L C52L C53L N43L -2(5) . . . . ?
C51L C52L C53L C48L -159(10) . . . . ?
C47L C48L C53L N43L 25(9) . . . . ?
C49L C48L C53L N43L -155(6) . . . . ?
C47L C48L C53L C52L -179(7) . . . . ?
C49L C48L C53L C52L 1(11) . . . . ?
N22F Pd27 N41M C41M 101(3) . . . . ?
N21G Pd27 N41M C41M 113(56) . . . . ?
N41N Pd27 N41M C41M -83(3) . . . . ?
F44G Pd27 N41M C41M 169(3) 1_545 . . . ?
N22F Pd27 N41M C45M -83(3) . . . . ?
N21G Pd27 N41M C45M -70(56) . . . . ?
N41N Pd27 N41M C45M 94(3) . . . . ?
F44G Pd27 N41M C45M -15(3) 1_545 . . . ?
C45M N41M C41M C42M 0.0 . . . . ?
Pd27 N41M C41M C42M 176(4) . . . . ?
N41M C41M C42M C43M 0.0 . . . . ?
C41M C42M C43M C44M 0.0 . . . . ?
C41M C42M C43M N44M -167(6) . . . . ?
C42M C43M C44M C45M 0.0 . . . . ?
N44M C43M C44M C45M 164(8) . . . . ?
C43M C44M C45M N41M 0.0 . . . . ?
C41M N41M C45M C44M 0.0 . . . . ?
Pd27 N41M C45M C44M -176(3) . . . . ?
C50M N42M C46M C47M 0.0 . . . . ?
Pd4 N42M C46M C47M 177(5) 2_775 . . . ?
N42M C46M C47M C48M 0.0 . . . . ?
C46M C47M C48M C49M 0.0 . . . . ?
C46M C47M C48M C53M -175(6) . . . . ?
C47M C48M C49M C50M 0.0 . . . . ?
C53M C48M C49M C50M 174(7) . . . . ?
C48M C49M C50M N42M 0.0 . . . . ?
C46M N42M C50M C49M 0.0 . . . . ?
Pd4 N42M C50M C49M -178(4) 2_775 . . . ?
C53M N43M N44M C51M -1(3) . . . . ?
C53M N43M N44M C43M -161(12) . . . . ?
C42M C43M N44M N43M -11(11) . . . . ?
C44M C43M N44M N43M -176(7) . . . . ?
C42M C43M N44M C51M -169(5) . . . . ?
C44M C43M N44M C51M 26(10) . . . . ?
N43M N44M C51M C52M 0(3) . . . . ?
C43M N44M C51M C52M 164(9) . . . . ?
N44M C51M C52M C53M 1(4) . . . . ?
N44M N43M C53M C52M 2(5) . . . . ?
N44M N43M C53M C48M -159(8) . . . . ?
C51M C52M C53M N43M -2(5) . . . . ?
C51M C52M C53M C48M 155(11) . . . . ?
C49M C48M C53M N43M 148(6) . . . . ?
C47M C48M C53M N43M -37(8) . . . . ?
C49M C48M C53M C52M -7(13) . . . . ?
C47M C48M C53M C52M 168(8) . . . . ?
N22F Pd27 N41N C41N 145(28) . . . . ?
N41M Pd27 N41N C41N 80(3) . . . . ?
N21G Pd27 N41N C41N -101(3) . . . . ?
F44G Pd27 N41N C41N -178(4) 1_545 . . . ?
N22F Pd27 N41N C45N -31(29) . . . . ?
N41M Pd27 N41N C45N -96(3) . . . . ?
N21G Pd27 N41N C45N 83(3) . . . . ?
F44G Pd27 N41N C45N 6(4) 1_545 . . . ?
C45N N41N C41N C42N 0.0 . . . . ?
Pd27 N41N C41N C42N -176(3) . . . . ?
N41N C41N C42N C43N 0.0 . . . . ?
C41N C42N C43N C44N 0.0 . . . . ?
C41N C42N C43N N44N -162(7) . . . . ?
C42N C43N C44N C45N 0.0 . . . . ?
N44N C43N C44N C45N 162(6) . . . . ?
C43N C44N C45N N41N 0.0 . . . . ?
C41N N41N C45N C44N 0.0 . . . . ?
Pd27 N41N C45N C44N 176(3) . . . . ?
C50N N42N C46N C47N 0.00(6) . . . . ?
Pd5 N42N C46N C47N -176(4) 2_775 . . . ?
N42N C46N C47N C48N 0.0 . . . . ?
C46N C47N C48N C49N 0.0 . . . . ?
C46N C47N C48N C53N -162(7) . . . . ?
C47N C48N C49N C50N 0.00(6) . . . . ?
C53N C48N C49N C50N 163(7) . . . . ?
C48N C49N C50N N42N 0.0 . . . . ?
C46N N42N C50N C49N 0.0 . . . . ?
Pd5 N42N C50N C49N 175(4) 2_775 . . . ?
C53N N43N N44N C51N 1(3) . . . . ?
C53N N43N N44N C43N -157(7) . . . . ?
C42N C43N N44N N43N -53(7) . . . . ?
C44N C43N N44N N43N 145(5) . . . . ?
C42N C43N N44N C51N 164(10) . . . . ?
C44N C43N N44N C51N 2(14) . . . . ?
N43N N44N C51N C52N -1(3) . . . . ?
C43N N44N C51N C52N 143(13) . . . . ?
N44N C51N C52N C53N 1(4) . . . . ?
N44N N43N C53N C52N 0(5) . . . . ?
N44N N43N C53N C48N -147(9) . . . . ?
C51N C52N C53N N43N -1(5) . . . . ?
C51N C52N C53N C48N 150(8) . . . . ?
C49N C48N C53N N43N -165(7) . . . . ?
C47N C48N C53N N43N -2(12) . . . . ?
C49N C48N C53N C52N 52(7) . . . . ?
C47N C48N C53N C52N -145(6) . . . . ?
N41P Pd28 N41O C41O -76(4) . . . . ?
N22G Pd28 N41O C41O 102(3) . . . . ?
N21H Pd28 N41O C41O 11(100) . . . . ?
N41P Pd28 N41O C45O 96(4) . . . . ?
N22G Pd28 N41O C45O -86(3) . . . . ?
N21H Pd28 N41O C45O -177(100) . . . . ?
C45O N41O C41O C42O 0.0 . . . . ?
Pd28 N41O C41O C42O 172(4) . . . . ?
N41O C41O C42O C43O 0.0 . . . . ?
C41O C42O C43O C44O 0.0 . . . . ?
C41O C42O C43O N44O 156(7) . . . . ?
C42O C43O C44O C45O 0.0 . . . . ?
N44O C43O C44O C45O -157(6) . . . . ?
C43O C44O C45O N41O 0.0 . . . . ?
C41O N41O C45O C44O 0.0 . . . . ?
Pd28 N41O C45O C44O -172(4) . . . . ?
N2M Pd10 N42O C46O -93(11) . . . . ?
N1N Pd10 N42O C46O 99(4) . . . . ?
N1O Pd10 N42O C46O 93(11) . . . . ?
N2U Pd10 N42O C46O -86(4) 2_775 . . . ?
N42E Pd10 N42O C46O -74(5) 2_775 . . . ?
N2M Pd10 N42O C50O 75(11) . . . . ?
N1N Pd10 N42O C50O -93(3) . . . . ?
N1O Pd10 N42O C50O -100(11) . . . . ?
N2U Pd10 N42O C50O 82(3) 2_775 . . . ?
N42E Pd10 N42O C50O 93(4) 2_775 . . . ?
C50O N42O C46O C47O 0.0 . . . . ?
Pd10 N42O C46O C47O 167(4) . . . . ?
N42O C46O C47O C48O 0.0 . . . . ?
C46O C47O C48O C49O 0.00(6) . . . . ?
C46O C47O C48O C53O 170(7) . . . . ?
C47O C48O C49O C50O 0.0 . . . . ?
C53O C48O C49O C50O -171(7) . . . . ?
C48O C49O C50O N42O 0.0 . . . . ?
C46O N42O C50O C49O 0.00(7) . . . . ?
Pd10 N42O C50O C49O -168(4) . . . . ?
C53O N43O N44O C51O -1(3) . . . . ?
C53O N43O N44O C43O 144(9) . . . . ?
C44O C43O N44O N43O -153(6) . . . . ?
C42O C43O N44O N43O 49(9) . . . . ?
C44O C43O N44O C51O -24(13) . . . . ?
C42O C43O N44O C51O 179(9) . . . . ?
N43O N44O C51O C52O 0(3) . . . . ?
C43O N44O C51O C52O -134(12) . . . . ?
N44O C51O C52O C53O 0(4) . . . . ?
N44O N43O C53O C52O 1(5) . . . . ?
N44O N43O C53O C48O 169(8) . . . . ?
C51O C52O C53O N43O 0(5) . . . . ?
C51O C52O C53O C48O -165(12) . . . . ?
C47O C48O C53O N43O -4(10) . . . . ?
C49O C48O C53O N43O 166(5) . . . . ?
C47O C48O C53O C52O 159(8) . . . . ?
C49O C48O C53O C52O -30(12) . . . . ?
N22G Pd28 N41P C41P -48(51) . . . . ?
N21H Pd28 N41P C41P -101(3) . . . . ?
N41O Pd28 N41P C41P 78(4) . . . . ?
N22G Pd28 N41P C45P 139(50) . . . . ?
N21H Pd28 N41P C45P 86(3) . . . . ?
N41O Pd28 N41P C45P -95(4) . . . . ?
C45P N41P C41P C42P 0.0 . . . . ?
Pd28 N41P C41P C42P -173(4) . . . . ?
N41P C41P C42P C43P 0.0 . . . . ?
C41P C42P C43P C44P 0.0 . . . . ?
C41P C42P C43P N44P 178(6) . . . . ?
C42P C43P C44P C45P 0.0 . . . . ?
N44P C43P C44P C45P -178(7) . . . . ?
C43P C44P C45P N41P 0.0 . . . . ?
C41P N41P C45P C44P 0.0 . . . . ?
Pd28 N41P C45P C44P 173(4) . . . . ?
N1C Pd3 N42P C46P 90(3) . . . . ?
N2B Pd3 N42P C46P 111(12) . . . . ?
N2Q Pd3 N42P C46P -65(12) . . . . ?
N2N Pd3 N42P C46P -88(3) . . . . ?
N42A Pd3 N42P C46P 95(4) . . . . ?
N1C Pd3 N42P C50P -90(3) . . . . ?
N2B Pd3 N42P C50P -68(11) . . . . ?
N2Q Pd3 N42P C50P 116(11) . . . . ?
N2N Pd3 N42P C50P 92(2) . . . . ?
N42A Pd3 N42P C50P -84(3) . . . . ?
C50P N42P C46P C47P 0.0 . . . . ?
Pd3 N42P C46P C47P -180(4) . . . . ?
N42P C46P C47P C48P 0.0 . . . . ?
C46P C47P C48P C49P 0.0 . . . . ?
C46P C47P C48P C53P 164(7) . . . . ?
C47P C48P C49P C50P 0.0 . . . . ?
C53P C48P C49P C50P -164(7) . . . . ?
C48P C49P C50P N42P 0.0 . . . . ?
C46P N42P C50P C49P 0.0 . . . . ?
Pd3 N42P C50P C49P 180(3) . . . . ?
C53P N43P N44P C51P 1(3) . . . . ?
C53P N43P N44P C43P 175(10) . . . . ?
C42P C43P N44P N43P 8(10) . . . . ?
C44P C43P N44P N43P -174(6) . . . . ?
C42P C43P N44P C51P -180(6) . . . . ?
C44P C43P N44P C51P -2(10) . . . . ?
N43P N44P C51P C52P 0(3) . . . . ?
C43P N44P C51P C52P -174(10) . . . . ?
N44P C51P C52P C53P -1(4) . . . . ?
N44P N43P C53P C52P -1(5) . . . . ?
N44P N43P C53P C48P 142(9) . . . . ?
C51P C52P C53P N43P 1(5) . . . . ?
C51P C52P C53P C48P -138(11) . . . . ?
C47P C48P C53P N43P 32(9) . . . . ?
C49P C48P C53P N43P -164(5) . . . . ?
C47P C48P C53P C52P 170(8) . . . . ?
C49P C48P C53P C52P -25(12) . . . . ?
N41R Pd29 N41Q C41Q -74(3) . . . . ?
N21I Pd29 N41Q C41Q -22(69) . . . . ?
N22L Pd29 N41Q C41Q 105(3) . . . . ?
N41R Pd29 N41Q C45Q 96(3) . . . . ?
N21I Pd29 N41Q C45Q 148(68) . . . . ?
N22L Pd29 N41Q C45Q -85(3) . . . . ?
C45Q N41Q C41Q C42Q 0.0 . . . . ?
Pd29 N41Q C41Q C42Q 170(3) . . . . ?
N41Q C41Q C42Q C43Q 0.0 . . . . ?
C41Q C42Q C43Q C44Q 0.0 . . . . ?
C41Q C42Q C43Q N44Q 163(6) . . . . ?
C42Q C43Q C44Q C45Q 0.0 . . . . ?
N44Q C43Q C44Q C45Q -159(7) . . . . ?
C43Q C44Q C45Q N41Q 0.0 . . . . ?
C41Q N41Q C45Q C44Q 0.0 . . . . ?
Pd29 N41Q C45Q C44Q -170(3) . . . . ?
N2A Pd2 N42Q C46Q -88(3) . . . . ?
N2I Pd2 N42Q C46Q 102(9) . . . . ?
N2L Pd2 N42Q C46Q 93(3) . . . . ?
N1B Pd2 N42Q C46Q -93(8) . . . . ?
N42H Pd2 N42Q C46Q -84(4) . . . . ?
N2A Pd2 N42Q C50Q 79(3) . . . . ?
N2I Pd2 N42Q C50Q -91(9) . . . . ?
N2L Pd2 N42Q C50Q -99(3) . . . . ?
N1B Pd2 N42Q C50Q 74(8) . . . . ?
N42H Pd2 N42Q C50Q 83(3) . . . . ?
C50Q N42Q C46Q C47Q 0.0 . . . . ?
Pd2 N42Q C46Q C47Q 167(4) . . . . ?
N42Q C46Q C47Q C48Q 0.0 . . . . ?
C46Q C47Q C48Q C49Q 0.0 . . . . ?
C46Q C47Q C48Q C53Q 167(6) . . . . ?
C47Q C48Q C49Q C50Q 0.0 . . . . ?
C53Q C48Q C49Q C50Q -166(6) . . . . ?
C48Q C49Q C50Q N42Q 0.0 . . . . ?
C46Q N42Q C50Q C49Q 0.0 . . . . ?
Pd2 N42Q C50Q C49Q -168(3) . . . . ?
C53Q N43Q N44Q C51Q -1(3) . . . . ?
C53Q N43Q N44Q C43Q 145(11) . . . . ?
C44Q C43Q N44Q N43Q -151(8) . . . . ?
C42Q C43Q N44Q N43Q 48(10) . . . . ?
C44Q C43Q N44Q C51Q -10(10) . . . . ?
C42Q C43Q N44Q C51Q -171(5) . . . . ?
N43Q N44Q C51Q C52Q 0(3) . . . . ?
C43Q N44Q C51Q C52Q -150(9) . . . . ?
N44Q C51Q C52Q C53Q 0(4) . . . . ?
N44Q N43Q C53Q C52Q 0(5) . . . . ?
N44Q N43Q C53Q C48Q 167(7) . . . . ?
C51Q C52Q C53Q N43Q 0(5) . . . . ?
C51Q C52Q C53Q C48Q -163(9) . . . . ?
C47Q C48Q C53Q N43Q -5(8) . . . . ?
C49Q C48Q C53Q N43Q 162(5) . . . . ?
C47Q C48Q C53Q C52Q 157(7) . . . . ?
C49Q C48Q C53Q C52Q -36(10) . . . . ?
N21I Pd29 N41R C41R -98(3) . . . . ?
N22L Pd29 N41R C41R 1(100) . . . . ?
N41Q Pd29 N41R C41R 81(3) . . . . ?
N21I Pd29 N41R C45R 90(3) . . . . ?
N22L Pd29 N41R C45R -171(100) . . . . ?
N41Q Pd29 N41R C45R -92(3) . . . . ?
C45R N41R C41R C42R 0.0 . . . . ?
Pd29 N41R C41R C42R -172(3) . . . . ?
N41R C41R C42R C43R 0.0 . . . . ?
C41R C42R C43R C44R 0.0 . . . . ?
C41R C42R C43R N44R 169(5) . . . . ?
C42R C43R C44R C45R 0.0 . . . . ?
N44R C43R C44R C45R -168(6) . . . . ?
C43R C44R C45R N41R 0.0 . . . . ?
C41R N41R C45R C44R 0.0 . . . . ?
Pd29 N41R C45R C44R 172(3) . . . . ?
N2T Pd9 N42R C46R 84(4) 2_775 . . . ?
N1L Pd9 N42R C46R -100(4) . . . . ?
N2K Pd9 N42R C46R -85(10) . . . . ?
N1M Pd9 N42R C46R 112(7) . . . . ?
N42D Pd9 N42R C46R 74(5) 2_775 . . . ?
N2T Pd9 N42R C50R -87(3) 2_775 . . . ?
N1L Pd9 N42R C50R 89(3) . . . . ?
N2K Pd9 N42R C50R 104(10) . . . . ?
N1M Pd9 N42R C50R -60(6) . . . . ?
N42D Pd9 N42R C50R -98(4) 2_775 . . . ?
C50R N42R C46R C47R 0.0 . . . . ?
Pd9 N42R C46R C47R -171(5) . . . . ?
N42R C46R C47R C48R 0.0 . . . . ?
C46R C47R C48R C49R 0.00(5) . . . . ?
C46R C47R C48R C53R 176(6) . . . . ?
C47R C48R C49R C50R 0.0 . . . . ?
C53R C48R C49R C50R -175(9) . . . . ?
C48R C49R C50R N42R 0.0 . . . . ?
C46R N42R C50R C49R 0.0 . . . . ?
Pd9 N42R C50R C49R 173(4) . . . . ?
C53R N43R N44R C51R 1(3) . . . . ?
C53R N43R N44R C43R 158(9) . . . . ?
C44R C43R N44R N43R -172(6) . . . . ?
C42R C43R N44R N43R 20(9) . . . . ?
C44R C43R N44R C51R -19(9) . . . . ?
C42R C43R N44R C51R 173(6) . . . . ?
N43R N44R C51R C52R 0(3) . . . . ?
C43R N44R C51R C52R -158(9) . . . . ?
N44R C51R C52R C53R -1(4) . . . . ?
N44R N43R C53R C52R -1(5) . . . . ?
N44R N43R C53R C48R 140(11) . . . . ?
C51R C52R C53R N43R 2(5) . . . . ?
C51R C52R C53R C48R -142(9) . . . . ?
C49R C48R C53R N43R -145(8) . . . . ?
C47R C48R C53R N43R 39(10) . . . . ?
C49R C48R C53R C52R -9(13) . . . . ?
C47R C48R C53R C52R 176(7) . . . . ?
N41T Pd30 N41S C41S -77(3) . . . . ?
N22I Pd30 N41S C41S 100(3) . . . . ?
N21J Pd30 N41S C41S 162(61) . . . . ?
N41T Pd30 N41S C45S 96(4) . . . . ?
N22I Pd30 N41S C45S -87(4) . . . . ?
N21J Pd30 N41S C45S -25(63) . . . . ?
C45S N41S C41S C42S 0.0 . . . . ?
Pd30 N41S C41S C42S 173(4) . . . . ?
N41S C41S C42S C43S 0.0 . . . . ?
C41S C42S C43S C44S 0.0 . . . . ?
C41S C42S C43S N44S -176(7) . . . . ?
C42S C43S C44S C45S 0.0 . . . . ?
N44S C43S C44S C45S 175(7) . . . . ?
C43S C44S C45S N41S 0.0 . . . . ?
C41S N41S C45S C44S 0.0 . . . . ?
Pd30 N41S C45S C44S -173(4) . . . . ?
C50S N42S C46S C47S 0.0 . . . . ?
Pd5 N42S C46S C47S 177(4) 2_775 . . . ?
N42S C46S C47S C48S 0.0 . . . . ?
C46S C47S C48S C49S 0.00(5) . . . . ?
C46S C47S C48S C53S -179(8) . . . . ?
C47S C48S C49S C50S 0.0 . . . . ?
C53S C48S C49S C50S 179(6) . . . . ?
C48S C49S C50S N42S 0.0 . . . . ?
C46S N42S C50S C49S 0.0 . . . . ?
Pd5 N42S C50S C49S -176(4) 2_775 . . . ?
C53S N43S N44S C51S -1(3) . . . . ?
C53S N43S N44S C43S -174(11) . . . . ?
C42S C43S N44S N43S -3(12) . . . . ?
C44S C43S N44S N43S -179(7) . . . . ?
C42S C43S N44S C51S -176(5) . . . . ?
C44S C43S N44S C51S 8(8) . . . . ?
N43S N44S C51S C52S 0(3) . . . . ?
C43S N44S C51S C52S 175(9) . . . . ?
N44S C51S C52S C53S 1(4) . . . . ?
N44S N43S C53S C52S 1(5) . . . . ?
N44S N43S C53S C48S -167(7) . . . . ?
C51S C52S C53S N43S -1(5) . . . . ?
C51S C52S C53S C48S 157(15) . . . . ?
C49S C48S C53S N43S 160(5) . . . . ?
C47S C48S C53S N43S -21(9) . . . . ?
C49S C48S C53S C52S 0(15) . . . . ?
C47S C48S C53S C52S 179(10) . . . . ?
N22I Pd30 N41T C41T -28(35) . . . . ?
N41S Pd30 N41T C41T 79(4) . . . . ?
N21J Pd30 N41T C41T -102(3) . . . . ?
N22I Pd30 N41T C45T 162(34) . . . . ?
N41S Pd30 N41T C45T -92(3) . . . . ?
N21J Pd30 N41T C45T 87(3) . . . . ?
C45T N41T C41T C42T 0.00(5) . . . . ?
Pd30 N41T C41T C42T -170(3) . . . . ?
N41T C41T C42T C43T 0.0 . . . . ?
C41T C42T C43T C44T 0.0 . . . . ?
C41T C42T C43T N44T 172(5) . . . . ?
C42T C43T C44T C45T 0.0 . . . . ?
N44T C43T C44T C45T -171(6) . . . . ?
C43T C44T C45T N41T 0.0 . . . . ?
C41T N41T C45T C44T 0.0 . . . . ?
Pd30 N41T C45T C44T 171(3) . . . . ?
C50T N42T C46T C47T 0.0 . . . . ?
Pd6 N42T C46T C47T -174(3) 2_775 . . . ?
N42T C46T C47T C48T 0.0 . . . . ?
C46T C47T C48T C49T 0.0 . . . . ?
C46T C47T C48T C53T -175(7) . . . . ?
C47T C48T C49T C50T 0.0 . . . . ?
C53T C48T C49T C50T 177(5) . . . . ?
C48T C49T C50T N42T 0.0 . . . . ?
C46T N42T C50T C49T 0.0 . . . . ?
Pd6 N42T C50T C49T 173(4) 2_775 . . . ?
C53T N43T N44T C51T 0(3) . . . . ?
C53T N43T N44T C43T 167(9) . . . . ?
C44T C43T N44T N43T -175(5) . . . . ?
C42T C43T N44T N43T 13(9) . . . . ?
C44T C43T N44T C51T -9(8) . . . . ?
C42T C43T N44T C51T 179(4) . . . . ?
N43T N44T C51T C52T 1(3) . . . . ?
C43T N44T C51T C52T -168(8) . . . . ?
N44T C51T C52T C53T -1(4) . . . . ?
N44T N43T C53T C52T -1(5) . . . . ?
N44T N43T C53T C48T 162(6) . . . . ?
C51T C52T C53T N43T 1(6) . . . . ?
C51T C52T C53T C48T -153(12) . . . . ?
C49T C48T C53T N43T -159(5) . . . . ?
C47T C48T C53T N43T 17(8) . . . . ?
C49T C48T C53T C52T -3(12) . . . . ?
C47T C48T C53T C52T 173(8) . . . . ?
N41V Pd31 N41U C41U -70(3) . . . . ?
N21K Pd31 N41U C41U 132(33) . . . . ?
N22J Pd31 N41U C41U 105(3) . . . . ?
N41V Pd31 N41U C45U 99(3) . . . . ?
N21K Pd31 N41U C45U -60(34) . . . . ?
N22J Pd31 N41U C45U -86(3) . . . . ?
C45U N41U C41U C42U 0.0 . . . . ?
Pd31 N41U C41U C42U 169(3) . . . . ?
N41U C41U C42U C43U 0.0 . . . . ?
C41U C42U C43U C44U 0.0 . . . . ?
C41U C42U C43U N44U 164(5) . . . . ?
C42U C43U C44U C45U 0.0 . . . . ?
N44U C43U C44U C45U -157(8) . . . . ?
C43U C44U C45U N41U 0.0 . . . . ?
C41U N41U C45U C44U 0.0 . . . . ?
Pd31 N41U C45U C44U -169(3) . . . . ?
C50U N42U C46U C47U 0.00(6) . . . . ?
Pd7 N42U C46U C47U 167(4) 2_775 . . . ?
N42U C46U C47U C48U 0.0 . . . . ?
C46U C47U C48U C49U 0.0 . . . . ?
C46U C47U C48U C53U 169(5) . . . . ?
C47U C48U C49U C50U 0.00(6) . . . . ?
C53U C48U C49U C50U -168(6) . . . . ?
C48U C49U C50U N42U 0.0 . . . . ?
C46U N42U C50U C49U 0.0 . . . . ?
Pd7 N42U C50U C49U -169(3) 2_775 . . . ?
C53U N43U N44U C51U -1(3) . . . . ?
C53U N43U N44U C43U 139(14) . . . . ?
C42U C43U N44U N43U 46(14) . . . . ?
C44U C43U N44U N43U -154(11) . . . . ?
C42U C43U N44U C51U -177(5) . . . . ?
C44U C43U N44U C51U -17(9) . . . . ?
N43U N44U C51U C52U 0(3) . . . . ?
C43U N44U C51U C52U -154(7) . . . . ?
N44U C51U C52U C53U 1(4) . . . . ?
N44U N43U C53U C52U 1(5) . . . . ?
N44U N43U C53U C48U 177(7) . . . . ?
C51U C52U C53U N43U -1(5) . . . . ?
C51U C52U C53U C48U -176(8) . . . . ?
C49U C48U C53U N43U 159(5) . . . . ?
C47U C48U C53U N43U -9(8) . . . . ?
C49U C48U C53U C52U -26(9) . . . . ?
C47U C48U C53U C52U 165(6) . . . . ?
N21K Pd31 N41V C41V -105(4) . . . . ?
N41U Pd31 N41V C41V 77(4) . . . . ?
N22J Pd31 N41V C41V 19(23) . . . . ?
N21K Pd31 N41V C45V 82(3) . . . . ?
N41U Pd31 N41V C45V -97(3) . . . . ?
N22J Pd31 N41V C45V -154(21) . . . . ?
C45V N41V C41V C42V 0.0 . . . . ?
Pd31 N41V C41V C42V -173(4) . . . . ?
N41V C41V C42V C43V 0.0 . . . . ?
C41V C42V C43V C44V 0.0 . . . . ?
C41V C42V C43V N44V 174(5) . . . . ?
C42V C43V C44V C45V 0.0 . . . . ?
N44V C43V C44V C45V -172(7) . . . . ?
C43V C44V C45V N41V 0.0 . . . . ?
C41V N41V C45V C44V 0.0 . . . . ?
Pd31 N41V C45V C44V 175(3) . . . . ?
C50V N42V C46V C47V 0.0 . . . . ?
Pd8 N42V C46V C47V -170(4) 2_775 . . . ?
N42V C46V C47V C48V 0.00(6) . . . . ?
C46V C47V C48V C49V 0.0 . . . . ?
C46V C47V C48V C53V -179(7) . . . . ?
C47V C48V C49V C50V 0.0 . . . . ?
C53V C48V C49V C50V 179(6) . . . . ?
C48V C49V C50V N42V 0.0 . . . . ?
C46V N42V C50V C49V 0.0 . . . . ?
Pd8 N42V C50V C49V 169(4) 2_775 . . . ?
C53V N43V N44V C51V 1(3) . . . . ?
C53V N43V N44V C43V 171(9) . . . . ?
C42V C43V N44V N43V 0(9) . . . . ?
C44V C43V N44V N43V 173(6) . . . . ?
C42V C43V N44V C51V 168(5) . . . . ?
C44V C43V N44V C51V -19(9) . . . . ?
N43V N44V C51V C52V 0(3) . . . . ?
C43V N44V C51V C52V -171(8) . . . . ?
N44V C51V C52V C53V -1(4) . . . . ?
N44V N43V C53V C52V -2(5) . . . . ?
N44V N43V C53V C48V 171(7) . . . . ?
C51V C52V C53V N43V 2(5) . . . . ?
C51V C52V C53V C48V -167(11) . . . . ?
C49V C48V C53V N43V -158(5) . . . . ?
C47V C48V C53V N43V 21(8) . . . . ?
C49V C48V C53V C52V 11(12) . . . . ?
C47V C48V C53V C52V -170(8) . . . . ?
N22K Pd32 N41W C41W 103(4) . . . . ?
N41X Pd32 N41W C41W -78(4) . . . . ?
N21L Pd32 N41W C41W 84(22) . . . . ?
N22K Pd32 N41W C45W -89(3) . . . . ?
N41X Pd32 N41W C45W 90(4) . . . . ?
N21L Pd32 N41W C45W -107(22) . . . . ?
C45W N41W C41W C42W 0.0 . . . . ?
Pd32 N41W C41W C42W 168(4) . . . . ?
N41W C41W C42W C43W 0.0 . . . . ?
C41W C42W C43W C44W 0.0 . . . . ?
C41W C42W C43W N44W -180(5) . . . . ?
C42W C43W C44W C45W 0.0 . . . . ?
N44W C43W C44W C45W 180(8) . . . . ?
C43W C44W C45W N41W 0.0 . . . . ?
C41W N41W C45W C44W 0.0 . . . . ?
Pd32 N41W C45W C44W -168(4) . . . . ?
N2D Pd4 N42W C46W 93(3) . . . . ?
N2R Pd4 N42W C46W -79(9) . . . . ?
N1E Pd4 N42W C46W 108(9) . . . . ?
N42M Pd4 N42W C46W -80(4) 2_775 . . . ?
N1S Pd4 N42W C46W -89(3) . . . . ?
N2D Pd4 N42W C50W -96(3) . . . . ?
N2R Pd4 N42W C50W 92(9) . . . . ?
N1E Pd4 N42W C50W -81(10) . . . . ?
N42M Pd4 N42W C50W 91(4) 2_775 . . . ?
N1S Pd4 N42W C50W 82(3) . . . . ?
C50W N42W C46W C47W 0.0 . . . . ?
Pd4 N42W C46W C47W 171(4) . . . . ?
N42W C46W C47W C48W 0.0 . . . . ?
C46W C47W C48W C49W 0.0 . . . . ?
C46W C47W C48W C53W -166(6) . . . . ?
C47W C48W C49W C50W 0.0 . . . . ?
C53W C48W C49W C50W 163(8) . . . . ?
C48W C49W C50W N42W 0.00(6) . . . . ?
C46W N42W C50W C49W 0.0 . . . . ?
Pd4 N42W C50W C49W -171(4) . . . . ?
C53W N43W N44W C51W -2(3) . . . . ?
C53W N43W N44W C43W -159(12) . . . . ?
C44W C43W N44W N43W 158(9) . . . . ?
C42W C43W N44W N43W -22(12) . . . . ?
C44W C43W N44W C51W 1(9) . . . . ?
C42W C43W N44W C51W -179(4) . . . . ?
N43W N44W C51W C52W 0(2) . . . . ?
C43W N44W C51W C52W 165(7) . . . . ?
N44W C51W C52W C53W 2(4) . . . . ?
N44W N43W C53W C52W 3(4) . . . . ?
N44W N43W C53W C48W -128(9) . . . . ?
C51W C52W C53W N43W -3(5) . . . . ?
C51W C52W C53W C48W 128(9) . . . . ?
C47W C48W C53W N43W -39(9) . . . . ?
C49W C48W C53W N43W 156(6) . . . . ?
C47W C48W C53W C52W -164(7) . . . . ?
C49W C48W C53W C52W 32(11) . . . . ?
N22K Pd32 N41X C41X 100(75) . . . . ?
N41W Pd32 N41X C41X 80(3) . . . . ?
N21L Pd32 N41X C41X -98(3) . . . . ?
N22K Pd32 N41X C45X -77(75) . . . . ?
N41W Pd32 N41X C45X -97(3) . . . . ?
N21L Pd32 N41X C45X 85(3) . . . . ?
C45X N41X C41X C42X 0.0 . . . . ?
Pd32 N41X C41X C42X -177(3) . . . . ?
N41X C41X C42X C43X 0.0 . . . . ?
C41X C42X C43X C44X 0.0 . . . . ?
C41X C42X C43X N44X 159(6) . . . . ?
C42X C43X C44X C45X 0.0 . . . . ?
N44X C43X C44X C45X -161(6) . . . . ?
C43X C44X C45X N41X 0.0 . . . . ?
C41X N41X C45X C44X 0.0 . . . . ?
Pd32 N41X C45X C44X 177(3) . . . . ?
N2C Pd1 N42X C46X 61(8) . . . . ?
N2G Pd1 N42X C46X -128(9) . . . . ?
N1A Pd1 N42X C46X 86(3) . . . . ?
N1D Pd1 N42X C46X -92(3) . . . . ?
N42I Pd1 N42X C46X 92(4) . . . . ?
N2C Pd1 N42X C50X -118(9) . . . . ?
N2G Pd1 N42X C50X 53(10) . . . . ?
N1A Pd1 N42X C50X -93(3) . . . . ?
N1D Pd1 N42X C50X 90(3) . . . . ?
N42I Pd1 N42X C50X -87(4) . . . . ?
C50X N42X C46X C47X 0.00(5) . . . . ?
Pd1 N42X C46X C47X -179(4) . . . . ?
N42X C46X C47X C48X 0.0 . . . . ?
C46X C47X C48X C49X 0.0 . . . . ?
C46X C47X C48X C53X 171(7) . . . . ?
C47X C48X C49X C50X 0.00(6) . . . . ?
C53X C48X C49X C50X -170(7) . . . . ?
C48X C49X C50X N42X 0.0 . . . . ?
C46X N42X C50X C49X 0.0 . . . . ?
Pd1 N42X C50X C49X 179(4) . . . . ?
C53X N43X N44X C51X -1(3) . . . . ?
C53X N43X N44X C43X 151(8) . . . . ?
C42X C43X N44X N43X 25(8) . . . . ?
C44X C43X N44X N43X -175(5) . . . . ?
C42X C43X N44X C51X 169(7) . . . . ?
C44X C43X N44X C51X -31(9) . . . . ?
N43X N44X C51X C52X -1(3) . . . . ?
C43X N44X C51X C52X -149(10) . . . . ?
N44X C51X C52X C53X 2(4) . . . . ?
N44X N43X C53X C52X 2(5) . . . . ?
N44X N43X C53X C48X 145(9) . . . . ?
C51X C52X C53X N43X -3(5) . . . . ?
C51X C52X C53X C48X -146(9) . . . . ?
C49X C48X C53X N43X -144(7) . . . . ?
C47X C48X C53X N43X 45(9) . . . . ?
C49X C48X C53X C52X -5(10) . . . . ?
C47X C48X C53X C52X -175(6) . . . . ?

_diffrn_measured_fraction_theta_max 0.956
_diffrn_reflns_theta_full        15.50
_diffrn_measured_fraction_theta_full 0.956
_refine_diff_density_max         0.411
_refine_diff_density_min         -0.222
_refine_diff_density_rms         0.049
