# generated using pymatgen
data_B48H480Pd24C624N192.0O50.6F192.0106
_symmetry_space_group_name_H-M   'P 1'
_cell_length_a   45.63011366
_cell_length_b   45.62400118
_cell_length_c   45.61800000
_cell_angle_alpha   60.01305092
_cell_angle_beta   60.04632446
_cell_angle_gamma   60.02312577
_symmetry_Int_Tables_number   1
_chemical_formula_structural   B48H480Pd24C624N192.0O50.6F192.0106
_chemical_formula_sum   'B48 H480 Pd24 C624 N192.0 O50.6 F192.0106'
_cell_volume   67194.96604385
_cell_formula_units_Z   1
loop_
 _symmetry_equiv_pos_site_id
 _symmetry_equiv_pos_as_xyz
  1  'x, y, z'
loop_
 _atom_site_type_symbol
 _atom_site_label
 _atom_site_symmetry_multiplicity
 _atom_site_fract_x
 _atom_site_fract_y
 _atom_site_fract_z
 _atom_site_occupancy
  B  B1  1  0.113000  0.894200  0.294200  0.2211
  B  B2  1  0.887000  0.105800  0.705800  0.2211
  B  B3  1  0.114400  0.889500  0.510300  0.2211
  B  B4  1  0.885600  0.110500  0.489700  0.2211
  B  B5  1  0.116900  0.685900  0.297100  0.2211
  B  B6  1  0.883100  0.314100  0.702900  0.2211
  B  B7  1  0.118300  0.474100  0.529800  0.2211
  B  B8  1  0.881700  0.525900  0.470200  0.2211
  B  B9  1  0.287000  0.733000  0.154000  0.2211
  B  B10  1  0.713000  0.267000  0.846000  0.2211
  B  B11  1  0.499900  0.499700  0.134700  0.2211
  B  B12  1  0.500100  0.500300  0.865300  0.2211
  B  B13  1  0.303700  0.885900  0.111300  0.2211
  B  B14  1  0.696300  0.114100  0.888700  0.2211
  B  B15  1  0.504800  0.856500  0.131500  0.2211
  B  B16  1  0.495200  0.143500  0.868500  0.2211
  B  B17  1  0.291600  0.119000  0.895600  0.2211
  B  B18  1  0.708400  0.881000  0.104400  0.2211
  B  B19  1  0.417400  0.198100  0.958200  0.2211
  B  B20  1  0.582600  0.801900  0.041800  0.2211
  B  B21  1  0.330900  0.071100  0.719400  0.2211
  B  B22  1  0.669100  0.928900  0.280600  0.2211
  B  B23  1  0.125500  0.288600  0.695000  0.2211
  B  B24  1  0.874500  0.711400  0.305000  0.2211
  B  B25  1  0.120100  0.284000  0.920500  0.2211
  B  B26  1  0.879900  0.716000  0.079500  0.2211
  B  B27  1  0.112300  0.509000  0.881400  0.2211
  B  B28  1  0.887700  0.491000  0.118600  0.2211
  B  B29  1  0.877400  0.316800  0.092700  0.2211
  B  B30  1  0.122600  0.683200  0.907300  0.2211
  B  B31  1  0.884300  0.524900  0.121000  0.2211
  B  B32  1  0.115700  0.475100  0.879000  0.2211
  B  B33  1  0.697300  0.288700  0.122000  0.2211
  B  B34  1  0.302700  0.711300  0.878000  0.2211
  B  B35  1  0.688400  0.122400  0.289200  0.2211
  B  B36  1  0.311600  0.877600  0.710800  0.2211
  B  B37  1  0.511500  0.103700  0.514100  0.2211
  B  B38  1  0.488500  0.896300  0.485900  0.2211
  B  B39  1  0.896800  0.122400  0.287900  0.2211
  B  B40  1  0.103200  0.877600  0.712100  0.2211
  B  B41  1  0.878400  0.107500  0.525300  0.2211
  B  B42  1  0.121600  0.892500  0.474700  0.2211
  B  B43  1  0.148400  0.554300  0.555700  0.2211
  B  B44  1  0.851600  0.445700  0.444300  0.2211
  B  B45  1  0.553400  0.148800  0.553700  0.2211
  B  B46  1  0.446600  0.851200  0.446300  0.2211
  B  B47  1  0.044200  0.402500  0.389000  0.2211
  B  B48  1  0.955800  0.597500  0.611000  0.2211
  B  B49  1  0.194300  0.966800  0.194200  0.7789
  B  B50  1  0.805700  0.033200  0.805800  0.7789
  B  B51  1  0.311500  0.948800  0.314000  0.7789
  B  B52  1  0.688500  0.051200  0.686000  0.7789
  B  B53  1  0.196000  0.193800  0.966800  0.7789
  B  B54  1  0.804000  0.806200  0.033200  0.7789
  B  B55  1  0.311900  0.313800  0.948600  0.7789
  B  B56  1  0.688100  0.686200  0.051400  0.7789
  B  B57  1  0.965900  0.195400  0.195600  0.7789
  B  B58  1  0.034100  0.804600  0.804400  0.7789
  B  B59  1  0.948200  0.312300  0.313300  0.7789
  B  B60  1  0.051800  0.687700  0.686700  0.7789
  B  B61  1  0.033200  0.804100  0.357900  0.7789
  B  B62  1  0.966800  0.195900  0.642100  0.7789
  B  B63  1  0.051500  0.685700  0.574200  0.7789
  B  B64  1  0.948500  0.314300  0.425800  0.7789
  B  B65  1  0.198200  0.642700  0.192000  0.7789
  B  B66  1  0.801800  0.357300  0.808000  0.7789
  B  B67  1  0.311400  0.425700  0.313300  0.7789
  B  B68  1  0.688600  0.574300  0.686700  0.7789
  B  B69  1  0.356400  0.804700  0.033500  0.7789
  B  B70  1  0.643600  0.195300  0.966500  0.7789
  B  B71  1  0.574300  0.685200  0.053100  0.7789
  B  B72  1  0.425700  0.314800  0.946900  0.7789
  B  B73  1  0.357400  0.034500  0.804300  0.7789
  B  B74  1  0.642600  0.965500  0.195700  0.7789
  B  B75  1  0.575400  0.051700  0.686100  0.7789
  B  B76  1  0.424600  0.948300  0.313900  0.7789
  B  B77  1  0.196700  0.196000  0.641700  0.7789
  B  B78  1  0.803300  0.804000  0.358300  0.7789
  B  B79  1  0.312200  0.313700  0.426100  0.7789
  B  B80  1  0.687800  0.686300  0.573900  0.7789
  B  B81  1  0.032200  0.356200  0.806500  0.7789
  B  B82  1  0.967800  0.643800  0.193500  0.7789
  B  B83  1  0.052300  0.572200  0.687700  0.7789
  B  B84  1  0.947700  0.427800  0.312300  0.7789
  B  B85  1  0.805600  0.357700  0.033200  0.7789
  B  B86  1  0.194400  0.642300  0.966800  0.7789
  B  B87  1  0.687100  0.573500  0.051100  0.7789
  B  B88  1  0.312900  0.426500  0.948900  0.7789
  B  B89  1  0.643400  0.195400  0.196300  0.7789
  B  B90  1  0.356600  0.804600  0.803700  0.7789
  B  B91  1  0.426200  0.313200  0.312900  0.7789
  B  B92  1  0.573800  0.686800  0.687100  0.7789
  B  B93  1  0.805400  0.034300  0.355500  0.7789
  B  B94  1  0.194600  0.965700  0.644500  0.7789
  B  B95  1  0.687100  0.051800  0.574300  0.7789
  B  B96  1  0.312900  0.948200  0.425700  0.7789
  H  H97  1  0.098800  0.839200  0.385100  0.2211
  H  H98  1  0.901200  0.160800  0.614900  0.2211
  H  H99  1  0.113500  0.777400  0.405000  0.2211
  H  H100  1  0.886500  0.222600  0.595000  0.2211
  H  H101  1  0.146600  0.766900  0.477500  0.2211
  H  H102  1  0.853400  0.233100  0.522500  0.2211
  H  H103  1  0.132000  0.828700  0.457500  0.2211
  H  H104  1  0.868000  0.171300  0.542500  0.2211
  H  H105  1  0.100900  0.673600  0.383200  0.2211
  H  H106  1  0.899100  0.326400  0.616800  0.2211
  H  H107  1  0.107800  0.703800  0.406600  0.2211
  H  H108  1  0.892200  0.296200  0.593400  0.2211
  H  H109  1  0.133900  0.611700  0.485200  0.2211
  H  H110  1  0.866100  0.388300  0.514800  0.2211
  H  H111  1  0.127000  0.581500  0.461800  0.2211
  H  H112  1  0.873000  0.418500  0.538200  0.2211
  H  H113  1  0.125800  0.712200  0.508800  0.2211
  H  H114  1  0.874200  0.287800  0.491200  0.2211
  H  H115  1  0.133900  0.655500  0.507000  0.2211
  H  H116  1  0.866100  0.344500  0.493000  0.2211
  H  H117  1  0.159600  0.618600  0.325600  0.2211
  H  H118  1  0.840400  0.381400  0.674400  0.2211
  H  H119  1  0.219100  0.595000  0.293200  0.2211
  H  H120  1  0.780900  0.405000  0.706800  0.2211
  H  H121  1  0.234400  0.513600  0.383000  0.2211
  H  H122  1  0.765600  0.486400  0.617000  0.2211
  H  H123  1  0.174900  0.537200  0.415400  0.2211
  H  H124  1  0.825100  0.462800  0.584600  0.2211
  H  H125  1  0.325900  0.619600  0.157300  0.2211
  H  H126  1  0.674100  0.380400  0.842700  0.2211
  H  H127  1  0.295200  0.603500  0.218600  0.2211
  H  H128  1  0.704800  0.396500  0.781400  0.2211
  H  H129  1  0.383000  0.519500  0.235800  0.2211
  H  H130  1  0.617000  0.480500  0.764200  0.2211
  H  H131  1  0.413800  0.535600  0.174400  0.2211
  H  H132  1  0.586200  0.464400  0.825600  0.2211
  H  H133  1  0.290200  0.494900  0.350100  0.2211
  H  H134  1  0.709800  0.505100  0.649900  0.2211
  H  H135  1  0.344000  0.490500  0.293800  0.2211
  H  H136  1  0.656000  0.509500  0.706200  0.2211
  H  H137  1  0.381100  0.670600  0.104800  0.2211
  H  H138  1  0.618900  0.329400  0.895200  0.2211
  H  H139  1  0.397300  0.703000  0.117200  0.2211
  H  H140  1  0.602700  0.297000  0.882800  0.2211
  H  H141  1  0.482400  0.616600  0.137600  0.2211
  H  H142  1  0.517600  0.383400  0.862400  0.2211
  H  H143  1  0.466300  0.584200  0.125200  0.2211
  H  H144  1  0.533700  0.415800  0.874800  0.2211
  H  H145  1  0.379000  0.842500  0.106400  0.2211
  H  H146  1  0.621000  0.157500  0.893600  0.2211
  H  H147  1  0.392700  0.781200  0.123700  0.2211
  H  H148  1  0.607300  0.218800  0.876300  0.2211
  H  H149  1  0.480400  0.763100  0.139300  0.2211
  H  H150  1  0.519600  0.236900  0.860700  0.2211
  H  H151  1  0.466800  0.824500  0.121700  0.2211
  H  H152  1  0.533200  0.175500  0.878300  0.2211
  H  H153  1  0.505000  0.653200  0.133900  0.2211
  H  H154  1  0.495000  0.346800  0.866100  0.2211
  H  H155  1  0.506200  0.706500  0.134900  0.2211
  H  H156  1  0.493800  0.293500  0.865100  0.2211
  H  H157  1  0.160800  0.896800  0.324100  0.2211
  H  H158  1  0.839200  0.103200  0.675900  0.2211
  H  H159  1  0.221200  0.890400  0.294100  0.2211
  H  H160  1  0.778800  0.109600  0.705900  0.2211
  H  H161  1  0.232200  0.869400  0.385400  0.2211
  H  H162  1  0.767800  0.130600  0.614600  0.2211
  H  H163  1  0.171800  0.875800  0.415400  0.2211
  H  H164  1  0.828200  0.124200  0.584600  0.2211
  H  H165  1  0.321900  0.899100  0.161800  0.2211
  H  H166  1  0.678100  0.100900  0.838200  0.2211
  H  H167  1  0.295300  0.882000  0.223700  0.2211
  H  H168  1  0.704700  0.118000  0.776300  0.2211
  H  H169  1  0.389200  0.853700  0.234100  0.2211
  H  H170  1  0.610800  0.146300  0.765900  0.2211
  H  H171  1  0.415800  0.870800  0.172200  0.2211
  H  H172  1  0.584200  0.129200  0.827800  0.2211
  H  H173  1  0.292300  0.863400  0.346900  0.2211
  H  H174  1  0.707700  0.136600  0.653100  0.2211
  H  H175  1  0.348000  0.867100  0.292600  0.2211
  H  H176  1  0.652000  0.132900  0.707400  0.2211
  H  H177  1  0.381800  0.101600  0.843700  0.2211
  H  H178  1  0.618200  0.898400  0.156300  0.2211
  H  H179  1  0.395700  0.119500  0.782200  0.2211
  H  H180  1  0.604300  0.880500  0.217800  0.2211
  H  H181  1  0.478200  0.142900  0.764900  0.2211
  H  H182  1  0.521800  0.857100  0.235100  0.2211
  H  H183  1  0.464300  0.125000  0.826400  0.2211
  H  H184  1  0.535700  0.875000  0.173600  0.2211
  H  H185  1  0.381900  0.103000  0.671400  0.2211
  H  H186  1  0.618100  0.897000  0.328600  0.2211
  H  H187  1  0.399500  0.116700  0.701500  0.2211
  H  H188  1  0.600500  0.883300  0.298500  0.2211
  H  H189  1  0.484200  0.135000  0.613300  0.2211
  H  H190  1  0.515800  0.865000  0.386700  0.2211
  H  H191  1  0.466500  0.121300  0.583300  0.2211
  H  H192  1  0.533500  0.878700  0.416700  0.2211
  H  H193  1  0.505800  0.133100  0.710500  0.2211
  H  H194  1  0.494200  0.866900  0.289500  0.2211
  H  H195  1  0.500700  0.136900  0.657300  0.2211
  H  H196  1  0.499300  0.863100  0.342700  0.2211
  H  H197  1  0.320500  0.163200  0.621600  0.2211
  H  H198  1  0.679500  0.836800  0.378400  0.2211
  H  H199  1  0.294300  0.224400  0.595800  0.2211
  H  H200  1  0.705700  0.775600  0.404200  0.2211
  H  H201  1  0.387700  0.227900  0.515400  0.2211
  H  H202  1  0.612300  0.772100  0.484600  0.2211
  H  H203  1  0.413900  0.166800  0.541000  0.2211
  H  H204  1  0.586100  0.833200  0.459000  0.2211
  H  H205  1  0.159600  0.327800  0.617600  0.2211
  H  H206  1  0.840400  0.672200  0.382400  0.2211
  H  H207  1  0.221200  0.299300  0.599200  0.2211
  H  H208  1  0.778800  0.700700  0.400800  0.2211
  H  H209  1  0.233300  0.388500  0.514800  0.2211
  H  H210  1  0.766700  0.611500  0.485200  0.2211
  H  H211  1  0.171600  0.417000  0.533200  0.2211
  H  H212  1  0.828400  0.583000  0.466800  0.2211
  H  H213  1  0.346800  0.288900  0.493500  0.2211
  H  H214  1  0.653200  0.711100  0.506500  0.2211
  H  H215  1  0.295800  0.346900  0.491100  0.2211
  H  H216  1  0.704200  0.653100  0.508900  0.2211
  H  H217  1  0.107300  0.381300  0.670100  0.2211
  H  H218  1  0.892700  0.618700  0.329900  0.2211
  H  H219  1  0.116400  0.400700  0.702300  0.2211
  H  H220  1  0.883600  0.599300  0.297700  0.2211
  H  H221  1  0.136700  0.484900  0.614300  0.2211
  H  H222  1  0.863300  0.515100  0.385700  0.2211
  H  H223  1  0.127600  0.465500  0.582100  0.2211
  H  H224  1  0.872400  0.534500  0.417900  0.2211
  H  H225  1  0.103400  0.382600  0.841900  0.2211
  H  H226  1  0.896600  0.617400  0.158100  0.2211
  H  H227  1  0.114200  0.401600  0.780900  0.2211
  H  H228  1  0.885800  0.598400  0.219100  0.2211
  H  H229  1  0.138200  0.483200  0.764800  0.2211
  H  H230  1  0.861800  0.516800  0.235200  0.2211
  H  H231  1  0.127400  0.464300  0.825700  0.2211
  H  H232  1  0.872600  0.535700  0.174300  0.2211
  H  H233  1  0.127700  0.507500  0.653500  0.2211
  H  H234  1  0.872300  0.492500  0.346500  0.2211
  H  H235  1  0.129500  0.508200  0.707300  0.2211
  H  H236  1  0.870500  0.491800  0.292700  0.2211
  H  H237  1  0.157000  0.328500  0.897600  0.2211
  H  H238  1  0.843000  0.671500  0.102400  0.2211
  H  H239  1  0.217900  0.296500  0.886400  0.2211
  H  H240  1  0.782100  0.703500  0.113600  0.2211
  H  H241  1  0.235800  0.384300  0.864300  0.2211
  H  H242  1  0.764200  0.615700  0.135700  0.2211
  H  H243  1  0.174900  0.416400  0.875400  0.2211
  H  H244  1  0.825100  0.583600  0.124600  0.2211
  H  H245  1  0.327500  0.157300  0.900000  0.2211
  H  H246  1  0.672500  0.842700  0.100000  0.2211
  H  H247  1  0.296500  0.218500  0.884000  0.2211
  H  H248  1  0.703500  0.781500  0.116000  0.2211
  H  H249  1  0.385500  0.237800  0.855800  0.2211
  H  H250  1  0.614500  0.762200  0.144200  0.2211
  H  H251  1  0.416500  0.176500  0.872000  0.2211
  H  H252  1  0.583500  0.823500  0.128000  0.2211
  H  H253  1  0.288600  0.350000  0.871500  0.2211
  H  H254  1  0.711400  0.650000  0.128500  0.2211
  H  H255  1  0.343300  0.294600  0.870600  0.2211
  H  H256  1  0.656700  0.705400  0.129400  0.2211
  H  H257  1  0.840700  0.380400  0.106200  0.2211
  H  H258  1  0.159300  0.619600  0.893800  0.2211
  H  H259  1  0.779200  0.400500  0.119400  0.2211
  H  H260  1  0.220800  0.599500  0.880600  0.2211
  H  H261  1  0.769500  0.487200  0.130600  0.2211
  H  H262  1  0.230500  0.512800  0.869400  0.2211
  H  H263  1  0.831100  0.467100  0.117300  0.2211
  H  H264  1  0.168900  0.532900  0.882700  0.2211
  H  H265  1  0.674000  0.381600  0.105000  0.2211
  H  H266  1  0.326000  0.618400  0.895000  0.2211
  H  H267  1  0.701600  0.401500  0.119200  0.2211
  H  H268  1  0.298400  0.598500  0.880800  0.2211
  H  H269  1  0.610900  0.484300  0.136900  0.2211
  H  H270  1  0.389100  0.515700  0.863100  0.2211
  H  H271  1  0.583300  0.464400  0.122700  0.2211
  H  H272  1  0.416700  0.535600  0.877300  0.2211
  H  H273  1  0.711800  0.499200  0.139300  0.2211
  H  H274  1  0.288200  0.500800  0.860700  0.2211
  H  H275  1  0.655200  0.503200  0.139600  0.2211
  H  H276  1  0.344800  0.496800  0.860400  0.2211
  H  H277  1  0.617700  0.327400  0.159200  0.2211
  H  H278  1  0.382300  0.672600  0.840800  0.2211
  H  H279  1  0.601300  0.297500  0.220700  0.2211
  H  H280  1  0.398700  0.702500  0.779300  0.2211
  H  H281  1  0.517300  0.385800  0.236300  0.2211
  H  H282  1  0.482700  0.614200  0.763700  0.2211
  H  H283  1  0.533700  0.415700  0.174800  0.2211
  H  H284  1  0.466300  0.584300  0.825200  0.2211
  H  H285  1  0.619300  0.155900  0.330300  0.2211
  H  H286  1  0.380700  0.844100  0.669700  0.2211
  H  H287  1  0.607300  0.217000  0.299300  0.2211
  H  H288  1  0.392700  0.783000  0.700700  0.2211
  H  H289  1  0.518600  0.237400  0.382800  0.2211
  H  H290  1  0.481400  0.762600  0.617200  0.2211
  H  H291  1  0.530600  0.176300  0.413800  0.2211
  H  H292  1  0.469400  0.823700  0.586200  0.2211
  H  H293  1  0.494600  0.344900  0.294400  0.2211
  H  H294  1  0.505400  0.655100  0.705600  0.2211
  H  H295  1  0.492600  0.292500  0.350300  0.2211
  H  H296  1  0.507400  0.707500  0.649700  0.2211
  H  H297  1  0.669500  0.105000  0.380800  0.2211
  H  H298  1  0.330500  0.895000  0.619200  0.2211
  H  H299  1  0.702700  0.118500  0.394800  0.2211
  H  H300  1  0.297300  0.881500  0.605200  0.2211
  H  H301  1  0.616700  0.142600  0.478800  0.2211
  H  H302  1  0.383300  0.857400  0.521200  0.2211
  H  H303  1  0.583600  0.129100  0.464700  0.2211
  H  H304  1  0.416400  0.870900  0.535300  0.2211
  H  H305  1  0.841100  0.102100  0.383200  0.2211
  H  H306  1  0.158900  0.897900  0.616800  0.2211
  H  H307  1  0.779400  0.117600  0.401400  0.2211
  H  H308  1  0.220600  0.882400  0.598600  0.2211
  H  H309  1  0.767500  0.139700  0.482500  0.2211
  H  H310  1  0.232500  0.860300  0.517500  0.2211
  H  H311  1  0.829300  0.124300  0.464100  0.2211
  H  H312  1  0.170700  0.875700  0.535900  0.2211
  H  H313  1  0.652700  0.134300  0.504600  0.2211
  H  H314  1  0.347300  0.865700  0.495400  0.2211
  H  H315  1  0.707400  0.134100  0.504000  0.2211
  H  H316  1  0.292600  0.865900  0.496000  0.2211
  H  H317  1  0.895700  0.161000  0.324800  0.2211
  H  H318  1  0.104300  0.839000  0.675200  0.2211
  H  H319  1  0.892400  0.220700  0.294300  0.2211
  H  H320  1  0.107600  0.779300  0.705700  0.2211
  H  H321  1  0.865400  0.232700  0.387100  0.2211
  H  H322  1  0.134600  0.767300  0.612900  0.2211
  H  H323  1  0.868700  0.173000  0.417600  0.2211
  H  H324  1  0.131300  0.827000  0.582400  0.2211
  H  H325  1  0.900400  0.326000  0.158000  0.2211
  H  H326  1  0.099600  0.674000  0.842000  0.2211
  H  H327  1  0.888200  0.295800  0.219300  0.2211
  H  H328  1  0.111800  0.704200  0.780700  0.2211
  H  H329  1  0.861000  0.386900  0.234400  0.2211
  H  H330  1  0.139000  0.613100  0.765600  0.2211
  H  H331  1  0.873200  0.417100  0.173100  0.2211
  H  H332  1  0.126800  0.582900  0.826900  0.2211
  H  H333  1  0.869900  0.288800  0.347500  0.2211
  H  H334  1  0.130100  0.711200  0.652500  0.2211
  H  H335  1  0.864600  0.347600  0.295600  0.2211
  H  H336  1  0.135400  0.652400  0.704400  0.2211
  H  H337  1  0.083600  0.962400  0.347200  0.2211
  H  H338  1  0.916400  0.037600  0.652800  0.2211
  H  H339  1  0.069000  0.023100  0.334500  0.2211
  H  H340  1  0.931000  0.976900  0.665500  0.2211
  H  H341  1  0.104000  0.998900  0.411800  0.2211
  H  H342  1  0.896000  0.001100  0.588200  0.2211
  H  H343  1  0.118600  0.938300  0.424300  0.2211
  H  H344  1  0.881400  0.061700  0.575700  0.2211
  H  H345  1  0.994800  0.179000  0.257900  0.2211
  H  H346  1  0.005200  0.821000  0.742100  0.2211
  H  H347  1  0.031700  0.124700  0.285400  0.2211
  H  H348  1  0.968300  0.875300  0.714600  0.2211
  H  H349  1  0.027800  0.170200  0.343900  0.2211
  H  H350  1  0.972200  0.829800  0.656100  0.2211
  H  H351  1  0.990900  0.224500  0.316300  0.2211
  H  H352  1  0.009100  0.775500  0.683700  0.2211
  H  H353  1  0.117100  0.057500  0.368800  0.2211
  H  H354  1  0.882900  0.942500  0.631200  0.2211
  H  H355  1  0.082300  0.121800  0.358300  0.2211
  H  H356  1  0.917700  0.878200  0.641700  0.2211
  H  H357  1  0.034300  0.920700  0.393000  0.2211
  H  H358  1  0.965700  0.079300  0.607000  0.2211
  H  H359  1  0.973800  0.932600  0.426800  0.2211
  H  H360  1  0.026200  0.067400  0.573200  0.2211
  H  H361  1  0.997800  0.893100  0.516000  0.2211
  H  H362  1  0.002200  0.106900  0.484000  0.2211
  H  H363  1  0.058300  0.881200  0.482300  0.2211
  H  H364  1  0.941700  0.118800  0.517700  0.2211
  H  H365  1  0.826400  0.001400  0.428200  0.2211
  H  H366  1  0.173600  0.998600  0.571800  0.2211
  H  H367  1  0.878300  0.965500  0.443300  0.2211
  H  H368  1  0.121700  0.034500  0.556700  0.2211
  H  H369  1  0.825400  0.978200  0.540000  0.2211
  H  H370  1  0.174600  0.021800  0.460000  0.2211
  H  H371  1  0.773500  0.014000  0.525000  0.2211
  H  H372  1  0.226500  0.986000  0.475000  0.2211
  H  H373  1  0.936000  0.884100  0.551000  0.2211
  H  H374  1  0.064000  0.115900  0.449000  0.2211
  H  H375  1  0.874700  0.927700  0.560600  0.2211
  H  H376  1  0.125300  0.072300  0.439400  0.2211
  H  H377  1  0.029700  0.653800  0.395100  0.2211
  H  H378  1  0.970300  0.346200  0.604900  0.2211
  H  H379  1  0.971600  0.664300  0.435300  0.2211
  H  H380  1  0.028400  0.335700  0.564700  0.2211
  H  H381  1  0.008600  0.587900  0.516500  0.2211
  H  H382  1  0.991400  0.412100  0.483500  0.2211
  H  H383  1  0.066800  0.577500  0.476100  0.2211
  H  H384  1  0.933200  0.422500  0.523900  0.2211
  H  H385  1  0.827700  0.744400  0.426800  0.2211
  H  H386  1  0.172300  0.255600  0.573200  0.2211
  H  H387  1  0.876500  0.717000  0.446300  0.2211
  H  H388  1  0.123500  0.283000  0.553700  0.2211
  H  H389  1  0.821900  0.659700  0.540600  0.2211
  H  H390  1  0.178100  0.340300  0.459400  0.2211
  H  H391  1  0.773000  0.687000  0.521400  0.2211
  H  H392  1  0.227000  0.313000  0.478600  0.2211
  H  H393  1  0.948600  0.616700  0.539300  0.2211
  H  H394  1  0.051400  0.383300  0.460700  0.2211
  H  H395  1  0.883400  0.644100  0.562200  0.2211
  H  H396  1  0.116600  0.355900  0.437800  0.2211
  H  H397  1  0.083500  0.604800  0.348100  0.2211
  H  H398  1  0.916500  0.395200  0.651900  0.2211
  H  H399  1  0.073500  0.571000  0.331500  0.2211
  H  H400  1  0.926500  0.429000  0.668500  0.2211
  H  H401  1  0.107100  0.482400  0.409000  0.2211
  H  H402  1  0.892900  0.517600  0.591000  0.2211
  H  H403  1  0.117000  0.516100  0.425800  0.2211
  H  H404  1  0.883000  0.483900  0.574200  0.2211
  H  H405  1  0.999500  0.573800  0.258000  0.2211
  H  H406  1  0.000500  0.426200  0.742000  0.2211
  H  H407  1  0.039200  0.552600  0.287300  0.2211
  H  H408  1  0.960800  0.447400  0.712700  0.2211
  H  H409  1  0.025300  0.456600  0.336300  0.2211
  H  H410  1  0.974700  0.543400  0.663700  0.2211
  H  H411  1  0.985600  0.477800  0.306900  0.2211
  H  H412  1  0.014400  0.522200  0.693100  0.2211
  H  H413  1  0.075800  0.460800  0.401300  0.2211
  H  H414  1  0.924200  0.539200  0.598700  0.2211
  H  H415  1  0.070900  0.442800  0.361100  0.2211
  H  H416  1  0.929100  0.557200  0.638900  0.2211
  H  H417  1  0.345100  0.603800  0.088000  0.2211
  H  H418  1  0.654900  0.396200  0.912000  0.2211
  H  H419  1  0.330800  0.569600  0.076000  0.2211
  H  H420  1  0.669200  0.430400  0.924000  0.2211
  H  H421  1  0.413200  0.483600  0.103500  0.2211
  H  H422  1  0.586800  0.516400  0.896500  0.2211
  H  H423  1  0.427400  0.517800  0.115500  0.2211
  H  H424  1  0.572600  0.482200  0.884500  0.2211
  H  H425  1  0.260000  0.575800  0.997600  0.2211
  H  H426  1  0.740000  0.424200  0.002400  0.2211
  H  H427  1  0.292600  0.555100  0.034100  0.2211
  H  H428  1  0.707400  0.444900  0.965900  0.2211
  H  H429  1  0.336200  0.457800  0.024200  0.2211
  H  H430  1  0.663800  0.542200  0.975800  0.2211
  H  H431  1  0.303500  0.478500  0.987800  0.2211
  H  H432  1  0.696500  0.521500  0.012200  0.2211
  H  H433  1  0.382100  0.457700  0.106500  0.2211
  H  H434  1  0.617900  0.542300  0.893500  0.2211
  H  H435  1  0.355200  0.440700  0.083500  0.2211
  H  H436  1  0.644800  0.559300  0.916500  0.2211
  H  H437  1  0.392700  0.654100  0.035900  0.2211
  H  H438  1  0.607300  0.345900  0.964100  0.2211
  H  H439  1  0.427700  0.667100  0.975700  0.2211
  H  H440  1  0.572300  0.332900  0.024300  0.2211
  H  H441  1  0.514600  0.590300  0.002400  0.2211
  H  H442  1  0.485400  0.409700  0.997600  0.2211
  H  H443  1  0.479500  0.577300  0.062700  0.2211
  H  H444  1  0.520500  0.422700  0.937300  0.2211
  H  H445  1  0.430000  0.738900  0.825100  0.2211
  H  H446  1  0.570000  0.261100  0.174900  0.2211
  H  H447  1  0.445300  0.714200  0.876100  0.2211
  H  H448  1  0.554700  0.285800  0.123900  0.2211
  H  H449  1  0.545300  0.661500  0.824300  0.2211
  H  H450  1  0.454700  0.338500  0.175700  0.2211
  H  H451  1  0.530000  0.686200  0.773300  0.2211
  H  H452  1  0.470000  0.313800  0.226700  0.2211
  H  H453  1  0.542000  0.611300  0.947000  0.2211
  H  H454  1  0.458000  0.388700  0.053000  0.2211
  H  H455  1  0.562300  0.635000  0.879900  0.2211
  H  H456  1  0.437700  0.365000  0.120100  0.2211
  H  H457  1  0.394000  0.915200  0.034200  0.2211
  H  H458  1  0.606000  0.084800  0.965800  0.2211
  H  H459  1  0.429300  0.925500  0.974300  0.2211
  H  H460  1  0.570700  0.074500  0.025700  0.2211
  H  H461  1  0.515200  0.893700  0.000500  0.2211
  H  H462  1  0.484800  0.106300  0.999500  0.2211
  H  H463  1  0.479900  0.883400  0.060400  0.2211
  H  H464  1  0.520100  0.116600  0.939600  0.2211
  H  H465  1  0.427400  0.998500  0.834400  0.2211
  H  H466  1  0.572600  0.001500  0.165600  0.2211
  H  H467  1  0.449400  0.959500  0.881800  0.2211
  H  H468  1  0.550600  0.040500  0.118200  0.2211
  H  H469  1  0.544700  0.974300  0.819400  0.2211
  H  H470  1  0.455300  0.025700  0.180600  0.2211
  H  H471  1  0.522800  0.013200  0.771900  0.2211
  H  H472  1  0.477200  0.986800  0.228100  0.2211
  H  H473  1  0.549200  0.889400  0.941800  0.2211
  H  H474  1  0.450800  0.110600  0.058200  0.2211
  H  H475  1  0.564000  0.920000  0.875100  0.2211
  H  H476  1  0.436000  0.080000  0.124900  0.2211
  H  H477  1  0.344600  0.964400  0.086700  0.2211
  H  H478  1  0.655400  0.035600  0.913300  0.2211
  H  H479  1  0.333200  0.025000  0.071000  0.2211
  H  H480  1  0.666800  0.975000  0.929000  0.2211
  H  H481  1  0.412600  0.000200  0.103400  0.2211
  H  H482  1  0.587400  0.999800  0.896600  0.2211
  H  H483  1  0.424000  0.939600  0.119100  0.2211
  H  H484  1  0.576000  0.060400  0.880900  0.2211
  H  H485  1  0.262200  0.171600  0.993400  0.2211
  H  H486  1  0.737800  0.828400  0.006600  0.2211
  H  H487  1  0.288800  0.121500  0.034100  0.2211
  H  H488  1  0.711200  0.878500  0.965900  0.2211
  H  H489  1  0.336600  0.177800  0.030200  0.2211
  H  H490  1  0.663400  0.822200  0.969800  0.2211
  H  H491  1  0.310000  0.227900  0.989500  0.2211
  H  H492  1  0.690000  0.772100  0.010500  0.2211
  H  H493  1  0.392700  0.061300  0.090600  0.2211
  H  H494  1  0.607300  0.938700  0.909400  0.2211
  H  H495  1  0.359100  0.125600  0.082300  0.2211
  H  H496  1  0.640900  0.874400  0.917700  0.2211
  H  H497  1  0.344700  0.083100  0.968500  0.2211
  H  H498  1  0.655300  0.916900  0.031500  0.2211
  H  H499  1  0.333800  0.071100  0.028200  0.2211
  H  H500  1  0.666200  0.928900  0.971800  0.2211
  H  H501  1  0.415900  0.102200  0.998100  0.2211
  H  H502  1  0.584100  0.897800  0.001900  0.2211
  H  H503  1  0.426800  0.114100  0.938500  0.2211
  H  H504  1  0.573200  0.885900  0.061500  0.2211
  H  H505  1  0.263500  0.987700  0.176000  0.2211
  H  H506  1  0.736500  0.012300  0.824000  0.2211
  H  H507  1  0.284900  0.031400  0.124900  0.2211
  H  H508  1  0.715100  0.968600  0.875100  0.2211
  H  H509  1  0.338200  0.030200  0.174100  0.2211
  H  H510  1  0.661800  0.969800  0.825900  0.2211
  H  H511  1  0.316800  0.986600  0.225100  0.2211
  H  H512  1  0.683200  0.013400  0.774900  0.2211
  H  H513  1  0.374900  0.112700  0.050200  0.2211
  H  H514  1  0.625100  0.887300  0.949800  0.2211
  H  H515  1  0.359500  0.087200  0.115600  0.2211
  H  H516  1  0.640500  0.912800  0.884400  0.2211
  H  H517  1  0.391800  0.038200  0.914900  0.2211
  H  H518  1  0.608200  0.961800  0.085100  0.2211
  H  H519  1  0.424900  0.977500  0.928100  0.2211
  H  H520  1  0.575100  0.022500  0.071900  0.2211
  H  H521  1  0.513500  0.000300  0.894100  0.2211
  H  H522  1  0.486500  0.999700  0.105900  0.2211
  H  H523  1  0.480300  0.061000  0.880900  0.2211
  H  H524  1  0.519700  0.939000  0.119100  0.2211
  H  H525  1  0.428100  0.826100  0.005900  0.2211
  H  H526  1  0.571900  0.173900  0.994100  0.2211
  H  H527  1  0.442300  0.878200  0.967700  0.2211
  H  H528  1  0.557700  0.121800  0.032300  0.2211
  H  H529  1  0.542500  0.825800  0.971900  0.2211
  H  H530  1  0.457500  0.174200  0.028100  0.2211
  H  H531  1  0.528300  0.773700  0.010100  0.2211
  H  H532  1  0.471700  0.226300  0.989900  0.2211
  H  H533  1  0.544400  0.942900  0.904200  0.2211
  H  H534  1  0.455600  0.057100  0.095800  0.2211
  H  H535  1  0.565900  0.876700  0.924000  0.2211
  H  H536  1  0.434100  0.123300  0.076000  0.2211
  H  H537  1  0.393200  0.037800  0.648600  0.2211
  H  H538  1  0.606800  0.962200  0.351400  0.2211
  H  H539  1  0.424800  0.976700  0.665400  0.2211
  H  H540  1  0.575200  0.023300  0.334600  0.2211
  H  H541  1  0.516700  0.996500  0.594900  0.2211
  H  H542  1  0.483300  0.003500  0.405100  0.2211
  H  H543  1  0.485100  0.057500  0.578200  0.2211
  H  H544  1  0.514900  0.942500  0.421800  0.2211
  H  H545  1  0.430500  0.827300  0.741100  0.2211
  H  H546  1  0.569500  0.172700  0.258900  0.2211
  H  H547  1  0.445900  0.878700  0.713000  0.2211
  H  H548  1  0.554100  0.121300  0.287000  0.2211
  H  H549  1  0.544600  0.825700  0.659200  0.2211
  H  H550  1  0.455400  0.174300  0.340800  0.2211
  H  H551  1  0.529200  0.774300  0.687300  0.2211
  H  H552  1  0.470800  0.225700  0.312700  0.2211
  H  H553  1  0.538100  0.942800  0.596300  0.2211
  H  H554  1  0.461900  0.057200  0.403700  0.2211
  H  H555  1  0.565200  0.879600  0.629500  0.2211
  H  H556  1  0.434800  0.120400  0.370500  0.2211
  H  H557  1  0.346300  0.082200  0.608200  0.2211
  H  H558  1  0.653700  0.917800  0.391800  0.2211
  H  H559  1  0.330800  0.071000  0.574400  0.2211
  H  H560  1  0.669200  0.929000  0.425600  0.2211
  H  H561  1  0.409600  0.103300  0.486500  0.2211
  H  H562  1  0.590400  0.896700  0.513500  0.2211
  H  H563  1  0.425000  0.114500  0.520400  0.2211
  H  H564  1  0.575000  0.885500  0.479600  0.2211
  H  H565  1  0.258500  0.989800  0.568600  0.2211
  H  H566  1  0.741500  0.010200  0.431400  0.2211
  H  H567  1  0.280900  0.030800  0.559000  0.2211
  H  H568  1  0.719100  0.969200  0.441000  0.2211
  H  H569  1  0.341600  0.028900  0.458700  0.2211
  H  H570  1  0.658400  0.971100  0.541300  0.2211
  H  H571  1  0.319300  0.987900  0.468200  0.2211
  H  H572  1  0.680700  0.012100  0.531800  0.2211
  H  H573  1  0.390600  0.096500  0.453400  0.2211
  H  H574  1  0.609400  0.903500  0.546600  0.2211
  H  H575  1  0.360800  0.073400  0.440400  0.2211
  H  H576  1  0.639200  0.926600  0.559600  0.2211
  H  H577  1  0.081800  0.346600  0.604900  0.2211
  H  H578  1  0.918200  0.653400  0.395100  0.2211
  H  H579  1  0.072600  0.332800  0.568300  0.2211
  H  H580  1  0.927400  0.667200  0.431700  0.2211
  H  H581  1  0.107800  0.411500  0.483000  0.2211
  H  H582  1  0.892200  0.588500  0.517000  0.2211
  H  H583  1  0.117000  0.425300  0.519700  0.2211
  H  H584  1  0.883000  0.574700  0.480300  0.2211
  H  H585  1  0.004100  0.252400  0.572800  0.2211
  H  H586  1  0.995900  0.747600  0.427200  0.2211
  H  H587  1  0.040000  0.285500  0.552600  0.2211
  H  H588  1  0.960000  0.714500  0.447400  0.2211
  H  H589  1  0.016500  0.341600  0.461200  0.2211
  H  H590  1  0.983500  0.658400  0.538800  0.2211
  H  H591  1  0.980700  0.308500  0.481300  0.2211
  H  H592  1  0.019300  0.691500  0.518700  0.2211
  H  H593  1  0.094600  0.391600  0.455300  0.2211
  H  H594  1  0.905400  0.608400  0.544700  0.2211
  H  H595  1  0.078700  0.358400  0.438700  0.2211
  H  H596  1  0.921300  0.641600  0.561300  0.2211
  H  H597  1  0.038100  0.395600  0.649400  0.2211
  H  H598  1  0.961900  0.604400  0.350600  0.2211
  H  H599  1  0.977000  0.427000  0.666600  0.2211
  H  H600  1  0.023000  0.573000  0.333400  0.2211
  H  H601  1  0.995300  0.517800  0.589900  0.2211
  H  H602  1  0.004700  0.482200  0.410100  0.2211
  H  H603  1  0.056400  0.486400  0.572600  0.2211
  H  H604  1  0.943600  0.513600  0.427400  0.2211
  H  H605  1  0.822700  0.430800  0.741800  0.2211
  H  H606  1  0.177300  0.569200  0.258200  0.2211
  H  H607  1  0.875000  0.444600  0.714700  0.2211
  H  H608  1  0.125000  0.555400  0.285300  0.2211
  H  H609  1  0.824400  0.544400  0.660400  0.2211
  H  H610  1  0.175600  0.455600  0.339600  0.2211
  H  H611  1  0.772100  0.530600  0.687500  0.2211
  H  H612  1  0.227900  0.469400  0.312500  0.2211
  H  H613  1  0.933000  0.549400  0.637300  0.2211
  H  H614  1  0.067000  0.450600  0.362700  0.2211
  H  H615  1  0.870100  0.559100  0.650600  0.2211
  H  H616  1  0.129900  0.440900  0.349400  0.2211
  H  H617  1  0.036400  0.393200  0.915800  0.2211
  H  H618  1  0.963600  0.606800  0.084200  0.2211
  H  H619  1  0.975500  0.425700  0.928400  0.2211
  H  H620  1  0.024500  0.574300  0.071600  0.2211
  H  H621  1  0.996200  0.515000  0.896300  0.2211
  H  H622  1  0.003800  0.485000  0.103700  0.2211
  H  H623  1  0.057100  0.482600  0.883600  0.2211
  H  H624  1  0.942900  0.517400  0.116400  0.2211
  H  H625  1  0.828900  0.427600  0.002300  0.2211
  H  H626  1  0.171100  0.572400  0.997700  0.2211
  H  H627  1  0.878200  0.445800  0.960800  0.2211
  H  H628  1  0.121800  0.554200  0.039200  0.2211
  H  H629  1  0.824000  0.542700  0.973200  0.2211
  H  H630  1  0.176000  0.457300  0.026800  0.2211
  H  H631  1  0.774700  0.524500  0.014700  0.2211
  H  H632  1  0.225300  0.475500  0.985300  0.2211
  H  H633  1  0.940000  0.549500  0.886300  0.2211
  H  H634  1  0.060000  0.450500  0.113700  0.2211
  H  H635  1  0.875900  0.566100  0.920800  0.2211
  H  H636  1  0.124100  0.433900  0.079200  0.2211
  H  H637  1  0.084500  0.344300  0.964600  0.2211
  H  H638  1  0.915500  0.655700  0.035400  0.2211
  H  H639  1  0.073000  0.330900  0.024700  0.2211
  H  H640  1  0.927000  0.669100  0.975300  0.2211
  H  H641  1  0.103600  0.412000  0.998600  0.2211
  H  H642  1  0.896400  0.588000  0.001400  0.2211
  H  H643  1  0.115100  0.425400  0.938500  0.2211
  H  H644  1  0.884900  0.574600  0.061500  0.2211
  H  H645  1  0.998100  0.258100  0.170000  0.2211
  H  H646  1  0.001900  0.741900  0.830000  0.2211
  H  H647  1  0.034600  0.289600  0.119600  0.2211
  H  H648  1  0.965400  0.710400  0.880400  0.2211
  H  H649  1  0.026800  0.337400  0.178200  0.2211
  H  H650  1  0.973200  0.662600  0.821800  0.2211
  H  H651  1  0.990300  0.305900  0.228600  0.2211
  H  H652  1  0.009700  0.694100  0.771400  0.2211
  H  H653  1  0.086100  0.393900  0.063600  0.2211
  H  H654  1  0.913900  0.606100  0.936400  0.2211
  H  H655  1  0.072700  0.362300  0.128600  0.2211
  H  H656  1  0.927300  0.637700  0.871400  0.2211
  H  H657  1  0.964900  0.347900  0.082200  0.2211
  H  H658  1  0.035100  0.652100  0.917800  0.2211
  H  H659  1  0.025500  0.335000  0.068300  0.2211
  H  H660  1  0.974500  0.665000  0.931700  0.2211
  H  H661  1  0.000800  0.410100  0.106400  0.2211
  H  H662  1  0.999200  0.589900  0.893600  0.2211
  H  H663  1  0.940200  0.423000  0.120200  0.2211
  H  H664  1  0.059800  0.577000  0.879800  0.2211
  H  H665  1  0.170500  0.262200  0.994700  0.2211
  H  H666  1  0.829500  0.737800  0.005300  0.2211
  H  H667  1  0.122500  0.289300  0.036100  0.2211
  H  H668  1  0.877500  0.710700  0.963900  0.2211
  H  H669  1  0.182700  0.336300  0.026800  0.2211
  H  H670  1  0.817300  0.663700  0.973200  0.2211
  H  H671  1  0.230700  0.309200  0.985500  0.2211
  H  H672  1  0.769300  0.690800  0.014500  0.2211
  H  H673  1  0.057700  0.372500  0.113400  0.2211
  H  H674  1  0.942300  0.627500  0.886600  0.2211
  H  H675  1  0.123100  0.358700  0.082300  0.2211
  H  H676  1  0.876900  0.641300  0.917700  0.2211
  H  H677  1  0.913400  0.393600  0.039000  0.2211
  H  H678  1  0.086600  0.606400  0.961000  0.2211
  H  H679  1  0.925900  0.426900  0.978300  0.2211
  H  H680  1  0.074100  0.573100  0.021700  0.2211
  H  H681  1  0.897000  0.514400  0.000500  0.2211
  H  H682  1  0.103000  0.485600  0.999500  0.2211
  H  H683  1  0.884500  0.481100  0.061200  0.2211
  H  H684  1  0.115500  0.518900  0.938800  0.2211
  H  H685  1  0.997400  0.427300  0.831500  0.2211
  H  H686  1  0.002600  0.572700  0.168500  0.2211
  H  H687  1  0.958600  0.449500  0.878600  0.2211
  H  H688  1  0.041400  0.550500  0.121400  0.2211
  H  H689  1  0.979200  0.542300  0.818200  0.2211
  H  H690  1  0.020800  0.457700  0.181800  0.2211
  H  H691  1  0.018100  0.520200  0.770900  0.2211
  H  H692  1  0.981900  0.479800  0.229100  0.2211
  H  H693  1  0.915800  0.542100  0.939200  0.2211
  H  H694  1  0.084200  0.457900  0.060800  0.2211
  H  H695  1  0.925200  0.559200  0.875400  0.2211
  H  H696  1  0.074800  0.440800  0.124600  0.2211
  H  H697  1  0.651400  0.394300  0.038200  0.2211
  H  H698  1  0.348600  0.605700  0.961800  0.2211
  H  H699  1  0.668300  0.425700  0.977000  0.2211
  H  H700  1  0.331700  0.574300  0.023000  0.2211
  H  H701  1  0.591700  0.516400  0.995600  0.2211
  H  H702  1  0.408300  0.483600  0.004400  0.2211
  H  H703  1  0.574800  0.485000  0.056700  0.2211
  H  H704  1  0.425200  0.515000  0.943300  0.2211
  H  H705  1  0.744300  0.431200  0.820900  0.2211
  H  H706  1  0.255700  0.568800  0.179100  0.2211
  H  H707  1  0.718400  0.442500  0.874400  0.2211
  H  H708  1  0.281600  0.557500  0.125600  0.2211
  H  H709  1  0.659300  0.542000  0.828600  0.2211
  H  H710  1  0.340700  0.458000  0.171400  0.2211
  H  H711  1  0.685200  0.530600  0.775200  0.2211
  H  H712  1  0.314800  0.469400  0.224800  0.2211
  H  H713  1  0.606600  0.542400  0.944400  0.2211
  H  H714  1  0.393400  0.457600  0.055600  0.2211
  H  H715  1  0.633100  0.565900  0.877900  0.2211
  H  H716  1  0.366900  0.434100  0.122100  0.2211
  H  H717  1  0.605300  0.344400  0.084400  0.2211
  H  H718  1  0.394700  0.655600  0.915600  0.2211
  H  H719  1  0.570000  0.332000  0.072000  0.2211
  H  H720  1  0.430000  0.668000  0.928000  0.2211
  H  H721  1  0.484600  0.412300  0.104100  0.2211
  H  H722  1  0.515400  0.587700  0.895900  0.2211
  H  H723  1  0.519900  0.424600  0.116600  0.2211
  H  H724  1  0.480100  0.575400  0.883400  0.2211
  H  H725  1  0.568500  0.257400  0.996900  0.2211
  H  H726  1  0.431500  0.742600  0.003100  0.2211
  H  H727  1  0.556400  0.282300  0.037000  0.2211
  H  H728  1  0.443600  0.717700  0.963000  0.2211
  H  H729  1  0.457200  0.341500  0.031100  0.2211
  H  H730  1  0.542800  0.658500  0.968900  0.2211
  H  H731  1  0.469200  0.316600  0.991000  0.2211
  H  H732  1  0.530800  0.683400  0.009000  0.2211
  H  H733  1  0.456400  0.402200  0.085900  0.2211
  H  H734  1  0.543600  0.597800  0.914100  0.2211
  H  H735  1  0.435900  0.370600  0.071600  0.2211
  H  H736  1  0.564100  0.629400  0.928400  0.2211
  H  H737  1  0.604800  0.083900  0.347700  0.2211
  H  H738  1  0.395200  0.916100  0.652300  0.2211
  H  H739  1  0.571300  0.068900  0.335600  0.2211
  H  H740  1  0.428700  0.931100  0.664400  0.2211
  H  H741  1  0.483700  0.103200  0.413200  0.2211
  H  H742  1  0.516300  0.896800  0.586800  0.2211
  H  H743  1  0.517100  0.118200  0.425400  0.2211
  H  H744  1  0.482900  0.881800  0.574600  0.2211
  H  H745  1  0.574200  0.997900  0.256200  0.2211
  H  H746  1  0.425800  0.002100  0.743800  0.2211
  H  H747  1  0.552900  0.038400  0.284600  0.2211
  H  H748  1  0.447100  0.961600  0.715400  0.2211
  H  H749  1  0.458500  0.020800  0.337600  0.2211
  H  H750  1  0.541500  0.979200  0.662400  0.2211
  H  H751  1  0.479900  0.980200  0.309200  0.2211
  H  H752  1  0.520100  0.019800  0.690800  0.2211
  H  H753  1  0.461400  0.103000  0.379100  0.2211
  H  H754  1  0.538600  0.897000  0.620900  0.2211
  H  H755  1  0.440700  0.075200  0.362000  0.2211
  H  H756  1  0.559300  0.924800  0.638000  0.2211
  H  H757  1  0.656100  0.031200  0.391800  0.2211
  H  H758  1  0.343900  0.968800  0.608200  0.2211
  H  H759  1  0.666600  0.972300  0.430200  0.2211
  H  H760  1  0.333400  0.027700  0.569800  0.2211
  H  H761  1  0.588100  0.005800  0.512700  0.2211
  H  H762  1  0.411900  0.994200  0.487300  0.2211
  H  H763  1  0.577600  0.064800  0.474200  0.2211
  H  H764  1  0.422400  0.935200  0.525800  0.2211
  H  H765  1  0.738300  0.825500  0.427200  0.2211
  H  H766  1  0.261700  0.174500  0.572800  0.2211
  H  H767  1  0.711800  0.877700  0.440900  0.2211
  H  H768  1  0.288200  0.122300  0.559100  0.2211
  H  H769  1  0.659800  0.826400  0.541700  0.2211
  H  H770  1  0.340200  0.173600  0.458300  0.2211
  H  H771  1  0.686300  0.774200  0.527900  0.2211
  H  H772  1  0.313700  0.225800  0.472100  0.2211
  H  H773  1  0.608900  0.944300  0.545000  0.2211
  H  H774  1  0.391100  0.055700  0.455000  0.2211
  H  H775  1  0.637600  0.878200  0.564400  0.2211
  H  H776  1  0.362400  0.121800  0.435600  0.2211
  H  H777  1  0.915100  0.034200  0.396200  0.2211
  H  H778  1  0.084900  0.965800  0.603800  0.2211
  H  H779  1  0.929800  0.973800  0.430700  0.2211
  H  H780  1  0.070200  0.026200  0.569300  0.2211
  H  H781  1  0.897300  0.000100  0.516600  0.2211
  H  H782  1  0.102700  0.999900  0.483400  0.2211
  H  H783  1  0.882600  0.060400  0.482300  0.2211
  H  H784  1  0.117400  0.939600  0.517700  0.2211
  H  H785  1  0.004900  0.825700  0.430500  0.2211
  H  H786  1  0.995100  0.174300  0.569500  0.2211
  H  H787  1  0.965100  0.876100  0.447400  0.2211
  H  H788  1  0.034900  0.123900  0.552600  0.2211
  H  H789  1  0.974200  0.821400  0.545700  0.2211
  H  H790  1  0.025800  0.178600  0.454300  0.2211
  H  H791  1  0.014000  0.771000  0.528800  0.2211
  H  H792  1  0.986000  0.229000  0.471200  0.2211
  H  H793  1  0.918700  0.941400  0.536800  0.2211
  H  H794  1  0.081300  0.058600  0.463200  0.2211
  H  H795  1  0.924300  0.877700  0.558000  0.2211
  H  H796  1  0.075700  0.122300  0.442000  0.2211
  H  H797  1  0.962000  0.081600  0.349800  0.2211
  H  H798  1  0.038000  0.918400  0.650200  0.2211
  H  H799  1  0.022800  0.070100  0.332700  0.2211
  H  H800  1  0.977200  0.929900  0.667300  0.2211
  H  H801  1  0.003000  0.104100  0.408900  0.2211
  H  H802  1  0.997000  0.895900  0.591100  0.2211
  H  H803  1  0.942200  0.115600  0.426000  0.2211
  H  H804  1  0.057800  0.884400  0.574000  0.2211
  H  H805  1  0.179600  0.997800  0.257500  0.2211
  H  H806  1  0.820400  0.002200  0.742500  0.2211
  H  H807  1  0.126400  0.034100  0.286800  0.2211
  H  H808  1  0.873600  0.965900  0.713200  0.2211
  H  H809  1  0.174300  0.021700  0.348000  0.2211
  H  H810  1  0.825700  0.978300  0.652000  0.2211
  H  H811  1  0.227500  0.985500  0.318600  0.2211
  H  H812  1  0.772500  0.014500  0.681400  0.2211
  H  H813  1  0.062100  0.085400  0.398000  0.2211
  H  H814  1  0.937900  0.914600  0.602000  0.2211
  H  H815  1  0.126800  0.072100  0.361300  0.2211
  H  H816  1  0.873200  0.927900  0.638700  0.2211
  H  H817  1  0.243800  0.009400  0.180500  0.5578
  H  H818  1  0.756200  0.990600  0.819500  0.5578
  H  H819  1  0.262000  0.057900  0.136100  0.5578
  H  H820  1  0.738000  0.942100  0.863900  0.5578
  H  H821  1  0.316500  0.044100  0.191700  0.5578
  H  H822  1  0.683500  0.955900  0.808300  0.5578
  H  H823  1  0.298300  0.995600  0.236100  0.5578
  H  H824  1  0.701700  0.004400  0.763900  0.5578
  H  H825  1  0.241900  0.186200  0.007400  0.5578
  H  H826  1  0.758100  0.813800  0.992600  0.5578
  H  H827  1  0.259300  0.139000  0.055400  0.5578
  H  H828  1  0.740700  0.861000  0.944600  0.5578
  H  H829  1  0.317300  0.188500  0.046000  0.5578
  H  H830  1  0.682700  0.811500  0.954000  0.5578
  H  H831  1  0.299800  0.235800  0.998000  0.5578
  H  H832  1  0.700200  0.764200  0.002000  0.5578
  H  H833  1  0.338100  0.092800  0.140100  0.5578
  H  H834  1  0.661900  0.907200  0.859900  0.5578
  H  H835  1  0.335100  0.149300  0.086800  0.5578
  H  H836  1  0.664900  0.850700  0.913200  0.5578
  H  H837  1  0.184500  0.242800  0.007000  0.5578
  H  H838  1  0.815500  0.757200  0.993000  0.5578
  H  H839  1  0.136900  0.259800  0.055000  0.5578
  H  H840  1  0.863100  0.740200  0.945000  0.5578
  H  H841  1  0.186700  0.315700  0.048700  0.5578
  H  H842  1  0.813300  0.684300  0.951300  0.5578
  H  H843  1  0.234300  0.298700  0.000700  0.5578
  H  H844  1  0.765700  0.701300  0.999300  0.5578
  H  H845  1  0.005100  0.242000  0.185800  0.5578
  H  H846  1  0.994900  0.758000  0.814200  0.5578
  H  H847  1  0.054700  0.256800  0.139000  0.5578
  H  H848  1  0.945300  0.743200  0.861000  0.5578
  H  H849  1  0.047800  0.314500  0.187300  0.5578
  H  H850  1  0.952200  0.685500  0.812700  0.5578
  H  H851  1  0.998300  0.299800  0.233900  0.5578
  H  H852  1  0.001700  0.700200  0.766100  0.5578
  H  H853  1  0.143900  0.339300  0.087800  0.5578
  H  H854  1  0.856100  0.660700  0.912200  0.5578
  H  H855  1  0.091900  0.336200  0.145300  0.5578
  H  H856  1  0.908100  0.663800  0.854700  0.5578
  H  H857  1  0.012500  0.182800  0.238700  0.5578
  H  H858  1  0.987500  0.817200  0.761300  0.5578
  H  H859  1  0.058900  0.137200  0.260000  0.5578
  H  H860  1  0.941100  0.862800  0.740000  0.5578
  H  H861  1  0.039500  0.190600  0.319500  0.5578
  H  H862  1  0.960500  0.809400  0.680500  0.5578
  H  H863  1  0.993200  0.236200  0.298100  0.5578
  H  H864  1  0.006800  0.763800  0.701900  0.5578
  H  H865  1  0.183900  0.011000  0.238500  0.5578
  H  H866  1  0.816100  0.989000  0.761500  0.5578
  H  H867  1  0.137100  0.057600  0.258700  0.5578
  H  H868  1  0.862900  0.942400  0.741300  0.5578
  H  H869  1  0.186900  0.040400  0.320500  0.5578
  H  H870  1  0.813100  0.959600  0.679500  0.5578
  H  H871  1  0.233700  0.993800  0.300300  0.5578
  H  H872  1  0.766300  0.006200  0.699700  0.5578
  H  H873  1  0.085600  0.144800  0.336800  0.5578
  H  H874  1  0.914400  0.855200  0.663200  0.5578
  H  H875  1  0.142400  0.091800  0.338800  0.5578
  H  H876  1  0.857600  0.908200  0.661200  0.5578
  H  H877  1  0.435300  0.812400  0.993200  0.5578
  H  H878  1  0.564700  0.187600  0.006800  0.5578
  H  H879  1  0.451400  0.861000  0.945600  0.5578
  H  H880  1  0.548600  0.139000  0.054400  0.5578
  H  H881  1  0.549200  0.815800  0.954700  0.5578
  H  H882  1  0.450800  0.184200  0.045300  0.5578
  H  H883  1  0.533100  0.767200  0.002400  0.5578
  H  H884  1  0.466900  0.232800  0.997600  0.5578
  H  H885  1  0.434800  0.991800  0.813200  0.5578
  H  H886  1  0.565200  0.008200  0.186800  0.5578
  H  H887  1  0.452700  0.943600  0.860400  0.5578
  H  H888  1  0.547300  0.056400  0.139600  0.5578
  H  H889  1  0.550300  0.953600  0.812500  0.5578
  H  H890  1  0.449700  0.046400  0.187500  0.5578
  H  H891  1  0.532500  0.001800  0.765100  0.5578
  H  H892  1  0.467500  0.998200  0.234900  0.5578
  H  H893  1  0.569600  0.855100  0.916200  0.5578
  H  H894  1  0.430400  0.144900  0.083800  0.5578
  H  H895  1  0.571800  0.908100  0.860200  0.5578
  H  H896  1  0.428200  0.091900  0.139800  0.5578
  H  H897  1  0.993400  0.437000  0.810400  0.5578
  H  H898  1  0.006600  0.563000  0.189600  0.5578
  H  H899  1  0.944500  0.451600  0.858900  0.5578
  H  H900  1  0.055500  0.548400  0.141100  0.5578
  H  H901  1  0.951600  0.549800  0.817800  0.5578
  H  H902  1  0.048400  0.450200  0.182200  0.5578
  H  H903  1  0.000400  0.535300  0.769200  0.5578
  H  H904  1  0.999600  0.464700  0.230800  0.5578
  H  H905  1  0.816000  0.435300  0.991400  0.5578
  H  H906  1  0.184000  0.564700  0.008600  0.5578
  H  H907  1  0.860500  0.457200  0.942200  0.5578
  H  H908  1  0.139500  0.542800  0.057800  0.5578
  H  H909  1  0.808400  0.552500  0.957900  0.5578
  H  H910  1  0.191600  0.447500  0.042100  0.5578
  H  H911  1  0.763900  0.530600  0.007100  0.5578
  H  H912  1  0.236100  0.469400  0.992900  0.5578
  H  H913  1  0.911000  0.569100  0.857700  0.5578
  H  H914  1  0.089000  0.430900  0.142300  0.5578
  H  H915  1  0.856200  0.569100  0.913700  0.5578
  H  H916  1  0.143800  0.430900  0.086300  0.5578
  H  H917  1  0.815700  0.991400  0.434600  0.5578
  H  H918  1  0.184300  0.008600  0.565400  0.5578
  H  H919  1  0.862300  0.942900  0.453500  0.5578
  H  H920  1  0.137700  0.057100  0.546500  0.5578
  H  H921  1  0.813600  0.955100  0.550300  0.5578
  H  H922  1  0.186400  0.044900  0.449700  0.5578
  H  H923  1  0.767100  0.003500  0.531300  0.5578
  H  H924  1  0.232900  0.996500  0.468700  0.5578
  H  H925  1  0.989900  0.814700  0.434700  0.5578
  H  H926  1  0.010100  0.185300  0.565300  0.5578
  H  H927  1  0.941800  0.861100  0.454200  0.5578
  H  H928  1  0.058200  0.138900  0.545800  0.5578
  H  H929  1  0.957300  0.813300  0.549200  0.5578
  H  H930  1  0.042700  0.186700  0.450800  0.5578
  H  H931  1  0.005500  0.766900  0.529700  0.5578
  H  H932  1  0.994500  0.233100  0.470300  0.5578
  H  H933  1  0.859200  0.913400  0.565400  0.5578
  H  H934  1  0.140800  0.086600  0.434600  0.5578
  H  H935  1  0.908600  0.853300  0.574200  0.5578
  H  H936  1  0.091400  0.146700  0.425800  0.5578
  H  H937  1  0.990500  0.758100  0.436700  0.5578
  H  H938  1  0.009500  0.241900  0.563300  0.5578
  H  H939  1  0.942000  0.741600  0.454400  0.5578
  H  H940  1  0.058000  0.258400  0.545600  0.5578
  H  H941  1  0.953000  0.680300  0.551500  0.5578
  H  H942  1  0.047000  0.319700  0.448500  0.5578
  H  H943  1  0.001400  0.696800  0.533900  0.5578
  H  H944  1  0.998600  0.303200  0.466100  0.5578
  H  H945  1  0.814300  0.758500  0.436100  0.5578
  H  H946  1  0.185700  0.241500  0.563900  0.5578
  H  H947  1  0.860400  0.743000  0.455000  0.5578
  H  H948  1  0.139600  0.257000  0.545000  0.5578
  H  H949  1  0.813100  0.681700  0.551700  0.5578
  H  H950  1  0.186900  0.318300  0.448300  0.5578
  H  H951  1  0.767000  0.697200  0.532800  0.5578
  H  H952  1  0.233000  0.302800  0.467200  0.5578
  H  H953  1  0.909400  0.664900  0.570900  0.5578
  H  H954  1  0.090600  0.335100  0.429100  0.5578
  H  H955  1  0.850500  0.670000  0.572000  0.5578
  H  H956  1  0.149500  0.330000  0.428000  0.5578
  H  H957  1  0.183000  0.565100  0.239900  0.5578
  H  H958  1  0.817000  0.434900  0.760100  0.5578
  H  H959  1  0.137400  0.543500  0.259700  0.5578
  H  H960  1  0.862600  0.456500  0.740300  0.5578
  H  H961  1  0.189900  0.449000  0.319000  0.5578
  H  H962  1  0.810100  0.551000  0.681000  0.5578
  H  H963  1  0.235400  0.470500  0.299300  0.5578
  H  H964  1  0.764600  0.529500  0.700700  0.5578
  H  H965  1  0.005500  0.564500  0.241900  0.5578
  H  H966  1  0.994500  0.435500  0.758100  0.5578
  H  H967  1  0.056200  0.547500  0.254700  0.5578
  H  H968  1  0.943800  0.452500  0.745300  0.5578
  H  H969  1  0.048200  0.449300  0.316600  0.5578
  H  H970  1  0.951800  0.550700  0.683400  0.5578
  H  H971  1  0.997500  0.466200  0.304000  0.5578
  H  H972  1  0.002500  0.533800  0.696000  0.5578
  H  H973  1  0.143800  0.429100  0.334600  0.5578
  H  H974  1  0.856200  0.570900  0.665400  0.5578
  H  H975  1  0.091800  0.425900  0.331800  0.5578
  H  H976  1  0.908200  0.574100  0.668200  0.5578
  H  H977  1  0.238100  0.562900  0.187600  0.5578
  H  H978  1  0.761900  0.437100  0.812400  0.5578
  H  H979  1  0.256100  0.544600  0.140300  0.5578
  H  H980  1  0.743900  0.455400  0.859700  0.5578
  H  H981  1  0.321500  0.450100  0.185600  0.5578
  H  H982  1  0.678500  0.549900  0.814400  0.5578
  H  H983  1  0.303500  0.468500  0.232800  0.5578
  H  H984  1  0.696500  0.531500  0.767200  0.5578
  H  H985  1  0.241700  0.563500  0.006700  0.5578
  H  H986  1  0.758300  0.436500  0.993300  0.5578
  H  H987  1  0.256800  0.547100  0.055700  0.5578
  H  H988  1  0.743200  0.452900  0.944300  0.5578
  H  H989  1  0.320300  0.449800  0.045900  0.5578
  H  H990  1  0.679700  0.550200  0.954100  0.5578
  H  H991  1  0.305200  0.466200  0.996900  0.5578
  H  H992  1  0.694800  0.533800  0.003100  0.5578
  H  H993  1  0.341600  0.430800  0.144100  0.5578
  H  H994  1  0.658400  0.569200  0.855900  0.5578
  H  H995  1  0.339000  0.427100  0.092200  0.5578
  H  H996  1  0.661000  0.572900  0.907800  0.5578
  H  H997  1  0.433800  0.759700  0.989000  0.5578
  H  H998  1  0.566200  0.240300  0.011000  0.5578
  H  H999  1  0.455500  0.740600  0.941200  0.5578
  H  H1000  1  0.544500  0.259400  0.058800  0.5578
  H  H1001  1  0.550600  0.682500  0.957400  0.5578
  H  H1002  1  0.449400  0.317500  0.042600  0.5578
  H  H1003  1  0.528800  0.701600  0.005300  0.5578
  H  H1004  1  0.471200  0.298400  0.994700  0.5578
  H  H1005  1  0.435300  0.757500  0.817000  0.5578
  H  H1006  1  0.564700  0.242500  0.183000  0.5578
  H  H1007  1  0.456300  0.740000  0.862200  0.5578
  H  H1008  1  0.543700  0.260000  0.137800  0.5578
  H  H1009  1  0.552700  0.682700  0.809700  0.5578
  H  H1010  1  0.447300  0.317300  0.190300  0.5578
  H  H1011  1  0.531700  0.700200  0.764500  0.5578
  H  H1012  1  0.468300  0.299800  0.235500  0.5578
  H  H1013  1  0.568200  0.658000  0.916000  0.5578
  H  H1014  1  0.431800  0.342000  0.084000  0.5578
  H  H1015  1  0.570800  0.656600  0.860200  0.5578
  H  H1016  1  0.429200  0.343400  0.139800  0.5578
  H  H1017  1  0.435600  0.991000  0.759300  0.5578
  H  H1018  1  0.564400  0.009000  0.240700  0.5578
  H  H1019  1  0.454300  0.942500  0.742400  0.5578
  H  H1020  1  0.545700  0.057500  0.257600  0.5578
  H  H1021  1  0.550800  0.955000  0.681200  0.5578
  H  H1022  1  0.449200  0.045000  0.318800  0.5578
  H  H1023  1  0.532100  0.003500  0.698100  0.5578
  H  H1024  1  0.467900  0.996500  0.301900  0.5578
  H  H1025  1  0.434600  0.814100  0.758700  0.5578
  H  H1026  1  0.565400  0.185900  0.241300  0.5578
  H  H1027  1  0.453500  0.860800  0.741500  0.5578
  H  H1028  1  0.546500  0.139200  0.258500  0.5578
  H  H1029  1  0.550500  0.811700  0.682000  0.5578
  H  H1030  1  0.449500  0.188300  0.318000  0.5578
  H  H1031  1  0.531600  0.765000  0.699200  0.5578
  H  H1032  1  0.468400  0.235000  0.300800  0.5578
  H  H1033  1  0.569600  0.912600  0.659900  0.5578
  H  H1034  1  0.430400  0.087400  0.340100  0.5578
  H  H1035  1  0.570900  0.856200  0.661200  0.5578
  H  H1036  1  0.429100  0.143800  0.338800  0.5578
  H  H1037  1  0.243200  0.183300  0.565100  0.5578
  H  H1038  1  0.756800  0.816700  0.434900  0.5578
  H  H1039  1  0.262300  0.136700  0.545200  0.5578
  H  H1040  1  0.737700  0.863300  0.454800  0.5578
  H  H1041  1  0.319800  0.188500  0.448700  0.5578
  H  H1042  1  0.680200  0.811500  0.551300  0.5578
  H  H1043  1  0.300700  0.235100  0.468500  0.5578
  H  H1044  1  0.699300  0.764900  0.531500  0.5578
  H  H1045  1  0.240300  0.011200  0.566700  0.5578
  H  H1046  1  0.759700  0.988800  0.433300  0.5578
  H  H1047  1  0.260100  0.058800  0.543900  0.5578
  H  H1048  1  0.739900  0.941200  0.456100  0.5578
  H  H1049  1  0.318300  0.040200  0.450000  0.5578
  H  H1050  1  0.681700  0.959800  0.550000  0.5578
  H  H1051  1  0.298500  0.992600  0.472800  0.5578
  H  H1052  1  0.701500  0.007400  0.527200  0.5578
  H  H1053  1  0.339800  0.143000  0.431500  0.5578
  H  H1054  1  0.660200  0.857000  0.568500  0.5578
  H  H1055  1  0.343900  0.085600  0.432100  0.5578
  H  H1056  1  0.656100  0.914400  0.567900  0.5578
  H  H1057  1  0.202000  0.916300  0.276500  0.7789
  H  H1058  1  0.798000  0.083700  0.723500  0.7789
  H  H1059  1  0.183100  0.870800  0.327000  0.7789
  H  H1060  1  0.816900  0.129200  0.673000  0.7789
  H  H1061  1  0.240200  0.867800  0.373400  0.7789
  H  H1062  1  0.759800  0.132200  0.626600  0.7789
  H  H1063  1  0.259100  0.913300  0.322900  0.7789
  H  H1064  1  0.740900  0.086700  0.677100  0.7789
  H  H1065  1  0.083600  0.795400  0.395700  0.7789
  H  H1066  1  0.916400  0.204600  0.604300  0.7789
  H  H1067  1  0.127000  0.817300  0.381400  0.7789
  H  H1068  1  0.873000  0.182700  0.618600  0.7789
  H  H1069  1  0.127400  0.765700  0.482900  0.7789
  H  H1070  1  0.872600  0.234300  0.517100  0.7789
  H  H1071  1  0.084000  0.743800  0.497200  0.7789
  H  H1072  1  0.916000  0.256200  0.502800  0.7789
  H  H1073  1  0.204200  0.835300  0.426600  0.7789
  H  H1074  1  0.795800  0.164700  0.573400  0.7789
  H  H1075  1  0.164600  0.796100  0.466000  0.7789
  H  H1076  1  0.835400  0.203900  0.534000  0.7789
  H  H1077  1  0.081700  0.725700  0.397000  0.7789
  H  H1078  1  0.918300  0.274300  0.603000  0.7789
  H  H1079  1  0.126400  0.676300  0.380400  0.7789
  H  H1080  1  0.873600  0.323700  0.619600  0.7789
  H  H1081  1  0.131500  0.624400  0.480300  0.7789
  H  H1082  1  0.868500  0.375600  0.519700  0.7789
  H  H1083  1  0.086900  0.673800  0.496800  0.7789
  H  H1084  1  0.913100  0.326200  0.503200  0.7789
  H  H1085  1  0.203900  0.604400  0.275600  0.7789
  H  H1086  1  0.796100  0.395600  0.724400  0.7789
  H  H1087  1  0.184500  0.618800  0.325900  0.7789
  H  H1088  1  0.815500  0.381200  0.674100  0.7789
  H  H1089  1  0.239100  0.517800  0.374200  0.7789
  H  H1090  1  0.760900  0.482200  0.625800  0.7789
  H  H1091  1  0.258600  0.503500  0.323700  0.7789
  H  H1092  1  0.741400  0.496500  0.676300  0.7789
  H  H1093  1  0.166100  0.574000  0.465800  0.7789
  H  H1094  1  0.833900  0.426000  0.534200  0.7789
  H  H1095  1  0.205700  0.532600  0.428600  0.7789
  H  H1096  1  0.794300  0.467400  0.571400  0.7789
  H  H1097  1  0.274100  0.604100  0.204900  0.7789
  H  H1098  1  0.725900  0.395900  0.795100  0.7789
  H  H1099  1  0.324900  0.619200  0.181700  0.7789
  H  H1100  1  0.675100  0.380800  0.818300  0.7789
  H  H1101  1  0.376000  0.518800  0.234500  0.7789
  H  H1102  1  0.624000  0.481200  0.765500  0.7789
  H  H1103  1  0.325200  0.503700  0.257800  0.7789
  H  H1104  1  0.674800  0.496300  0.742200  0.7789
  H  H1105  1  0.396300  0.725500  0.083200  0.7789
  H  H1106  1  0.603700  0.274500  0.916800  0.7789
  H  H1107  1  0.380900  0.675100  0.126400  0.7789
  H  H1108  1  0.619100  0.324900  0.873600  0.7789
  H  H1109  1  0.481600  0.623400  0.129300  0.7789
  H  H1110  1  0.518400  0.376600  0.870700  0.7789
  H  H1111  1  0.497000  0.673900  0.086100  0.7789
  H  H1112  1  0.503000  0.326100  0.913900  0.7789
  H  H1113  1  0.423100  0.536900  0.211400  0.7789
  H  H1114  1  0.576900  0.463100  0.788600  0.7789
  H  H1115  1  0.463900  0.575400  0.170200  0.7789
  H  H1116  1  0.536100  0.424600  0.829800  0.7789
  H  H1117  1  0.396700  0.797800  0.082700  0.7789
  H  H1118  1  0.603300  0.202200  0.917300  0.7789
  H  H1119  1  0.383900  0.820900  0.124500  0.7789
  H  H1120  1  0.616100  0.179100  0.875500  0.7789
  H  H1121  1  0.483600  0.762800  0.129400  0.7789
  H  H1122  1  0.516400  0.237200  0.870600  0.7789
  H  H1123  1  0.496400  0.739700  0.087600  0.7789
  H  H1124  1  0.503600  0.260300  0.912400  0.7789
  H  H1125  1  0.274000  0.917800  0.206000  0.7789
  H  H1126  1  0.726000  0.082200  0.794000  0.7789
  H  H1127  1  0.324000  0.875100  0.182300  0.7789
  H  H1128  1  0.676000  0.124900  0.817700  0.7789
  H  H1129  1  0.377000  0.869900  0.234400  0.7789
  H  H1130  1  0.623000  0.130100  0.765600  0.7789
  H  H1131  1  0.326900  0.912600  0.258200  0.7789
  H  H1132  1  0.673100  0.087400  0.741800  0.7789
  H  H1133  1  0.464700  0.795200  0.163400  0.7789
  H  H1134  1  0.535300  0.204800  0.836600  0.7789
  H  H1135  1  0.427500  0.833600  0.204100  0.7789
  H  H1136  1  0.572500  0.166400  0.795900  0.7789
  H  H1137  1  0.396800  0.082700  0.794900  0.7789
  H  H1138  1  0.603200  0.917300  0.205100  0.7789
  H  H1139  1  0.381400  0.124600  0.819200  0.7789
  H  H1140  1  0.618600  0.875400  0.180800  0.7789
  H  H1141  1  0.481600  0.128800  0.766900  0.7789
  H  H1142  1  0.518400  0.871200  0.233100  0.7789
  H  H1143  1  0.497000  0.087000  0.742500  0.7789
  H  H1144  1  0.503000  0.913000  0.257500  0.7789
  H  H1145  1  0.273000  0.206800  0.919700  0.7789
  H  H1146  1  0.727000  0.793200  0.080300  0.7789
  H  H1147  1  0.321600  0.181800  0.877100  0.7789
  H  H1148  1  0.678400  0.818200  0.122900  0.7789
  H  H1149  1  0.378500  0.231500  0.869200  0.7789
  H  H1150  1  0.621500  0.768500  0.130800  0.7789
  H  H1151  1  0.329900  0.256500  0.911700  0.7789
  H  H1152  1  0.670100  0.743500  0.088300  0.7789
  H  H1153  1  0.466700  0.164400  0.794600  0.7789
  H  H1154  1  0.533300  0.835600  0.205400  0.7789
  H  H1155  1  0.428200  0.205400  0.832600  0.7789
  H  H1156  1  0.571800  0.794600  0.167400  0.7789
  H  H1157  1  0.395800  0.083600  0.724600  0.7789
  H  H1158  1  0.604200  0.916400  0.275400  0.7789
  H  H1159  1  0.381600  0.127000  0.673500  0.7789
  H  H1160  1  0.618400  0.873000  0.326500  0.7789
  H  H1161  1  0.482500  0.129000  0.624200  0.7789
  H  H1162  1  0.517500  0.871000  0.375800  0.7789
  H  H1163  1  0.496800  0.085600  0.675200  0.7789
  H  H1164  1  0.503200  0.914400  0.324800  0.7789
  H  H1165  1  0.274000  0.204700  0.602700  0.7789
  H  H1166  1  0.726000  0.795300  0.397300  0.7789
  H  H1167  1  0.323800  0.182600  0.619100  0.7789
  H  H1168  1  0.676200  0.817400  0.380900  0.7789
  H  H1169  1  0.374800  0.237100  0.519400  0.7789
  H  H1170  1  0.625200  0.762900  0.480600  0.7789
  H  H1171  1  0.324900  0.259100  0.503300  0.7789
  H  H1172  1  0.675100  0.740900  0.496700  0.7789
  H  H1173  1  0.463100  0.167900  0.573100  0.7789
  H  H1174  1  0.536900  0.832100  0.426900  0.7789
  H  H1175  1  0.424000  0.211100  0.533600  0.7789
  H  H1176  1  0.576000  0.788900  0.466400  0.7789
  H  H1177  1  0.206000  0.274400  0.602700  0.7789
  H  H1178  1  0.794000  0.725600  0.397300  0.7789
  H  H1179  1  0.181300  0.325200  0.618300  0.7789
  H  H1180  1  0.818700  0.674800  0.381700  0.7789
  H  H1181  1  0.233300  0.377600  0.518100  0.7789
  H  H1182  1  0.766700  0.622400  0.481900  0.7789
  H  H1183  1  0.257900  0.326800  0.502600  0.7789
  H  H1184  1  0.742100  0.673200  0.497400  0.7789
  H  H1185  1  0.080900  0.399000  0.725900  0.7789
  H  H1186  1  0.919100  0.601000  0.274100  0.7789
  H  H1187  1  0.122400  0.382200  0.675800  0.7789
  H  H1188  1  0.877600  0.617800  0.324200  0.7789
  H  H1189  1  0.129600  0.481300  0.622100  0.7789
  H  H1190  1  0.870400  0.518700  0.377900  0.7789
  H  H1191  1  0.088100  0.498000  0.672300  0.7789
  H  H1192  1  0.911900  0.502000  0.327700  0.7789
  H  H1193  1  0.202500  0.428800  0.532100  0.7789
  H  H1194  1  0.797500  0.571200  0.467900  0.7789
  H  H1195  1  0.166700  0.467100  0.573000  0.7789
  H  H1196  1  0.833300  0.532900  0.427000  0.7789
  H  H1197  1  0.082200  0.396700  0.796100  0.7789
  H  H1198  1  0.917800  0.603300  0.203900  0.7789
  H  H1199  1  0.125800  0.381700  0.818000  0.7789
  H  H1200  1  0.874200  0.618300  0.182000  0.7789
  H  H1201  1  0.129700  0.482000  0.764000  0.7789
  H  H1202  1  0.870300  0.518000  0.236000  0.7789
  H  H1203  1  0.086100  0.497000  0.742000  0.7789
  H  H1204  1  0.913900  0.503000  0.258000  0.7789
  H  H1205  1  0.203100  0.275400  0.916300  0.7789
  H  H1206  1  0.796900  0.724600  0.083700  0.7789
  H  H1207  1  0.181700  0.326500  0.872600  0.7789
  H  H1208  1  0.818300  0.673500  0.127400  0.7789
  H  H1209  1  0.236200  0.375100  0.870400  0.7789
  H  H1210  1  0.763800  0.624900  0.129600  0.7789
  H  H1211  1  0.257600  0.324000  0.914100  0.7789
  H  H1212  1  0.742400  0.676000  0.085900  0.7789
  H  H1213  1  0.167200  0.464600  0.792300  0.7789
  H  H1214  1  0.832800  0.535400  0.207700  0.7789
  H  H1215  1  0.203300  0.427400  0.835300  0.7789
  H  H1216  1  0.796700  0.572600  0.164700  0.7789
  H  H1217  1  0.795100  0.397600  0.081000  0.7789
  H  H1218  1  0.204900  0.602400  0.919000  0.7789
  H  H1219  1  0.818500  0.381200  0.124000  0.7789
  H  H1220  1  0.181500  0.618800  0.876000  0.7789
  H  H1221  1  0.765200  0.480700  0.130100  0.7789
  H  H1222  1  0.234800  0.519300  0.869900  0.7789
  H  H1223  1  0.741800  0.497100  0.087100  0.7789
  H  H1224  1  0.258200  0.502900  0.912900  0.7789
  H  H1225  1  0.917000  0.274500  0.205100  0.7789
  H  H1226  1  0.083000  0.725500  0.794900  0.7789
  H  H1227  1  0.873600  0.324800  0.182500  0.7789
  H  H1228  1  0.126400  0.675200  0.817500  0.7789
  H  H1229  1  0.869000  0.376000  0.236000  0.7789
  H  H1230  1  0.131000  0.624000  0.764000  0.7789
  H  H1231  1  0.912300  0.325600  0.258700  0.7789
  H  H1232  1  0.087700  0.674400  0.741300  0.7789
  H  H1233  1  0.795300  0.467000  0.163900  0.7789
  H  H1234  1  0.204700  0.533000  0.836100  0.7789
  H  H1235  1  0.830300  0.427500  0.207300  0.7789
  H  H1236  1  0.169700  0.572500  0.792700  0.7789
  H  H1237  1  0.727100  0.396500  0.082400  0.7789
  H  H1238  1  0.272900  0.603500  0.917600  0.7789
  H  H1239  1  0.676500  0.380700  0.124300  0.7789
  H  H1240  1  0.323500  0.619300  0.875700  0.7789
  H  H1241  1  0.623500  0.481000  0.128100  0.7789
  H  H1242  1  0.376500  0.519000  0.871900  0.7789
  H  H1243  1  0.674100  0.496900  0.086100  0.7789
  H  H1244  1  0.325900  0.503100  0.913900  0.7789
  H  H1245  1  0.601700  0.273600  0.206700  0.7789
  H  H1246  1  0.398300  0.726400  0.793300  0.7789
  H  H1247  1  0.618600  0.323500  0.182600  0.7789
  H  H1248  1  0.381400  0.676500  0.817400  0.7789
  H  H1249  1  0.518700  0.377600  0.233300  0.7789
  H  H1250  1  0.481300  0.622400  0.766700  0.7789
  H  H1251  1  0.501800  0.327700  0.257400  0.7789
  H  H1252  1  0.498200  0.672300  0.742600  0.7789
  H  H1253  1  0.574000  0.466300  0.166900  0.7789
  H  H1254  1  0.426000  0.533700  0.833100  0.7789
  H  H1255  1  0.537500  0.424500  0.209600  0.7789
  H  H1256  1  0.462500  0.575500  0.790400  0.7789
  H  H1257  1  0.603000  0.205500  0.273900  0.7789
  H  H1258  1  0.397000  0.794500  0.726100  0.7789
  H  H1259  1  0.618400  0.180100  0.325000  0.7789
  H  H1260  1  0.381600  0.819900  0.675000  0.7789
  H  H1261  1  0.518900  0.233600  0.376900  0.7789
  H  H1262  1  0.481100  0.766400  0.623100  0.7789
  H  H1263  1  0.503500  0.259100  0.325800  0.7789
  H  H1264  1  0.496500  0.740900  0.674200  0.7789
  H  H1265  1  0.725900  0.080500  0.397600  0.7789
  H  H1266  1  0.274100  0.919500  0.602400  0.7789
  H  H1267  1  0.675300  0.122400  0.381800  0.7789
  H  H1268  1  0.324700  0.877600  0.618200  0.7789
  H  H1269  1  0.623700  0.129300  0.480900  0.7789
  H  H1270  1  0.376300  0.870700  0.519100  0.7789
  H  H1271  1  0.674300  0.087400  0.496700  0.7789
  H  H1272  1  0.325700  0.912600  0.503300  0.7789
  H  H1273  1  0.532200  0.202400  0.428100  0.7789
  H  H1274  1  0.467800  0.797600  0.571900  0.7789
  H  H1275  1  0.574500  0.172200  0.463400  0.7789
  H  H1276  1  0.425500  0.827800  0.536600  0.7789
  H  H1277  1  0.795400  0.083900  0.395300  0.7789
  H  H1278  1  0.204600  0.916100  0.604700  0.7789
  H  H1279  1  0.819300  0.125500  0.381500  0.7789
  H  H1280  1  0.180700  0.874500  0.618500  0.7789
  H  H1281  1  0.766300  0.127500  0.482500  0.7789
  H  H1282  1  0.233700  0.872500  0.517500  0.7789
  H  H1283  1  0.742400  0.085800  0.496300  0.7789
  H  H1284  1  0.257600  0.914200  0.503700  0.7789
  H  H1285  1  0.916600  0.204800  0.274700  0.7789
  H  H1286  1  0.083400  0.795200  0.725300  0.7789
  H  H1287  1  0.873000  0.182900  0.325400  0.7789
  H  H1288  1  0.127000  0.817100  0.674600  0.7789
  H  H1289  1  0.870200  0.236300  0.375600  0.7789
  H  H1290  1  0.129800  0.763700  0.624400  0.7789
  H  H1291  1  0.913800  0.258300  0.324700  0.7789
  H  H1292  1  0.086200  0.741700  0.675300  0.7789
  H  H1293  1  0.799100  0.159200  0.467900  0.7789
  H  H1294  1  0.200900  0.840800  0.532100  0.7789
  H  H1295  1  0.832600  0.204300  0.428500  0.7789
  H  H1296  1  0.167400  0.795700  0.571500  0.7789
  Pd  Pd1297  1  0.107220  0.892760  0.404690  0.2211
  Pd  Pd1298  1  0.892780  0.107240  0.595310  0.2211
  Pd  Pd1299  1  0.106870  0.594910  0.404690  0.2211
  Pd  Pd1300  1  0.893130  0.405090  0.595310  0.2211
  Pd  Pd1301  1  0.404580  0.594990  0.107040  0.2211
  Pd  Pd1302  1  0.595420  0.405010  0.892960  0.2211
  Pd  Pd1303  1  0.405090  0.892960  0.106770  0.2211
  Pd  Pd1304  1  0.594910  0.107040  0.893230  0.2211
  Pd  Pd1305  1  0.405130  0.106790  0.893070  0.2211
  Pd  Pd1306  1  0.594870  0.893210  0.106930  0.2211
  Pd  Pd1307  1  0.404860  0.106880  0.595000  0.2211
  Pd  Pd1308  1  0.595140  0.893120  0.405000  0.2211
  Pd  Pd1309  1  0.107080  0.404790  0.594960  0.2211
  Pd  Pd1310  1  0.892920  0.595210  0.405040  0.2211
  Pd  Pd1311  1  0.106980  0.405180  0.892850  0.2211
  Pd  Pd1312  1  0.893020  0.594820  0.107150  0.2211
  Pd  Pd1313  1  0.892830  0.404970  0.107100  0.2211
  Pd  Pd1314  1  0.107170  0.595030  0.892900  0.2211
  Pd  Pd1315  1  0.594830  0.404730  0.106900  0.2211
  Pd  Pd1316  1  0.405170  0.595270  0.893100  0.2211
  Pd  Pd1317  1  0.595170  0.106930  0.404780  0.2211
  Pd  Pd1318  1  0.404830  0.893070  0.595220  0.2211
  Pd  Pd1319  1  0.892900  0.106800  0.405040  0.2211
  Pd  Pd1320  1  0.107100  0.893200  0.594960  0.2211
  Pd  Pd1321  1  0.253290  0.957160  0.253100  0.7789
  Pd  Pd1322  1  0.746710  0.042840  0.746900  0.7789
  Pd  Pd1323  1  0.253140  0.253160  0.957290  0.7789
  Pd  Pd1324  1  0.746860  0.746840  0.042710  0.7789
  Pd  Pd1325  1  0.957360  0.253210  0.253130  0.7789
  Pd  Pd1326  1  0.042640  0.746790  0.746870  0.7789
  Pd  Pd1327  1  0.042950  0.746950  0.463370  0.7789
  Pd  Pd1328  1  0.957050  0.253050  0.536630  0.7789
  Pd  Pd1329  1  0.253160  0.536450  0.253130  0.7789
  Pd  Pd1330  1  0.746840  0.463550  0.746870  0.7789
  Pd  Pd1331  1  0.463480  0.746840  0.042880  0.7789
  Pd  Pd1332  1  0.536520  0.253160  0.957120  0.7789
  Pd  Pd1333  1  0.463440  0.042730  0.746940  0.7789
  Pd  Pd1334  1  0.536560  0.957270  0.253060  0.7789
  Pd  Pd1335  1  0.253000  0.253180  0.536600  0.7789
  Pd  Pd1336  1  0.747000  0.746820  0.463400  0.7789
  Pd  Pd1337  1  0.042790  0.463600  0.746840  0.7789
  Pd  Pd1338  1  0.957210  0.536400  0.253160  0.7789
  Pd  Pd1339  1  0.747000  0.463380  0.042840  0.7789
  Pd  Pd1340  1  0.253000  0.536620  0.957160  0.7789
  Pd  Pd1341  1  0.536650  0.253110  0.253070  0.7789
  Pd  Pd1342  1  0.463350  0.746890  0.746930  0.7789
  Pd  Pd1343  1  0.746880  0.042820  0.463460  0.7789
  Pd  Pd1344  1  0.253120  0.957180  0.536540  0.7789
  C  C1345  1  0.108400  0.824700  0.403600  0.2211
  C  C1346  1  0.891600  0.175300  0.596400  0.2211
  C  C1347  1  0.117200  0.787700  0.415500  0.2211
  C  C1348  1  0.882800  0.212300  0.584500  0.2211
  C  C1349  1  0.131500  0.766000  0.443300  0.2211
  C  C1350  1  0.868500  0.234000  0.556700  0.2211
  C  C1351  1  0.137100  0.781400  0.458900  0.2211
  C  C1352  1  0.862900  0.218600  0.541100  0.2211
  C  C1353  1  0.128300  0.818400  0.447000  0.2211
  C  C1354  1  0.871700  0.181600  0.553000  0.2211
  C  C1355  1  0.107500  0.661200  0.403700  0.2211
  C  C1356  1  0.892500  0.338800  0.596300  0.2211
  C  C1357  1  0.111700  0.679300  0.417600  0.2211
  C  C1358  1  0.888300  0.320700  0.582400  0.2211
  C  C1359  1  0.121500  0.660800  0.448200  0.2211
  C  C1360  1  0.878500  0.339200  0.551800  0.2211
  C  C1361  1  0.127300  0.624100  0.464800  0.2211
  C  C1362  1  0.872700  0.375900  0.535200  0.2211
  C  C1363  1  0.123200  0.606000  0.450700  0.2211
  C  C1364  1  0.876800  0.394000  0.549300  0.2211
  C  C1365  1  0.124700  0.710000  0.490300  0.2211
  C  C1366  1  0.875300  0.290000  0.509700  0.2211
  C  C1367  1  0.129000  0.678000  0.489000  0.2211
  C  C1368  1  0.871000  0.322000  0.511000  0.2211
  C  C1369  1  0.123900  0.685700  0.457500  0.2211
  C  C1370  1  0.876100  0.314300  0.542500  0.2211
  C  C1371  1  0.174600  0.597600  0.337000  0.2211
  C  C1372  1  0.825400  0.402400  0.663000  0.2211
  C  C1373  1  0.210200  0.583400  0.317700  0.2211
  C  C1374  1  0.789800  0.416600  0.682300  0.2211
  C  C1375  1  0.232700  0.552000  0.334800  0.2211
  C  C1376  1  0.767300  0.448000  0.665200  0.2211
  C  C1377  1  0.219400  0.534600  0.371500  0.2211
  C  C1378  1  0.780600  0.465400  0.628500  0.2211
  C  C1379  1  0.183700  0.548800  0.390900  0.2211
  C  C1380  1  0.816300  0.451200  0.609100  0.2211
  C  C1381  1  0.337400  0.599500  0.173000  0.2211
  C  C1382  1  0.662600  0.400500  0.827000  0.2211
  C  C1383  1  0.319000  0.589900  0.209700  0.2211
  C  C1384  1  0.681000  0.410100  0.790300  0.2211
  C  C1385  1  0.336000  0.560000  0.233200  0.2211
  C  C1386  1  0.664000  0.440000  0.766800  0.2211
  C  C1387  1  0.372000  0.539600  0.219600  0.2211
  C  C1388  1  0.628000  0.460400  0.780400  0.2211
  C  C1389  1  0.390000  0.549200  0.183300  0.2211
  C  C1390  1  0.610000  0.450800  0.816700  0.2211
  C  C1391  1  0.293000  0.511100  0.326800  0.2211
  C  C1392  1  0.707000  0.488900  0.673200  0.2211
  C  C1393  1  0.322000  0.509000  0.296700  0.2211
  C  C1394  1  0.678000  0.491000  0.703300  0.2211
  C  C1395  1  0.313300  0.542000  0.267800  0.2211
  C  C1396  1  0.686700  0.458000  0.732200  0.2211
  C  C1397  1  0.401400  0.659800  0.111400  0.2211
  C  C1398  1  0.598600  0.340200  0.888600  0.2211
  C  C1399  1  0.411100  0.679200  0.118800  0.2211
  C  C1400  1  0.588900  0.320800  0.881200  0.2211
  C  C1401  1  0.441500  0.663000  0.128600  0.2211
  C  C1402  1  0.558500  0.337000  0.871400  0.2211
  C  C1403  1  0.462100  0.627400  0.131100  0.2211
  C  C1404  1  0.537900  0.372600  0.868900  0.2211
  C  C1405  1  0.452400  0.608000  0.123700  0.2211
  C  C1406  1  0.547600  0.392000  0.876300  0.2211
  C  C1407  1  0.399300  0.826600  0.113000  0.2211
  C  C1408  1  0.600700  0.173400  0.887000  0.2211
  C  C1409  1  0.407500  0.789900  0.123300  0.2211
  C  C1410  1  0.592500  0.210100  0.876700  0.2211
  C  C1411  1  0.437900  0.766100  0.133200  0.2211
  C  C1412  1  0.562100  0.233900  0.866800  0.2211
  C  C1413  1  0.460100  0.779000  0.132700  0.2211
  C  C1414  1  0.539900  0.221000  0.867300  0.2211
  C  C1415  1  0.451900  0.815800  0.122200  0.2211
  C  C1416  1  0.548100  0.184200  0.877800  0.2211
  C  C1417  1  0.487700  0.676000  0.130300  0.2211
  C  C1418  1  0.512300  0.324000  0.869700  0.2211
  C  C1419  1  0.488700  0.705000  0.131300  0.2211
  C  C1420  1  0.511300  0.295000  0.868700  0.2211
  C  C1421  1  0.456600  0.732800  0.125100  0.2211
  C  C1422  1  0.543400  0.267200  0.874900  0.2211
  C  C1423  1  0.175100  0.891300  0.336400  0.2211
  C  C1424  1  0.824900  0.108700  0.663600  0.2211
  C  C1425  1  0.211300  0.887500  0.318400  0.2211
  C  C1426  1  0.788700  0.112500  0.681600  0.2211
  C  C1427  1  0.232700  0.879300  0.336700  0.2211
  C  C1428  1  0.767300  0.120700  0.663300  0.2211
  C  C1429  1  0.217900  0.874900  0.373100  0.2211
  C  C1430  1  0.782100  0.125100  0.626900  0.2211
  C  C1431  1  0.181700  0.878700  0.391100  0.2211
  C  C1432  1  0.818300  0.121300  0.608900  0.2211
  C  C1433  1  0.335400  0.890000  0.176300  0.2211
  C  C1434  1  0.664600  0.110000  0.823700  0.2211
  C  C1435  1  0.319400  0.879800  0.213400  0.2211
  C  C1436  1  0.680600  0.120200  0.786600  0.2211
  C  C1437  1  0.340000  0.866100  0.234900  0.2211
  C  C1438  1  0.660000  0.133900  0.765100  0.2211
  C  C1439  1  0.376000  0.862800  0.219300  0.2211
  C  C1440  1  0.624000  0.137200  0.780700  0.2211
  C  C1441  1  0.391700  0.873100  0.182400  0.2211
  C  C1442  1  0.608300  0.126900  0.817600  0.2211
  C  C1443  1  0.295000  0.868100  0.323900  0.2211
  C  C1444  1  0.705000  0.131900  0.676100  0.2211
  C  C1445  1  0.326000  0.869900  0.294100  0.2211
  C  C1446  1  0.674000  0.130100  0.705900  0.2211
  C  C1447  1  0.314200  0.877300  0.266500  0.2211
  C  C1448  1  0.685800  0.122700  0.733500  0.2211
  C  C1449  1  0.401200  0.109900  0.827800  0.2211
  C  C1450  1  0.598800  0.890100  0.172200  0.2211
  C  C1451  1  0.409500  0.120600  0.791000  0.2211
  C  C1452  1  0.590500  0.879400  0.209000  0.2211
  C  C1453  1  0.438000  0.133000  0.767700  0.2211
  C  C1454  1  0.562000  0.867000  0.232300  0.2211
  C  C1455  1  0.458900  0.134600  0.780700  0.2211
  C  C1456  1  0.541100  0.865400  0.219300  0.2211
  C  C1457  1  0.450600  0.123900  0.817500  0.2211
  C  C1458  1  0.549400  0.876100  0.182500  0.2211
  C  C1459  1  0.402400  0.109400  0.659800  0.2211
  C  C1460  1  0.597600  0.890600  0.340200  0.2211
  C  C1461  1  0.413000  0.117600  0.677400  0.2211
  C  C1462  1  0.587000  0.882400  0.322600  0.2211
  C  C1463  1  0.444000  0.127200  0.660000  0.2211
  C  C1464  1  0.556000  0.872800  0.340000  0.2211
  C  C1465  1  0.463700  0.128600  0.624900  0.2211
  C  C1466  1  0.536300  0.871400  0.375100  0.2211
  C  C1467  1  0.453100  0.120400  0.606900  0.2211
  C  C1468  1  0.546900  0.879600  0.393100  0.2211
  C  C1469  1  0.487800  0.130000  0.709200  0.2211
  C  C1470  1  0.512200  0.870000  0.290800  0.2211
  C  C1471  1  0.485000  0.131000  0.680000  0.2211
  C  C1472  1  0.515000  0.869000  0.320000  0.2211
  C  C1473  1  0.455000  0.122400  0.687600  0.2211
  C  C1474  1  0.545000  0.877600  0.312400  0.2211
  C  C1475  1  0.333900  0.176200  0.600300  0.2211
  C  C1476  1  0.666100  0.823800  0.399700  0.2211
  C  C1477  1  0.318300  0.212800  0.584900  0.2211
  C  C1478  1  0.681700  0.787200  0.415100  0.2211
  C  C1479  1  0.338000  0.232200  0.553500  0.2211
  C  C1480  1  0.662000  0.767800  0.446500  0.2211
  C  C1481  1  0.374200  0.214900  0.536700  0.2211
  C  C1482  1  0.625800  0.785100  0.463300  0.2211
  C  C1483  1  0.389900  0.178300  0.552100  0.2211
  C  C1484  1  0.610100  0.821700  0.447900  0.2211
  C  C1485  1  0.174300  0.340000  0.597000  0.2211
  C  C1486  1  0.825700  0.660000  0.403000  0.2211
  C  C1487  1  0.211300  0.322900  0.585900  0.2211
  C  C1488  1  0.788700  0.677100  0.414100  0.2211
  C  C1489  1  0.233300  0.341100  0.555200  0.2211
  C  C1490  1  0.766700  0.658900  0.444800  0.2211
  C  C1491  1  0.218500  0.376300  0.535400  0.2211
  C  C1492  1  0.781500  0.623700  0.464600  0.2211
  C  C1493  1  0.181600  0.393400  0.546400  0.2211
  C  C1494  1  0.818400  0.606600  0.453600  0.2211
  C  C1495  1  0.324000  0.292000  0.511300  0.2211
  C  C1496  1  0.676000  0.708000  0.488700  0.2211
  C  C1497  1  0.296000  0.325000  0.508800  0.2211
  C  C1498  1  0.704000  0.675000  0.491200  0.2211
  C  C1499  1  0.267700  0.315300  0.541800  0.2211
  C  C1500  1  0.732300  0.684700  0.458200  0.2211
  C  C1501  1  0.113200  0.402100  0.658900  0.2211
  C  C1502  1  0.886800  0.597900  0.341100  0.2211
  C  C1503  1  0.118600  0.413700  0.678200  0.2211
  C  C1504  1  0.881400  0.586300  0.321800  0.2211
  C  C1505  1  0.127500  0.444700  0.661500  0.2211
  C  C1506  1  0.872500  0.555300  0.338500  0.2211
  C  C1507  1  0.130800  0.464100  0.625500  0.2211
  C  C1508  1  0.869200  0.535900  0.374500  0.2211
  C  C1509  1  0.125300  0.452500  0.606300  0.2211
  C  C1510  1  0.874700  0.547500  0.393700  0.2211
  C  C1511  1  0.110400  0.402800  0.826400  0.2211
  C  C1512  1  0.889600  0.597200  0.173600  0.2211
  C  C1513  1  0.116900  0.414100  0.789900  0.2211
  C  C1514  1  0.883100  0.585900  0.210100  0.2211
  C  C1515  1  0.127300  0.444300  0.766800  0.2211
  C  C1516  1  0.872700  0.555700  0.233200  0.2211
  C  C1517  1  0.131300  0.463100  0.780100  0.2211
  C  C1518  1  0.868700  0.536900  0.219900  0.2211
  C  C1519  1  0.124800  0.451700  0.816700  0.2211
  C  C1520  1  0.875200  0.548300  0.183300  0.2211
  C  C1521  1  0.125800  0.489900  0.676300  0.2211
  C  C1522  1  0.874200  0.510100  0.323700  0.2211
  C  C1523  1  0.126500  0.490500  0.706000  0.2211
  C  C1524  1  0.873500  0.509500  0.294000  0.2211
  C  C1525  1  0.121500  0.457500  0.732800  0.2211
  C  C1526  1  0.878500  0.542500  0.267200  0.2211
  C  C1527  1  0.172800  0.339700  0.890900  0.2211
  C  C1528  1  0.827200  0.660300  0.109100  0.2211
  C  C1529  1  0.209300  0.320500  0.884200  0.2211
  C  C1530  1  0.790700  0.679500  0.115800  0.2211
  C  C1531  1  0.232800  0.337200  0.874300  0.2211
  C  C1532  1  0.767200  0.662800  0.125700  0.2211
  C  C1533  1  0.220000  0.373100  0.871000  0.2211
  C  C1534  1  0.780000  0.626900  0.129000  0.2211
  C  C1535  1  0.183500  0.392300  0.877700  0.2211
  C  C1536  1  0.816500  0.607700  0.122300  0.2211
  C  C1537  1  0.339200  0.173400  0.891100  0.2211
  C  C1538  1  0.660800  0.826600  0.108900  0.2211
  C  C1539  1  0.320600  0.210000  0.881600  0.2211
  C  C1540  1  0.679400  0.790000  0.118400  0.2211
  C  C1541  1  0.338000  0.234200  0.867800  0.2211
  C  C1542  1  0.662000  0.765800  0.132200  0.2211
  C  C1543  1  0.374000  0.221600  0.864600  0.2211
  C  C1544  1  0.626000  0.778400  0.135400  0.2211
  C  C1545  1  0.392500  0.185000  0.874300  0.2211
  C  C1546  1  0.607500  0.815000  0.125700  0.2211
  C  C1547  1  0.291000  0.328000  0.873100  0.2211
  C  C1548  1  0.709000  0.672000  0.126900  0.2211
  C  C1549  1  0.321000  0.297000  0.872000  0.2211
  C  C1550  1  0.679000  0.703000  0.128000  0.2211
  C  C1551  1  0.314000  0.268100  0.874900  0.2211
  C  C1552  1  0.686000  0.731900  0.125100  0.2211
  C  C1553  1  0.826500  0.401800  0.111000  0.2211
  C  C1554  1  0.173500  0.598200  0.889000  0.2211
  C  C1555  1  0.789600  0.413800  0.119000  0.2211
  C  C1556  1  0.210400  0.586200  0.881000  0.2211
  C  C1557  1  0.768200  0.445800  0.126400  0.2211
  C  C1558  1  0.231800  0.554200  0.873600  0.2211
  C  C1559  1  0.783800  0.465800  0.125600  0.2211
  C  C1560  1  0.216200  0.534200  0.874400  0.2211
  C  C1561  1  0.820700  0.453800  0.117600  0.2211
  C  C1562  1  0.179300  0.546200  0.882400  0.2211
  C  C1563  1  0.661400  0.402200  0.111300  0.2211
  C  C1564  1  0.338600  0.597800  0.888700  0.2211
  C  C1565  1  0.677900  0.414100  0.120000  0.2211
  C  C1566  1  0.322100  0.585900  0.880000  0.2211
  C  C1567  1  0.659000  0.445000  0.129400  0.2211
  C  C1568  1  0.341000  0.555000  0.870600  0.2211
  C  C1569  1  0.623500  0.463700  0.130600  0.2211
  C  C1570  1  0.376500  0.536300  0.869400  0.2211
  C  C1571  1  0.607000  0.451800  0.122000  0.2211
  C  C1572  1  0.393000  0.548200  0.878000  0.2211
  C  C1573  1  0.709000  0.484000  0.134000  0.2211
  C  C1574  1  0.291000  0.516000  0.866000  0.2211
  C  C1575  1  0.678000  0.486000  0.134000  0.2211
  C  C1576  1  0.322000  0.514000  0.866000  0.2211
  C  C1577  1  0.686000  0.458000  0.122600  0.2211
  C  C1578  1  0.314000  0.542000  0.877400  0.2211
  C  C1579  1  0.597600  0.339100  0.174600  0.2211
  C  C1580  1  0.402400  0.660900  0.825400  0.2211
  C  C1581  1  0.587800  0.321200  0.211400  0.2211
  C  C1582  1  0.412200  0.678800  0.788600  0.2211
  C  C1583  1  0.557700  0.338700  0.234600  0.2211
  C  C1584  1  0.442300  0.661300  0.765400  0.2211
  C  C1585  1  0.537400  0.374100  0.220900  0.2211
  C  C1586  1  0.462600  0.625900  0.779100  0.2211
  C  C1587  1  0.547200  0.392000  0.184000  0.2211
  C  C1588  1  0.452800  0.608000  0.816000  0.2211
  C  C1589  1  0.599100  0.172300  0.340700  0.2211
  C  C1590  1  0.400900  0.827700  0.659300  0.2211
  C  C1591  1  0.591900  0.208900  0.322200  0.2211
  C  C1592  1  0.408100  0.791100  0.677800  0.2211
  C  C1593  1  0.561700  0.233300  0.338000  0.2211
  C  C1594  1  0.438300  0.766700  0.662000  0.2211
  C  C1595  1  0.538800  0.221100  0.372300  0.2211
  C  C1596  1  0.461200  0.778900  0.627700  0.2211
  C  C1597  1  0.546000  0.184500  0.390800  0.2211
  C  C1598  1  0.454000  0.815500  0.609200  0.2211
  C  C1599  1  0.512000  0.322000  0.296100  0.2211
  C  C1600  1  0.488000  0.678000  0.703900  0.2211
  C  C1601  1  0.509900  0.294000  0.327400  0.2211
  C  C1602  1  0.490100  0.706000  0.672600  0.2211
  C  C1603  1  0.542000  0.266600  0.315700  0.2211
  C  C1604  1  0.458000  0.733400  0.684300  0.2211
  C  C1605  1  0.658900  0.112600  0.400400  0.2211
  C  C1606  1  0.341100  0.887400  0.599600  0.2211
  C  C1607  1  0.678800  0.120600  0.408900  0.2211
  C  C1608  1  0.321200  0.879400  0.591100  0.2211
  C  C1609  1  0.663000  0.131900  0.438200  0.2211
  C  C1610  1  0.337000  0.868100  0.561800  0.2211
  C  C1611  1  0.627000  0.135100  0.459400  0.2211
  C  C1612  1  0.373000  0.864900  0.540600  0.2211
  C  C1613  1  0.607400  0.127000  0.450700  0.2211
  C  C1614  1  0.392600  0.873000  0.549300  0.2211
  C  C1615  1  0.826300  0.109700  0.403100  0.2211
  C  C1616  1  0.173700  0.890300  0.596900  0.2211
  C  C1617  1  0.789000  0.118900  0.414400  0.2211
  C  C1618  1  0.211000  0.881100  0.585600  0.2211
  C  C1619  1  0.767300  0.130200  0.443800  0.2211
  C  C1620  1  0.232700  0.869800  0.556200  0.2211
  C  C1621  1  0.782300  0.132200  0.462500  0.2211
  C  C1622  1  0.217700  0.867800  0.537500  0.2211
  C  C1623  1  0.819300  0.122900  0.451600  0.2211
  C  C1624  1  0.180700  0.877100  0.548400  0.2211
  C  C1625  1  0.675000  0.129900  0.488100  0.2211
  C  C1626  1  0.325000  0.870100  0.511900  0.2211
  C  C1627  1  0.706000  0.129500  0.487500  0.2211
  C  C1628  1  0.294000  0.870500  0.512500  0.2211
  C  C1629  1  0.735700  0.120800  0.456300  0.2211
  C  C1630  1  0.264300  0.879200  0.543700  0.2211
  C  C1631  1  0.889600  0.175400  0.337300  0.2211
  C  C1632  1  0.110400  0.824600  0.662700  0.2211
  C  C1633  1  0.887600  0.211100  0.319100  0.2211
  C  C1634  1  0.112400  0.788900  0.680900  0.2211
  C  C1635  1  0.878600  0.232600  0.337700  0.2211
  C  C1636  1  0.121400  0.767400  0.662300  0.2211
  C  C1637  1  0.871500  0.218300  0.374600  0.2211
  C  C1638  1  0.128500  0.781700  0.625400  0.2211
  C  C1639  1  0.873500  0.182600  0.392800  0.2211
  C  C1640  1  0.126500  0.817400  0.607200  0.2211
  C  C1641  1  0.892500  0.338200  0.173300  0.2211
  C  C1642  1  0.107500  0.661800  0.826700  0.2211
  C  C1643  1  0.885200  0.320100  0.210100  0.2211
  C  C1644  1  0.114800  0.679900  0.789900  0.2211
  C  C1645  1  0.873400  0.338300  0.233000  0.2211
  C  C1646  1  0.126600  0.661700  0.767000  0.2211
  C  C1647  1  0.868900  0.374700  0.219100  0.2211
  C  C1648  1  0.131100  0.625300  0.780900  0.2211
  C  C1649  1  0.876200  0.392800  0.182400  0.2211
  C  C1650  1  0.123800  0.607200  0.817600  0.2211
  C  C1651  1  0.871400  0.292600  0.324800  0.2211
  C  C1652  1  0.128600  0.707400  0.675200  0.2211
  C  C1653  1  0.868500  0.325000  0.296700  0.2211
  C  C1654  1  0.131500  0.675000  0.703300  0.2211
  C  C1655  1  0.873100  0.314600  0.269400  0.2211
  C  C1656  1  0.126900  0.685400  0.730600  0.2211
  C  C1657  1  0.087700  0.969700  0.360100  0.2211
  C  C1658  1  0.912300  0.030300  0.639900  0.2211
  C  C1659  1  0.078900  0.006100  0.353000  0.2211
  C  C1660  1  0.921100  0.993900  0.647000  0.2211
  C  C1661  1  0.085000  0.017000  0.372000  0.2211
  C  C1662  1  0.915000  0.983000  0.628000  0.2211
  C  C1663  1  0.099900  0.992000  0.398400  0.2211
  C  C1664  1  0.900100  0.008000  0.601600  0.2211
  C  C1665  1  0.108700  0.955300  0.406300  0.2211
  C  C1666  1  0.891300  0.044700  0.593700  0.2211
  C  C1667  1  0.001400  0.177200  0.275200  0.2211
  C  C1668  1  0.998600  0.822800  0.724800  0.2211
  C  C1669  1  0.023600  0.144700  0.291500  0.2211
  C  C1670  1  0.976400  0.855300  0.708500  0.2211
  C  C1671  1  0.033500  0.142100  0.317200  0.2211
  C  C1672  1  0.966500  0.857900  0.682800  0.2211
  C  C1673  1  0.021200  0.172000  0.326600  0.2211
  C  C1674  1  0.978800  0.828000  0.673400  0.2211
  C  C1675  1  0.999100  0.204500  0.310100  0.2211
  C  C1676  1  0.000900  0.795500  0.689900  0.2211
  C  C1677  1  0.098000  0.069000  0.360000  0.2211
  C  C1678  1  0.902000  0.931000  0.640000  0.2211
  C  C1679  1  0.079000  0.106000  0.354000  0.2211
  C  C1680  1  0.921000  0.894000  0.646000  0.2211
  C  C1681  1  0.054000  0.112000  0.340000  0.2211
  C  C1682  1  0.946000  0.888000  0.660000  0.2211
  C  C1683  1  0.027000  0.915200  0.417600  0.2211
  C  C1684  1  0.973000  0.084800  0.582400  0.2211
  C  C1685  1  0.991000  0.922300  0.437600  0.2211
  C  C1686  1  0.009000  0.077700  0.562400  0.2211
  C  C1687  1  0.979800  0.914000  0.475200  0.2211
  C  C1688  1  0.020200  0.086000  0.524800  0.2211
  C  C1689  1  0.005000  0.898600  0.491500  0.2211
  C  C1690  1  0.995000  0.101400  0.508500  0.2211
  C  C1691  1  0.041000  0.891500  0.471500  0.2211
  C  C1692  1  0.959000  0.108500  0.528500  0.2211
  C  C1693  1  0.826000  0.997000  0.450600  0.2211
  C  C1694  1  0.174000  0.003000  0.549400  0.2211
  C  C1695  1  0.857000  0.975000  0.460000  0.2211
  C  C1696  1  0.143000  0.025000  0.540000  0.2211
  C  C1697  1  0.857000  0.968300  0.492700  0.2211
  C  C1698  1  0.143000  0.031700  0.507300  0.2211
  C  C1699  1  0.826000  0.983000  0.517000  0.2211
  C  C1700  1  0.174000  0.017000  0.483000  0.2211
  C  C1701  1  0.794000  0.004000  0.509000  0.2211
  C  C1702  1  0.206000  0.996000  0.491000  0.2211
  C  C1703  1  0.927000  0.903000  0.532000  0.2211
  C  C1704  1  0.073000  0.097000  0.468000  0.2211
  C  C1705  1  0.892000  0.927000  0.538000  0.2211
  C  C1706  1  0.108000  0.073000  0.462000  0.2211
  C  C1707  1  0.889000  0.949000  0.504000  0.2211
  C  C1708  1  0.111000  0.051000  0.496000  0.2211
  C  C1709  1  0.025000  0.640600  0.419900  0.2211
  C  C1710  1  0.975000  0.359400  0.580100  0.2211
  C  C1711  1  0.990700  0.646900  0.443500  0.2211
  C  C1712  1  0.009300  0.353100  0.556500  0.2211
  C  C1713  1  0.984400  0.627100  0.479900  0.2211
  C  C1714  1  0.015600  0.372900  0.520100  0.2211
  C  C1715  1  0.013000  0.601100  0.492000  0.2211
  C  C1716  1  0.987000  0.398900  0.508000  0.2211
  C  C1717  1  0.047700  0.594900  0.467900  0.2211
  C  C1718  1  0.952300  0.405100  0.532100  0.2211
  C  C1719  1  0.827000  0.727400  0.449200  0.2211
  C  C1720  1  0.173000  0.272600  0.550800  0.2211
  C  C1721  1  0.855800  0.711000  0.461300  0.2211
  C  C1722  1  0.144200  0.289000  0.538700  0.2211
  C  C1723  1  0.854000  0.685700  0.495300  0.2211
  C  C1724  1  0.146000  0.314300  0.504700  0.2211
  C  C1725  1  0.823000  0.676700  0.517800  0.2211
  C  C1726  1  0.177000  0.323300  0.482200  0.2211
  C  C1727  1  0.793800  0.693100  0.506200  0.2211
  C  C1728  1  0.206200  0.306900  0.493800  0.2211
  C  C1729  1  0.934000  0.632000  0.525000  0.2211
  C  C1730  1  0.066000  0.368000  0.475000  0.2211
  C  C1731  1  0.897000  0.648000  0.538000  0.2211
  C  C1732  1  0.103000  0.352000  0.462000  0.2211
  C  C1733  1  0.883800  0.670000  0.508800  0.2211
  C  C1734  1  0.116200  0.330000  0.491200  0.2211
  C  C1735  1  0.088200  0.580200  0.360600  0.2211
  C  C1736  1  0.911800  0.419800  0.639400  0.2211
  C  C1737  1  0.082300  0.560000  0.350300  0.2211
  C  C1738  1  0.917700  0.440000  0.649700  0.2211
  C  C1739  1  0.089300  0.523400  0.368500  0.2211
  C  C1740  1  0.910700  0.476600  0.631500  0.2211
  C  C1741  1  0.102300  0.506900  0.396900  0.2211
  C  C1742  1  0.897700  0.493100  0.603100  0.2211
  C  C1743  1  0.108300  0.527100  0.406900  0.2211
  C  C1744  1  0.891700  0.472900  0.593100  0.2211
  C  C1745  1  0.004700  0.550300  0.274000  0.2211
  C  C1746  1  0.995300  0.449700  0.726000  0.2211
  C  C1747  1  0.028400  0.537600  0.291300  0.2211
  C  C1748  1  0.971600  0.462400  0.708700  0.2211
  C  C1749  1  0.036200  0.503000  0.314200  0.2211
  C  C1750  1  0.963800  0.497000  0.685800  0.2211
  C  C1751  1  0.020000  0.480100  0.320900  0.2211
  C  C1752  1  0.980000  0.519900  0.679100  0.2211
  C  C1753  1  0.996400  0.493000  0.302700  0.2211
  C  C1754  1  0.003600  0.507000  0.697300  0.2211
  C  C1755  1  0.073000  0.475000  0.379000  0.2211
  C  C1756  1  0.927000  0.525000  0.621000  0.2211
  C  C1757  1  0.069000  0.465000  0.358000  0.2211
  C  C1758  1  0.931000  0.535000  0.642000  0.2211
  C  C1759  1  0.064000  0.497000  0.326400  0.2211
  C  C1760  1  0.936000  0.503000  0.673600  0.2211
  C  C1761  1  0.358700  0.579700  0.091100  0.2211
  C  C1762  1  0.641300  0.420300  0.908900  0.2211
  C  C1763  1  0.350200  0.559200  0.083900  0.2211
  C  C1764  1  0.649800  0.440800  0.916100  0.2211
  C  C1765  1  0.370600  0.523200  0.088500  0.2211
  C  C1766  1  0.629400  0.476800  0.911500  0.2211
  C  C1767  1  0.399500  0.507700  0.100400  0.2211
  C  C1768  1  0.600500  0.492300  0.899600  0.2211
  C  C1769  1  0.408000  0.528200  0.107600  0.2211
  C  C1770  1  0.592000  0.471800  0.892400  0.2211
  C  C1771  1  0.275200  0.552200  0.002600  0.2211
  C  C1772  1  0.724800  0.447800  0.997400  0.2211
  C  C1773  1  0.295000  0.539800  0.024600  0.2211
  C  C1774  1  0.705000  0.460200  0.975400  0.2211
  C  C1775  1  0.317600  0.504000  0.033200  0.2211
  C  C1776  1  0.682400  0.496000  0.966800  0.2211
  C  C1777  1  0.320900  0.481400  0.018700  0.2211
  C  C1778  1  0.679100  0.518600  0.981300  0.2211
  C  C1779  1  0.301300  0.493800  0.997100  0.2211
  C  C1780  1  0.698700  0.506200  0.002900  0.2211
  C  C1781  1  0.368000  0.473000  0.092000  0.2211
  C  C1782  1  0.632000  0.527000  0.908000  0.2211
  C  C1783  1  0.352000  0.464000  0.080000  0.2211
  C  C1784  1  0.648000  0.536000  0.920000  0.2211
  C  C1785  1  0.331000  0.496000  0.060300  0.2211
  C  C1786  1  0.669000  0.504000  0.939700  0.2211
  C  C1787  1  0.417100  0.641300  0.029200  0.2211
  C  C1788  1  0.582900  0.358700  0.970800  0.2211
  C  C1789  1  0.438000  0.649100  0.993300  0.2211
  C  C1790  1  0.562000  0.350900  0.006700  0.2211
  C  C1791  1  0.475000  0.630000  0.982700  0.2211
  C  C1792  1  0.525000  0.370000  0.017300  0.2211
  C  C1793  1  0.490100  0.603100  0.009200  0.2211
  C  C1794  1  0.509900  0.396900  0.990800  0.2211
  C  C1795  1  0.469000  0.595300  0.045400  0.2211
  C  C1796  1  0.531000  0.404700  0.954600  0.2211
  C  C1797  1  0.453100  0.723400  0.824900  0.2211
  C  C1798  1  0.546900  0.276600  0.175100  0.2211
  C  C1799  1  0.462300  0.708600  0.855500  0.2211
  C  C1800  1  0.537700  0.291400  0.144500  0.2211
  C  C1801  1  0.497000  0.685400  0.855100  0.2211
  C  C1802  1  0.503000  0.314600  0.144900  0.2211
  C  C1803  1  0.522200  0.677000  0.824500  0.2211
  C  C1804  1  0.477800  0.323000  0.175500  0.2211
  C  C1805  1  0.513000  0.691800  0.793900  0.2211
  C  C1806  1  0.487000  0.308200  0.206100  0.2211
  C  C1807  1  0.527000  0.627000  0.934000  0.2211
  C  C1808  1  0.473000  0.373000  0.066000  0.2211
  C  C1809  1  0.539000  0.640000  0.896000  0.2211
  C  C1810  1  0.461000  0.360000  0.104000  0.2211
  C  C1811  1  0.507000  0.664000  0.887500  0.2211
  C  C1812  1  0.493000  0.336000  0.112500  0.2211
  C  C1813  1  0.418300  0.910900  0.027500  0.2211
  C  C1814  1  0.581700  0.089100  0.972500  0.2211
  C  C1815  1  0.439400  0.917100  0.991600  0.2211
  C  C1816  1  0.560600  0.082900  0.008400  0.2211
  C  C1817  1  0.475800  0.910700  0.981300  0.2211
  C  C1818  1  0.524200  0.089300  0.018700  0.2211
  C  C1819  1  0.490900  0.898000  0.007300  0.2211
  C  C1820  1  0.509100  0.102000  0.992700  0.2211
  C  C1821  1  0.469700  0.891800  0.043200  0.2211
  C  C1822  1  0.530300  0.108200  0.956800  0.2211
  C  C1823  1  0.450900  0.993600  0.831500  0.2211
  C  C1824  1  0.549100  0.006400  0.168500  0.2211
  C  C1825  1  0.464100  0.970300  0.859800  0.2211
  C  C1826  1  0.535900  0.029700  0.140200  0.2211
  C  C1827  1  0.499200  0.963100  0.855300  0.2211
  C  C1828  1  0.500800  0.036900  0.144700  0.2211
  C  C1829  1  0.521200  0.979100  0.822400  0.2211
  C  C1830  1  0.478800  0.020900  0.177600  0.2211
  C  C1831  1  0.508100  0.002500  0.793900  0.2211
  C  C1832  1  0.491900  0.997500  0.206100  0.2211
  C  C1833  1  0.533000  0.905000  0.930000  0.2211
  C  C1834  1  0.467000  0.095000  0.070000  0.2211
  C  C1835  1  0.542000  0.922000  0.892000  0.2211
  C  C1836  1  0.458000  0.078000  0.108000  0.2211
  C  C1837  1  0.507000  0.941800  0.889300  0.2211
  C  C1838  1  0.493000  0.058200  0.110700  0.2211
  C  C1839  1  0.358300  0.972000  0.089600  0.2211
  C  C1840  1  0.641700  0.028000  0.910400  0.2211
  C  C1841  1  0.351400  0.007900  0.080700  0.2211
  C  C1842  1  0.648600  0.992100  0.919300  0.2211
  C  C1843  1  0.372000  0.018600  0.085400  0.2211
  C  C1844  1  0.628000  0.981400  0.914600  0.2211
  C  C1845  1  0.399000  0.993000  0.100000  0.2211
  C  C1846  1  0.601000  0.007000  0.900000  0.2211
  C  C1847  1  0.405800  0.956700  0.109500  0.2211
  C  C1848  1  0.594200  0.043300  0.890500  0.2211
  C  C1849  1  0.277100  0.172800  0.000800  0.2211
  C  C1850  1  0.722900  0.827200  0.999200  0.2211
  C  C1851  1  0.293000  0.142800  0.025200  0.2211
  C  C1852  1  0.707000  0.857200  0.974800  0.2211
  C  C1853  1  0.315300  0.144700  0.036200  0.2211
  C  C1854  1  0.684700  0.855300  0.963800  0.2211
  C  C1855  1  0.321700  0.176500  0.022800  0.2211
  C  C1856  1  0.678300  0.823500  0.977200  0.2211
  C  C1857  1  0.305800  0.206600  0.998400  0.2211
  C  C1858  1  0.694200  0.793400  0.001600  0.2211
  C  C1859  1  0.374000  0.074000  0.081000  0.2211
  C  C1860  1  0.626000  0.926000  0.919000  0.2211
  C  C1861  1  0.356000  0.110000  0.077000  0.2211
  C  C1862  1  0.644000  0.890000  0.923000  0.2211
  C  C1863  1  0.331000  0.116000  0.063000  0.2211
  C  C1864  1  0.669000  0.884000  0.937000  0.2211
  C  C1865  1  0.359000  0.086900  0.974400  0.2211
  C  C1866  1  0.641000  0.913100  0.025600  0.2211
  C  C1867  1  0.352500  0.079700  0.009800  0.2211
  C  C1868  1  0.647500  0.920300  0.990200  0.2211
  C  C1869  1  0.374000  0.085500  0.018500  0.2211
  C  C1870  1  0.626000  0.914500  0.981500  0.2211
  C  C1871  1  0.401700  0.098300  0.992200  0.2211
  C  C1872  1  0.598300  0.901700  0.007800  0.2211
  C  C1873  1  0.408100  0.105500  0.956400  0.2211
  C  C1874  1  0.591900  0.894500  0.043600  0.2211
  C  C1875  1  0.278500  0.996300  0.175500  0.2211
  C  C1876  1  0.721500  0.003700  0.824500  0.2211
  C  C1877  1  0.291300  0.022400  0.145000  0.2211
  C  C1878  1  0.708700  0.977600  0.855000  0.2211
  C  C1879  1  0.313700  0.035100  0.144200  0.2211
  C  C1880  1  0.686300  0.964900  0.855800  0.2211
  C  C1881  1  0.323300  0.021700  0.174400  0.2211
  C  C1882  1  0.676700  0.978300  0.825600  0.2211
  C  C1883  1  0.310400  0.995600  0.205000  0.2211
  C  C1884  1  0.689600  0.004400  0.795000  0.2211
  C  C1885  1  0.362000  0.097000  0.065000  0.2211
  C  C1886  1  0.638000  0.903000  0.935000  0.2211
  C  C1887  1  0.353000  0.083000  0.102000  0.2211
  C  C1888  1  0.647000  0.917000  0.898000  0.2211
  C  C1889  1  0.334000  0.060000  0.115000  0.2211
  C  C1890  1  0.666000  0.940000  0.885000  0.2211
  C  C1891  1  0.416200  0.031000  0.910300  0.2211
  C  C1892  1  0.583800  0.969000  0.089700  0.2211
  C  C1893  1  0.436000  0.994200  0.918700  0.2211
  C  C1894  1  0.564000  0.005800  0.081300  0.2211
  C  C1895  1  0.473000  0.982900  0.912100  0.2211
  C  C1896  1  0.527000  0.017100  0.087900  0.2211
  C  C1897  1  0.489100  0.008000  0.898200  0.2211
  C  C1898  1  0.510900  0.992000  0.101800  0.2211
  C  C1899  1  0.469000  0.044300  0.890600  0.2211
  C  C1900  1  0.531000  0.955700  0.109400  0.2211
  C  C1901  1  0.451000  0.826000  0.999200  0.2211
  C  C1902  1  0.549000  0.174000  0.000800  0.2211
  C  C1903  1  0.459600  0.857200  0.976200  0.2211
  C  C1904  1  0.540400  0.142800  0.023800  0.2211
  C  C1905  1  0.494000  0.857100  0.965900  0.2211
  C  C1906  1  0.506000  0.142900  0.034100  0.2211
  C  C1907  1  0.519600  0.826000  0.978600  0.2211
  C  C1908  1  0.480400  0.174000  0.021400  0.2211
  C  C1909  1  0.511000  0.794600  0.001700  0.2211
  C  C1910  1  0.489000  0.205400  0.998300  0.2211
  C  C1911  1  0.529000  0.930000  0.916000  0.2211
  C  C1912  1  0.471000  0.070000  0.084000  0.2211
  C  C1913  1  0.542000  0.893000  0.927000  0.2211
  C  C1914  1  0.458000  0.107000  0.073000  0.2211
  C  C1915  1  0.509000  0.886000  0.945000  0.2211
  C  C1916  1  0.491000  0.114000  0.055000  0.2211
  C  C1917  1  0.418000  0.030000  0.637300  0.2211
  C  C1918  1  0.582000  0.970000  0.362700  0.2211
  C  C1919  1  0.437000  0.992900  0.647800  0.2211
  C  C1920  1  0.563000  0.007100  0.352200  0.2211
  C  C1921  1  0.474000  0.980500  0.631700  0.2211
  C  C1922  1  0.526000  0.019500  0.368300  0.2211
  C  C1923  1  0.492000  0.005000  0.605400  0.2211
  C  C1924  1  0.508000  0.995000  0.394600  0.2211
  C  C1925  1  0.473000  0.041300  0.595700  0.2211
  C  C1926  1  0.527000  0.958700  0.404300  0.2211
  C  C1927  1  0.453400  0.827000  0.724700  0.2211
  C  C1928  1  0.546600  0.173000  0.275300  0.2211
  C  C1929  1  0.462600  0.857800  0.707800  0.2211
  C  C1930  1  0.537400  0.142200  0.292200  0.2211
  C  C1931  1  0.497000  0.857300  0.683100  0.2211
  C  C1932  1  0.503000  0.142700  0.316900  0.2211
  C  C1933  1  0.521700  0.826000  0.675700  0.2211
  C  C1934  1  0.478300  0.174000  0.324300  0.2211
  C  C1935  1  0.512500  0.795200  0.692500  0.2211
  C  C1936  1  0.487500  0.204800  0.307500  0.2211
  C  C1937  1  0.526000  0.930000  0.618000  0.2211
  C  C1938  1  0.474000  0.070000  0.382000  0.2211
  C  C1939  1  0.541000  0.894000  0.637000  0.2211
  C  C1940  1  0.459000  0.106000  0.363000  0.2211
  C  C1941  1  0.514000  0.884000  0.668400  0.2211
  C  C1942  1  0.486000  0.116000  0.331600  0.2211
  C  C1943  1  0.359000  0.086400  0.583600  0.2211
  C  C1944  1  0.641000  0.913600  0.416400  0.2211
  C  C1945  1  0.349700  0.079800  0.563500  0.2211
  C  C1946  1  0.650300  0.920200  0.436500  0.2211
  C  C1947  1  0.369000  0.086100  0.526700  0.2211
  C  C1948  1  0.631000  0.913900  0.473300  0.2211
  C  C1949  1  0.396900  0.099100  0.511000  0.2211
  C  C1950  1  0.603100  0.900900  0.489000  0.2211
  C  C1951  1  0.406100  0.105800  0.531100  0.2211
  C  C1952  1  0.593900  0.894200  0.468900  0.2211
  C  C1953  1  0.275200  0.997600  0.546200  0.2211
  C  C1954  1  0.724800  0.002400  0.453800  0.2211
  C  C1955  1  0.288600  0.022200  0.540800  0.2211
  C  C1956  1  0.711400  0.977800  0.459200  0.2211
  C  C1957  1  0.313500  0.033900  0.507900  0.2211
  C  C1958  1  0.686500  0.966100  0.492100  0.2211
  C  C1959  1  0.325000  0.021100  0.480900  0.2211
  C  C1960  1  0.675000  0.978900  0.519100  0.2211
  C  C1961  1  0.312000  0.996500  0.486000  0.2211
  C  C1962  1  0.688000  0.003500  0.514000  0.2211
  C  C1963  1  0.373000  0.086000  0.470000  0.2211
  C  C1964  1  0.627000  0.914000  0.530000  0.2211
  C  C1965  1  0.356000  0.073000  0.463000  0.2211
  C  C1966  1  0.644000  0.927000  0.537000  0.2211
  C  C1967  1  0.331000  0.059400  0.495600  0.2211
  C  C1968  1  0.669000  0.940600  0.504400  0.2211
  C  C1969  1  0.087000  0.359600  0.580400  0.2211
  C  C1970  1  0.913000  0.640400  0.419600  0.2211
  C  C1971  1  0.081500  0.351400  0.558500  0.2211
  C  C1972  1  0.918500  0.648600  0.441500  0.2211
  C  C1973  1  0.089200  0.370800  0.522100  0.2211
  C  C1974  1  0.910800  0.629200  0.477900  0.2211
  C  C1975  1  0.102500  0.398500  0.508000  0.2211
  C  C1976  1  0.897500  0.601500  0.492000  0.2211
  C  C1977  1  0.108100  0.406800  0.529400  0.2211
  C  C1978  1  0.891900  0.593200  0.470600  0.2211
  C  C1979  1  0.006600  0.270300  0.550100  0.2211
  C  C1980  1  0.993400  0.729700  0.449900  0.2211
  C  C1981  1  0.028100  0.290100  0.538300  0.2211
  C  C1982  1  0.971900  0.709900  0.461700  0.2211
  C  C1983  1  0.031800  0.316900  0.504800  0.2211
  C  C1984  1  0.968200  0.683100  0.495200  0.2211
  C  C1985  1  0.014000  0.323800  0.483500  0.2211
  C  C1986  1  0.986000  0.676200  0.516500  0.2211
  C  C1987  1  0.992600  0.303900  0.495600  0.2211
  C  C1988  1  0.007400  0.696100  0.504400  0.2211
  C  C1989  1  0.084000  0.374000  0.471000  0.2211
  C  C1990  1  0.916000  0.626000  0.529000  0.2211
  C  C1991  1  0.075000  0.356000  0.461000  0.2211
  C  C1992  1  0.925000  0.644000  0.539000  0.2211
  C  C1993  1  0.058000  0.333000  0.495000  0.2211
  C  C1994  1  0.942000  0.667000  0.505000  0.2211
  C  C1995  1  0.029500  0.420100  0.637400  0.2211
  C  C1996  1  0.970500  0.579900  0.362600  0.2211
  C  C1997  1  0.992900  0.438900  0.647800  0.2211
  C  C1998  1  0.007100  0.561100  0.352200  0.2211
  C  C1999  1  0.980100  0.475500  0.630000  0.2211
  C  C2000  1  0.019900  0.524500  0.370000  0.2211
  C  C2001  1  0.003900  0.493300  0.601800  0.2211
  C  C2002  1  0.996100  0.506700  0.398200  0.2211
  C  C2003  1  0.040500  0.474500  0.591400  0.2211
  C  C2004  1  0.959500  0.525500  0.408600  0.2211
  C  C2005  1  0.823000  0.453600  0.725500  0.2211
  C  C2006  1  0.177000  0.546400  0.274500  0.2211
  C  C2007  1  0.854400  0.461800  0.709300  0.2211
  C  C2008  1  0.145600  0.538200  0.290700  0.2211
  C  C2009  1  0.854800  0.496000  0.684800  0.2211
  C  C2010  1  0.145200  0.504000  0.315200  0.2211
  C  C2011  1  0.824000  0.521600  0.676400  0.2211
  C  C2012  1  0.176000  0.478400  0.323600  0.2211
  C  C2013  1  0.792700  0.513400  0.692900  0.2211
  C  C2014  1  0.207300  0.486600  0.307100  0.2211
  C  C2015  1  0.924000  0.531700  0.644300  0.2211
  C  C2016  1  0.076000  0.468300  0.355700  0.2211
  C  C2017  1  0.889000  0.538000  0.651000  0.2211
  C  C2018  1  0.111000  0.462000  0.349000  0.2211
  C  C2019  1  0.888000  0.504000  0.659000  0.2211
  C  C2020  1  0.112000  0.496000  0.341000  0.2211
  C  C2021  1  0.028000  0.417600  0.912300  0.2211
  C  C2022  1  0.972000  0.582400  0.087700  0.2211
  C  C2023  1  0.992000  0.437000  0.919400  0.2211
  C  C2024  1  0.008000  0.563000  0.080600  0.2211
  C  C2025  1  0.979900  0.474000  0.913100  0.2211
  C  C2026  1  0.020100  0.526000  0.086900  0.2211
  C  C2027  1  0.004000  0.490600  0.900400  0.2211
  C  C2028  1  0.996000  0.509400  0.099600  0.2211
  C  C2029  1  0.041000  0.471000  0.892500  0.2211
  C  C2030  1  0.959000  0.529000  0.107500  0.2211
  C  C2031  1  0.828000  0.450700  0.996400  0.2211
  C  C2032  1  0.172000  0.549300  0.003600  0.2211
  C  C2033  1  0.857500  0.462000  0.971500  0.2211
  C  C2034  1  0.142500  0.538000  0.028500  0.2211
  C  C2035  1  0.856000  0.496000  0.963000  0.2211
  C  C2036  1  0.144000  0.504000  0.037000  0.2211
  C  C2037  1  0.825000  0.519600  0.979000  0.2211
  C  C2038  1  0.175000  0.480400  0.021000  0.2211
  C  C2039  1  0.795500  0.509000  0.003500  0.2211
  C  C2040  1  0.204500  0.491000  0.996500  0.2211
  C  C2041  1  0.928000  0.533000  0.902000  0.2211
  C  C2042  1  0.072000  0.467000  0.098000  0.2211
  C  C2043  1  0.892000  0.543000  0.922000  0.2211
  C  C2044  1  0.108000  0.457000  0.078000  0.2211
  C  C2045  1  0.887000  0.509000  0.942000  0.2211
  C  C2046  1  0.113000  0.491000  0.058000  0.2211
  C  C2047  1  0.088300  0.357900  0.971400  0.2211
  C  C2048  1  0.911700  0.642100  0.028600  0.2211
  C  C2049  1  0.081400  0.349900  0.007700  0.2211
  C  C2050  1  0.918600  0.650100  0.992300  0.2211
  C  C2051  1  0.087100  0.370000  0.017900  0.2211
  C  C2052  1  0.912900  0.630000  0.982100  0.2211
  C  C2053  1  0.099700  0.398400  0.991900  0.2211
  C  C2054  1  0.900300  0.601600  0.008100  0.2211
  C  C2055  1  0.106700  0.406500  0.955800  0.2211
  C  C2056  1  0.893300  0.593500  0.044200  0.2211
  C  C2057  1  0.003800  0.274000  0.171700  0.2211
  C  C2058  1  0.996200  0.726000  0.828300  0.2211
  C  C2059  1  0.025700  0.292900  0.141400  0.2211
  C  C2060  1  0.974300  0.707100  0.858600  0.2211
  C  C2061  1  0.034300  0.316600  0.144000  0.2211
  C  C2062  1  0.965700  0.683400  0.856000  0.2211
  C  C2063  1  0.021100  0.321500  0.176500  0.2211
  C  C2064  1  0.978900  0.678500  0.823500  0.2211
  C  C2065  1  0.999200  0.302600  0.206800  0.2211
  C  C2066  1  0.000800  0.697400  0.793200  0.2211
  C  C2067  1  0.080000  0.373000  0.075000  0.2211
  C  C2068  1  0.920000  0.627000  0.925000  0.2211
  C  C2069  1  0.072000  0.357000  0.112000  0.2211
  C  C2070  1  0.928000  0.643000  0.888000  0.2211
  C  C2071  1  0.064000  0.329000  0.115000  0.2211
  C  C2072  1  0.936000  0.671000  0.885000  0.2211
  C  C2073  1  0.972000  0.360400  0.087100  0.2211
  C  C2074  1  0.028000  0.639600  0.912900  0.2211
  C  C2075  1  0.008400  0.352600  0.079000  0.2211
  C  C2076  1  0.991600  0.647400  0.921000  0.2211
  C  C2077  1  0.019100  0.371200  0.085700  0.2211
  C  C2078  1  0.980900  0.628800  0.914300  0.2211
  C  C2079  1  0.994000  0.397600  0.101100  0.2211
  C  C2080  1  0.006000  0.602400  0.898900  0.2211
  C  C2081  1  0.957300  0.405400  0.109800  0.2211
  C  C2082  1  0.042700  0.594600  0.890200  0.2211
  C  C2083  1  0.173000  0.277100  0.001100  0.2211
  C  C2084  1  0.827000  0.722900  0.998900  0.2211
  C  C2085  1  0.144200  0.293300  0.025900  0.2211
  C  C2086  1  0.855800  0.706700  0.974100  0.2211
  C  C2087  1  0.147800  0.315500  0.035700  0.2211
  C  C2088  1  0.852200  0.684500  0.964300  0.2211
  C  C2089  1  0.180000  0.321500  0.020600  0.2211
  C  C2090  1  0.820000  0.678500  0.979400  0.2211
  C  C2091  1  0.209000  0.305300  0.995500  0.2211
  C  C2092  1  0.791000  0.694700  0.004500  0.2211
  C  C2093  1  0.071000  0.362000  0.095000  0.2211
  C  C2094  1  0.929000  0.638000  0.905000  0.2211
  C  C2095  1  0.107000  0.354000  0.080000  0.2211
  C  C2096  1  0.893000  0.646000  0.920000  0.2211
  C  C2097  1  0.115000  0.338000  0.055000  0.2211
  C  C2098  1  0.885000  0.662000  0.945000  0.2211
  C  C2099  1  0.910100  0.417800  0.031300  0.2211
  C  C2100  1  0.089900  0.582200  0.968700  0.2211
  C  C2101  1  0.917600  0.437800  0.994900  0.2211
  C  C2102  1  0.082400  0.562200  0.005100  0.2211
  C  C2103  1  0.912700  0.473900  0.983400  0.2211
  C  C2104  1  0.087300  0.526100  0.016600  0.2211
  C  C2105  1  0.900300  0.490200  0.008200  0.2211
  C  C2106  1  0.099700  0.509800  0.991800  0.2211
  C  C2107  1  0.892800  0.470200  0.044600  0.2211
  C  C2108  1  0.107200  0.529800  0.955400  0.2211
  C  C2109  1  0.993800  0.450400  0.828700  0.2211
  C  C2110  1  0.006200  0.549600  0.171300  0.2211
  C  C2111  1  0.970500  0.463600  0.856900  0.2211
  C  C2112  1  0.029500  0.536400  0.143100  0.2211
  C  C2113  1  0.965000  0.498100  0.853100  0.2211
  C  C2114  1  0.035000  0.501900  0.146900  0.2211
  C  C2115  1  0.982900  0.519200  0.820900  0.2211
  C  C2116  1  0.017100  0.480800  0.179100  0.2211
  C  C2117  1  0.006200  0.506000  0.792500  0.2211
  C  C2118  1  0.993800  0.494000  0.207500  0.2211
  C  C2119  1  0.922000  0.526000  0.929000  0.2211
  C  C2120  1  0.078000  0.474000  0.071000  0.2211
  C  C2121  1  0.927000  0.536000  0.893000  0.2211
  C  C2122  1  0.073000  0.464000  0.107000  0.2211
  C  C2123  1  0.937000  0.504000  0.887000  0.2211
  C  C2124  1  0.063000  0.496000  0.113000  0.2211
  C  C2125  1  0.639400  0.418800  0.029600  0.2211
  C  C2126  1  0.360600  0.581200  0.970400  0.2211
  C  C2127  1  0.649500  0.438000  0.992600  0.2211
  C  C2128  1  0.350500  0.562000  0.007400  0.2211
  C  C2129  1  0.632000  0.474000  0.980100  0.2211
  C  C2130  1  0.368000  0.526000  0.019900  0.2211
  C  C2131  1  0.604000  0.491900  0.003800  0.2211
  C  C2132  1  0.396000  0.508100  0.996200  0.2211
  C  C2133  1  0.593500  0.473000  0.040900  0.2211
  C  C2134  1  0.406500  0.527000  0.959100  0.2211
  C  C2135  1  0.727300  0.453400  0.822400  0.2211
  C  C2136  1  0.272700  0.546600  0.177600  0.2211
  C  C2137  1  0.711800  0.460200  0.854400  0.2211
  C  C2138  1  0.288200  0.539800  0.145600  0.2211
  C  C2139  1  0.686300  0.493400  0.856800  0.2211
  C  C2140  1  0.313700  0.506600  0.143200  0.2211
  C  C2141  1  0.676400  0.519800  0.827000  0.2211
  C  C2142  1  0.323600  0.480200  0.173000  0.2211
  C  C2143  1  0.691900  0.513000  0.795000  0.2211
  C  C2144  1  0.308100  0.487000  0.205000  0.2211
  C  C2145  1  0.625000  0.529000  0.929000  0.2211
  C  C2146  1  0.375000  0.471000  0.071000  0.2211
  C  C2147  1  0.639000  0.542000  0.893000  0.2211
  C  C2148  1  0.361000  0.458000  0.107000  0.2211
  C  C2149  1  0.665000  0.511000  0.884000  0.2211
  C  C2150  1  0.335000  0.489000  0.116000  0.2211
  C  C2151  1  0.581100  0.358000  0.087900  0.2211
  C  C2152  1  0.418900  0.642000  0.912100  0.2211
  C  C2153  1  0.560000  0.350600  0.080800  0.2211
  C  C2154  1  0.440000  0.649400  0.919200  0.2211
  C  C2155  1  0.524000  0.370900  0.086600  0.2211
  C  C2156  1  0.476000  0.629100  0.913400  0.2211
  C  C2157  1  0.508800  0.398700  0.100500  0.2211
  C  C2158  1  0.491200  0.601300  0.899500  0.2211
  C  C2159  1  0.530000  0.406100  0.107600  0.2211
  C  C2160  1  0.470000  0.593900  0.892400  0.2211
  C  C2161  1  0.546200  0.274300  0.003700  0.2211
  C  C2162  1  0.453800  0.725700  0.996300  0.2211
  C  C2163  1  0.539000  0.289200  0.027700  0.2211
  C  C2164  1  0.461000  0.710800  0.972300  0.2211
  C  C2165  1  0.506000  0.314400  0.037600  0.2211
  C  C2166  1  0.494000  0.685600  0.962400  0.2211
  C  C2167  1  0.479500  0.324700  0.023800  0.2211
  C  C2168  1  0.520500  0.675300  0.976200  0.2211
  C  C2169  1  0.486700  0.309800  0.000100  0.2211
  C  C2170  1  0.513300  0.690200  0.999900  0.2211
  C  C2171  1  0.470000  0.382000  0.079000  0.2211
  C  C2172  1  0.530000  0.618000  0.921000  0.2211
  C  C2173  1  0.459000  0.365000  0.070000  0.2211
  C  C2174  1  0.541000  0.635000  0.930000  0.2211
  C  C2175  1  0.490000  0.336000  0.061000  0.2211
  C  C2176  1  0.510000  0.664000  0.939000  0.2211
  C  C2177  1  0.580500  0.087800  0.360700  0.2211
  C  C2178  1  0.419500  0.912200  0.639300  0.2211
  C  C2179  1  0.560000  0.078800  0.354000  0.2211
  C  C2180  1  0.440000  0.921200  0.646000  0.2211
  C  C2181  1  0.524000  0.084600  0.373300  0.2211
  C  C2182  1  0.476000  0.915400  0.626700  0.2211
  C  C2183  1  0.507900  0.099300  0.399800  0.2211
  C  C2184  1  0.492100  0.900700  0.600200  0.2211
  C  C2185  1  0.528000  0.108300  0.407400  0.2211
  C  C2186  1  0.472000  0.891700  0.592600  0.2211
  C  C2187  1  0.551000  0.002500  0.272500  0.2211
  C  C2188  1  0.449000  0.997500  0.727500  0.2211
  C  C2189  1  0.538200  0.026800  0.289500  0.2211
  C  C2190  1  0.461800  0.973200  0.710500  0.2211
  C  C2191  1  0.504000  0.033700  0.313400  0.2211
  C  C2192  1  0.496000  0.966300  0.686600  0.2211
  C  C2193  1  0.481700  0.016200  0.321100  0.2211
  C  C2194  1  0.518300  0.983800  0.678900  0.2211
  C  C2195  1  0.494500  0.991900  0.304300  0.2211
  C  C2196  1  0.505500  0.008100  0.695700  0.2211
  C  C2197  1  0.477000  0.089000  0.364000  0.2211
  C  C2198  1  0.523000  0.911000  0.636000  0.2211
  C  C2199  1  0.464000  0.074000  0.355000  0.2211
  C  C2200  1  0.536000  0.926000  0.645000  0.2211
  C  C2201  1  0.497000  0.054700  0.333800  0.2211
  C  C2202  1  0.503000  0.945300  0.666200  0.2211
  C  C2203  1  0.642500  0.026000  0.416200  0.2211
  C  C2204  1  0.357500  0.974000  0.583800  0.2211
  C  C2205  1  0.648800  0.990800  0.439100  0.2211
  C  C2206  1  0.351200  0.009200  0.560900  0.2211
  C  C2207  1  0.628400  0.983200  0.475300  0.2211
  C  C2208  1  0.371600  0.016800  0.524700  0.2211
  C  C2209  1  0.601700  0.011000  0.488400  0.2211
  C  C2210  1  0.398300  0.989000  0.511600  0.2211
  C  C2211  1  0.595400  0.046200  0.465500  0.2211
  C  C2212  1  0.404600  0.953800  0.534500  0.2211
  C  C2213  1  0.722600  0.826000  0.449800  0.2211
  C  C2214  1  0.277400  0.174000  0.550200  0.2211
  C  C2215  1  0.706700  0.856900  0.458400  0.2211
  C  C2216  1  0.293300  0.143100  0.541600  0.2211
  C  C2217  1  0.683100  0.857200  0.492700  0.2211
  C  C2218  1  0.316900  0.142800  0.507300  0.2211
  C  C2219  1  0.675500  0.826000  0.519000  0.2211
  C  C2220  1  0.324500  0.174000  0.481000  0.2211
  C  C2221  1  0.691400  0.795000  0.510400  0.2211
  C  C2222  1  0.308600  0.205000  0.489600  0.2211
  C  C2223  1  0.625000  0.931000  0.530000  0.2211
  C  C2224  1  0.375000  0.069000  0.470000  0.2211
  C  C2225  1  0.641000  0.894000  0.541000  0.2211
  C  C2226  1  0.359000  0.106000  0.459000  0.2211
  C  C2227  1  0.662000  0.886000  0.508800  0.2211
  C  C2228  1  0.338000  0.114000  0.491200  0.2211
  C  C2229  1  0.911500  0.027000  0.420800  0.2211
  C  C2230  1  0.088500  0.973000  0.579200  0.2211
  C  C2231  1  0.920300  0.991200  0.441000  0.2211
  C  C2232  1  0.079700  0.008800  0.559000  0.2211
  C  C2233  1  0.915000  0.981000  0.477100  0.2211
  C  C2234  1  0.085000  0.019000  0.522900  0.2211
  C  C2235  1  0.900800  0.007000  0.492500  0.2211
  C  C2236  1  0.099200  0.993000  0.507500  0.2211
  C  C2237  1  0.892000  0.043100  0.472000  0.2211
  C  C2238  1  0.108000  0.956900  0.528000  0.2211
  C  C2239  1  0.998800  0.824900  0.453500  0.2211
  C  C2240  1  0.001200  0.175100  0.546500  0.2211
  C  C2241  1  0.974900  0.855000  0.463800  0.2211
  C  C2242  1  0.025100  0.145000  0.536200  0.2211
  C  C2243  1  0.965700  0.853700  0.498300  0.2211
  C  C2244  1  0.034300  0.146300  0.501700  0.2211
  C  C2245  1  0.980300  0.822000  0.522900  0.2211
  C  C2246  1  0.019700  0.178000  0.477100  0.2211
  C  C2247  1  0.004200  0.792100  0.512400  0.2211
  C  C2248  1  0.995800  0.207900  0.487600  0.2211
  C  C2249  1  0.923000  0.929000  0.523000  0.2211
  C  C2250  1  0.077000  0.071000  0.477000  0.2211
  C  C2251  1  0.927000  0.894000  0.534000  0.2211
  C  C2252  1  0.073000  0.106000  0.466000  0.2211
  C  C2253  1  0.934200  0.885200  0.504600  0.2211
  C  C2254  1  0.065800  0.114800  0.495400  0.2211
  C  C2255  1  0.970000  0.086100  0.361900  0.2211
  C  C2256  1  0.030000  0.913900  0.638100  0.2211
  C  C2257  1  0.007000  0.079200  0.350800  0.2211
  C  C2258  1  0.993000  0.920800  0.649200  0.2211
  C  C2259  1  0.019000  0.086000  0.369000  0.2211
  C  C2260  1  0.981000  0.914000  0.631000  0.2211
  C  C2261  1  0.995000  0.099600  0.396800  0.2211
  C  C2262  1  0.005000  0.900400  0.603200  0.2211
  C  C2263  1  0.958000  0.106500  0.407500  0.2211
  C  C2264  1  0.042000  0.893500  0.592500  0.2211
  C  C2265  1  0.179000  0.002600  0.275200  0.2211
  C  C2266  1  0.821000  0.997400  0.724800  0.2211
  C  C2267  1  0.146600  0.024300  0.293300  0.2211
  C  C2268  1  0.853400  0.975700  0.706700  0.2211
  C  C2269  1  0.145100  0.031500  0.320400  0.2211
  C  C2270  1  0.854900  0.968500  0.679600  0.2211
  C  C2271  1  0.175000  0.017000  0.330100  0.2211
  C  C2272  1  0.825000  0.983000  0.669900  0.2211
  C  C2273  1  0.207300  0.995200  0.312200  0.2211
  C  C2274  1  0.792700  0.004800  0.687800  0.2211
  C  C2275  1  0.073000  0.077000  0.379000  0.2211
  C  C2276  1  0.927000  0.923000  0.621000  0.2211
  C  C2277  1  0.109000  0.070000  0.359000  0.2211
  C  C2278  1  0.891000  0.930000  0.641000  0.2211
  C  C2279  1  0.112000  0.059000  0.333000  0.2211
  C  C2280  1  0.888000  0.941000  0.667000  0.2211
  C  C2281  1  0.258300  0.016300  0.182800  0.5578
  C  C2282  1  0.741700  0.983700  0.817200  0.5578
  C  C2283  1  0.269300  0.045400  0.156100  0.5578
  C  C2284  1  0.730700  0.954600  0.843900  0.5578
  C  C2285  1  0.291100  0.055900  0.159300  0.5578
  C  C2286  1  0.708900  0.944100  0.840700  0.5578
  C  C2287  1  0.301900  0.037200  0.189400  0.5578
  C  C2288  1  0.698100  0.962800  0.810600  0.5578
  C  C2289  1  0.291000  0.008100  0.216000  0.5578
  C  C2290  1  0.709000  0.991900  0.784000  0.5578
  C  C2291  1  0.257000  0.186700  0.015100  0.5578
  C  C2292  1  0.743000  0.813300  0.984900  0.5578
  C  C2293  1  0.267400  0.158400  0.043900  0.5578
  C  C2294  1  0.732600  0.841600  0.956100  0.5578
  C  C2295  1  0.290000  0.159100  0.055400  0.5578
  C  C2296  1  0.710000  0.840900  0.944600  0.5578
  C  C2297  1  0.302100  0.188100  0.038300  0.5578
  C  C2298  1  0.697900  0.811900  0.961700  0.5578
  C  C2299  1  0.291700  0.216400  0.009400  0.5578
  C  C2300  1  0.708300  0.783600  0.990600  0.5578
  C  C2301  1  0.325800  0.100400  0.125100  0.5578
  C  C2302  1  0.674200  0.899600  0.874900  0.5578
  C  C2303  1  0.325000  0.132000  0.095600  0.5578
  C  C2304  1  0.675000  0.868000  0.904400  0.5578
  C  C2305  1  0.303800  0.128800  0.083600  0.5578
  C  C2306  1  0.696200  0.871200  0.916400  0.5578
  C  C2307  1  0.185000  0.257500  0.015200  0.5578
  C  C2308  1  0.815000  0.742500  0.984800  0.5578
  C  C2309  1  0.156400  0.267600  0.044100  0.5578
  C  C2310  1  0.843600  0.732400  0.955900  0.5578
  C  C2311  1  0.157100  0.289500  0.056500  0.5578
  C  C2312  1  0.842900  0.710500  0.943500  0.5578
  C  C2313  1  0.186200  0.301100  0.040400  0.5578
  C  C2314  1  0.813800  0.698900  0.959600  0.5578
  C  C2315  1  0.214800  0.290900  0.011600  0.5578
  C  C2316  1  0.785200  0.709100  0.988400  0.5578
  C  C2317  1  0.013700  0.256500  0.186100  0.5578
  C  C2318  1  0.986300  0.743500  0.813900  0.5578
  C  C2319  1  0.043400  0.265400  0.158000  0.5578
  C  C2320  1  0.956600  0.734600  0.842000  0.5578
  C  C2321  1  0.056200  0.287100  0.158500  0.5578
  C  C2322  1  0.943800  0.712900  0.841500  0.5578
  C  C2323  1  0.039300  0.300000  0.186900  0.5578
  C  C2324  1  0.960700  0.700000  0.813100  0.5578
  C  C2325  1  0.009600  0.291100  0.215000  0.5578
  C  C2326  1  0.990400  0.708900  0.785000  0.5578
  C  C2327  1  0.128000  0.327400  0.096800  0.5578
  C  C2328  1  0.872000  0.672600  0.903200  0.5578
  C  C2329  1  0.098900  0.325800  0.128800  0.5578
  C  C2330  1  0.901100  0.674200  0.871200  0.5578
  C  C2331  1  0.082300  0.305300  0.130700  0.5578
  C  C2332  1  0.917700  0.694700  0.869300  0.5578
  C  C2333  1  0.017900  0.184400  0.254800  0.5578
  C  C2334  1  0.982100  0.815600  0.745200  0.5578
  C  C2335  1  0.045700  0.157000  0.267700  0.5578
  C  C2336  1  0.954300  0.843000  0.732300  0.5578
  C  C2337  1  0.053800  0.159400  0.291800  0.5578
  C  C2338  1  0.946200  0.840600  0.708200  0.5578
  C  C2339  1  0.034100  0.189100  0.303200  0.5578
  C  C2340  1  0.965900  0.810900  0.696800  0.5578
  C  C2341  1  0.006400  0.216400  0.290400  0.5578
  C  C2342  1  0.993600  0.783600  0.709600  0.5578
  C  C2343  1  0.184500  0.016900  0.254900  0.5578
  C  C2344  1  0.815500  0.983100  0.745100  0.5578
  C  C2345  1  0.156400  0.044800  0.267100  0.5578
  C  C2346  1  0.843600  0.955200  0.732900  0.5578
  C  C2347  1  0.157300  0.053600  0.291700  0.5578
  C  C2348  1  0.842700  0.946400  0.708300  0.5578
  C  C2349  1  0.186300  0.034500  0.304100  0.5578
  C  C2350  1  0.813700  0.965500  0.695900  0.5578
  C  C2351  1  0.214300  0.006600  0.292000  0.5578
  C  C2352  1  0.785700  0.993400  0.708000  0.5578
  C  C2353  1  0.095700  0.128100  0.325400  0.5578
  C  C2354  1  0.904300  0.871900  0.674600  0.5578
  C  C2355  1  0.127300  0.099200  0.326600  0.5578
  C  C2356  1  0.872700  0.900800  0.673400  0.5578
  C  C2357  1  0.130200  0.083700  0.304200  0.5578
  C  C2358  1  0.869800  0.916300  0.695800  0.5578
  C  C2359  1  0.458100  0.813100  0.985500  0.5578
  C  C2360  1  0.541900  0.186900  0.014500  0.5578
  C  C2361  1  0.467800  0.842200  0.956900  0.5578
  C  C2362  1  0.532200  0.157800  0.043100  0.5578
  C  C2363  1  0.501900  0.843200  0.945400  0.5578
  C  C2364  1  0.498100  0.156800  0.054600  0.5578
  C  C2365  1  0.526400  0.815100  0.962400  0.5578
  C  C2366  1  0.473600  0.184900  0.037600  0.5578
  C  C2367  1  0.516700  0.786000  0.991000  0.5578
  C  C2368  1  0.483300  0.214000  0.009000  0.5578
  C  C2369  1  0.458000  0.984200  0.812900  0.5578
  C  C2370  1  0.542000  0.015800  0.187100  0.5578
  C  C2371  1  0.468700  0.955300  0.841300  0.5578
  C  C2372  1  0.531300  0.044700  0.158700  0.5578
  C  C2373  1  0.503300  0.943800  0.841100  0.5578
  C  C2374  1  0.496700  0.056200  0.158900  0.5578
  C  C2375  1  0.527200  0.961300  0.812500  0.5578
  C  C2376  1  0.472800  0.038700  0.187500  0.5578
  C  C2377  1  0.516500  0.990200  0.784100  0.5578
  C  C2378  1  0.483500  0.009800  0.215900  0.5578
  C  C2379  1  0.551100  0.871100  0.906800  0.5578
  C  C2380  1  0.448900  0.128900  0.093200  0.5578
  C  C2381  1  0.551800  0.900700  0.875600  0.5578
  C  C2382  1  0.448200  0.099300  0.124400  0.5578
  C  C2383  1  0.518200  0.918200  0.870100  0.5578
  C  C2384  1  0.481800  0.081800  0.129900  0.5578
  C  C2385  1  0.985000  0.459600  0.811900  0.5578
  C  C2386  1  0.015000  0.540400  0.188100  0.5578
  C  C2387  1  0.955700  0.468300  0.841000  0.5578
  C  C2388  1  0.044300  0.531700  0.159000  0.5578
  C  C2389  1  0.943200  0.502100  0.843200  0.5578
  C  C2390  1  0.056800  0.497900  0.156800  0.5578
  C  C2391  1  0.959900  0.527200  0.816400  0.5578
  C  C2392  1  0.040100  0.472800  0.183600  0.5578
  C  C2393  1  0.989200  0.518500  0.787200  0.5578
  C  C2394  1  0.010800  0.481500  0.212800  0.5578
  C  C2395  1  0.814500  0.458800  0.984600  0.5578
  C  C2396  1  0.185500  0.541200  0.015400  0.5578
  C  C2397  1  0.841100  0.471900  0.955200  0.5578
  C  C2398  1  0.158900  0.528100  0.044800  0.5578
  C  C2399  1  0.838800  0.507000  0.945200  0.5578
  C  C2400  1  0.161200  0.493000  0.054800  0.5578
  C  C2401  1  0.809900  0.529000  0.964600  0.5578
  C  C2402  1  0.190100  0.471000  0.035400  0.5578
  C  C2403  1  0.783300  0.515900  0.994000  0.5578
  C  C2404  1  0.216700  0.484100  0.006000  0.5578
  C  C2405  1  0.902100  0.550200  0.873700  0.5578
  C  C2406  1  0.097900  0.449800  0.126300  0.5578
  C  C2407  1  0.871800  0.550700  0.904100  0.5578
  C  C2408  1  0.128200  0.449300  0.095900  0.5578
  C  C2409  1  0.870800  0.515400  0.916900  0.5578
  C  C2410  1  0.129200  0.484600  0.083100  0.5578
  C  C2411  1  0.815300  0.984100  0.457800  0.5578
  C  C2412  1  0.184700  0.015900  0.542200  0.5578
  C  C2413  1  0.843200  0.955100  0.469100  0.5578
  C  C2414  1  0.156800  0.044900  0.530900  0.5578
  C  C2415  1  0.842600  0.944200  0.503700  0.5578
  C  C2416  1  0.157400  0.055800  0.496300  0.5578
  C  C2417  1  0.814100  0.962400  0.527000  0.5578
  C  C2418  1  0.185900  0.037600  0.473000  0.5578
  C  C2419  1  0.786200  0.991400  0.515600  0.5578
  C  C2420  1  0.213800  0.008600  0.484400  0.5578
  C  C2421  1  0.983400  0.814400  0.457700  0.5578
  C  C2422  1  0.016600  0.185600  0.542300  0.5578
  C  C2423  1  0.954500  0.842200  0.469400  0.5578
  C  C2424  1  0.045500  0.157800  0.530600  0.5578
  C  C2425  1  0.944800  0.841800  0.503600  0.5578
  C  C2426  1  0.055200  0.158200  0.496400  0.5578
  C  C2427  1  0.963800  0.813600  0.526300  0.5578
  C  C2428  1  0.036200  0.186400  0.473700  0.5578
  C  C2429  1  0.992700  0.785800  0.514600  0.5578
  C  C2430  1  0.007300  0.214200  0.485400  0.5578
  C  C2431  1  0.874800  0.902600  0.547800  0.5578
  C  C2432  1  0.125200  0.097400  0.452200  0.5578
  C  C2433  1  0.901300  0.869200  0.554300  0.5578
  C  C2434  1  0.098700  0.130800  0.445700  0.5578
  C  C2435  1  0.913400  0.868300  0.519000  0.5578
  C  C2436  1  0.086600  0.131700  0.481000  0.5578
  C  C2437  1  0.983000  0.742500  0.459700  0.5578
  C  C2438  1  0.017000  0.257500  0.540300  0.5578
  C  C2439  1  0.953900  0.732600  0.470400  0.5578
  C  C2440  1  0.046100  0.267400  0.529600  0.5578
  C  C2441  1  0.942700  0.709300  0.504700  0.5578
  C  C2442  1  0.057300  0.290700  0.495300  0.5578
  C  C2443  1  0.960500  0.695900  0.528500  0.5578
  C  C2444  1  0.039500  0.304100  0.471500  0.5578
  C  C2445  1  0.989500  0.705800  0.517900  0.5578
  C  C2446  1  0.010500  0.294200  0.482100  0.5578
  C  C2447  1  0.814100  0.743100  0.459200  0.5578
  C  C2448  1  0.185900  0.256900  0.540800  0.5578
  C  C2449  1  0.841700  0.733800  0.470600  0.5578
  C  C2450  1  0.158300  0.266200  0.529400  0.5578
  C  C2451  1  0.841300  0.710800  0.505300  0.5578
  C  C2452  1  0.158700  0.289200  0.494700  0.5578
  C  C2453  1  0.813300  0.697100  0.528600  0.5578
  C  C2454  1  0.186700  0.302900  0.471400  0.5578
  C  C2455  1  0.785700  0.706400  0.517200  0.5578
  C  C2456  1  0.214300  0.293600  0.482800  0.5578
  C  C2457  1  0.900800  0.675900  0.552000  0.5578
  C  C2458  1  0.099200  0.324100  0.448000  0.5578
  C  C2459  1  0.868800  0.678500  0.552900  0.5578
  C  C2460  1  0.131200  0.321500  0.447100  0.5578
  C  C2461  1  0.872100  0.698100  0.515900  0.5578
  C  C2462  1  0.127900  0.301900  0.484100  0.5578
  C  C2463  1  0.184400  0.541800  0.255700  0.5578
  C  C2464  1  0.815600  0.458200  0.744300  0.5578
  C  C2465  1  0.157100  0.528900  0.267600  0.5578
  C  C2466  1  0.842900  0.471100  0.732400  0.5578
  C  C2467  1  0.159100  0.494100  0.291400  0.5578
  C  C2468  1  0.840900  0.505900  0.708600  0.5578
  C  C2469  1  0.188500  0.472300  0.303100  0.5578
  C  C2470  1  0.811500  0.527700  0.696900  0.5578
  C  C2471  1  0.215800  0.485200  0.291300  0.5578
  C  C2472  1  0.784200  0.514800  0.708700  0.5578
  C  C2473  1  0.014100  0.541400  0.256900  0.5578
  C  C2474  1  0.985900  0.458600  0.743100  0.5578
  C  C2475  1  0.044400  0.531200  0.264600  0.5578
  C  C2476  1  0.955600  0.468800  0.735400  0.5578
  C  C2477  1  0.057200  0.496700  0.286900  0.5578
  C  C2478  1  0.942800  0.503300  0.713100  0.5578
  C  C2479  1  0.039600  0.472300  0.301800  0.5578
  C  C2480  1  0.960400  0.527700  0.698200  0.5578
  C  C2481  1  0.009300  0.482500  0.294100  0.5578
  C  C2482  1  0.990700  0.517500  0.705900  0.5578
  C  C2483  1  0.127600  0.448400  0.323200  0.5578
  C  C2484  1  0.872400  0.551600  0.676800  0.5578
  C  C2485  1  0.099000  0.445400  0.322600  0.5578
  C  C2486  1  0.901000  0.554600  0.677400  0.5578
  C  C2487  1  0.084600  0.482200  0.302700  0.5578
  C  C2488  1  0.915400  0.517800  0.697300  0.5578
  C  C2489  1  0.254800  0.540300  0.187200  0.5578
  C  C2490  1  0.745200  0.459700  0.812800  0.5578
  C  C2491  1  0.265600  0.529300  0.158900  0.5578
  C  C2492  1  0.734400  0.470700  0.841100  0.5578
  C  C2493  1  0.290600  0.495500  0.158200  0.5578
  C  C2494  1  0.709400  0.504500  0.841800  0.5578
  C  C2495  1  0.304800  0.472700  0.186000  0.5578
  C  C2496  1  0.695200  0.527300  0.814000  0.5578
  C  C2497  1  0.294000  0.483700  0.214300  0.5578
  C  C2498  1  0.706000  0.516300  0.785700  0.5578
  C  C2499  1  0.257400  0.540700  0.014600  0.5578
  C  C2500  1  0.742600  0.459300  0.985400  0.5578
  C  C2501  1  0.266500  0.530900  0.043900  0.5578
  C  C2502  1  0.733500  0.469100  0.956100  0.5578
  C  C2503  1  0.290100  0.496800  0.055600  0.5578
  C  C2504  1  0.709900  0.503200  0.944400  0.5578
  C  C2505  1  0.304500  0.472600  0.038100  0.5578
  C  C2506  1  0.695500  0.527400  0.961900  0.5578
  C  C2507  1  0.295500  0.482400  0.008700  0.5578
  C  C2508  1  0.704500  0.517600  0.991300  0.5578
  C  C2509  1  0.328600  0.448500  0.128800  0.5578
  C  C2510  1  0.671400  0.551500  0.871200  0.5578
  C  C2511  1  0.327100  0.446800  0.100000  0.5578
  C  C2512  1  0.672900  0.553200  0.900000  0.5578
  C  C2513  1  0.303900  0.480700  0.084900  0.5578
  C  C2514  1  0.696100  0.519300  0.915100  0.5578
  C  C2515  1  0.457200  0.744200  0.982700  0.5578
  C  C2516  1  0.542800  0.255800  0.017300  0.5578
  C  C2517  1  0.470200  0.732800  0.954000  0.5578
  C  C2518  1  0.529800  0.267200  0.046000  0.5578
  C  C2519  1  0.505200  0.709600  0.944600  0.5578
  C  C2520  1  0.494800  0.290400  0.055400  0.5578
  C  C2521  1  0.527200  0.698000  0.963700  0.5578
  C  C2522  1  0.472800  0.302000  0.036300  0.5578
  C  C2523  1  0.514100  0.709400  0.992500  0.5578
  C  C2524  1  0.485900  0.290600  0.007500  0.5578
  C  C2525  1  0.458800  0.742500  0.815600  0.5578
  C  C2526  1  0.541200  0.257500  0.184400  0.5578
  C  C2527  1  0.471400  0.732000  0.842700  0.5578
  C  C2528  1  0.528600  0.268000  0.157300  0.5578
  C  C2529  1  0.506600  0.709600  0.840500  0.5578
  C  C2530  1  0.493400  0.290400  0.159500  0.5578
  C  C2531  1  0.529200  0.697700  0.811100  0.5578
  C  C2532  1  0.470800  0.302300  0.188900  0.5578
  C  C2533  1  0.516600  0.708200  0.784000  0.5578
  C  C2534  1  0.483400  0.291800  0.216000  0.5578
  C  C2535  1  0.550100  0.670700  0.905900  0.5578
  C  C2536  1  0.449900  0.329300  0.094100  0.5578
  C  C2537  1  0.552100  0.669900  0.875000  0.5578
  C  C2538  1  0.447900  0.330100  0.125000  0.5578
  C  C2539  1  0.517900  0.695000  0.871500  0.5578
  C  C2540  1  0.482100  0.305000  0.128500  0.5578
  C  C2541  1  0.458700  0.983800  0.743600  0.5578
  C  C2542  1  0.541300  0.016200  0.256400  0.5578
  C  C2543  1  0.469900  0.954700  0.733500  0.5578
  C  C2544  1  0.530100  0.045300  0.266500  0.5578
  C  C2545  1  0.504400  0.943900  0.710100  0.5578
  C  C2546  1  0.495600  0.056100  0.289900  0.5578
  C  C2547  1  0.527700  0.962200  0.696900  0.5578
  C  C2548  1  0.472300  0.037800  0.303100  0.5578
  C  C2549  1  0.516500  0.991200  0.707100  0.5578
  C  C2550  1  0.483500  0.008800  0.292900  0.5578
  C  C2551  1  0.457800  0.813600  0.743400  0.5578
  C  C2552  1  0.542200  0.186400  0.256600  0.5578
  C  C2553  1  0.469100  0.841600  0.733100  0.5578
  C  C2554  1  0.530900  0.158400  0.266900  0.5578
  C  C2555  1  0.503800  0.840900  0.710100  0.5578
  C  C2556  1  0.496200  0.159100  0.289900  0.5578
  C  C2557  1  0.527200  0.812200  0.697400  0.5578
  C  C2558  1  0.472800  0.187800  0.302600  0.5578
  C  C2559  1  0.515900  0.784200  0.707700  0.5578
  C  C2560  1  0.484100  0.215800  0.292300  0.5578
  C  C2561  1  0.550700  0.903700  0.672000  0.5578
  C  C2562  1  0.449300  0.096300  0.328000  0.5578
  C  C2563  1  0.551900  0.872200  0.672900  0.5578
  C  C2564  1  0.448100  0.127800  0.327100  0.5578
  C  C2565  1  0.517000  0.870500  0.696000  0.5578
  C  C2566  1  0.483000  0.129500  0.304000  0.5578
  C  C2567  1  0.258500  0.184300  0.541800  0.5578
  C  C2568  1  0.741500  0.815700  0.458200  0.5578
  C  C2569  1  0.270000  0.156400  0.529900  0.5578
  C  C2570  1  0.730000  0.843600  0.470100  0.5578
  C  C2571  1  0.293000  0.158000  0.494900  0.5578
  C  C2572  1  0.707000  0.842000  0.505100  0.5578
  C  C2573  1  0.304500  0.187500  0.471900  0.5578
  C  C2574  1  0.695500  0.812500  0.528100  0.5578
  C  C2575  1  0.293000  0.215400  0.483900  0.5578
  C  C2576  1  0.707000  0.784600  0.516100  0.5578
  C  C2577  1  0.255900  0.017000  0.543300  0.5578
  C  C2578  1  0.744100  0.983000  0.456700  0.5578
  C  C2579  1  0.267800  0.045500  0.529700  0.5578
  C  C2580  1  0.732200  0.954500  0.470300  0.5578
  C  C2581  1  0.291200  0.054200  0.494700  0.5578
  C  C2582  1  0.708800  0.945800  0.505300  0.5578
  C  C2583  1  0.302700  0.034400  0.473400  0.5578
  C  C2584  1  0.697300  0.965600  0.526600  0.5578
  C  C2585  1  0.290800  0.005900  0.487000  0.5578
  C  C2586  1  0.709200  0.994100  0.513000  0.5578
  C  C2587  1  0.327800  0.127100  0.450100  0.5578
  C  C2588  1  0.672200  0.872900  0.549900  0.5578
  C  C2589  1  0.329700  0.095500  0.450500  0.5578
  C  C2590  1  0.670300  0.904500  0.549500  0.5578
  C  C2591  1  0.306000  0.081300  0.484100  0.5578
  C  C2592  1  0.694000  0.918700  0.515900  0.5578
  C  C2593  1  0.209700  0.906600  0.295900  0.7789
  C  C2594  1  0.790300  0.093400  0.704100  0.7789
  C  C2595  1  0.198400  0.879300  0.326100  0.7789
  C  C2596  1  0.801600  0.120700  0.673900  0.7789
  C  C2597  1  0.209800  0.864800  0.355200  0.7789
  C  C2598  1  0.790200  0.135200  0.644800  0.7789
  C  C2599  1  0.232600  0.877600  0.353900  0.7789
  C  C2600  1  0.767400  0.122400  0.646100  0.7789
  C  C2601  1  0.243900  0.904800  0.323700  0.7789
  C  C2602  1  0.756100  0.095200  0.676300  0.7789
  C  C2603  1  0.092300  0.789500  0.413200  0.7789
  C  C2604  1  0.907700  0.210500  0.586800  0.7789
  C  C2605  1  0.118400  0.802600  0.404600  0.7789
  C  C2606  1  0.881600  0.197400  0.595400  0.7789
  C  C2607  1  0.131500  0.793700  0.430700  0.7789
  C  C2608  1  0.868500  0.206300  0.569300  0.7789
  C  C2609  1  0.118600  0.771700  0.465400  0.7789
  C  C2610  1  0.881400  0.228300  0.534600  0.7789
  C  C2611  1  0.092600  0.758500  0.474100  0.7789
  C  C2612  1  0.907400  0.241500  0.525900  0.7789
  C  C2613  1  0.190300  0.831800  0.419900  0.7789
  C  C2614  1  0.809700  0.168200  0.580100  0.7789
  C  C2615  1  0.169300  0.809100  0.441700  0.7789
  C  C2616  1  0.830700  0.190900  0.558300  0.7789
  C  C2617  1  0.157000  0.811000  0.416900  0.7789
  C  C2618  1  0.843000  0.189000  0.583100  0.7789
  C  C2619  1  0.091700  0.705400  0.413700  0.7789
  C  C2620  1  0.908300  0.294600  0.586300  0.7789
  C  C2621  1  0.118500  0.675800  0.403700  0.7789
  C  C2622  1  0.881500  0.324200  0.596300  0.7789
  C  C2623  1  0.133400  0.645400  0.428700  0.7789
  C  C2624  1  0.866600  0.354600  0.571300  0.7789
  C  C2625  1  0.121600  0.644700  0.463500  0.7789
  C  C2626  1  0.878400  0.355300  0.536500  0.7789
  C  C2627  1  0.094800  0.674300  0.473500  0.7789
  C  C2628  1  0.905200  0.325700  0.526500  0.7789
  C  C2629  1  0.211000  0.587100  0.295200  0.7789
  C  C2630  1  0.789000  0.412900  0.704800  0.7789
  C  C2631  1  0.199300  0.595700  0.325500  0.7789
  C  C2632  1  0.800700  0.404300  0.674500  0.7789
  C  C2633  1  0.209900  0.569700  0.355000  0.7789
  C  C2634  1  0.790100  0.430300  0.645000  0.7789
  C  C2635  1  0.232100  0.535200  0.354300  0.7789
  C  C2636  1  0.767900  0.464800  0.645700  0.7789
  C  C2637  1  0.243700  0.526600  0.324200  0.7789
  C  C2638  1  0.756300  0.473400  0.675800  0.7789
  C  C2639  1  0.169800  0.580000  0.441800  0.7789
  C  C2640  1  0.830200  0.420000  0.558200  0.7789
  C  C2641  1  0.191900  0.556700  0.421600  0.7789
  C  C2642  1  0.808100  0.443300  0.578400  0.7789
  C  C2643  1  0.187800  0.580100  0.386700  0.7789
  C  C2644  1  0.812200  0.419900  0.613300  0.7789
  C  C2645  1  0.294500  0.587000  0.210900  0.7789
  C  C2646  1  0.705500  0.413000  0.789100  0.7789
  C  C2647  1  0.325000  0.596100  0.196800  0.7789
  C  C2648  1  0.675000  0.403900  0.803200  0.7789
  C  C2649  1  0.355500  0.570500  0.205800  0.7789
  C  C2650  1  0.644500  0.429500  0.794200  0.7789
  C  C2651  1  0.355600  0.535900  0.228500  0.7789
  C  C2652  1  0.644400  0.464100  0.771500  0.7789
  C  C2653  1  0.325200  0.526800  0.242500  0.7789
  C  C2654  1  0.674800  0.473200  0.757500  0.7789
  C  C2655  1  0.413400  0.705100  0.092400  0.7789
  C  C2656  1  0.586600  0.294900  0.907600  0.7789
  C  C2657  1  0.404200  0.674800  0.118400  0.7789
  C  C2658  1  0.595800  0.325200  0.881600  0.7789
  C  C2659  1  0.429700  0.644200  0.132200  0.7789
  C  C2660  1  0.570300  0.355800  0.867800  0.7789
  C  C2661  1  0.464500  0.643900  0.120100  0.7789
  C  C2662  1  0.535500  0.356100  0.879900  0.7789
  C  C2663  1  0.473700  0.674100  0.094200  0.7789
  C  C2664  1  0.526300  0.325900  0.905800  0.7789
  C  C2665  1  0.417300  0.560500  0.195900  0.7789
  C  C2666  1  0.582700  0.439500  0.804100  0.7789
  C  C2667  1  0.440200  0.581300  0.173000  0.7789
  C  C2668  1  0.559800  0.418700  0.827000  0.7789
  C  C2669  1  0.417100  0.613900  0.155100  0.7789
  C  C2670  1  0.582900  0.386100  0.844900  0.7789
  C  C2671  1  0.414100  0.790800  0.092100  0.7789
  C  C2672  1  0.585900  0.209200  0.907900  0.7789
  C  C2673  1  0.406400  0.804600  0.117200  0.7789
  C  C2674  1  0.593600  0.195400  0.882800  0.7789
  C  C2675  1  0.432400  0.794100  0.131300  0.7789
  C  C2676  1  0.567600  0.205900  0.868700  0.7789
  C  C2677  1  0.466200  0.769800  0.120100  0.7789
  C  C2678  1  0.533800  0.230200  0.879900  0.7789
  C  C2679  1  0.473900  0.756000  0.094900  0.7789
  C  C2680  1  0.526100  0.244000  0.905100  0.7789
  C  C2681  1  0.294600  0.908200  0.211700  0.7789
  C  C2682  1  0.705400  0.091800  0.788300  0.7789
  C  C2683  1  0.324600  0.882600  0.197500  0.7789
  C  C2684  1  0.675400  0.117400  0.802500  0.7789
  C  C2685  1  0.355500  0.868200  0.206000  0.7789
  C  C2686  1  0.644500  0.131800  0.794000  0.7789
  C  C2687  1  0.356300  0.879500  0.228700  0.7789
  C  C2688  1  0.643700  0.120500  0.771300  0.7789
  C  C2689  1  0.326300  0.905100  0.243000  0.7789
  C  C2690  1  0.673700  0.094900  0.757000  0.7789
  C  C2691  1  0.440600  0.809200  0.168000  0.7789
  C  C2692  1  0.559400  0.190800  0.832000  0.7789
  C  C2693  1  0.420200  0.829800  0.190900  0.7789
  C  C2694  1  0.579800  0.170200  0.809100  0.7789
  C  C2695  1  0.385500  0.843100  0.188700  0.7789
  C  C2696  1  0.614500  0.156900  0.811300  0.7789
  C  C2697  1  0.413800  0.092000  0.789200  0.7789
  C  C2698  1  0.586200  0.908000  0.210800  0.7789
  C  C2699  1  0.404600  0.117100  0.803800  0.7789
  C  C2700  1  0.595400  0.882900  0.196200  0.7789
  C  C2701  1  0.430000  0.130900  0.795400  0.7789
  C  C2702  1  0.570000  0.869100  0.204600  0.7789
  C  C2703  1  0.464600  0.119600  0.772500  0.7789
  C  C2704  1  0.535400  0.880400  0.227500  0.7789
  C  C2705  1  0.473800  0.094500  0.757900  0.7789
  C  C2706  1  0.526200  0.905500  0.242100  0.7789
  C  C2707  1  0.294100  0.211700  0.909600  0.7789
  C  C2708  1  0.705900  0.788300  0.090400  0.7789
  C  C2709  1  0.323300  0.196800  0.884000  0.7789
  C  C2710  1  0.676700  0.803200  0.116000  0.7789
  C  C2711  1  0.354900  0.204200  0.868800  0.7789
  C  C2712  1  0.645100  0.795800  0.131200  0.7789
  C  C2713  1  0.357400  0.226600  0.879200  0.7789
  C  C2714  1  0.642600  0.773400  0.120800  0.7789
  C  C2715  1  0.328200  0.241500  0.904900  0.7789
  C  C2716  1  0.671800  0.758500  0.095100  0.7789
  C  C2717  1  0.442400  0.169000  0.808200  0.7789
  C  C2718  1  0.557600  0.831000  0.191800  0.7789
  C  C2719  1  0.421400  0.191900  0.828700  0.7789
  C  C2720  1  0.578600  0.808100  0.171300  0.7789
  C  C2721  1  0.386500  0.189100  0.842300  0.7789
  C  C2722  1  0.613500  0.810900  0.157700  0.7789
  C  C2723  1  0.413200  0.092700  0.704500  0.7789
  C  C2724  1  0.586800  0.907300  0.295500  0.7789
  C  C2725  1  0.404700  0.118700  0.673900  0.7789
  C  C2726  1  0.595300  0.881300  0.326100  0.7789
  C  C2727  1  0.430700  0.132300  0.643800  0.7789
  C  C2728  1  0.569300  0.867700  0.356200  0.7789
  C  C2729  1  0.465200  0.119900  0.644300  0.7789
  C  C2730  1  0.534800  0.880100  0.355700  0.7789
  C  C2731  1  0.473700  0.093900  0.674900  0.7789
  C  C2732  1  0.526300  0.906100  0.325100  0.7789
  C  C2733  1  0.294200  0.211200  0.586000  0.7789
  C  C2734  1  0.705800  0.788800  0.414000  0.7789
  C  C2735  1  0.324100  0.198000  0.595700  0.7789
  C  C2736  1  0.675900  0.802000  0.404300  0.7789
  C  C2737  1  0.354300  0.207700  0.570800  0.7789
  C  C2738  1  0.645700  0.792300  0.429200  0.7789
  C  C2739  1  0.354600  0.230600  0.536100  0.7789
  C  C2740  1  0.645400  0.769400  0.463900  0.7789
  C  C2741  1  0.324700  0.243800  0.526500  0.7789
  C  C2742  1  0.675300  0.756200  0.473500  0.7789
  C  C2743  1  0.439000  0.171600  0.579800  0.7789
  C  C2744  1  0.561000  0.828400  0.420200  0.7789
  C  C2745  1  0.418200  0.195700  0.557100  0.7789
  C  C2746  1  0.581800  0.804300  0.442900  0.7789
  C  C2747  1  0.385400  0.188800  0.581700  0.7789
  C  C2748  1  0.614600  0.811200  0.418300  0.7789
  C  C2749  1  0.211400  0.295100  0.585800  0.7789
  C  C2750  1  0.788600  0.704900  0.414200  0.7789
  C  C2751  1  0.196700  0.325500  0.595100  0.7789
  C  C2752  1  0.803300  0.674500  0.404900  0.7789
  C  C2753  1  0.204900  0.356400  0.569700  0.7789
  C  C2754  1  0.795100  0.643600  0.430300  0.7789
  C  C2755  1  0.227800  0.356900  0.535100  0.7789
  C  C2756  1  0.772200  0.643100  0.464900  0.7789
  C  C2757  1  0.242600  0.326500  0.525700  0.7789
  C  C2758  1  0.757400  0.673500  0.474300  0.7789
  C  C2759  1  0.090700  0.415500  0.705100  0.7789
  C  C2760  1  0.909300  0.584500  0.294900  0.7789
  C  C2761  1  0.115500  0.405400  0.675100  0.7789
  C  C2762  1  0.884500  0.594600  0.324900  0.7789
  C  C2763  1  0.130100  0.430100  0.644000  0.7789
  C  C2764  1  0.869900  0.569900  0.356000  0.7789
  C  C2765  1  0.119800  0.464800  0.642900  0.7789
  C  C2766  1  0.880200  0.535200  0.357100  0.7789
  C  C2767  1  0.095000  0.474800  0.672900  0.7789
  C  C2768  1  0.905000  0.525200  0.327100  0.7789
  C  C2769  1  0.190100  0.421700  0.556600  0.7789
  C  C2770  1  0.809900  0.578300  0.443400  0.7789
  C  C2771  1  0.169900  0.443200  0.579000  0.7789
  C  C2772  1  0.830100  0.556800  0.421000  0.7789
  C  C2773  1  0.155600  0.419000  0.613100  0.7789
  C  C2774  1  0.844400  0.581000  0.386900  0.7789
  C  C2775  1  0.091700  0.413800  0.789700  0.7789
  C  C2776  1  0.908300  0.586200  0.210300  0.7789
  C  C2777  1  0.117800  0.404800  0.802900  0.7789
  C  C2778  1  0.882200  0.595200  0.197100  0.7789
  C  C2779  1  0.132100  0.430300  0.793200  0.7789
  C  C2780  1  0.867900  0.569700  0.206800  0.7789
  C  C2781  1  0.120200  0.464900  0.770400  0.7789
  C  C2782  1  0.879800  0.535100  0.229600  0.7789
  C  C2783  1  0.094000  0.473900  0.757300  0.7789
  C  C2784  1  0.906000  0.526100  0.242700  0.7789
  C  C2785  1  0.209800  0.295400  0.907000  0.7789
  C  C2786  1  0.790200  0.704600  0.093000  0.7789
  C  C2787  1  0.196900  0.326000  0.881000  0.7789
  C  C2788  1  0.803100  0.674000  0.119000  0.7789
  C  C2789  1  0.206900  0.355900  0.867100  0.7789
  C  C2790  1  0.793100  0.644100  0.132900  0.7789
  C  C2791  1  0.229600  0.355100  0.879600  0.7789
  C  C2792  1  0.770400  0.644900  0.120400  0.7789
  C  C2793  1  0.242400  0.324500  0.905800  0.7789
  C  C2794  1  0.757600  0.675500  0.094200  0.7789
  C  C2795  1  0.170400  0.440800  0.807100  0.7789
  C  C2796  1  0.829600  0.559200  0.192900  0.7789
  C  C2797  1  0.190300  0.420500  0.830900  0.7789
  C  C2798  1  0.809700  0.579500  0.169100  0.7789
  C  C2799  1  0.185100  0.386700  0.846300  0.7789
  C  C2800  1  0.814900  0.613300  0.153700  0.7789
  C  C2801  1  0.789100  0.414300  0.090800  0.7789
  C  C2802  1  0.210900  0.585700  0.909200  0.7789
  C  C2803  1  0.803100  0.404400  0.116700  0.7789
  C  C2804  1  0.196900  0.595600  0.883300  0.7789
  C  C2805  1  0.794200  0.429300  0.131300  0.7789
  C  C2806  1  0.205800  0.570700  0.868700  0.7789
  C  C2807  1  0.771200  0.464100  0.120200  0.7789
  C  C2808  1  0.228800  0.535900  0.879800  0.7789
  C  C2809  1  0.757200  0.473900  0.094500  0.7789
  C  C2810  1  0.242800  0.526100  0.905500  0.7789
  C  C2811  1  0.907400  0.294800  0.211300  0.7789
  C  C2812  1  0.092600  0.705200  0.788700  0.7789
  C  C2813  1  0.881400  0.325000  0.197700  0.7789
  C  C2814  1  0.118600  0.675000  0.802300  0.7789
  C  C2815  1  0.867000  0.355400  0.207000  0.7789
  C  C2816  1  0.133000  0.644600  0.793000  0.7789
  C  C2817  1  0.878600  0.355600  0.229900  0.7789
  C  C2818  1  0.121400  0.644400  0.770100  0.7789
  C  C2819  1  0.904600  0.325500  0.243300  0.7789
  C  C2820  1  0.095400  0.674500  0.756700  0.7789
  C  C2821  1  0.809100  0.442800  0.167900  0.7789
  C  C2822  1  0.190900  0.557200  0.832100  0.7789
  C  C2823  1  0.828500  0.421200  0.191900  0.7789
  C  C2824  1  0.171500  0.578800  0.808100  0.7789
  C  C2825  1  0.845100  0.386900  0.187100  0.7789
  C  C2826  1  0.154900  0.613100  0.812900  0.7789
  C  C2827  1  0.706300  0.413400  0.091600  0.7789
  C  C2828  1  0.293700  0.586600  0.908400  0.7789
  C  C2829  1  0.676000  0.403900  0.116700  0.7789
  C  C2830  1  0.324000  0.596100  0.883300  0.7789
  C  C2831  1  0.645000  0.429300  0.130300  0.7789
  C  C2832  1  0.355000  0.570700  0.869700  0.7789
  C  C2833  1  0.644300  0.464100  0.118800  0.7789
  C  C2834  1  0.355700  0.535900  0.881200  0.7789
  C  C2835  1  0.674500  0.473600  0.093800  0.7789
  C  C2836  1  0.325500  0.526400  0.906200  0.7789
  C  C2837  1  0.585100  0.294400  0.212100  0.7789
  C  C2838  1  0.414900  0.705600  0.787900  0.7789
  C  C2839  1  0.595200  0.324300  0.197700  0.7789
  C  C2840  1  0.404800  0.675700  0.802300  0.7789
  C  C2841  1  0.570300  0.355500  0.205600  0.7789
  C  C2842  1  0.429700  0.644500  0.794400  0.7789
  C  C2843  1  0.535300  0.356700  0.228100  0.7789
  C  C2844  1  0.464700  0.643300  0.771900  0.7789
  C  C2845  1  0.525200  0.326900  0.242400  0.7789
  C  C2846  1  0.474800  0.673100  0.757600  0.7789
  C  C2847  1  0.580900  0.442200  0.170200  0.7789
  C  C2848  1  0.419100  0.557800  0.829800  0.7789
  C  C2849  1  0.560600  0.419300  0.193100  0.7789
  C  C2850  1  0.439400  0.580700  0.806900  0.7789
  C  C2851  1  0.582700  0.385900  0.186300  0.7789
  C  C2852  1  0.417300  0.614100  0.813700  0.7789
  C  C2853  1  0.586100  0.211100  0.294600  0.7789
  C  C2854  1  0.413900  0.788900  0.705400  0.7789
  C  C2855  1  0.595400  0.195900  0.325100  0.7789
  C  C2856  1  0.404600  0.804100  0.674900  0.7789
  C  C2857  1  0.570200  0.204300  0.356000  0.7789
  C  C2858  1  0.429800  0.795700  0.644000  0.7789
  C  C2859  1  0.535800  0.228000  0.356200  0.7789
  C  C2860  1  0.464200  0.772000  0.643800  0.7789
  C  C2861  1  0.526500  0.243200  0.325700  0.7789
  C  C2862  1  0.473500  0.756800  0.674300  0.7789
  C  C2863  1  0.705500  0.090300  0.414200  0.7789
  C  C2864  1  0.294500  0.909700  0.585800  0.7789
  C  C2865  1  0.675100  0.115400  0.404800  0.7789
  C  C2866  1  0.324900  0.884600  0.595200  0.7789
  C  C2867  1  0.644500  0.130000  0.429700  0.7789
  C  C2868  1  0.355500  0.870000  0.570300  0.7789
  C  C2869  1  0.644200  0.119500  0.464200  0.7789
  C  C2870  1  0.355800  0.880500  0.535800  0.7789
  C  C2871  1  0.674500  0.094400  0.473700  0.7789
  C  C2872  1  0.325500  0.905600  0.526300  0.7789
  C  C2873  1  0.556700  0.190200  0.420700  0.7789
  C  C2874  1  0.443300  0.809800  0.579300  0.7789
  C  C2875  1  0.580000  0.172800  0.440600  0.7789
  C  C2876  1  0.420000  0.827200  0.559400  0.7789
  C  C2877  1  0.614200  0.156100  0.417800  0.7789
  C  C2878  1  0.385800  0.843900  0.582200  0.7789
  C  C2879  1  0.789600  0.092600  0.412800  0.7789
  C  C2880  1  0.210400  0.907400  0.587200  0.7789
  C  C2881  1  0.803900  0.117600  0.404500  0.7789
  C  C2882  1  0.196100  0.882400  0.595500  0.7789
  C  C2883  1  0.795200  0.130600  0.430600  0.7789
  C  C2884  1  0.204800  0.869400  0.569400  0.7789
  C  C2885  1  0.772100  0.118700  0.465100  0.7789
  C  C2886  1  0.227900  0.881300  0.534900  0.7789
  C  C2887  1  0.757800  0.093800  0.473300  0.7789
  C  C2888  1  0.242200  0.906200  0.526700  0.7789
  C  C2889  1  0.907300  0.211100  0.294900  0.7789
  C  C2890  1  0.092700  0.788900  0.705100  0.7789
  C  C2891  1  0.881200  0.198000  0.325300  0.7789
  C  C2892  1  0.118800  0.802000  0.674700  0.7789
  C  C2893  1  0.867300  0.207400  0.355500  0.7789
  C  C2894  1  0.132700  0.792600  0.644500  0.7789
  C  C2895  1  0.879500  0.230000  0.355300  0.7789
  C  C2896  1  0.120500  0.770000  0.644700  0.7789
  C  C2897  1  0.905600  0.243200  0.324900  0.7789
  C  C2898  1  0.094400  0.756800  0.675100  0.7789
  C  C2899  1  0.810900  0.165500  0.443300  0.7789
  C  C2900  1  0.189100  0.834500  0.556700  0.7789
  C  C2901  1  0.829600  0.190300  0.421400  0.7789
  C  C2902  1  0.170400  0.809700  0.578600  0.7789
  C  C2903  1  0.843000  0.189200  0.385900  0.7789
  C  C2904  1  0.157000  0.810800  0.614100  0.7789
  N  N2905  1  0.114000  0.840100  0.419300  0.2211
  N  N2906  1  0.886000  0.159900  0.580700  0.2211
  N  N2907  1  0.113300  0.624600  0.420100  0.2211
  N  N2908  1  0.886700  0.375400  0.579900  0.2211
  N  N2909  1  0.119100  0.720800  0.441500  0.2211
  N  N2910  1  0.880900  0.279200  0.558500  0.2211
  N  N2911  1  0.118800  0.737400  0.459600  0.2211
  N  N2912  1  0.881200  0.262600  0.540400  0.2211
  N  N2913  1  0.161300  0.580200  0.373800  0.2211
  N  N2914  1  0.838700  0.419800  0.626200  0.2211
  N  N2915  1  0.372900  0.579200  0.159800  0.2211
  N  N2916  1  0.627100  0.420800  0.840200  0.2211
  N  N2917  1  0.279000  0.563800  0.277900  0.2211
  N  N2918  1  0.721000  0.436200  0.722100  0.2211
  N  N2919  1  0.269100  0.543800  0.313100  0.2211
  N  N2920  1  0.730900  0.456200  0.686900  0.2211
  N  N2921  1  0.422100  0.624200  0.113800  0.2211
  N  N2922  1  0.577900  0.375800  0.886200  0.2211
  N  N2923  1  0.421500  0.839600  0.112400  0.2211
  N  N2924  1  0.578500  0.160400  0.887600  0.2211
  N  N2925  1  0.438500  0.720100  0.121200  0.2211
  N  N2926  1  0.561500  0.279900  0.878800  0.2211
  N  N2927  1  0.457200  0.685200  0.124200  0.2211
  N  N2928  1  0.542800  0.314800  0.875800  0.2211
  N  N2929  1  0.160300  0.886900  0.372700  0.2211
  N  N2930  1  0.839700  0.113100  0.627300  0.2211
  N  N2931  1  0.371500  0.886700  0.160800  0.2211
  N  N2932  1  0.628500  0.113300  0.839200  0.2211
  N  N2933  1  0.279900  0.880400  0.276800  0.2211
  N  N2934  1  0.720100  0.119600  0.723200  0.2211
  N  N2935  1  0.268100  0.874700  0.312200  0.2211
  N  N2936  1  0.731900  0.125300  0.687800  0.2211
  N  N2937  1  0.421700  0.111600  0.841000  0.2211
  N  N2938  1  0.578300  0.888400  0.159000  0.2211
  N  N2939  1  0.422500  0.110800  0.624300  0.2211
  N  N2940  1  0.577500  0.889200  0.375700  0.2211
  N  N2941  1  0.438800  0.120200  0.722200  0.2211
  N  N2942  1  0.561200  0.879800  0.277800  0.2211
  N  N2943  1  0.457000  0.123400  0.736100  0.2211
  N  N2944  1  0.543000  0.876600  0.263900  0.2211
  N  N2945  1  0.369700  0.158900  0.584000  0.2211
  N  N2946  1  0.630300  0.841100  0.416000  0.2211
  N  N2947  1  0.159500  0.375200  0.577200  0.2211
  N  N2948  1  0.840500  0.624800  0.422800  0.2211
  N  N2949  1  0.278300  0.280700  0.561400  0.2211
  N  N2950  1  0.721700  0.719300  0.438600  0.2211
  N  N2951  1  0.313200  0.266100  0.542400  0.2211
  N  N2952  1  0.686800  0.733900  0.457600  0.2211
  N  N2953  1  0.116500  0.421500  0.623000  0.2211
  N  N2954  1  0.883500  0.578500  0.377000  0.2211
  N  N2955  1  0.114400  0.421600  0.839800  0.2211
  N  N2956  1  0.885600  0.578400  0.160200  0.2211
  N  N2957  1  0.119200  0.436800  0.721600  0.2211
  N  N2958  1  0.880800  0.563200  0.278400  0.2211
  N  N2959  1  0.121600  0.457600  0.686700  0.2211
  N  N2960  1  0.878400  0.542400  0.313300  0.2211
  N  N2961  1  0.159900  0.375600  0.887600  0.2211
  N  N2962  1  0.840100  0.624400  0.112400  0.2211
  N  N2963  1  0.375100  0.160800  0.887600  0.2211
  N  N2964  1  0.624900  0.839200  0.112400  0.2211
  N  N2965  1  0.279000  0.280600  0.878100  0.2211
  N  N2966  1  0.721000  0.719400  0.121900  0.2211
  N  N2967  1  0.267400  0.315200  0.876400  0.2211
  N  N2968  1  0.732600  0.684800  0.123600  0.2211
  N  N2969  1  0.842000  0.421800  0.110400  0.2211
  N  N2970  1  0.158000  0.578200  0.889600  0.2211
  N  N2971  1  0.625900  0.421000  0.112500  0.2211
  N  N2972  1  0.374100  0.579000  0.887500  0.2211
  N  N2973  1  0.721000  0.439100  0.117000  0.2211
  N  N2974  1  0.279000  0.560900  0.883000  0.2211
  N  N2975  1  0.735100  0.455000  0.123100  0.2211
  N  N2976  1  0.264900  0.545000  0.876900  0.2211
  N  N2977  1  0.577300  0.374500  0.160900  0.2211
  N  N2978  1  0.422700  0.625500  0.839100  0.2211
  N  N2979  1  0.576200  0.160100  0.375000  0.2211
  N  N2980  1  0.423800  0.839900  0.625000  0.2211
  N  N2981  1  0.559200  0.280000  0.280600  0.2211
  N  N2982  1  0.440800  0.720000  0.719400  0.2211
  N  N2983  1  0.541300  0.315200  0.266600  0.2211
  N  N2984  1  0.458700  0.684800  0.733400  0.2211
  N  N2985  1  0.623200  0.115700  0.421400  0.2211
  N  N2986  1  0.376800  0.884300  0.578600  0.2211
  N  N2987  1  0.841300  0.111700  0.421800  0.2211
  N  N2988  1  0.158700  0.888300  0.578200  0.2211
  N  N2989  1  0.720300  0.117900  0.439800  0.2211
  N  N2990  1  0.279700  0.882100  0.560200  0.2211
  N  N2991  1  0.684600  0.122700  0.457100  0.2211
  N  N2992  1  0.315400  0.877300  0.542900  0.2211
  N  N2993  1  0.882500  0.161100  0.374200  0.2211
  N  N2994  1  0.117500  0.838900  0.625800  0.2211
  N  N2995  1  0.888000  0.374500  0.159500  0.2211
  N  N2996  1  0.112000  0.625500  0.840500  0.2211
  N  N2997  1  0.877700  0.280200  0.278300  0.2211
  N  N2998  1  0.122300  0.719800  0.721700  0.2211
  N  N2999  1  0.876700  0.267200  0.312800  0.2211
  N  N3000  1  0.123300  0.732800  0.687200  0.2211
  N  N3001  1  0.102600  0.944300  0.387000  0.2211
  N  N3002  1  0.897400  0.055700  0.613000  0.2211
  N  N3003  1  0.989200  0.207100  0.284400  0.2211
  N  N3004  1  0.010800  0.792900  0.715600  0.2211
  N  N3005  1  0.060000  0.080000  0.340000  0.2211
  N  N3006  1  0.940000  0.920000  0.660000  0.2211
  N  N3007  1  0.087000  0.051800  0.352200  0.2211
  N  N3008  1  0.913000  0.948200  0.647800  0.2211
  N  N3009  1  0.052300  0.899800  0.433900  0.2211
  N  N3010  1  0.947700  0.100200  0.566100  0.2211
  N  N3011  1  0.795000  0.011300  0.474700  0.2211
  N  N3012  1  0.205000  0.988700  0.525300  0.2211
  N  N3013  1  0.922000  0.938000  0.481000  0.2211
  N  N3014  1  0.078000  0.062000  0.519000  0.2211
  N  N3015  1  0.946200  0.909000  0.496800  0.2211
  N  N3016  1  0.053800  0.091000  0.503200  0.2211
  N  N3017  1  0.054000  0.614600  0.431700  0.2211
  N  N3018  1  0.946000  0.385400  0.568300  0.2211
  N  N3019  1  0.795500  0.718400  0.472200  0.2211
  N  N3020  1  0.204500  0.281600  0.527800  0.2211
  N  N3021  1  0.915000  0.664000  0.482100  0.2211
  N  N3022  1  0.085000  0.336000  0.517900  0.2211
  N  N3023  1  0.946800  0.642000  0.488200  0.2211
  N  N3024  1  0.053200  0.358000  0.511800  0.2211
  N  N3025  1  0.101300  0.563800  0.388600  0.2211
  N  N3026  1  0.898700  0.436200  0.611400  0.2211
  N  N3027  1  0.988600  0.528000  0.279500  0.2211
  N  N3028  1  0.011400  0.472000  0.720500  0.2211
  N  N3029  1  0.065800  0.523000  0.330200  0.2211
  N  N3030  1  0.934200  0.477000  0.669800  0.2211
  N  N3031  1  0.070900  0.511000  0.361700  0.2211
  N  N3032  1  0.929100  0.489000  0.638300  0.2211
  N  N3033  1  0.387600  0.564200  0.103000  0.2211
  N  N3034  1  0.612400  0.435800  0.897000  0.2211
  N  N3035  1  0.278500  0.529000  0.989300  0.2211
  N  N3036  1  0.721500  0.471000  0.010700  0.2211
  N  N3037  1  0.334500  0.524000  0.058500  0.2211
  N  N3038  1  0.665500  0.476000  0.941500  0.2211
  N  N3039  1  0.357000  0.510000  0.077300  0.2211
  N  N3040  1  0.643000  0.490000  0.922700  0.2211
  N  N3041  1  0.432600  0.614400  0.055300  0.2211
  N  N3042  1  0.567400  0.385600  0.944700  0.2211
  N  N3043  1  0.478000  0.715000  0.794600  0.2211
  N  N3044  1  0.522000  0.285000  0.205400  0.2211
  N  N3045  1  0.478000  0.665200  0.917100  0.2211
  N  N3046  1  0.522000  0.334800  0.082900  0.2211
  N  N3047  1  0.490000  0.643000  0.945000  0.2211
  N  N3048  1  0.510000  0.357000  0.055000  0.2211
  N  N3049  1  0.433400  0.898200  0.053400  0.2211
  N  N3050  1  0.566600  0.101800  0.946600  0.2211
  N  N3051  1  0.472900  0.009700  0.798500  0.2211
  N  N3052  1  0.527100  0.990300  0.201500  0.2211
  N  N3053  1  0.480000  0.940000  0.919000  0.2211
  N  N3054  1  0.520000  0.060000  0.081000  0.2211
  N  N3055  1  0.496000  0.917000  0.944000  0.2211
  N  N3056  1  0.504000  0.083000  0.056000  0.2211
  N  N3057  1  0.385500  0.946000  0.104400  0.2211
  N  N3058  1  0.614500  0.054000  0.895600  0.2211
  N  N3059  1  0.283500  0.204700  0.987400  0.2211
  N  N3060  1  0.716500  0.795300  0.012600  0.2211
  N  N3061  1  0.335000  0.085000  0.063000  0.2211
  N  N3062  1  0.665000  0.915000  0.937000  0.2211
  N  N3063  1  0.363000  0.056600  0.073400  0.2211
  N  N3064  1  0.637000  0.943400  0.926600  0.2211
  N  N3065  1  0.387000  0.099800  0.947400  0.2211
  N  N3066  1  0.613000  0.900200  0.052600  0.2211
  N  N3067  1  0.288000  0.982800  0.205200  0.2211
  N  N3068  1  0.712000  0.017200  0.794800  0.2211
  N  N3069  1  0.332000  0.064000  0.085000  0.2211
  N  N3070  1  0.668000  0.936000  0.915000  0.2211
  N  N3071  1  0.348000  0.085000  0.054000  0.2211
  N  N3072  1  0.652000  0.915000  0.946000  0.2211
  N  N3073  1  0.433000  0.055600  0.896400  0.2211
  N  N3074  1  0.567000  0.944400  0.103600  0.2211
  N  N3075  1  0.477000  0.794700  0.011700  0.2211
  N  N3076  1  0.523000  0.205300  0.988300  0.2211
  N  N3077  1  0.482000  0.917000  0.941000  0.2211
  N  N3078  1  0.518000  0.083000  0.059000  0.2211
  N  N3079  1  0.493000  0.946000  0.924000  0.2211
  N  N3080  1  0.507000  0.054000  0.076000  0.2211
  N  N3081  1  0.436000  0.053700  0.611800  0.2211
  N  N3082  1  0.564000  0.946300  0.388200  0.2211
  N  N3083  1  0.478000  0.795700  0.717300  0.2211
  N  N3084  1  0.522000  0.204300  0.282700  0.2211
  N  N3085  1  0.485000  0.914000  0.668000  0.2211
  N  N3086  1  0.515000  0.086000  0.332000  0.2211
  N  N3087  1  0.490000  0.943100  0.638300  0.2211
  N  N3088  1  0.510000  0.056900  0.361700  0.2211
  N  N3089  1  0.387200  0.099400  0.567700  0.2211
  N  N3090  1  0.612800  0.900600  0.432300  0.2211
  N  N3091  1  0.287000  0.984800  0.519000  0.2211
  N  N3092  1  0.713000  0.015200  0.481000  0.2211
  N  N3093  1  0.334000  0.063000  0.522000  0.2211
  N  N3094  1  0.666000  0.937000  0.478000  0.2211
  N  N3095  1  0.359000  0.079000  0.506800  0.2211
  N  N3096  1  0.641000  0.921000  0.493200  0.2211
  N  N3097  1  0.100300  0.387300  0.566000  0.2211
  N  N3098  1  0.899700  0.612700  0.434000  0.2211
  N  N3099  1  0.988800  0.277200  0.529100  0.2211
  N  N3100  1  0.011200  0.722800  0.470900  0.2211
  N  N3101  1  0.059000  0.337000  0.521000  0.2211
  N  N3102  1  0.941000  0.663000  0.479000  0.2211
  N  N3103  1  0.074000  0.362000  0.508500  0.2211
  N  N3104  1  0.926000  0.638000  0.491500  0.2211
  N  N3105  1  0.053300  0.437900  0.609300  0.2211
  N  N3106  1  0.946700  0.562100  0.390700  0.2211
  N  N3107  1  0.792300  0.479000  0.717600  0.2211
  N  N3108  1  0.207700  0.521000  0.282400  0.2211
  N  N3109  1  0.922000  0.481000  0.656000  0.2211
  N  N3110  1  0.078000  0.519000  0.344000  0.2211
  N  N3111  1  0.945400  0.496000  0.646600  0.2211
  N  N3112  1  0.054600  0.504000  0.353400  0.2211
  N  N3113  1  0.052800  0.435000  0.898200  0.2211
  N  N3114  1  0.947200  0.565000  0.101800  0.2211
  N  N3115  1  0.796900  0.474000  0.013100  0.2211
  N  N3116  1  0.203100  0.526000  0.986900  0.2211
  N  N3117  1  0.918000  0.485000  0.932000  0.2211
  N  N3118  1  0.082000  0.515000  0.068000  0.2211
  N  N3119  1  0.946600  0.497000  0.907400  0.2211
  N  N3120  1  0.053400  0.503000  0.092600  0.2211
  N  N3121  1  0.101000  0.386000  0.946000  0.2211
  N  N3122  1  0.899000  0.614000  0.054000  0.2211
  N  N3123  1  0.990600  0.278900  0.204200  0.2211
  N  N3124  1  0.009400  0.721100  0.795800  0.2211
  N  N3125  1  0.068000  0.331000  0.083000  0.2211
  N  N3126  1  0.932000  0.669000  0.917000  0.2211
  N  N3127  1  0.078000  0.360000  0.055000  0.2211
  N  N3128  1  0.922000  0.640000  0.945000  0.2211
  N  N3129  1  0.946600  0.386800  0.102400  0.2211
  N  N3130  1  0.053400  0.613200  0.897600  0.2211
  N  N3131  1  0.205300  0.283100  0.986000  0.2211
  N  N3132  1  0.794700  0.716900  0.014000  0.2211
  N  N3133  1  0.084000  0.336600  0.059400  0.2211
  N  N3134  1  0.916000  0.663400  0.940600  0.2211
  N  N3135  1  0.055100  0.351000  0.084900  0.2211
  N  N3136  1  0.944900  0.649000  0.915100  0.2211
  N  N3137  1  0.897700  0.434000  0.056200  0.2211
  N  N3138  1  0.102300  0.566000  0.943800  0.2211
  N  N3139  1  0.011700  0.471600  0.796400  0.2211
  N  N3140  1  0.988300  0.528400  0.203600  0.2211
  N  N3141  1  0.936000  0.479000  0.919000  0.2211
  N  N3142  1  0.064000  0.521000  0.081000  0.2211
  N  N3143  1  0.927100  0.490000  0.945900  0.2211
  N  N3144  1  0.072900  0.510000  0.054100  0.2211
  N  N3145  1  0.611000  0.437000  0.053500  0.2211
  N  N3146  1  0.389000  0.563000  0.946500  0.2211
  N  N3147  1  0.717300  0.479800  0.792800  0.2211
  N  N3148  1  0.282700  0.520200  0.207200  0.2211
  N  N3149  1  0.666000  0.482000  0.913000  0.2211
  N  N3150  1  0.334000  0.518000  0.087000  0.2211
  N  N3151  1  0.641000  0.492000  0.943000  0.2211
  N  N3152  1  0.359000  0.508000  0.057000  0.2211
  N  N3153  1  0.566100  0.385700  0.101800  0.2211
  N  N3154  1  0.433900  0.614300  0.898200  0.2211
  N  N3155  1  0.520000  0.284600  0.989900  0.2211
  N  N3156  1  0.480000  0.715400  0.010100  0.2211
  N  N3157  1  0.519000  0.336000  0.062000  0.2211
  N  N3158  1  0.481000  0.664000  0.938000  0.2211
  N  N3159  1  0.506000  0.364000  0.074000  0.2211
  N  N3160  1  0.494000  0.636000  0.926000  0.2211
  N  N3161  1  0.564000  0.102500  0.388100  0.2211
  N  N3162  1  0.436000  0.897500  0.611900  0.2211
  N  N3163  1  0.529000  0.985000  0.280100  0.2211
  N  N3164  1  0.471000  0.015000  0.719900  0.2211
  N  N3165  1  0.523000  0.060800  0.332200  0.2211
  N  N3166  1  0.477000  0.939200  0.667800  0.2211
  N  N3167  1  0.513000  0.082000  0.351000  0.2211
  N  N3168  1  0.487000  0.918000  0.649000  0.2211
  N  N3169  1  0.615800  0.053900  0.429200  0.2211
  N  N3170  1  0.384200  0.946100  0.570800  0.2211
  N  N3171  1  0.714900  0.794700  0.476200  0.2211
  N  N3172  1  0.285100  0.205300  0.523800  0.2211
  N  N3173  1  0.660000  0.917000  0.481100  0.2211
  N  N3174  1  0.340000  0.083000  0.518900  0.2211
  N  N3175  1  0.636000  0.945900  0.493100  0.2211
  N  N3176  1  0.364000  0.054100  0.506900  0.2211
  N  N3177  1  0.897400  0.053300  0.435800  0.2211
  N  N3178  1  0.102600  0.946700  0.564200  0.2211
  N  N3179  1  0.013400  0.793400  0.477900  0.2211
  N  N3180  1  0.986600  0.206600  0.522100  0.2211
  N  N3181  1  0.933300  0.916000  0.477700  0.2211
  N  N3182  1  0.066700  0.084000  0.522300  0.2211
  N  N3183  1  0.927300  0.943100  0.487600  0.2211
  N  N3184  1  0.072700  0.056900  0.512400  0.2211
  N  N3185  1  0.946000  0.099700  0.389300  0.2211
  N  N3186  1  0.054000  0.900300  0.610700  0.2211
  N  N3187  1  0.208800  0.988100  0.285100  0.2211
  N  N3188  1  0.791200  0.011900  0.714900  0.2211
  N  N3189  1  0.080000  0.058000  0.340000  0.2211
  N  N3190  1  0.920000  0.942000  0.660000  0.2211
  N  N3191  1  0.055100  0.069400  0.367500  0.2211
  N  N3192  1  0.944900  0.930600  0.632500  0.2211
  N  N3193  1  0.269200  0.997700  0.212700  0.5578
  N  N3194  1  0.730800  0.002300  0.787300  0.5578
  N  N3195  1  0.269100  0.215700  0.997900  0.5578
  N  N3196  1  0.730900  0.784300  0.002100  0.5578
  N  N3197  1  0.292300  0.100200  0.103000  0.5578
  N  N3198  1  0.707700  0.899800  0.897000  0.5578
  N  N3199  1  0.307000  0.081600  0.130000  0.5578
  N  N3200  1  0.693000  0.918400  0.870000  0.5578
  N  N3201  1  0.214100  0.269100  0.999100  0.5578
  N  N3202  1  0.785900  0.730900  0.000900  0.5578
  N  N3203  1  0.996800  0.269400  0.214500  0.5578
  N  N3204  1  0.003200  0.730600  0.785500  0.5578
  N  N3205  1  0.100700  0.294400  0.102000  0.5578
  N  N3206  1  0.899300  0.705600  0.898000  0.5578
  N  N3207  1  0.128600  0.307600  0.081100  0.5578
  N  N3208  1  0.871400  0.692400  0.918900  0.5578
  N  N3209  1  0.998300  0.214000  0.266200  0.5578
  N  N3210  1  0.001700  0.786000  0.733800  0.5578
  N  N3211  1  0.213400  0.997800  0.267400  0.5578
  N  N3212  1  0.786600  0.002200  0.732600  0.5578
  N  N3213  1  0.102900  0.100300  0.291100  0.5578
  N  N3214  1  0.897100  0.899700  0.708900  0.5578
  N  N3215  1  0.081300  0.128400  0.304600  0.5578
  N  N3216  1  0.918700  0.871600  0.695400  0.5578
  N  N3217  1  0.482600  0.785000  0.002500  0.5578
  N  N3218  1  0.517400  0.215000  0.997500  0.5578
  N  N3219  1  0.481900  0.001600  0.784400  0.5578
  N  N3220  1  0.518100  0.998400  0.215600  0.5578
  N  N3221  1  0.496900  0.899200  0.898500  0.5578
  N  N3222  1  0.503100  0.100800  0.101500  0.5578
  N  N3223  1  0.516700  0.871000  0.920400  0.5578
  N  N3224  1  0.483300  0.129000  0.079600  0.5578
  N  N3225  1  0.001700  0.484700  0.785000  0.5578
  N  N3226  1  0.998300  0.515300  0.215000  0.5578
  N  N3227  1  0.785600  0.480800  0.004000  0.5578
  N  N3228  1  0.214400  0.519200  0.996000  0.5578
  N  N3229  1  0.897900  0.493600  0.898600  0.5578
  N  N3230  1  0.102100  0.506400  0.101400  0.5578
  N  N3231  1  0.916600  0.516000  0.871600  0.5578
  N  N3232  1  0.083400  0.484000  0.128400  0.5578
  N  N3233  1  0.786800  0.002300  0.481000  0.5578
  N  N3234  1  0.213200  0.997700  0.519000  0.5578
  N  N3235  1  0.002500  0.786200  0.480300  0.5578
  N  N3236  1  0.997500  0.213800  0.519700  0.5578
  N  N3237  1  0.899000  0.896400  0.493900  0.5578
  N  N3238  1  0.101000  0.103600  0.506100  0.5578
  N  N3239  1  0.873400  0.918500  0.513400  0.5578
  N  N3240  1  0.126600  0.081500  0.486600  0.5578
  N  N3241  1  0.000800  0.729100  0.483500  0.5578
  N  N3242  1  0.999200  0.270900  0.516500  0.5578
  N  N3243  1  0.786100  0.729400  0.482500  0.5578
  N  N3244  1  0.213900  0.270600  0.517500  0.5578
  N  N3245  1  0.900700  0.708500  0.491400  0.5578
  N  N3246  1  0.099300  0.291500  0.508600  0.5578
  N  N3247  1  0.917000  0.693400  0.516500  0.5578
  N  N3248  1  0.083000  0.306600  0.483500  0.5578
  N  N3249  1  0.213700  0.519900  0.267700  0.5578
  N  N3250  1  0.786300  0.480100  0.732300  0.5578
  N  N3251  1  0.996500  0.517000  0.271700  0.5578
  N  N3252  1  0.003500  0.483000  0.728300  0.5578
  N  N3253  1  0.101700  0.505000  0.291500  0.5578
  N  N3254  1  0.898300  0.495000  0.708500  0.5578
  N  N3255  1  0.129400  0.482800  0.305400  0.5578
  N  N3256  1  0.870600  0.517200  0.694600  0.5578
  N  N3257  1  0.269000  0.517500  0.215000  0.5578
  N  N3258  1  0.731000  0.482500  0.785000  0.5578
  N  N3259  1  0.271900  0.516500  0.997000  0.5578
  N  N3260  1  0.728100  0.483500  0.003000  0.5578
  N  N3261  1  0.290800  0.503000  0.102800  0.5578
  N  N3262  1  0.709200  0.497000  0.897200  0.5578
  N  N3263  1  0.306400  0.482600  0.129100  0.5578
  N  N3264  1  0.693600  0.517400  0.870900  0.5578
  N  N3265  1  0.479100  0.732500  0.002000  0.5578
  N  N3266  1  0.520900  0.267500  0.998000  0.5578
  N  N3267  1  0.481400  0.730600  0.786200  0.5578
  N  N3268  1  0.518600  0.269400  0.213800  0.5578
  N  N3269  1  0.495400  0.709300  0.898300  0.5578
  N  N3270  1  0.504600  0.290700  0.101700  0.5578
  N  N3271  1  0.516500  0.693800  0.919100  0.5578
  N  N3272  1  0.483500  0.306200  0.080900  0.5578
  N  N3273  1  0.482000  0.002000  0.730500  0.5578
  N  N3274  1  0.518000  0.998000  0.269500  0.5578
  N  N3275  1  0.481200  0.784900  0.730700  0.5578
  N  N3276  1  0.518800  0.215100  0.269300  0.5578
  N  N3277  1  0.495200  0.898900  0.707300  0.5578
  N  N3278  1  0.504800  0.101100  0.292700  0.5578
  N  N3279  1  0.516400  0.919500  0.692500  0.5578
  N  N3280  1  0.483600  0.080500  0.307500  0.5578
  N  N3281  1  0.270100  0.213800  0.518700  0.5578
  N  N3282  1  0.729900  0.786200  0.481300  0.5578
  N  N3283  1  0.267400  0.997200  0.522000  0.5578
  N  N3284  1  0.732600  0.002800  0.478000  0.5578
  N  N3285  1  0.290800  0.101700  0.504800  0.5578
  N  N3286  1  0.709200  0.898300  0.495200  0.5578
  N  N3287  1  0.304300  0.129600  0.483200  0.5578
  N  N3288  1  0.695700  0.870400  0.516800  0.5578
  N  N3289  1  0.232400  0.919300  0.294700  0.7789
  N  N3290  1  0.767600  0.080700  0.705300  0.7789
  N  N3291  1  0.079500  0.767400  0.447900  0.7789
  N  N3292  1  0.920500  0.232600  0.552100  0.7789
  N  N3293  1  0.164700  0.836200  0.384300  0.7789
  N  N3294  1  0.835300  0.163800  0.615700  0.7789
  N  N3295  1  0.186200  0.847900  0.386300  0.7789
  N  N3296  1  0.813800  0.152100  0.613700  0.7789
  N  N3297  1  0.079900  0.704600  0.448600  0.7789
  N  N3298  1  0.920100  0.295400  0.551400  0.7789
  N  N3299  1  0.233200  0.552500  0.294700  0.7789
  N  N3300  1  0.766800  0.447500  0.705300  0.7789
  N  N3301  1  0.165500  0.614000  0.385300  0.7789
  N  N3302  1  0.834500  0.386000  0.614700  0.7789
  N  N3303  1  0.154200  0.613700  0.419800  0.7789
  N  N3304  1  0.845800  0.386300  0.580200  0.7789
  N  N3305  1  0.294600  0.552400  0.233700  0.7789
  N  N3306  1  0.705400  0.447600  0.766300  0.7789
  N  N3307  1  0.448200  0.704700  0.080400  0.7789
  N  N3308  1  0.551800  0.295300  0.919600  0.7789
  N  N3309  1  0.382700  0.616300  0.165700  0.7789
  N  N3310  1  0.617300  0.383700  0.834300  0.7789
  N  N3311  1  0.384400  0.582300  0.190800  0.7789
  N  N3312  1  0.615600  0.417700  0.809200  0.7789
  N  N3313  1  0.447800  0.766500  0.081000  0.7789
  N  N3314  1  0.552200  0.233500  0.919000  0.7789
  N  N3315  1  0.295500  0.919500  0.234400  0.7789
  N  N3316  1  0.704500  0.080500  0.765600  0.7789
  N  N3317  1  0.381900  0.835900  0.165500  0.7789
  N  N3318  1  0.618100  0.164100  0.834500  0.7789
  N  N3319  1  0.416800  0.814300  0.153800  0.7789
  N  N3320  1  0.583200  0.185700  0.846200  0.7789
  N  N3321  1  0.448400  0.080700  0.766300  0.7789
  N  N3322  1  0.551600  0.919300  0.233700  0.7789
  N  N3323  1  0.296600  0.234100  0.920000  0.7789
  N  N3324  1  0.703400  0.765900  0.080000  0.7789
  N  N3325  1  0.383900  0.165500  0.834000  0.7789
  N  N3326  1  0.616100  0.834500  0.166000  0.7789
  N  N3327  1  0.419400  0.154600  0.812600  0.7789
  N  N3328  1  0.580600  0.845400  0.187400  0.7789
  N  N3329  1  0.447700  0.080300  0.705000  0.7789
  N  N3330  1  0.552300  0.919700  0.295000  0.7789
  N  N3331  1  0.294500  0.234100  0.551400  0.7789
  N  N3332  1  0.705500  0.765900  0.448600  0.7789
  N  N3333  1  0.384000  0.165300  0.615100  0.7789
  N  N3334  1  0.616000  0.834700  0.384900  0.7789
  N  N3335  1  0.418900  0.154200  0.613500  0.7789
  N  N3336  1  0.581100  0.845800  0.386500  0.7789
  N  N3337  1  0.234400  0.295500  0.551200  0.7789
  N  N3338  1  0.765600  0.704500  0.448800  0.7789
  N  N3339  1  0.080400  0.450200  0.704000  0.7789
  N  N3340  1  0.919600  0.549800  0.296000  0.7789
  N  N3341  1  0.166400  0.384400  0.614900  0.7789
  N  N3342  1  0.833600  0.615600  0.385100  0.7789
  N  N3343  1  0.187400  0.387700  0.579000  0.7789
  N  N3344  1  0.812600  0.612300  0.421000  0.7789
  N  N3345  1  0.079800  0.448400  0.766800  0.7789
  N  N3346  1  0.920200  0.551600  0.233200  0.7789
  N  N3347  1  0.232500  0.294700  0.919500  0.7789
  N  N3348  1  0.767500  0.705300  0.080500  0.7789
  N  N3349  1  0.165300  0.383600  0.834300  0.7789
  N  N3350  1  0.834700  0.616400  0.165700  0.7789
  N  N3351  1  0.156500  0.417700  0.810300  0.7789
  N  N3352  1  0.843500  0.582300  0.189700  0.7789
  N  N3353  1  0.766100  0.449000  0.079800  0.7789
  N  N3354  1  0.233900  0.551000  0.920200  0.7789
  N  N3355  1  0.919000  0.295100  0.234100  0.7789
  N  N3356  1  0.081000  0.704900  0.765900  0.7789
  N  N3357  1  0.836400  0.386200  0.163100  0.7789
  N  N3358  1  0.163600  0.613800  0.836900  0.7789
  N  N3359  1  0.814300  0.421200  0.151300  0.7789
  N  N3360  1  0.185700  0.578800  0.848700  0.7789
  N  N3361  1  0.705600  0.448300  0.080100  0.7789
  N  N3362  1  0.294400  0.551700  0.919900  0.7789
  N  N3363  1  0.550100  0.295700  0.234500  0.7789
  N  N3364  1  0.449900  0.704300  0.765500  0.7789
  N  N3365  1  0.616400  0.385100  0.163400  0.7789
  N  N3366  1  0.383600  0.614900  0.836600  0.7789
  N  N3367  1  0.613800  0.420700  0.153300  0.7789
  N  N3368  1  0.386200  0.579300  0.846700  0.7789
  N  N3369  1  0.551700  0.234800  0.294800  0.7789
  N  N3370  1  0.448300  0.765200  0.705200  0.7789
  N  N3371  1  0.705100  0.079800  0.448700  0.7789
  N  N3372  1  0.294900  0.920200  0.551300  0.7789
  N  N3373  1  0.614400  0.164900  0.384200  0.7789
  N  N3374  1  0.385600  0.835100  0.615800  0.7789
  N  N3375  1  0.578400  0.185100  0.387600  0.7789
  N  N3376  1  0.421600  0.814900  0.612400  0.7789
  N  N3377  1  0.766600  0.080700  0.447100  0.7789
  N  N3378  1  0.233400  0.919300  0.552900  0.7789
  N  N3379  1  0.919500  0.233700  0.294800  0.7789
  N  N3380  1  0.080500  0.766300  0.705200  0.7789
  N  N3381  1  0.833800  0.166500  0.383500  0.7789
  N  N3382  1  0.166200  0.833500  0.616500  0.7789
  N  N3383  1  0.814100  0.152700  0.419300  0.7789
  N  N3384  1  0.185900  0.847300  0.580700  0.7789
  O  O3385  1  0.033000  0.601000  0.401000  0.1
  O  O3386  1  0.967000  0.399000  0.599000  0.1
  O  O3387  1  0.405000  0.009000  0.595000  0.2
  O  O3388  1  0.595000  0.991000  0.405000  0.2
  O  O3389  1  0.774000  0.568000  0.885000  0.2
  O  O3390  1  0.226000  0.432000  0.115000  0.2
  O  O3391  1  0.924000  0.774000  0.622000  0.2
  O  O3392  1  0.076000  0.226000  0.378000  0.2
  O  O3393  1  0.768000  0.964000  0.671000  0.2
  O  O3394  1  0.232000  0.036000  0.329000  0.2
  O  O3395  1  0.755000  0.786000  0.566000  0.2
  O  O3396  1  0.245000  0.214000  0.434000  0.2
  O  O3397  1  0.893000  0.580000  0.769000  0.2
  O  O3398  1  0.107000  0.420000  0.231000  0.2
  O  O3399  1  0.669000  0.668000  0.725000  0.2
  O  O3400  1  0.331000  0.332000  0.275000  0.2
  O  O3401  1  0.005000  0.422000  0.996000  0.2
  O  O3402  1  0.995000  0.578000  0.004000  0.2
  O  O3403  1  0.923000  0.579000  0.793000  0.2
  O  O3404  1  0.077000  0.421000  0.207000  0.2
  O  O3405  1  0.929000  0.671000  0.738000  0.2
  O  O3406  1  0.071000  0.329000  0.262000  0.2
  O  O3407  1  0.596000  0.667000  0.759000  0.2
  O  O3408  1  0.404000  0.333000  0.241000  0.2
  O  O3409  1  0.976000  0.764000  0.594000  0.4
  O  O3410  1  0.024000  0.236000  0.406000  0.4
  O  O3411  1  0.183000  0.387600  0.382700  0.4
  O  O3412  1  0.817000  0.612400  0.617300  0.4
  O  O3413  1  0.262000  0.838000  0.436000  0.4
  O  O3414  1  0.738000  0.162000  0.564000  0.4
  O  O3415  1  0.372600  0.200100  0.056700  0.4
  O  O3416  1  0.627400  0.799900  0.943300  0.4
  O  O3417  1  0.260000  0.848000  0.454000  0.4
  O  O3418  1  0.740000  0.152000  0.546000  0.4
  O  O3419  1  0.360000  0.068000  0.214000  0.4
  O  O3420  1  0.640000  0.932000  0.786000  0.4
  O  O3421  1  0.656000  0.638000  0.778000  0.4
  O  O3422  1  0.344000  0.362000  0.222000  0.4
  O  O3423  1  0.784000  0.931000  0.640000  0.4
  O  O3424  1  0.216000  0.069000  0.360000  0.4
  O  O3425  1  0.198300  0.374700  0.054700  0.5
  O  O3426  1  0.801700  0.625300  0.945300  0.5
  O  O3427  1  0.613000  0.957000  0.609000  0.5
  O  O3428  1  0.387000  0.043000  0.391000  0.5
  O  O3429  1  0.812400  0.950300  0.617100  0.5
  O  O3430  1  0.187600  0.049700  0.382900  0.5
  O  O3431  1  0.377900  0.051300  0.190500  0.5
  O  O3432  1  0.622100  0.948700  0.809500  0.5
  O  O3433  1  0.256800  0.447300  0.851500  0.5
  O  O3434  1  0.743200  0.552700  0.148500  0.5
  O  O3435  1  0.626800  0.629900  0.941200  0.5
  O  O3436  1  0.373200  0.370100  0.058800  0.5
  O  O3437  1  0.445500  0.260300  0.848100  0.5
  O  O3438  1  0.554500  0.739700  0.151900  0.5
  O  O3439  1  0.949000  0.617500  0.814900  0.5
  O  O3440  1  0.051000  0.382500  0.185100  0.5
  O  O3441  1  0.620300  0.623100  0.809400  0.5
  O  O3442  1  0.379700  0.376900  0.190600  0.5
  O  O3443  1  0.827500  0.582800  0.003200  0.5
  O  O3444  1  0.172500  0.417200  0.996800  0.5
  O  O3445  1  0.001900  0.829900  0.585700  0.5
  O  O3446  1  0.998100  0.170100  0.414300  0.5
  O  O3447  1  0.583900  0.584600  0.001800  0.5
  O  O3448  1  0.416100  0.415400  0.998200  0.5
  O  O3449  1  0.583500  0.999100  0.586000  0.5
  O  O3450  1  0.416500  0.000900  0.414000  0.5
  O  O3451  1  0.580600  0.830300  0.581700  0.5
  O  O3452  1  0.419400  0.169700  0.418300  0.5
  O  O3453  1  0.583400  0.002900  0.828000  0.5
  O  O3454  1  0.416600  0.997100  0.172000  0.5
  O  O3455  1  0.947000  0.814100  0.617900  0.5
  O  O3456  1  0.053000  0.185900  0.382100  0.5
  O  O3457  1  0.831600  0.998300  0.586600  0.5
  O  O3458  1  0.168400  0.001700  0.413400  0.5
  O  O3459  1  0.151100  0.550700  0.739700  0.5
  O  O3460  1  0.848900  0.449300  0.260300  0.5
  O  O3461  1  0.211000  0.362000  0.363000  0.5
  O  O3462  1  0.789000  0.638000  0.637000  0.5
  O  O3463  1  0.631000  0.938000  0.637000  0.5
  O  O3464  1  0.369000  0.062000  0.363000  0.5
  O  O3465  1  0.000200  0.585500  0.832500  0.5
  O  O3466  1  0.999800  0.414500  0.167500  0.5
  O  O3467  1  0.347000  0.234000  0.078000  0.5
  O  O3468  1  0.653000  0.766000  0.922000  0.5
  O  O3469  1  0.930000  0.777000  0.651000  0.5
  O  O3470  1  0.070000  0.223000  0.349000  0.5
  O  O3471  1  0.637700  0.793600  0.634100  0.5
  O  O3472  1  0.362300  0.206400  0.365900  0.5
  O  O3473  1  0.396000  0.235000  0.048000  0.3
  O  O3474  1  0.604000  0.765000  0.952000  0.3
  O  O3475  1  0.319000  0.066000  0.227000  0.3
  O  O3476  1  0.681000  0.934000  0.773000  0.3
  O  O3477  1  0.562000  0.048000  0.808000  0.3
  O  O3478  1  0.438000  0.952000  0.192000  0.3
  O  O3479  1  0.231000  0.403000  0.336000  0.3
  O  O3480  1  0.769000  0.597000  0.664000  0.3
  O  O3481  1  0.772000  0.751000  0.588000  0.3
  O  O3482  1  0.228000  0.249000  0.412000  0.3
  O  O3483  1  0.667000  0.739000  0.668000  0.3
  O  O3484  1  0.333000  0.261000  0.332000  0.3
  O  O3485  1  0.662000  0.659000  0.927000  0.3
  O  O3486  1  0.338000  0.341000  0.073000  0.3
  O  O3487  1  0.665000  0.603000  0.753000  0.3
  O  O3488  1  0.335000  0.397000  0.247000  0.3
  O  O3489  1  0.328000  0.084000  0.249000  0.3
  O  O3490  1  0.672000  0.916000  0.751000  0.3
  O  O3491  1  0.705000  0.774000  0.608000  0.3
  O  O3492  1  0.295000  0.226000  0.392000  0.3
  O  O3493  1  0.930000  0.635000  0.784000  0.3
  O  O3494  1  0.070000  0.365000  0.216000  0.3
  O  O3495  1  0.255000  0.874000  0.436000  0.3
  O  O3496  1  0.745000  0.126000  0.564000  0.3
  O  O3497  1  0.441700  0.257800  0.449800  0.6
  O  O3498  1  0.558300  0.742200  0.550200  0.6
  O  O3499  1  0.259000  0.445900  0.442600  0.6
  O  O3500  1  0.741000  0.554100  0.557400  0.6
  O  O3501  1  0.553000  0.150100  0.742000  0.6
  O  O3502  1  0.447000  0.849900  0.258000  0.6
  O  O3503  1  0.445400  0.446600  0.259100  0.6
  O  O3504  1  0.554600  0.553400  0.740900  0.6
  O  O3505  1  0.153100  0.738200  0.552400  0.6
  O  O3506  1  0.846900  0.261800  0.447600  0.6
  O  O3507  1  0.554900  0.553500  0.150100  0.6
  O  O3508  1  0.445100  0.446500  0.849900  0.6
  O  O3509  1  0.168500  0.417200  0.416100  0.6
  O  O3510  1  0.831500  0.582800  0.583900  0.6
  F  F3511  1  0.126000  0.877000  0.482000  0.1105
  F  F3512  1  0.874000  0.123000  0.518000  0.1105
  F  F3513  1  0.122000  0.921000  0.496000  0.1105
  F  F3514  1  0.878000  0.079000  0.504000  0.1105
  F  F3515  1  0.077400  0.897000  0.527600  0.1105
  F  F3516  1  0.922600  0.103000  0.472400  0.1105
  F  F3517  1  0.132000  0.864000  0.535000  0.1105
  F  F3518  1  0.868000  0.136000  0.465000  0.1105
  F  F3519  1  0.088000  0.923000  0.504000  0.1105
  F  F3520  1  0.912000  0.077000  0.496000  0.1105
  F  F3521  1  0.115000  0.878000  0.545000  0.1105
  F  F3522  1  0.885000  0.122000  0.455000  0.1105
  F  F3523  1  0.106000  0.865000  0.508100  0.1105
  F  F3524  1  0.894000  0.135000  0.491900  0.1105
  F  F3525  1  0.148000  0.892000  0.484000  0.1105
  F  F3526  1  0.852000  0.108000  0.516000  0.1105
  F  F3527  1  0.124000  0.708000  0.303800  0.1105
  F  F3528  1  0.876000  0.292000  0.696200  0.1105
  F  F3529  1  0.095000  0.706000  0.276000  0.1105
  F  F3530  1  0.905000  0.294000  0.724000  0.1105
  F  F3531  1  0.099000  0.665000  0.330000  0.1105
  F  F3532  1  0.901000  0.335000  0.670000  0.1105
  F  F3533  1  0.149000  0.664000  0.280000  0.1105
  F  F3534  1  0.851000  0.336000  0.720000  0.1105
  F  F3535  1  0.081100  0.693000  0.318900  0.1105
  F  F3536  1  0.918900  0.307000  0.681100  0.1105
  F  F3537  1  0.138000  0.683000  0.313000  0.1105
  F  F3538  1  0.862000  0.317000  0.687000  0.1105
  F  F3539  1  0.120000  0.714000  0.264000  0.1105
  F  F3540  1  0.880000  0.286000  0.736000  0.1105
  F  F3541  1  0.130000  0.654000  0.290000  0.1105
  F  F3542  1  0.870000  0.346000  0.710000  0.1105
  F  F3543  1  0.125000  0.505400  0.503600  0.1105
  F  F3544  1  0.875000  0.494600  0.496400  0.1105
  F  F3545  1  0.081100  0.481000  0.544900  0.1105
  F  F3546  1  0.918900  0.519000  0.455100  0.1105
  F  F3547  1  0.132000  0.462000  0.557000  0.1105
  F  F3548  1  0.868000  0.538000  0.443000  0.1105
  F  F3549  1  0.134000  0.447000  0.515000  0.1105
  F  F3550  1  0.866000  0.553000  0.485000  0.1105
  F  F3551  1  0.138000  0.489000  0.495000  0.1105
  F  F3552  1  0.862000  0.511000  0.505000  0.1105
  F  F3553  1  0.100000  0.499000  0.548000  0.1105
  F  F3554  1  0.900000  0.501000  0.452000  0.1105
  F  F3555  1  0.142000  0.443000  0.547000  0.1105
  F  F3556  1  0.858000  0.557000  0.453000  0.1105
  F  F3557  1  0.093000  0.465000  0.530000  0.1105
  F  F3558  1  0.907000  0.535000  0.470000  0.1105
  F  F3559  1  0.531700  0.489000  0.108300  0.1105
  F  F3560  1  0.468300  0.511000  0.891700  0.1105
  F  F3561  1  0.477000  0.533000  0.120000  0.1105
  F  F3562  1  0.523000  0.467000  0.880000  0.1105
  F  F3563  1  0.482000  0.474000  0.153300  0.1105
  F  F3564  1  0.518000  0.526000  0.846700  0.1105
  F  F3565  1  0.507000  0.502000  0.160200  0.1105
  F  F3566  1  0.493000  0.498000  0.839800  0.1105
  F  F3567  1  0.488000  0.498000  0.170000  0.1105
  F  F3568  1  0.512000  0.502000  0.830000  0.1105
  F  F3569  1  0.470400  0.511000  0.125600  0.1105
  F  F3570  1  0.529600  0.489000  0.874400  0.1105
  F  F3571  1  0.519000  0.524000  0.112000  0.1105
  F  F3572  1  0.481000  0.476000  0.888000  0.1105
  F  F3573  1  0.523000  0.465800  0.131900  0.1105
  F  F3574  1  0.477000  0.534200  0.868100  0.1105
  F  F3575  1  0.334000  0.896000  0.089000  0.1105
  F  F3576  1  0.666000  0.104000  0.911000  0.1105
  F  F3577  1  0.286000  0.891000  0.091000  0.1105
  F  F3578  1  0.714000  0.109000  0.909000  0.1105
  F  F3579  1  0.313000  0.850000  0.133000  0.1105
  F  F3580  1  0.687000  0.150000  0.867000  0.1105
  F  F3581  1  0.280000  0.907000  0.134000  0.1105
  F  F3582  1  0.720000  0.093000  0.866000  0.1105
  F  F3583  1  0.318000  0.914000  0.093000  0.1105
  F  F3584  1  0.682000  0.086000  0.907000  0.1105
  F  F3585  1  0.271000  0.898000  0.107000  0.1105
  F  F3586  1  0.729000  0.102000  0.893000  0.1105
  F  F3587  1  0.328000  0.858000  0.097000  0.1105
  F  F3588  1  0.672000  0.142000  0.903000  0.1105
  F  F3589  1  0.299000  0.873000  0.148000  0.1105
  F  F3590  1  0.701000  0.127000  0.852000  0.1105
  F  F3591  1  0.324000  0.089000  0.687000  0.1105
  F  F3592  1  0.676000  0.911000  0.313000  0.1105
  F  F3593  1  0.307000  0.051000  0.746000  0.1105
  F  F3594  1  0.693000  0.949000  0.254000  0.1105
  F  F3595  1  0.366000  0.048000  0.714000  0.1105
  F  F3596  1  0.634000  0.952000  0.286000  0.1105
  F  F3597  1  0.326000  0.096000  0.732000  0.1105
  F  F3598  1  0.674000  0.904000  0.268000  0.1105
  F  F3599  1  0.318000  0.091000  0.690000  0.1105
  F  F3600  1  0.682000  0.909000  0.310000  0.1105
  F  F3601  1  0.303000  0.064000  0.751000  0.1105
  F  F3602  1  0.697000  0.936000  0.249000  0.1105
  F  F3603  1  0.357000  0.039000  0.715000  0.1105
  F  F3604  1  0.643000  0.961000  0.285000  0.1105
  F  F3605  1  0.346000  0.091000  0.720000  0.1105
  F  F3606  1  0.654000  0.909000  0.280000  0.1105
  F  F3607  1  0.846000  0.319000  0.123000  0.1105
  F  F3608  1  0.154000  0.681000  0.877000  0.1105
  F  F3609  1  0.870000  0.345000  0.062000  0.1105
  F  F3610  1  0.130000  0.655000  0.938000  0.1105
  F  F3611  1  0.890000  0.284000  0.088000  0.1105
  F  F3612  1  0.110000  0.716000  0.912000  0.1105
  F  F3613  1  0.904000  0.319000  0.098000  0.1105
  F  F3614  1  0.096000  0.681000  0.902000  0.1105
  F  F3615  1  0.861000  0.302000  0.130000  0.1105
  F  F3616  1  0.139000  0.698000  0.870000  0.1105
  F  F3617  1  0.856000  0.352000  0.080000  0.1105
  F  F3618  1  0.144000  0.648000  0.920000  0.1105
  F  F3619  1  0.882000  0.297000  0.074200  0.1105
  F  F3620  1  0.118000  0.703000  0.925800  0.1105
  F  F3621  1  0.911000  0.316000  0.087000  0.1105
  F  F3622  1  0.089000  0.684000  0.913000  0.1105
  F  F3623  1  0.680000  0.315000  0.097000  0.1105
  F  F3624  1  0.320000  0.685000  0.903000  0.1105
  F  F3625  1  0.672000  0.275000  0.154000  0.1105
  F  F3626  1  0.328000  0.725000  0.846000  0.1105
  F  F3627  1  0.725000  0.261000  0.108000  0.1105
  F  F3628  1  0.275000  0.739000  0.892000  0.1105
  F  F3629  1  0.712000  0.304000  0.129000  0.1105
  F  F3630  1  0.288000  0.696000  0.871000  0.1105
  F  F3631  1  0.680000  0.317000  0.098000  0.1105
  F  F3632  1  0.320000  0.683000  0.902000  0.1105
  F  F3633  1  0.684000  0.261000  0.138000  0.1105
  F  F3634  1  0.316000  0.739000  0.862000  0.1105
  F  F3635  1  0.734000  0.276000  0.105000  0.1105
  F  F3636  1  0.266000  0.724000  0.895000  0.1105
  F  F3637  1  0.691000  0.300000  0.149000  0.1105
  F  F3638  1  0.309000  0.700000  0.851000  0.1105
  F  F3639  1  0.678000  0.092000  0.313000  0.1105
  F  F3640  1  0.322000  0.908000  0.687000  0.1105
  F  F3641  1  0.718000  0.115000  0.259000  0.1105
  F  F3642  1  0.282000  0.885000  0.741000  0.1105
  F  F3643  1  0.698000  0.132000  0.307700  0.1105
  F  F3644  1  0.302000  0.868000  0.692300  0.1105
  F  F3645  1  0.660000  0.151000  0.278000  0.1105
  F  F3646  1  0.340000  0.849000  0.722000  0.1105
  F  F3647  1  0.686000  0.093000  0.320000  0.1105
  F  F3648  1  0.314000  0.907000  0.680000  0.1105
  F  F3649  1  0.724000  0.116000  0.266000  0.1105
  F  F3650  1  0.276000  0.884000  0.734000  0.1105
  F  F3651  1  0.677000  0.153000  0.298000  0.1105
  F  F3652  1  0.323000  0.847000  0.702000  0.1105
  F  F3653  1  0.666000  0.129000  0.273000  0.1105
  F  F3654  1  0.334000  0.871000  0.727000  0.1105
  F  F3655  1  0.525000  0.124000  0.477000  0.1105
  F  F3656  1  0.475000  0.876000  0.523000  0.1105
  F  F3657  1  0.529000  0.101000  0.533700  0.1105
  F  F3658  1  0.471000  0.899000  0.466300  0.1105
  F  F3659  1  0.516000  0.069800  0.517200  0.1105
  F  F3660  1  0.484000  0.930200  0.482800  0.1105
  F  F3661  1  0.474800  0.122800  0.526300  0.1105
  F  F3662  1  0.525200  0.877200  0.473700  0.1105
  F  F3663  1  0.548800  0.096000  0.501200  0.1105
  F  F3664  1  0.451200  0.904000  0.498800  0.1105
  F  F3665  1  0.498000  0.099000  0.551000  0.1105
  F  F3666  1  0.502000  0.901000  0.449000  0.1105
  F  F3667  1  0.504000  0.078900  0.511000  0.1105
  F  F3668  1  0.496000  0.921100  0.489000  0.1105
  F  F3669  1  0.495000  0.138000  0.495300  0.1105
  F  F3670  1  0.505000  0.862000  0.504700  0.1105
  F  F3671  1  0.150000  0.271000  0.670000  0.221
  F  F3672  1  0.850000  0.729000  0.330000  0.221
  F  F3673  1  0.143000  0.303000  0.700000  0.221
  F  F3674  1  0.857000  0.697000  0.300000  0.221
  F  F3675  1  0.112000  0.264000  0.727000  0.221
  F  F3676  1  0.888000  0.736000  0.273000  0.221
  F  F3677  1  0.127000  0.857000  0.310000  0.2211
  F  F3678  1  0.873000  0.143000  0.690000  0.2211
  F  F3679  1  0.141000  0.909000  0.275000  0.2211
  F  F3680  1  0.859000  0.091000  0.725000  0.2211
  F  F3681  1  0.098000  0.902000  0.269000  0.2211
  F  F3682  1  0.902000  0.098000  0.731000  0.2211
  F  F3683  1  0.087100  0.909300  0.320900  0.2211
  F  F3684  1  0.912900  0.090700  0.679100  0.2211
  F  F3685  1  0.263000  0.742000  0.137000  0.2211
  F  F3686  1  0.737000  0.258000  0.863000  0.2211
  F  F3687  1  0.299000  0.696000  0.170000  0.2211
  F  F3688  1  0.701000  0.304000  0.830000  0.2211
  F  F3689  1  0.270000  0.750000  0.179000  0.2211
  F  F3690  1  0.730000  0.250000  0.821000  0.2211
  F  F3691  1  0.317000  0.744000  0.127000  0.2211
  F  F3692  1  0.683000  0.256000  0.873000  0.2211
  F  F3693  1  0.471200  0.876700  0.127300  0.2211
  F  F3694  1  0.528800  0.123300  0.872700  0.2211
  F  F3695  1  0.520400  0.878800  0.126700  0.2211
  F  F3696  1  0.479600  0.121200  0.873300  0.2211
  F  F3697  1  0.501000  0.830800  0.166200  0.2211
  F  F3698  1  0.499000  0.169200  0.833800  0.2211
  F  F3699  1  0.526900  0.838300  0.106500  0.2211
  F  F3700  1  0.473100  0.161700  0.893500  0.2211
  F  F3701  1  0.320200  0.092100  0.907800  0.2211
  F  F3702  1  0.679800  0.907900  0.092200  0.2211
  F  F3703  1  0.267000  0.104000  0.904000  0.2211
  F  F3704  1  0.733000  0.896000  0.096000  0.2211
  F  F3705  1  0.275000  0.145000  0.912000  0.2211
  F  F3706  1  0.725000  0.855000  0.088000  0.2211
  F  F3707  1  0.305000  0.135000  0.858000  0.2211
  F  F3708  1  0.695000  0.865000  0.142000  0.2211
  F  F3709  1  0.404000  0.189000  0.943300  0.2211
  F  F3710  1  0.596000  0.811000  0.056700  0.2211
  F  F3711  1  0.418000  0.172300  0.992100  0.2211
  F  F3712  1  0.582000  0.827700  0.007900  0.2211
  F  F3713  1  0.395000  0.232000  0.962000  0.2211
  F  F3714  1  0.605000  0.768000  0.038000  0.2211
  F  F3715  1  0.452000  0.199000  0.936000  0.2211
  F  F3716  1  0.548000  0.801000  0.064000  0.2211
  F  F3717  1  0.097400  0.316600  0.682500  0.2211
  F  F3718  1  0.902600  0.683400  0.317500  0.2211
  F  F3719  1  0.151900  0.281000  0.891100  0.2211
  F  F3720  1  0.848100  0.719000  0.108900  0.2211
  F  F3721  1  0.111000  0.253000  0.935000  0.2211
  F  F3722  1  0.889000  0.747000  0.065000  0.2211
  F  F3723  1  0.092300  0.314300  0.909400  0.2211
  F  F3724  1  0.907700  0.685700  0.090600  0.2211
  F  F3725  1  0.125000  0.287000  0.947000  0.2211
  F  F3726  1  0.875000  0.713000  0.053000  0.2211
  F  F3727  1  0.102000  0.522000  0.851500  0.2211
  F  F3728  1  0.898000  0.478000  0.148500  0.2211
  F  F3729  1  0.082000  0.508000  0.912000  0.2211
  F  F3730  1  0.918000  0.492000  0.088000  0.2211
  F  F3731  1  0.127000  0.532100  0.877000  0.2211
  F  F3732  1  0.873000  0.467900  0.123000  0.2211
  F  F3733  1  0.137700  0.474500  0.884800  0.2211
  F  F3734  1  0.862300  0.525500  0.115200  0.2211
  F  F3735  1  0.868700  0.500800  0.129500  0.2211
  F  F3736  1  0.131300  0.499200  0.870500  0.2211
  F  F3737  1  0.879000  0.528000  0.152400  0.2211
  F  F3738  1  0.121000  0.472000  0.847600  0.2211
  F  F3739  1  0.869000  0.558700  0.098300  0.2211
  F  F3740  1  0.131000  0.441300  0.901700  0.2211
  F  F3741  1  0.921300  0.512000  0.102700  0.2211
  F  F3742  1  0.078700  0.488000  0.897300  0.2211
  F  F3743  1  0.906600  0.091600  0.316100  0.2211
  F  F3744  1  0.093400  0.908400  0.683900  0.2211
  F  F3745  1  0.864000  0.146300  0.301700  0.2211
  F  F3746  1  0.136000  0.853700  0.698300  0.2211
  F  F3747  1  0.894000  0.113000  0.264000  0.2211
  F  F3748  1  0.106000  0.887000  0.736000  0.2211
  F  F3749  1  0.923000  0.139000  0.269000  0.2211
  F  F3750  1  0.077000  0.861000  0.731000  0.2211
  F  F3751  1  0.866800  0.130200  0.495600  0.2211
  F  F3752  1  0.133200  0.869800  0.504400  0.2211
  F  F3753  1  0.881000  0.127600  0.538500  0.2211
  F  F3754  1  0.119000  0.872400  0.461500  0.2211
  F  F3755  1  0.854000  0.089600  0.552400  0.2211
  F  F3756  1  0.146000  0.910400  0.447600  0.2211
  F  F3757  1  0.912100  0.082200  0.514900  0.2211
  F  F3758  1  0.087900  0.917800  0.485100  0.2211
  F  F3759  1  0.131000  0.544000  0.546200  0.2211
  F  F3760  1  0.869000  0.456000  0.453800  0.2211
  F  F3761  1  0.172100  0.523500  0.572200  0.2211
  F  F3762  1  0.827900  0.476500  0.427800  0.2211
  F  F3763  1  0.122800  0.573000  0.580200  0.2211
  F  F3764  1  0.877200  0.427000  0.419800  0.2211
  F  F3765  1  0.167000  0.576100  0.525900  0.2211
  F  F3766  1  0.833000  0.423900  0.474100  0.2211
  F  F3767  1  0.530300  0.172800  0.572900  0.2211
  F  F3768  1  0.469700  0.827200  0.427100  0.2211
  F  F3769  1  0.533200  0.143000  0.543100  0.2211
  F  F3770  1  0.466800  0.857000  0.456900  0.2211
  F  F3771  1  0.570600  0.116200  0.575200  0.2211
  F  F3772  1  0.429400  0.883800  0.424800  0.2211
  F  F3773  1  0.578800  0.163000  0.523500  0.2211
  F  F3774  1  0.421200  0.837000  0.476500  0.2211
  F  F3775  1  0.053200  0.376300  0.375600  0.2211
  F  F3776  1  0.946800  0.623700  0.624400  0.2211
  F  F3777  1  0.007700  0.411800  0.410100  0.2211
  F  F3778  1  0.992300  0.588200  0.589900  0.2211
  F  F3779  1  0.065000  0.389000  0.410500  0.2211
  F  F3780  1  0.935000  0.611000  0.589500  0.2211
  F  F3781  1  0.051000  0.433200  0.360800  0.2211
  F  F3782  1  0.949000  0.566800  0.639200  0.2211
  F  F3783  1  0.189500  0.997100  0.198800  0.3895
  F  F3784  1  0.810500  0.002900  0.801200  0.3895
  F  F3785  1  0.230500  0.950700  0.177500  0.3895
  F  F3786  1  0.769500  0.049300  0.822500  0.3895
  F  F3787  1  0.181300  0.942700  0.227000  0.3895
  F  F3788  1  0.818700  0.057300  0.773000  0.3895
  F  F3789  1  0.175200  0.978200  0.171600  0.3895
  F  F3790  1  0.824800  0.021800  0.828400  0.3895
  F  F3791  1  0.213200  0.962400  0.213200  0.3895
  F  F3792  1  0.786800  0.037600  0.786800  0.3895
  F  F3793  1  0.200300  0.934100  0.194100  0.3895
  F  F3794  1  0.799700  0.065900  0.805900  0.3895
  F  F3795  1  0.157500  0.983600  0.210000  0.3895
  F  F3796  1  0.842500  0.016400  0.790000  0.3895
  F  F3797  1  0.205400  0.989700  0.158800  0.3895
  F  F3798  1  0.794600  0.010300  0.841200  0.3895
  F  F3799  1  0.303600  0.942300  0.292400  0.3895
  F  F3800  1  0.696400  0.057700  0.707600  0.3895
  F  F3801  1  0.342100  0.922900  0.321600  0.3895
  F  F3802  1  0.657900  0.077100  0.678400  0.3895
  F  F3803  1  0.282000  0.949000  0.346300  0.3895
  F  F3804  1  0.718000  0.051000  0.653700  0.3895
  F  F3805  1  0.315400  0.982700  0.296600  0.3895
  F  F3806  1  0.684600  0.017300  0.703400  0.3895
  F  F3807  1  0.287500  0.955500  0.299400  0.3895
  F  F3808  1  0.712500  0.044500  0.700600  0.3895
  F  F3809  1  0.316400  0.915000  0.340400  0.3895
  F  F3810  1  0.683600  0.085000  0.659600  0.3895
  F  F3811  1  0.298700  0.974700  0.329400  0.3895
  F  F3812  1  0.701300  0.025300  0.670600  0.3895
  F  F3813  1  0.344300  0.950400  0.286600  0.3895
  F  F3814  1  0.655700  0.049600  0.713400  0.3895
  F  F3815  1  0.221900  0.191800  0.933700  0.3895
  F  F3816  1  0.778100  0.808200  0.066300  0.3895
  F  F3817  1  0.168400  0.226600  0.962800  0.3895
  F  F3818  1  0.831600  0.773400  0.037200  0.3895
  F  F3819  1  0.211600  0.188600  0.989400  0.3895
  F  F3820  1  0.788400  0.811400  0.010600  0.3895
  F  F3821  1  0.181800  0.165800  0.982600  0.3895
  F  F3822  1  0.818200  0.834200  0.017400  0.3895
  F  F3823  1  0.212900  0.215500  0.960400  0.3895
  F  F3824  1  0.787100  0.784500  0.039600  0.3895
  F  F3825  1  0.179500  0.209500  0.941100  0.3895
  F  F3826  1  0.820500  0.790500  0.058900  0.3895
  F  F3827  1  0.169600  0.190000  0.001100  0.3895
  F  F3828  1  0.830400  0.810000  0.998900  0.3895
  F  F3829  1  0.221100  0.160100  0.965200  0.3895
  F  F3830  1  0.778900  0.839900  0.034800  0.3895
  F  F3831  1  0.288700  0.297400  0.957000  0.3895
  F  F3832  1  0.711300  0.702600  0.043000  0.3895
  F  F3833  1  0.314000  0.340500  0.914400  0.3895
  F  F3834  1  0.686000  0.659500  0.085600  0.3895
  F  F3835  1  0.346100  0.288200  0.947400  0.3895
  F  F3836  1  0.653900  0.711800  0.052600  0.3895
  F  F3837  1  0.300100  0.330100  0.973200  0.3895
  F  F3838  1  0.699900  0.669900  0.026800  0.3895
  F  F3839  1  0.303600  0.291900  0.942800  0.3895
  F  F3840  1  0.696400  0.708100  0.057200  0.3895
  F  F3841  1  0.342700  0.320900  0.922000  0.3895
  F  F3842  1  0.657300  0.679100  0.078000  0.3895
  F  F3843  1  0.316300  0.297000  0.982200  0.3895
  F  F3844  1  0.683700  0.703000  0.017800  0.3895
  F  F3845  1  0.282700  0.346100  0.948300  0.3895
  F  F3846  1  0.717300  0.653900  0.051700  0.3895
  F  F3847  1  0.975200  0.214500  0.203700  0.3895
  F  F3848  1  0.024800  0.785500  0.796300  0.3895
  F  F3849  1  0.986500  0.194700  0.160600  0.3895
  F  F3850  1  0.013500  0.805300  0.839400  0.3895
  F  F3851  1  0.972000  0.159900  0.220200  0.3895
  F  F3852  1  0.028000  0.840100  0.779800  0.3895
  F  F3853  1  0.929600  0.210700  0.199200  0.3895
  F  F3854  1  0.070400  0.789300  0.800800  0.3895
  F  F3855  1  0.955100  0.208400  0.222300  0.3895
  F  F3856  1  0.044900  0.791600  0.777700  0.3895
  F  F3857  1  0.002300  0.174400  0.188500  0.3895
  F  F3858  1  0.997700  0.825600  0.811500  0.3895
  F  F3859  1  0.945400  0.175100  0.206000  0.3895
  F  F3860  1  0.054600  0.824900  0.794000  0.3895
  F  F3861  1  0.961000  0.224400  0.164500  0.3895
  F  F3862  1  0.039000  0.775600  0.835500  0.3895
  F  F3863  1  0.954200  0.286200  0.301900  0.3895
  F  F3864  1  0.045800  0.713800  0.698100  0.3895
  F  F3865  1  0.958100  0.341000  0.283600  0.3895
  F  F3866  1  0.041900  0.659000  0.716400  0.3895
  F  F3867  1  0.967900  0.298000  0.335800  0.3895
  F  F3868  1  0.032100  0.702000  0.664200  0.3895
  F  F3869  1  0.911500  0.325200  0.332500  0.3895
  F  F3870  1  0.088500  0.674800  0.667500  0.3895
  F  F3871  1  0.946200  0.302400  0.290200  0.3895
  F  F3872  1  0.053800  0.697600  0.709800  0.3895
  F  F3873  1  0.984000  0.308300  0.304000  0.3895
  F  F3874  1  0.016000  0.691700  0.696000  0.3895
  F  F3875  1  0.937600  0.288400  0.348300  0.3895
  F  F3876  1  0.062400  0.711600  0.651700  0.3895
  F  F3877  1  0.926100  0.347100  0.312000  0.3895
  F  F3878  1  0.073900  0.652900  0.688000  0.3895
  F  F3879  1  0.010100  0.797800  0.393500  0.3895
  F  F3880  1  0.989900  0.202200  0.606500  0.3895
  F  F3881  1  0.013700  0.824600  0.334300  0.3895
  F  F3882  1  0.986300  0.175400  0.665700  0.3895
  F  F3883  1  0.053200  0.823100  0.352100  0.3895
  F  F3884  1  0.946800  0.176900  0.647900  0.3895
  F  F3885  1  0.056600  0.771800  0.351800  0.3895
  F  F3886  1  0.943400  0.228200  0.648200  0.3895
  F  F3887  1  0.041100  0.784700  0.389600  0.3895
  F  F3888  1  0.958900  0.215300  0.610400  0.3895
  F  F3889  1  0.010000  0.839100  0.358200  0.3895
  F  F3890  1  0.990000  0.160900  0.641800  0.3895
  F  F3891  1  0.063600  0.804800  0.328200  0.3895
  F  F3892  1  0.936400  0.195200  0.671800  0.3895
  F  F3893  1  0.014200  0.787600  0.357200  0.3895
  F  F3894  1  0.985800  0.212400  0.642800  0.3895
  F  F3895  1  0.047300  0.701200  0.541100  0.3895
  F  F3896  1  0.952700  0.298800  0.458900  0.3895
  F  F3897  1  0.087500  0.665200  0.571600  0.3895
  F  F3898  1  0.912500  0.334800  0.428400  0.3895
  F  F3899  1  0.030600  0.662900  0.598200  0.3895
  F  F3900  1  0.969400  0.337100  0.401800  0.3895
  F  F3901  1  0.040000  0.712400  0.588100  0.3895
  F  F3902  1  0.960000  0.287600  0.411900  0.3895
  F  F3903  1  0.015800  0.697700  0.596500  0.3895
  F  F3904  1  0.984200  0.302300  0.403500  0.3895
  F  F3905  1  0.055600  0.708800  0.539400  0.3895
  F  F3906  1  0.944400  0.291200  0.460600  0.3895
  F  F3907  1  0.058000  0.651300  0.575200  0.3895
  F  F3908  1  0.942000  0.348700  0.424800  0.3895
  F  F3909  1  0.074800  0.682200  0.587600  0.3895
  F  F3910  1  0.925200  0.317800  0.412400  0.3895
  F  F3911  1  0.217000  0.615000  0.214200  0.3895
  F  F3912  1  0.783000  0.385000  0.785800  0.3895
  F  F3913  1  0.198700  0.675900  0.185500  0.3895
  F  F3914  1  0.801300  0.324100  0.814500  0.3895
  F  F3915  1  0.214900  0.637300  0.158100  0.3895
  F  F3916  1  0.785100  0.362700  0.841900  0.3895
  F  F3917  1  0.162800  0.644000  0.205300  0.3895
  F  F3918  1  0.837200  0.356000  0.794700  0.3895
  F  F3919  1  0.210300  0.605500  0.205300  0.3895
  F  F3920  1  0.789700  0.394500  0.794700  0.3895
  F  F3921  1  0.175000  0.656600  0.220000  0.3895
  F  F3922  1  0.825000  0.343400  0.780000  0.3895
  F  F3923  1  0.228100  0.654400  0.173500  0.3895
  F  F3924  1  0.771900  0.345600  0.826500  0.3895
  F  F3925  1  0.180400  0.655200  0.168200  0.3895
  F  F3926  1  0.819600  0.344800  0.831800  0.3895
  F  F3927  1  0.289900  0.461200  0.301600  0.3895
  F  F3928  1  0.710100  0.538800  0.698400  0.3895
  F  F3929  1  0.306200  0.414500  0.349600  0.3895
  F  F3930  1  0.693800  0.585500  0.650400  0.3895
  F  F3931  1  0.347400  0.421600  0.293000  0.3895
  F  F3932  1  0.652600  0.578400  0.707000  0.3895
  F  F3933  1  0.301400  0.403900  0.308600  0.3895
  F  F3934  1  0.698600  0.596100  0.691400  0.3895
  F  F3935  1  0.300900  0.458900  0.288400  0.3895
  F  F3936  1  0.699100  0.541100  0.711600  0.3895
  F  F3937  1  0.280800  0.418300  0.341900  0.3895
  F  F3938  1  0.719200  0.581700  0.658100  0.3895
  F  F3939  1  0.332300  0.426300  0.327600  0.3895
  F  F3940  1  0.667700  0.573700  0.672400  0.3895
  F  F3941  1  0.331600  0.398600  0.298300  0.3895
  F  F3942  1  0.668400  0.601400  0.701700  0.3895
  F  F3943  1  0.389600  0.786000  0.039200  0.3895
  F  F3944  1  0.610400  0.214000  0.960800  0.3895
  F  F3945  1  0.328600  0.802000  0.065500  0.3895
  F  F3946  1  0.671400  0.198000  0.934500  0.3895
  F  F3947  1  0.355400  0.790800  0.012800  0.3895
  F  F3948  1  0.644600  0.209200  0.987200  0.3895
  F  F3949  1  0.354100  0.841000  0.013800  0.3895
  F  F3950  1  0.645900  0.159000  0.986200  0.3895
  F  F3951  1  0.388000  0.805200  0.004600  0.3895
  F  F3952  1  0.612000  0.194800  0.995400  0.3895
  F  F3953  1  0.357500  0.769400  0.055200  0.3895
  F  F3954  1  0.642500  0.230600  0.944800  0.3895
  F  F3955  1  0.327600  0.820800  0.020200  0.3895
  F  F3956  1  0.672400  0.179200  0.979800  0.3895
  F  F3957  1  0.349700  0.823800  0.053400  0.3895
  F  F3958  1  0.650300  0.176200  0.946600  0.3895
  F  F3959  1  0.540100  0.710300  0.053700  0.3895
  F  F3960  1  0.459900  0.289700  0.946300  0.3895
  F  F3961  1  0.598600  0.696700  0.019400  0.3895
  F  F3962  1  0.401400  0.303300  0.980600  0.3895
  F  F3963  1  0.583900  0.681200  0.079600  0.3895
  F  F3964  1  0.416100  0.318800  0.920400  0.3895
  F  F3965  1  0.574200  0.652100  0.058500  0.3895
  F  F3966  1  0.425800  0.347900  0.941500  0.3895
  F  F3967  1  0.542700  0.697500  0.047500  0.3895
  F  F3968  1  0.457300  0.302500  0.952500  0.3895
  F  F3969  1  0.582600  0.714000  0.046700  0.3895
  F  F3970  1  0.417400  0.286000  0.953300  0.3895
  F  F3971  1  0.570900  0.662800  0.089500  0.3895
  F  F3972  1  0.429100  0.337200  0.910500  0.3895
  F  F3973  1  0.602400  0.664800  0.031700  0.3895
  F  F3974  1  0.397600  0.335200  0.968300  0.3895
  F  F3975  1  0.354400  0.019900  0.840800  0.3895
  F  F3976  1  0.645600  0.980100  0.159200  0.3895
  F  F3977  1  0.329200  0.066200  0.798600  0.3895
  F  F3978  1  0.670800  0.933800  0.201400  0.3895
  F  F3979  1  0.356700  0.009600  0.795400  0.3895
  F  F3980  1  0.643300  0.990400  0.204600  0.3895
  F  F3981  1  0.390100  0.040400  0.783800  0.3895
  F  F3982  1  0.609900  0.959600  0.216200  0.3895
  F  F3983  1  0.390900  0.007700  0.802500  0.3895
  F  F3984  1  0.609100  0.992300  0.197500  0.3895
  F  F3985  1  0.330200  0.019700  0.831000  0.3895
  F  F3986  1  0.669800  0.980300  0.169000  0.3895
  F  F3987  1  0.352500  0.049200  0.771100  0.3895
  F  F3988  1  0.647500  0.950800  0.228900  0.3895
  F  F3989  1  0.355200  0.061200  0.812400  0.3895
  F  F3990  1  0.644800  0.938800  0.187600  0.3895
  F  F3991  1  0.543200  0.046300  0.700400  0.3895
  F  F3992  1  0.456800  0.953700  0.299600  0.3895
  F  F3993  1  0.572600  0.087200  0.662200  0.3895
  F  F3994  1  0.427400  0.912800  0.337800  0.3895
  F  F3995  1  0.602300  0.028300  0.666800  0.3895
  F  F3996  1  0.397700  0.971700  0.333200  0.3895
  F  F3997  1  0.585700  0.046000  0.713100  0.3895
  F  F3998  1  0.414300  0.954000  0.286900  0.3895
  F  F3999  1  0.540500  0.052500  0.709500  0.3895
  F  F4000  1  0.459500  0.947500  0.290500  0.3895
  F  F4001  1  0.575900  0.062000  0.651300  0.3895
  F  F4002  1  0.424100  0.938000  0.348700  0.3895
  F  F4003  1  0.598700  0.016600  0.695600  0.3895
  F  F4004  1  0.401300  0.983400  0.304400  0.3895
  F  F4005  1  0.584900  0.075000  0.688000  0.3895
  F  F4006  1  0.415100  0.925000  0.312000  0.3895
  F  F4007  1  0.216200  0.216700  0.611100  0.3895
  F  F4008  1  0.783800  0.783300  0.388900  0.3895
  F  F4009  1  0.192200  0.200100  0.672300  0.3895
  F  F4010  1  0.807800  0.799900  0.327700  0.3895
  F  F4011  1  0.163200  0.206100  0.640000  0.3895
  F  F4012  1  0.836800  0.793900  0.360000  0.3895
  F  F4013  1  0.215800  0.159700  0.644200  0.3895
  F  F4014  1  0.784200  0.840300  0.355800  0.3895
  F  F4015  1  0.206800  0.206000  0.604600  0.3895
  F  F4016  1  0.793200  0.794000  0.395400  0.3895
  F  F4017  1  0.227400  0.180000  0.651200  0.3895
  F  F4018  1  0.772600  0.820000  0.348800  0.3895
  F  F4019  1  0.174000  0.226600  0.651800  0.3895
  F  F4020  1  0.826000  0.773400  0.348200  0.3895
  F  F4021  1  0.178400  0.171500  0.659000  0.3895
  F  F4022  1  0.821600  0.828500  0.341000  0.3895
  F  F4023  1  0.300100  0.288600  0.457500  0.3895
  F  F4024  1  0.699900  0.711400  0.542500  0.3895
  F  F4025  1  0.331100  0.301300  0.397300  0.3895
  F  F4026  1  0.668900  0.698700  0.602700  0.3895
  F  F4027  1  0.282700  0.344700  0.419600  0.3895
  F  F4028  1  0.717300  0.655300  0.580400  0.3895
  F  F4029  1  0.335000  0.323500  0.429600  0.3895
  F  F4030  1  0.665000  0.676500  0.570400  0.3895
  F  F4031  1  0.290000  0.305500  0.461800  0.3895
  F  F4032  1  0.710000  0.694500  0.538200  0.3895
  F  F4033  1  0.298600  0.311900  0.405700  0.3895
  F  F4034  1  0.701400  0.688100  0.594300  0.3895
  F  F4035  1  0.313500  0.347900  0.413400  0.3895
  F  F4036  1  0.686500  0.652100  0.586600  0.3895
  F  F4037  1  0.346500  0.288300  0.424000  0.3895
  F  F4038  1  0.653500  0.711700  0.576000  0.3895
  F  F4039  1  0.000800  0.385600  0.807000  0.3895
  F  F4040  1  0.999200  0.614400  0.193000  0.3895
  F  F4041  1  0.055400  0.357800  0.772100  0.3895
  F  F4042  1  0.944600  0.642200  0.227900  0.3895
  F  F4043  1  0.022900  0.324700  0.823100  0.3895
  F  F4044  1  0.977100  0.675300  0.176900  0.3895
  F  F4045  1  0.048700  0.353900  0.826900  0.3895
  F  F4046  1  0.951300  0.646100  0.173100  0.3895
  F  F4047  1  0.037900  0.389000  0.787900  0.3895
  F  F4048  1  0.962100  0.611000  0.212100  0.3895
  F  F4049  1  0.064800  0.328300  0.802200  0.3895
  F  F4050  1  0.935200  0.671700  0.197800  0.3895
  F  F4051  1  0.011700  0.355500  0.791900  0.3895
  F  F4052  1  0.988300  0.644500  0.208100  0.3895
  F  F4053  1  0.013200  0.352100  0.842800  0.3895
  F  F4054  1  0.986800  0.647900  0.157200  0.3895
  F  F4055  1  0.059000  0.536000  0.696000  0.3895
  F  F4056  1  0.941000  0.464000  0.304000  0.3895
  F  F4057  1  0.019500  0.593000  0.682700  0.3895
  F  F4058  1  0.980500  0.407000  0.317300  0.3895
  F  F4059  1  0.080100  0.582700  0.656900  0.3895
  F  F4060  1  0.919900  0.417300  0.343100  0.3895
  F  F4061  1  0.052800  0.575500  0.716500  0.3895
  F  F4062  1  0.947200  0.424500  0.283500  0.3895
  F  F4063  1  0.043100  0.541900  0.712000  0.3895
  F  F4064  1  0.956900  0.458100  0.288000  0.3895
  F  F4065  1  0.026400  0.602100  0.697900  0.3895
  F  F4066  1  0.973600  0.397900  0.302100  0.3895
  F  F4067  1  0.055000  0.577400  0.653400  0.3895
  F  F4068  1  0.945000  0.422600  0.346600  0.3895
  F  F4069  1  0.085600  0.568100  0.686100  0.3895
  F  F4070  1  0.914400  0.431900  0.313900  0.3895
  F  F4071  1  0.801100  0.390400  0.032800  0.3895
  F  F4072  1  0.198900  0.609600  0.967200  0.3895
  F  F4073  1  0.787400  0.338900  0.067500  0.3895
  F  F4074  1  0.212600  0.661100  0.932500  0.3895
  F  F4075  1  0.841400  0.337500  0.022200  0.3895
  F  F4076  1  0.158600  0.662500  0.977800  0.3895
  F  F4077  1  0.789500  0.365400  0.009300  0.3895
  F  F4078  1  0.210500  0.634600  0.990700  0.3895
  F  F4079  1  0.779200  0.389500  0.038300  0.3895
  F  F4080  1  0.220800  0.610500  0.961700  0.3895
  F  F4081  1  0.829300  0.366000  0.997400  0.3895
  F  F4082  1  0.170700  0.634000  0.002600  0.3895
  F  F4083  1  0.825700  0.342500  0.055900  0.3895
  F  F4084  1  0.174300  0.657500  0.944100  0.3895
  F  F4085  1  0.791800  0.333500  0.039500  0.3895
  F  F4086  1  0.208200  0.666500  0.960500  0.3895
  F  F4087  1  0.698200  0.536600  0.059000  0.3895
  F  F4088  1  0.301800  0.463400  0.941000  0.3895
  F  F4089  1  0.714600  0.581700  0.047800  0.3895
  F  F4090  1  0.285400  0.418300  0.952200  0.3895
  F  F4091  1  0.679800  0.591700  0.019000  0.3895
  F  F4092  1  0.320200  0.408300  0.981000  0.3895
  F  F4093  1  0.656200  0.583900  0.078600  0.3895
  F  F4094  1  0.343800  0.416100  0.921400  0.3895
  F  F4095  1  0.711300  0.541700  0.044000  0.3895
  F  F4096  1  0.288700  0.458300  0.956000  0.3895
  F  F4097  1  0.686000  0.571300  0.083100  0.3895
  F  F4098  1  0.314000  0.428700  0.916900  0.3895
  F  F4099  1  0.696700  0.602800  0.023500  0.3895
  F  F4100  1  0.303300  0.397200  0.976500  0.3895
  F  F4101  1  0.652900  0.577200  0.054900  0.3895
  F  F4102  1  0.347100  0.422800  0.945100  0.3895
  F  F4103  1  0.606200  0.208700  0.208300  0.3895
  F  F4104  1  0.393800  0.791300  0.791700  0.3895
  F  F4105  1  0.656800  0.223800  0.172900  0.3895
  F  F4106  1  0.343200  0.776200  0.827100  0.3895
  F  F4107  1  0.655800  0.171400  0.179000  0.3895
  F  F4108  1  0.344200  0.828600  0.821000  0.3895
  F  F4109  1  0.655600  0.177400  0.225900  0.3895
  F  F4110  1  0.344400  0.822600  0.774100  0.3895
  F  F4111  1  0.614500  0.217400  0.215800  0.3895
  F  F4112  1  0.385500  0.782600  0.784200  0.3895
  F  F4113  1  0.675600  0.194600  0.193300  0.3895
  F  F4114  1  0.324400  0.805400  0.806700  0.3895
  F  F4115  1  0.641100  0.208600  0.162100  0.3895
  F  F4116  1  0.358900  0.791400  0.837900  0.3895
  F  F4117  1  0.641600  0.160400  0.214100  0.3895
  F  F4118  1  0.358400  0.839600  0.785900  0.3895
  F  F4119  1  0.456400  0.287100  0.299900  0.3895
  F  F4120  1  0.543600  0.712900  0.700100  0.3895
  F  F4121  1  0.419900  0.345200  0.284700  0.3895
  F  F4122  1  0.580100  0.654800  0.715300  0.3895
  F  F4123  1  0.432300  0.318800  0.336900  0.3895
  F  F4124  1  0.567700  0.681200  0.663100  0.3895
  F  F4125  1  0.396200  0.302300  0.331400  0.3895
  F  F4126  1  0.603800  0.697700  0.668600  0.3895
  F  F4127  1  0.461600  0.305500  0.290400  0.3895
  F  F4128  1  0.538400  0.694500  0.709600  0.3895
  F  F4129  1  0.414300  0.345200  0.318600  0.3895
  F  F4130  1  0.585700  0.654800  0.681400  0.3895
  F  F4131  1  0.423800  0.285000  0.345900  0.3895
  F  F4132  1  0.576200  0.715000  0.654100  0.3895
  F  F4133  1  0.404600  0.316200  0.297300  0.3895
  F  F4134  1  0.595400  0.683800  0.702700  0.3895
  F  F4135  1  0.785200  0.043800  0.385600  0.3895
  F  F4136  1  0.214800  0.956200  0.614400  0.3895
  F  F4137  1  0.796500  0.007200  0.358300  0.3895
  F  F4138  1  0.203500  0.992800  0.641700  0.3895
  F  F4139  1  0.842100  0.019800  0.352400  0.3895
  F  F4140  1  0.157900  0.980200  0.647600  0.3895
  F  F4141  1  0.801000  0.062900  0.324300  0.3895
  F  F4142  1  0.199000  0.937100  0.675700  0.3895
  F  F4143  1  0.801700  0.013000  0.391100  0.3895
  F  F4144  1  0.198300  0.987000  0.608900  0.3895
  F  F4145  1  0.772100  0.050200  0.350700  0.3895
  F  F4146  1  0.227900  0.949800  0.649300  0.3895
  F  F4147  1  0.830000  0.013800  0.332800  0.3895
  F  F4148  1  0.170000  0.986200  0.667200  0.3895
  F  F4149  1  0.817800  0.061200  0.346700  0.3895
  F  F4150  1  0.182200  0.938800  0.653300  0.3895
  F  F4151  1  0.703400  0.057300  0.537700  0.3895
  F  F4152  1  0.296600  0.942700  0.462300  0.3895
  F  F4153  1  0.662000  0.035000  0.588500  0.3895
  F  F4154  1  0.338000  0.965000  0.411500  0.3895
  F  F4155  1  0.712400  0.030700  0.591600  0.3895
  F  F4156  1  0.287600  0.969300  0.408400  0.3895
  F  F4157  1  0.668900  0.085300  0.579800  0.3895
  F  F4158  1  0.331100  0.914700  0.420200  0.3895
  F  F4159  1  0.705900  0.043100  0.543100  0.3895
  F  F4160  1  0.294100  0.956900  0.456900  0.3895
  F  F4161  1  0.652800  0.076000  0.574200  0.3895
  F  F4162  1  0.347200  0.924000  0.425800  0.3895
  F  F4163  1  0.685000  0.020900  0.604100  0.3895
  F  F4164  1  0.315000  0.979100  0.395900  0.3895
  F  F4165  1  0.705800  0.067000  0.576400  0.3895
  F  F4166  1  0.294200  0.933000  0.423600  0.3895
