
#######################################################################
#
#                 Cambridge Crystallographic Data Centre
#                                CCDC 
#
#######################################################################
#
# If this CIF has been generated from an entry in the Cambridge 
# Structural Database, then it will include bibliographic, chemical, 
# crystal, experimental, refinement or atomic coordinate data resulting 
# from the CCDC's data processing and validation procedures.
#
#######################################################################

data_IBUVAD
_chemical_formula_moiety         'C48 H40 Cl4 N4 O4 Zn2'
_chemical_name_systematic        
bis(\m~2~-2,2'-bis(3-Pyridylmethoxy)-1,1'-biphenylene)-tetrachloro-di-zinc(ii)
_symmetry_cell_setting           monoclinic
_symmetry_space_group_name_H-M   'P 21/n'
_symmetry_Int_Tables_number      14
_space_group_name_Hall           '-P 2yn'
loop_
_symmetry_equiv_pos_site_id
_symmetry_equiv_pos_as_xyz
1 x,y,z
2 1/2-x,1/2+y,1/2-z
3 -x,-y,-z
4 1/2+x,1/2-y,1/2+z
_cell_length_a                   7.8629(3)
_cell_length_b                   10.1154(3)
_cell_length_c                   27.1132(8)
_cell_angle_alpha                90
_cell_angle_beta                 91.404(2)
_cell_angle_gamma                90
_cell_volume                     2155.84
_exptl_crystal_colour            colorless
_exptl_crystal_description       sheet
_cell_formula_units_Z            2
loop_
_atom_site_label
_atom_site_type_symbol
_atom_site_fract_x
_atom_site_fract_y
_atom_site_fract_z
Zn1 Zn 0.78398(9) 0.29947(7) 0.22296(2)
Cl1 Cl 0.51922(19) 0.26008(16) 0.19611(5)
Cl2 Cl 0.8531(2) 0.33976(18) 0.30120(5)
O1 O 0.7996(5) 0.4376(4) 0.02990(13)
O2 O 0.8104(5) 0.0523(4) -0.06125(13)
N1 N 0.8597(6) 0.4572(4) 0.18068(16)
N2 N 0.9546(6) 0.1582(5) 0.19954(16)
C1 C 0.6737(6) 0.2971(6) -0.03126(18)
C2 C 0.7717(8) -0.0464(6) 0.0196(2)
H1 H 0.8196 -0.1255 0.0093
C3 C 0.7560(7) 0.0590(6) -0.0132(2)
C4 C 0.7268(7) 0.4232(6) -0.01641(19)
C5 C 0.8182(7) 0.4660(5) 0.1328(2)
H2 H 0.7441 0.4032 0.1195
C6 C 0.6310(7) 0.1874(6) 0.05097(19)
H3 H 0.5833 0.2658 0.0620
C7 C 0.8441(8) -0.0771(5) -0.07965(19)
H4 H 0.7461 -0.1336 -0.0749
H5 H 0.9405 -0.1153 -0.0618
C8 C 0.6895(6) 0.1808(5) 0.00235(19)
C9 C 0.8787(7) 0.5630(5) 0.10191(19)
C10 C 0.9640(8) 0.5511(6) 0.1997(2)
H6 H 0.9944 0.5477 0.2330
C11 C 0.8256(7) 0.5685(6) 0.04801(19)
H7 H 0.7214 0.6191 0.0441
H8 H 0.9133 0.6118 0.0293
C12 C 0.9859(8) 0.6569(6) 0.1224(2)
H9 H 1.0300 0.7237 0.1029
C13 C 1.0374(8) 0.0762(6) 0.2310(2)
H10 H 1.0114 0.0787 0.2642
C14 C 0.6008(7) 0.2842(6) -0.07862(19)
H11 H 0.5640 0.2012 -0.0891
C15 C 0.8817(7) -0.0684(6) -0.13347(19)
C16 C 0.9946(7) 0.1515(6) 0.1519(2)
H12 H 0.9359 0.2061 0.1297
C17 C 1.1592(8) -0.0113(6) 0.2156(2)
H13 H 1.2119 -0.0686 0.2380
C18 C 0.5819(8) 0.3899(7) -0.1102(2)
H14 H 0.5316 0.3779 -0.1412
C19 C 0.7096(8) 0.5308(6) -0.0488(2)
H15 H 0.7465 0.6143 -0.0390
C20 C 0.7161(7) -0.0340(6) 0.0675(2)
H16 H 0.7291 -0.1042 0.0895
C21 C 0.7974(7) 0.0131(6) -0.1664(2)
H17 H 0.7118 0.0689 -0.1558
C22 C 0.6367(8) 0.5125(7) -0.0959(2)
H18 H 0.6257 0.5836 -0.1175
C23 C 0.6422(7) 0.0812(6) 0.0826(2)
H19 H 0.5996 0.0877 0.1142
C24 C 1.0266(8) 0.6512(7) 0.1714(2)
H20 H 1.0969 0.7152 0.1857
C16B C 1.0054(7) -0.1515(6) -0.1519(2)
N2B N 1.0454(6) -0.1582(5) -0.19954(16)
Zn1B Zn 1.21602(9) -0.29947(7) -0.22296(2)
Cl1B Cl 1.48078(19) -0.26008(16) -0.19611(5)
Cl2B Cl 1.1469(2) -0.33976(18) -0.30120(5)
N1B N 1.1403(6) -0.4572(4) -0.18068(16)
C5B C 1.1818(7) -0.4660(5) -0.1328(2)
H2B H 1.2559 -0.4032 -0.1195
C9B C 1.1213(7) -0.5630(5) -0.10191(19)
C11B C 1.1744(7) -0.5685(6) -0.04801(19)
O1B O 1.2004(5) -0.4376(4) -0.02990(13)
C4B C 1.2732(7) -0.4232(6) 0.01641(19)
C1B C 1.3263(6) -0.2971(6) 0.03126(18)
C8B C 1.3105(6) -0.1808(5) -0.00235(19)
C3B C 1.2440(7) -0.0590(6) 0.0132(2)
O2B O 1.1896(5) -0.0523(4) 0.06125(13)
C7B C 1.1559(8) 0.0771(5) 0.07965(19)
H4B H 1.2539 0.1336 0.0749
H5B H 1.0595 0.1153 0.0618
C15B C 1.1183(7) 0.0684(6) 0.13347(19)
C21B C 1.2026(7) -0.0131(6) 0.1664(2)
H17B H 1.2882 -0.0689 0.1558
C2B C 1.2283(8) 0.0464(6) -0.0196(2)
H1B H 1.1804 0.1255 -0.0093
C20B C 1.2839(7) 0.0340(6) -0.0675(2)
H16B H 1.2709 0.1042 -0.0895
C23B C 1.3578(7) -0.0812(6) -0.0826(2)
C6B C 1.3690(7) -0.1874(6) -0.05097(19)
H3B H 1.4167 -0.2658 -0.0620
H19B H 1.4004 -0.0877 -0.1142
C14B C 1.3992(7) -0.2842(6) 0.07862(19)
H11B H 1.4360 -0.2012 0.0891
C18B C 1.4181(8) -0.3899(7) 0.1102(2)
H14B H 1.4684 -0.3779 0.1412
C22B C 1.3633(8) -0.5125(7) 0.0959(2)
C19B C 1.2904(8) -0.5308(6) 0.0488(2)
H15B H 1.2535 -0.6143 0.0390
H18B H 1.3743 -0.5836 0.1175
H7B H 1.2786 -0.6191 -0.0441
H8B H 1.0867 -0.6118 -0.0293
C12B C 1.0141(8) -0.6569(6) -0.1224(2)
H9B H 0.9700 -0.7237 -0.1029
C24B C 0.9734(8) -0.6512(7) -0.1714(2)
C10B C 1.0360(8) -0.5511(6) -0.1997(2)
H6B H 1.0056 -0.5477 -0.2330
H20B H 0.9031 -0.7152 -0.1857
C13B C 0.9626(8) -0.0762(6) -0.2310(2)
H10B H 0.9886 -0.0787 -0.2642
C17B C 0.8408(8) 0.0113(6) -0.2156(2)
H13B H 0.7881 0.0686 -0.2380
H12B H 1.0641 -0.2061 -0.1297
loop_
_geom_bond_atom_site_label_1
_geom_bond_atom_site_label_2
_geom_bond_site_symmetry_1
_geom_bond_site_symmetry_2
Zn1 Cl1 1_555 1_555
Cl2 Zn1 1_555 1_555
O1 C4 1_555 1_555
O2 C3 1_555 1_555
N1 Zn1 1_555 1_555
N2 Zn1 1_555 1_555
C1 C4 1_555 1_555
C2 H1 1_555 1_555
C3 C2 1_555 1_555
C4 C19 1_555 1_555
C5 N1 1_555 1_555
H2 C5 1_555 1_555
C6 H3 1_555 1_555
C7 O2 1_555 1_555
H4 C7 1_555 1_555
H5 C7 1_555 1_555
C8 C1 1_555 1_555
C9 C5 1_555 1_555
C10 N1 1_555 1_555
H6 C10 1_555 1_555
C11 O1 1_555 1_555
H7 C11 1_555 1_555
H8 C11 1_555 1_555
C12 C9 1_555 1_555
H9 C12 1_555 1_555
C13 N2 1_555 1_555
H10 C13 1_555 1_555
C14 C1 1_555 1_555
H11 C14 1_555 1_555
C15 C7 1_555 1_555
C16 N2 1_555 1_555
H12 C16 1_555 1_555
C17 C13 1_555 1_555
H13 C17 1_555 1_555
C18 C14 1_555 1_555
H14 C18 1_555 1_555
C19 H15 1_555 1_555
C20 C2 1_555 1_555
H16 C20 1_555 1_555
C21 C15 1_555 1_555
H17 C21 1_555 1_555
C22 C18 1_555 1_555
H18 C22 1_555 1_555
C23 C6 1_555 1_555
H19 C23 1_555 1_555
C24 C10 1_555 1_555
H20 C24 1_555 1_555
C16B C15 1_555 1_555
N2B C16B 1_555 1_555
Zn1B N2B 1_555 1_555
Cl1B Zn1B 1_555 1_555
Cl2B Zn1B 1_555 1_555
N1B Zn1B 1_555 1_555
C5B N1B 1_555 1_555
H2B C5B 1_555 1_555
C9B C5B 1_555 1_555
C11B C9B 1_555 1_555
O1B C11B 1_555 1_555
C4B O1B 1_555 1_555
C1B C4B 1_555 1_555
C8B C1B 1_555 1_555
C3B C8B 1_555 1_555
O2B C3B 1_555 1_555
C7B O2B 1_555 1_555
H4B C7B 1_555 1_555
H5B C7B 1_555 1_555
C15B C16 1_555 1_555
C21B C17 1_555 1_555
H17B C21B 1_555 1_555
C2B C3B 1_555 1_555
H1B C2B 1_555 1_555
C20B C2B 1_555 1_555
H16B C20B 1_555 1_555
C23B C20B 1_555 1_555
C6B C8B 1_555 1_555
H3B C6B 1_555 1_555
H19B C23B 1_555 1_555
C14B C1B 1_555 1_555
H11B C14B 1_555 1_555
C18B C14B 1_555 1_555
H14B C18B 1_555 1_555
C22B C18B 1_555 1_555
C19B C4B 1_555 1_555
H15B C19B 1_555 1_555
H18B C22B 1_555 1_555
H7B C11B 1_555 1_555
H8B C11B 1_555 1_555
C12B C9B 1_555 1_555
H9B C12B 1_555 1_555
C24B C12B 1_555 1_555
C10B N1B 1_555 1_555
H6B C10B 1_555 1_555
H20B C24B 1_555 1_555
C13B N2B 1_555 1_555
H10B C13B 1_555 1_555
C17B C21 1_555 1_555
H13B C17B 1_555 1_555
H12B C16B 1_555 1_555
C3 C8 1_555 1_555
C6 C8 1_555 1_555
C9 C11 1_555 1_555
C12 C24 1_555 1_555
C19 C22 1_555 1_555
C20 C23 1_555 1_555
C7B C15B 1_555 1_555
C15B C21B 1_555 1_555
C23B C6B 1_555 1_555
C22B C19B 1_555 1_555
C24B C10B 1_555 1_555
C13B C17B 1_555 1_555

#END
