
#######################################################################
#
#                 Cambridge Crystallographic Data Centre
#                                CCDC 
#
#######################################################################
#
# If this CIF has been generated from an entry in the Cambridge 
# Structural Database, then it will include bibliographic, chemical, 
# crystal, experimental, refinement or atomic coordinate data resulting 
# from the CCDC's data processing and validation procedures.
#
#######################################################################

data_IBUVEH
_chemical_formula_moiety         'C48 H40 Br4 N4 O4 Zn2'
_chemical_name_systematic        
bis(\m~2~-2,2'-bis(3-Pyridylmethoxy)-1,1'-biphenylene)-tetrabromo-di-zinc(ii)
_symmetry_cell_setting           monoclinic
_symmetry_space_group_name_H-M   'P 21/n'
_symmetry_Int_Tables_number      14
_space_group_name_Hall           '-P 2yn'
loop_
_symmetry_equiv_pos_site_id
_symmetry_equiv_pos_as_xyz
1 x,y,z
2 1/2-x,1/2+y,1/2-z
3 -x,-y,-z
4 1/2+x,1/2-y,1/2+z
_cell_length_a                   7.9449(3)
_cell_length_b                   10.0738(4)
_cell_length_c                   27.7976(11)
_cell_angle_alpha                90
_cell_angle_beta                 91.7750(10)
_cell_angle_gamma                90
_cell_volume                     2223.72
_exptl_crystal_colour            colorless
_exptl_crystal_description       needle
_cell_formula_units_Z            2
loop_
_atom_site_label
_atom_site_type_symbol
_atom_site_fract_x
_atom_site_fract_y
_atom_site_fract_z
Zn1 Zn 0.28348(15) 0.21160(12) 0.22099(4)
Br1 Br 0.35119(16) 0.17219(13) 0.30307(4)
Br2 Br 0.00333(14) 0.25048(12) 0.19304(4)
N1 N 0.3651(10) 0.0520(8) 0.1811(3)
N2 N 0.4525(11) 0.3539(9) 0.1973(3)
O1 O 0.3010(9) 0.0673(7) 0.0327(2)
O2 O 0.3139(9) 0.4454(7) -0.0610(2)
C1 C 0.2258(12) 0.0764(10) -0.0132(3)
C2 C 0.2091(14) -0.0334(11) -0.0433(3)
H1 H 0.2460 -0.1162 -0.0327
C3 C 0.1370(14) -0.0193(12) -0.0893(4)
H2 H 0.1255 -0.0928 -0.1094
C4 C 0.0824(13) 0.1042(11) -0.1052(4)
H3 H 0.0333 0.1140 -0.1358
C5 C 0.1015(12) 0.2119(11) -0.0753(4)
H4 H 0.0642 0.2945 -0.0861
C6 C 0.1754(11) 0.2015(10) -0.0289(3)
C7 C 0.3267(12) -0.0636(10) 0.0513(3)
H5 H 0.4109 -0.1094 0.0330
H6 H 0.2225 -0.1138 0.0487
C8 C 0.3844(12) -0.0529(10) 0.1030(3)
C9 C 0.3193(13) 0.0416(10) 0.1342(3)
H7 H 0.2395 0.1009 0.1218
C10 C 0.4762(14) -0.0347(12) 0.1991(4)
H8 H 0.5094 -0.0286 0.2314
C11 C 0.5423(15) -0.1310(13) 0.1719(4)
H9 H 0.6178 -0.1907 0.1862
C12 C 0.5016(14) -0.1440(12) 0.1237(4)
H10 H 0.5493 -0.2103 0.1053
C13 C 0.2597(12) 0.4419(10) -0.0140(4)
C14 C 0.2747(14) 0.5512(11) 0.0163(4)
H11 H 0.3209 0.6294 0.0048
C15 C 0.2219(13) 0.5460(12) 0.0638(4)
H12 H 0.2376 0.6184 0.0843
C16 C 0.1463(13) 0.4317(11) 0.0798(3)
H13 H 0.1036 0.4283 0.1106
C17 C 0.1342(12) 0.3220(12) 0.0498(4)
H14 H 0.0860 0.2449 0.0616
C18 C 0.1916(11) 0.3219(10) 0.0023(3)
C19 C 0.3482(14) 0.5734(10) -0.0804(4)
H15 H 0.4429 0.6132 -0.0629
H16 H 0.2511 0.6306 -0.0770
C20 C 0.3878(12) 0.5597(10) -0.1323(3)
C21 C 0.4916(13) 0.3566(10) 0.1510(4)
H17 H 0.4348 0.2990 0.1300
C22 C 0.5330(14) 0.4374(11) 0.2280(4)
H18 H 0.5074 0.4366 0.2604
C23 C 0.6524(13) 0.5240(11) 0.2119(4)
H19 H 0.7037 0.5837 0.2332
C24 C 0.3032(14) 0.4771(11) -0.1643(4)
H20 H 0.2171 0.4227 -0.1540
C21B C 0.5084(13) 0.6434(10) -0.1510(4)
N2B N 0.5475(11) 0.6461(9) -0.1973(3)
Zn1B Zn 0.71652(15) 0.78840(12) -0.22099(4)
Br1B Br 0.64881(16) 0.82781(13) -0.30307(4)
Br2B Br 0.99667(14) 0.74952(12) -0.19304(4)
N1B N 0.6349(10) 0.9480(8) -0.1811(3)
C9B C 0.6807(13) 0.9584(10) -0.1342(3)
C8B C 0.6156(12) 1.0529(10) -0.1030(3)
C7B C 0.6733(12) 1.0636(10) -0.0513(3)
O1B O 0.6990(9) 0.9327(7) -0.0327(2)
C1B C 0.7742(12) 0.9236(10) 0.0132(3)
C2B C 0.7909(14) 1.0334(11) 0.0433(3)
H1B H 0.7540 1.1162 0.0327
C3B C 0.8630(14) 1.0193(12) 0.0893(4)
H2B H 0.8745 1.0928 0.1094
C4B C 0.9176(13) 0.8958(11) 0.1052(4)
H3B H 0.9667 0.8860 0.1358
C5B C 0.8985(12) 0.7881(11) 0.0753(4)
H4B H 0.9358 0.7055 0.0861
C6B C 0.8246(11) 0.7985(10) 0.0289(3)
C18B C 0.8084(11) 0.6781(10) -0.0023(3)
C13B C 0.7403(12) 0.5581(10) 0.0140(4)
O2B O 0.6861(9) 0.5546(7) 0.0610(2)
C19B C 0.6518(14) 0.4266(10) 0.0804(4)
H15B H 0.5571 0.3868 0.0629
H16B H 0.7489 0.3694 0.0770
C20B C 0.6122(12) 0.4403(10) 0.1323(3)
C24B C 0.6968(14) 0.5229(11) 0.1643(4)
H20B H 0.7829 0.5773 0.1540
C14B C 0.7253(14) 0.4488(11) -0.0163(4)
H11B H 0.6791 0.3706 -0.0048
C15B C 0.7781(13) 0.4540(12) -0.0638(4)
H12B H 0.7624 0.3816 -0.0843
C16B C 0.8537(13) 0.5683(11) -0.0798(3)
H13B H 0.8964 0.5717 -0.1106
C17B C 0.8658(12) 0.6780(12) -0.0498(4)
H14B H 0.9140 0.7551 -0.0616
H5B H 0.5891 1.1094 -0.0330
H6B H 0.7775 1.1138 -0.0487
C12B C 0.4984(14) 1.1440(12) -0.1237(4)
C11B C 0.4577(15) 1.1310(13) -0.1719(4)
C10B C 0.5238(14) 1.0347(12) -0.1991(4)
H8B H 0.4906 1.0286 -0.2314
H9B H 0.3822 1.1907 -0.1862
H10B H 0.4507 1.2103 -0.1053
H7B H 0.7605 0.8991 -0.1218
C22B C 0.4670(14) 0.5626(11) -0.2280(4)
H18B H 0.4926 0.5634 -0.2604
C23B C 0.3476(13) 0.4760(11) -0.2119(4)
H19B H 0.2963 0.4163 -0.2332
H17B H 0.5652 0.7010 -0.1300
loop_
_geom_bond_atom_site_label_1
_geom_bond_atom_site_label_2
_geom_bond_site_symmetry_1
_geom_bond_site_symmetry_2
Zn1 Br1 1_555 1_555
Br2 Zn1 1_555 1_555
N1 Zn1 1_555 1_555
N2 Zn1 1_555 1_555
O1 C1 1_555 1_555
O2 C13 1_555 1_555
C1 C2 1_555 1_555
C2 H1 1_555 1_555
C3 C2 1_555 1_555
H2 C3 1_555 1_555
C4 C3 1_555 1_555
H3 C4 1_555 1_555
C5 C4 1_555 1_555
H4 C5 1_555 1_555
C6 C1 1_555 1_555
C7 O1 1_555 1_555
H5 C7 1_555 1_555
H6 C7 1_555 1_555
C8 C7 1_555 1_555
C9 N1 1_555 1_555
H7 C9 1_555 1_555
C10 N1 1_555 1_555
H8 C10 1_555 1_555
C11 C10 1_555 1_555
H9 C11 1_555 1_555
C12 C8 1_555 1_555
H10 C12 1_555 1_555
C13 C14 1_555 1_555
C14 H11 1_555 1_555
C15 C14 1_555 1_555
H12 C15 1_555 1_555
C16 C15 1_555 1_555
H13 C16 1_555 1_555
C17 C16 1_555 1_555
H14 C17 1_555 1_555
C18 C6 1_555 1_555
C19 O2 1_555 1_555
H15 C19 1_555 1_555
H16 C19 1_555 1_555
C20 C19 1_555 1_555
C21 N2 1_555 1_555
H17 C21 1_555 1_555
C22 N2 1_555 1_555
H18 C22 1_555 1_555
C23 C22 1_555 1_555
H19 C23 1_555 1_555
C24 C20 1_555 1_555
H20 C24 1_555 1_555
C21B C20 1_555 1_555
N2B C21B 1_555 1_555
Zn1B N2B 1_555 1_555
Br1B Zn1B 1_555 1_555
Br2B Zn1B 1_555 1_555
N1B Zn1B 1_555 1_555
C9B N1B 1_555 1_555
C8B C9B 1_555 1_555
C7B C8B 1_555 1_555
O1B C7B 1_555 1_555
C1B O1B 1_555 1_555
C2B C1B 1_555 1_555
H1B C2B 1_555 1_555
C3B C2B 1_555 1_555
H2B C3B 1_555 1_555
C4B C3B 1_555 1_555
H3B C4B 1_555 1_555
C5B C4B 1_555 1_555
H4B C5B 1_555 1_555
C6B C1B 1_555 1_555
C18B C6B 1_555 1_555
C13B C18B 1_555 1_555
O2B C13B 1_555 1_555
C19B O2B 1_555 1_555
H15B C19B 1_555 1_555
H16B C19B 1_555 1_555
C20B C21 1_555 1_555
C24B C23 1_555 1_555
H20B C24B 1_555 1_555
C14B C13B 1_555 1_555
H11B C14B 1_555 1_555
C15B C14B 1_555 1_555
H12B C15B 1_555 1_555
C16B C15B 1_555 1_555
H13B C16B 1_555 1_555
C17B C18B 1_555 1_555
H14B C17B 1_555 1_555
H5B C7B 1_555 1_555
H6B C7B 1_555 1_555
C12B C8B 1_555 1_555
C11B C12B 1_555 1_555
C10B N1B 1_555 1_555
H8B C10B 1_555 1_555
H9B C11B 1_555 1_555
H10B C12B 1_555 1_555
H7B C9B 1_555 1_555
C22B N2B 1_555 1_555
H18B C22B 1_555 1_555
C23B C24 1_555 1_555
H19B C23B 1_555 1_555
H17B C21B 1_555 1_555
C5 C6 1_555 1_555
C8 C9 1_555 1_555
C11 C12 1_555 1_555
C13 C18 1_555 1_555
C17 C18 1_555 1_555
C5B C6B 1_555 1_555
C19B C20B 1_555 1_555
C20B C24B 1_555 1_555
C16B C17B 1_555 1_555
C11B C10B 1_555 1_555
C22B C23B 1_555 1_555

#END
