
#######################################################################
#
#                 Cambridge Crystallographic Data Centre
#                                CCDC 
#
#######################################################################
#
# If this CIF has been generated from an entry in the Cambridge 
# Structural Database, then it will include bibliographic, chemical, 
# crystal, experimental, refinement or atomic coordinate data resulting 
# from the CCDC's data processing and validation procedures.
#
#######################################################################

data_ICALAA
_chemical_formula_moiety         'C56 H76 N2 O12 Pd2 S4 2+,2(B1 F4 1-)'
_chemical_name_systematic        
'(\m~2~-12,36[1,3]-dibenzena-24,48[1,2]-dibenzena-1,4,7,17,20,23,25,28,31,41,44,47-dodecaoxa-10,14,34,38-tetrathiaoctatetracontaphane-12^1^,36^1^-diyl)-bis(acetonitrile)-di-palladium(ii) bis(tetrafluoroborate)'
_symmetry_cell_setting           triclinic
_symmetry_space_group_name_H-M   'P -1'
_symmetry_Int_Tables_number      2
_space_group_name_Hall           '-P 1'
loop_
_symmetry_equiv_pos_site_id
_symmetry_equiv_pos_as_xyz
1 x,y,z
2 -x,-y,-z
_cell_length_a                   13.2731(12)
_cell_length_b                   14.4368(16)
_cell_length_c                   18.1120(19)
_cell_angle_alpha                71.267(4)
_cell_angle_beta                 71.424(3)
_cell_angle_gamma                86.580(3)
_cell_volume                     3112.03
_exptl_crystal_colour            'pale yellow'
_exptl_crystal_description       prismatic
_cell_formula_units_Z            2
loop_
_atom_site_label
_atom_site_type_symbol
_atom_site_fract_x
_atom_site_fract_y
_atom_site_fract_z
Pd1 Pd 0.25904(4) 0.08784(4) 0.05494(3)
Pd2 Pd 0.29888(4) 0.39967(3) -0.03152(3)
C1 C 0.4027(5) 0.0941(4) 0.0637(4)
C2 C 0.4148(5) 0.0686(4) 0.1414(4)
C3 C 0.5170(5) 0.0751(4) 0.1479(4)
H1 H 0.5266 0.0568 0.2004
C4 C 0.6031(5) 0.1083(5) 0.0772(4)
H2 H 0.6717 0.1131 0.0819
C5 C 0.5916(5) 0.1344(4) 0.0002(4)
H3 H 0.6515 0.1574 -0.0477
C6 C 0.4913(4) 0.1267(4) -0.0063(4)
C7 C 0.3186(5) 0.0367(5) 0.2162(4)
H4 H 0.2890 0.0935 0.2339
H5 H 0.3374 -0.0120 0.2619
C8 C 0.4742(4) 0.1515(4) -0.0892(4)
H6 H 0.4860 0.0937 -0.1085
H7 H 0.5248 0.2053 -0.1302
S1 S 0.22202(13) -0.01745(13) 0.18745(10)
S2 S 0.33731(12) 0.18886(12) -0.07705(9)
C9 C 0.0925(6) 0.0110(6) 0.2462(4)
H8 H 0.0964 0.0789 0.2472
H9 H 0.0405 0.0083 0.2180
C10 C 0.0533(5) -0.0566(5) 0.3326(4)
H10 H -0.0212 -0.0429 0.3588
H11 H 0.0546 -0.1252 0.3324
C11 C 0.2940(5) 0.1383(4) -0.1425(3)
H12 H 0.3225 0.0725 -0.1385
H13 H 0.2154 0.1309 -0.1230
C12 C 0.3313(5) 0.2027(5) -0.2307(4)
H14 H 0.3060 0.1744 -0.2651
H15 H 0.3030 0.2687 -0.2357
O1 O 0.1175(3) -0.0447(3) 0.3785(2)
O2 O 0.4426(3) 0.2089(3) -0.2566(3)
C13 C 0.0837(5) -0.1107(5) 0.4594(4)
H16 H 0.0924 -0.1785 0.4575
H17 H 0.0071 -0.1031 0.4852
C14 C 0.1446(5) -0.0943(5) 0.5104(4)
H18 H 0.1457 -0.0240 0.5055
H19 H 0.1099 -0.1323 0.5688
C15 C 0.4860(5) 0.2773(5) -0.3366(4)
H20 H 0.4698 0.3447 -0.3356
H21 H 0.4550 0.2638 -0.3753
C16 C 0.6027(5) 0.2668(5) -0.3631(4)
H22 H 0.6185 0.1977 -0.3586
H23 H 0.6347 0.3076 -0.4211
O3 O 0.2499(3) -0.1239(3) 0.4834(2)
O4 O 0.6455(3) 0.2969(3) -0.3126(3)
C17 C 0.3074(5) -0.1167(5) 0.5366(4)
H24 H 0.2804 -0.1684 0.5905
H25 H 0.2972 -0.0523 0.5456
C18 C 0.4232(5) -0.1285(5) 0.4976(4)
H26 H 0.4623 -0.1343 0.5371
H27 H 0.4327 -0.1886 0.4815
C19 C 0.7567(5) 0.2857(6) -0.3347(5)
H28 H 0.7899 0.3204 -0.3940
H29 H 0.7714 0.2154 -0.3244
C20 C 0.8033(5) 0.3251(5) -0.2870(4)
H30 H 0.7653 0.2950 -0.2276
H31 H 0.8789 0.3085 -0.2973
O5 O 0.4630(3) -0.0470(3) 0.4285(3)
O6 O 0.7957(3) 0.4303(3) -0.3096(3)
C21 C 0.5718(5) -0.0402(5) 0.3886(4)
C22 C 0.6431(5) -0.1103(5) 0.4055(4)
H32 H 0.6192 -0.1704 0.4487
C23 C 0.7500(5) -0.0934(5) 0.3595(4)
H33 H 0.7996 -0.1417 0.3712
C24 C 0.7845(5) -0.0052(5) 0.2963(4)
H34 H 0.8574 0.0059 0.2639
C25 C 0.7134(5) 0.0657(5) 0.2805(4)
H35 H 0.7371 0.1262 0.2380
C26 C 0.6074(5) 0.0484(5) 0.3268(4)
C27 C 0.8887(5) 0.4862(5) -0.3409(4)
C28 C 0.9568(5) 0.4793(5) -0.2963(4)
H36 H 0.9425 0.4316 -0.2435
C29 C 1.0463(5) 0.5418(5) -0.3281(4)
H37 H 1.0922 0.5386 -0.2966
C30 C 1.0684(5) 0.6089(5) -0.4059(5)
H38 H 1.1304 0.6512 -0.4282
C31 C 1.0010(4) 0.6149(4) -0.4516(4)
H39 H 1.0164 0.6612 -0.5051
C32 C 0.9108(4) 0.5531(4) -0.4190(4)
O7 O 0.5300(3) 0.1144(3) 0.3151(3)
O8 O 0.8390(3) 0.5533(3) -0.4593(2)
C33 C 0.5598(5) 0.2158(5) 0.2882(4)
H40 H 0.6002 0.2382 0.2287
H41 H 0.6051 0.2279 0.3186
C34 C 0.4576(6) 0.2705(5) 0.3047(4)
H42 H 0.4766 0.3402 0.2930
H43 H 0.4205 0.2675 0.2660
C35 C 0.8550(5) 0.6235(5) -0.5393(4)
H44 H 0.9251 0.6159 -0.5773
H45 H 0.8531 0.6908 -0.5361
C36 C 0.7682(5) 0.6060(5) -0.5697(4)
H46 H 0.7877 0.6424 -0.6292
H47 H 0.7637 0.5354 -0.5630
O9 O 0.3883(4) 0.2358(4) 0.3832(3)
O10 O 0.6658(3) 0.6338(3) -0.5298(3)
C37 C 0.3079(5) 0.1691(5) 0.3925(5)
H48 H 0.2839 0.1265 0.4506
H49 H 0.3403 0.1266 0.3586
C38 C 0.2114(6) 0.2114(5) 0.3702(4)
H50 H 0.1559 0.1587 0.3889
H51 H 0.1825 0.2601 0.3986
C39 C 0.6137(5) 0.5682(4) -0.4506(4)
H52 H 0.6437 0.5776 -0.4098
H53 H 0.6233 0.4997 -0.4506
C40 C 0.4982(5) 0.5894(5) -0.4293(4)
H54 H 0.4891 0.6597 -0.4348
H55 H 0.4664 0.5735 -0.4666
O11 O 0.2365(4) 0.2567(4) 0.2849(3)
O12 O 0.4480(3) 0.5305(3) -0.3466(3)
C41 C 0.1468(5) 0.2876(5) 0.2598(4)
H56 H 0.1007 0.3222 0.2964
H57 H 0.1055 0.2296 0.2652
C42 C 0.1769(5) 0.3541(5) 0.1731(4)
H58 H 0.2079 0.4167 0.1695
H59 H 0.1123 0.3686 0.1561
C43 C 0.3391(4) 0.5484(5) -0.3157(4)
H62 H 0.2991 0.5334 -0.3486
H63 H 0.3308 0.6181 -0.3191
C44 C 0.2967(5) 0.4836(5) -0.2272(4)
H64 H 0.3016 0.4142 -0.2254
H65 H 0.2206 0.4958 -0.2048
S3 S 0.27126(14) 0.30086(13) 0.10421(11)
S5 S 0.36690(13) 0.50325(12) -0.16302(10)
C45 C 0.3974(5) 0.3289(5) 0.1143(4)
H68 H 0.3885 0.3817 0.1394
H69 H 0.4199 0.2701 0.1507
C46 C 0.4945(5) 0.4443(5) -0.1913(4)
H72 H 0.4849 0.3856 -0.2058
H73 H 0.5479 0.4903 -0.2385
C47 C 0.4503(5) 0.3918(4) -0.0379(4)
C48 C 0.4804(5) 0.3604(4) 0.0319(4)
C49 C 0.5879(5) 0.3573(4) 0.0268(4)
H76 H 0.6082 0.3363 0.0752
C50 C 0.6642(5) 0.3854(4) -0.0500(4)
H77 H 0.7373 0.3846 -0.0540
C51 C 0.6358(5) 0.4152(4) -0.1221(4)
H78 H 0.6889 0.4342 -0.1745
C52 C 0.5284(5) 0.4164(4) -0.1156(4)
N1 N 0.1039(4) 0.0907(4) 0.0472(3)
C53 C 0.0181(5) 0.0975(5) 0.0493(4)
C54 C -0.0935(4) 0.1055(5) 0.0524(4)
H79 H -0.0981 0.1189 -0.0030
H80 H -0.1238 0.1591 0.0735
H81 H -0.1332 0.0439 0.0888
N2 N 0.1399(4) 0.4009(4) -0.0284(3)
C55 C 0.0587(5) 0.3971(4) -0.0364(4)
C56 C -0.0455(5) 0.3939(4) -0.0466(4)
H82 H -0.0448 0.3504 -0.0787
H83 H -0.0623 0.4599 -0.0755
H84 H -0.0996 0.3691 0.0075
F1 F 0.0925(3) 0.2779(3) -0.1837(3)
F2 F 0.0462(3) 0.1171(3) -0.1442(2)
F3 F -0.0799(3) 0.2318(3) -0.1442(2)
F4 F 0.0338(3) 0.2205(3) -0.2648(2)
B1 B 0.0235(6) 0.2111(6) -0.1844(5)
F5 F -0.0440(3) 0.2300(3) 0.1758(3)
F6 F -0.0655(3) 0.3919(3) 0.1510(2)
F7 F -0.1909(3) 0.2942(3) 0.1484(3)
F8 F -0.1689(3) 0.2841(3) 0.2691(2)
B2 B -0.1157(7) 0.2986(6) 0.1874(5)
H60? H 0.1670 0.4187 0.1819
H61? H 0.1140 0.3434 0.1581
H66? H 0.2440 0.4353 -0.2236
H67? H 0.2584 0.5249 -0.1938
S4? S 0.2622(10) 0.3814(11) 0.0891(8)
S6? S 0.3800(13) 0.4266(13) -0.1876(10)
H70? H 0.4131 0.3577 0.1524
H71? H 0.3916 0.2566 0.1386
H74? H 0.5408 0.4102 -0.2282
H75? H 0.5123 0.5152 -0.2192
loop_
_geom_bond_atom_site_label_1
_geom_bond_atom_site_label_2
_geom_bond_site_symmetry_1
_geom_bond_site_symmetry_2
Pd1 C1 1_555 1_555
Pd2 S3 1_555 1_555
C1 C2 1_555 1_555
C2 C3 1_555 1_555
C3 H1 1_555 1_555
C4 C3 1_555 1_555
H2 C4 1_555 1_555
C5 C4 1_555 1_555
H3 C5 1_555 1_555
C6 C1 1_555 1_555
C7 C2 1_555 1_555
H4 C7 1_555 1_555
H5 C7 1_555 1_555
C8 C6 1_555 1_555
H6 C8 1_555 1_555
H7 C8 1_555 1_555
S1 Pd1 1_555 1_555
S2 Pd1 1_555 1_555
C9 S1 1_555 1_555
H8 C9 1_555 1_555
H9 C9 1_555 1_555
C10 C9 1_555 1_555
H10 C10 1_555 1_555
H11 C10 1_555 1_555
C11 S2 1_555 1_555
H12 C11 1_555 1_555
H13 C11 1_555 1_555
C12 C11 1_555 1_555
H14 C12 1_555 1_555
H15 C12 1_555 1_555
O1 C10 1_555 1_555
O2 C12 1_555 1_555
C13 O1 1_555 1_555
H16 C13 1_555 1_555
H17 C13 1_555 1_555
C14 C13 1_555 1_555
H18 C14 1_555 1_555
H19 C14 1_555 1_555
C15 O2 1_555 1_555
H20 C15 1_555 1_555
H21 C15 1_555 1_555
C16 C15 1_555 1_555
H22 C16 1_555 1_555
H23 C16 1_555 1_555
O3 C14 1_555 1_555
O4 C16 1_555 1_555
C17 O3 1_555 1_555
H24 C17 1_555 1_555
H25 C17 1_555 1_555
C18 C17 1_555 1_555
H26 C18 1_555 1_555
H27 C18 1_555 1_555
C19 O4 1_555 1_555
H28 C19 1_555 1_555
H29 C19 1_555 1_555
C20 C19 1_555 1_555
H30 C20 1_555 1_555
H31 C20 1_555 1_555
O5 C18 1_555 1_555
O6 C20 1_555 1_555
C21 O5 1_555 1_555
C22 C21 1_555 1_555
H32 C22 1_555 1_555
C23 C22 1_555 1_555
H33 C23 1_555 1_555
C24 C23 1_555 1_555
H34 C24 1_555 1_555
C25 C24 1_555 1_555
H35 C25 1_555 1_555
C26 C21 1_555 1_555
C27 O6 1_555 1_555
C28 C27 1_555 1_555
H36 C28 1_555 1_555
C29 C28 1_555 1_555
H37 C29 1_555 1_555
C30 C29 1_555 1_555
H38 C30 1_555 1_555
C31 C30 1_555 1_555
H39 C31 1_555 1_555
C32 C27 1_555 1_555
O7 C26 1_555 1_555
O8 C32 1_555 1_555
C33 O7 1_555 1_555
H40 C33 1_555 1_555
H41 C33 1_555 1_555
C34 C33 1_555 1_555
H42 C34 1_555 1_555
H43 C34 1_555 1_555
C35 O8 1_555 1_555
H44 C35 1_555 1_555
H45 C35 1_555 1_555
C36 C35 1_555 1_555
H46 C36 1_555 1_555
H47 C36 1_555 1_555
O9 C34 1_555 1_555
O10 C36 1_555 1_555
C37 O9 1_555 1_555
H48 C37 1_555 1_555
H49 C37 1_555 1_555
C38 C37 1_555 1_555
H50 C38 1_555 1_555
H51 C38 1_555 1_555
C39 O10 1_555 1_555
H52 C39 1_555 1_555
H53 C39 1_555 1_555
C40 C39 1_555 1_555
H54 C40 1_555 1_555
H55 C40 1_555 1_555
O11 C38 1_555 1_555
O12 C40 1_555 1_555
C41 O11 1_555 1_555
H56 C41 1_555 1_555
H57 C41 1_555 1_555
C42 C41 1_555 1_555
H58 C42 1_555 1_555
H59 C42 1_555 1_555
C43 O12 1_555 1_555
H62 C43 1_555 1_555
H63 C43 1_555 1_555
C44 C43 1_555 1_555
H64 C44 1_555 1_555
H65 C44 1_555 1_555
S3 C42 1_555 1_555
S5 Pd2 1_555 1_555
C45 S3 1_555 1_555
H68 C45 1_555 1_555
H69 C45 1_555 1_555
C46 S5 1_555 1_555
H72 C46 1_555 1_555
H73 C46 1_555 1_555
C47 Pd2 1_555 1_555
C48 C45 1_555 1_555
C49 C48 1_555 1_555
H76 C49 1_555 1_555
C50 C49 1_555 1_555
H77 C50 1_555 1_555
C51 C50 1_555 1_555
H78 C51 1_555 1_555
C52 C46 1_555 1_555
N1 Pd1 1_555 1_555
C53 N1 1_555 1_555
C54 C53 1_555 1_555
H79 C54 1_555 1_555
H80 C54 1_555 1_555
H81 C54 1_555 1_555
N2 Pd2 1_555 1_555
C55 N2 1_555 1_555
C56 C55 1_555 1_555
H82 C56 1_555 1_555
H83 C56 1_555 1_555
H84 C56 1_555 1_555
F1 B1 1_555 1_555
F2 B1 1_555 1_555
F3 B1 1_555 1_555
F4 B1 1_555 1_555
F5 B2 1_555 1_555
F6 B2 1_555 1_555
F7 B2 1_555 1_555
F8 B2 1_555 1_555
C5 C6 1_555 1_555
C7 S1 1_555 1_555
C8 S2 1_555 1_555
C25 C26 1_555 1_555
C31 C32 1_555 1_555
C44 S5 1_555 1_555
C47 C52 1_555 1_555
C47 C48 1_555 1_555
C51 C52 1_555 1_555

#END
