
#######################################################################
#
#                 Cambridge Crystallographic Data Centre
#                                CCDC 
#
#######################################################################
#
# If this CIF has been generated from an entry in the Cambridge 
# Structural Database, then it will include bibliographic, chemical, 
# crystal, experimental, refinement or atomic coordinate data resulting 
# from the CCDC's data processing and validation procedures.
#
#######################################################################

data_ICENOU
_chemical_formula_moiety         'C64 H44 Mn2 N4 O8'
_chemical_name_systematic        
bis(\m~2~-1,8-bis(2-(4-Pyridyl)ethynyl)anthracene-N,N')-bis(\m~2~-acetato-O,O')-bis(acetato-O,O')-di-manganese(ii)
_symmetry_cell_setting           triclinic
_symmetry_space_group_name_H-M   'P -1'
_symmetry_Int_Tables_number      2
_space_group_name_Hall           '-P 1'
loop_
_symmetry_equiv_pos_site_id
_symmetry_equiv_pos_as_xyz
1 x,y,z
2 -x,-y,-z
_cell_length_a                   12.7201(5)
_cell_length_b                   14.1821(5)
_cell_length_c                   15.5890(4)
_cell_angle_alpha                103.5113(19)
_cell_angle_beta                 91.1155(20)
_cell_angle_gamma                109.1301(16)
_cell_volume                     2569.23
_exptl_crystal_colour            yellow
_exptl_crystal_description       plate
_cell_formula_units_Z            2
loop_
_atom_site_label
_atom_site_type_symbol
_atom_site_fract_x
_atom_site_fract_y
_atom_site_fract_z
Mn1 Mn 0.01902(5) 0.25593(5) 0.88968(4)
Mn2 Mn -0.02715(5) 0.25290(5) 0.62400(4)
O1 O 0.0802(2) 0.2384(2) 1.02154(17)
O2 O -0.0468(3) 0.3114(3) 1.0211(2)
O3 O 0.0509(3) 0.1854(2) 0.5043(2)
O4 O -0.0702(3) 0.2614(2) 0.48651(17)
N1 N -0.0921(3) 0.0888(2) 0.85445(19)
N2 N -0.1731(3) 0.0985(2) 0.5850(2)
N3 N 0.1630(3) 0.4079(3) 0.92294(19)
N4 N 0.0891(3) 0.4200(2) 0.65131(19)
C1 C -0.1800(4) 0.0496(3) 0.7918(2)
C2 C -0.2462(4) -0.0533(3) 0.7684(2)
C3 C -0.2216(3) -0.1208(3) 0.8108(2)
C4 C -0.1309(4) -0.0814(3) 0.8754(2)
C5 C -0.0690(4) 0.0226(3) 0.8945(3)
C6 C -0.2900(3) -0.2281(3) 0.7889(2)
C7 C -0.3485(4) -0.3167(3) 0.7711(2)
C8 C -0.4210(3) -0.4230(3) 0.7472(2)
C9 C -0.4142(4) -0.4882(4) 0.7982(3)
C10 C -0.4865(4) -0.5922(4) 0.7757(3)
C11 C -0.5639(4) -0.6300(4) 0.7035(3)
C12 C -0.5755(3) -0.5649(3) 0.6486(2)
C13 C -0.6554(4) -0.5994(3) 0.5762(3)
C14 C -0.6678(3) -0.5347(3) 0.5245(2)
C15 C -0.7532(4) -0.5690(4) 0.4527(3)
C16 C -0.7666(4) -0.5043(4) 0.4049(3)
C17 C -0.6925(4) -0.4004(4) 0.4247(3)
C18 C -0.6067(3) -0.3641(3) 0.4916(2)
C19 C -0.5933(3) -0.4298(3) 0.5455(2)
C20 C -0.5119(3) -0.3948(3) 0.6178(3)
C21 C -0.5018(3) -0.4594(3) 0.6701(2)
C22 C -0.5255(4) -0.2619(3) 0.5069(2)
C23 C -0.4512(4) -0.1809(3) 0.5210(2)
C24 C -0.3574(4) -0.0862(3) 0.5399(2)
C25 C -0.2480(4) -0.0856(3) 0.5405(3)
C26 C -0.1599(4) 0.0068(3) 0.5622(3)
C27 C -0.2782(4) 0.0985(4) 0.5840(3)
C28 C -0.3712(4) 0.0099(3) 0.5625(3)
C29 C 0.1509(4) 0.5002(3) 0.9361(2)
C30 C 0.2402(4) 0.5920(3) 0.9536(3)
C31 C 0.3488(3) 0.5898(3) 0.9580(2)
C32 C 0.3618(4) 0.4941(4) 0.9461(3)
C33 C 0.2675(4) 0.4066(4) 0.9298(3)
C34 C 0.4447(4) 0.6831(3) 0.9736(2)
C35 C 0.5202(4) 0.7633(3) 0.9853(2)
C36 C 0.6024(3) 0.8646(3) 1.0013(2)
C37 C 0.6891(4) 0.8993(4) 1.0682(3)
C38 C 0.7631(4) 1.0030(4) 1.0892(3)
C39 C 0.7507(4) 1.0697(4) 1.0435(3)
C40 C 0.6648(3) 1.0381(3) 0.9716(2)
C41 C 0.6526(4) 1.1047(3) 0.9221(3)
C42 C 0.5703(3) 1.0719(3) 0.8509(3)
C43 C 0.5579(4) 1.1391(3) 0.7993(3)
C44 C 0.4793(4) 1.1056(4) 0.7294(3)
C45 C 0.4067(4) 1.0011(4) 0.7051(3)
C46 C 0.4135(3) 0.9328(3) 0.7516(2)
C47 C 0.4964(3) 0.9666(3) 0.8272(2)
C48 C 0.5081(3) 0.9003(3) 0.8775(2)
C49 C 0.5892(3) 0.9333(3) 0.9493(2)
C50 C 0.3409(4) 0.8266(3) 0.7263(2)
C51 C 0.2847(4) 0.7380(3) 0.7074(2)
C52 C 0.2180(3) 0.6302(3) 0.6879(2)
C53 C 0.2441(4) 0.5643(3) 0.7313(2)
C54 C 0.1789(4) 0.4621(3) 0.7117(2)
C55 C 0.0635(4) 0.4839(3) 0.6091(3)
C56 C 0.1245(4) 0.5874(3) 0.6244(2)
C57 C 0.0179(4) 0.2824(3) 1.0621(3)
C58 C 0.0192(4) 0.2993(4) 1.1611(3)
H1 H -0.0105 0.3546 1.1851
H2 H 0.0963 0.3189 1.1877
H3 H -0.0271 0.2355 1.1750
C59 C -0.0074(4) 0.2120(3) 0.4552(3)
C60 C -0.0060(5) 0.1839(4) 0.3559(3)
H4 H -0.0799 0.1360 0.3281
H5 H 0.0502 0.1509 0.3407
H6 H 0.0125 0.2464 0.3344
O5 O 0.1429(3) 0.1837(2) 0.82456(19)
O6 O 0.0525(3) 0.2230(3) 0.7292(2)
C61 C 0.1215(4) 0.1776(3) 0.7469(3)
C62 C 0.1679(5) 0.1175(4) 0.6784(3)
H7 H 0.2312 0.1059 0.7054
H8 H 0.1933 0.1555 0.6333
H9 H 0.1101 0.0510 0.6506
O7 O -0.0989(3) 0.3147(3) 0.8411(2)
O8 O -0.1398(2) 0.3161(2) 0.69902(19)
C63 C -0.1376(4) 0.3441(3) 0.7831(3)
C64 C -0.1937(5) 0.4218(4) 0.8182(3)
H10 H -0.2490 0.3952 0.8573
H11 H -0.2312 0.4340 0.7685
H12 H -0.1374 0.4867 0.8515
H13 H -0.197(3) 0.098(3) 0.768(2)
H14 H -0.313(4) -0.076(4) 0.723(3)
H15 H -0.111(3) -0.123(3) 0.909(2)
H16 H -0.007(3) 0.054(3) 0.938(2)
H17 H -0.357(4) -0.461(4) 0.850(3)
H18 H -0.481(3) -0.637(3) 0.810(2)
H19 H -0.612(4) -0.698(4) 0.690(3)
H20 H -0.706(4) -0.673(4) 0.559(3)
H21 H -0.801(4) -0.634(3) 0.444(2)
H22 H -0.830(4) -0.531(4) 0.358(3)
H23 H -0.700(3) -0.359(3) 0.392(2)
H24 H -0.460(4) -0.326(3) 0.631(2)
H25 H -0.228(3) -0.144(3) 0.529(2)
H26 H -0.088(4) 0.007(3) 0.561(3)
H27 H -0.286(4) 0.163(4) 0.598(3)
H28 H -0.446(4) 0.019(3) 0.565(2)
H29 H 0.071(3) 0.493(3) 0.925(2)
H30 H 0.224(3) 0.656(3) 0.960(2)
H31 H 0.435(4) 0.489(4) 0.944(3)
H32 H 0.279(5) 0.345(4) 0.924(3)
H33 H 0.699(4) 0.857(4) 1.105(3)
H34 H 0.817(4) 1.024(3) 1.139(3)
H35 H 0.798(4) 1.137(3) 1.055(2)
H36 H 0.705(3) 1.173(3) 0.939(2)
H37 H 0.614(3) 1.208(3) 0.816(2)
H38 H 0.465(4) 1.145(4) 0.698(3)
H39 H 0.358(3) 0.984(3) 0.661(2)
H40 H 0.462(3) 0.837(3) 0.863(2)
H41 H 0.306(3) 0.591(3) 0.773(2)
H42 H 0.200(3) 0.418(3) 0.740(2)
H43 H 0.000(4) 0.454(3) 0.567(3)
H44 H 0.103(3) 0.627(3) 0.594(2)
loop_
_geom_bond_atom_site_label_1
_geom_bond_atom_site_label_2
_geom_bond_site_symmetry_1
_geom_bond_site_symmetry_2
Mn1 O1 1_555 1_555
Mn2 O3 1_555 1_555
O1 C57 1_555 1_555
O2 Mn1 1_555 1_555
O3 C59 1_555 1_555
O4 Mn2 1_555 1_555
N1 Mn1 1_555 1_555
N2 Mn2 1_555 1_555
N3 Mn1 1_555 1_555
N4 Mn2 1_555 1_555
C1 N1 1_555 1_555
C2 C1 1_555 1_555
C3 C2 1_555 1_555
C4 C3 1_555 1_555
C5 N1 1_555 1_555
C6 C3 1_555 1_555
C7 C6 1_555 1_555
C8 C7 1_555 1_555
C9 C8 1_555 1_555
C10 C9 1_555 1_555
C11 C10 1_555 1_555
C12 C11 1_555 1_555
C13 C12 1_555 1_555
C14 C13 1_555 1_555
C15 C14 1_555 1_555
C16 C15 1_555 1_555
C17 C16 1_555 1_555
C18 C17 1_555 1_555
C19 C14 1_555 1_555
C20 C19 1_555 1_555
C21 C8 1_555 1_555
C22 C18 1_555 1_555
C23 C22 1_555 1_555
C24 C23 1_555 1_555
C25 C24 1_555 1_555
C26 N2 1_555 1_555
C27 N2 1_555 1_555
C28 C24 1_555 1_555
C29 N3 1_555 1_555
C30 C29 1_555 1_555
C31 C30 1_555 1_555
C32 C31 1_555 1_555
C33 N3 1_555 1_555
C34 C31 1_555 1_555
C35 C34 1_555 1_555
C36 C35 1_555 1_555
C37 C36 1_555 1_555
C38 C37 1_555 1_555
C39 C38 1_555 1_555
C40 C39 1_555 1_555
C41 C40 1_555 1_555
C42 C41 1_555 1_555
C43 C42 1_555 1_555
C44 C43 1_555 1_555
C45 C44 1_555 1_555
C46 C45 1_555 1_555
C47 C42 1_555 1_555
C48 C47 1_555 1_555
C49 C36 1_555 1_555
C50 C46 1_555 1_555
C51 C50 1_555 1_555
C52 C51 1_555 1_555
C53 C52 1_555 1_555
C54 N4 1_555 1_555
C55 N4 1_555 1_555
C56 C52 1_555 1_555
C57 O2 1_555 1_555
C58 C57 1_555 1_555
H1 C58 1_555 1_555
H2 C58 1_555 1_555
H3 C58 1_555 1_555
C59 O4 1_555 1_555
C60 C59 1_555 1_555
H4 C60 1_555 1_555
H5 C60 1_555 1_555
H6 C60 1_555 1_555
O5 Mn1 1_555 1_555
O6 Mn2 1_555 1_555
C61 O5 1_555 1_555
C62 C61 1_555 1_555
H7 C62 1_555 1_555
H8 C62 1_555 1_555
H9 C62 1_555 1_555
O7 Mn1 1_555 1_555
O8 Mn2 1_555 1_555
C63 O7 1_555 1_555
C64 C63 1_555 1_555
H10 C64 1_555 1_555
H11 C64 1_555 1_555
H12 C64 1_555 1_555
H13 C1 1_555 1_555
H14 C2 1_555 1_555
H15 C4 1_555 1_555
H16 C5 1_555 1_555
H17 C9 1_555 1_555
H18 C10 1_555 1_555
H19 C11 1_555 1_555
H20 C13 1_555 1_555
H21 C15 1_555 1_555
H22 C16 1_555 1_555
H23 C17 1_555 1_555
H24 C20 1_555 1_555
H25 C25 1_555 1_555
H26 C26 1_555 1_555
H27 C27 1_555 1_555
H28 C28 1_555 1_555
H29 C29 1_555 1_555
H30 C30 1_555 1_555
H31 C32 1_555 1_555
H32 C33 1_555 1_555
H33 C37 1_555 1_555
H34 C38 1_555 1_555
H35 C39 1_555 1_555
H36 C41 1_555 1_555
H37 C43 1_555 1_555
H38 C44 1_555 1_555
H39 C45 1_555 1_555
H40 C48 1_555 1_555
H41 C53 1_555 1_555
H42 C54 1_555 1_555
H43 C55 1_555 1_555
H44 C56 1_555 1_555
C4 C5 1_555 1_555
C12 C21 1_555 1_555
C18 C19 1_555 1_555
C20 C21 1_555 1_555
C25 C26 1_555 1_555
C27 C28 1_555 1_555
C32 C33 1_555 1_555
C40 C49 1_555 1_555
C46 C47 1_555 1_555
C48 C49 1_555 1_555
C53 C54 1_555 1_555
C55 C56 1_555 1_555
O6 C61 1_555 1_555
O8 C63 1_555 1_555

#END
