
#######################################################################
#
#                 Cambridge Crystallographic Data Centre
#                                CCDC 
#
#######################################################################
#
# If this CIF has been generated from an entry in the Cambridge 
# Structural Database, then it will include bibliographic, chemical, 
# crystal, experimental, refinement or atomic coordinate data resulting 
# from the CCDC's data processing and validation procedures.
#
#######################################################################

data_ICOVOO
_chemical_formula_moiety         
'C212 H184 N8 O24 Pt2 4+,4(N1 O3 1-),2(C9 H12),4(H2 O1)'
_chemical_name_systematic        
'tetrakis(\m-1,3-bis(10-(pyridin-3-yl)-9-anthryl)-4,5,6-tris(2-methoxyethoxy)benzene)-di-platinum(ii) tetranitrate bis(mesitylene) clathrate unknown solvate tetrahydrate'
_symmetry_cell_setting           triclinic
_symmetry_space_group_name_H-M   'P -1'
_symmetry_Int_Tables_number      2
_space_group_name_Hall           '-P 1'
loop_
_symmetry_equiv_pos_site_id
_symmetry_equiv_pos_as_xyz
1 x,y,z
2 -x,-y,-z
_cell_length_a                   18.7598(8)
_cell_length_b                   21.8129(9)
_cell_length_c                   27.3093(10)
_cell_angle_alpha                93.389(2)
_cell_angle_beta                 101.340(2)
_cell_angle_gamma                107.153(2)
_cell_volume                     10387.5
_exptl_crystal_colour            colorless
_exptl_crystal_description       column
_cell_formula_units_Z            2
loop_
_atom_site_label
_atom_site_type_symbol
_atom_site_fract_x
_atom_site_fract_y
_atom_site_fract_z
N1 N 0.1807(4) 0.5757(3) 0.8071(2)
C1 C 0.2379(5) 0.6285(4) 0.8023(3)
H1 H 0.2259 0.6601 0.7840
C2 C 0.3127(5) 0.6362(4) 0.8238(3)
H2 H 0.3510 0.6727 0.8199
C3 C 0.3313(5) 0.5898(4) 0.8512(3)
H3 H 0.3822 0.5941 0.8651
C4 C 0.2725(4) 0.5360(4) 0.8580(3)
C5 C 0.1983(4) 0.5305(4) 0.8346(3)
H4 H 0.1589 0.4943 0.8378
C6 C 0.2386(5) 0.5239(4) 0.9568(3)
H5 H 0.2267 0.5555 0.9384
C7 C 0.2241(5) 0.5190(4) 1.0042(3)
H6 H 0.2031 0.5479 1.0178
C8 C 0.2406(5) 0.4705(4) 1.0327(3)
H7 H 0.2295 0.4673 1.0643
C9 C 0.2725(5) 0.4292(4) 1.0138(3)
H8 H 0.2834 0.3978 1.0329
C10 C 0.2899(4) 0.4323(4) 0.9647(3)
C11 C 0.3212(4) 0.3878(4) 0.9449(3)
C12 C 0.3318(5) 0.3890(4) 0.8947(3)
C13 C 0.3579(5) 0.3418(4) 0.8716(3)
H9 H 0.3712 0.3113 0.8906
C14 C 0.3637(5) 0.3402(5) 0.8229(3)
H10 H 0.3784 0.3076 0.8083
C15 C 0.3471(6) 0.3887(5) 0.7941(3)
H11 H 0.3518 0.3879 0.7608
C16 C 0.3247(5) 0.4363(4) 0.8147(3)
H12 H 0.3153 0.4681 0.7956
C17 C 0.3152(5) 0.4378(4) 0.8657(3)
C18 C 0.2874(4) 0.4840(4) 0.8875(3)
C19 C 0.2720(4) 0.4805(4) 0.9357(3)
N2 N 0.0479(4) -0.0756(3) 0.8079(3)
C20 C 0.0110(7) -0.1289(5) 0.8260(4)
H13 H -0.0198 -0.1651 0.8037
C21 C 0.0179(7) -0.1311(5) 0.8772(4)
H14 H -0.0104 -0.1672 0.8893
C22 C 0.0679(7) -0.0785(5) 0.9100(4)
H15 H 0.0756 -0.0801 0.9445
C23 C 0.1062(5) -0.0239(4) 0.8918(3)
C24 C 0.0923(5) -0.0243(4) 0.8401(3)
H16 H 0.1151 0.0132 0.8272
C25 C 0.2688(6) 0.0160(5) 0.8951(3)
H17 H 0.2377 -0.0252 0.8803
C26 C 0.3429(6) 0.0358(5) 0.8911(4)
H18 H 0.3626 0.0085 0.8743
C27 C 0.3896(6) 0.0987(5) 0.9132(4)
H19 H 0.4399 0.1131 0.9094
C28 C 0.3637(6) 0.1389(5) 0.9395(3)
H20 H 0.3963 0.1798 0.9538
C29 C 0.2865(5) 0.1188(4) 0.9456(3)
C30 C 0.2577(4) 0.1592(4) 0.9724(3)
C31 C 0.1805(4) 0.1375(4) 0.9767(3)
C32 C 0.1504(5) 0.1763(4) 1.0062(3)
H21 H 0.1825 0.2159 1.0236
C33 C 0.0755(5) 0.1560(4) 1.0091(3)
H22 H 0.0573 0.1807 1.0294
C34 C 0.0259(6) 0.0979(5) 0.9815(3)
H23 H -0.0259 0.0857 0.9818
C35 C 0.0526(5) 0.0588(4) 0.9542(3)
H24 H 0.0187 0.0197 0.9371
C36 C 0.1305(5) 0.0758(4) 0.9510(3)
C37 C 0.1588(5) 0.0365(4) 0.9229(3)
C38 C 0.2367(5) 0.0560(4) 0.9210(3)
C39 C 0.3382(4) 0.3379(4) 0.9754(3)
C40 C 0.4024(4) 0.3545(4) 1.0158(3)
C41 C 0.4154(4) 0.3084(4) 1.0457(3)
C42 C 0.3685(4) 0.2435(4) 1.0339(3)
C43 C 0.3064(4) 0.2259(4) 0.9923(3)
C44 C 0.2919(4) 0.2746(4) 0.9650(3)
H25 H 0.2490 0.2637 0.9386
N3 N 0.0973(4) 0.5657(3) 0.7068(2)
C45 C 0.0734(5) 0.6035(4) 0.6746(3)
H26 H 0.0405 0.6252 0.6826
C46 C 0.0967(5) 0.6108(4) 0.6297(3)
H27 H 0.0803 0.6376 0.6080
C47 C 0.1447(5) 0.5777(4) 0.6175(3)
H28 H 0.1612 0.5830 0.5876
C48 C 0.1686(5) 0.5370(4) 0.6490(3)
C49 C 0.1425(5) 0.5319(4) 0.6933(3)
H29 H 0.1567 0.5040 0.7149
C50 C 0.3279(5) 0.5696(4) 0.7024(3)
H30 H 0.3002 0.5977 0.7071
C51 C 0.4012(5) 0.5834(5) 0.7301(3)
H31 H 0.4235 0.6210 0.7527
C52 C 0.4432(6) 0.5397(5) 0.7240(4)
H32 H 0.4920 0.5475 0.7441
C53 C 0.4126(5) 0.4874(4) 0.6895(3)
H33 H 0.4419 0.4607 0.6850
C54 C 0.3375(5) 0.4713(4) 0.6595(3)
C55 C 0.3070(5) 0.4167(4) 0.6234(3)
C56 C 0.2337(5) 0.4042(4) 0.5923(3)
C57 C 0.2021(5) 0.3502(4) 0.5539(3)
H34 H 0.2300 0.3221 0.5500
C58 C 0.1328(5) 0.3391(4) 0.5235(3)
H35 H 0.1143 0.3044 0.4979
C59 C 0.0875(5) 0.3797(5) 0.5299(3)
H36 H 0.0397 0.3716 0.5086
C60 C 0.1142(5) 0.4304(4) 0.5673(3)
H37 H 0.0831 0.4555 0.5719
C61 C 0.1883(5) 0.4460(4) 0.5993(3)
C62 C 0.2183(5) 0.4974(4) 0.6381(3)
C63 C 0.2930(5) 0.5132(4) 0.6665(3)
N4 N 0.1468(4) -0.0445(3) 0.7392(2)
C64 C 0.1883(6) -0.0833(5) 0.7564(4)
H38 H 0.1638 -0.1219 0.7675
C65 C 0.2642(6) -0.0679(5) 0.7581(4)
H39 H 0.2915 -0.0953 0.7704
C66 C 0.3012(6) -0.0099(5) 0.7411(4)
H40 H 0.3532 0.0013 0.7416
C67 C 0.2593(5) 0.0310(4) 0.7234(3)
C68 C 0.1826(5) 0.0120(4) 0.7239(3)
H41 H 0.1543 0.0392 0.7133
C69 C 0.2051(5) 0.0439(4) 0.6184(3)
H42 H 0.1870 0.0045 0.6303
C70 C 0.1774(5) 0.0500(4) 0.5692(3)
H43 H 0.1417 0.0147 0.5481
C71 C 0.2031(5) 0.1101(4) 0.5503(3)
H44 H 0.1833 0.1139 0.5170
C72 C 0.2551(5) 0.1609(4) 0.5796(3)
H45 H 0.2705 0.1999 0.5666
C73 C 0.2886(5) 0.1567(4) 0.6318(3)
C74 C 0.3485(5) 0.2079(4) 0.6617(3)
C75 C 0.3840(5) 0.2007(4) 0.7098(3)
C76 C 0.4501(5) 0.2503(4) 0.7384(3)
H46 H 0.4701 0.2878 0.7246
C77 C 0.4842(5) 0.2431(4) 0.7858(3)
H47 H 0.5284 0.2747 0.8037
C78 C 0.4514(6) 0.1870(5) 0.8077(4)
H48 H 0.4733 0.1831 0.8405
C79 C 0.3897(5) 0.1397(4) 0.7819(3)
H49 H 0.3691 0.1039 0.7974
C80 C 0.3550(5) 0.1428(4) 0.7315(3)
C81 C 0.2925(5) 0.0919(4) 0.7025(3)
C82 C 0.2615(5) 0.0970(4) 0.6521(3)
C83 C 0.3502(5) 0.3704(4) 0.6182(3)
C84 C 0.4025(5) 0.3779(4) 0.5870(3)
C85 C 0.4418(5) 0.3327(4) 0.5829(3)
C86 C 0.4257(5) 0.2787(4) 0.6084(3)
C87 C 0.3735(5) 0.2705(4) 0.6390(3)
C88 C 0.3372(5) 0.3164(4) 0.6444(3)
H50 H 0.3035 0.3113 0.6658
N5 N -0.0420(4) 0.5423(3) 0.7448(2)
C89 C -0.0826(5) 0.5778(4) 0.7601(3)
H51 H -0.0572 0.6137 0.7841
C90 C -0.1607(5) 0.5635(4) 0.7419(3)
H52 H -0.1872 0.5891 0.7536
C91 C -0.1988(5) 0.5104(4) 0.7058(3)
H53 H -0.2513 0.4997 0.6931
C92 C -0.1574(4) 0.4730(4) 0.6889(3)
C93 C -0.0795(5) 0.4905(4) 0.7102(3)
H54 H -0.0518 0.4651 0.7000
C94 C -0.1056(5) 0.4690(4) 0.5954(3)
H55 H -0.0908 0.5080 0.6162
C95 C -0.0756(5) 0.4661(4) 0.5545(3)
H56 H -0.0421 0.5032 0.5468
C96 C -0.0953(5) 0.4063(4) 0.5230(3)
H57 H -0.0722 0.4040 0.4961
C97 C -0.1472(5) 0.3531(4) 0.5320(3)
H58 H -0.1595 0.3146 0.5109
C98 C -0.1841(4) 0.3546(4) 0.5733(3)
C99 C -0.2420(4) 0.3005(4) 0.5815(3)
C100 C -0.2761(5) 0.3032(4) 0.6224(3)
C101 C -0.3364(5) 0.2509(4) 0.6305(3)
H59 H -0.3541 0.2136 0.6076
C102 C -0.3694(5) 0.2529(4) 0.6699(3)
H60 H -0.4101 0.2180 0.6733
C103 C -0.3417(5) 0.3084(4) 0.7059(3)
H61 H -0.3628 0.3089 0.7340
C104 C -0.2853(5) 0.3605(4) 0.7003(3)
H62 H -0.2695 0.3970 0.7240
C105 C -0.2488(4) 0.3610(4) 0.6584(3)
C106 C -0.1915(4) 0.4149(4) 0.6502(3)
C107 C -0.1598(4) 0.4132(4) 0.6077(3)
N6 N 0.0139(4) -0.0628(3) 0.6586(2)
C108 C 0.0378(5) -0.0977(4) 0.6271(3)
H63 H 0.0670 -0.1232 0.6401
C109 C 0.0199(5) -0.0965(4) 0.5752(3)
H64 H 0.0375 -0.1203 0.5537
C110 C -0.0248(5) -0.0589(4) 0.5563(3)
H65 H -0.0383 -0.0580 0.5218
C111 C -0.0494(5) -0.0226(4) 0.5890(3)
C112 C -0.0282(5) -0.0259(4) 0.6403(3)
H66 H -0.0439 -0.0015 0.6626
C113 C -0.2134(5) -0.0731(4) 0.5787(3)
H67 H -0.1826 -0.0990 0.5875
C114 C -0.2885(6) -0.0962(5) 0.5769(4)
H68 H -0.3089 -0.1375 0.5852
C115 C -0.3372(6) -0.0584(5) 0.5624(4)
H69 H -0.3892 -0.0747 0.5615
C116 C -0.3072(6) 0.0022(5) 0.5497(4)
H70 H -0.3397 0.0264 0.5398
C117 C -0.2287(5) 0.0288(4) 0.5511(3)
C118 C -0.1974(5) 0.0915(4) 0.5400(3)
C119 C -0.1180(5) 0.1169(4) 0.5435(3)
C120 C -0.0828(5) 0.1804(4) 0.5308(3)
H71 H -0.1138 0.2048 0.5180
C121 C -0.0071(6) 0.2050(4) 0.5368(3)
H72 H 0.0137 0.2463 0.5286
C122 C 0.0425(5) 0.1694(4) 0.5555(3)
H73 H 0.0953 0.1875 0.5603
C123 C 0.0117(5) 0.1083(4) 0.5661(3)
H74 H 0.0442 0.0848 0.5778
C124 C -0.0691(5) 0.0790(4) 0.5600(3)
C125 C -0.1006(5) 0.0172(4) 0.5715(3)
C126 C -0.1799(5) -0.0095(4) 0.5674(3)
C127 C -0.2644(5) 0.2393(4) 0.5470(3)
C128 C -0.3163(5) 0.2290(4) 0.5014(3)
C129 C -0.3368(5) 0.1709(4) 0.4694(3)
C130 C -0.2999(5) 0.1248(4) 0.4814(3)
C131 C -0.2453(5) 0.1345(4) 0.5270(3)
C132 C -0.2309(5) 0.1909(4) 0.5595(3)
H75 H -0.1977 0.1966 0.5908
N7 N 0.0440(4) 0.5548(3) 0.8429(2)
C133 C 0.0733(5) 0.6054(4) 0.8806(3)
H76 H 0.1059 0.6441 0.8746
C134 C 0.0560(5) 0.6005(5) 0.9263(3)
H77 H 0.0776 0.6352 0.9517
C135 C 0.0058(5) 0.5433(4) 0.9350(3)
H78 H -0.0067 0.5395 0.9663
C136 C -0.0250(5) 0.4926(4) 0.8974(3)
C137 C -0.0038(4) 0.5000(4) 0.8522(3)
H79 H -0.0237 0.4653 0.8267
C138 C -0.1874(5) 0.4640(4) 0.8558(3)
H80 H -0.1536 0.5048 0.8553
C139 C -0.2620(5) 0.4496(4) 0.8329(3)
H81 H -0.2790 0.4809 0.8171
C140 C -0.3148(5) 0.3881(4) 0.8325(3)
H82 H -0.3658 0.3790 0.8162
C141 C -0.2906(5) 0.3419(4) 0.8562(3)
H83 H -0.3259 0.3015 0.8556
C142 C -0.2129(5) 0.3537(4) 0.8817(3)
C143 C -0.1883(5) 0.3057(4) 0.9054(3)
C144 C -0.1082(5) 0.3216(4) 0.9304(3)
C145 C -0.0817(6) 0.2754(5) 0.9576(4)
H84 H -0.1157 0.2353 0.9596
C146 C -0.0081(6) 0.2903(5) 0.9800(4)
H85 H 0.0079 0.2613 0.9996
C147 C 0.0465(7) 0.3486(5) 0.9752(4)
H86 H 0.0982 0.3558 0.9887
C148 C 0.0230(6) 0.3944(5) 0.9506(4)
H87 H 0.0589 0.4335 0.9485
C149 C -0.0548(5) 0.3832(4) 0.9285(3)
C150 C -0.0810(5) 0.4299(4) 0.9033(3)
C151 C -0.1597(5) 0.4164(4) 0.8809(3)
N8 N -0.0815(4) -0.0933(3) 0.7273(2)
C152 C -0.1309(5) -0.1468(4) 0.6975(3)
H88 H -0.1121 -0.1751 0.6811
C153 C -0.2088(5) -0.1596(4) 0.6911(3)
H89 H -0.2424 -0.1961 0.6703
C154 C -0.2371(6) -0.1178(4) 0.7161(3)
H90 H -0.2895 -0.1259 0.7121
C155 C -0.1853(5) -0.0633(4) 0.7474(3)
C156 C -0.1092(5) -0.0536(4) 0.7507(3)
H91 H -0.0746 -0.0167 0.7705
C157 C -0.1694(5) -0.0567(4) 0.8551(3)
H92 H -0.1572 -0.0889 0.8380
C158 C -0.1585(5) -0.0524(4) 0.9063(3)
H93 H -0.1386 -0.0813 0.9236
C159 C -0.1774(5) -0.0039(4) 0.9333(3)
H94 H -0.1690 -0.0010 0.9682
C160 C -0.2075(5) 0.0381(4) 0.9086(3)
H95 H -0.2200 0.0693 0.9268
C161 C -0.2204(5) 0.0348(4) 0.8549(3)
C162 C -0.2504(5) 0.0789(4) 0.8291(3)
C163 C -0.2576(7) 0.0788(5) 0.7774(4)
C164 C -0.2802(8) 0.1261(6) 0.7508(4)
H96 H -0.2942 0.1572 0.7679
C165 C -0.2820(9) 0.1274(7) 0.7011(5)
H97 H -0.2996 0.1580 0.6846
C166 C -0.2578(9) 0.0832(7) 0.6739(5)
H98 H -0.2539 0.0877 0.6407
C167 C -0.2400(8) 0.0339(6) 0.6968(4)
H99 H -0.2307 0.0015 0.6779
C168 C -0.2355(7) 0.0314(5) 0.7496(4)
C169 C -0.2091(5) -0.0141(4) 0.7750(3)
C170 C -0.1993(5) -0.0129(4) 0.8275(3)
C171 C -0.2389(5) 0.2392(4) 0.8999(3)
C172 C -0.3032(5) 0.2192(4) 0.9206(3)
C173 C -0.3517(5) 0.1559(4) 0.9091(3)
C174 C -0.3365(5) 0.1122(4) 0.8774(3)
C175 C -0.2707(5) 0.1291(4) 0.8587(3)
C176 C -0.2238(5) 0.1917(4) 0.8698(3)
H100 H -0.1800 0.2036 0.8570
O1 O 0.4466(3) 0.4184(2) 1.02596(19)
C177 C 0.5272(4) 0.4333(4) 1.0274(3)
H101 H 0.5482 0.4072 1.0501
H102 H 0.5528 0.4783 1.0408
C178 C 0.5441(5) 0.4215(4) 0.9771(3)
H103 H 0.5118 0.4370 0.9518
H104 H 0.5971 0.4449 0.9779
O2 O 0.5302(4) 0.3546(3) 0.9647(2)
C179 C 0.5545(6) 0.3408(6) 0.9205(3)
H105 H 0.5318 0.3601 0.8936
H106 H 0.5390 0.2948 0.9115
H107 H 0.6093 0.3581 0.9266
O3 O 0.4769(3) 0.3251(3) 1.08681(18)
C180 C 0.4559(5) 0.3279(4) 1.1345(3)
H108 H 0.4988 0.3281 1.1611
H109 H 0.4135 0.2897 1.1349
C181 C 0.4336(5) 0.3866(4) 1.1442(4)
H110 H 0.3909 0.3866 1.1176
H111 H 0.4173 0.3861 1.1758
O4 O 0.4950(4) 0.4423(3) 1.1464(2)
C182 C 0.4692(7) 0.4979(5) 1.1451(4)
H112 H 0.4214 0.4878 1.1209
H113 H 0.5066 0.5330 1.1357
H114 H 0.4623 0.5101 1.1778
O5 O 0.3904(3) 0.2009(3) 1.06409(19)
C183 C 0.3322(5) 0.1528(4) 1.0799(3)
H115 H 0.3097 0.1159 1.0540
H116 H 0.2921 0.1702 1.0854
C184 C 0.3672(6) 0.1324(5) 1.1272(3)
H117 H 0.3341 0.0910 1.1326
H118 H 0.4161 0.1274 1.1248
O6 O 0.3774(6) 0.1793(4) 1.1676(3)
C185 C 0.4020(12) 0.1638(9) 1.2149(5)
H119 H 0.3754 0.1193 1.2167
H120 H 0.3917 0.1910 1.2397
H121 H 0.4560 0.1702 1.2211
O7 O 0.4175(3) 0.4327(3) 0.5634(2)
C186 C 0.4054(5) 0.4241(5) 0.5094(3)
H122 H 0.4130 0.3836 0.4989
H123 H 0.4433 0.4587 0.4992
C187 C 0.3285(5) 0.4234(4) 0.4832(3)
H124 H 0.3228 0.4148 0.4471
H125 H 0.2900 0.3892 0.4933
O8 O 0.3181(4) 0.4832(3) 0.4949(2)
C188 C 0.2434(6) 0.4828(6) 0.4709(4)
H126 H 0.2354 0.4720 0.4353
H127 H 0.2384 0.5249 0.4778
H128 H 0.2060 0.4514 0.4836
O9 O 0.4927(3) 0.3407(3) 0.5518(2)
C189 C 0.5720(4) 0.3572(4) 0.5768(3)
H129 H 0.5993 0.3407 0.5552
H130 H 0.5764 0.3369 0.6074
C190 C 0.6072(5) 0.4280(4) 0.5892(3)
H131 H 0.6625 0.4389 0.5963
H132 H 0.5914 0.4492 0.5608
O10 O 0.5843(4) 0.4497(3) 0.6318(2)
C191 C 0.5941(6) 0.5169(4) 0.6347(4)
H133 H 0.6474 0.5405 0.6386
H134 H 0.5763 0.5300 0.6630
H135 H 0.5653 0.5259 0.6043
O11 O 0.4624(3) 0.2333(3) 0.6050(2)
C192 C 0.4517(7) 0.1986(5) 0.5565(4)
H136 H 0.4943 0.2187 0.5416
H137 H 0.4053 0.2009 0.5347
C193 C 0.4462(7) 0.1305(5) 0.5601(5)
H138 H 0.4095 0.1124 0.5801
H139 H 0.4279 0.1064 0.5267
O12 O 0.5156(5) 0.1245(4) 0.5817(4)
C194 C 0.5186(11) 0.0612(7) 0.5716(8)
H140 H 0.4814 0.0316 0.5857
H141 H 0.5688 0.0596 0.5863
H142 H 0.5075 0.0493 0.5359
O13 O -0.3503(4) 0.2760(3) 0.4887(2)
C195 C -0.3278(6) 0.3072(5) 0.4456(4)
H143 H -0.3495 0.2766 0.4152
H144 H -0.2725 0.3207 0.4506
C196 C -0.3546(6) 0.3639(5) 0.4397(5)
H145 H -0.3434 0.3894 0.4723
H146 H -0.3281 0.3908 0.4177
O14 O -0.4330(5) 0.3440(4) 0.4195(4)
C197 C -0.4624(7) 0.3965(5) 0.4114(5)
H147 H -0.4457 0.4267 0.4415
H148 H -0.5173 0.3806 0.4027
H149 H -0.4440 0.4178 0.3844
O15 O -0.3860(4) 0.1606(3) 0.4240(2)
C198 C -0.4629(6) 0.1493(7) 0.4252(4)
H150 H -0.4691 0.1874 0.4416
H151 H -0.4791 0.1138 0.4445
C199 C -0.5117(9) 0.1332(7) 0.3730(5)
H152 H -0.5631 0.1344 0.3725
H153 H -0.4895 0.1622 0.3506
O16 O -0.5112(8) 0.0700(6) 0.3604(5)
C200 C -0.5503(16) 0.0577(12) 0.3063(7)
H154 H -0.5998 0.0260 0.3018
H155 H -0.5203 0.0418 0.2871
H156 H -0.5561 0.0971 0.2951
O17 O -0.3171(4) 0.0684(3) 0.4503(2)
C201 C -0.3028(8) 0.0723(6) 0.4001(4)
H157 H -0.3417 0.0874 0.3803
H158 H -0.3105 0.0287 0.3852
C202 C -0.2283(9) 0.1130(7) 0.3939(7)
H159 H -0.1889 0.1009 0.4161
H160 H -0.2245 0.1025 0.3597
O18 O -0.2112(8) 0.1803(6) 0.4031(5)
C203 C -0.2498(13) 0.2055(10) 0.3608(8)
H161 H -0.2985 0.1743 0.3457
H162 H -0.2189 0.2138 0.3363
H163 H -0.2572 0.2450 0.3727
O19 O -0.3216(3) 0.2609(3) 0.9520(2)
C204 C -0.2670(5) 0.2872(5) 0.9991(3)
H164 H -0.2275 0.3253 0.9946
H165 H -0.2428 0.2555 1.0110
C205 C -0.3081(6) 0.3045(5) 1.0367(4)
H166 H -0.2715 0.3318 1.0657
H167 H -0.3413 0.3284 1.0219
O20 O -0.3518(5) 0.2478(4) 1.0519(3)
C206 C -0.4295(7) 0.2413(8) 1.0445(7)
H168 H -0.4356 0.2828 1.0520
H169 H -0.4520 0.2121 1.0663
H170 H -0.4544 0.2245 1.0101
O21 O -0.4178(4) 0.1390(3) 0.9270(2)
C207 C -0.4156(10) 0.1217(7) 0.9750(5)
H171 H -0.4577 0.1298 0.9871
H172 H -0.3682 0.1485 0.9973
C208 C -0.4210(10) 0.0543(8) 0.9765(8)
H173 H -0.4444 0.0368 1.0034
H174 H -0.4494 0.0283 0.9448
O22 O -0.3411(9) 0.0586(7) 0.9860(6)
C209 C -0.3507(14) -0.0109(9) 0.9805(9)
H175 H -0.3659 -0.0290 1.0095
H176 H -0.3032 -0.0174 0.9776
H177 H -0.3895 -0.0319 0.9509
O23 O -0.3888(11) 0.0457(13) 0.8688(7)
C210 C -0.4602(12) 0.0347(10) 0.8332(8)
C211 C -0.5087(9) -0.0339(7) 0.8260(5)
O24 O -0.5381(8) -0.0471(6) 0.8696(5)
C212 C -0.5873(12) -0.1117(8) 0.8652(8)
Pt1 Pt 0.06975(2) 0.56086(2) 0.77491(2)
Pt2 Pt 0.03216(2) -0.07042(2) 0.73334(2)
C213 C -0.0060(10) 0.3220(8) 0.8090(7)
H178 H -0.0190 0.3152 0.8398
C214 C 0.0683(11) 0.3294(9) 0.8044(7)
C215 C 0.0816(12) 0.3428(9) 0.7520(7)
H179 H 0.1306 0.3504 0.7463
C216 C 0.0228(12) 0.3441(10) 0.7127(8)
C217 C -0.0479(11) 0.3338(9) 0.7191(7)
H180 H -0.0876 0.3326 0.6922
C218 C -0.0616(10) 0.3249(9) 0.7672(6)
C219 C 0.1259(12) 0.3235(10) 0.8483(8)
H181 H 0.1465 0.3638 0.8700
H182 H 0.1664 0.3129 0.8367
H183 H 0.1019 0.2900 0.8665
C220 C 0.0439(14) 0.3478(11) 0.6610(8)
H184 H 0.0240 0.3056 0.6419
H185 H 0.0986 0.3629 0.6656
H186 H 0.0223 0.3771 0.6432
C221 C -0.1416(10) 0.3139(9) 0.7717(7)
H187 H -0.1568 0.3509 0.7631
H188 H -0.1453 0.3072 0.8056
H189 H -0.1745 0.2764 0.7492
C222 C 0.0897(12) 0.1578(9) 0.7449(8)
H190 H 0.1170 0.1638 0.7197
C223 C 0.0147(13) 0.1547(10) 0.7330(8)
C224 C -0.0292(12) 0.1476(9) 0.7713(7)
H191 H -0.0805 0.1456 0.7643
C225 C 0.0097(11) 0.1441(9) 0.8191(7)
C226 C 0.0855(11) 0.1495(9) 0.8294(8)
H192 H 0.1102 0.1512 0.8627
C227 C 0.1276(12) 0.1525(10) 0.7928(8)
C228 C -0.0436(15) 0.1629(12) 0.6807(9)
H193 H -0.0138 0.1886 0.6600
H194 H -0.0785 0.1838 0.6896
H195 H -0.0719 0.1210 0.6625
C229 C -0.0267(11) 0.1427(10) 0.8632(7)
H196 H -0.0472 0.0987 0.8693
H197 H -0.0673 0.1616 0.8562
H198 H 0.0109 0.1668 0.8924
C230 C 0.2144(11) 0.1612(10) 0.8065(8)
H199 H 0.2384 0.1926 0.8358
H200 H 0.2367 0.1759 0.7788
H201 H 0.2219 0.1206 0.8133
N9 N -0.0744(10) 0.6821(6) 0.8774(8)
O25 O -0.0204(7) 0.7012(5) 0.8549(5)
O26 O -0.1194(10) 0.6247(6) 0.8661(7)
O27 O -0.0973(10) 0.7220(7) 0.9004(6)
N10 N 0.7755(5) 0.7621(5) 0.5482(3)
O28 O 0.7742(6) 0.7515(5) 0.5928(3)
O29 O 0.7135(5) 0.7490(4) 0.5160(3)
O30 O 0.8376(5) 0.7866(4) 0.5360(3)
O31 O 0.5760(5) 0.4317(4) 0.7356(3)
O32 O 0.5872(7) 0.7424(5) 0.5624(4)
O33 O 0.6678(5) 0.5686(4) 0.7669(3)
O34 O 0.1820(13) 0.8583(9) 0.9796(8)
O35 O 0.0402(12) 0.7775(8) 0.7067(7)
O36 O 0.9142(11) 0.7318(7) 0.7544(6)
O37 O 0.7416(16) 0.7564(13) 0.8136(10)
loop_
_geom_bond_atom_site_label_1
_geom_bond_atom_site_label_2
_geom_bond_site_symmetry_1
_geom_bond_site_symmetry_2
N1 C1 1_555 1_555
C1 H1 1_555 1_555
C2 C1 1_555 1_555
H2 C2 1_555 1_555
C3 C2 1_555 1_555
H3 C3 1_555 1_555
C4 C3 1_555 1_555
C5 N1 1_555 1_555
H4 C5 1_555 1_555
C6 H5 1_555 1_555
C7 C6 1_555 1_555
H6 C7 1_555 1_555
C8 C7 1_555 1_555
H7 C8 1_555 1_555
C9 C8 1_555 1_555
H8 C9 1_555 1_555
C10 C9 1_555 1_555
C11 C10 1_555 1_555
C12 C11 1_555 1_555
C13 C12 1_555 1_555
H9 C13 1_555 1_555
C14 C13 1_555 1_555
H10 C14 1_555 1_555
C15 C14 1_555 1_555
H11 C15 1_555 1_555
C16 C15 1_555 1_555
H12 C16 1_555 1_555
C17 C12 1_555 1_555
C18 C4 1_555 1_555
C19 C6 1_555 1_555
N2 C20 1_555 1_555
C20 H13 1_555 1_555
C21 C20 1_555 1_555
H14 C21 1_555 1_555
C22 C21 1_555 1_555
H15 C22 1_555 1_555
C23 C22 1_555 1_555
C24 N2 1_555 1_555
H16 C24 1_555 1_555
C25 H17 1_555 1_555
C26 C25 1_555 1_555
H18 C26 1_555 1_555
C27 C26 1_555 1_555
H19 C27 1_555 1_555
C28 C27 1_555 1_555
H20 C28 1_555 1_555
C29 C28 1_555 1_555
C30 C29 1_555 1_555
C31 C30 1_555 1_555
C32 C31 1_555 1_555
H21 C32 1_555 1_555
C33 C32 1_555 1_555
H22 C33 1_555 1_555
C34 C33 1_555 1_555
H23 C34 1_555 1_555
C35 C34 1_555 1_555
H24 C35 1_555 1_555
C36 C31 1_555 1_555
C37 C23 1_555 1_555
C38 C25 1_555 1_555
C39 C11 1_555 1_555
C40 C39 1_555 1_555
C41 C40 1_555 1_555
C42 C41 1_555 1_555
C43 C30 1_555 1_555
C44 C39 1_555 1_555
H25 C44 1_555 1_555
N3 C45 1_555 1_555
C45 H26 1_555 1_555
C46 C45 1_555 1_555
H27 C46 1_555 1_555
C47 C46 1_555 1_555
H28 C47 1_555 1_555
C48 C47 1_555 1_555
C49 N3 1_555 1_555
H29 C49 1_555 1_555
C50 H30 1_555 1_555
C51 C50 1_555 1_555
H31 C51 1_555 1_555
C52 C51 1_555 1_555
H32 C52 1_555 1_555
C53 C52 1_555 1_555
H33 C53 1_555 1_555
C54 C53 1_555 1_555
C55 C54 1_555 1_555
C56 C55 1_555 1_555
C57 C56 1_555 1_555
H34 C57 1_555 1_555
C58 C57 1_555 1_555
H35 C58 1_555 1_555
C59 C58 1_555 1_555
H36 C59 1_555 1_555
C60 C59 1_555 1_555
H37 C60 1_555 1_555
C61 C56 1_555 1_555
C62 C48 1_555 1_555
C63 C50 1_555 1_555
N4 C64 1_555 1_555
C64 H38 1_555 1_555
C65 C64 1_555 1_555
H39 C65 1_555 1_555
C66 C65 1_555 1_555
H40 C66 1_555 1_555
C67 C66 1_555 1_555
C68 N4 1_555 1_555
H41 C68 1_555 1_555
C69 H42 1_555 1_555
C70 C69 1_555 1_555
H43 C70 1_555 1_555
C71 C70 1_555 1_555
H44 C71 1_555 1_555
C72 C71 1_555 1_555
H45 C72 1_555 1_555
C73 C72 1_555 1_555
C74 C73 1_555 1_555
C75 C74 1_555 1_555
C76 C75 1_555 1_555
H46 C76 1_555 1_555
C77 C76 1_555 1_555
H47 C77 1_555 1_555
C78 C77 1_555 1_555
H48 C78 1_555 1_555
C79 C78 1_555 1_555
H49 C79 1_555 1_555
C80 C75 1_555 1_555
C81 C67 1_555 1_555
C82 C69 1_555 1_555
C83 C55 1_555 1_555
C84 C83 1_555 1_555
C85 C84 1_555 1_555
C86 C85 1_555 1_555
C87 C74 1_555 1_555
C88 C83 1_555 1_555
H50 C88 1_555 1_555
N5 C89 1_555 1_555
C89 H51 1_555 1_555
C90 C89 1_555 1_555
H52 C90 1_555 1_555
C91 C90 1_555 1_555
H53 C91 1_555 1_555
C92 C91 1_555 1_555
C93 N5 1_555 1_555
H54 C93 1_555 1_555
C94 H55 1_555 1_555
C95 C94 1_555 1_555
H56 C95 1_555 1_555
C96 C95 1_555 1_555
H57 C96 1_555 1_555
C97 C96 1_555 1_555
H58 C97 1_555 1_555
C98 C97 1_555 1_555
C99 C98 1_555 1_555
C100 C99 1_555 1_555
C101 C100 1_555 1_555
H59 C101 1_555 1_555
C102 C101 1_555 1_555
H60 C102 1_555 1_555
C103 C102 1_555 1_555
H61 C103 1_555 1_555
C104 C103 1_555 1_555
H62 C104 1_555 1_555
C105 C100 1_555 1_555
C106 C92 1_555 1_555
C107 C94 1_555 1_555
N6 C108 1_555 1_555
C108 H63 1_555 1_555
C109 C108 1_555 1_555
H64 C109 1_555 1_555
C110 C109 1_555 1_555
H65 C110 1_555 1_555
C111 C110 1_555 1_555
C112 N6 1_555 1_555
H66 C112 1_555 1_555
C113 H67 1_555 1_555
C114 C113 1_555 1_555
H68 C114 1_555 1_555
C115 C114 1_555 1_555
H69 C115 1_555 1_555
C116 C115 1_555 1_555
H70 C116 1_555 1_555
C117 C116 1_555 1_555
C118 C117 1_555 1_555
C119 C118 1_555 1_555
C120 C119 1_555 1_555
H71 C120 1_555 1_555
C121 C120 1_555 1_555
H72 C121 1_555 1_555
C122 C121 1_555 1_555
H73 C122 1_555 1_555
C123 C122 1_555 1_555
H74 C123 1_555 1_555
C124 C119 1_555 1_555
C125 C111 1_555 1_555
C126 C113 1_555 1_555
C127 C99 1_555 1_555
C128 C127 1_555 1_555
C129 C128 1_555 1_555
C130 C129 1_555 1_555
C131 C118 1_555 1_555
C132 C127 1_555 1_555
H75 C132 1_555 1_555
N7 C133 1_555 1_555
C133 H76 1_555 1_555
C134 C133 1_555 1_555
H77 C134 1_555 1_555
C135 C134 1_555 1_555
H78 C135 1_555 1_555
C136 C135 1_555 1_555
C137 N7 1_555 1_555
H79 C137 1_555 1_555
C138 H80 1_555 1_555
C139 C138 1_555 1_555
H81 C139 1_555 1_555
C140 C139 1_555 1_555
H82 C140 1_555 1_555
C141 C140 1_555 1_555
H83 C141 1_555 1_555
C142 C141 1_555 1_555
C143 C142 1_555 1_555
C144 C143 1_555 1_555
C145 C144 1_555 1_555
H84 C145 1_555 1_555
C146 C145 1_555 1_555
H85 C146 1_555 1_555
C147 C146 1_555 1_555
H86 C147 1_555 1_555
C148 C147 1_555 1_555
H87 C148 1_555 1_555
C149 C144 1_555 1_555
C150 C136 1_555 1_555
C151 C138 1_555 1_555
N8 C152 1_555 1_555
C152 H88 1_555 1_555
C153 C152 1_555 1_555
H89 C153 1_555 1_555
C154 C153 1_555 1_555
H90 C154 1_555 1_555
C155 C154 1_555 1_555
C156 N8 1_555 1_555
H91 C156 1_555 1_555
C157 H92 1_555 1_555
C158 C157 1_555 1_555
H93 C158 1_555 1_555
C159 C158 1_555 1_555
H94 C159 1_555 1_555
C160 C159 1_555 1_555
H95 C160 1_555 1_555
C161 C160 1_555 1_555
C162 C161 1_555 1_555
C163 C162 1_555 1_555
C164 C163 1_555 1_555
H96 C164 1_555 1_555
C165 C164 1_555 1_555
H97 C165 1_555 1_555
C166 C165 1_555 1_555
H98 C166 1_555 1_555
C167 C166 1_555 1_555
H99 C167 1_555 1_555
C168 C163 1_555 1_555
C169 C155 1_555 1_555
C170 C157 1_555 1_555
C171 C143 1_555 1_555
C172 C171 1_555 1_555
C173 C172 1_555 1_555
C174 C173 1_555 1_555
C175 C162 1_555 1_555
C176 C171 1_555 1_555
H100 C176 1_555 1_555
O1 C40 1_555 1_555
C177 O1 1_555 1_555
H101 C177 1_555 1_555
H102 C177 1_555 1_555
C178 C177 1_555 1_555
H103 C178 1_555 1_555
H104 C178 1_555 1_555
O2 C178 1_555 1_555
C179 O2 1_555 1_555
H105 C179 1_555 1_555
H106 C179 1_555 1_555
H107 C179 1_555 1_555
O3 C41 1_555 1_555
C180 O3 1_555 1_555
H108 C180 1_555 1_555
H109 C180 1_555 1_555
C181 C180 1_555 1_555
H110 C181 1_555 1_555
H111 C181 1_555 1_555
O4 C181 1_555 1_555
C182 O4 1_555 1_555
H112 C182 1_555 1_555
H113 C182 1_555 1_555
H114 C182 1_555 1_555
O5 C42 1_555 1_555
C183 O5 1_555 1_555
H115 C183 1_555 1_555
H116 C183 1_555 1_555
C184 C183 1_555 1_555
H117 C184 1_555 1_555
H118 C184 1_555 1_555
O6 C184 1_555 1_555
C185 O6 1_555 1_555
H119 C185 1_555 1_555
H120 C185 1_555 1_555
H121 C185 1_555 1_555
O7 C84 1_555 1_555
C186 O7 1_555 1_555
H122 C186 1_555 1_555
H123 C186 1_555 1_555
C187 C186 1_555 1_555
H124 C187 1_555 1_555
H125 C187 1_555 1_555
O8 C187 1_555 1_555
C188 O8 1_555 1_555
H126 C188 1_555 1_555
H127 C188 1_555 1_555
H128 C188 1_555 1_555
O9 C85 1_555 1_555
C189 O9 1_555 1_555
H129 C189 1_555 1_555
H130 C189 1_555 1_555
C190 C189 1_555 1_555
H131 C190 1_555 1_555
H132 C190 1_555 1_555
O10 C190 1_555 1_555
C191 O10 1_555 1_555
H133 C191 1_555 1_555
H134 C191 1_555 1_555
H135 C191 1_555 1_555
O11 C86 1_555 1_555
C192 O11 1_555 1_555
H136 C192 1_555 1_555
H137 C192 1_555 1_555
C193 C192 1_555 1_555
H138 C193 1_555 1_555
H139 C193 1_555 1_555
O12 C193 1_555 1_555
C194 O12 1_555 1_555
H140 C194 1_555 1_555
H141 C194 1_555 1_555
H142 C194 1_555 1_555
O13 C128 1_555 1_555
C195 O13 1_555 1_555
H143 C195 1_555 1_555
H144 C195 1_555 1_555
C196 C195 1_555 1_555
H145 C196 1_555 1_555
H146 C196 1_555 1_555
O14 C196 1_555 1_555
C197 O14 1_555 1_555
H147 C197 1_555 1_555
H148 C197 1_555 1_555
H149 C197 1_555 1_555
O15 C129 1_555 1_555
C198 O15 1_555 1_555
H150 C198 1_555 1_555
H151 C198 1_555 1_555
C199 C198 1_555 1_555
H152 C199 1_555 1_555
H153 C199 1_555 1_555
O16 C199 1_555 1_555
C200 O16 1_555 1_555
H154 C200 1_555 1_555
H155 C200 1_555 1_555
H156 C200 1_555 1_555
O17 C130 1_555 1_555
C201 O17 1_555 1_555
H157 C201 1_555 1_555
H158 C201 1_555 1_555
C202 C201 1_555 1_555
H159 C202 1_555 1_555
H160 C202 1_555 1_555
O18 C202 1_555 1_555
C203 O18 1_555 1_555
H161 C203 1_555 1_555
H162 C203 1_555 1_555
H163 C203 1_555 1_555
O19 C172 1_555 1_555
C204 O19 1_555 1_555
H164 C204 1_555 1_555
H165 C204 1_555 1_555
C205 C204 1_555 1_555
H166 C205 1_555 1_555
H167 C205 1_555 1_555
O20 C205 1_555 1_555
C206 O20 1_555 1_555
H168 C206 1_555 1_555
H169 C206 1_555 1_555
H170 C206 1_555 1_555
O21 C173 1_555 1_555
C207 O21 1_555 1_555
H171 C207 1_555 1_555
H172 C207 1_555 1_555
C208 C207 1_555 1_555
H173 C208 1_555 1_555
H174 C208 1_555 1_555
O22 C208 1_555 1_555
C209 O22 1_555 1_555
H175 C209 1_555 1_555
H176 C209 1_555 1_555
H177 C209 1_555 1_555
O23 C174 1_555 1_555
C210 O23 1_555 1_555
C211 C210 1_555 1_555
O24 C211 1_555 1_555
C212 O24 1_555 1_555
Pt1 N1 1_555 1_555
Pt2 N2 1_555 1_555
C213 H178 1_555 1_555
C214 C213 1_555 1_555
C215 C214 1_555 1_555
H179 C215 1_555 1_555
C216 C215 1_555 1_555
C217 C216 1_555 1_555
H180 C217 1_555 1_555
C218 C213 1_555 1_555
C219 C214 1_555 1_555
H181 C219 1_555 1_555
H182 C219 1_555 1_555
H183 C219 1_555 1_555
C220 C216 1_555 1_555
H184 C220 1_555 1_555
H185 C220 1_555 1_555
H186 C220 1_555 1_555
C221 C218 1_555 1_555
H187 C221 1_555 1_555
H188 C221 1_555 1_555
H189 C221 1_555 1_555
C222 H190 1_555 1_555
C223 C222 1_555 1_555
C224 C223 1_555 1_555
H191 C224 1_555 1_555
C225 C224 1_555 1_555
C226 C225 1_555 1_555
H192 C226 1_555 1_555
C227 C222 1_555 1_555
C228 C223 1_555 1_555
H193 C228 1_555 1_555
H194 C228 1_555 1_555
H195 C228 1_555 1_555
C229 C225 1_555 1_555
H196 C229 1_555 1_555
H197 C229 1_555 1_555
H198 C229 1_555 1_555
C230 C227 1_555 1_555
H199 C230 1_555 1_555
H200 C230 1_555 1_555
H201 C230 1_555 1_555
N9 O25 1_555 1_555
O26 N9 1_555 1_555
O27 N9 1_555 1_555
N10 O28 1_555 1_555
O29 N10 1_555 1_555
O30 N10 1_555 1_555
C4 C5 1_555 1_555
C10 C19 1_555 1_555
C16 C17 1_555 1_555
C17 C18 1_555 1_555
C18 C19 1_555 1_555
C23 C24 1_555 1_555
C29 C38 1_555 1_555
C35 C36 1_555 1_555
C36 C37 1_555 1_555
C37 C38 1_555 1_555
C42 C43 1_555 1_555
C43 C44 1_555 1_555
N3 Pt1 1_555 1_555
C48 C49 1_555 1_555
C54 C63 1_555 1_555
C60 C61 1_555 1_555
C61 C62 1_555 1_555
C62 C63 1_555 1_555
N4 Pt2 1_555 1_555
C67 C68 1_555 1_555
C73 C82 1_555 1_555
C79 C80 1_555 1_555
C80 C81 1_555 1_555
C81 C82 1_555 1_555
C86 C87 1_555 1_555
C87 C88 1_555 1_555
N5 Pt1 1_555 1_555
C92 C93 1_555 1_555
C98 C107 1_555 1_555
C104 C105 1_555 1_555
C105 C106 1_555 1_555
C106 C107 1_555 1_555
N6 Pt2 1_555 1_555
C111 C112 1_555 1_555
C117 C126 1_555 1_555
C123 C124 1_555 1_555
C124 C125 1_555 1_555
C125 C126 1_555 1_555
C130 C131 1_555 1_555
C131 C132 1_555 1_555
N7 Pt1 1_555 1_555
C136 C137 1_555 1_555
C142 C151 1_555 1_555
C148 C149 1_555 1_555
C149 C150 1_555 1_555
C150 C151 1_555 1_555
N8 Pt2 1_555 1_555
C155 C156 1_555 1_555
C161 C170 1_555 1_555
C167 C168 1_555 1_555
C168 C169 1_555 1_555
C169 C170 1_555 1_555
C174 C175 1_555 1_555
C175 C176 1_555 1_555
C217 C218 1_555 1_555
C226 C227 1_555 1_555

#END
