
#######################################################################
#
#                 Cambridge Crystallographic Data Centre
#                                CCDC 
#
#######################################################################
#
# If this CIF has been generated from an entry in the Cambridge 
# Structural Database, then it will include bibliographic, chemical, 
# crystal, experimental, refinement or atomic coordinate data resulting 
# from the CCDC's data processing and validation procedures.
#
#######################################################################

data_ICOVII
_chemical_formula_moiety         
'C212 H184 N8 O24 Pt2 4+,4(N1 O3 1-),2(C7 H8 N4 O2),5(H2 O1)'
_chemical_name_systematic        
'tetrakis(\m-1,3-bis(10-(pyridin-3-yl)-9-anthryl)-4,5,6-tris(2-methoxyethoxy)benzene)-di-platinum(ii) tetranitrate bis(theobromine) clathrate unknown solvate pentahydrate'
_symmetry_cell_setting           triclinic
_symmetry_space_group_name_H-M   'P -1'
_symmetry_Int_Tables_number      2
_space_group_name_Hall           '-P 1'
loop_
_symmetry_equiv_pos_site_id
_symmetry_equiv_pos_as_xyz
1 x,y,z
2 -x,-y,-z
_cell_length_a                   18.704(3)
_cell_length_b                   22.040(3)
_cell_length_c                   27.152(4)
_cell_angle_alpha                93.433(2)
_cell_angle_beta                 101.402(2)
_cell_angle_gamma                106.859(2)
_cell_volume                     10418.3
_exptl_crystal_colour            yellow
_exptl_crystal_description       prism
_cell_formula_units_Z            2
loop_
_atom_site_label
_atom_site_type_symbol
_atom_site_fract_x
_atom_site_fract_y
_atom_site_fract_z
C1 C 0.5712(8) 1.1062(7) 0.8804(5)
H1 H 0.6036 1.1460 0.8748
C2 C 0.5528(8) 1.0996(7) 0.9266(6)
H2 H 0.5740 1.1344 0.9530
C3 C 0.5045(8) 1.0439(7) 0.9353(6)
H3 H 0.4920 1.0397 0.9674
C4 C 0.4737(8) 0.9930(7) 0.8962(5)
C5 C 0.4971(8) 1.0021(7) 0.8521(5)
H4 H 0.4791 0.9672 0.8259
C6 C 0.3114(8) 0.9611(7) 0.8545(5)
H5 H 0.3451 1.0023 0.8534
C7 C 0.2364(8) 0.9467(7) 0.8320(5)
H6 H 0.2174 0.9777 0.8158
C8 C 0.1860(8) 0.8846(6) 0.8327(5)
H7 H 0.1333 0.8743 0.8165
C9 C 0.2114(8) 0.8408(7) 0.8558(5)
H8 H 0.1763 0.7996 0.8549
C10 C 0.2891(8) 0.8533(6) 0.8816(5)
C11 C 0.3190(8) 0.8087(7) 0.9072(5)
C12 C 0.3968(9) 0.8250(7) 0.9306(6)
C13 C 0.4264(9) 0.7798(8) 0.9596(6)
H9 H 0.3932 0.7401 0.9647
C14 C 0.5038(10) 0.7971(8) 0.9788(6)
H10 H 0.5237 0.7677 0.9968
C15 C 0.5567(10) 0.8567(8) 0.9737(6)
H11 H 0.6100 0.8666 0.9880
C16 C 0.5285(9) 0.8984(8) 0.9478(6)
H12 H 0.5633 0.9377 0.9434
C17 C 0.4480(9) 0.8857(7) 0.9267(6)
C18 C 0.4209(8) 0.9307(7) 0.9021(5)
C19 C 0.3410(8) 0.9157(6) 0.8798(5)
C20 C 0.3717(7) 0.3541(6) 0.6978(5)
H13 H 0.3888 0.3247 0.6799
C21 C 0.2937(8) 0.3429(6) 0.6932(5)
H14 H 0.2576 0.3060 0.6728
C22 C 0.2689(8) 0.3876(6) 0.7195(5)
H15 H 0.2160 0.3824 0.7167
C23 C 0.3247(8) 0.4388(6) 0.7492(5)
C24 C 0.3989(7) 0.4470(6) 0.7519(5)
H16 H 0.4358 0.4835 0.7722
C25 C 0.3314(7) 0.4427(6) 0.8576(5)
H17 H 0.3427 0.4093 0.8400
C26 C 0.3392(7) 0.4461(6) 0.9078(5)
H18 H 0.3587 0.4163 0.9255
C27 C 0.3194(7) 0.4925(6) 0.9352(5)
H19 H 0.3236 0.4926 0.9706
C28 C 0.2943(7) 0.5371(6) 0.9112(5)
H20 H 0.2818 0.5686 0.9302
C29 C 0.2862(7) 0.5376(6) 0.8573(5)
C30 C 0.2620(8) 0.5840(6) 0.8323(5)
C31 C 0.2623(8) 0.5875(6) 0.7810(5)
C32 C 0.2434(8) 0.6361(7) 0.7541(5)
H21 H 0.2268 0.6666 0.7711
C33 C 0.2480(8) 0.6407(7) 0.7050(5)
H22 H 0.2373 0.6753 0.6890
C34 C 0.2687(8) 0.5942(7) 0.6777(6)
H23 H 0.2701 0.5965 0.6430
C35 C 0.2871(8) 0.5450(7) 0.7021(5)
H24 H 0.3025 0.5147 0.6839
C36 C 0.2833(8) 0.5391(6) 0.7522(5)
C37 C 0.3014(7) 0.4890(6) 0.7777(5)
C38 C 0.3056(7) 0.4896(6) 0.8294(5)
C39 C 0.2667(8) 0.7411(7) 0.9020(5)
C40 C 0.2022(8) 0.7205(7) 0.9219(6)
C41 C 0.1543(9) 0.6582(7) 0.9096(6)
C42 C 0.1703(8) 0.6151(7) 0.8780(6)
C43 C 0.2387(8) 0.6327(7) 0.8608(5)
C44 C 0.2846(8) 0.6945(6) 0.8735(5)
H25 H 0.3313 0.7067 0.8625
C45 C 0.7388(7) 1.1283(6) 0.8035(5)
H26 H 0.7274 1.1611 0.7853
C46 C 0.8150(7) 1.1346(6) 0.8250(5)
H27 H 0.8551 1.1710 0.8216
C47 C 0.8308(7) 1.0870(6) 0.8511(5)
H28 H 0.8826 1.0891 0.8641
C48 C 0.7722(7) 1.0358(6) 0.8587(5)
C49 C 0.6976(7) 1.0326(6) 0.8353(5)
H29 H 0.6564 0.9971 0.8388
C50 C 0.7401(7) 1.0246(6) 0.9602(5)
H30 H 0.7268 1.0564 0.9415
C51 C 0.7284(7) 1.0218(6) 1.0062(5)
H31 H 0.7084 1.0522 1.0202
C52 C 0.7451(7) 0.9739(6) 1.0355(5)
H32 H 0.7356 0.9717 1.0686
C53 C 0.7748(7) 0.9313(6) 1.0152(5)
H33 H 0.7863 0.8997 1.0349
C54 C 0.7891(7) 0.9323(6) 0.9662(5)
C55 C 0.8182(7) 0.8879(6) 0.9449(5)
C56 C 0.8273(7) 0.8877(6) 0.8944(5)
C57 C 0.8530(7) 0.8410(6) 0.8709(5)
H34 H 0.8666 0.8098 0.8901
C58 C 0.8584(7) 0.8397(6) 0.8221(5)
H35 H 0.8753 0.8076 0.8074
C59 C 0.8387(7) 0.8872(6) 0.7919(5)
H36 H 0.8405 0.8853 0.7572
C60 C 0.8174(7) 0.9344(6) 0.8138(5)
H37 H 0.8072 0.9667 0.7945
C61 C 0.8104(7) 0.9363(6) 0.8647(5)
C62 C 0.7844(7) 0.9826(6) 0.8867(5)
C63 C 0.7726(7) 0.9812(6) 0.9366(5)
C64 C 0.5179(9) 0.3726(7) 0.8273(6)
H38 H 0.4869 0.3351 0.8052
C65 C 0.5238(9) 0.3725(7) 0.8776(6)
H39 H 0.4955 0.3361 0.8904
C66 C 0.5712(9) 0.4254(7) 0.9105(6)
H40 H 0.5781 0.4255 0.9461
C67 C 0.6088(8) 0.4790(7) 0.8897(5)
C68 C 0.5972(8) 0.4763(7) 0.8392(5)
H41 H 0.6204 0.5133 0.8250
C69 C 0.7725(8) 0.5176(7) 0.8958(5)
H42 H 0.7410 0.4764 0.8798
C70 C 0.8487(8) 0.5382(7) 0.8944(6)
H43 H 0.8702 0.5103 0.8786
C71 C 0.8955(9) 0.6004(7) 0.9161(5)
H44 H 0.9476 0.6143 0.9136
C72 C 0.8669(8) 0.6408(7) 0.9407(5)
H45 H 0.8992 0.6825 0.9550
C73 C 0.7879(8) 0.6205(7) 0.9451(5)
C74 C 0.7579(8) 0.6607(6) 0.9721(5)
C75 C 0.6802(7) 0.6399(6) 0.9753(5)
C76 C 0.6482(8) 0.6780(6) 1.0034(5)
H46 H 0.6801 0.7182 1.0212
C77 C 0.5727(8) 0.6577(6) 1.0049(5)
H47 H 0.5528 0.6829 1.0247
C78 C 0.5235(8) 0.5986(6) 0.9769(5)
H48 H 0.4704 0.5858 0.9769
C79 C 0.5514(8) 0.5609(7) 0.9504(5)
H49 H 0.5175 0.5215 0.9323
C80 C 0.6315(8) 0.5786(6) 0.9487(5)
C81 C 0.6612(8) 0.5390(6) 0.9222(5)
C82 C 0.7405(8) 0.5585(7) 0.9217(5)
C83 C 0.8380(7) 0.8383(6) 0.9753(5)
C84 C 0.9024(7) 0.8534(6) 1.0160(5)
C85 C 0.9157(7) 0.8087(6) 1.0458(5)
C86 C 0.8691(7) 0.7440(6) 1.0343(5)
C87 C 0.8055(7) 0.7273(6) 0.9924(5)
C88 C 0.7912(7) 0.7752(6) 0.9655(5)
H50 H 0.7467 0.7645 0.9388
C89 C 0.5783(7) 1.1063(6) 0.6738(5)
H51 H 0.5488 1.1320 0.6829
C90 C 0.5992(8) 1.1097(6) 0.6286(5)
H52 H 0.5804 1.1350 0.6053
C91 C 0.6476(7) 1.0769(6) 0.6157(5)
H53 H 0.6650 1.0817 0.5851
C92 C 0.6696(7) 1.0369(6) 0.6493(5)
C93 C 0.6447(7) 1.0336(6) 0.6938(5)
H54 H 0.6603 1.0070 0.7171
C94 C 0.8303(8) 1.0674(6) 0.7029(5)
H55 H 0.8032 1.0970 0.7073
C95 C 0.9021(8) 1.0796(7) 0.7302(5)
H56 H 0.9247 1.1176 0.7534
C96 C 0.9453(8) 1.0367(6) 0.7251(5)
H57 H 0.9956 1.0452 0.7453
C97 C 0.9132(8) 0.9832(6) 0.6907(5)
H58 H 0.9426 0.9553 0.6869
C98 C 0.8383(7) 0.9675(6) 0.6604(5)
C99 C 0.8075(7) 0.9142(6) 0.6242(5)
C100 C 0.7333(7) 0.9029(6) 0.5932(5)
C101 C 0.7015(7) 0.8484(6) 0.5540(5)
H59 H 0.7299 0.8197 0.5499
C102 C 0.6309(7) 0.8381(6) 0.5230(5)
H60 H 0.6114 0.8035 0.4965
C103 C 0.5862(8) 0.8795(6) 0.5303(5)
H61 H 0.5370 0.8717 0.5088
C104 C 0.6131(7) 0.9294(6) 0.5675(5)
H62 H 0.5820 0.9555 0.5723
C105 C 0.6888(7) 0.9437(6) 0.6000(5)
C106 C 0.7187(7) 0.9965(6) 0.6384(5)
C107 C 0.7934(7) 1.0112(6) 0.6672(5)
C108 C 0.6948(8) 0.4175(6) 0.7581(5)
H63 H 0.6713 0.3784 0.7698
C109 C 0.7716(8) 0.4358(6) 0.7609(5)
H64 H 0.8014 0.4100 0.7748
C110 C 0.8062(8) 0.4925(6) 0.7434(5)
H65 H 0.8596 0.5051 0.7446
C111 C 0.7625(8) 0.5310(6) 0.7240(5)
C112 C 0.6847(8) 0.5115(6) 0.7230(5)
H66 H 0.6546 0.5381 0.7113
C113 C 0.7071(7) 0.5448(6) 0.6179(5)
H67 H 0.6876 0.5053 0.6302
C114 C 0.6805(7) 0.5512(6) 0.5688(5)
H68 H 0.6447 0.5153 0.5471
C115 C 0.7043(7) 0.6096(6) 0.5489(5)
H69 H 0.6841 0.6133 0.5146
C116 C 0.7572(7) 0.6609(6) 0.5800(5)
H70 H 0.7726 0.7007 0.5672
C117 C 0.7902(7) 0.6558(6) 0.6315(5)
C118 C 0.8495(7) 0.7073(6) 0.6610(5)
C119 C 0.8857(7) 0.7009(6) 0.7110(5)
C120 C 0.9515(7) 0.7503(6) 0.7405(5)
H71 H 0.9731 0.7876 0.7260
C121 C 0.9830(8) 0.7447(6) 0.7883(5)
H72 H 1.0251 0.7786 0.8076
C122 C 0.9535(8) 0.6878(6) 0.8103(5)
H73 H 0.9775 0.6835 0.8436
C123 C 0.8917(8) 0.6402(7) 0.7840(5)
H74 H 0.8711 0.6043 0.8002
C124 C 0.8562(8) 0.6421(6) 0.7325(5)
C125 C 0.7953(7) 0.5907(6) 0.7027(5)
C126 C 0.7643(7) 0.5969(6) 0.6518(5)
C127 C 0.8507(7) 0.8685(6) 0.6189(5)
C128 C 0.9032(7) 0.8761(6) 0.5879(5)
C129 C 0.9427(8) 0.8309(6) 0.5833(5)
C130 C 0.9267(8) 0.7777(6) 0.6087(5)
C131 C 0.8734(7) 0.7684(6) 0.6394(5)
C132 C 0.8371(7) 0.8141(6) 0.6442(5)
H75 H 0.8016 0.8085 0.6654
C133 C 0.4159(7) 1.0794(6) 0.7592(5)
H76 H 0.4400 1.1167 0.7831
C134 C 0.3352(7) 1.0598(6) 0.7402(5)
H77 H 0.3054 1.0825 0.7531
C135 C 0.3005(8) 1.0097(6) 0.7042(5)
H78 H 0.2470 0.9988 0.6902
C136 C 0.3434(7) 0.9737(6) 0.6875(5)
C137 C 0.4209(7) 0.9924(6) 0.7083(5)
H79 H 0.4501 0.9674 0.6978
C138 C 0.3942(7) 0.9705(6) 0.5937(5)
H80 H 0.4078 1.0100 0.6148
C139 C 0.4244(8) 0.9669(6) 0.5525(5)
H81 H 0.4592 1.0042 0.5450
C140 C 0.4054(7) 0.9095(6) 0.5208(5)
H82 H 0.4285 0.9083 0.4927
C141 C 0.3537(7) 0.8544(6) 0.5297(5)
H83 H 0.3421 0.8155 0.5083
C142 C 0.3175(7) 0.8565(6) 0.5719(5)
C143 C 0.2628(7) 0.8026(6) 0.5800(5)
C144 C 0.2272(7) 0.8043(6) 0.6221(5)
C145 C 0.1685(7) 0.7514(6) 0.6303(5)
H84 H 0.1498 0.7139 0.6065
C146 C 0.1389(7) 0.7535(6) 0.6711(5)
H85 H 0.0992 0.7176 0.6756
C147 C 0.1657(7) 0.8081(6) 0.7074(5)
H86 H 0.1447 0.8080 0.7365
C148 C 0.2213(7) 0.8610(6) 0.7013(5)
H87 H 0.2377 0.8976 0.7260
C149 C 0.2555(7) 0.8627(6) 0.6586(5)
C150 C 0.3111(7) 0.9156(6) 0.6491(5)
C151 C 0.3411(7) 0.9140(6) 0.6055(5)
C152 C 0.5384(7) 0.4010(6) 0.6249(5)
H88 H 0.5673 0.3739 0.6374
C153 C 0.5201(7) 0.4035(6) 0.5728(5)
H89 H 0.5378 0.3797 0.5503
C154 C 0.4752(7) 0.4417(6) 0.5544(5)
H90 H 0.4613 0.4439 0.5191
C155 C 0.4510(7) 0.4769(6) 0.5896(5)
C156 C 0.4734(7) 0.4727(6) 0.6400(5)
H91 H 0.4582 0.4968 0.6638
C157 C 0.2861(8) 0.4300(6) 0.5788(5)
H92 H 0.3168 0.4031 0.5882
C158 C 0.2097(8) 0.4082(7) 0.5765(5)
H93 H 0.1872 0.3660 0.5835
C159 C 0.1636(9) 0.4478(7) 0.5637(5)
H94 H 0.1106 0.4331 0.5636
C160 C 0.1952(8) 0.5074(7) 0.5514(5)
H95 H 0.1627 0.5329 0.5420
C161 C 0.2732(8) 0.5326(6) 0.5522(5)
C162 C 0.3061(8) 0.5948(6) 0.5402(5)
C163 C 0.3864(8) 0.6183(6) 0.5448(5)
C164 C 0.4214(8) 0.6803(6) 0.5337(5)
H96 H 0.3900 0.7047 0.5194
C165 C 0.4974(8) 0.7054(7) 0.5426(5)
H97 H 0.5194 0.7478 0.5359
C166 C 0.5458(8) 0.6691(6) 0.5620(5)
H98 H 0.5999 0.6875 0.5679
C167 C 0.5162(8) 0.6089(6) 0.5723(5)
H99 H 0.5493 0.5855 0.5858
C168 C 0.4336(8) 0.5802(6) 0.5625(5)
C169 C 0.4012(7) 0.5181(6) 0.5726(5)
C170 C 0.3213(8) 0.4923(6) 0.5674(5)
C171 C 0.2396(8) 0.7417(6) 0.5458(5)
C172 C 0.1863(8) 0.7305(7) 0.5004(5)
C173 C 0.1660(9) 0.6726(7) 0.4696(6)
C174 C 0.2020(9) 0.6267(7) 0.4817(6)
C175 C 0.2592(8) 0.6388(7) 0.5271(5)
C176 C 0.2743(8) 0.6948(6) 0.5582(5)
H100 H 0.3102 0.7019 0.5897
O1 O 0.1814(5) 0.7611(5) 0.9524(3)
C177 C 0.2350(7) 0.7891(8) 0.9998(4)
H101 H 0.2745 0.8277 0.9947
H102 H 0.2611 0.7582 1.0130
C178 C 0.1927(9) 0.8064(6) 1.0369(6)
H103 H 0.2293 0.8354 1.0662
H104 H 0.1569 0.8286 1.0208
O2 O 0.1517(6) 0.7501(5) 1.0534(4)
C179 C 0.0730(7) 0.7422(10) 1.0499(8)
H105 H 0.0670 0.7821 1.0637
H106 H 0.0521 0.7078 1.0692
H107 H 0.0453 0.7312 1.0143
O3 O 0.0877(6) 0.6399(5) 0.9273(4)
C180 C 0.1005(11) 0.6199(7) 0.9767(5)
H108 H 0.0586 0.6231 0.9931
H109 H 0.1493 0.6490 0.9977
C181 C 0.1038(8) 0.5532(6) 0.9749(7)
H110 H 0.1431 0.5484 0.9566
H111 H 0.1171 0.5421 1.0096
O4 O 0.0304(7) 0.5128(6) 0.9492(5)
C182 C 0.0342(13) 0.4497(7) 0.9400(9)
H112 H 0.0823 0.4467 0.9602
H113 H 0.0321 0.4397 0.9040
H114 H -0.0092 0.4193 0.9494
O5 O 0.1234(5) 0.5516(5) 0.8657(4)
C183 C 0.0513(7) 0.5422(8) 0.8305(5)
H115 H 0.0183 0.5600 0.8475
H116 H 0.0252 0.4958 0.8211
C184 C 0.0591(7) 0.5725(8) 0.7832(5)
H117 H 0.0755 0.6196 0.7913
H118 H 0.0991 0.5610 0.7692
O6 O -0.0108(6) 0.5523(6) 0.7466(4)
C185 C -0.0076(11) 0.5810(9) 0.7010(5)
H119 H 0.0023 0.6271 0.7083
H120 H -0.0565 0.5624 0.6764
H121 H 0.0338 0.5731 0.6869
O7 O 0.9463(4) 0.9177(4) 1.0266(3)
C186 C 1.0269(5) 0.9325(6) 1.0273(4)
H122 H 1.0489 0.9063 1.0506
H123 H 1.0528 0.9779 1.0410
C187 C 1.0434(7) 0.9208(5) 0.9767(4)
H124 H 1.0094 0.9357 0.9507
H125 H 1.0972 0.9449 0.9772
O8 O 1.0309(5) 0.8550(4) 0.9649(3)
C188 C 1.0528(9) 0.8419(7) 0.9192(5)
H126 H 1.0298 0.8632 0.8927
H127 H 1.0349 0.7957 0.9088
H128 H 1.1088 0.8577 0.9247
O9 O 0.9780(5) 0.8244(4) 1.0864(3)
C189 C 0.9573(7) 0.8282(5) 1.1345(4)
H129 H 1.0012 0.8283 1.1617
H130 H 0.9139 0.7900 1.1352
C190 C 0.9352(6) 0.8867(4) 1.1445(5)
H131 H 0.8916 0.8871 1.1173
H132 H 0.9187 0.8865 1.1770
O10 O 0.9976(5) 0.9420(4) 1.1467(3)
C191 C 0.9744(8) 0.9980(5) 1.1462(6)
H133 H 0.9297 0.9914 1.1183
H134 H 1.0165 1.0342 1.1415
H135 H 0.9611 1.0071 1.1783
O11 O 0.8921(5) 0.7027(4) 1.0636(3)
C192 C 0.8346(7) 0.6512(6) 1.0770(5)
H136 H 0.8206 0.6130 1.0517
H137 H 0.7879 0.6638 1.0771
C193 C 0.8649(10) 0.6356(7) 1.1283(4)
H138 H 0.8326 0.5932 1.1335
H139 H 0.9178 0.6340 1.1309
O12 O 0.8645(7) 0.6827(6) 1.1657(4)
C194 C 0.8945(13) 0.6737(11) 1.2160(5)
H140 H 0.8722 0.6291 1.2210
H141 H 0.8817 0.7018 1.2398
H142 H 0.9503 0.6840 1.2218
O13 O 0.9187(5) 0.9305(4) 0.5645(3)
C195 C 0.9074(6) 0.9225(7) 0.5103(4)
H143 H 0.9157 0.8819 0.4993
H144 H 0.9459 0.9578 0.5001
C196 C 0.8294(7) 0.9217(5) 0.4841(5)
H145 H 0.8224 0.9120 0.4471
H146 H 0.7903 0.8881 0.4954
O14 O 0.8200(5) 0.9818(4) 0.4955(4)
C197 C 0.7457(6) 0.9840(7) 0.4722(6)
H147 H 0.7331 0.9668 0.4364
H148 H 0.7450 1.0284 0.4752
H149 H 0.7078 0.9584 0.4892
O15 O 0.9936(4) 0.8386(4) 0.5516(3)
C198 C 1.0731(5) 0.8555(5) 0.5775(5)
H150 H 1.1014 0.8378 0.5561
H151 H 1.0771 0.8362 0.6095
C199 C 1.1088(7) 0.9262(5) 0.5887(4)
H152 H 1.1653 0.9371 0.5956
H153 H 1.0917 0.9470 0.5593
O16 O 1.0866(5) 0.9481(4) 0.6314(3)
C200 C 1.0929(9) 1.0142(5) 0.6337(6)
H154 H 1.1462 1.0392 0.6352
H155 H 1.0775 1.0274 0.6641
H156 H 1.0595 1.0215 0.6036
O17 O 0.9639(5) 0.7317(4) 0.6055(3)
C201 C 0.9529(9) 0.6989(5) 0.5557(4)
H157 H 0.9965 0.7195 0.5405
H158 H 0.9054 0.7017 0.5336
C202 C 0.9475(7) 0.6305(6) 0.5590(6)
H159 H 0.9085 0.6116 0.5782
H160 H 0.9310 0.6067 0.5245
O18 O 1.0185(6) 0.6242(5) 0.5831(4)
C203 C 1.0183(11) 0.5597(6) 0.5754(7)
H161 H 0.9726 0.5315 0.5841
H162 H 1.0644 0.5549 0.5970
H163 H 1.0176 0.5484 0.5398
O19 O 0.1524(5) 0.7773(4) 0.4876(3)
C204 C 0.1694(9) 0.8045(6) 0.4426(5)
H164 H 0.1419 0.7726 0.4125
H165 H 0.2251 0.8150 0.4443
C205 C 0.1461(6) 0.8633(6) 0.4373(6)
H166 H 0.1626 0.8909 0.4702
H167 H 0.1703 0.8878 0.4123
O20 O 0.0657(6) 0.8443(5) 0.4210(4)
C206 C 0.0378(10) 0.8972(7) 0.4121(7)
H168 H 0.0537 0.9272 0.4432
H169 H -0.0183 0.8820 0.4018
H170 H 0.0588 0.9187 0.3852
O21 O 0.1139(5) 0.6613(5) 0.4238(4)
C207 C 0.0359(6) 0.6498(9) 0.4278(5)
H171 H 0.0305 0.6873 0.4468
H172 H 0.0199 0.6122 0.4459
C208 C -0.0124(9) 0.6379(6) 0.3751(5)
H173 H -0.0619 0.6461 0.3743
H174 H 0.0146 0.6639 0.3520
O22 O -0.0223(8) 0.5726(6) 0.3636(5)
C209 C -0.0776(10) 0.5501(10) 0.3169(6)
H175 H -0.1269 0.5546 0.3208
H176 H -0.0838 0.5050 0.3072
H177 H -0.0602 0.5751 0.2905
O23 O 0.1838(7) 0.5693(5) 0.4500(4)
C210 C 0.2013(10) 0.5761(10) 0.4007(4)
H178 H 0.2280 0.5440 0.3963
H179 H 0.2412 0.6181 0.4056
C211 C 0.1529(12) 0.5730(9) 0.3495(5)
H180 H 0.1623 0.5390 0.3287
H181 H 0.0997 0.5552 0.3536
O24 O 0.1493(8) 0.6203(7) 0.3172(6)
C212 C 0.0768(8) 0.6095(11) 0.2835(4)
H182 H 0.0835 0.6109 0.2486
H183 H 0.0545 0.6427 0.2922
H184 H 0.0425 0.5675 0.2864
N1 N 0.5444(6) 1.0577(5) 0.8431(4)
N2 N 0.4234(6) 0.4050(5) 0.7267(4)
N3 N 0.6815(6) 1.0780(5) 0.8076(4)
N4 N 0.5533(6) 0.4225(5) 0.8076(4)
N5 N 0.5987(6) 1.0673(5) 0.7054(4)
N6 N 0.6506(6) 0.4543(5) 0.7388(4)
N7 N 0.4583(6) 1.0451(5) 0.7433(4)
N8 N 0.5169(6) 0.4352(5) 0.6571(4)
Pt1 Pt 0.57070(3) 1.06411(2) 0.77449(2)
Pt2 Pt 0.53663(3) 0.42726(2) 0.73239(2)
C213 C 0.7137(14) 0.6730(12) 0.8208(9)
H185 H 0.6979 0.6815 0.8522
H186 H 0.7695 0.6820 0.8281
H187 H 0.6887 0.6281 0.8067
C214 C 0.7021(13) 0.7075(12) 0.7365(9)
H188 H 0.7215 0.6765 0.7229
C215 C 0.6517(14) 0.7841(11) 0.7460(9)
C216 C 0.6612(14) 0.7626(11) 0.7888(10)
C217 C 0.6402(14) 0.7836(11) 0.8291(9)
C218 C 0.5997(13) 0.8603(11) 0.7794(9)
C219 C 0.6116(14) 0.8547(12) 0.6894(9)
H189 H 0.5580 0.8514 0.6753
H190 H 0.6273 0.8254 0.6683
H191 H 0.6441 0.8986 0.6900
N9 N 0.6915(11) 0.7140(9) 0.7843(8)
N10 N 0.6762(11) 0.7615(9) 0.7066(7)
N11 N 0.6191(11) 0.8384(9) 0.7384(7)
N12 N 0.6111(10) 0.8337(9) 0.8215(7)
H192 H 0.5985 0.8500 0.8476
O25 O 0.6417(9) 0.7596(8) 0.8723(6)
O26 O 0.5676(8) 0.9074(7) 0.7778(5)
C220 C 0.3947(13) 0.8153(11) 0.7188(9)
H193 H 0.4356 0.8352 0.7017
H194 H 0.3832 0.8486 0.7384
H195 H 0.3486 0.7907 0.6935
C221 C 0.4158(13) 0.7743(11) 0.8020(9)
H196 H 0.3980 0.8036 0.8194
C222 C 0.4567(13) 0.7028(11) 0.7835(9)
C223 C 0.4440(13) 0.7282(11) 0.7387(9)
C224 C 0.4610(14) 0.6993(11) 0.6946(9)
C225 C 0.5038(13) 0.6270(11) 0.7429(9)
C226 C 0.4994(13) 0.6250(11) 0.8373(9)
H197 H 0.5319 0.6592 0.8641
H198 H 0.5242 0.5919 0.8343
H199 H 0.4496 0.6064 0.8457
N13 N 0.4189(11) 0.7743(9) 0.7515(7)
N14 N 0.4398(10) 0.7299(9) 0.8236(7)
N15 N 0.4882(10) 0.6507(9) 0.7904(7)
N16 N 0.4894(10) 0.6551(9) 0.7046(7)
H200 H 0.5025 0.6397 0.6782
O27 O 0.4497(10) 0.7248(8) 0.6537(6)
O28 O 0.5325(9) 0.5820(7) 0.7427(6)
O29 O 0.0764(7) 0.9291(6) 0.7355(4)
O30 O 0.4080(12) 0.1314(10) 0.6460(8)
O31 O 0.9129(9) 0.7550(7) 0.4362(6)
O32 O 0.0400(15) 0.7661(12) 0.3182(10)
O33 O 0.4275(17) 0.2331(14) 0.7511(11)
N17 N 0.7261(6) 0.7364(8) 0.4508(4)
O34 O 0.7865(7) 0.7498(6) 0.4832(5)
O35 O 0.7279(7) 0.7471(7) 0.4067(5)
O36 O 0.6640(7) 0.7150(7) 0.4625(5)
N18 N 0.6486(14) 0.3258(12) 0.9610(12)
O37 O 0.5985(15) 0.3340(13) 0.9863(11)
O38 O 0.6292(15) 0.2758(12) 0.9269(11)
O39 O 0.7113(15) 0.3729(13) 0.9633(11)
N19 N 0.3292(9) 0.1508(10) 0.8829(11)
O40 O 0.2526(12) 0.1279(10) 0.8640(9)
O41 O 0.3606(13) 0.2115(11) 0.9074(10)
O42 O 0.3764(12) 0.1235(10) 0.8639(9)
N20 N 0.6263(10) 0.2559(13) 0.5853(9)
O43 O 0.6873(12) 0.2404(11) 0.5833(9)
O44 O 0.6266(13) 0.2907(12) 0.6255(9)
O45 O 0.5620(11) 0.2215(10) 0.5569(8)
loop_
_geom_bond_atom_site_label_1
_geom_bond_atom_site_label_2
_geom_bond_site_symmetry_1
_geom_bond_site_symmetry_2
C1 H1 1_555 1_555
C2 C1 1_555 1_555
H2 C2 1_555 1_555
C3 C2 1_555 1_555
H3 C3 1_555 1_555
C4 C3 1_555 1_555
C5 C4 1_555 1_555
H4 C5 1_555 1_555
C6 H5 1_555 1_555
C7 C6 1_555 1_555
H6 C7 1_555 1_555
C8 C7 1_555 1_555
H7 C8 1_555 1_555
C9 C8 1_555 1_555
H8 C9 1_555 1_555
C10 C9 1_555 1_555
C11 C10 1_555 1_555
C12 C11 1_555 1_555
C13 C12 1_555 1_555
H9 C13 1_555 1_555
C14 C13 1_555 1_555
H10 C14 1_555 1_555
C15 C14 1_555 1_555
H11 C15 1_555 1_555
C16 C15 1_555 1_555
H12 C16 1_555 1_555
C17 C12 1_555 1_555
C18 C4 1_555 1_555
C19 C6 1_555 1_555
C20 H13 1_555 1_555
C21 C20 1_555 1_555
H14 C21 1_555 1_555
C22 C21 1_555 1_555
H15 C22 1_555 1_555
C23 C22 1_555 1_555
C24 C23 1_555 1_555
H16 C24 1_555 1_555
C25 H17 1_555 1_555
C26 C25 1_555 1_555
H18 C26 1_555 1_555
C27 C26 1_555 1_555
H19 C27 1_555 1_555
C28 C27 1_555 1_555
H20 C28 1_555 1_555
C29 C28 1_555 1_555
C30 C29 1_555 1_555
C31 C30 1_555 1_555
C32 C31 1_555 1_555
H21 C32 1_555 1_555
C33 C32 1_555 1_555
H22 C33 1_555 1_555
C34 C33 1_555 1_555
H23 C34 1_555 1_555
C35 C34 1_555 1_555
H24 C35 1_555 1_555
C36 C31 1_555 1_555
C37 C23 1_555 1_555
C38 C25 1_555 1_555
C39 C11 1_555 1_555
C40 C39 1_555 1_555
C41 C40 1_555 1_555
C42 C41 1_555 1_555
C43 C30 1_555 1_555
C44 C39 1_555 1_555
H25 C44 1_555 1_555
C45 H26 1_555 1_555
C46 C45 1_555 1_555
H27 C46 1_555 1_555
C47 C46 1_555 1_555
H28 C47 1_555 1_555
C48 C47 1_555 1_555
C49 C48 1_555 1_555
H29 C49 1_555 1_555
C50 H30 1_555 1_555
C51 C50 1_555 1_555
H31 C51 1_555 1_555
C52 C51 1_555 1_555
H32 C52 1_555 1_555
C53 C52 1_555 1_555
H33 C53 1_555 1_555
C54 C53 1_555 1_555
C55 C54 1_555 1_555
C56 C55 1_555 1_555
C57 C56 1_555 1_555
H34 C57 1_555 1_555
C58 C57 1_555 1_555
H35 C58 1_555 1_555
C59 C58 1_555 1_555
H36 C59 1_555 1_555
C60 C59 1_555 1_555
H37 C60 1_555 1_555
C61 C56 1_555 1_555
C62 C48 1_555 1_555
C63 C50 1_555 1_555
C64 H38 1_555 1_555
C65 C64 1_555 1_555
H39 C65 1_555 1_555
C66 C65 1_555 1_555
H40 C66 1_555 1_555
C67 C66 1_555 1_555
C68 C67 1_555 1_555
H41 C68 1_555 1_555
C69 H42 1_555 1_555
C70 C69 1_555 1_555
H43 C70 1_555 1_555
C71 C70 1_555 1_555
H44 C71 1_555 1_555
C72 C71 1_555 1_555
H45 C72 1_555 1_555
C73 C72 1_555 1_555
C74 C73 1_555 1_555
C75 C74 1_555 1_555
C76 C75 1_555 1_555
H46 C76 1_555 1_555
C77 C76 1_555 1_555
H47 C77 1_555 1_555
C78 C77 1_555 1_555
H48 C78 1_555 1_555
C79 C78 1_555 1_555
H49 C79 1_555 1_555
C80 C75 1_555 1_555
C81 C67 1_555 1_555
C82 C69 1_555 1_555
C83 C55 1_555 1_555
C84 C83 1_555 1_555
C85 C84 1_555 1_555
C86 C85 1_555 1_555
C87 C74 1_555 1_555
C88 C83 1_555 1_555
H50 C88 1_555 1_555
C89 H51 1_555 1_555
C90 C89 1_555 1_555
H52 C90 1_555 1_555
C91 C90 1_555 1_555
H53 C91 1_555 1_555
C92 C91 1_555 1_555
C93 C92 1_555 1_555
H54 C93 1_555 1_555
C94 H55 1_555 1_555
C95 C94 1_555 1_555
H56 C95 1_555 1_555
C96 C95 1_555 1_555
H57 C96 1_555 1_555
C97 C96 1_555 1_555
H58 C97 1_555 1_555
C98 C97 1_555 1_555
C99 C98 1_555 1_555
C100 C99 1_555 1_555
C101 C100 1_555 1_555
H59 C101 1_555 1_555
C102 C101 1_555 1_555
H60 C102 1_555 1_555
C103 C102 1_555 1_555
H61 C103 1_555 1_555
C104 C103 1_555 1_555
H62 C104 1_555 1_555
C105 C100 1_555 1_555
C106 C92 1_555 1_555
C107 C94 1_555 1_555
C108 H63 1_555 1_555
C109 C108 1_555 1_555
H64 C109 1_555 1_555
C110 C109 1_555 1_555
H65 C110 1_555 1_555
C111 C110 1_555 1_555
C112 C111 1_555 1_555
H66 C112 1_555 1_555
C113 H67 1_555 1_555
C114 C113 1_555 1_555
H68 C114 1_555 1_555
C115 C114 1_555 1_555
H69 C115 1_555 1_555
C116 C115 1_555 1_555
H70 C116 1_555 1_555
C117 C116 1_555 1_555
C118 C117 1_555 1_555
C119 C118 1_555 1_555
C120 C119 1_555 1_555
H71 C120 1_555 1_555
C121 C120 1_555 1_555
H72 C121 1_555 1_555
C122 C121 1_555 1_555
H73 C122 1_555 1_555
C123 C122 1_555 1_555
H74 C123 1_555 1_555
C124 C119 1_555 1_555
C125 C111 1_555 1_555
C126 C113 1_555 1_555
C127 C99 1_555 1_555
C128 C127 1_555 1_555
C129 C128 1_555 1_555
C130 C129 1_555 1_555
C131 C118 1_555 1_555
C132 C127 1_555 1_555
H75 C132 1_555 1_555
C133 H76 1_555 1_555
C134 C133 1_555 1_555
H77 C134 1_555 1_555
C135 C134 1_555 1_555
H78 C135 1_555 1_555
C136 C135 1_555 1_555
C137 C136 1_555 1_555
H79 C137 1_555 1_555
C138 H80 1_555 1_555
C139 C138 1_555 1_555
H81 C139 1_555 1_555
C140 C139 1_555 1_555
H82 C140 1_555 1_555
C141 C140 1_555 1_555
H83 C141 1_555 1_555
C142 C141 1_555 1_555
C143 C142 1_555 1_555
C144 C143 1_555 1_555
C145 C144 1_555 1_555
H84 C145 1_555 1_555
C146 C145 1_555 1_555
H85 C146 1_555 1_555
C147 C146 1_555 1_555
H86 C147 1_555 1_555
C148 C147 1_555 1_555
H87 C148 1_555 1_555
C149 C144 1_555 1_555
C150 C136 1_555 1_555
C151 C138 1_555 1_555
C152 H88 1_555 1_555
C153 C152 1_555 1_555
H89 C153 1_555 1_555
C154 C153 1_555 1_555
H90 C154 1_555 1_555
C155 C154 1_555 1_555
C156 C155 1_555 1_555
H91 C156 1_555 1_555
C157 H92 1_555 1_555
C158 C157 1_555 1_555
H93 C158 1_555 1_555
C159 C158 1_555 1_555
H94 C159 1_555 1_555
C160 C159 1_555 1_555
H95 C160 1_555 1_555
C161 C160 1_555 1_555
C162 C161 1_555 1_555
C163 C162 1_555 1_555
C164 C163 1_555 1_555
H96 C164 1_555 1_555
C165 C164 1_555 1_555
H97 C165 1_555 1_555
C166 C165 1_555 1_555
H98 C166 1_555 1_555
C167 C166 1_555 1_555
H99 C167 1_555 1_555
C168 C163 1_555 1_555
C169 C155 1_555 1_555
C170 C157 1_555 1_555
C171 C143 1_555 1_555
C172 C171 1_555 1_555
C173 C172 1_555 1_555
C174 C173 1_555 1_555
C175 C162 1_555 1_555
C176 C171 1_555 1_555
H100 C176 1_555 1_555
O1 C40 1_555 1_555
C177 O1 1_555 1_555
H101 C177 1_555 1_555
H102 C177 1_555 1_555
C178 C177 1_555 1_555
H103 C178 1_555 1_555
H104 C178 1_555 1_555
O2 C178 1_555 1_555
C179 O2 1_555 1_555
H105 C179 1_555 1_555
H106 C179 1_555 1_555
H107 C179 1_555 1_555
O3 C41 1_555 1_555
C180 O3 1_555 1_555
H108 C180 1_555 1_555
H109 C180 1_555 1_555
C181 C180 1_555 1_555
H110 C181 1_555 1_555
H111 C181 1_555 1_555
O4 C181 1_555 1_555
C182 O4 1_555 1_555
H112 C182 1_555 1_555
H113 C182 1_555 1_555
H114 C182 1_555 1_555
O5 C42 1_555 1_555
C183 O5 1_555 1_555
H115 C183 1_555 1_555
H116 C183 1_555 1_555
C184 C183 1_555 1_555
H117 C184 1_555 1_555
H118 C184 1_555 1_555
O6 C184 1_555 1_555
C185 O6 1_555 1_555
H119 C185 1_555 1_555
H120 C185 1_555 1_555
H121 C185 1_555 1_555
O7 C84 1_555 1_555
C186 O7 1_555 1_555
H122 C186 1_555 1_555
H123 C186 1_555 1_555
C187 C186 1_555 1_555
H124 C187 1_555 1_555
H125 C187 1_555 1_555
O8 C187 1_555 1_555
C188 O8 1_555 1_555
H126 C188 1_555 1_555
H127 C188 1_555 1_555
H128 C188 1_555 1_555
O9 C85 1_555 1_555
C189 O9 1_555 1_555
H129 C189 1_555 1_555
H130 C189 1_555 1_555
C190 C189 1_555 1_555
H131 C190 1_555 1_555
H132 C190 1_555 1_555
O10 C190 1_555 1_555
C191 O10 1_555 1_555
H133 C191 1_555 1_555
H134 C191 1_555 1_555
H135 C191 1_555 1_555
O11 C86 1_555 1_555
C192 O11 1_555 1_555
H136 C192 1_555 1_555
H137 C192 1_555 1_555
C193 C192 1_555 1_555
H138 C193 1_555 1_555
H139 C193 1_555 1_555
O12 C193 1_555 1_555
C194 O12 1_555 1_555
H140 C194 1_555 1_555
H141 C194 1_555 1_555
H142 C194 1_555 1_555
O13 C128 1_555 1_555
C195 O13 1_555 1_555
H143 C195 1_555 1_555
H144 C195 1_555 1_555
C196 C195 1_555 1_555
H145 C196 1_555 1_555
H146 C196 1_555 1_555
O14 C196 1_555 1_555
C197 O14 1_555 1_555
H147 C197 1_555 1_555
H148 C197 1_555 1_555
H149 C197 1_555 1_555
O15 C129 1_555 1_555
C198 O15 1_555 1_555
H150 C198 1_555 1_555
H151 C198 1_555 1_555
C199 C198 1_555 1_555
H152 C199 1_555 1_555
H153 C199 1_555 1_555
O16 C199 1_555 1_555
C200 O16 1_555 1_555
H154 C200 1_555 1_555
H155 C200 1_555 1_555
H156 C200 1_555 1_555
O17 C130 1_555 1_555
C201 O17 1_555 1_555
H157 C201 1_555 1_555
H158 C201 1_555 1_555
C202 C201 1_555 1_555
H159 C202 1_555 1_555
H160 C202 1_555 1_555
O18 C202 1_555 1_555
C203 O18 1_555 1_555
H161 C203 1_555 1_555
H162 C203 1_555 1_555
H163 C203 1_555 1_555
O19 C172 1_555 1_555
C204 O19 1_555 1_555
H164 C204 1_555 1_555
H165 C204 1_555 1_555
C205 C204 1_555 1_555
H166 C205 1_555 1_555
H167 C205 1_555 1_555
O20 C205 1_555 1_555
C206 O20 1_555 1_555
H168 C206 1_555 1_555
H169 C206 1_555 1_555
H170 C206 1_555 1_555
O21 C173 1_555 1_555
C207 O21 1_555 1_555
H171 C207 1_555 1_555
H172 C207 1_555 1_555
C208 C207 1_555 1_555
H173 C208 1_555 1_555
H174 C208 1_555 1_555
O22 C208 1_555 1_555
C209 O22 1_555 1_555
H175 C209 1_555 1_555
H176 C209 1_555 1_555
H177 C209 1_555 1_555
O23 C174 1_555 1_555
C210 O23 1_555 1_555
H178 C210 1_555 1_555
H179 C210 1_555 1_555
C211 C210 1_555 1_555
H180 C211 1_555 1_555
H181 C211 1_555 1_555
O24 C211 1_555 1_555
C212 O24 1_555 1_555
H182 C212 1_555 1_555
H183 C212 1_555 1_555
H184 C212 1_555 1_555
N1 C1 1_555 1_555
N2 C20 1_555 1_555
N3 C45 1_555 1_555
N4 C64 1_555 1_555
N5 C89 1_555 1_555
N6 C108 1_555 1_555
N7 C133 1_555 1_555
N8 C152 1_555 1_555
Pt1 N1 1_555 1_555
Pt2 N2 1_555 1_555
C213 H185 1_555 1_555
H186 C213 1_555 1_555
H187 C213 1_555 1_555
C214 H188 1_555 1_555
C215 C216 1_555 1_555
C216 C217 1_555 1_555
C217 N12 1_555 1_555
C218 N11 1_555 1_555
C219 H189 1_555 1_555
H190 C219 1_555 1_555
H191 C219 1_555 1_555
N9 C213 1_555 1_555
N10 C214 1_555 1_555
N11 C215 1_555 1_555
N12 C218 1_555 1_555
H192 N12 1_555 1_555
O25 C217 1_555 1_555
O26 C218 1_555 1_555
C220 H193 1_555 1_555
H194 C220 1_555 1_555
H195 C220 1_555 1_555
C221 H196 1_555 1_555
C222 C223 1_555 1_555
C223 C224 1_555 1_555
C224 N16 1_555 1_555
C225 N15 1_555 1_555
C226 H197 1_555 1_555
H198 C226 1_555 1_555
H199 C226 1_555 1_555
N13 C220 1_555 1_555
N14 C221 1_555 1_555
N15 C222 1_555 1_555
N16 C225 1_555 1_555
H200 N16 1_555 1_555
O27 C224 1_555 1_555
O28 C225 1_555 1_555
N17 O34 1_555 1_555
O35 N17 1_555 1_555
O36 N17 1_555 1_555
N18 O37 1_555 1_555
O38 N18 1_555 1_555
O39 N18 1_555 1_555
N19 O40 1_555 1_555
O41 N19 1_555 1_555
O42 N19 1_555 1_555
N20 O43 1_555 1_555
O44 N20 1_555 1_555
O45 N20 1_555 1_555
C5 N1 1_555 1_555
C10 C19 1_555 1_555
C16 C17 1_555 1_555
C17 C18 1_555 1_555
C18 C19 1_555 1_555
C24 N2 1_555 1_555
C29 C38 1_555 1_555
C35 C36 1_555 1_555
C36 C37 1_555 1_555
C37 C38 1_555 1_555
C42 C43 1_555 1_555
C43 C44 1_555 1_555
C49 N3 1_555 1_555
C54 C63 1_555 1_555
C60 C61 1_555 1_555
C61 C62 1_555 1_555
C62 C63 1_555 1_555
C68 N4 1_555 1_555
C73 C82 1_555 1_555
C79 C80 1_555 1_555
C80 C81 1_555 1_555
C81 C82 1_555 1_555
C86 C87 1_555 1_555
C87 C88 1_555 1_555
C93 N5 1_555 1_555
C98 C107 1_555 1_555
C104 C105 1_555 1_555
C105 C106 1_555 1_555
C106 C107 1_555 1_555
C112 N6 1_555 1_555
C117 C126 1_555 1_555
C123 C124 1_555 1_555
C124 C125 1_555 1_555
C125 C126 1_555 1_555
C130 C131 1_555 1_555
C131 C132 1_555 1_555
C137 N7 1_555 1_555
C142 C151 1_555 1_555
C148 C149 1_555 1_555
C149 C150 1_555 1_555
C150 C151 1_555 1_555
C156 N8 1_555 1_555
C161 C170 1_555 1_555
C167 C168 1_555 1_555
C168 C169 1_555 1_555
C169 C170 1_555 1_555
C174 C175 1_555 1_555
C175 C176 1_555 1_555
N3 Pt1 1_555 1_555
N4 Pt2 1_555 1_555
N5 Pt1 1_555 1_555
N6 Pt2 1_555 1_555
N7 Pt1 1_555 1_555
N8 Pt2 1_555 1_555
C214 N9 1_555 1_555
C215 N10 1_555 1_555
C216 N9 1_555 1_555
C219 N11 1_555 1_555
C221 N13 1_555 1_555
C222 N14 1_555 1_555
C223 N13 1_555 1_555
C226 N15 1_555 1_555

#END
