# generated using pymatgen
data_H201Pt2C233N11O42
_symmetry_space_group_name_H-M   'P 1'
_cell_length_a   18.75980000
_cell_length_b   21.81290000
_cell_length_c   27.30930000
_cell_angle_alpha   93.38900000
_cell_angle_beta   101.34000000
_cell_angle_gamma   107.15300000
_symmetry_Int_Tables_number   1
_chemical_formula_structural   H201Pt2C233N11O42
_chemical_formula_sum   'H402 Pt4 C466 N22 O84'
_cell_volume   10387.48374495
_cell_formula_units_Z   2
loop_
 _symmetry_equiv_pos_site_id
 _symmetry_equiv_pos_as_xyz
  1  'x, y, z'
loop_
 _atom_site_type_symbol
 _atom_site_label
 _atom_site_symmetry_multiplicity
 _atom_site_fract_x
 _atom_site_fract_y
 _atom_site_fract_z
 _atom_site_occupancy
  H  H1  1  0.225900  0.660100  0.784000  1
  H  H2  1  0.774100  0.339900  0.216000  1
  H  H3  1  0.351000  0.672700  0.819900  1
  H  H4  1  0.649000  0.327300  0.180100  1
  H  H5  1  0.382200  0.594100  0.865100  1
  H  H6  1  0.617800  0.405900  0.134900  1
  H  H7  1  0.158900  0.494300  0.837800  1
  H  H8  1  0.841100  0.505700  0.162200  1
  H  H9  1  0.226700  0.555500  0.938400  1
  H  H10  1  0.773300  0.444500  0.061600  1
  H  H11  1  0.203100  0.547900  0.017800  1
  H  H12  1  0.796900  0.452100  0.982200  1
  H  H13  1  0.229500  0.467300  0.064300  1
  H  H14  1  0.770500  0.532700  0.935700  1
  H  H15  1  0.283400  0.397800  0.032900  1
  H  H16  1  0.716600  0.602200  0.967100  1
  H  H17  1  0.371200  0.311300  0.890600  1
  H  H18  1  0.628800  0.688700  0.109400  1
  H  H19  1  0.378400  0.307600  0.808300  1
  H  H20  1  0.621600  0.692400  0.191700  1
  H  H21  1  0.351800  0.387900  0.760800  1
  H  H22  1  0.648200  0.612100  0.239200  1
  H  H23  1  0.315300  0.468100  0.795600  1
  H  H24  1  0.684700  0.531900  0.204400  1
  H  H25  1  0.980200  0.834900  0.803700  1
  H  H26  1  0.019800  0.165100  0.196300  1
  H  H27  1  0.989600  0.832800  0.889300  1
  H  H28  1  0.010400  0.167200  0.110700  1
  H  H29  1  0.075600  0.919900  0.944500  1
  H  H30  1  0.924400  0.080100  0.055500  1
  H  H31  1  0.115100  0.013200  0.827200  1
  H  H32  1  0.884900  0.986800  0.172800  1
  H  H33  1  0.237700  0.974800  0.880300  1
  H  H34  1  0.762300  0.025200  0.119700  1
  H  H35  1  0.362600  0.008500  0.874300  1
  H  H36  1  0.637400  0.991500  0.125700  1
  H  H37  1  0.439900  0.113100  0.909400  1
  H  H38  1  0.560100  0.886900  0.090600  1
  H  H39  1  0.396300  0.179800  0.953800  1
  H  H40  1  0.603700  0.820200  0.046200  1
  H  H41  1  0.182500  0.215900  0.023600  1
  H  H42  1  0.817500  0.784100  0.976400  1
  H  H43  1  0.057300  0.180700  0.029400  1
  H  H44  1  0.942700  0.819300  0.970600  1
  H  H45  1  0.974100  0.085700  0.981800  1
  H  H46  1  0.025900  0.914300  0.018200  1
  H  H47  1  0.018700  0.019700  0.937100  1
  H  H48  1  0.981300  0.980300  0.062900  1
  H  H49  1  0.249000  0.263700  0.938600  1
  H  H50  1  0.751000  0.736300  0.061400  1
  H  H51  1  0.040500  0.625200  0.682600  1
  H  H52  1  0.959500  0.374800  0.317400  1
  H  H53  1  0.080300  0.637600  0.608000  1
  H  H54  1  0.919700  0.362400  0.392000  1
  H  H55  1  0.161200  0.583000  0.587600  1
  H  H56  1  0.838800  0.417000  0.412400  1
  H  H57  1  0.156700  0.504000  0.714900  1
  H  H58  1  0.843300  0.496000  0.285100  1
  H  H59  1  0.300200  0.597700  0.707100  1
  H  H60  1  0.699800  0.402300  0.292900  1
  H  H61  1  0.423500  0.621000  0.752700  1
  H  H62  1  0.576500  0.379000  0.247300  1
  H  H63  1  0.492000  0.547500  0.744100  1
  H  H64  1  0.508000  0.452500  0.255900  1
  H  H65  1  0.441900  0.460700  0.685000  1
  H  H66  1  0.558100  0.539300  0.315000  1
  H  H67  1  0.230000  0.322100  0.550000  1
  H  H68  1  0.770000  0.677900  0.450000  1
  H  H69  1  0.114300  0.304400  0.497900  1
  H  H70  1  0.885700  0.695600  0.502100  1
  H  H71  1  0.039700  0.371600  0.508600  1
  H  H72  1  0.960300  0.628400  0.491400  1
  H  H73  1  0.083100  0.455500  0.571900  1
  H  H74  1  0.916900  0.544500  0.428100  1
  H  H75  1  0.163800  0.878100  0.767500  1
  H  H76  1  0.836200  0.121900  0.232500  1
  H  H77  1  0.291500  0.904700  0.770400  1
  H  H78  1  0.708500  0.095300  0.229600  1
  H  H79  1  0.353200  0.001300  0.741600  1
  H  H80  1  0.646800  0.998700  0.258400  1
  H  H81  1  0.154300  0.039200  0.713300  1
  H  H82  1  0.845700  0.960800  0.286700  1
  H  H83  1  0.187000  0.004500  0.630300  1
  H  H84  1  0.813000  0.995500  0.369700  1
  H  H85  1  0.141700  0.014700  0.548100  1
  H  H86  1  0.858300  0.985300  0.451900  1
  H  H87  1  0.183300  0.113900  0.517000  1
  H  H88  1  0.816700  0.886100  0.483000  1
  H  H89  1  0.270500  0.199900  0.566600  1
  H  H90  1  0.729500  0.800100  0.433400  1
  H  H91  1  0.470100  0.287800  0.724600  1
  H  H92  1  0.529900  0.712200  0.275400  1
  H  H93  1  0.528400  0.274700  0.803700  1
  H  H94  1  0.471600  0.725300  0.196300  1
  H  H95  1  0.473300  0.183100  0.840500  1
  H  H96  1  0.526700  0.816900  0.159500  1
  H  H97  1  0.369100  0.103900  0.797400  1
  H  H98  1  0.630900  0.896100  0.202600  1
  H  H99  1  0.303500  0.311300  0.665800  1
  H  H100  1  0.696500  0.688700  0.334200  1
  H  H101  1  0.942800  0.613700  0.784100  1
  H  H102  1  0.057200  0.386300  0.215900  1
  H  H103  1  0.812800  0.589100  0.753600  1
  H  H104  1  0.187200  0.410900  0.246400  1
  H  H105  1  0.748700  0.499700  0.693100  1
  H  H106  1  0.251300  0.500300  0.306900  1
  H  H107  1  0.948200  0.465100  0.700000  1
  H  H108  1  0.051800  0.534900  0.300000  1
  H  H109  1  0.909200  0.508000  0.616200  1
  H  H110  1  0.090800  0.492000  0.383800  1
  H  H111  1  0.957900  0.503200  0.546800  1
  H  H112  1  0.042100  0.496800  0.453200  1
  H  H113  1  0.927800  0.404000  0.496100  1
  H  H114  1  0.072200  0.596000  0.503900  1
  H  H115  1  0.840500  0.314600  0.510900  1
  H  H116  1  0.159500  0.685400  0.489100  1
  H  H117  1  0.645900  0.213600  0.607600  1
  H  H118  1  0.354100  0.786400  0.392400  1
  H  H119  1  0.589900  0.218000  0.673300  1
  H  H120  1  0.410100  0.782000  0.326700  1
  H  H121  1  0.637200  0.308900  0.734000  1
  H  H122  1  0.362800  0.691100  0.266000  1
  H  H123  1  0.730500  0.397000  0.724000  1
  H  H124  1  0.269500  0.603000  0.276000  1
  H  H125  1  0.067000  0.876800  0.640100  1
  H  H126  1  0.933000  0.123200  0.359900  1
  H  H127  1  0.037500  0.879700  0.553700  1
  H  H128  1  0.962500  0.120300  0.446300  1
  H  H129  1  0.961700  0.942000  0.521800  1
  H  H130  1  0.038300  0.058000  0.478200  1
  H  H131  1  0.956100  0.998500  0.662600  1
  H  H132  1  0.043900  0.001500  0.337400  1
  H  H133  1  0.817400  0.901000  0.587500  1
  H  H134  1  0.182600  0.099000  0.412500  1
  H  H135  1  0.691100  0.862500  0.585200  1
  H  H136  1  0.308900  0.137500  0.414800  1
  H  H137  1  0.610800  0.925300  0.561500  1
  H  H138  1  0.389200  0.074700  0.438500  1
  H  H139  1  0.660300  0.026400  0.539800  1
  H  H140  1  0.339700  0.973600  0.460200  1
  H  H141  1  0.886200  0.204800  0.518000  1
  H  H142  1  0.113800  0.795200  0.482000  1
  H  H143  1  0.013700  0.246300  0.528600  1
  H  H144  1  0.986300  0.753700  0.471400  1
  H  H145  1  0.095300  0.187500  0.560300  1
  H  H146  1  0.904700  0.812500  0.439700  1
  H  H147  1  0.044200  0.084800  0.577800  1
  H  H148  1  0.955800  0.915200  0.422200  1
  H  H149  1  0.802300  0.196600  0.590800  1
  H  H150  1  0.197700  0.803400  0.409200  1
  H  H151  1  0.105900  0.644100  0.874600  1
  H  H152  1  0.894100  0.355900  0.125400  1
  H  H153  1  0.077600  0.635200  0.951700  1
  H  H154  1  0.922400  0.364800  0.048300  1
  H  H155  1  0.993300  0.539500  0.966300  1
  H  H156  1  0.006700  0.460500  0.033700  1
  H  H157  1  0.976300  0.465300  0.826700  1
  H  H158  1  0.023700  0.534700  0.173300  1
  H  H159  1  0.846400  0.504800  0.855300  1
  H  H160  1  0.153600  0.495200  0.144700  1
  H  H161  1  0.721000  0.480900  0.817100  1
  H  H162  1  0.279000  0.519100  0.182900  1
  H  H163  1  0.634200  0.379000  0.816200  1
  H  H164  1  0.365800  0.621000  0.183800  1
  H  H165  1  0.674100  0.301500  0.855600  1
  H  H166  1  0.325900  0.698500  0.144400  1
  H  H167  1  0.884300  0.235300  0.959600  1
  H  H168  1  0.115700  0.764700  0.040400  1
  H  H169  1  0.007900  0.261300  0.999600  1
  H  H170  1  0.992100  0.738700  0.000400  1
  H  H171  1  0.098200  0.355800  0.988700  1
  H  H172  1  0.901800  0.644200  0.011300  1
  H  H173  1  0.058900  0.433500  0.948500  1
  H  H174  1  0.941100  0.566500  0.051500  1
  H  H175  1  0.887900  0.824900  0.681100  1
  H  H176  1  0.112100  0.175100  0.318900  1
  H  H177  1  0.757600  0.803900  0.670300  1
  H  H178  1  0.242400  0.196100  0.329700  1
  H  H179  1  0.710500  0.874100  0.712100  1
  H  H180  1  0.289500  0.125900  0.287900  1
  H  H181  1  0.925400  0.983300  0.770500  1
  H  H182  1  0.074600  0.016700  0.229500  1
  H  H183  1  0.842800  0.911100  0.838000  1
  H  H184  1  0.157200  0.088900  0.162000  1
  H  H185  1  0.861400  0.918700  0.923600  1
  H  H186  1  0.138600  0.081300  0.076400  1
  H  H187  1  0.831000  0.999000  0.968200  1
  H  H188  1  0.169000  0.001000  0.031800  1
  H  H189  1  0.780000  0.069300  0.926800  1
  H  H190  1  0.220000  0.930700  0.073200  1
  H  H191  1  0.705800  0.157200  0.767900  1
  H  H192  1  0.294200  0.842800  0.232100  1
  H  H193  1  0.700400  0.158000  0.684600  1
  H  H194  1  0.299600  0.842000  0.315400  1
  H  H195  1  0.746100  0.087700  0.640700  1
  H  H196  1  0.253900  0.912300  0.359300  1
  H  H197  1  0.769300  0.001500  0.677900  1
  H  H198  1  0.230700  0.998500  0.322100  1
  H  H199  1  0.820000  0.203600  0.857000  1
  H  H200  1  0.180000  0.796400  0.143000  1
  H  H201  1  0.548200  0.407200  0.050100  1
  H  H202  1  0.451800  0.592800  0.949900  1
  H  H203  1  0.552800  0.478300  0.040800  1
  H  H204  1  0.447200  0.521700  0.959200  1
  H  H205  1  0.511800  0.437000  0.951800  1
  H  H206  1  0.488200  0.563000  0.048200  1
  H  H207  1  0.597100  0.444900  0.977900  1
  H  H208  1  0.402900  0.555100  0.022100  1
  H  H209  1  0.531800  0.360100  0.893600  1
  H  H210  1  0.468200  0.639900  0.106400  1
  H  H211  1  0.539000  0.294800  0.911500  1
  H  H212  1  0.461000  0.705200  0.088500  1
  H  H213  1  0.609300  0.358100  0.926600  1
  H  H214  1  0.390700  0.641900  0.073400  1
  H  H215  1  0.498800  0.328100  0.161100  1
  H  H216  1  0.501200  0.671900  0.838900  1
  H  H217  1  0.413500  0.289700  0.134900  1
  H  H218  1  0.586500  0.710300  0.865100  1
  H  H219  1  0.390900  0.386600  0.117600  1
  H  H220  1  0.609100  0.613400  0.882400  1
  H  H221  1  0.417300  0.386100  0.175800  1
  H  H222  1  0.582700  0.613900  0.824200  1
  H  H223  1  0.421400  0.487800  0.120900  1
  H  H224  1  0.578600  0.512200  0.879100  1
  H  H225  1  0.506600  0.533000  0.135700  1
  H  H226  1  0.493400  0.467000  0.864300  1
  H  H227  1  0.462300  0.510100  0.177800  1
  H  H228  1  0.537700  0.489900  0.822200  1
  H  H229  1  0.309700  0.115900  0.054000  1
  H  H230  1  0.690300  0.884100  0.946000  1
  H  H231  1  0.292100  0.170200  0.085400  1
  H  H232  1  0.707900  0.829800  0.914600  1
  H  H233  1  0.334100  0.091000  0.132600  1
  H  H234  1  0.665900  0.909000  0.867400  1
  H  H235  1  0.416100  0.127400  0.124800  1
  H  H236  1  0.583900  0.872600  0.875200  1
  H  H237  1  0.375400  0.119300  0.216700  1
  H  H238  1  0.624600  0.880700  0.783300  1
  H  H239  1  0.391700  0.191000  0.239700  1
  H  H240  1  0.608300  0.809000  0.760300  1
  H  H241  1  0.456000  0.170200  0.221100  1
  H  H242  1  0.544000  0.829800  0.778900  1
  H  H243  1  0.413000  0.383600  0.498900  1
  H  H244  1  0.587000  0.616400  0.501100  1
  H  H245  1  0.443300  0.458700  0.499200  1
  H  H246  1  0.556700  0.541300  0.500800  1
  H  H247  1  0.322800  0.414800  0.447100  1
  H  H248  1  0.677200  0.585200  0.552900  1
  H  H249  1  0.290000  0.389200  0.493300  1
  H  H250  1  0.710000  0.610800  0.506700  1
  H  H251  1  0.235400  0.472000  0.435300  1
  H  H252  1  0.764600  0.528000  0.564700  1
  H  H253  1  0.238400  0.524900  0.477800  1
  H  H254  1  0.761600  0.475100  0.522200  1
  H  H255  1  0.206000  0.451400  0.483600  1
  H  H256  1  0.794000  0.548600  0.516400  1
  H  H257  1  0.599300  0.340700  0.555200  1
  H  H258  1  0.400700  0.659300  0.444800  1
  H  H259  1  0.576400  0.336900  0.607400  1
  H  H260  1  0.423600  0.663100  0.392600  1
  H  H261  1  0.662500  0.438900  0.596300  1
  H  H262  1  0.337500  0.561100  0.403700  1
  H  H263  1  0.591400  0.449200  0.560800  1
  H  H264  1  0.408600  0.550800  0.439200  1
  H  H265  1  0.647400  0.540500  0.638600  1
  H  H266  1  0.352600  0.459500  0.361400  1
  H  H267  1  0.576300  0.530000  0.663000  1
  H  H268  1  0.423700  0.470000  0.337000  1
  H  H269  1  0.565300  0.525900  0.604300  1
  H  H270  1  0.434700  0.474100  0.395700  1
  H  H271  1  0.494300  0.218700  0.541600  1
  H  H272  1  0.505700  0.781300  0.458400  1
  H  H273  1  0.405300  0.200900  0.534700  1
  H  H274  1  0.594700  0.799100  0.465300  1
  H  H275  1  0.409500  0.112400  0.580100  1
  H  H276  1  0.590500  0.887600  0.419900  1
  H  H277  1  0.427900  0.106400  0.526700  1
  H  H278  1  0.572100  0.893600  0.473300  1
  H  H279  1  0.481400  0.031600  0.585700  1
  H  H280  1  0.518600  0.968400  0.414300  1
  H  H281  1  0.568800  0.059600  0.586300  1
  H  H282  1  0.431200  0.940400  0.413700  1
  H  H283  1  0.507500  0.049300  0.535900  1
  H  H284  1  0.492500  0.950700  0.464100  1
  H  H285  1  0.650500  0.276600  0.415200  1
  H  H286  1  0.349500  0.723400  0.584800  1
  H  H287  1  0.727500  0.320700  0.450600  1
  H  H288  1  0.272500  0.679300  0.549400  1
  H  H289  1  0.656600  0.389400  0.472300  1
  H  H290  1  0.343400  0.610600  0.527700  1
  H  H291  1  0.671900  0.390800  0.417700  1
  H  H292  1  0.328100  0.609200  0.582300  1
  H  H293  1  0.554300  0.426700  0.441500  1
  H  H294  1  0.445700  0.573300  0.558500  1
  H  H295  1  0.482700  0.380600  0.402700  1
  H  H296  1  0.517300  0.619400  0.597300  1
  H  H297  1  0.556000  0.417800  0.384400  1
  H  H298  1  0.444000  0.582200  0.615600  1
  H  H299  1  0.530900  0.187400  0.441600  1
  H  H300  1  0.469100  0.812600  0.558400  1
  H  H301  1  0.520900  0.113800  0.444500  1
  H  H302  1  0.479100  0.886200  0.555500  1
  H  H303  1  0.436900  0.134400  0.372500  1
  H  H304  1  0.563100  0.865600  0.627500  1
  H  H305  1  0.510500  0.162200  0.350600  1
  H  H306  1  0.489500  0.837800  0.649400  1
  H  H307  1  0.400200  0.026000  0.301800  1
  H  H308  1  0.599800  0.974000  0.698200  1
  H  H309  1  0.479700  0.041800  0.287100  1
  H  H310  1  0.520300  0.958200  0.712900  1
  H  H311  1  0.443900  0.097100  0.295100  1
  H  H312  1  0.556100  0.902900  0.704900  1
  H  H313  1  0.658300  0.087400  0.380300  1
  H  H314  1  0.341700  0.912600  0.619700  1
  H  H315  1  0.689500  0.028700  0.385200  1
  H  H316  1  0.310500  0.971300  0.614800  1
  H  H317  1  0.811100  0.100900  0.416100  1
  H  H318  1  0.188900  0.899100  0.583900  1
  H  H319  1  0.775500  0.102500  0.359700  1
  H  H320  1  0.224500  0.897500  0.640300  1
  H  H321  1  0.701500  0.174300  0.345700  1
  H  H322  1  0.298500  0.825700  0.654300  1
  H  H323  1  0.781100  0.213800  0.336300  1
  H  H324  1  0.218900  0.786200  0.663700  1
  H  H325  1  0.742800  0.245000  0.372700  1
  H  H326  1  0.257200  0.755000  0.627300  1
  H  H327  1  0.772500  0.325300  0.994600  1
  H  H328  1  0.227500  0.674700  0.005400  1
  H  H329  1  0.757200  0.255500  0.011000  1
  H  H330  1  0.242800  0.744500  0.989000  1
  H  H331  1  0.728500  0.331800  0.065700  1
  H  H332  1  0.271500  0.668200  0.934300  1
  H  H333  1  0.658700  0.328400  0.021900  1
  H  H334  1  0.341300  0.671600  0.978100  1
  H  H335  1  0.564400  0.282800  0.052000  1
  H  H336  1  0.435600  0.717200  0.948000  1
  H  H337  1  0.548000  0.212100  0.066300  1
  H  H338  1  0.452000  0.787900  0.933700  1
  H  H339  1  0.545600  0.224500  0.010100  1
  H  H340  1  0.454400  0.775500  0.989900  1
  H  H341  1  0.542300  0.129800  0.987100  1
  H  H342  1  0.457700  0.870200  0.012900  1
  H  H343  1  0.631800  0.148500  0.997300  1
  H  H344  1  0.368200  0.851500  0.002700  1
  H  H345  1  0.555600  0.036800  0.003400  1
  H  H346  1  0.444400  0.963200  0.996600  1
  H  H347  1  0.550600  0.028300  0.944800  1
  H  H348  1  0.449400  0.971700  0.055200  1
  H  H349  1  0.634100  0.971000  0.009500  1
  H  H350  1  0.365900  0.029000  0.990500  1
  H  H351  1  0.696800  0.982600  0.977600  1
  H  H352  1  0.303200  0.017400  0.022400  1
  H  H353  1  0.610500  0.968100  0.950900  1
  H  H354  1  0.389500  0.031900  0.049100  1
  H  H355  1  0.981000  0.315200  0.839800  1
  H  H356  1  0.019000  0.684800  0.160200  1
  H  H357  1  0.130600  0.350400  0.746300  1
  H  H358  1  0.869400  0.649600  0.253700  1
  H  H359  1  0.912400  0.332600  0.692200  1
  H  H360  1  0.087600  0.667400  0.307800  1
  H  H361  1  0.146500  0.363800  0.870000  1
  H  H362  1  0.853500  0.636200  0.130000  1
  H  H363  1  0.166400  0.312900  0.836700  1
  H  H364  1  0.833600  0.687100  0.163300  1
  H  H365  1  0.101900  0.290000  0.866500  1
  H  H366  1  0.898100  0.710000  0.133500  1
  H  H367  1  0.024000  0.305600  0.641900  1
  H  H368  1  0.976000  0.694400  0.358100  1
  H  H369  1  0.098600  0.362900  0.665600  1
  H  H370  1  0.901400  0.637100  0.334400  1
  H  H371  1  0.022300  0.377100  0.643200  1
  H  H372  1  0.977700  0.622900  0.356800  1
  H  H373  1  0.843200  0.350900  0.763100  1
  H  H374  1  0.156800  0.649100  0.236900  1
  H  H375  1  0.854700  0.307200  0.805600  1
  H  H376  1  0.145300  0.692800  0.194400  1
  H  H377  1  0.825500  0.276400  0.749200  1
  H  H378  1  0.174500  0.723600  0.250800  1
  H  H379  1  0.117000  0.163800  0.719700  1
  H  H380  1  0.883000  0.836200  0.280300  1
  H  H381  1  0.919500  0.145600  0.764300  1
  H  H382  1  0.080500  0.854400  0.235700  1
  H  H383  1  0.110200  0.151200  0.862700  1
  H  H384  1  0.889800  0.848800  0.137300  1
  H  H385  1  0.986200  0.188600  0.660000  1
  H  H386  1  0.013800  0.811400  0.340000  1
  H  H387  1  0.921500  0.183800  0.689600  1
  H  H388  1  0.078500  0.816200  0.310400  1
  H  H389  1  0.928100  0.121000  0.662500  1
  H  H390  1  0.071900  0.879000  0.337500  1
  H  H391  1  0.952800  0.098700  0.869300  1
  H  H392  1  0.047200  0.901300  0.130700  1
  H  H393  1  0.932700  0.161600  0.856200  1
  H  H394  1  0.067300  0.838400  0.143800  1
  H  H395  1  0.010900  0.166800  0.892400  1
  H  H396  1  0.989100  0.833200  0.107600  1
  H  H397  1  0.238400  0.192600  0.835800  1
  H  H398  1  0.761600  0.807400  0.164200  1
  H  H399  1  0.236700  0.175900  0.778800  1
  H  H400  1  0.763300  0.824100  0.221200  1
  H  H401  1  0.221900  0.120600  0.813300  1
  H  H402  1  0.778100  0.879400  0.186700  1
  Pt  Pt403  1  0.069750  0.560860  0.774910  1
  Pt  Pt404  1  0.930250  0.439140  0.225090  1
  Pt  Pt405  1  0.032160  0.929580  0.733340  1
  Pt  Pt406  1  0.967840  0.070420  0.266660  1
  C  C407  1  0.237900  0.628500  0.802300  1
  C  C408  1  0.762100  0.371500  0.197700  1
  C  C409  1  0.312700  0.636200  0.823800  1
  C  C410  1  0.687300  0.363800  0.176200  1
  C  C411  1  0.331300  0.589800  0.851200  1
  C  C412  1  0.668700  0.410200  0.148800  1
  C  C413  1  0.272500  0.536000  0.858000  1
  C  C414  1  0.727500  0.464000  0.142000  1
  C  C415  1  0.198300  0.530500  0.834600  1
  C  C416  1  0.801700  0.469500  0.165400  1
  C  C417  1  0.238600  0.523900  0.956800  1
  C  C418  1  0.761400  0.476100  0.043200  1
  C  C419  1  0.224100  0.519000  0.004200  1
  C  C420  1  0.775900  0.481000  0.995800  1
  C  C421  1  0.240600  0.470500  0.032700  1
  C  C422  1  0.759400  0.529500  0.967300  1
  C  C423  1  0.272500  0.429200  0.013800  1
  C  C424  1  0.727500  0.570800  0.986200  1
  C  C425  1  0.289900  0.432300  0.964700  1
  C  C426  1  0.710100  0.567700  0.035300  1
  C  C427  1  0.321200  0.387800  0.944900  1
  C  C428  1  0.678800  0.612200  0.055100  1
  C  C429  1  0.331800  0.389000  0.894700  1
  C  C430  1  0.668200  0.611000  0.105300  1
  C  C431  1  0.357900  0.341800  0.871600  1
  C  C432  1  0.642100  0.658200  0.128400  1
  C  C433  1  0.363700  0.340200  0.822900  1
  C  C434  1  0.636300  0.659800  0.177100  1
  C  C435  1  0.347100  0.388700  0.794100  1
  C  C436  1  0.652900  0.611300  0.205900  1
  C  C437  1  0.324700  0.436300  0.814700  1
  C  C438  1  0.675300  0.563700  0.185300  1
  C  C439  1  0.315200  0.437800  0.865700  1
  C  C440  1  0.684800  0.562200  0.134300  1
  C  C441  1  0.287400  0.484000  0.887500  1
  C  C442  1  0.712600  0.516000  0.112500  1
  C  C443  1  0.272000  0.480500  0.935700  1
  C  C444  1  0.728000  0.519500  0.064300  1
  C  C445  1  0.011000  0.871100  0.826000  1
  C  C446  1  0.989000  0.128900  0.174000  1
  C  C447  1  0.017900  0.868900  0.877200  1
  C  C448  1  0.982100  0.131100  0.122800  1
  C  C449  1  0.067900  0.921500  0.910000  1
  C  C450  1  0.932100  0.078500  0.090000  1
  C  C451  1  0.106200  0.976100  0.891800  1
  C  C452  1  0.893800  0.023900  0.108200  1
  C  C453  1  0.092300  0.975700  0.840100  1
  C  C454  1  0.907700  0.024300  0.159900  1
  C  C455  1  0.268800  0.016000  0.895100  1
  C  C456  1  0.731200  0.984000  0.104900  1
  C  C457  1  0.342900  0.035800  0.891100  1
  C  C458  1  0.657100  0.964200  0.108900  1
  C  C459  1  0.389600  0.098700  0.913200  1
  C  C460  1  0.610400  0.901300  0.086800  1
  C  C461  1  0.363700  0.138900  0.939500  1
  C  C462  1  0.636300  0.861100  0.060500  1
  C  C463  1  0.286500  0.118800  0.945600  1
  C  C464  1  0.713500  0.881200  0.054400  1
  C  C465  1  0.257700  0.159200  0.972400  1
  C  C466  1  0.742300  0.840800  0.027600  1
  C  C467  1  0.180500  0.137500  0.976700  1
  C  C468  1  0.819500  0.862500  0.023300  1
  C  C469  1  0.150400  0.176300  0.006200  1
  C  C470  1  0.849600  0.823700  0.993800  1
  C  C471  1  0.075500  0.156000  0.009100  1
  C  C472  1  0.924500  0.844000  0.990900  1
  C  C473  1  0.025900  0.097900  0.981500  1
  C  C474  1  0.974100  0.902100  0.018500  1
  C  C475  1  0.052600  0.058800  0.954200  1
  C  C476  1  0.947400  0.941200  0.045800  1
  C  C477  1  0.130500  0.075800  0.951000  1
  C  C478  1  0.869500  0.924200  0.049000  1
  C  C479  1  0.158800  0.036500  0.922900  1
  C  C480  1  0.841200  0.963500  0.077100  1
  C  C481  1  0.236700  0.056000  0.921000  1
  C  C482  1  0.763300  0.944000  0.079000  1
  C  C483  1  0.338200  0.337900  0.975400  1
  C  C484  1  0.661800  0.662100  0.024600  1
  C  C485  1  0.402400  0.354500  0.015800  1
  C  C486  1  0.597600  0.645500  0.984200  1
  C  C487  1  0.415400  0.308400  0.045700  1
  C  C488  1  0.584600  0.691600  0.954300  1
  C  C489  1  0.368500  0.243500  0.033900  1
  C  C490  1  0.631500  0.756500  0.966100  1
  C  C491  1  0.306400  0.225900  0.992300  1
  C  C492  1  0.693600  0.774100  0.007700  1
  C  C493  1  0.291900  0.274600  0.965000  1
  C  C494  1  0.708100  0.725400  0.035000  1
  C  C495  1  0.073400  0.603500  0.674600  1
  C  C496  1  0.926600  0.396500  0.325400  1
  C  C497  1  0.096700  0.610800  0.629700  1
  C  C498  1  0.903300  0.389200  0.370300  1
  C  C499  1  0.144700  0.577700  0.617500  1
  C  C500  1  0.855300  0.422300  0.382500  1
  C  C501  1  0.168600  0.537000  0.649000  1
  C  C502  1  0.831400  0.463000  0.351000  1
  C  C503  1  0.142500  0.531900  0.693300  1
  C  C504  1  0.857500  0.468100  0.306700  1
  C  C505  1  0.327900  0.569600  0.702400  1
  C  C506  1  0.672100  0.430400  0.297600  1
  C  C507  1  0.401200  0.583400  0.730100  1
  C  C508  1  0.598800  0.416600  0.269900  1
  C  C509  1  0.443200  0.539700  0.724000  1
  C  C510  1  0.556800  0.460300  0.276000  1
  C  C511  1  0.412600  0.487400  0.689500  1
  C  C512  1  0.587400  0.512600  0.310500  1
  C  C513  1  0.337500  0.471300  0.659500  1
  C  C514  1  0.662500  0.528700  0.340500  1
  C  C515  1  0.307000  0.416700  0.623400  1
  C  C516  1  0.693000  0.583300  0.376600  1
  C  C517  1  0.233700  0.404200  0.592300  1
  C  C518  1  0.766300  0.595800  0.407700  1
  C  C519  1  0.202100  0.350200  0.553900  1
  C  C520  1  0.797900  0.649800  0.446100  1
  C  C521  1  0.132800  0.339100  0.523500  1
  C  C522  1  0.867200  0.660900  0.476500  1
  C  C523  1  0.087500  0.379700  0.529900  1
  C  C524  1  0.912500  0.620300  0.470100  1
  C  C525  1  0.114200  0.430400  0.567300  1
  C  C526  1  0.885800  0.569600  0.432700  1
  C  C527  1  0.188300  0.446000  0.599300  1
  C  C528  1  0.811700  0.554000  0.400700  1
  C  C529  1  0.218300  0.497400  0.638100  1
  C  C530  1  0.781700  0.502600  0.361900  1
  C  C531  1  0.293000  0.513200  0.666500  1
  C  C532  1  0.707000  0.486800  0.333500  1
  C  C533  1  0.188300  0.916700  0.756400  1
  C  C534  1  0.811700  0.083300  0.243600  1
  C  C535  1  0.264200  0.932100  0.758100  1
  C  C536  1  0.735800  0.067900  0.241900  1
  C  C537  1  0.301200  0.990100  0.741100  1
  C  C538  1  0.698800  0.009900  0.258900  1
  C  C539  1  0.259300  0.031000  0.723400  1
  C  C540  1  0.740700  0.969000  0.276600  1
  C  C541  1  0.182600  0.012000  0.723900  1
  C  C542  1  0.817400  0.988000  0.276100  1
  C  C543  1  0.205100  0.043900  0.618400  1
  C  C544  1  0.794900  0.956100  0.381600  1
  C  C545  1  0.177400  0.050000  0.569200  1
  C  C546  1  0.822600  0.950000  0.430800  1
  C  C547  1  0.203100  0.110100  0.550300  1
  C  C548  1  0.796900  0.889900  0.449700  1
  C  C549  1  0.255100  0.160900  0.579600  1
  C  C550  1  0.744900  0.839100  0.420400  1
  C  C551  1  0.288600  0.156700  0.631800  1
  C  C552  1  0.711400  0.843300  0.368200  1
  C  C553  1  0.348500  0.207900  0.661700  1
  C  C554  1  0.651500  0.792100  0.338300  1
  C  C555  1  0.384000  0.200700  0.709800  1
  C  C556  1  0.616000  0.799300  0.290200  1
  C  C557  1  0.450100  0.250300  0.738400  1
  C  C558  1  0.549900  0.749700  0.261600  1
  C  C559  1  0.484200  0.243100  0.785800  1
  C  C560  1  0.515800  0.756900  0.214200  1
  C  C561  1  0.451400  0.187000  0.807700  1
  C  C562  1  0.548600  0.813000  0.192300  1
  C  C563  1  0.389700  0.139700  0.781900  1
  C  C564  1  0.610300  0.860300  0.218100  1
  C  C565  1  0.355000  0.142800  0.731500  1
  C  C566  1  0.645000  0.857200  0.268500  1
  C  C567  1  0.292500  0.091900  0.702500  1
  C  C568  1  0.707500  0.908100  0.297500  1
  C  C569  1  0.261500  0.097000  0.652100  1
  C  C570  1  0.738500  0.903000  0.347900  1
  C  C571  1  0.350200  0.370400  0.618200  1
  C  C572  1  0.649800  0.629600  0.381800  1
  C  C573  1  0.402500  0.377900  0.587000  1
  C  C574  1  0.597500  0.622100  0.413000  1
  C  C575  1  0.441800  0.332700  0.582900  1
  C  C576  1  0.558200  0.667300  0.417100  1
  C  C577  1  0.425700  0.278700  0.608400  1
  C  C578  1  0.574300  0.721300  0.391600  1
  C  C579  1  0.373500  0.270500  0.639000  1
  C  C580  1  0.626500  0.729500  0.361000  1
  C  C581  1  0.337200  0.316400  0.644400  1
  C  C582  1  0.662800  0.683600  0.355600  1
  C  C583  1  0.917400  0.577800  0.760100  1
  C  C584  1  0.082600  0.422200  0.239900  1
  C  C585  1  0.839300  0.563500  0.741900  1
  C  C586  1  0.160700  0.436500  0.258100  1
  C  C587  1  0.801200  0.510400  0.705800  1
  C  C588  1  0.198800  0.489600  0.294200  1
  C  C589  1  0.842600  0.473000  0.688900  1
  C  C590  1  0.157400  0.527000  0.311100  1
  C  C591  1  0.920500  0.490500  0.710200  1
  C  C592  1  0.079500  0.509500  0.289800  1
  C  C593  1  0.894400  0.469000  0.595400  1
  C  C594  1  0.105600  0.531000  0.404600  1
  C  C595  1  0.924400  0.466100  0.554500  1
  C  C596  1  0.075600  0.533900  0.445500  1
  C  C597  1  0.904700  0.406300  0.523000  1
  C  C598  1  0.095300  0.593700  0.477000  1
  C  C599  1  0.852800  0.353100  0.532000  1
  C  C600  1  0.147200  0.646900  0.468000  1
  C  C601  1  0.815900  0.354600  0.573300  1
  C  C602  1  0.184100  0.645400  0.426700  1
  C  C603  1  0.758000  0.300500  0.581500  1
  C  C604  1  0.242000  0.699500  0.418500  1
  C  C605  1  0.723900  0.303200  0.622400  1
  C  C606  1  0.276100  0.696800  0.377600  1
  C  C607  1  0.663600  0.250900  0.630500  1
  C  C608  1  0.336400  0.749100  0.369500  1
  C  C609  1  0.630600  0.252900  0.669900  1
  C  C610  1  0.369400  0.747100  0.330100  1
  C  C611  1  0.658300  0.308400  0.705900  1
  C  C612  1  0.341700  0.691600  0.294100  1
  C  C613  1  0.714700  0.360500  0.700300  1
  C  C614  1  0.285300  0.639500  0.299700  1
  C  C615  1  0.751200  0.361000  0.658400  1
  C  C616  1  0.248800  0.639000  0.341600  1
  C  C617  1  0.808500  0.414900  0.650200  1
  C  C618  1  0.191500  0.585100  0.349800  1
  C  C619  1  0.840200  0.413200  0.607700  1
  C  C620  1  0.159800  0.586800  0.392300  1
  C  C621  1  0.037800  0.902300  0.627100  1
  C  C622  1  0.962200  0.097700  0.372900  1
  C  C623  1  0.019900  0.903500  0.575200  1
  C  C624  1  0.980100  0.096500  0.424800  1
  C  C625  1  0.975200  0.941100  0.556300  1
  C  C626  1  0.024800  0.058900  0.443700  1
  C  C627  1  0.950600  0.977400  0.589000  1
  C  C628  1  0.049400  0.022600  0.411000  1
  C  C629  1  0.971800  0.974100  0.640300  1
  C  C630  1  0.028200  0.025900  0.359700  1
  C  C631  1  0.786600  0.926900  0.578700  1
  C  C632  1  0.213400  0.073100  0.421300  1
  C  C633  1  0.711500  0.903800  0.576900  1
  C  C634  1  0.288500  0.096200  0.423100  1
  C  C635  1  0.662800  0.941600  0.562400  1
  C  C636  1  0.337200  0.058400  0.437600  1
  C  C637  1  0.692800  0.002200  0.549700  1
  C  C638  1  0.307200  0.997800  0.450300  1
  C  C639  1  0.771300  0.028800  0.551100  1
  C  C640  1  0.228700  0.971200  0.448900  1
  C  C641  1  0.802600  0.091500  0.540000  1
  C  C642  1  0.197400  0.908500  0.460000  1
  C  C643  1  0.882000  0.116900  0.543500  1
  C  C644  1  0.118000  0.883100  0.456500  1
  C  C645  1  0.917200  0.180400  0.530800  1
  C  C646  1  0.082800  0.819600  0.469200  1
  C  C647  1  0.992900  0.205000  0.536800  1
  C  C648  1  0.007100  0.795000  0.463200  1
  C  C649  1  0.042500  0.169400  0.555500  1
  C  C650  1  0.957500  0.830600  0.444500  1
  C  C651  1  0.011700  0.108300  0.566100  1
  C  C652  1  0.988300  0.891700  0.433900  1
  C  C653  1  0.930900  0.079000  0.560000  1
  C  C654  1  0.069100  0.921000  0.440000  1
  C  C655  1  0.899400  0.017200  0.571500  1
  C  C656  1  0.100600  0.982800  0.428500  1
  C  C657  1  0.820100  0.990500  0.567400  1
  C  C658  1  0.179900  0.009500  0.432600  1
  C  C659  1  0.735600  0.239300  0.547000  1
  C  C660  1  0.264400  0.760700  0.453000  1
  C  C661  1  0.683700  0.229000  0.501400  1
  C  C662  1  0.316300  0.771000  0.498600  1
  C  C663  1  0.663200  0.170900  0.469400  1
  C  C664  1  0.336800  0.829100  0.530600  1
  C  C665  1  0.700100  0.124800  0.481400  1
  C  C666  1  0.299900  0.875200  0.518600  1
  C  C667  1  0.754700  0.134500  0.527000  1
  C  C668  1  0.245300  0.865500  0.473000  1
  C  C669  1  0.769100  0.190900  0.559500  1
  C  C670  1  0.230900  0.809100  0.440500  1
  C  C671  1  0.073300  0.605400  0.880600  1
  C  C672  1  0.926700  0.394600  0.119400  1
  C  C673  1  0.056000  0.600500  0.926300  1
  C  C674  1  0.944000  0.399500  0.073700  1
  C  C675  1  0.005800  0.543300  0.935000  1
  C  C676  1  0.994200  0.456700  0.065000  1
  C  C677  1  0.975000  0.492600  0.897400  1
  C  C678  1  0.025000  0.507400  0.102600  1
  C  C679  1  0.996200  0.500000  0.852200  1
  C  C680  1  0.003800  0.500000  0.147800  1
  C  C681  1  0.812600  0.464000  0.855800  1
  C  C682  1  0.187400  0.536000  0.144200  1
  C  C683  1  0.738000  0.449600  0.832900  1
  C  C684  1  0.262000  0.550400  0.167100  1
  C  C685  1  0.685200  0.388100  0.832500  1
  C  C686  1  0.314800  0.611900  0.167500  1
  C  C687  1  0.709400  0.341900  0.856200  1
  C  C688  1  0.290600  0.658100  0.143800  1
  C  C689  1  0.787100  0.353700  0.881700  1
  C  C690  1  0.212900  0.646300  0.118300  1
  C  C691  1  0.811700  0.305700  0.905400  1
  C  C692  1  0.188300  0.694300  0.094600  1
  C  C693  1  0.891800  0.321600  0.930400  1
  C  C694  1  0.108200  0.678400  0.069600  1
  C  C695  1  0.918300  0.275400  0.957600  1
  C  C696  1  0.081700  0.724600  0.042400  1
  C  C697  1  0.991900  0.290300  0.980000  1
  C  C698  1  0.008100  0.709700  0.020000  1
  C  C699  1  0.046500  0.348600  0.975200  1
  C  C700  1  0.953500  0.651400  0.024800  1
  C  C701  1  0.023000  0.394400  0.950600  1
  C  C702  1  0.977000  0.605600  0.049400  1
  C  C703  1  0.945200  0.383200  0.928500  1
  C  C704  1  0.054800  0.616800  0.071500  1
  C  C705  1  0.919000  0.429900  0.903300  1
  C  C706  1  0.081000  0.570100  0.096700  1
  C  C707  1  0.840300  0.416400  0.880900  1
  C  C708  1  0.159700  0.583600  0.119100  1
  C  C709  1  0.869100  0.853200  0.697500  1
  C  C710  1  0.130900  0.146800  0.302500  1
  C  C711  1  0.791200  0.840400  0.691100  1
  C  C712  1  0.208800  0.159600  0.308900  1
  C  C713  1  0.762900  0.882200  0.716100  1
  C  C714  1  0.237100  0.117800  0.283900  1
  C  C715  1  0.814700  0.936700  0.747400  1
  C  C716  1  0.185300  0.063300  0.252600  1
  C  C717  1  0.890800  0.946400  0.750700  1
  C  C718  1  0.109200  0.053600  0.249300  1
  C  C719  1  0.830600  0.943300  0.855100  1
  C  C720  1  0.169400  0.056700  0.144900  1
  C  C721  1  0.841500  0.947600  0.906300  1
  C  C722  1  0.158500  0.052400  0.093700  1
  C  C723  1  0.822600  0.996100  0.933300  1
  C  C724  1  0.177400  0.003900  0.066700  1
  C  C725  1  0.792500  0.038100  0.908600  1
  C  C726  1  0.207500  0.961900  0.091400  1
  C  C727  1  0.779600  0.034800  0.854900  1
  C  C728  1  0.220400  0.965200  0.145100  1
  C  C729  1  0.749600  0.078900  0.829100  1
  C  C730  1  0.250400  0.921100  0.170900  1
  C  C731  1  0.742400  0.078800  0.777400  1
  C  C732  1  0.257600  0.921200  0.222600  1
  C  C733  1  0.719800  0.126100  0.750800  1
  C  C734  1  0.280200  0.873900  0.249200  1
  C  C735  1  0.718000  0.127400  0.701100  1
  C  C736  1  0.282000  0.872600  0.298900  1
  C  C737  1  0.742200  0.083200  0.673900  1
  C  C738  1  0.257800  0.916800  0.326100  1
  C  C739  1  0.760000  0.033900  0.696800  1
  C  C740  1  0.240000  0.966100  0.303200  1
  C  C741  1  0.764500  0.031400  0.749600  1
  C  C742  1  0.235500  0.968600  0.250400  1
  C  C743  1  0.790900  0.985900  0.775000  1
  C  C744  1  0.209100  0.014100  0.225000  1
  C  C745  1  0.800700  0.987100  0.827500  1
  C  C746  1  0.199300  0.012900  0.172500  1
  C  C747  1  0.761100  0.239200  0.899900  1
  C  C748  1  0.238900  0.760800  0.100100  1
  C  C749  1  0.696800  0.219200  0.920600  1
  C  C750  1  0.303200  0.780800  0.079400  1
  C  C751  1  0.648300  0.155900  0.909100  1
  C  C752  1  0.351700  0.844100  0.090900  1
  C  C753  1  0.663500  0.112200  0.877400  1
  C  C754  1  0.336500  0.887800  0.122600  1
  C  C755  1  0.729300  0.129100  0.858700  1
  C  C756  1  0.270700  0.870900  0.141300  1
  C  C757  1  0.776200  0.191700  0.869800  1
  C  C758  1  0.223800  0.808300  0.130200  1
  C  C759  1  0.527200  0.433300  0.027400  1
  C  C760  1  0.472800  0.566700  0.972600  1
  C  C761  1  0.544100  0.421500  0.977100  1
  C  C762  1  0.455900  0.578500  0.022900  1
  C  C763  1  0.554500  0.340800  0.920500  1
  C  C764  1  0.445500  0.659200  0.079500  1
  C  C765  1  0.455900  0.327900  0.134500  1
  C  C766  1  0.544100  0.672100  0.865500  1
  C  C767  1  0.433600  0.386600  0.144200  1
  C  C768  1  0.566400  0.613400  0.855800  1
  C  C769  1  0.469200  0.497900  0.145100  1
  C  C770  1  0.530800  0.502100  0.854900  1
  C  C771  1  0.332200  0.152800  0.079900  1
  C  C772  1  0.667800  0.847200  0.920100  1
  C  C773  1  0.367200  0.132400  0.127200  1
  C  C774  1  0.632800  0.867600  0.872800  1
  C  C775  1  0.402000  0.163800  0.214900  1
  C  C776  1  0.598000  0.836200  0.785100  1
  C  C777  1  0.405400  0.424100  0.509400  1
  C  C778  1  0.594600  0.575900  0.490600  1
  C  C779  1  0.328500  0.423400  0.483200  1
  C  C780  1  0.671500  0.576600  0.516800  1
  C  C781  1  0.243400  0.482800  0.470900  1
  C  C782  1  0.756600  0.517200  0.529100  1
  C  C783  1  0.572000  0.357200  0.576800  1
  C  C784  1  0.428000  0.642800  0.423200  1
  C  C785  1  0.607200  0.428000  0.589200  1
  C  C786  1  0.392800  0.572000  0.410800  1
  C  C787  1  0.594100  0.516900  0.634700  1
  C  C788  1  0.405900  0.483100  0.365300  1
  C  C789  1  0.451700  0.198600  0.556500  1
  C  C790  1  0.548300  0.801400  0.443500  1
  C  C791  1  0.446200  0.130500  0.560100  1
  C  C792  1  0.553800  0.869500  0.439900  1
  C  C793  1  0.518600  0.061200  0.571600  1
  C  C794  1  0.481400  0.938800  0.428400  1
  C  C795  1  0.672200  0.307200  0.445600  1
  C  C796  1  0.327800  0.692800  0.554400  1
  C  C797  1  0.645400  0.363900  0.439700  1
  C  C798  1  0.354600  0.636100  0.560300  1
  C  C799  1  0.537600  0.396500  0.411400  1
  C  C800  1  0.462400  0.603500  0.588600  1
  C  C801  1  0.537100  0.149300  0.425200  1
  C  C802  1  0.462900  0.850700  0.574800  1
  C  C803  1  0.488300  0.133200  0.373000  1
  C  C804  1  0.511700  0.866800  0.627000  1
  C  C805  1  0.449700  0.057700  0.306300  1
  C  C806  1  0.550300  0.942300  0.693700  1
  C  C807  1  0.697200  0.072300  0.400100  1
  C  C808  1  0.302800  0.927700  0.599900  1
  C  C809  1  0.771700  0.113000  0.393900  1
  C  C810  1  0.228300  0.887000  0.606100  1
  C  C811  1  0.750200  0.205500  0.360800  1
  C  C812  1  0.249800  0.794500  0.639200  1
  C  C813  1  0.733000  0.287200  0.999100  1
  C  C814  1  0.267000  0.712800  0.000900  1
  C  C815  1  0.691900  0.304500  0.036700  1
  C  C816  1  0.308100  0.695500  0.963300  1
  C  C817  1  0.570500  0.241300  0.044500  1
  C  C818  1  0.429500  0.758700  0.955500  1
  C  C819  1  0.584400  0.121700  0.975000  1
  C  C820  1  0.415600  0.878300  0.025000  1
  C  C821  1  0.579000  0.054300  0.976500  1
  C  C822  1  0.421000  0.945700  0.023500  1
  C  C823  1  0.649300  0.989100  0.980500  1
  C  C824  1  0.350700  0.010900  0.019500  1
  C  C825  1  0.539800  0.034700  0.833200  1
  C  C826  1  0.460200  0.965300  0.166800  1
  C  C827  1  0.491300  0.966100  0.826000  1
  C  C828  1  0.508700  0.033900  0.174000  1
  C  C829  1  0.412700  0.888300  0.865200  1
  C  C830  1  0.587300  0.111700  0.134800  1
  C  C831  1  0.994000  0.322000  0.809000  1
  C  C832  1  0.006000  0.678000  0.191000  1
  C  C833  1  0.068300  0.329400  0.804400  1
  C  C834  1  0.931700  0.670600  0.195600  1
  C  C835  1  0.081600  0.342800  0.752000  1
  C  C836  1  0.918400  0.657200  0.248000  1
  C  C837  1  0.022800  0.344100  0.712700  1
  C  C838  1  0.977200  0.655900  0.287300  1
  C  C839  1  0.952100  0.333800  0.719100  1
  C  C840  1  0.047900  0.666200  0.280900  1
  C  C841  1  0.938400  0.324900  0.767200  1
  C  C842  1  0.061600  0.675100  0.232800  1
  C  C843  1  0.125900  0.323500  0.848300  1
  C  C844  1  0.874100  0.676500  0.151700  1
  C  C845  1  0.043900  0.347800  0.661000  1
  C  C846  1  0.956100  0.652200  0.339000  1
  C  C847  1  0.858400  0.313900  0.771700  1
  C  C848  1  0.141600  0.686100  0.228300  1
  C  C849  1  0.089700  0.157800  0.744900  1
  C  C850  1  0.910300  0.842200  0.255100  1
  C  C851  1  0.014700  0.154700  0.733000  1
  C  C852  1  0.985300  0.845300  0.267000  1
  C  C853  1  0.970800  0.147600  0.771300  1
  C  C854  1  0.029200  0.852400  0.228700  1
  C  C855  1  0.009700  0.144100  0.819100  1
  C  C856  1  0.990300  0.855900  0.180900  1
  C  C857  1  0.085500  0.149500  0.829400  1
  C  C858  1  0.914500  0.850500  0.170600  1
  C  C859  1  0.127600  0.152500  0.792800  1
  C  C860  1  0.872400  0.847500  0.207200  1
  C  C861  1  0.956400  0.162900  0.680700  1
  C  C862  1  0.043600  0.837100  0.319300  1
  C  C863  1  0.973300  0.142700  0.863200  1
  C  C864  1  0.026700  0.857300  0.136800  1
  C  C865  1  0.214400  0.161200  0.806500  1
  C  C866  1  0.785600  0.838800  0.193500  1
  C  C867  1  0.547300  0.043900  0.829000  1
  C  C868  1  0.452700  0.956100  0.171000  1
  C  C869  1  0.556200  0.071200  0.781300  1
  C  C870  1  0.443800  0.928800  0.218700  1
  C  C871  1  0.483400  0.075300  0.700600  1
  C  C872  1  0.516600  0.924700  0.299400  1
  N  N873  1  0.180700  0.575700  0.807100  1
  N  N874  1  0.819300  0.424300  0.192900  1
  N  N875  1  0.047900  0.924400  0.807900  1
  N  N876  1  0.952100  0.075600  0.192100  1
  N  N877  1  0.097300  0.565700  0.706800  1
  N  N878  1  0.902700  0.434300  0.293200  1
  N  N879  1  0.146800  0.955500  0.739200  1
  N  N880  1  0.853200  0.044500  0.260800  1
  N  N881  1  0.958000  0.542300  0.744800  1
  N  N882  1  0.042000  0.457700  0.255200  1
  N  N883  1  0.013900  0.937200  0.658600  1
  N  N884  1  0.986100  0.062800  0.341400  1
  N  N885  1  0.044000  0.554800  0.842900  1
  N  N886  1  0.956000  0.445200  0.157100  1
  N  N887  1  0.918500  0.906700  0.727300  1
  N  N888  1  0.081500  0.093300  0.272700  1
  N  N889  1  0.925600  0.682100  0.877400  1
  N  N890  1  0.074400  0.317900  0.122600  1
  N  N891  1  0.775500  0.762100  0.548200  1
  N  N892  1  0.224500  0.237900  0.451800  1
  N  N893  1  0.877900  0.245000  0.417100  1
  N  N894  1  0.122100  0.755000  0.582900  1
  O  O895  1  0.446600  0.418400  0.025960  1
  O  O896  1  0.553400  0.581600  0.974040  1
  O  O897  1  0.530200  0.354600  0.964700  1
  O  O898  1  0.469800  0.645400  0.035300  1
  O  O899  1  0.476900  0.325100  0.086810  1
  O  O900  1  0.523100  0.674900  0.913190  1
  O  O901  1  0.495000  0.442300  0.146400  1
  O  O902  1  0.505000  0.557700  0.853600  1
  O  O903  1  0.390400  0.200900  0.064090  1
  O  O904  1  0.609600  0.799100  0.935910  1
  O  O905  1  0.377400  0.179300  0.167600  1
  O  O906  1  0.622600  0.820700  0.832400  1
  O  O907  1  0.417500  0.432700  0.563400  1
  O  O908  1  0.582500  0.567300  0.436600  1
  O  O909  1  0.318100  0.483200  0.494900  1
  O  O910  1  0.681900  0.516800  0.505100  1
  O  O911  1  0.492700  0.340700  0.551800  1
  O  O912  1  0.507300  0.659300  0.448200  1
  O  O913  1  0.584300  0.449700  0.631800  1
  O  O914  1  0.415700  0.550300  0.368200  1
  O  O915  1  0.462400  0.233300  0.605000  1
  O  O916  1  0.537600  0.766700  0.395000  1
  O  O917  1  0.515600  0.124500  0.581700  1
  O  O918  1  0.484400  0.875500  0.418300  1
  O  O919  1  0.649700  0.276000  0.488700  1
  O  O920  1  0.350300  0.724000  0.511300  1
  O  O921  1  0.567000  0.344000  0.419500  1
  O  O922  1  0.433000  0.656000  0.580500  1
  O  O923  1  0.614000  0.160600  0.424000  1
  O  O924  1  0.386000  0.839400  0.576000  1
  O  O925  1  0.488800  0.070000  0.360400  1
  O  O926  1  0.511200  0.930000  0.639600  1
  O  O927  1  0.682900  0.068400  0.450300  1
  O  O928  1  0.317100  0.931600  0.549700  1
  O  O929  1  0.788800  0.180300  0.403100  1
  O  O930  1  0.211200  0.819700  0.596900  1
  O  O931  1  0.678400  0.260900  0.952000  1
  O  O932  1  0.321600  0.739100  0.048000  1
  O  O933  1  0.648200  0.247800  0.051900  1
  O  O934  1  0.351800  0.752200  0.948100  1
  O  O935  1  0.582200  0.139000  0.927000  1
  O  O936  1  0.417800  0.861000  0.073000  1
  O  O937  1  0.658900  0.058600  0.986000  1
  O  O938  1  0.341100  0.941400  0.014000  1
  O  O939  1  0.611200  0.045700  0.868800  1
  O  O940  1  0.388800  0.954300  0.131200  1
  O  O941  1  0.461900  0.952900  0.869600  1
  O  O942  1  0.538100  0.047100  0.130400  1
  O  O943  1  0.979600  0.701200  0.854900  1
  O  O944  1  0.020400  0.298800  0.145100  1
  O  O945  1  0.880600  0.624700  0.866100  1
  O  O946  1  0.119400  0.375300  0.133900  1
  O  O947  1  0.902700  0.722000  0.900400  1
  O  O948  1  0.097300  0.278000  0.099600  1
  O  O949  1  0.774200  0.751500  0.592800  1
  O  O950  1  0.225800  0.248500  0.407200  1
  O  O951  1  0.713500  0.749000  0.516000  1
  O  O952  1  0.286500  0.251000  0.484000  1
  O  O953  1  0.837600  0.786600  0.536000  1
  O  O954  1  0.162400  0.213400  0.464000  1
  O  O955  1  0.576000  0.431700  0.735600  1
  O  O956  1  0.424000  0.568300  0.264400  1
  O  O957  1  0.587200  0.742400  0.562400  1
  O  O958  1  0.412800  0.257600  0.437600  1
  O  O959  1  0.667800  0.568600  0.766900  1
  O  O960  1  0.332200  0.431400  0.233100  1
  O  O961  1  0.182000  0.858300  0.979600  1
  O  O962  1  0.818000  0.141700  0.020400  1
  O  O963  1  0.040200  0.777500  0.706700  1
  O  O964  1  0.959800  0.222500  0.293300  1
  O  O965  1  0.914200  0.731800  0.754400  1
  O  O966  1  0.085800  0.268200  0.245600  1
  O  O967  1  0.741600  0.756400  0.813600  1
  O  O968  1  0.258400  0.243600  0.186400  1
  O  O969  1  0.618800  0.050800  0.863000  1
  O  O970  1  0.381200  0.949200  0.137000  1
  O  O971  1  0.484300  0.046600  0.746500  1
  O  O972  1  0.515700  0.953400  0.253500  1
  O  O973  1  0.940200  0.282000  0.442100  1
  O  O974  1  0.059800  0.718000  0.557900  1
  O  O975  1  0.874900  0.200200  0.384700  1
  O  O976  1  0.125100  0.799800  0.615300  1
  O  O977  1  0.817000  0.258400  0.418900  1
  O  O978  1  0.183000  0.741600  0.581100  1
