
#######################################################################
#
#                 Cambridge Crystallographic Data Centre
#                                CCDC 
#
#######################################################################
#
# If this CIF has been generated from an entry in the Cambridge 
# Structural Database, then it will include bibliographic, chemical, 
# crystal, experimental, refinement or atomic coordinate data resulting 
# from the CCDC's data processing and validation procedures.
#
#######################################################################

data_ICOVUU
_chemical_formula_moiety         
'C212 H184 N8 O24 Pt2 4+,4(N1 O3 1-),2(C8 H10 N4 O2),6(H2 O1)'
_chemical_name_systematic        
'tetrakis(\m-1,3-bis(10-(pyridin-3-yl)-9-anthryl)-4,5,6-tris(2-methoxyethoxy)benzene)-di-platinum(ii) tetranitrate bis(caffeine) clathrate unknown solvate hexahydrate'
_symmetry_cell_setting           triclinic
_symmetry_space_group_name_H-M   'P -1'
_symmetry_Int_Tables_number      2
_space_group_name_Hall           '-P 1'
loop_
_symmetry_equiv_pos_site_id
_symmetry_equiv_pos_as_xyz
1 x,y,z
2 -x,-y,-z
_cell_length_a                   21.7401(11)
_cell_length_b                   21.8126(11)
_cell_length_c                   27.8999(13)
_cell_angle_alpha                69.873(3)
_cell_angle_beta                 68.422(3)
_cell_angle_gamma                62.050(2)
_cell_volume                     10627.9
_exptl_crystal_colour            yellow
_exptl_crystal_description       prism
_cell_formula_units_Z            2
loop_
_atom_site_label
_atom_site_type_symbol
_atom_site_fract_x
_atom_site_fract_y
_atom_site_fract_z
C1 C 0.3344(9) 0.6132(8) 0.1646(6)
H1 H 0.3468 0.6245 0.1885
C2 C 0.3665(9) 0.6282(9) 0.1113(6)
H2 H 0.3977 0.6520 0.0990
C3 C 0.3518(9) 0.6075(9) 0.0773(6)
H3 H 0.3748 0.6156 0.0413
C4 C 0.3056(8) 0.5763(8) 0.0940(6)
C5 C 0.2737(8) 0.5635(8) 0.1482(5)
H4 H 0.2422 0.5400 0.1605
C6 C 0.4111(8) 0.4609(9) 0.0398(6)
H5 H 0.4241 0.4732 0.0628
C7 C 0.4588(9) 0.4094(9) 0.0154(6)
H6 H 0.5050 0.3858 0.0215
C8 C 0.4433(9) 0.3878(9) -0.0198(6)
H7 H 0.4792 0.3529 -0.0387
C9 C 0.3748(8) 0.4194(8) -0.0253(6)
H8 H 0.3629 0.4036 -0.0467
C10 C 0.3221(8) 0.4739(8) -0.0007(5)
C11 C 0.2500(8) 0.5061(8) -0.0058(5)
C12 C 0.1951(8) 0.5593(8) 0.0206(6)
C13 C 0.1257(8) 0.5884(9) 0.0160(6)
H9 H 0.1138 0.5723 -0.0053
C14 C 0.0747(9) 0.6397(9) 0.0418(6)
H10 H 0.0268 0.6571 0.0403
C15 C 0.0923(9) 0.6684(9) 0.0716(6)
H11 H 0.0568 0.7066 0.0874
C16 C 0.1579(9) 0.6413(9) 0.0769(6)
H12 H 0.1677 0.6600 0.0977
C17 C 0.2152(8) 0.5851(8) 0.0529(6)
C18 C 0.2878(8) 0.5536(8) 0.0571(6)
C19 C 0.3392(8) 0.4995(8) 0.0321(6)
C20 C 0.1196(10) 0.0094(11) 0.1438(8)
H13 H 0.1158 -0.0338 0.1639
C21 C 0.0769(11) 0.0531(10) 0.1088(8)
H14 H 0.0403 0.0423 0.1078
C22 C 0.0884(10) 0.1127(10) 0.0752(8)
H15 H 0.0639 0.1391 0.0484
C23 C 0.1355(9) 0.1330(9) 0.0811(7)
C24 C 0.1722(8) 0.0909(8) 0.1194(6)
H16 H 0.2025 0.1059 0.1252
C25 C 0.0254(9) 0.2751(9) 0.0856(6)
H17 H 0.0148 0.2351 0.1056
C26 C -0.0272(9) 0.3404(9) 0.0899(7)
H18 H -0.0735 0.3452 0.1112
C27 C -0.0116(9) 0.4012(9) 0.0617(6)
H19 H -0.0471 0.4468 0.0649
C28 C 0.0559(8) 0.3930(8) 0.0296(6)
H20 H 0.0654 0.4338 0.0104
C29 C 0.1111(8) 0.3264(8) 0.0244(6)
C30 C 0.1793(8) 0.3195(8) -0.0072(6)
C31 C 0.2327(8) 0.2521(8) -0.0147(6)
C32 C 0.3017(9) 0.2440(9) -0.0489(6)
H21 H 0.3128 0.2842 -0.0668
C33 C 0.3539(10) 0.1759(9) -0.0564(7)
H22 H 0.3996 0.1708 -0.0792
C34 C 0.3379(10) 0.1172(10) -0.0305(7)
H23 H 0.3724 0.0722 -0.0365
C35 C 0.2726(9) 0.1228(9) 0.0040(6)
H24 H 0.2632 0.0818 0.0219
C36 C 0.2181(9) 0.1914(8) 0.0131(6)
C37 C 0.1523(8) 0.1971(8) 0.0468(6)
C38 C 0.0952(8) 0.2643(8) 0.0526(6)
C39 C 0.2299(8) 0.4746(8) -0.0370(5)
C40 C 0.2203(8) 0.5076(8) -0.0873(6)
C41 C 0.2005(9) 0.4775(9) -0.1125(6)
C42 C 0.1882(9) 0.4172(9) -0.0874(6)
C43 C 0.1965(8) 0.3849(8) -0.0370(6)
C44 C 0.2176(7) 0.4150(8) -0.0134(5)
H25 H 0.2238 0.3929 0.0209
C45 C 0.1197(8) 0.6868(8) 0.2100(6)
H26 H 0.1492 0.7124 0.1981
C46 C 0.0566(9) 0.7170(9) 0.1971(6)
H27 H 0.0439 0.7624 0.1751
C47 C 0.0083(9) 0.6820(8) 0.2161(6)
H28 H -0.0368 0.7042 0.2082
C48 C 0.0302(8) 0.6147(8) 0.2462(6)
C49 C 0.0998(8) 0.5849(7) 0.2571(5)
H29 H 0.1159 0.5385 0.2772
C50 C 0.0314(9) 0.5296(8) 0.1860(6)
H30 H 0.0615 0.5548 0.1718
C51 C 0.0322(9) 0.4930(9) 0.1557(7)
H31 H 0.0625 0.4922 0.1215
C52 C -0.0142(9) 0.4550(9) 0.1767(6)
H32 H -0.0161 0.4311 0.1553
C53 C -0.0556(8) 0.4531(8) 0.2274(6)
H33 H -0.0843 0.4266 0.2406
C54 C -0.0560(8) 0.4910(8) 0.2608(6)
C55 C -0.0983(8) 0.4873(8) 0.3144(6)
C56 C -0.0964(8) 0.5258(8) 0.3451(6)
C57 C -0.1322(8) 0.5219(9) 0.3983(6)
H34 H -0.1586 0.4929 0.4140
C58 C -0.1305(9) 0.5580(9) 0.4277(7)
H35 H -0.1558 0.5540 0.4634
C59 C -0.0919(9) 0.6013(9) 0.4065(6)
H36 H -0.0921 0.6269 0.4276
C60 C -0.0535(8) 0.6068(8) 0.3546(6)
H37 H -0.0267 0.6352 0.3406
C61 C -0.0546(8) 0.5690(8) 0.3221(6)
C62 C -0.0139(8) 0.5718(7) 0.2687(6)
C63 C -0.0124(8) 0.5327(8) 0.2383(6)
C64 C 0.1280(10) -0.0860(10) 0.2900(7)
H38 H 0.1599 -0.1305 0.2817
C65 C 0.0691(10) -0.0800(10) 0.3300(8)
H39 H 0.0583 -0.1204 0.3478
C66 C 0.0252(11) -0.0187(10) 0.3454(8)
H40 H -0.0136 -0.0173 0.3752
C67 C 0.0361(10) 0.0417(9) 0.3185(7)
C68 C 0.0960(9) 0.0341(9) 0.2770(7)
H41 H 0.1057 0.0749 0.2582
C69 C 0.0228(10) 0.0764(10) 0.4137(7)
H42 H 0.0522 0.0302 0.4078
C70 C 0.0189(11) 0.0924(11) 0.4573(8)
H43 H 0.0466 0.0574 0.4806
C71 C -0.0264(10) 0.1615(10) 0.4696(8)
H44 H -0.0300 0.1701 0.5015
C72 C -0.0638(10) 0.2141(10) 0.4353(7)
H45 H -0.0912 0.2601 0.4420
C73 C -0.0607(10) 0.1977(10) 0.3879(7)
C74 C -0.0994(9) 0.2514(9) 0.3498(7)
C75 C -0.0956(9) 0.2354(9) 0.3044(7)
C76 C -0.1315(9) 0.2881(10) 0.2674(7)
H46 H -0.1595 0.3345 0.2733
C77 C -0.1256(10) 0.2714(11) 0.2208(8)
H47 H -0.1500 0.3066 0.1957
C78 C -0.0851(10) 0.2053(10) 0.2124(7)
H48 H -0.0814 0.1960 0.1808
C79 C -0.0498(9) 0.1522(10) 0.2463(7)
H49 H -0.0243 0.1062 0.2395
C80 C -0.0513(9) 0.1661(9) 0.2941(7)
C81 C -0.0131(9) 0.1142(9) 0.3305(7)
C82 C -0.0163(9) 0.1275(9) 0.3761(7)
C83 C -0.1399(9) 0.4424(9) 0.3371(6)
C84 C -0.2135(10) 0.4701(10) 0.3539(7)
C85 C -0.2517(11) 0.4280(12) 0.3721(8)
C86 C -0.2142(11) 0.3551(11) 0.3737(8)
C87 C -0.1413(9) 0.3250(10) 0.3570(7)
C88 C -0.1054(9) 0.3700(9) 0.3402(6)
H50 H -0.0549 0.3501 0.3306
C89 C 0.1307(8) 0.6103(8) 0.3584(6)
H51 H 0.1229 0.6572 0.3398
C90 C 0.0921(9) 0.5962(8) 0.4080(6)
H52 H 0.0561 0.6348 0.4232
C91 C 0.1020(9) 0.5281(8) 0.4382(6)
H53 H 0.0735 0.5212 0.4728
C92 C 0.1563(8) 0.4689(8) 0.4159(6)
C93 C 0.1931(8) 0.4873(7) 0.3636(5)
H54 H 0.2284 0.4497 0.3471
C94 C 0.0591(8) 0.4006(8) 0.4447(6)
H55 H 0.0443 0.4488 0.4280
C95 C 0.0142(9) 0.3654(9) 0.4585(6)
H56 H -0.0310 0.3906 0.4506
C96 C 0.0335(9) 0.2931(9) 0.4838(6)
H57 H 0.0010 0.2713 0.4935
C97 C 0.0994(9) 0.2554(9) 0.4939(6)
H58 H 0.1131 0.2068 0.5096
C98 C 0.1485(8) 0.2890(8) 0.4809(6)
C99 C 0.2204(9) 0.2488(9) 0.4893(6)
C100 C 0.2642(9) 0.2839(8) 0.4795(6)
C101 C 0.3354(9) 0.2456(9) 0.4904(6)
H59 H 0.3521 0.1963 0.5037
C102 C 0.3780(10) 0.2813(10) 0.4813(7)
H60 H 0.4232 0.2561 0.4890
C103 C 0.3547(10) 0.3566(10) 0.4600(7)
H61 H 0.3840 0.3807 0.4541
C104 C 0.2899(9) 0.3915(10) 0.4490(6)
H62 H 0.2741 0.4407 0.4354
C105 C 0.2435(9) 0.3562(9) 0.4572(6)
C106 C 0.1735(8) 0.3966(8) 0.4448(6)
C107 C 0.1301(8) 0.3618(8) 0.4564(6)
C108 C 0.3395(9) -0.1566(9) 0.2527(7)
H63 H 0.3447 -0.1797 0.2277
C109 C 0.3817(10) -0.1942(10) 0.2869(7)
H64 H 0.4141 -0.2414 0.2858
C110 C 0.3755(9) -0.1608(9) 0.3239(7)
H65 H 0.4052 -0.1845 0.3475
C111 C 0.3236(9) -0.0904(8) 0.3254(7)
C112 C 0.2858(9) -0.0609(8) 0.2891(6)
H66 H 0.2513 -0.0144 0.2903
C113 C 0.3997(9) -0.0007(9) 0.2979(6)
H67 H 0.4066 -0.0263 0.2740
C114 C 0.4351(9) 0.0439(9) 0.2833(7)
H68 H 0.4667 0.0484 0.2498
C115 C 0.4232(9) 0.0826(9) 0.3197(6)
H69 H 0.4454 0.1148 0.3089
C116 C 0.3805(9) 0.0751(8) 0.3700(6)
H70 H 0.3765 0.0996 0.3937
C117 C 0.3430(9) 0.0309(8) 0.3861(6)
C118 C 0.2974(9) 0.0228(9) 0.4368(7)
C119 C 0.2582(10) -0.0204(9) 0.4496(7)
C120 C 0.2067(11) -0.0249(11) 0.5010(8)
H71 H 0.1982 0.0009 0.5253
C121 C 0.1714(12) -0.0685(11) 0.5122(9)
H72 H 0.1423 -0.0761 0.5464
C122 C 0.1762(12) -0.1001(11) 0.4776(8)
H73 H 0.1468 -0.1252 0.4869
C123 C 0.2235(10) -0.0977(10) 0.4278(8)
H74 H 0.2284 -0.1218 0.4036
C124 C 0.2646(10) -0.0556(9) 0.4157(7)
C125 C 0.3164(9) -0.0536(9) 0.3643(6)
C126 C 0.3523(9) -0.0081(8) 0.3496(6)
C127 C 0.2459(9) 0.1694(9) 0.5073(6)
C128 C 0.2720(10) 0.1283(10) 0.5516(7)
C129 C 0.3061(11) 0.0542(10) 0.5586(7)
C130 C 0.3202(11) 0.0217(11) 0.5197(7)
C131 C 0.2892(10) 0.0590(9) 0.4767(7)
C132 C 0.2553(9) 0.1309(9) 0.4703(6)
H75 H 0.2371 0.1568 0.4403
C133 C 0.3458(8) 0.5272(8) 0.3154(6)
H76 H 0.3114 0.5657 0.3312
C134 C 0.4103(9) 0.4889(9) 0.3294(7)
H77 H 0.4216 0.5029 0.3523
C135 C 0.4580(9) 0.4293(9) 0.3086(6)
H78 H 0.5020 0.4015 0.3180
C136 C 0.4410(9) 0.4108(8) 0.2742(6)
C137 C 0.3761(8) 0.4539(8) 0.2615(6)
H79 H 0.3638 0.4415 0.2381
C138 C 0.4728(9) 0.2673(9) 0.3405(6)
H80 H 0.4429 0.3070 0.3561
C139 C 0.4872(9) 0.2006(9) 0.3711(7)
H81 H 0.4671 0.1950 0.4077
C140 C 0.5305(9) 0.1411(9) 0.3496(6)
H82 H 0.5389 0.0959 0.3717
C141 C 0.5616(9) 0.1471(9) 0.2962(6)
H83 H 0.5921 0.1063 0.2820
C142 C 0.5472(8) 0.2149(8) 0.2632(6)
C143 C 0.5758(8) 0.2222(8) 0.2075(6)
C144 C 0.5625(8) 0.2907(9) 0.1742(6)
C145 C 0.5949(9) 0.2985(9) 0.1193(6)
H84 H 0.6203 0.2582 0.1042
C146 C 0.5898(9) 0.3638(9) 0.0880(7)
H85 H 0.6144 0.3681 0.0522
C147 C 0.5475(9) 0.4242(10) 0.1100(7)
H86 H 0.5420 0.4694 0.0882
C148 C 0.5144(9) 0.4187(9) 0.1621(7)
H87 H 0.4858 0.4602 0.1756
C149 C 0.5217(8) 0.3516(9) 0.1970(6)
C150 C 0.4897(8) 0.3452(8) 0.2529(6)
C151 C 0.5028(8) 0.2774(8) 0.2849(6)
C152 C 0.3334(9) -0.0600(9) 0.0987(7)
H88 H 0.2990 -0.0705 0.0939
C153 C 0.3952(9) -0.0669(9) 0.0605(7)
H89 H 0.4038 -0.0834 0.0307
C154 C 0.4463(10) -0.0494(9) 0.0656(7)
H90 H 0.4891 -0.0534 0.0391
C155 C 0.4328(9) -0.0260(9) 0.1105(6)
C156 C 0.3679(9) -0.0206(8) 0.1480(6)
H91 H 0.3576 -0.0036 0.1779
C157 C 0.4467(9) 0.1080(9) 0.0526(6)
H92 H 0.4135 0.0962 0.0474
C158 C 0.4542(10) 0.1700(10) 0.0259(7)
H93 H 0.4253 0.2009 0.0024
C159 C 0.5021(10) 0.1898(10) 0.0317(7)
H94 H 0.5070 0.2324 0.0112
C160 C 0.5436(9) 0.1460(9) 0.0684(6)
H95 H 0.5763 0.1596 0.0724
C161 C 0.5369(9) 0.0814(8) 0.0997(6)
C162 C 0.5724(8) 0.0399(8) 0.1398(6)
C163 C 0.5668(9) -0.0248(9) 0.1688(6)
C164 C 0.6010(9) -0.0678(9) 0.2089(7)
H96 H 0.6311 -0.0539 0.2162
C165 C 0.5929(10) -0.1297(10) 0.2385(7)
H97 H 0.6159 -0.1565 0.2661
C166 C 0.5499(10) -0.1533(10) 0.2275(7)
H98 H 0.5440 -0.1957 0.2472
C167 C 0.5175(9) -0.1129(9) 0.1875(7)
H99 H 0.4900 -0.1294 0.1798
C168 C 0.5219(9) -0.0480(9) 0.1567(6)
C169 C 0.4819(9) -0.0035(9) 0.1187(6)
C170 C 0.4903(9) 0.0604(9) 0.0892(6)
C171 C 0.6165(8) 0.1570(9) 0.1851(6)
C172 C 0.6910(9) 0.1177(10) 0.1810(7)
C173 C 0.7249(10) 0.0582(10) 0.1617(8)
C174 C 0.6906(10) 0.0322(10) 0.1474(8)
C175 C 0.6132(9) 0.0672(9) 0.1529(6)
C176 C 0.5800(9) 0.1290(8) 0.1727(6)
H100 H 0.5299 0.1530 0.1780
O1 O 0.2246(5) 0.5731(6) -0.1150(4)
C177 C 0.2850(8) 0.5851(9) -0.1189(6)
H101 H 0.3287 0.5426 -0.1256
H102 H 0.2804 0.5942 -0.0854
C178 C 0.2912(11) 0.6474(8) -0.1625(5)
H103 H 0.2444 0.6874 -0.1604
H104 H 0.3254 0.6623 -0.1593
O2 O 0.3149(8) 0.6272(7) -0.2104(5)
C179 C 0.3198(13) 0.6868(11) -0.2540(7)
H105 H 0.2725 0.7248 -0.2529
H106 H 0.3384 0.6715 -0.2871
H107 H 0.3520 0.7038 -0.2509
O3 O 0.1868(6) 0.5113(6) -0.1614(4)
C180 C 0.2423(8) 0.5176(10) -0.2068(6)
H108 H 0.2414 0.5653 -0.2144
H109 H 0.2311 0.5140 -0.2365
C181 C 0.3175(9) 0.4651(9) -0.2051(10)
H110 H 0.3522 0.4771 -0.2369
H111 H 0.3296 0.4641 -0.1742
O4 O 0.3176(9) 0.4001(9) -0.2020(8)
C182 C 0.3883(12) 0.3429(13) -0.1995(13)
H112 H 0.4234 0.3508 -0.2320
H113 H 0.3860 0.2978 -0.1949
H114 H 0.4023 0.3422 -0.1701
O5 O 0.1437(12) 0.4001(11) -0.1034(7)
C183 C 0.1710(16) 0.3797(15) -0.1524(8)
H115 H 0.2234 0.3547 -0.1589
H116 H 0.1607 0.4225 -0.1804
C184 C 0.1405(15) 0.3328(11) -0.1557(11)
H117 H 0.0879 0.3548 -0.1453
H118 H 0.1550 0.3273 -0.1922
O6 O 0.1644(12) 0.2663(11) -0.1229(9)
C185 C 0.2378(14) 0.2279(18) -0.1512(15)
H119 H 0.2575 0.1808 -0.1302
H120 H 0.2370 0.2240 -0.1846
H121 H 0.2674 0.2535 -0.1577
O7 O -0.2493(7) 0.5424(7) 0.3538(5)
C186 C -0.2752(11) 0.5892(7) 0.3095(7)
H122 H -0.3178 0.5836 0.3103
H123 H -0.2385 0.5748 0.2777
C187 C -0.2947(13) 0.6662(9) 0.3052(8)
H124 H -0.2543 0.6726 0.3077
H125 H -0.3055 0.6937 0.2711
O8 O -0.3545(10) 0.6899(10) 0.3458(8)
C188 C -0.3344(17) 0.6734(18) 0.3948(9)
H126 H -0.3091 0.6226 0.4049
H127 H -0.3774 0.6897 0.4224
H128 H -0.3035 0.6971 0.3894
O9 O -0.3248(15) 0.4531(16) 0.4020(9)
C189 C -0.3423(17) 0.461(3) 0.4545(11)
H129 H -0.3537 0.4204 0.4786
H130 H -0.3858 0.5039 0.4597
C190 C -0.285(2) 0.465(2) 0.4693(11)
H131 H -0.2383 0.4328 0.4515
H132 H -0.2862 0.5130 0.4545
O10 O -0.2856(16) 0.4486(19) 0.5221(11)
C191 C -0.2122(19) 0.404(2) 0.5278(18)
H133 H -0.2119 0.3922 0.5646
H134 H -0.1949 0.3606 0.5157
H135 H -0.1812 0.4293 0.5069
O11 O -0.2603(14) 0.3226(13) 0.3806(10)
C192 C -0.2514(15) 0.2571(15) 0.4171(14)
H136 H -0.2391 0.2578 0.4473
H137 H -0.2117 0.2186 0.4004
C193 C -0.3189(18) 0.243(2) 0.4359(10)
H138 H -0.3109 0.1956 0.4578
H139 H -0.3579 0.2780 0.4566
O12 O -0.3356(14) 0.2504(17) 0.3903(10)
C194 C -0.4007(19) 0.238(3) 0.4036(17)
H140 H -0.4119 0.2426 0.3715
H141 H -0.3932 0.1900 0.4245
H142 H -0.4404 0.2718 0.4236
O13 O 0.2658(7) 0.1573(7) 0.5901(5)
C195 C 0.1961(8) 0.2033(11) 0.6122(7)
H143 H 0.1628 0.1815 0.6180
H144 H 0.1831 0.2473 0.5857
C196 C 0.1827(12) 0.2228(12) 0.6624(7)
H145 H 0.1847 0.2695 0.6540
H146 H 0.1340 0.2273 0.6833
O14 O 0.2306(10) 0.1751(10) 0.6928(7)
C197 C 0.2181(16) 0.2055(15) 0.7365(9)
H147 H 0.2625 0.2065 0.7360
H148 H 0.2019 0.1768 0.7696
H149 H 0.1817 0.2535 0.7327
O15 O 0.3363(7) 0.0161(7) 0.6007(5)
C198 C 0.2862(10) 0.0078(10) 0.6495(6)
H150 H 0.2406 0.0491 0.6486
H151 H 0.3039 0.0070 0.6774
C199 C 0.2724(11) -0.0582(10) 0.6630(9)
H152 H 0.3152 -0.0962 0.6478
H153 H 0.2591 -0.0747 0.7013
O16 O 0.2160(9) -0.0385(9) 0.6413(7)
C200 C 0.2019(15) -0.1005(13) 0.6480(12)
H154 H 0.2471 -0.1400 0.6395
H155 H 0.1726 -0.0897 0.6248
H156 H 0.1766 -0.1129 0.6843
O17 O 0.3572(7) -0.0506(8) 0.5256(5)
C201 C 0.4320(8) -0.0761(13) 0.5199(7)
H157 H 0.4493 -0.1272 0.5348
H158 H 0.4392 -0.0538 0.5413
C202 C 0.4786(13) -0.0648(12) 0.4654(8)
H159 H 0.4544 -0.0182 0.4447
H160 H 0.5243 -0.0676 0.4666
O18 O 0.4899(11) -0.1188(10) 0.4435(7)
C203 C 0.5427(16) -0.1136(17) 0.3928(9)
H161 H 0.5280 -0.0647 0.3733
H162 H 0.5458 -0.1437 0.3725
H163 H 0.5894 -0.1288 0.3989
O19 O 0.7191(6) 0.1472(7) 0.1995(5)
C204 C 0.7883(8) 0.1486(12) 0.1775(7)
H164 H 0.8244 0.1001 0.1836
H165 H 0.7939 0.1765 0.1955
C205 C 0.8018(11) 0.1798(14) 0.1194(7)
H166 H 0.8094 0.1467 0.0994
H167 H 0.7616 0.2244 0.1113
O20 O 0.8640(9) 0.1912(10) 0.1085(7)
C206 C 0.8777(16) 0.2305(16) 0.0541(8)
H168 H 0.8399 0.2406 0.0385
H169 H 0.9237 0.2022 0.0340
H170 H 0.8787 0.2747 0.0537
O21 O 0.7992(7) 0.0216(7) 0.1568(6)
C207 C 0.8207(11) -0.0472(9) 0.1891(9)
H171 H 0.8249 -0.0815 0.1716
H172 H 0.7840 -0.0480 0.2225
C208 C 0.8916(10) -0.0684(12) 0.2001(10)
H173 H 0.9108 -0.1189 0.2165
H174 H 0.9268 -0.0590 0.1675
O22 O 0.8758(10) -0.0264(11) 0.2345(8)
C209 C 0.9403(14) -0.0239(18) 0.2374(13)
H175 H 0.9681 -0.0694 0.2563
H176 H 0.9266 0.0129 0.2557
H177 H 0.9691 -0.0136 0.2020
O23 O 0.722(2) -0.032(2) 0.1302(10)
C210 C 0.7542(19) -0.0363(19) 0.0766(10)
C211 C 0.7125(17) 0.017(2) 0.0374(12)
H178 H 0.6873 -0.0035 0.0289
H179 H 0.6766 0.0586 0.0524
O24 O 0.7592(18) 0.0378(17) -0.0081(11)
C212 C 0.742(3) 0.1125(19) -0.012(2)
H180 H 0.7733 0.1291 -0.0433
H181 H 0.6922 0.1405 -0.0139
H182 H 0.7482 0.1175 0.0190
N1 N 0.2860(6) 0.5830(6) 0.1835(4)
N2 N 0.1669(7) 0.0293(7) 0.1490(5)
N3 N 0.1418(6) 0.6205(6) 0.2397(4)
N4 N 0.1413(7) -0.0263(7) 0.2612(5)
N5 N 0.1827(6) 0.5526(6) 0.3354(4)
N6 N 0.2906(7) -0.0891(7) 0.2508(5)
N7 N 0.3308(6) 0.5108(6) 0.2798(4)
N8 N 0.3185(7) -0.0387(7) 0.1435(5)
Pt1 Pt 0.23613(3) 0.56876(3) 0.25928(2)
Pt2 Pt 0.22922(4) -0.03309(3) 0.20148(3)
C225 C 0.3043(12) 0.2829(12) 0.3385(8)
H211 H 0.3385 0.2475 0.3588
H212 H 0.2559 0.2883 0.3594
H213 H 0.3090 0.3279 0.3291
C226 C 0.3696(11) 0.2634(11) 0.2464(8)
H214 H 0.4003 0.2859 0.2406
C227 C 0.3198(10) 0.2074(10) 0.2369(7)
C228 C 0.2867(10) 0.2199(10) 0.2853(7)
C229 C 0.2286(10) 0.2062(10) 0.3214(8)
C230 C 0.1587(11) 0.1355(11) 0.3339(8)
H215 H 0.1318 0.1361 0.3126
H216 H 0.1264 0.1653 0.3593
H217 H 0.1812 0.0873 0.3523
C231 C 0.2449(10) 0.1463(10) 0.2514(7)
C232 C 0.3374(11) 0.1493(11) 0.1665(8)
H218 H 0.3033 0.1694 0.1451
H219 H 0.3587 0.0980 0.1711
H220 H 0.3749 0.1677 0.1492
N9 N 0.3187(9) 0.2598(9) 0.2898(6)
N10 N 0.3735(8) 0.2309(9) 0.2103(6)
N11 N 0.2988(8) 0.1694(8) 0.2201(6)
N12 N 0.2135(8) 0.1623(8) 0.3002(6)
O33 O 0.1984(7) 0.2149(7) 0.3652(5)
O34 O 0.2281(8) 0.1092(7) 0.2368(6)
C233 C 0.0758(12) 0.2443(13) 0.2068(9)
H221 H 0.0457 0.2545 0.2411
H222 H 0.1025 0.1935 0.2101
H223 H 0.0459 0.2617 0.1825
C234 C 0.1679(11) 0.2833(11) 0.1374(8)
H224 H 0.1681 0.2628 0.1126
C235 C 0.1911(10) 0.3371(10) 0.1725(7)
C236 C 0.1392(10) 0.3146(10) 0.2091(7)
C237 C 0.1109(10) 0.3301(9) 0.2598(7)
C238 C 0.1093(10) 0.3869(10) 0.3216(7)
H225 H 0.1313 0.3452 0.3466
H226 H 0.0577 0.4003 0.3319
H227 H 0.1198 0.4257 0.3213
C239 C 0.1896(10) 0.3942(10) 0.2314(7)
C240 C 0.2713(11) 0.3971(11) 0.1424(8)
H228 H 0.2982 0.3638 0.1191
H229 H 0.3039 0.3984 0.1579
H230 H 0.2481 0.4440 0.1225
N13 N 0.1253(9) 0.2790(9) 0.1871(6)
N14 N 0.2109(9) 0.3196(9) 0.1257(6)
N15 N 0.2178(8) 0.3749(8) 0.1834(6)
N16 N 0.1393(8) 0.3707(8) 0.2673(6)
O35 O 0.0670(6) 0.3068(7) 0.2943(5)
O36 O 0.2155(7) 0.4278(7) 0.2432(5)
O37 O 0.1006(13) 0.0869(13) 0.5919(10)
O38 O 0.8915(14) 0.2514(13) 0.5809(10)
O39 O 0.115(2) 0.849(2) 0.1945(17)
O40 O 0.259(2) 0.712(2) 0.2726(17)
N17 N 0.4669(18) 0.746(3) 0.1320(19)
O41 O 0.420(2) 0.741(2) 0.1264(17)
O42 O 0.517(2) 0.740(3) 0.0976(16)
O43 O 0.454(2) 0.783(2) 0.1586(16)
N18 N 0.0102(15) 0.786(3) 0.3278(10)
O44 O -0.0106(17) 0.779(2) 0.3724(10)
O45 O -0.0163(17) 0.772(2) 0.3070(12)
O46 O 0.0703(15) 0.773(2) 0.3109(12)
O47 O 0.713(3) 0.234(3) 0.0021(19)
O48 O 0.928(3) 0.817(3) 0.109(2)
O25? O 0.1938(15) 0.3728(15) -0.1180(12)
C213? C 0.1275(14) 0.3794(18) -0.1210(18)
H183? H 0.1101 0.4225 -0.1473
H184? H 0.0932 0.3871 -0.0869
C214? C 0.1247(15) 0.3201(18) -0.1343(18)
H185? H 0.1088 0.2897 -0.1015
H186? H 0.0887 0.3402 -0.1546
O26? O 0.1898(17) 0.2786(15) -0.1630(11)
C215? C 0.214(3) 0.2066(17) -0.131(2)
H187? H 0.2591 0.1769 -0.1504
H188? H 0.2195 0.2081 -0.0986
H189? H 0.1779 0.1872 -0.1225
O27? O -0.3280(19) 0.460(2) 0.3785(13)
C216? C -0.3524(14) 0.4711(12) 0.3345(12)
H190? H -0.3202 0.4314 0.3167
H191? H -0.3484 0.5144 0.3098
C217? C -0.4281(15) 0.4775(18) 0.3469(18)
H192? H -0.4604 0.5099 0.3710
H193? H -0.4447 0.4954 0.3146
O28? O -0.4263(18) 0.4094(18) 0.3704(15)
C218? C -0.483(3) 0.410(3) 0.4198(18)
H194? H -0.4807 0.3624 0.4358
H195? H -0.4748 0.4278 0.4437
H196? H -0.5292 0.4409 0.4125
O29? O -0.250(2) 0.304(2) 0.4016(12)
C219? C -0.277(2) 0.297(2) 0.4568(13)
H197? H -0.3132 0.3428 0.4647
H198? H -0.2374 0.2835 0.4723
C220? C -0.3098(18) 0.243(2) 0.4828(17)
H199? H -0.2781 0.1987 0.4699
H200? H -0.3166 0.2319 0.5210
O30? O -0.3757(18) 0.270(2) 0.4709(14)
C221? C -0.422(2) 0.241(3) 0.517(2)
H201? H -0.4691 0.2588 0.5102
H202? H -0.4009 0.1897 0.5223
H203? H -0.4271 0.2554 0.5475
O31? O 0.730(2) -0.023(2) 0.1187(11)
C222? C 0.7717(16) -0.009(2) 0.0658(12)
H204? H 0.7572 0.0427 0.0541
H205? H 0.7577 -0.0241 0.0436
C223? C 0.8520(16) -0.0419(17) 0.0549(16)
H206? H 0.8663 -0.0601 0.0882
H207? H 0.8706 -0.0820 0.0380
O32? O 0.8815(17) 0.0070(19) 0.0223(12)
C224? C 0.917(3) 0.022(3) 0.051(2)
H208? H 0.9371 0.0560 0.0273
H209? H 0.8816 0.0409 0.0809
H210? H 0.9547 -0.0218 0.0624
loop_
_geom_bond_atom_site_label_1
_geom_bond_atom_site_label_2
_geom_bond_site_symmetry_1
_geom_bond_site_symmetry_2
C1 H1 1_555 1_555
C2 C1 1_555 1_555
H2 C2 1_555 1_555
C3 C2 1_555 1_555
H3 C3 1_555 1_555
C4 C3 1_555 1_555
C5 C4 1_555 1_555
H4 C5 1_555 1_555
C6 H5 1_555 1_555
C7 C6 1_555 1_555
H6 C7 1_555 1_555
C8 C7 1_555 1_555
H7 C8 1_555 1_555
C9 C8 1_555 1_555
H8 C9 1_555 1_555
C10 C9 1_555 1_555
C11 C10 1_555 1_555
C12 C11 1_555 1_555
C13 C12 1_555 1_555
H9 C13 1_555 1_555
C14 C13 1_555 1_555
H10 C14 1_555 1_555
C15 C14 1_555 1_555
H11 C15 1_555 1_555
C16 C15 1_555 1_555
H12 C16 1_555 1_555
C17 C12 1_555 1_555
C18 C4 1_555 1_555
C19 C6 1_555 1_555
C20 H13 1_555 1_555
C21 C20 1_555 1_555
H14 C21 1_555 1_555
C22 C21 1_555 1_555
H15 C22 1_555 1_555
C23 C22 1_555 1_555
C24 C23 1_555 1_555
H16 C24 1_555 1_555
C25 H17 1_555 1_555
C26 C25 1_555 1_555
H18 C26 1_555 1_555
C27 C26 1_555 1_555
H19 C27 1_555 1_555
C28 C27 1_555 1_555
H20 C28 1_555 1_555
C29 C28 1_555 1_555
C30 C29 1_555 1_555
C31 C30 1_555 1_555
C32 C31 1_555 1_555
H21 C32 1_555 1_555
C33 C32 1_555 1_555
H22 C33 1_555 1_555
C34 C33 1_555 1_555
H23 C34 1_555 1_555
C35 C34 1_555 1_555
H24 C35 1_555 1_555
C36 C31 1_555 1_555
C37 C23 1_555 1_555
C38 C25 1_555 1_555
C39 C11 1_555 1_555
C40 C39 1_555 1_555
C41 C40 1_555 1_555
C42 C41 1_555 1_555
C43 C30 1_555 1_555
C44 C39 1_555 1_555
H25 C44 1_555 1_555
C45 H26 1_555 1_555
C46 C45 1_555 1_555
H27 C46 1_555 1_555
C47 C46 1_555 1_555
H28 C47 1_555 1_555
C48 C47 1_555 1_555
C49 C48 1_555 1_555
H29 C49 1_555 1_555
C50 H30 1_555 1_555
C51 C50 1_555 1_555
H31 C51 1_555 1_555
C52 C51 1_555 1_555
H32 C52 1_555 1_555
C53 C52 1_555 1_555
H33 C53 1_555 1_555
C54 C53 1_555 1_555
C55 C54 1_555 1_555
C56 C55 1_555 1_555
C57 C56 1_555 1_555
H34 C57 1_555 1_555
C58 C57 1_555 1_555
H35 C58 1_555 1_555
C59 C58 1_555 1_555
H36 C59 1_555 1_555
C60 C59 1_555 1_555
H37 C60 1_555 1_555
C61 C56 1_555 1_555
C62 C48 1_555 1_555
C63 C50 1_555 1_555
C64 H38 1_555 1_555
C65 C64 1_555 1_555
H39 C65 1_555 1_555
C66 C65 1_555 1_555
H40 C66 1_555 1_555
C67 C66 1_555 1_555
C68 C67 1_555 1_555
H41 C68 1_555 1_555
C69 H42 1_555 1_555
C70 C69 1_555 1_555
H43 C70 1_555 1_555
C71 C70 1_555 1_555
H44 C71 1_555 1_555
C72 C71 1_555 1_555
H45 C72 1_555 1_555
C73 C72 1_555 1_555
C74 C73 1_555 1_555
C75 C74 1_555 1_555
C76 C75 1_555 1_555
H46 C76 1_555 1_555
C77 C76 1_555 1_555
H47 C77 1_555 1_555
C78 C77 1_555 1_555
H48 C78 1_555 1_555
C79 C78 1_555 1_555
H49 C79 1_555 1_555
C80 C75 1_555 1_555
C81 C67 1_555 1_555
C82 C69 1_555 1_555
C83 C55 1_555 1_555
C84 C83 1_555 1_555
C85 C84 1_555 1_555
C86 C85 1_555 1_555
C87 C74 1_555 1_555
C88 C83 1_555 1_555
H50 C88 1_555 1_555
C89 H51 1_555 1_555
C90 C89 1_555 1_555
H52 C90 1_555 1_555
C91 C90 1_555 1_555
H53 C91 1_555 1_555
C92 C91 1_555 1_555
C93 C92 1_555 1_555
H54 C93 1_555 1_555
C94 H55 1_555 1_555
C95 C94 1_555 1_555
H56 C95 1_555 1_555
C96 C95 1_555 1_555
H57 C96 1_555 1_555
C97 C96 1_555 1_555
H58 C97 1_555 1_555
C98 C97 1_555 1_555
C99 C98 1_555 1_555
C100 C99 1_555 1_555
C101 C100 1_555 1_555
H59 C101 1_555 1_555
C102 C101 1_555 1_555
H60 C102 1_555 1_555
C103 C102 1_555 1_555
H61 C103 1_555 1_555
C104 C103 1_555 1_555
H62 C104 1_555 1_555
C105 C100 1_555 1_555
C106 C92 1_555 1_555
C107 C94 1_555 1_555
C108 H63 1_555 1_555
C109 C108 1_555 1_555
H64 C109 1_555 1_555
C110 C109 1_555 1_555
H65 C110 1_555 1_555
C111 C110 1_555 1_555
C112 C111 1_555 1_555
H66 C112 1_555 1_555
C113 H67 1_555 1_555
C114 C113 1_555 1_555
H68 C114 1_555 1_555
C115 C114 1_555 1_555
H69 C115 1_555 1_555
C116 C115 1_555 1_555
H70 C116 1_555 1_555
C117 C116 1_555 1_555
C118 C117 1_555 1_555
C119 C118 1_555 1_555
C120 C119 1_555 1_555
H71 C120 1_555 1_555
C121 C120 1_555 1_555
H72 C121 1_555 1_555
C122 C121 1_555 1_555
H73 C122 1_555 1_555
C123 C122 1_555 1_555
H74 C123 1_555 1_555
C124 C119 1_555 1_555
C125 C111 1_555 1_555
C126 C113 1_555 1_555
C127 C99 1_555 1_555
C128 C127 1_555 1_555
C129 C128 1_555 1_555
C130 C129 1_555 1_555
C131 C118 1_555 1_555
C132 C127 1_555 1_555
H75 C132 1_555 1_555
C133 H76 1_555 1_555
C134 C133 1_555 1_555
H77 C134 1_555 1_555
C135 C134 1_555 1_555
H78 C135 1_555 1_555
C136 C135 1_555 1_555
C137 C136 1_555 1_555
H79 C137 1_555 1_555
C138 H80 1_555 1_555
C139 C138 1_555 1_555
H81 C139 1_555 1_555
C140 C139 1_555 1_555
H82 C140 1_555 1_555
C141 C140 1_555 1_555
H83 C141 1_555 1_555
C142 C141 1_555 1_555
C143 C142 1_555 1_555
C144 C143 1_555 1_555
C145 C144 1_555 1_555
H84 C145 1_555 1_555
C146 C145 1_555 1_555
H85 C146 1_555 1_555
C147 C146 1_555 1_555
H86 C147 1_555 1_555
C148 C147 1_555 1_555
H87 C148 1_555 1_555
C149 C144 1_555 1_555
C150 C136 1_555 1_555
C151 C138 1_555 1_555
C152 H88 1_555 1_555
C153 C152 1_555 1_555
H89 C153 1_555 1_555
C154 C153 1_555 1_555
H90 C154 1_555 1_555
C155 C154 1_555 1_555
C156 C155 1_555 1_555
H91 C156 1_555 1_555
C157 H92 1_555 1_555
C158 C157 1_555 1_555
H93 C158 1_555 1_555
C159 C158 1_555 1_555
H94 C159 1_555 1_555
C160 C159 1_555 1_555
H95 C160 1_555 1_555
C161 C160 1_555 1_555
C162 C161 1_555 1_555
C163 C162 1_555 1_555
C164 C163 1_555 1_555
H96 C164 1_555 1_555
C165 C164 1_555 1_555
H97 C165 1_555 1_555
C166 C165 1_555 1_555
H98 C166 1_555 1_555
C167 C166 1_555 1_555
H99 C167 1_555 1_555
C168 C163 1_555 1_555
C169 C155 1_555 1_555
C170 C157 1_555 1_555
C171 C143 1_555 1_555
C172 C171 1_555 1_555
C173 C172 1_555 1_555
C174 C173 1_555 1_555
C175 C162 1_555 1_555
C176 C171 1_555 1_555
H100 C176 1_555 1_555
O1 C40 1_555 1_555
C177 O1 1_555 1_555
H101 C177 1_555 1_555
H102 C177 1_555 1_555
C178 C177 1_555 1_555
H103 C178 1_555 1_555
H104 C178 1_555 1_555
O2 C178 1_555 1_555
C179 O2 1_555 1_555
H105 C179 1_555 1_555
H106 C179 1_555 1_555
H107 C179 1_555 1_555
O3 C41 1_555 1_555
C180 O3 1_555 1_555
H108 C180 1_555 1_555
H109 C180 1_555 1_555
C181 C180 1_555 1_555
H110 C181 1_555 1_555
H111 C181 1_555 1_555
O4 C181 1_555 1_555
C182 O4 1_555 1_555
H112 C182 1_555 1_555
H113 C182 1_555 1_555
H114 C182 1_555 1_555
O5 C42 1_555 1_555
C183 O5 1_555 1_555
H115 C183 1_555 1_555
H116 C183 1_555 1_555
C184 C183 1_555 1_555
H117 C184 1_555 1_555
H118 C184 1_555 1_555
O6 C184 1_555 1_555
C185 O6 1_555 1_555
H119 C185 1_555 1_555
H120 C185 1_555 1_555
H121 C185 1_555 1_555
O7 C84 1_555 1_555
C186 O7 1_555 1_555
H122 C186 1_555 1_555
H123 C186 1_555 1_555
C187 C186 1_555 1_555
H124 C187 1_555 1_555
H125 C187 1_555 1_555
O8 C187 1_555 1_555
C188 O8 1_555 1_555
H126 C188 1_555 1_555
H127 C188 1_555 1_555
H128 C188 1_555 1_555
O9 C85 1_555 1_555
C189 O9 1_555 1_555
H129 C189 1_555 1_555
H130 C189 1_555 1_555
C190 C189 1_555 1_555
H131 C190 1_555 1_555
H132 C190 1_555 1_555
O10 C190 1_555 1_555
C191 O10 1_555 1_555
H133 C191 1_555 1_555
H134 C191 1_555 1_555
H135 C191 1_555 1_555
O11 C86 1_555 1_555
C192 O11 1_555 1_555
H136 C192 1_555 1_555
H137 C192 1_555 1_555
C193 C192 1_555 1_555
H138 C193 1_555 1_555
H139 C193 1_555 1_555
O12 C193 1_555 1_555
C194 O12 1_555 1_555
H140 C194 1_555 1_555
H141 C194 1_555 1_555
H142 C194 1_555 1_555
O13 C128 1_555 1_555
C195 O13 1_555 1_555
H143 C195 1_555 1_555
H144 C195 1_555 1_555
C196 C195 1_555 1_555
H145 C196 1_555 1_555
H146 C196 1_555 1_555
O14 C196 1_555 1_555
C197 O14 1_555 1_555
H147 C197 1_555 1_555
H148 C197 1_555 1_555
H149 C197 1_555 1_555
O15 C129 1_555 1_555
C198 O15 1_555 1_555
H150 C198 1_555 1_555
H151 C198 1_555 1_555
C199 C198 1_555 1_555
H152 C199 1_555 1_555
H153 C199 1_555 1_555
O16 C199 1_555 1_555
C200 O16 1_555 1_555
H154 C200 1_555 1_555
H155 C200 1_555 1_555
H156 C200 1_555 1_555
O17 C130 1_555 1_555
C201 O17 1_555 1_555
H157 C201 1_555 1_555
H158 C201 1_555 1_555
C202 C201 1_555 1_555
H159 C202 1_555 1_555
H160 C202 1_555 1_555
O18 C202 1_555 1_555
C203 O18 1_555 1_555
H161 C203 1_555 1_555
H162 C203 1_555 1_555
H163 C203 1_555 1_555
O19 C172 1_555 1_555
C204 O19 1_555 1_555
H164 C204 1_555 1_555
H165 C204 1_555 1_555
C205 C204 1_555 1_555
H166 C205 1_555 1_555
H167 C205 1_555 1_555
O20 C205 1_555 1_555
C206 O20 1_555 1_555
H168 C206 1_555 1_555
H169 C206 1_555 1_555
H170 C206 1_555 1_555
O21 C173 1_555 1_555
C207 O21 1_555 1_555
H171 C207 1_555 1_555
H172 C207 1_555 1_555
C208 C207 1_555 1_555
H173 C208 1_555 1_555
H174 C208 1_555 1_555
O22 C208 1_555 1_555
C209 O22 1_555 1_555
H175 C209 1_555 1_555
H176 C209 1_555 1_555
H177 C209 1_555 1_555
O23 C174 1_555 1_555
C210 O23 1_555 1_555
C211 C210 1_555 1_555
H178 C211 1_555 1_555
H179 C211 1_555 1_555
O24 C211 1_555 1_555
C212 O24 1_555 1_555
H180 C212 1_555 1_555
H181 C212 1_555 1_555
H182 C212 1_555 1_555
N1 C1 1_555 1_555
N2 C20 1_555 1_555
N3 C45 1_555 1_555
N4 C64 1_555 1_555
N5 C89 1_555 1_555
N6 C108 1_555 1_555
N7 C133 1_555 1_555
N8 C152 1_555 1_555
Pt1 N1 1_555 1_555
Pt2 N2 1_555 1_555
C225 H211 1_555 1_555
H212 C225 1_555 1_555
H213 C225 1_555 1_555
C226 H214 1_555 1_555
C227 C228 1_555 1_555
C228 C229 1_555 1_555
C229 N12 1_555 1_555
C230 H215 1_555 1_555
H216 C230 1_555 1_555
H217 C230 1_555 1_555
C231 N11 1_555 1_555
C232 H218 1_555 1_555
H219 C232 1_555 1_555
H220 C232 1_555 1_555
N9 C225 1_555 1_555
N10 C226 1_555 1_555
N11 C227 1_555 1_555
N12 C230 1_555 1_555
O33 C229 1_555 1_555
O34 C231 1_555 1_555
C233 H221 1_555 1_555
H222 C233 1_555 1_555
H223 C233 1_555 1_555
C234 H224 1_555 1_555
C235 C236 1_555 1_555
C236 C237 1_555 1_555
C237 N16 1_555 1_555
C238 H225 1_555 1_555
H226 C238 1_555 1_555
H227 C238 1_555 1_555
C239 N15 1_555 1_555
C240 H228 1_555 1_555
H229 C240 1_555 1_555
H230 C240 1_555 1_555
N13 C233 1_555 1_555
N14 C234 1_555 1_555
N15 C235 1_555 1_555
N16 C238 1_555 1_555
O35 C237 1_555 1_555
O36 C239 1_555 1_555
N17 O41 1_555 1_555
O42 N17 1_555 1_555
O43 N17 1_555 1_555
N18 O44 1_555 1_555
O45 N18 1_555 1_555
O46 N18 1_555 1_555
C5 N1 1_555 1_555
C10 C19 1_555 1_555
C16 C17 1_555 1_555
C17 C18 1_555 1_555
C18 C19 1_555 1_555
C24 N2 1_555 1_555
C29 C38 1_555 1_555
C35 C36 1_555 1_555
C36 C37 1_555 1_555
C37 C38 1_555 1_555
C42 C43 1_555 1_555
C43 C44 1_555 1_555
C49 N3 1_555 1_555
C54 C63 1_555 1_555
C60 C61 1_555 1_555
C61 C62 1_555 1_555
C62 C63 1_555 1_555
C68 N4 1_555 1_555
C73 C82 1_555 1_555
C79 C80 1_555 1_555
C80 C81 1_555 1_555
C81 C82 1_555 1_555
C86 C87 1_555 1_555
C87 C88 1_555 1_555
C93 N5 1_555 1_555
C98 C107 1_555 1_555
C104 C105 1_555 1_555
C105 C106 1_555 1_555
C106 C107 1_555 1_555
C112 N6 1_555 1_555
C117 C126 1_555 1_555
C123 C124 1_555 1_555
C124 C125 1_555 1_555
C125 C126 1_555 1_555
C130 C131 1_555 1_555
C131 C132 1_555 1_555
C137 N7 1_555 1_555
C142 C151 1_555 1_555
C148 C149 1_555 1_555
C149 C150 1_555 1_555
C150 C151 1_555 1_555
C156 N8 1_555 1_555
C161 C170 1_555 1_555
C167 C168 1_555 1_555
C168 C169 1_555 1_555
C169 C170 1_555 1_555
C174 C175 1_555 1_555
C175 C176 1_555 1_555
N3 Pt1 1_555 1_555
N4 Pt2 1_555 1_555
N5 Pt1 1_555 1_555
N6 Pt2 1_555 1_555
N7 Pt1 1_555 1_555
N8 Pt2 1_555 1_555
C226 N9 1_555 1_555
C227 N10 1_555 1_555
C228 N9 1_555 1_555
C231 N12 1_555 1_555
C232 N11 1_555 1_555
C234 N13 1_555 1_555
C235 N14 1_555 1_555
C236 N13 1_555 1_555
C239 N16 1_555 1_555
C240 N15 1_555 1_555

#END
