# generated using pymatgen
data_H200Pt2C226(N4O9)5
_symmetry_space_group_name_H-M   'P 1'
_cell_length_a   18.70400000
_cell_length_b   22.04000000
_cell_length_c   27.15200000
_cell_angle_alpha   93.43300000
_cell_angle_beta   101.40200000
_cell_angle_gamma   106.85900000
_symmetry_Int_Tables_number   1
_chemical_formula_structural   H200Pt2C226(N4O9)5
_chemical_formula_sum   'H400 Pt4 C452 N40 O90'
_cell_volume   10418.28000966
_cell_formula_units_Z   2
loop_
 _symmetry_equiv_pos_site_id
 _symmetry_equiv_pos_as_xyz
  1  'x, y, z'
loop_
 _atom_site_type_symbol
 _atom_site_label
 _atom_site_symmetry_multiplicity
 _atom_site_fract_x
 _atom_site_fract_y
 _atom_site_fract_z
 _atom_site_occupancy
  H  H1  1  0.603600  0.146000  0.874800  1
  H  H2  1  0.396400  0.854000  0.125200  1
  H  H3  1  0.574000  0.134400  0.953000  1
  H  H4  1  0.426000  0.865600  0.047000  1
  H  H5  1  0.492000  0.039700  0.967400  1
  H  H6  1  0.508000  0.960300  0.032600  1
  H  H7  1  0.479100  0.967200  0.825900  1
  H  H8  1  0.520900  0.032800  0.174100  1
  H  H9  1  0.345100  0.002300  0.853400  1
  H  H10  1  0.654900  0.997700  0.146600  1
  H  H11  1  0.217400  0.977700  0.815800  1
  H  H12  1  0.782600  0.022300  0.184200  1
  H  H13  1  0.133300  0.874300  0.816500  1
  H  H14  1  0.866700  0.125700  0.183500  1
  H  H15  1  0.176300  0.799600  0.854900  1
  H  H16  1  0.823700  0.200400  0.145100  1
  H  H17  1  0.393200  0.740100  0.964700  1
  H  H18  1  0.606800  0.259900  0.035300  1
  H  H19  1  0.523700  0.767700  0.996800  1
  H  H20  1  0.476300  0.232300  0.003200  1
  H  H21  1  0.610000  0.866600  0.988000  1
  H  H22  1  0.390000  0.133400  0.012000  1
  H  H23  1  0.563300  0.937700  0.943400  1
  H  H24  1  0.436700  0.062300  0.056600  1
  H  H25  1  0.388800  0.324700  0.679900  1
  H  H26  1  0.611200  0.675300  0.320100  1
  H  H27  1  0.257600  0.306000  0.672800  1
  H  H28  1  0.742400  0.694000  0.327200  1
  H  H29  1  0.216000  0.382400  0.716700  1
  H  H30  1  0.784000  0.617600  0.283300  1
  H  H31  1  0.435800  0.483500  0.772200  1
  H  H32  1  0.564200  0.516500  0.227800  1
  H  H33  1  0.342700  0.409300  0.840000  1
  H  H34  1  0.657300  0.590700  0.160000  1
  H  H35  1  0.358700  0.416300  0.925500  1
  H  H36  1  0.641300  0.583700  0.074500  1
  H  H37  1  0.323600  0.492600  0.970600  1
  H  H38  1  0.676400  0.507400  0.029400  1
  H  H39  1  0.281800  0.568600  0.930200  1
  H  H40  1  0.718200  0.431400  0.069800  1
  H  H41  1  0.226800  0.666667  0.771100  1
  H  H42  1  0.773200  0.333333  0.228900  1
  H  H43  1  0.237300  0.675300  0.689000  1
  H  H44  1  0.762700  0.324700  0.311000  1
  H  H45  1  0.270100  0.596500  0.643000  1
  H  H46  1  0.729900  0.403500  0.357000  1
  H  H47  1  0.302500  0.514700  0.683900  1
  H  H48  1  0.697500  0.485300  0.316100  1
  H  H49  1  0.331300  0.706700  0.862500  1
  H  H50  1  0.668700  0.293300  0.137500  1
  H  H51  1  0.727400  0.161100  0.785300  1
  H  H52  1  0.272600  0.838900  0.214700  1
  H  H53  1  0.855100  0.171000  0.821600  1
  H  H54  1  0.144900  0.829000  0.178400  1
  H  H55  1  0.882600  0.089100  0.864100  1
  H  H56  1  0.117400  0.910900  0.135900  1
  H  H57  1  0.656400  0.997100  0.838800  1
  H  H58  1  0.343600  0.002900  0.161200  1
  H  H59  1  0.726800  0.056400  0.941500  1
  H  H60  1  0.273200  0.943600  0.058500  1
  H  H61  1  0.708400  0.052200  0.020200  1
  H  H62  1  0.291600  0.947800  0.979800  1
  H  H63  1  0.735600  0.971700  0.068600  1
  H  H64  1  0.264400  0.028300  0.931400  1
  H  H65  1  0.786300  0.899700  0.034900  1
  H  H66  1  0.213700  0.100300  0.965100  1
  H  H67  1  0.866600  0.809800  0.890100  1
  H  H68  1  0.133400  0.190200  0.109900  1
  H  H69  1  0.875300  0.807600  0.807400  1
  H  H70  1  0.124700  0.192400  0.192600  1
  H  H71  1  0.840500  0.885300  0.757200  1
  H  H72  1  0.159500  0.114700  0.242800  1
  H  H73  1  0.807200  0.966700  0.794500  1
  H  H74  1  0.192800  0.033300  0.205500  1
  H  H75  1  0.486900  0.335100  0.805200  1
  H  H76  1  0.513100  0.664900  0.194800  1
  H  H77  1  0.495500  0.336100  0.890400  1
  H  H78  1  0.504500  0.663900  0.109600  1
  H  H79  1  0.578100  0.425500  0.946100  1
  H  H80  1  0.421900  0.574500  0.053900  1
  H  H81  1  0.620400  0.513300  0.825000  1
  H  H82  1  0.379600  0.486700  0.175000  1
  H  H83  1  0.741000  0.476400  0.879800  1
  H  H84  1  0.259000  0.523600  0.120200  1
  H  H85  1  0.870200  0.510300  0.878600  1
  H  H86  1  0.129800  0.489700  0.121400  1
  H  H87  1  0.947600  0.614300  0.913600  1
  H  H88  1  0.052400  0.385700  0.086400  1
  H  H89  1  0.899200  0.682500  0.955000  1
  H  H90  1  0.100800  0.317500  0.045000  1
  H  H91  1  0.680100  0.718200  0.021200  1
  H  H92  1  0.319900  0.281800  0.978800  1
  H  H93  1  0.552800  0.682900  0.024700  1
  H  H94  1  0.447200  0.317100  0.975300  1
  H  H95  1  0.470400  0.585800  0.976900  1
  H  H96  1  0.529600  0.414200  0.023100  1
  H  H97  1  0.517500  0.521500  0.932300  1
  H  H98  1  0.482500  0.478500  0.067700  1
  H  H99  1  0.746700  0.764500  0.938800  1
  H  H100  1  0.253300  0.235500  0.061200  1
  H  H101  1  0.548800  0.132000  0.682900  1
  H  H102  1  0.451200  0.868000  0.317100  1
  H  H103  1  0.580400  0.135000  0.605300  1
  H  H104  1  0.419600  0.865000  0.394700  1
  H  H105  1  0.665000  0.081700  0.585100  1
  H  H106  1  0.335000  0.918300  0.414900  1
  H  H107  1  0.660300  0.007000  0.717100  1
  H  H108  1  0.339700  0.993000  0.282900  1
  H  H109  1  0.803200  0.097000  0.707300  1
  H  H110  1  0.196800  0.903000  0.292700  1
  H  H111  1  0.924700  0.117600  0.753400  1
  H  H112  1  0.075300  0.882400  0.246600  1
  H  H113  1  0.995600  0.045200  0.745300  1
  H  H114  1  0.004400  0.954800  0.254700  1
  H  H115  1  0.942600  0.955300  0.686900  1
  H  H116  1  0.057400  0.044700  0.313100  1
  H  H117  1  0.729900  0.819700  0.549900  1
  H  H118  1  0.270100  0.180300  0.450100  1
  H  H119  1  0.611400  0.803500  0.496500  1
  H  H120  1  0.388600  0.196500  0.503500  1
  H  H121  1  0.537000  0.871700  0.508800  1
  H  H122  1  0.463000  0.128300  0.491200  1
  H  H123  1  0.582000  0.955500  0.572300  1
  H  H124  1  0.418000  0.044500  0.427700  1
  H  H125  1  0.671300  0.378400  0.769800  1
  H  H126  1  0.328700  0.621600  0.230200  1
  H  H127  1  0.801400  0.410000  0.774800  1
  H  H128  1  0.198600  0.590000  0.225200  1
  H  H129  1  0.859600  0.505100  0.744600  1
  H  H130  1  0.140400  0.494900  0.255400  1
  H  H131  1  0.654600  0.538100  0.711300  1
  H  H132  1  0.345400  0.461900  0.288700  1
  H  H133  1  0.687600  0.505300  0.630200  1
  H  H134  1  0.312400  0.494700  0.369800  1
  H  H135  1  0.644700  0.515300  0.547100  1
  H  H136  1  0.355300  0.484700  0.452900  1
  H  H137  1  0.684100  0.613300  0.514600  1
  H  H138  1  0.315900  0.386700  0.485400  1
  H  H139  1  0.772600  0.700700  0.567200  1
  H  H140  1  0.227400  0.299300  0.432800  1
  H  H141  1  0.973100  0.787600  0.726000  1
  H  H142  1  0.026900  0.212400  0.274000  1
  H  H143  1  0.025100  0.778600  0.807600  1
  H  H144  1  0.974900  0.221400  0.192400  1
  H  H145  1  0.977500  0.683500  0.843600  1
  H  H146  1  0.022500  0.316500  0.156400  1
  H  H147  1  0.871100  0.604300  0.800200  1
  H  H148  1  0.128900  0.395700  0.199800  1
  H  H149  1  0.801600  0.808500  0.665400  1
  H  H150  1  0.198400  0.191500  0.334600  1
  H  H151  1  0.440000  0.116700  0.783100  1
  H  H152  1  0.560000  0.883300  0.216900  1
  H  H153  1  0.305400  0.082500  0.753100  1
  H  H154  1  0.694600  0.917500  0.246900  1
  H  H155  1  0.247000  0.998800  0.690200  1
  H  H156  1  0.753000  0.001200  0.309800  1
  H  H157  1  0.450100  0.967400  0.697800  1
  H  H158  1  0.549900  0.032600  0.302200  1
  H  H159  1  0.407800  0.010000  0.614800  1
  H  H160  1  0.592200  0.990000  0.385200  1
  H  H161  1  0.459200  0.004200  0.545000  1
  H  H162  1  0.540800  0.995800  0.455000  1
  H  H163  1  0.428500  0.908300  0.492700  1
  H  H164  1  0.571500  0.091700  0.507300  1
  H  H165  1  0.342100  0.815500  0.508300  1
  H  H166  1  0.657900  0.184500  0.491700  1
  H  H167  1  0.149800  0.713900  0.606500  1
  H  H168  1  0.850200  0.286100  0.393500  1
  H  H169  1  0.099200  0.717600  0.675600  1
  H  H170  1  0.900800  0.282400  0.324400  1
  H  H171  1  0.144700  0.808000  0.736500  1
  H  H172  1  0.855300  0.192000  0.263500  1
  H  H173  1  0.237700  0.897600  0.726000  1
  H  H174  1  0.762300  0.102400  0.274000  1
  H  H175  1  0.567300  0.373900  0.637400  1
  H  H176  1  0.432700  0.626100  0.362600  1
  H  H177  1  0.537800  0.379700  0.550300  1
  H  H178  1  0.462200  0.620300  0.449700  1
  H  H179  1  0.461300  0.443900  0.519100  1
  H  H180  1  0.538700  0.556100  0.480900  1
  H  H181  1  0.458200  0.496800  0.663800  1
  H  H182  1  0.541800  0.503200  0.336200  1
  H  H183  1  0.316800  0.403100  0.588200  1
  H  H184  1  0.683200  0.596900  0.411800  1
  H  H185  1  0.187200  0.366000  0.583500  1
  H  H186  1  0.812800  0.634000  0.416500  1
  H  H187  1  0.110600  0.433100  0.563600  1
  H  H188  1  0.889400  0.566900  0.436400  1
  H  H189  1  0.162700  0.532900  0.542000  1
  H  H190  1  0.837300  0.467100  0.458000  1
  H  H191  1  0.390000  0.704700  0.519400  1
  H  H192  1  0.610000  0.295300  0.480600  1
  H  H193  1  0.519400  0.747800  0.535900  1
  H  H194  1  0.480600  0.252200  0.464100  1
  H  H195  1  0.599900  0.687500  0.567900  1
  H  H196  1  0.400100  0.312500  0.432100  1
  H  H197  1  0.549300  0.585500  0.585800  1
  H  H198  1  0.450700  0.414500  0.414200  1
  H  H199  1  0.310200  0.701900  0.589700  1
  H  H200  1  0.689800  0.298100  0.410300  1
  H  H201  1  0.274500  0.827700  0.994700  1
  H  H202  1  0.725500  0.172300  0.005300  1
  H  H203  1  0.261100  0.758200  0.013000  1
  H  H204  1  0.738900  0.241800  0.987000  1
  H  H205  1  0.229300  0.835400  0.066200  1
  H  H206  1  0.770700  0.164600  0.933800  1
  H  H207  1  0.156900  0.828600  0.020800  1
  H  H208  1  0.843100  0.171400  0.979200  1
  H  H209  1  0.067000  0.782100  0.063700  1
  H  H210  1  0.933000  0.217900  0.936300  1
  H  H211  1  0.052100  0.707800  0.069200  1
  H  H212  1  0.947900  0.292200  0.930800  1
  H  H213  1  0.045300  0.731200  0.014300  1
  H  H214  1  0.954700  0.268800  0.985700  1
  H  H215  1  0.058600  0.623100  0.993100  1
  H  H216  1  0.941400  0.376900  0.006900  1
  H  H217  1  0.149300  0.649000  0.997700  1
  H  H218  1  0.850700  0.351000  0.002300  1
  H  H219  1  0.143100  0.548400  0.956600  1
  H  H220  1  0.856900  0.451600  0.043400  1
  H  H221  1  0.117100  0.542100  0.009600  1
  H  H222  1  0.882900  0.457900  0.990400  1
  H  H223  1  0.082300  0.446700  0.960200  1
  H  H224  1  0.917700  0.553300  0.039800  1
  H  H225  1  0.032100  0.439700  0.904000  1
  H  H226  1  0.967900  0.560300  0.096000  1
  H  H227  1  0.990800  0.419300  0.949400  1
  H  H228  1  0.009200  0.580700  0.050600  1
  H  H229  1  0.018300  0.560000  0.847500  1
  H  H230  1  0.981700  0.440000  0.152500  1
  H  H231  1  0.025200  0.495800  0.821100  1
  H  H232  1  0.974800  0.504200  0.178900  1
  H  H233  1  0.075500  0.619600  0.791300  1
  H  H234  1  0.924500  0.380400  0.208700  1
  H  H235  1  0.099100  0.561000  0.769200  1
  H  H236  1  0.900900  0.439000  0.230800  1
  H  H237  1  0.002300  0.627100  0.708300  1
  H  H238  1  0.997700  0.372900  0.291700  1
  H  H239  1  0.943500  0.562400  0.676400  1
  H  H240  1  0.056500  0.437600  0.323600  1
  H  H241  1  0.033800  0.573100  0.686900  1
  H  H242  1  0.966200  0.426900  0.313100  1
  H  H243  1  0.048900  0.906300  0.050600  1
  H  H244  1  0.951100  0.093700  0.949400  1
  H  H245  1  0.052800  0.977900  0.041000  1
  H  H246  1  0.947200  0.022100  0.959000  1
  H  H247  1  0.009400  0.935700  0.950700  1
  H  H248  1  0.990600  0.064300  0.049300  1
  H  H249  1  0.097200  0.944900  0.977200  1
  H  H250  1  0.902800  0.055100  0.022800  1
  H  H251  1  0.029800  0.863200  0.892700  1
  H  H252  1  0.970200  0.136800  0.107300  1
  H  H253  1  0.034900  0.795700  0.908800  1
  H  H254  1  0.965100  0.204300  0.091200  1
  H  H255  1  0.108800  0.857700  0.924700  1
  H  H256  1  0.891200  0.142300  0.075300  1
  H  H257  1  0.001200  0.828300  0.161700  1
  H  H258  1  0.998800  0.171700  0.838300  1
  H  H259  1  0.913900  0.790000  0.135200  1
  H  H260  1  0.086100  0.210000  0.864800  1
  H  H261  1  0.891600  0.887100  0.117300  1
  H  H262  1  0.108400  0.112900  0.882700  1
  H  H263  1  0.918700  0.886500  0.177000  1
  H  H264  1  0.081300  0.113500  0.823000  1
  H  H265  1  0.929700  0.991400  0.118300  1
  H  H266  1  0.070300  0.008600  0.881700  1
  H  H267  1  0.016500  0.034200  0.141500  1
  H  H268  1  0.983500  0.965800  0.858500  1
  H  H269  1  0.961100  0.007100  0.178300  1
  H  H270  1  0.038900  0.992900  0.821700  1
  H  H271  1  0.820600  0.613000  0.051700  1
  H  H272  1  0.179400  0.387000  0.948300  1
  H  H273  1  0.787900  0.663800  0.077100  1
  H  H274  1  0.212100  0.336200  0.922900  1
  H  H275  1  0.832600  0.593200  0.133500  1
  H  H276  1  0.167400  0.406800  0.866500  1
  H  H277  1  0.917800  0.634000  0.130900  1
  H  H278  1  0.082200  0.366000  0.869100  1
  H  H279  1  0.872200  0.629100  0.221000  1
  H  H280  1  0.127800  0.370900  0.779000  1
  H  H281  1  0.881700  0.701800  0.239800  1
  H  H282  1  0.118300  0.298200  0.760200  1
  H  H283  1  0.950300  0.684000  0.221800  1
  H  H284  1  0.049700  0.316000  0.778200  1
  H  H285  1  0.915700  0.881900  0.499300  1
  H  H286  1  0.084300  0.118100  0.500700  1
  H  H287  1  0.945900  0.957800  0.500100  1
  H  H288  1  0.054100  0.042200  0.499900  1
  H  H289  1  0.822400  0.912000  0.447100  1
  H  H290  1  0.177600  0.088000  0.552900  1
  H  H291  1  0.790300  0.888100  0.495400  1
  H  H292  1  0.209700  0.111900  0.504600  1
  H  H293  1  0.733100  0.966800  0.436400  1
  H  H294  1  0.266900  0.033200  0.563600  1
  H  H295  1  0.745000  0.028400  0.475200  1
  H  H296  1  0.255000  0.971600  0.524800  1
  H  H297  1  0.707800  0.958400  0.489200  1
  H  H298  1  0.292200  0.041600  0.510800  1
  H  H299  1  0.101400  0.837800  0.556100  1
  H  H300  1  0.898600  0.162200  0.443900  1
  H  H301  1  0.077100  0.836200  0.609500  1
  H  H302  1  0.922900  0.163800  0.390500  1
  H  H303  1  0.165300  0.937100  0.595600  1
  H  H304  1  0.834700  0.062900  0.404400  1
  H  H305  1  0.091700  0.947000  0.559300  1
  H  H306  1  0.908300  0.053000  0.440700  1
  H  H307  1  0.146200  0.039200  0.635200  1
  H  H308  1  0.853800  0.960800  0.364800  1
  H  H309  1  0.077500  0.027400  0.664100  1
  H  H310  1  0.922500  0.972600  0.335900  1
  H  H311  1  0.059500  0.021500  0.603600  1
  H  H312  1  0.940500  0.978500  0.396400  1
  H  H313  1  0.996500  0.719500  0.540500  1
  H  H314  1  0.003500  0.280500  0.459500  1
  H  H315  1  0.905400  0.701700  0.533600  1
  H  H316  1  0.094600  0.298300  0.466400  1
  H  H317  1  0.908500  0.611600  0.578200  1
  H  H318  1  0.091500  0.388400  0.421800  1
  H  H319  1  0.931000  0.606700  0.524500  1
  H  H320  1  0.069000  0.393300  0.475500  1
  H  H321  1  0.972600  0.531500  0.584100  1
  H  H322  1  0.027400  0.468500  0.415900  1
  H  H323  1  0.064400  0.554900  0.597000  1
  H  H324  1  0.935600  0.445100  0.403000  1
  H  H325  1  0.017600  0.548400  0.539800  1
  H  H326  1  0.982400  0.451600  0.460200  1
  H  H327  1  0.141900  0.772600  0.412500  1
  H  H328  1  0.858100  0.227400  0.587500  1
  H  H329  1  0.225100  0.815000  0.444300  1
  H  H330  1  0.774900  0.185000  0.555700  1
  H  H331  1  0.162600  0.890900  0.470200  1
  H  H332  1  0.837400  0.109100  0.529800  1
  H  H333  1  0.170300  0.887800  0.412300  1
  H  H334  1  0.829700  0.112200  0.587700  1
  H  H335  1  0.053700  0.927200  0.443200  1
  H  H336  1  0.946300  0.072800  0.556800  1
  H  H337  1  0.981700  0.882000  0.401800  1
  H  H338  1  0.018300  0.118000  0.598200  1
  H  H339  1  0.058800  0.918700  0.385200  1
  H  H340  1  0.941200  0.081300  0.614800  1
  H  H341  1  0.030500  0.687300  0.446800  1
  H  H342  1  0.969500  0.312700  0.553200  1
  H  H343  1  0.019900  0.612200  0.445900  1
  H  H344  1  0.980100  0.387800  0.554100  1
  H  H345  1  0.938100  0.646100  0.374300  1
  H  H346  1  0.061900  0.353900  0.625700  1
  H  H347  1  0.014600  0.663900  0.352000  1
  H  H348  1  0.985400  0.336100  0.648000  1
  H  H349  1  0.873100  0.554600  0.320800  1
  H  H350  1  0.126900  0.445400  0.679200  1
  H  H351  1  0.916200  0.505000  0.307200  1
  H  H352  1  0.083800  0.495000  0.692800  1
  H  H353  1  0.939800  0.575100  0.290500  1
  H  H354  1  0.060200  0.424900  0.709500  1
  H  H355  1  0.228000  0.544000  0.396300  1
  H  H356  1  0.772000  0.456000  0.603700  1
  H  H357  1  0.241200  0.618100  0.405600  1
  H  H358  1  0.758800  0.381900  0.594400  1
  H  H359  1  0.162300  0.539000  0.328700  1
  H  H360  1  0.837700  0.461000  0.671300  1
  H  H361  1  0.099700  0.555200  0.353600  1
  H  H362  1  0.900300  0.444800  0.646400  1
  H  H363  1  0.083500  0.610900  0.248600  1
  H  H364  1  0.916500  0.389100  0.751400  1
  H  H365  1  0.054500  0.642700  0.292200  1
  H  H366  1  0.945500  0.357300  0.707800  1
  H  H367  1  0.042500  0.567500  0.286400  1
  H  H368  1  0.957500  0.432500  0.713600  1
  H  H369  1  0.697900  0.681500  0.852200  1
  H  H370  1  0.302100  0.318500  0.147800  1
  H  H371  1  0.769500  0.682000  0.828100  1
  H  H372  1  0.230500  0.318000  0.171900  1
  H  H373  1  0.688700  0.628100  0.806700  1
  H  H374  1  0.311300  0.371900  0.193300  1
  H  H375  1  0.721500  0.676500  0.722900  1
  H  H376  1  0.278500  0.323500  0.277100  1
  H  H377  1  0.558000  0.851400  0.675300  1
  H  H378  1  0.442000  0.148600  0.324700  1
  H  H379  1  0.627300  0.825400  0.668300  1
  H  H380  1  0.372700  0.174600  0.331700  1
  H  H381  1  0.644100  0.898600  0.690000  1
  H  H382  1  0.355900  0.101400  0.310000  1
  H  H383  1  0.598500  0.850000  0.847600  1
  H  H384  1  0.401500  0.150000  0.152400  1
  H  H385  1  0.435600  0.835200  0.701700  1
  H  H386  1  0.564400  0.164800  0.298300  1
  H  H387  1  0.383200  0.848600  0.738400  1
  H  H388  1  0.616800  0.151400  0.261600  1
  H  H389  1  0.348600  0.790700  0.693500  1
  H  H390  1  0.651400  0.209300  0.306500  1
  H  H391  1  0.398000  0.803600  0.819400  1
  H  H392  1  0.602000  0.196400  0.180600  1
  H  H393  1  0.531900  0.659200  0.864100  1
  H  H394  1  0.468100  0.340800  0.135900  1
  H  H395  1  0.524200  0.591900  0.834300  1
  H  H396  1  0.475800  0.408100  0.165700  1
  H  H397  1  0.449600  0.606400  0.845700  1
  H  H398  1  0.550400  0.393600  0.154300  1
  H  H399  1  0.502500  0.639700  0.678200  1
  H  H400  1  0.497500  0.360300  0.321800  1
  Pt  Pt401  1  0.570700  0.064110  0.774490  1
  Pt  Pt402  1  0.429300  0.935890  0.225510  1
  Pt  Pt403  1  0.536630  0.427260  0.732390  1
  Pt  Pt404  1  0.463370  0.572740  0.267610  1
  C  C405  1  0.571200  0.106200  0.880400  1
  C  C406  1  0.428800  0.893800  0.119600  1
  C  C407  1  0.552800  0.099600  0.926600  1
  C  C408  1  0.447200  0.900400  0.073400  1
  C  C409  1  0.504500  0.043900  0.935300  1
  C  C410  1  0.495500  0.956100  0.064700  1
  C  C411  1  0.473700  0.993000  0.896200  1
  C  C412  1  0.526300  0.007000  0.103800  1
  C  C413  1  0.497100  0.002100  0.852100  1
  C  C414  1  0.502900  0.997900  0.147900  1
  C  C415  1  0.311400  0.961100  0.854500  1
  C  C416  1  0.688600  0.038900  0.145500  1
  C  C417  1  0.236400  0.946700  0.832000  1
  C  C418  1  0.763600  0.053300  0.168000  1
  C  C419  1  0.186000  0.884600  0.832700  1
  C  C420  1  0.814000  0.115400  0.167300  1
  C  C421  1  0.211400  0.840800  0.855800  1
  C  C422  1  0.788600  0.159200  0.144200  1
  C  C423  1  0.289100  0.853300  0.881600  1
  C  C424  1  0.710900  0.146700  0.118400  1
  C  C425  1  0.319000  0.808700  0.907200  1
  C  C426  1  0.681000  0.191300  0.092800  1
  C  C427  1  0.396800  0.825000  0.930600  1
  C  C428  1  0.603200  0.175000  0.069400  1
  C  C429  1  0.426400  0.779800  0.959600  1
  C  C430  1  0.573600  0.220200  0.040400  1
  C  C431  1  0.503800  0.797100  0.978800  1
  C  C432  1  0.496200  0.202900  0.021200  1
  C  C433  1  0.556700  0.856700  0.973700  1
  C  C434  1  0.443300  0.143300  0.026300  1
  C  C435  1  0.528500  0.898400  0.947800  1
  C  C436  1  0.471500  0.101600  0.052200  1
  C  C437  1  0.448000  0.885700  0.926700  1
  C  C438  1  0.552000  0.114300  0.073300  1
  C  C439  1  0.420900  0.930700  0.902100  1
  C  C440  1  0.579100  0.069300  0.097900  1
  C  C441  1  0.341000  0.915700  0.879800  1
  C  C442  1  0.659000  0.084300  0.120200  1
  C  C443  1  0.371700  0.354100  0.697800  1
  C  C444  1  0.628300  0.645900  0.302200  1
  C  C445  1  0.293700  0.342900  0.693200  1
  C  C446  1  0.706300  0.657100  0.306800  1
  C  C447  1  0.268900  0.387600  0.719500  1
  C  C448  1  0.731100  0.612400  0.280500  1
  C  C449  1  0.324700  0.438800  0.749200  1
  C  C450  1  0.675300  0.561200  0.250800  1
  C  C451  1  0.398900  0.447000  0.751900  1
  C  C452  1  0.601100  0.553000  0.248100  1
  C  C453  1  0.331400  0.442700  0.857600  1
  C  C454  1  0.668600  0.557300  0.142400  1
  C  C455  1  0.339200  0.446100  0.907800  1
  C  C456  1  0.660800  0.553900  0.092200  1
  C  C457  1  0.319400  0.492500  0.935200  1
  C  C458  1  0.680600  0.507500  0.064800  1
  C  C459  1  0.294300  0.537100  0.911200  1
  C  C460  1  0.705700  0.462900  0.088800  1
  C  C461  1  0.286200  0.537600  0.857300  1
  C  C462  1  0.713800  0.462400  0.142700  1
  C  C463  1  0.262000  0.584000  0.832300  1
  C  C464  1  0.738000  0.416000  0.167700  1
  C  C465  1  0.262300  0.587500  0.781000  1
  C  C466  1  0.737700  0.412500  0.219000  1
  C  C467  1  0.243400  0.636100  0.754100  1
  C  C468  1  0.756600  0.363900  0.245900  1
  C  C469  1  0.248000  0.640700  0.705000  1
  C  C470  1  0.752000  0.359300  0.295000  1
  C  C471  1  0.268700  0.594200  0.677700  1
  C  C472  1  0.731300  0.405800  0.322300  1
  C  C473  1  0.287100  0.545000  0.702100  1
  C  C474  1  0.712900  0.455000  0.297900  1
  C  C475  1  0.283300  0.539100  0.752200  1
  C  C476  1  0.716700  0.460900  0.247800  1
  C  C477  1  0.301400  0.489000  0.777700  1
  C  C478  1  0.698600  0.511000  0.222300  1
  C  C479  1  0.305600  0.489600  0.829400  1
  C  C480  1  0.694400  0.510400  0.170600  1
  C  C481  1  0.266700  0.741100  0.902000  1
  C  C482  1  0.733300  0.258900  0.098000  1
  C  C483  1  0.202200  0.720500  0.921900  1
  C  C484  1  0.797800  0.279500  0.078100  1
  C  C485  1  0.154300  0.658200  0.909600  1
  C  C486  1  0.845700  0.341800  0.090400  1
  C  C487  1  0.170300  0.615100  0.878000  1
  C  C488  1  0.829700  0.384900  0.122000  1
  C  C489  1  0.238700  0.632700  0.860800  1
  C  C490  1  0.761300  0.367300  0.139200  1
  C  C491  1  0.284600  0.694500  0.873500  1
  C  C492  1  0.715400  0.305500  0.126500  1
  C  C493  1  0.738800  0.128300  0.803500  1
  C  C494  1  0.261200  0.871700  0.196500  1
  C  C495  1  0.815000  0.134600  0.825000  1
  C  C496  1  0.185000  0.865400  0.175000  1
  C  C497  1  0.830800  0.087000  0.851100  1
  C  C498  1  0.169200  0.913000  0.148900  1
  C  C499  1  0.772200  0.035800  0.858700  1
  C  C500  1  0.227800  0.964200  0.141300  1
  C  C501  1  0.697600  0.032600  0.835300  1
  C  C502  1  0.302400  0.967400  0.164700  1
  C  C503  1  0.740100  0.024600  0.960200  1
  C  C504  1  0.259900  0.975400  0.039800  1
  C  C505  1  0.728400  0.021800  0.006200  1
  C  C506  1  0.271600  0.978200  0.993800  1
  C  C507  1  0.745100  0.973900  0.035500  1
  C  C508  1  0.254900  0.026100  0.964500  1
  C  C509  1  0.774800  0.931300  0.015200  1
  C  C510  1  0.225200  0.068700  0.984800  1
  C  C511  1  0.789100  0.932300  0.966200  1
  C  C512  1  0.210900  0.067700  0.033800  1
  C  C513  1  0.818200  0.887900  0.944900  1
  C  C514  1  0.181800  0.112100  0.055100  1
  C  C515  1  0.827300  0.887700  0.894400  1
  C  C516  1  0.172700  0.112300  0.105600  1
  C  C517  1  0.853000  0.841000  0.870900  1
  C  C518  1  0.147000  0.159000  0.129100  1
  C  C519  1  0.858400  0.839700  0.822100  1
  C  C520  1  0.141600  0.160300  0.177900  1
  C  C521  1  0.838700  0.887200  0.791900  1
  C  C522  1  0.161300  0.112800  0.208100  1
  C  C523  1  0.817400  0.934400  0.813800  1
  C  C524  1  0.182600  0.065600  0.186200  1
  C  C525  1  0.810400  0.936300  0.864700  1
  C  C526  1  0.189600  0.063700  0.135300  1
  C  C527  1  0.784400  0.982600  0.886700  1
  C  C528  1  0.215600  0.017400  0.113300  1
  C  C529  1  0.772600  0.981200  0.936600  1
  C  C530  1  0.227400  0.018800  0.063400  1
  C  C531  1  0.517900  0.372600  0.827300  1
  C  C532  1  0.482100  0.627400  0.172700  1
  C  C533  1  0.523800  0.372500  0.877600  1
  C  C534  1  0.476200  0.627500  0.122400  1
  C  C535  1  0.571200  0.425400  0.910500  1
  C  C536  1  0.428800  0.574600  0.089500  1
  C  C537  1  0.608800  0.479000  0.889700  1
  C  C538  1  0.391200  0.521000  0.110300  1
  C  C539  1  0.597200  0.476300  0.839200  1
  C  C540  1  0.402800  0.523700  0.160800  1
  C  C541  1  0.772500  0.517600  0.895800  1
  C  C542  1  0.227500  0.482400  0.104200  1
  C  C543  1  0.848700  0.538200  0.894400  1
  C  C544  1  0.151300  0.461800  0.105600  1
  C  C545  1  0.895500  0.600400  0.916100  1
  C  C546  1  0.104500  0.399600  0.083900  1
  C  C547  1  0.866900  0.640800  0.940700  1
  C  C548  1  0.133100  0.359200  0.059300  1
  C  C549  1  0.787900  0.620500  0.945100  1
  C  C550  1  0.212100  0.379500  0.054900  1
  C  C551  1  0.757900  0.660700  0.972100  1
  C  C552  1  0.242100  0.339300  0.027900  1
  C  C553  1  0.680200  0.639900  0.975300  1
  C  C554  1  0.319800  0.360100  0.024700  1
  C  C555  1  0.648200  0.678000  0.003400  1
  C  C556  1  0.351800  0.322000  0.996600  1
  C  C557  1  0.572700  0.657700  0.004900  1
  C  C558  1  0.427300  0.342300  0.995100  1
  C  C559  1  0.523500  0.598600  0.976900  1
  C  C560  1  0.476500  0.401400  0.023100  1
  C  C561  1  0.551400  0.560900  0.950400  1
  C  C562  1  0.448600  0.439100  0.049600  1
  C  C563  1  0.631500  0.578600  0.948700  1
  C  C564  1  0.368500  0.421400  0.051300  1
  C  C565  1  0.661200  0.539000  0.922200  1
  C  C566  1  0.338800  0.461000  0.077800  1
  C  C567  1  0.740500  0.558500  0.921700  1
  C  C568  1  0.259500  0.441500  0.078300  1
  C  C569  1  0.838000  0.838300  0.975300  1
  C  C570  1  0.162000  0.161700  0.024700  1
  C  C571  1  0.902400  0.853400  0.016000  1
  C  C572  1  0.097600  0.146600  0.984000  1
  C  C573  1  0.915700  0.808700  0.045800  1
  C  C574  1  0.084300  0.191300  0.954200  1
  C  C575  1  0.869100  0.744000  0.034300  1
  C  C576  1  0.130900  0.256000  0.965700  1
  C  C577  1  0.805500  0.727300  0.992400  1
  C  C578  1  0.194500  0.272700  0.007600  1
  C  C579  1  0.791200  0.775200  0.965500  1
  C  C580  1  0.208800  0.224800  0.034500  1
  C  C581  1  0.578300  0.106300  0.673800  1
  C  C582  1  0.421700  0.893700  0.326200  1
  C  C583  1  0.599200  0.109700  0.628600  1
  C  C584  1  0.400800  0.890300  0.371400  1
  C  C585  1  0.647600  0.076900  0.615700  1
  C  C586  1  0.352400  0.923100  0.384300  1
  C  C587  1  0.669600  0.036900  0.649300  1
  C  C588  1  0.330400  0.963100  0.350700  1
  C  C589  1  0.644700  0.033600  0.693800  1
  C  C590  1  0.355300  0.966400  0.306200  1
  C  C591  1  0.830300  0.067400  0.702900  1
  C  C592  1  0.169700  0.932600  0.297100  1
  C  C593  1  0.902100  0.079600  0.730200  1
  C  C594  1  0.097900  0.920400  0.269800  1
  C  C595  1  0.945300  0.036700  0.725100  1
  C  C596  1  0.054700  0.963300  0.274900  1
  C  C597  1  0.913200  0.983200  0.690700  1
  C  C598  1  0.086800  0.016800  0.309300  1
  C  C599  1  0.838300  0.967500  0.660400  1
  C  C600  1  0.161700  0.032500  0.339600  1
  C  C601  1  0.807500  0.914200  0.624200  1
  C  C602  1  0.192500  0.085800  0.375800  1
  C  C603  1  0.733300  0.902900  0.593200  1
  C  C604  1  0.266700  0.097100  0.406800  1
  C  C605  1  0.701500  0.848400  0.554000  1
  C  C606  1  0.298500  0.151600  0.446000  1
  C  C607  1  0.630900  0.838100  0.523000  1
  C  C608  1  0.369100  0.161900  0.477000  1
  C  C609  1  0.586200  0.879500  0.530300  1
  C  C610  1  0.413800  0.120500  0.469700  1
  C  C611  1  0.613100  0.929400  0.567500  1
  C  C612  1  0.386900  0.070600  0.432500  1
  C  C613  1  0.688800  0.943700  0.600000  1
  C  C614  1  0.311200  0.056300  0.400000  1
  C  C615  1  0.718700  0.996500  0.638400  1
  C  C616  1  0.281300  0.003500  0.361600  1
  C  C617  1  0.793400  0.011200  0.667200  1
  C  C618  1  0.206600  0.988800  0.332800  1
  C  C619  1  0.694800  0.417500  0.758100  1
  C  C620  1  0.305200  0.582500  0.241900  1
  C  C621  1  0.771600  0.435800  0.760900  1
  C  C622  1  0.228400  0.564200  0.239100  1
  C  C623  1  0.806200  0.492500  0.743400  1
  C  C624  1  0.193800  0.507500  0.256600  1
  C  C625  1  0.762500  0.531000  0.724000  1
  C  C626  1  0.237500  0.469000  0.276000  1
  C  C627  1  0.684700  0.511500  0.723000  1
  C  C628  1  0.315300  0.488500  0.277000  1
  C  C629  1  0.707100  0.544800  0.617900  1
  C  C630  1  0.292900  0.455200  0.382100  1
  C  C631  1  0.680500  0.551200  0.568800  1
  C  C632  1  0.319500  0.448800  0.431200  1
  C  C633  1  0.704300  0.609600  0.548900  1
  C  C634  1  0.295700  0.390400  0.451100  1
  C  C635  1  0.757200  0.660900  0.580000  1
  C  C636  1  0.242800  0.339100  0.420000  1
  C  C637  1  0.790200  0.655800  0.631500  1
  C  C638  1  0.209800  0.344200  0.368500  1
  C  C639  1  0.849500  0.707300  0.661000  1
  C  C640  1  0.150500  0.292700  0.339000  1
  C  C641  1  0.885700  0.700900  0.711000  1
  C  C642  1  0.114300  0.299100  0.289000  1
  C  C643  1  0.951500  0.750300  0.740500  1
  C  C644  1  0.048500  0.249700  0.259500  1
  C  C645  1  0.983000  0.744700  0.788300  1
  C  C646  1  0.017000  0.255300  0.211700  1
  C  C647  1  0.953500  0.687800  0.810300  1
  C  C648  1  0.046500  0.312200  0.189700  1
  C  C649  1  0.891700  0.640200  0.784000  1
  C  C650  1  0.108300  0.359800  0.216000  1
  C  C651  1  0.856200  0.642100  0.732500  1
  C  C652  1  0.143800  0.357900  0.267500  1
  C  C653  1  0.795300  0.590700  0.702700  1
  C  C654  1  0.204700  0.409300  0.297300  1
  C  C655  1  0.764300  0.596900  0.651800  1
  C  C656  1  0.235700  0.403100  0.348200  1
  C  C657  1  0.850700  0.868500  0.618900  1
  C  C658  1  0.149300  0.131500  0.381100  1
  C  C659  1  0.903200  0.876100  0.587900  1
  C  C660  1  0.096800  0.123900  0.412100  1
  C  C661  1  0.942700  0.830900  0.583300  1
  C  C662  1  0.057300  0.169100  0.416700  1
  C  C663  1  0.926700  0.777700  0.608700  1
  C  C664  1  0.073300  0.222300  0.391300  1
  C  C665  1  0.873400  0.768400  0.639400  1
  C  C666  1  0.126600  0.231600  0.360600  1
  C  C667  1  0.837100  0.814100  0.644200  1
  C  C668  1  0.162900  0.185900  0.355800  1
  C  C669  1  0.415900  0.079400  0.759200  1
  C  C670  1  0.584100  0.920600  0.240800  1
  C  C671  1  0.335200  0.059800  0.740200  1
  C  C672  1  0.664800  0.940200  0.259800  1
  C  C673  1  0.300500  0.009700  0.704200  1
  C  C674  1  0.699500  0.990300  0.295800  1
  C  C675  1  0.343400  0.973700  0.687500  1
  C  C676  1  0.656600  0.026300  0.312500  1
  C  C677  1  0.420900  0.992400  0.708300  1
  C  C678  1  0.579100  0.007600  0.291700  1
  C  C679  1  0.394200  0.970500  0.593700  1
  C  C680  1  0.605800  0.029500  0.406300  1
  C  C681  1  0.424400  0.966900  0.552500  1
  C  C682  1  0.575600  0.033100  0.447500  1
  C  C683  1  0.405400  0.909500  0.520800  1
  C  C684  1  0.594600  0.090500  0.479200  1
  C  C685  1  0.353700  0.854400  0.529700  1
  C  C686  1  0.646300  0.145600  0.470300  1
  C  C687  1  0.317500  0.856500  0.571900  1
  C  C688  1  0.682500  0.143500  0.428100  1
  C  C689  1  0.262800  0.802600  0.580000  1
  C  C690  1  0.737200  0.197400  0.420000  1
  C  C691  1  0.227200  0.804300  0.622100  1
  C  C692  1  0.772800  0.195700  0.377900  1
  C  C693  1  0.168500  0.751400  0.630300  1
  C  C694  1  0.831500  0.248600  0.369700  1
  C  C695  1  0.138900  0.753500  0.671100  1
  C  C696  1  0.861100  0.246500  0.328900  1
  C  C697  1  0.165700  0.808100  0.707400  1
  C  C698  1  0.834300  0.191900  0.292600  1
  C  C699  1  0.221300  0.861000  0.701300  1
  C  C700  1  0.778700  0.139000  0.298700  1
  C  C701  1  0.255500  0.862700  0.658600  1
  C  C702  1  0.744500  0.137300  0.341400  1
  C  C703  1  0.311100  0.915600  0.649100  1
  C  C704  1  0.688900  0.084400  0.350900  1
  C  C705  1  0.341100  0.914000  0.605500  1
  C  C706  1  0.658900  0.086000  0.394500  1
  C  C707  1  0.538400  0.401000  0.624900  1
  C  C708  1  0.461600  0.599000  0.375100  1
  C  C709  1  0.520100  0.403500  0.572800  1
  C  C710  1  0.479900  0.596500  0.427200  1
  C  C711  1  0.475200  0.441700  0.554400  1
  C  C712  1  0.524800  0.558300  0.445600  1
  C  C713  1  0.451000  0.476900  0.589600  1
  C  C714  1  0.549000  0.523100  0.410400  1
  C  C715  1  0.473400  0.472700  0.640000  1
  C  C716  1  0.526600  0.527300  0.360000  1
  C  C717  1  0.286100  0.430000  0.578800  1
  C  C718  1  0.713900  0.570000  0.421200  1
  C  C719  1  0.209700  0.408200  0.576500  1
  C  C720  1  0.790300  0.591800  0.423500  1
  C  C721  1  0.163600  0.447800  0.563700  1
  C  C722  1  0.836400  0.552200  0.436300  1
  C  C723  1  0.195200  0.507400  0.551400  1
  C  C724  1  0.804800  0.492600  0.448600  1
  C  C725  1  0.273200  0.532600  0.552200  1
  C  C726  1  0.726800  0.467400  0.447800  1
  C  C727  1  0.306100  0.594800  0.540200  1
  C  C728  1  0.693900  0.405200  0.459800  1
  C  C729  1  0.386400  0.618300  0.544800  1
  C  C730  1  0.613600  0.381700  0.455200  1
  C  C731  1  0.421400  0.680300  0.533700  1
  C  C732  1  0.578600  0.319700  0.466300  1
  C  C733  1  0.497400  0.705400  0.542600  1
  C  C734  1  0.502600  0.294600  0.457400  1
  C  C735  1  0.545800  0.669100  0.562000  1
  C  C736  1  0.454200  0.330900  0.438000  1
  C  C737  1  0.516200  0.608900  0.572300  1
  C  C738  1  0.483800  0.391100  0.427700  1
  C  C739  1  0.433600  0.580200  0.562500  1
  C  C740  1  0.566400  0.419800  0.437500  1
  C  C741  1  0.401200  0.518100  0.572600  1
  C  C742  1  0.598800  0.481900  0.427400  1
  C  C743  1  0.321300  0.492300  0.567400  1
  C  C744  1  0.678700  0.507700  0.432600  1
  C  C745  1  0.239600  0.741700  0.545800  1
  C  C746  1  0.760400  0.258300  0.454200  1
  C  C747  1  0.186300  0.730500  0.500400  1
  C  C748  1  0.813700  0.269500  0.499600  1
  C  C749  1  0.166000  0.672600  0.469600  1
  C  C750  1  0.834000  0.327400  0.530400  1
  C  C751  1  0.202000  0.626700  0.481700  1
  C  C752  1  0.798000  0.373300  0.518300  1
  C  C753  1  0.259200  0.638800  0.527100  1
  C  C754  1  0.740800  0.361200  0.472900  1
  C  C755  1  0.274300  0.694800  0.558200  1
  C  C756  1  0.725700  0.305200  0.441800  1
  C  C757  1  0.235000  0.789100  0.999800  1
  C  C758  1  0.765000  0.210900  0.000200  1
  C  C759  1  0.192700  0.806400  0.036900  1
  C  C760  1  0.807300  0.193600  0.963100  1
  C  C761  1  0.073000  0.742200  0.049900  1
  C  C762  1  0.927000  0.257800  0.950100  1
  C  C763  1  0.100500  0.619900  0.976700  1
  C  C764  1  0.899500  0.380100  0.023300  1
  C  C765  1  0.103800  0.553200  0.974900  1
  C  C766  1  0.896200  0.446800  0.025100  1
  C  C767  1  0.034200  0.449700  0.940000  1
  C  C768  1  0.965800  0.550300  0.060000  1
  C  C769  1  0.051300  0.542200  0.830500  1
  C  C770  1  0.948700  0.457800  0.169500  1
  C  C771  1  0.059100  0.572500  0.783200  1
  C  C772  1  0.940900  0.427500  0.216800  1
  C  C773  1  0.992400  0.581000  0.701000  1
  C  C774  1  0.007600  0.419000  0.299000  1
  C  C775  1  0.026900  0.932500  0.027300  1
  C  C776  1  0.973100  0.067500  0.972700  1
  C  C777  1  0.043400  0.920800  0.976700  1
  C  C778  1  0.956600  0.079200  0.023300  1
  C  C779  1  0.052800  0.841900  0.919200  1
  C  C780  1  0.947200  0.158100  0.080800  1
  C  C781  1  0.957300  0.828200  0.134500  1
  C  C782  1  0.042700  0.171800  0.865500  1
  C  C783  1  0.935200  0.886700  0.144500  1
  C  C784  1  0.064800  0.113300  0.855500  1
  C  C785  1  0.974400  0.998000  0.146200  1
  C  C786  1  0.025600  0.002000  0.853800  1
  C  C787  1  0.834600  0.651200  0.077000  1
  C  C788  1  0.165400  0.348800  0.923000  1
  C  C789  1  0.864900  0.635600  0.128300  1
  C  C790  1  0.135100  0.364400  0.871700  1
  C  C791  1  0.894500  0.673700  0.216000  1
  C  C792  1  0.105500  0.326300  0.784000  1
  C  C793  1  0.907400  0.922500  0.510300  1
  C  C794  1  0.092600  0.077500  0.489700  1
  C  C795  1  0.829400  0.921700  0.484100  1
  C  C796  1  0.170600  0.078300  0.515900  1
  C  C797  1  0.745700  0.984000  0.472200  1
  C  C798  1  0.254300  0.016000  0.527800  1
  C  C799  1  0.073100  0.855500  0.577500  1
  C  C800  1  0.926900  0.144500  0.422500  1
  C  C801  1  0.108800  0.926200  0.588700  1
  C  C802  1  0.891200  0.073800  0.411300  1
  C  C803  1  0.092900  0.014200  0.633700  1
  C  C804  1  0.907100  0.985800  0.366300  1
  C  C805  1  0.952900  0.698900  0.555700  1
  C  C806  1  0.047100  0.301100  0.444300  1
  C  C807  1  0.947500  0.630500  0.559000  1
  C  C808  1  0.052500  0.369500  0.441000  1
  C  C809  1  0.018300  0.559700  0.575400  1
  C  C810  1  0.981700  0.440300  0.424600  1
  C  C811  1  0.169400  0.804500  0.442600  1
  C  C812  1  0.830600  0.195500  0.557400  1
  C  C813  1  0.146100  0.863300  0.437300  1
  C  C814  1  0.853900  0.136700  0.562700  1
  C  C815  1  0.037800  0.897200  0.412100  1
  C  C816  1  0.962200  0.102800  0.587900  1
  C  C817  1  0.035900  0.649800  0.427800  1
  C  C818  1  0.964100  0.350200  0.572200  1
  C  C819  1  0.987600  0.637900  0.375100  1
  C  C820  1  0.012400  0.362100  0.624900  1
  C  C821  1  0.922400  0.550100  0.316900  1
  C  C822  1  0.077600  0.449900  0.683100  1
  C  C823  1  0.201300  0.576100  0.400700  1
  C  C824  1  0.798700  0.423900  0.599300  1
  C  C825  1  0.152900  0.573000  0.349500  1
  C  C826  1  0.847100  0.427000  0.650500  1
  C  C827  1  0.076800  0.609500  0.283500  1
  C  C828  1  0.923200  0.390500  0.716500  1
  C  C829  1  0.713700  0.673000  0.820800  1
  C  C830  1  0.286300  0.327000  0.179200  1
  C  C831  1  0.702100  0.707500  0.736500  1
  C  C832  1  0.297900  0.292500  0.263500  1
  C  C833  1  0.651700  0.784100  0.746000  1
  C  C834  1  0.348300  0.215900  0.254000  1
  C  C835  1  0.661200  0.762600  0.788800  1
  C  C836  1  0.338800  0.237400  0.211200  1
  C  C837  1  0.640200  0.783600  0.829100  1
  C  C838  1  0.359800  0.216400  0.170900  1
  C  C839  1  0.599700  0.860300  0.779400  1
  C  C840  1  0.400300  0.139700  0.220600  1
  C  C841  1  0.611600  0.854700  0.689400  1
  C  C842  1  0.388400  0.145300  0.310600  1
  C  C843  1  0.394700  0.815300  0.718800  1
  C  C844  1  0.605300  0.184700  0.281200  1
  C  C845  1  0.415800  0.774300  0.802000  1
  C  C846  1  0.584200  0.225700  0.198000  1
  C  C847  1  0.456700  0.702800  0.783500  1
  C  C848  1  0.543300  0.297200  0.216500  1
  C  C849  1  0.444000  0.728200  0.738700  1
  C  C850  1  0.556000  0.271800  0.261300  1
  C  C851  1  0.461000  0.699300  0.694600  1
  C  C852  1  0.539000  0.300700  0.305400  1
  C  C853  1  0.503800  0.627000  0.742900  1
  C  C854  1  0.496200  0.373000  0.257100  1
  C  C855  1  0.499400  0.625000  0.837300  1
  C  C856  1  0.500600  0.375000  0.162700  1
  N  N857  1  0.544400  0.057700  0.843100  1
  N  N858  1  0.455600  0.942300  0.156900  1
  N  N859  1  0.423400  0.405000  0.726700  1
  N  N860  1  0.576600  0.595000  0.273300  1
  N  N861  1  0.681500  0.078000  0.807600  1
  N  N862  1  0.318500  0.922000  0.192400  1
  N  N863  1  0.553300  0.422500  0.807600  1
  N  N864  1  0.446700  0.577500  0.192400  1
  N  N865  1  0.598700  0.067300  0.705400  1
  N  N866  1  0.401300  0.932700  0.294600  1
  N  N867  1  0.650600  0.454300  0.738800  1
  N  N868  1  0.349400  0.545700  0.261200  1
  N  N869  1  0.458300  0.045100  0.743300  1
  N  N870  1  0.541700  0.954900  0.256700  1
  N  N871  1  0.516900  0.435200  0.657100  1
  N  N872  1  0.483100  0.564800  0.342900  1
  N  N873  1  0.691500  0.714000  0.784300  1
  N  N874  1  0.308500  0.286000  0.215700  1
  N  N875  1  0.676200  0.761500  0.706600  1
  N  N876  1  0.323800  0.238500  0.293400  1
  N  N877  1  0.619100  0.838400  0.738400  1
  N  N878  1  0.380900  0.161600  0.261600  1
  N  N879  1  0.611100  0.833700  0.821500  1
  N  N880  1  0.388900  0.166300  0.178500  1
  N  N881  1  0.418900  0.774300  0.751500  1
  N  N882  1  0.581100  0.225700  0.248500  1
  N  N883  1  0.439800  0.729900  0.823600  1
  N  N884  1  0.560200  0.270100  0.176400  1
  N  N885  1  0.488200  0.650700  0.790400  1
  N  N886  1  0.511800  0.349300  0.209600  1
  N  N887  1  0.489400  0.655100  0.704600  1
  N  N888  1  0.510600  0.344900  0.295400  1
  N  N889  1  0.726100  0.736400  0.450800  1
  N  N890  1  0.273900  0.263600  0.549200  1
  N  N891  1  0.648600  0.325800  0.961000  1
  N  N892  1  0.351400  0.674200  0.039000  1
  N  N893  1  0.329200  0.150800  0.882900  1
  N  N894  1  0.670800  0.849200  0.117100  1
  N  N895  1  0.626300  0.255900  0.585300  1
  N  N896  1  0.373700  0.744100  0.414700  1
  O  O897  1  0.181400  0.761100  0.952400  1
  O  O898  1  0.818600  0.238900  0.047600  1
  O  O899  1  0.151700  0.750100  0.053400  1
  O  O900  1  0.848300  0.249900  0.946600  1
  O  O901  1  0.087700  0.639900  0.927300  1
  O  O902  1  0.912300  0.360100  0.072700  1
  O  O903  1  0.030400  0.512800  0.949200  1
  O  O904  1  0.969600  0.487200  0.050800  1
  O  O905  1  0.123400  0.551600  0.865700  1
  O  O906  1  0.876600  0.448400  0.134300  1
  O  O907  1  0.989200  0.552300  0.746600  1
  O  O908  1  0.010800  0.447700  0.253400  1
  O  O909  1  0.946300  0.917700  0.026600  1
  O  O910  1  0.053700  0.082300  0.973400  1
  O  O911  1  0.030900  0.855000  0.964900  1
  O  O912  1  0.969100  0.145000  0.035100  1
  O  O913  1  0.978000  0.824400  0.086400  1
  O  O914  1  0.022000  0.175600  0.913600  1
  O  O915  1  0.997600  0.942000  0.146700  1
  O  O916  1  0.002400  0.058000  0.853300  1
  O  O917  1  0.892100  0.702700  0.063600  1
  O  O918  1  0.107900  0.297300  0.936400  1
  O  O919  1  0.864500  0.682700  0.165700  1
  O  O920  1  0.135500  0.317300  0.834300  1
  O  O921  1  0.918700  0.930500  0.564500  1
  O  O922  1  0.081300  0.069500  0.435500  1
  O  O923  1  0.820000  0.981800  0.495500  1
  O  O924  1  0.180000  0.018200  0.504500  1
  O  O925  1  0.993600  0.838600  0.551600  1
  O  O926  1  0.006400  0.161400  0.448400  1
  O  O927  1  0.086600  0.948100  0.631400  1
  O  O928  1  0.913400  0.051900  0.368600  1
  O  O929  1  0.963900  0.731700  0.605500  1
  O  O930  1  0.036100  0.268300  0.394500  1
  O  O931  1  0.018500  0.624200  0.583100  1
  O  O932  1  0.981500  0.375800  0.416900  1
  O  O933  1  0.152400  0.777300  0.487600  1
  O  O934  1  0.847600  0.222700  0.512400  1
  O  O935  1  0.065700  0.844300  0.421000  1
  O  O936  1  0.934300  0.155700  0.579000  1
  O  O937  1  0.113900  0.661300  0.423800  1
  O  O938  1  0.886100  0.338700  0.576200  1
  O  O939  1  0.977700  0.572600  0.363600  1
  O  O940  1  0.022300  0.427400  0.636400  1
  O  O941  1  0.183800  0.569300  0.450000  1
  O  O942  1  0.816200  0.430700  0.550000  1
  O  O943  1  0.149300  0.620300  0.317200  1
  O  O944  1  0.850700  0.379700  0.682800  1
  O  O945  1  0.641700  0.759600  0.872300  1
  O  O946  1  0.358300  0.240400  0.127700  1
  O  O947  1  0.567600  0.907400  0.777800  1
  O  O948  1  0.432400  0.092600  0.222200  1
  O  O949  1  0.449700  0.724800  0.653700  1
  O  O950  1  0.550300  0.275200  0.346300  1
  O  O951  1  0.532500  0.582000  0.742700  1
  O  O952  1  0.467500  0.418000  0.257300  1
  O  O953  1  0.076400  0.929100  0.735500  1
  O  O954  1  0.923600  0.070900  0.264500  1
  O  O955  1  0.408000  0.131400  0.646000  1
  O  O956  1  0.592000  0.868600  0.354000  1
  O  O957  1  0.912900  0.755000  0.436200  1
  O  O958  1  0.087100  0.245000  0.563800  1
  O  O959  1  0.040000  0.766100  0.318200  1
  O  O960  1  0.960000  0.233900  0.681800  1
  O  O961  1  0.427500  0.233100  0.751100  1
  O  O962  1  0.572500  0.766900  0.248900  1
  O  O963  1  0.786500  0.749800  0.483200  1
  O  O964  1  0.213500  0.250200  0.516800  1
  O  O965  1  0.727900  0.747100  0.406700  1
  O  O966  1  0.272100  0.252900  0.593300  1
  O  O967  1  0.664000  0.715000  0.462500  1
  O  O968  1  0.336000  0.285000  0.537500  1
  O  O969  1  0.598500  0.334000  0.986300  1
  O  O970  1  0.401500  0.666000  0.013700  1
  O  O971  1  0.629200  0.275800  0.926900  1
  O  O972  1  0.370800  0.724200  0.073100  1
  O  O973  1  0.711300  0.372900  0.963300  1
  O  O974  1  0.288700  0.627100  0.036700  1
  O  O975  1  0.252600  0.127900  0.864000  1
  O  O976  1  0.747400  0.872100  0.136000  1
  O  O977  1  0.360600  0.211500  0.907400  1
  O  O978  1  0.639400  0.788500  0.092600  1
  O  O979  1  0.376400  0.123500  0.863900  1
  O  O980  1  0.623600  0.876500  0.136100  1
  O  O981  1  0.687300  0.240400  0.583300  1
  O  O982  1  0.312700  0.759600  0.416700  1
  O  O983  1  0.626600  0.290700  0.625500  1
  O  O984  1  0.373400  0.709300  0.374500  1
  O  O985  1  0.562000  0.221500  0.556900  1
  O  O986  1  0.438000  0.778500  0.443100  1
