# generated using pymatgen
data_H115PtC120(N3O8)3
_symmetry_space_group_name_H-M   'P 1'
_cell_length_a   21.74010000
_cell_length_b   21.81260000
_cell_length_c   27.89990000
_cell_angle_alpha   69.87300000
_cell_angle_beta   68.42200000
_cell_angle_gamma   62.05000000
_symmetry_Int_Tables_number   1
_chemical_formula_structural   H115PtC120(N3O8)3
_chemical_formula_sum   'H460 Pt4 C480 N36 O96'
_cell_volume   10627.92380293
_cell_formula_units_Z   4
loop_
 _symmetry_equiv_pos_site_id
 _symmetry_equiv_pos_as_xyz
  1  'x, y, z'
loop_
 _atom_site_type_symbol
 _atom_site_label
 _atom_site_symmetry_multiplicity
 _atom_site_fract_x
 _atom_site_fract_y
 _atom_site_fract_z
 _atom_site_occupancy
  H  H1  1  0.346800  0.624500  0.188500  1
  H  H2  1  0.653200  0.375500  0.811500  1
  H  H3  1  0.397700  0.652000  0.099000  1
  H  H4  1  0.602300  0.348000  0.901000  1
  H  H5  1  0.374800  0.615600  0.041300  1
  H  H6  1  0.625200  0.384400  0.958700  1
  H  H7  1  0.242200  0.540000  0.160500  1
  H  H8  1  0.757800  0.460000  0.839500  1
  H  H9  1  0.424100  0.473200  0.062800  1
  H  H10  1  0.575900  0.526800  0.937200  1
  H  H11  1  0.505000  0.385800  0.021500  1
  H  H12  1  0.495000  0.614200  0.978500  1
  H  H13  1  0.479200  0.352900  0.961300  1
  H  H14  1  0.520800  0.647100  0.038700  1
  H  H15  1  0.362900  0.403600  0.953300  1
  H  H16  1  0.637100  0.596400  0.046700  1
  H  H17  1  0.113800  0.572300  0.994700  1
  H  H18  1  0.886200  0.427700  0.005300  1
  H  H19  1  0.026800  0.657100  0.040300  1
  H  H20  1  0.973200  0.342900  0.959700  1
  H  H21  1  0.056800  0.706600  0.087400  1
  H  H22  1  0.943200  0.293400  0.912600  1
  H  H23  1  0.167700  0.660000  0.097700  1
  H  H24  1  0.832300  0.340000  0.902300  1
  H  H25  1  0.115800  0.966200  0.163900  1
  H  H26  1  0.884200  0.033800  0.836100  1
  H  H27  1  0.040300  0.042300  0.107800  1
  H  H28  1  0.959700  0.957700  0.892200  1
  H  H29  1  0.063900  0.139100  0.048400  1
  H  H30  1  0.936100  0.860900  0.951600  1
  H  H31  1  0.202500  0.105900  0.125200  1
  H  H32  1  0.797500  0.894100  0.874800  1
  H  H33  1  0.014800  0.235100  0.105600  1
  H  H34  1  0.985200  0.764900  0.894400  1
  H  H35  1  0.926500  0.345200  0.111200  1
  H  H36  1  0.073500  0.654800  0.888800  1
  H  H37  1  0.952900  0.446800  0.064900  1
  H  H38  1  0.047100  0.553200  0.935100  1
  H  H39  1  0.065400  0.433800  0.010400  1
  H  H40  1  0.934600  0.566200  0.989600  1
  H  H41  1  0.312800  0.284200  0.933200  1
  H  H42  1  0.687200  0.715800  0.066800  1
  H  H43  1  0.399600  0.170800  0.920800  1
  H  H44  1  0.600400  0.829200  0.079200  1
  H  H45  1  0.372400  0.072200  0.963500  1
  H  H46  1  0.627600  0.927800  0.036500  1
  H  H47  1  0.263200  0.081800  0.021900  1
  H  H48  1  0.736800  0.918200  0.978100  1
  H  H49  1  0.223800  0.392900  0.020900  1
  H  H50  1  0.776200  0.607100  0.979100  1
  H  H51  1  0.149200  0.712400  0.198100  1
  H  H52  1  0.850800  0.287600  0.801900  1
  H  H53  1  0.043900  0.762400  0.175100  1
  H  H54  1  0.956100  0.237600  0.824900  1
  H  H55  1  0.963200  0.704200  0.208200  1
  H  H56  1  0.036800  0.295800  0.791800  1
  H  H57  1  0.115900  0.538500  0.277200  1
  H  H58  1  0.884100  0.461500  0.722800  1
  H  H59  1  0.061500  0.554800  0.171800  1
  H  H60  1  0.938500  0.445200  0.828200  1
  H  H61  1  0.062500  0.492200  0.121500  1
  H  H62  1  0.937500  0.507800  0.878500  1
  H  H63  1  0.983900  0.431100  0.155300  1
  H  H64  1  0.016100  0.568900  0.844700  1
  H  H65  1  0.915700  0.426600  0.240600  1
  H  H66  1  0.084300  0.573400  0.759400  1
  H  H67  1  0.841400  0.492900  0.414000  1
  H  H68  1  0.158600  0.507100  0.586000  1
  H  H69  1  0.844200  0.554000  0.463400  1
  H  H70  1  0.155800  0.446000  0.536600  1
  H  H71  1  0.907900  0.626900  0.427600  1
  H  H72  1  0.092100  0.373100  0.572400  1
  H  H73  1  0.973300  0.635200  0.340600  1
  H  H74  1  0.026700  0.364800  0.659400  1
  H  H75  1  0.159900  0.869500  0.281700  1
  H  H76  1  0.840100  0.130500  0.718300  1
  H  H77  1  0.058300  0.879600  0.347800  1
  H  H78  1  0.941700  0.120400  0.652200  1
  H  H79  1  0.986400  0.982700  0.375200  1
  H  H80  1  0.013600  0.017300  0.624800  1
  H  H81  1  0.105700  0.074900  0.258200  1
  H  H82  1  0.894300  0.925100  0.741800  1
  H  H83  1  0.052200  0.030200  0.407800  1
  H  H84  1  0.947800  0.969800  0.592200  1
  H  H85  1  0.046600  0.057400  0.480600  1
  H  H86  1  0.953400  0.942600  0.519400  1
  H  H87  1  0.970000  0.170100  0.501500  1
  H  H88  1  0.030000  0.829900  0.498500  1
  H  H89  1  0.908800  0.260100  0.442000  1
  H  H90  1  0.091200  0.739900  0.558000  1
  H  H91  1  0.840500  0.334500  0.273300  1
  H  H92  1  0.159500  0.665500  0.726700  1
  H  H93  1  0.850000  0.306600  0.195700  1
  H  H94  1  0.150000  0.693400  0.804300  1
  H  H95  1  0.918600  0.196000  0.180800  1
  H  H96  1  0.081400  0.804000  0.819200  1
  H  H97  1  0.975700  0.106200  0.239500  1
  H  H98  1  0.024300  0.893800  0.760500  1
  H  H99  1  0.945100  0.350100  0.330600  1
  H  H100  1  0.054900  0.649900  0.669400  1
  H  H101  1  0.122900  0.657200  0.339800  1
  H  H102  1  0.877100  0.342800  0.660200  1
  H  H103  1  0.056100  0.634800  0.423200  1
  H  H104  1  0.943900  0.365200  0.576800  1
  H  H105  1  0.073500  0.521200  0.472800  1
  H  H106  1  0.926500  0.478800  0.527200  1
  H  H107  1  0.228400  0.449700  0.347100  1
  H  H108  1  0.771600  0.550300  0.652900  1
  H  H109  1  0.044300  0.448800  0.428000  1
  H  H110  1  0.955700  0.551200  0.572000  1
  H  H111  1  0.969000  0.390600  0.450600  1
  H  H112  1  0.031000  0.609400  0.549400  1
  H  H113  1  0.001000  0.271300  0.493500  1
  H  H114  1  0.999000  0.728700  0.506500  1
  H  H115  1  0.113100  0.206800  0.509600  1
  H  H116  1  0.886900  0.793200  0.490400  1
  H  H117  1  0.352100  0.196300  0.503700  1
  H  H118  1  0.647900  0.803700  0.496300  1
  H  H119  1  0.423200  0.256100  0.489000  1
  H  H120  1  0.576800  0.743900  0.511000  1
  H  H121  1  0.384000  0.380700  0.454100  1
  H  H122  1  0.616000  0.619300  0.545900  1
  H  H123  1  0.274100  0.440700  0.435400  1
  H  H124  1  0.725900  0.559300  0.564600  1
  H  H125  1  0.344700  0.820300  0.227700  1
  H  H126  1  0.655300  0.179700  0.772300  1
  H  H127  1  0.414100  0.758600  0.285800  1
  H  H128  1  0.585900  0.241400  0.714200  1
  H  H129  1  0.405200  0.815500  0.347500  1
  H  H130  1  0.594800  0.184500  0.652500  1
  H  H131  1  0.251300  0.985600  0.290300  1
  H  H132  1  0.748700  0.014400  0.709700  1
  H  H133  1  0.406600  0.973700  0.274000  1
  H  H134  1  0.593400  0.026300  0.726000  1
  H  H135  1  0.466700  0.048400  0.249800  1
  H  H136  1  0.533300  0.951600  0.750200  1
  H  H137  1  0.445400  0.114800  0.308900  1
  H  H138  1  0.554600  0.885200  0.691100  1
  H  H139  1  0.376500  0.099600  0.393700  1
  H  H140  1  0.623500  0.900400  0.606300  1
  H  H141  1  0.198200  0.000900  0.525300  1
  H  H142  1  0.801800  0.999100  0.474700  1
  H  H143  1  0.142300  0.923900  0.546400  1
  H  H144  1  0.857700  0.076100  0.453600  1
  H  H145  1  0.146800  0.874800  0.486900  1
  H  H146  1  0.853200  0.125200  0.513100  1
  H  H147  1  0.228400  0.878200  0.403600  1
  H  H148  1  0.771600  0.121800  0.596400  1
  H  H149  1  0.237100  0.156800  0.440300  1
  H  H150  1  0.762900  0.843200  0.559700  1
  H  H151  1  0.311400  0.565700  0.331200  1
  H  H152  1  0.688600  0.434300  0.668800  1
  H  H153  1  0.421600  0.502900  0.352300  1
  H  H154  1  0.578400  0.497100  0.647700  1
  H  H155  1  0.502000  0.401500  0.318000  1
  H  H156  1  0.498000  0.598500  0.682000  1
  H  H157  1  0.363800  0.441500  0.238100  1
  H  H158  1  0.636200  0.558500  0.761900  1
  H  H159  1  0.442900  0.307000  0.356100  1
  H  H160  1  0.557100  0.693000  0.643900  1
  H  H161  1  0.467100  0.195000  0.407700  1
  H  H162  1  0.532900  0.805000  0.592300  1
  H  H163  1  0.538900  0.095900  0.371700  1
  H  H164  1  0.461100  0.904100  0.628300  1
  H  H165  1  0.592100  0.106300  0.282000  1
  H  H166  1  0.407900  0.893700  0.718000  1
  H  H167  1  0.620300  0.258200  0.104200  1
  H  H168  1  0.379700  0.741800  0.895800  1
  H  H169  1  0.614400  0.368100  0.052200  1
  H  H170  1  0.385600  0.631900  0.947800  1
  H  H171  1  0.542000  0.469400  0.088200  1
  H  H172  1  0.458000  0.530600  0.911800  1
  H  H173  1  0.485800  0.460200  0.175600  1
  H  H174  1  0.514200  0.539800  0.824400  1
  H  H175  1  0.299000  0.929500  0.093900  1
  H  H176  1  0.701000  0.070500  0.906100  1
  H  H177  1  0.403800  0.916600  0.030700  1
  H  H178  1  0.596200  0.083400  0.969300  1
  H  H179  1  0.489100  0.946600  0.039100  1
  H  H180  1  0.510900  0.053400  0.960900  1
  H  H181  1  0.357600  0.996400  0.177900  1
  H  H182  1  0.642400  0.003600  0.822100  1
  H  H183  1  0.413500  0.096200  0.047400  1
  H  H184  1  0.586500  0.903800  0.952600  1
  H  H185  1  0.425300  0.200900  0.002400  1
  H  H186  1  0.574700  0.799100  0.997600  1
  H  H187  1  0.507000  0.232400  0.011200  1
  H  H188  1  0.493000  0.767600  0.988800  1
  H  H189  1  0.576300  0.159600  0.072400  1
  H  H190  1  0.423700  0.840400  0.927600  1
  H  H191  1  0.631100  0.946100  0.216200  1
  H  H192  1  0.368900  0.053900  0.783800  1
  H  H193  1  0.615900  0.843500  0.266100  1
  H  H194  1  0.384100  0.156500  0.733900  1
  H  H195  1  0.544000  0.804300  0.247200  1
  H  H196  1  0.456000  0.195700  0.752800  1
  H  H197  1  0.490000  0.870600  0.179800  1
  H  H198  1  0.510000  0.129400  0.820200  1
  H  H199  1  0.529900  0.153000  0.178000  1
  H  H200  1  0.470100  0.847000  0.822000  1
  H  H201  1  0.328700  0.542600  0.874400  1
  H  H202  1  0.671300  0.457400  0.125600  1
  H  H203  1  0.280400  0.594200  0.914600  1
  H  H204  1  0.719600  0.405800  0.085400  1
  H  H205  1  0.244400  0.687400  0.839600  1
  H  H206  1  0.755600  0.312600  0.160400  1
  H  H207  1  0.325400  0.662300  0.840700  1
  H  H208  1  0.674600  0.337700  0.159300  1
  H  H209  1  0.272500  0.724800  0.747100  1
  H  H210  1  0.727500  0.275200  0.252900  1
  H  H211  1  0.338400  0.671500  0.712900  1
  H  H212  1  0.661600  0.328500  0.287100  1
  H  H213  1  0.352000  0.703800  0.749100  1
  H  H214  1  0.648000  0.296200  0.250900  1
  H  H215  1  0.241400  0.565300  0.785600  1
  H  H216  1  0.758600  0.434700  0.214400  1
  H  H217  1  0.231100  0.514000  0.763500  1
  H  H218  1  0.768900  0.486000  0.236500  1
  H  H219  1  0.352200  0.477100  0.763100  1
  H  H220  1  0.647800  0.522900  0.236900  1
  H  H221  1  0.329600  0.464100  0.825800  1
  H  H222  1  0.670400  0.535900  0.174200  1
  H  H223  1  0.423400  0.350800  0.768000  1
  H  H224  1  0.576600  0.649200  0.232000  1
  H  H225  1  0.386000  0.297800  0.805100  1
  H  H226  1  0.614000  0.702200  0.194900  1
  H  H227  1  0.402300  0.342200  0.829900  1
  H  H228  1  0.597700  0.657800  0.170100  1
  H  H229  1  0.223400  0.354700  0.841100  1
  H  H230  1  0.776600  0.645300  0.158900  1
  H  H231  1  0.160700  0.422500  0.819600  1
  H  H232  1  0.839300  0.577500  0.180400  1
  H  H233  1  0.087900  0.354800  0.854700  1
  H  H234  1  0.912100  0.645200  0.145300  1
  H  H235  1  0.155000  0.327300  0.807800  1
  H  H236  1  0.845000  0.672700  0.192200  1
  H  H237  1  0.257500  0.180800  0.869800  1
  H  H238  1  0.742500  0.819200  0.130200  1
  H  H239  1  0.237000  0.224000  0.815400  1
  H  H240  1  0.763000  0.776000  0.184600  1
  H  H241  1  0.267400  0.253500  0.842300  1
  H  H242  1  0.732600  0.746500  0.157700  1
  H  H243  1  0.682200  0.583600  0.310300  1
  H  H244  1  0.317800  0.416400  0.689700  1
  H  H245  1  0.761500  0.574800  0.277700  1
  H  H246  1  0.238500  0.425200  0.722300  1
  H  H247  1  0.745700  0.672600  0.307700  1
  H  H248  1  0.254300  0.327400  0.692300  1
  H  H249  1  0.694500  0.693700  0.271100  1
  H  H250  1  0.305500  0.306300  0.728900  1
  H  H251  1  0.690900  0.622600  0.404900  1
  H  H252  1  0.309100  0.377400  0.595100  1
  H  H253  1  0.622600  0.689700  0.422400  1
  H  H254  1  0.377400  0.310300  0.577600  1
  H  H255  1  0.696500  0.697100  0.389400  1
  H  H256  1  0.303500  0.302900  0.610600  1
  H  H257  1  0.646300  0.420400  0.478600  1
  H  H258  1  0.353700  0.579600  0.521400  1
  H  H259  1  0.614200  0.503900  0.459700  1
  H  H260  1  0.385800  0.496100  0.540300  1
  H  H261  1  0.761700  0.432800  0.451500  1
  H  H262  1  0.238300  0.567200  0.548500  1
  H  H263  1  0.713800  0.513000  0.454500  1
  H  H264  1  0.286200  0.487000  0.545500  1
  H  H265  1  0.788100  0.392200  0.564600  1
  H  H266  1  0.211900  0.607800  0.435400  1
  H  H267  1  0.805100  0.360600  0.515700  1
  H  H268  1  0.194900  0.639400  0.484300  1
  H  H269  1  0.818800  0.429300  0.506900  1
  H  H270  1  0.181200  0.570700  0.493100  1
  H  H271  1  0.760900  0.257800  0.447300  1
  H  H272  1  0.239100  0.742200  0.552700  1
  H  H273  1  0.788300  0.218600  0.400400  1
  H  H274  1  0.211700  0.781400  0.599600  1
  H  H275  1  0.689100  0.195600  0.457800  1
  H  H276  1  0.310900  0.804400  0.542200  1
  H  H277  1  0.642100  0.278000  0.456600  1
  H  H278  1  0.357900  0.722000  0.543400  1
  H  H279  1  0.588100  0.242600  0.371500  1
  H  H280  1  0.411900  0.757400  0.628500  1
  H  H281  1  0.606800  0.190000  0.424500  1
  H  H282  1  0.393200  0.810000  0.575500  1
  H  H283  1  0.559600  0.271800  0.423600  1
  H  H284  1  0.440400  0.728200  0.576400  1
  H  H285  1  0.162800  0.181500  0.618000  1
  H  H286  1  0.837200  0.818500  0.382000  1
  H  H287  1  0.183100  0.247300  0.585700  1
  H  H288  1  0.816900  0.752700  0.414300  1
  H  H289  1  0.184700  0.269500  0.654000  1
  H  H290  1  0.815300  0.730500  0.346000  1
  H  H291  1  0.134000  0.227300  0.683300  1
  H  H292  1  0.866000  0.772700  0.316700  1
  H  H293  1  0.262500  0.206500  0.736000  1
  H  H294  1  0.737500  0.793500  0.264000  1
  H  H295  1  0.201900  0.176800  0.769600  1
  H  H296  1  0.798100  0.823200  0.230400  1
  H  H297  1  0.181700  0.253500  0.732700  1
  H  H298  1  0.818300  0.746500  0.267300  1
  H  H299  1  0.240600  0.049100  0.648600  1
  H  H300  1  0.759400  0.950900  0.351400  1
  H  H301  1  0.303900  0.007000  0.677400  1
  H  H302  1  0.696100  0.993000  0.322600  1
  H  H303  1  0.315200  0.903800  0.647800  1
  H  H304  1  0.684800  0.096200  0.352200  1
  H  H305  1  0.259100  0.925300  0.701300  1
  H  H306  1  0.740900  0.074700  0.298700  1
  H  H307  1  0.247100  0.860000  0.639500  1
  H  H308  1  0.752900  0.140000  0.360500  1
  H  H309  1  0.172600  0.910300  0.624800  1
  H  H310  1  0.827400  0.089700  0.375200  1
  H  H311  1  0.176600  0.887100  0.684300  1
  H  H312  1  0.823400  0.112900  0.315700  1
  H  H313  1  0.449300  0.872800  0.534800  1
  H  H314  1  0.550700  0.127200  0.465200  1
  H  H315  1  0.439200  0.946200  0.541300  1
  H  H316  1  0.560800  0.053800  0.458700  1
  H  H317  1  0.454400  0.981800  0.444700  1
  H  H318  1  0.545600  0.018200  0.555300  1
  H  H319  1  0.524300  0.932400  0.466600  1
  H  H320  1  0.475700  0.067600  0.533400  1
  H  H321  1  0.528000  0.935300  0.373300  1
  H  H322  1  0.472000  0.064700  0.626700  1
  H  H323  1  0.545800  0.856300  0.372500  1
  H  H324  1  0.454200  0.143700  0.627500  1
  H  H325  1  0.589400  0.871200  0.398900  1
  H  H326  1  0.410600  0.128800  0.601100  1
  H  H327  1  0.824400  0.100100  0.183600  1
  H  H328  1  0.175600  0.899900  0.816400  1
  H  H329  1  0.793900  0.176500  0.195500  1
  H  H330  1  0.206100  0.823500  0.804500  1
  H  H331  1  0.809400  0.146700  0.099400  1
  H  H332  1  0.190600  0.853300  0.900600  1
  H  H333  1  0.761600  0.224400  0.111300  1
  H  H334  1  0.238400  0.775600  0.888700  1
  H  H335  1  0.839900  0.240600  0.038500  1
  H  H336  1  0.160100  0.759400  0.961500  1
  H  H337  1  0.923700  0.202200  0.034000  1
  H  H338  1  0.076300  0.797800  0.966000  1
  H  H339  1  0.878700  0.274700  0.053700  1
  H  H340  1  0.121300  0.725300  0.946300  1
  H  H341  1  0.824900  0.918500  0.171600  1
  H  H342  1  0.175100  0.081500  0.828400  1
  H  H343  1  0.784000  0.952000  0.222500  1
  H  H344  1  0.216000  0.048000  0.777500  1
  H  H345  1  0.910800  0.881100  0.216500  1
  H  H346  1  0.089200  0.118900  0.783500  1
  H  H347  1  0.926800  0.941000  0.167500  1
  H  H348  1  0.073200  0.059000  0.832500  1
  H  H349  1  0.968100  0.930600  0.256300  1
  H  H350  1  0.031900  0.069400  0.743700  1
  H  H351  1  0.926600  0.012900  0.255700  1
  H  H352  1  0.073400  0.987100  0.744300  1
  H  H353  1  0.969100  0.986400  0.202000  1
  H  H354  1  0.030900  0.013600  0.798000  1
  H  H355  1  0.687300  0.996500  0.028900  1
  H  H356  1  0.312700  0.003500  0.971100  1
  H  H357  1  0.676600  0.058600  0.052400  1
  H  H358  1  0.323400  0.941400  0.947600  1
  H  H359  1  0.773300  0.129100  0.956700  1
  H  H360  1  0.226700  0.870900  0.043300  1
  H  H361  1  0.692200  0.140500  0.986100  1
  H  H362  1  0.307800  0.859500  0.013900  1
  H  H363  1  0.748200  0.117500  0.019000  1
  H  H364  1  0.251800  0.882500  0.981000  1
  H  H365  1  0.338500  0.247500  0.358800  1
  H  H366  1  0.661500  0.752500  0.641200  1
  H  H367  1  0.255900  0.288300  0.359400  1
  H  H368  1  0.744100  0.711700  0.640600  1
  H  H369  1  0.309000  0.327900  0.329100  1
  H  H370  1  0.691000  0.672100  0.670900  1
  H  H371  1  0.400300  0.285900  0.240600  1
  H  H372  1  0.599700  0.714100  0.759400  1
  H  H373  1  0.131800  0.136100  0.312600  1
  H  H374  1  0.868200  0.863900  0.687400  1
  H  H375  1  0.126400  0.165300  0.359300  1
  H  H376  1  0.873600  0.834700  0.640700  1
  H  H377  1  0.181200  0.087300  0.352300  1
  H  H378  1  0.818800  0.912700  0.647700  1
  H  H379  1  0.303300  0.169400  0.145100  1
  H  H380  1  0.696700  0.830600  0.854900  1
  H  H381  1  0.358700  0.098000  0.171100  1
  H  H382  1  0.641300  0.902000  0.828900  1
  H  H383  1  0.374900  0.167700  0.149200  1
  H  H384  1  0.625100  0.832300  0.850800  1
  H  H385  1  0.045700  0.254500  0.241100  1
  H  H386  1  0.954300  0.745500  0.758900  1
  H  H387  1  0.102500  0.193500  0.210100  1
  H  H388  1  0.897500  0.806500  0.789900  1
  H  H389  1  0.045900  0.261700  0.182500  1
  H  H390  1  0.954100  0.738300  0.817500  1
  H  H391  1  0.168100  0.262800  0.112600  1
  H  H392  1  0.831900  0.737200  0.887400  1
  H  H393  1  0.131300  0.345200  0.346600  1
  H  H394  1  0.868700  0.654800  0.653400  1
  H  H395  1  0.057700  0.400300  0.331900  1
  H  H396  1  0.942300  0.599700  0.668100  1
  H  H397  1  0.119800  0.425700  0.321300  1
  H  H398  1  0.880200  0.574300  0.678700  1
  H  H399  1  0.298200  0.363800  0.119100  1
  H  H400  1  0.701800  0.636200  0.880900  1
  H  H401  1  0.303900  0.398400  0.157900  1
  H  H402  1  0.696100  0.601600  0.842100  1
  H  H403  1  0.248100  0.444000  0.122500  1
  H  H404  1  0.751900  0.556000  0.877500  1
  H  H405  1  0.110100  0.422500  0.852700  1
  H  H406  1  0.889900  0.577500  0.147300  1
  H  H407  1  0.093200  0.387100  0.913100  1
  H  H408  1  0.906800  0.612900  0.086900  1
  H  H409  1  0.108800  0.289700  0.898500  1
  H  H410  1  0.891200  0.710300  0.101500  1
  H  H411  1  0.088700  0.340200  0.845400  1
  H  H412  1  0.911300  0.659800  0.154600  1
  H  H413  1  0.259100  0.176900  0.849600  1
  H  H414  1  0.740900  0.823100  0.150400  1
  H  H415  1  0.219500  0.208100  0.901400  1
  H  H416  1  0.780500  0.791900  0.098600  1
  H  H417  1  0.177900  0.187200  0.877500  1
  H  H418  1  0.822100  0.812800  0.122500  1
  H  H419  1  0.679800  0.431400  0.316700  1
  H  H420  1  0.320200  0.568600  0.683300  1
  H  H421  1  0.651600  0.514400  0.309800  1
  H  H422  1  0.348400  0.485600  0.690200  1
  H  H423  1  0.539600  0.509900  0.371000  1
  H  H424  1  0.460400  0.490100  0.629000  1
  H  H425  1  0.555300  0.495400  0.314600  1
  H  H426  1  0.444700  0.504600  0.685400  1
  H  H427  1  0.519300  0.362400  0.435800  1
  H  H428  1  0.480700  0.637600  0.564200  1
  H  H429  1  0.525200  0.427800  0.443700  1
  H  H430  1  0.474800  0.572200  0.556300  1
  H  H431  1  0.470800  0.440900  0.412500  1
  H  H432  1  0.529200  0.559100  0.587500  1
  H  H433  1  0.686800  0.342800  0.464700  1
  H  H434  1  0.313200  0.657200  0.535300  1
  H  H435  1  0.762600  0.283500  0.472300  1
  H  H436  1  0.237400  0.716500  0.527700  1
  H  H437  1  0.721900  0.198700  0.469900  1
  H  H438  1  0.278100  0.801300  0.530100  1
  H  H439  1  0.683400  0.231900  0.521000  1
  H  H440  1  0.316600  0.768100  0.479000  1
  H  H441  1  0.530900  0.258800  0.510200  1
  H  H442  1  0.469100  0.741200  0.489800  1
  H  H443  1  0.599100  0.189700  0.522300  1
  H  H444  1  0.400900  0.810300  0.477700  1
  H  H445  1  0.572900  0.255400  0.547500  1
  H  H446  1  0.427100  0.744600  0.452500  1
  H  H447  1  0.757200  0.042700  0.054100  1
  H  H448  1  0.242800  0.957300  0.945900  1
  H  H449  1  0.757700  0.975900  0.043600  1
  H  H450  1  0.242300  0.024100  0.956400  1
  H  H451  1  0.866300  0.939900  0.088200  1
  H  H452  1  0.133700  0.060100  0.911800  1
  H  H453  1  0.870600  0.918000  0.038000  1
  H  H454  1  0.129400  0.082000  0.962000  1
  H  H455  1  0.937100  0.056000  0.027300  1
  H  H456  1  0.062900  0.944000  0.972700  1
  H  H457  1  0.881600  0.040900  0.080900  1
  H  H458  1  0.118400  0.959100  0.919100  1
  H  H459  1  0.954700  0.978200  0.062400  1
  H  H460  1  0.045300  0.021800  0.937600  1
  Pt  Pt461  1  0.236130  0.568760  0.259280  1
  Pt  Pt462  1  0.763870  0.431240  0.740720  1
  Pt  Pt463  1  0.229220  0.966910  0.201480  1
  Pt  Pt464  1  0.770780  0.033090  0.798520  1
  C  C465  1  0.334400  0.613200  0.164600  1
  C  C466  1  0.665600  0.386800  0.835400  1
  C  C467  1  0.366500  0.628200  0.111300  1
  C  C468  1  0.633500  0.371800  0.888700  1
  C  C469  1  0.351800  0.607500  0.077300  1
  C  C470  1  0.648200  0.392500  0.922700  1
  C  C471  1  0.305600  0.576300  0.094000  1
  C  C472  1  0.694400  0.423700  0.906000  1
  C  C473  1  0.273700  0.563500  0.148200  1
  C  C474  1  0.726300  0.436500  0.851800  1
  C  C475  1  0.411100  0.460900  0.039800  1
  C  C476  1  0.588900  0.539100  0.960200  1
  C  C477  1  0.458800  0.409400  0.015400  1
  C  C478  1  0.541200  0.590600  0.984600  1
  C  C479  1  0.443300  0.387800  0.980200  1
  C  C480  1  0.556700  0.612200  0.019800  1
  C  C481  1  0.374800  0.419400  0.974700  1
  C  C482  1  0.625200  0.580600  0.025300  1
  C  C483  1  0.322100  0.473900  0.999300  1
  C  C484  1  0.677900  0.526100  0.000700  1
  C  C485  1  0.250000  0.506100  0.994200  1
  C  C486  1  0.750000  0.493900  0.005800  1
  C  C487  1  0.195100  0.559300  0.020600  1
  C  C488  1  0.804900  0.440700  0.979400  1
  C  C489  1  0.125700  0.588400  0.016000  1
  C  C490  1  0.874300  0.411600  0.984000  1
  C  C491  1  0.074700  0.639700  0.041800  1
  C  C492  1  0.925300  0.360300  0.958200  1
  C  C493  1  0.092300  0.668400  0.071600  1
  C  C494  1  0.907700  0.331600  0.928400  1
  C  C495  1  0.157900  0.641300  0.076900  1
  C  C496  1  0.842100  0.358700  0.923100  1
  C  C497  1  0.215200  0.585100  0.052900  1
  C  C498  1  0.784800  0.414900  0.947100  1
  C  C499  1  0.287800  0.553600  0.057100  1
  C  C500  1  0.712200  0.446400  0.942900  1
  C  C501  1  0.339200  0.499500  0.032100  1
  C  C502  1  0.660800  0.500500  0.967900  1
  C  C503  1  0.119600  0.009400  0.143800  1
  C  C504  1  0.880400  0.990600  0.856200  1
  C  C505  1  0.076900  0.053100  0.108800  1
  C  C506  1  0.923100  0.946900  0.891200  1
  C  C507  1  0.088400  0.112700  0.075200  1
  C  C508  1  0.911600  0.887300  0.924800  1
  C  C509  1  0.135500  0.133000  0.081100  1
  C  C510  1  0.864500  0.867000  0.918900  1
  C  C511  1  0.172200  0.090900  0.119400  1
  C  C512  1  0.827800  0.909100  0.880600  1
  C  C513  1  0.025400  0.275100  0.085600  1
  C  C514  1  0.974600  0.724900  0.914400  1
  C  C515  1  0.972800  0.340400  0.089900  1
  C  C516  1  0.027200  0.659600  0.910100  1
  C  C517  1  0.988400  0.401200  0.061700  1
  C  C518  1  0.011600  0.598800  0.938300  1
  C  C519  1  0.055900  0.393000  0.029600  1
  C  C520  1  0.944100  0.607000  0.970400  1
  C  C521  1  0.111100  0.326400  0.024400  1
  C  C522  1  0.888900  0.673600  0.975600  1
  C  C523  1  0.179300  0.319500  0.992800  1
  C  C524  1  0.820700  0.680500  0.007200  1
  C  C525  1  0.232700  0.252100  0.985300  1
  C  C526  1  0.767300  0.747900  0.014700  1
  C  C527  1  0.301700  0.244000  0.951100  1
  C  C528  1  0.698300  0.756000  0.048900  1
  C  C529  1  0.353900  0.175900  0.943600  1
  C  C530  1  0.646100  0.824100  0.056400  1
  C  C531  1  0.337900  0.117200  0.969500  1
  C  C532  1  0.662100  0.882800  0.030500  1
  C  C533  1  0.272600  0.122800  0.004000  1
  C  C534  1  0.727400  0.877200  0.996000  1
  C  C535  1  0.218100  0.191400  0.013100  1
  C  C536  1  0.781900  0.808600  0.986900  1
  C  C537  1  0.152300  0.197100  0.046800  1
  C  C538  1  0.847700  0.802900  0.953200  1
  C  C539  1  0.095200  0.264300  0.052600  1
  C  C540  1  0.904800  0.735700  0.947400  1
  C  C541  1  0.229900  0.474600  0.963000  1
  C  C542  1  0.770100  0.525400  0.037000  1
  C  C543  1  0.220300  0.507600  0.912700  1
  C  C544  1  0.779700  0.492400  0.087300  1
  C  C545  1  0.200500  0.477500  0.887500  1
  C  C546  1  0.799500  0.522500  0.112500  1
  C  C547  1  0.188200  0.417200  0.912600  1
  C  C548  1  0.811800  0.582800  0.087400  1
  C  C549  1  0.196500  0.384900  0.963000  1
  C  C550  1  0.803500  0.615100  0.037000  1
  C  C551  1  0.217600  0.415000  0.986600  1
  C  C552  1  0.782400  0.585000  0.013400  1
  C  C553  1  0.119700  0.686800  0.210000  1
  C  C554  1  0.880300  0.313200  0.790000  1
  C  C555  1  0.056600  0.717000  0.197100  1
  C  C556  1  0.943400  0.283000  0.802900  1
  C  C557  1  0.008300  0.682000  0.216100  1
  C  C558  1  0.991700  0.318000  0.783900  1
  C  C559  1  0.030200  0.614700  0.246200  1
  C  C560  1  0.969800  0.385300  0.753800  1
  C  C561  1  0.099800  0.584900  0.257100  1
  C  C562  1  0.900200  0.415100  0.742900  1
  C  C563  1  0.031400  0.529600  0.186000  1
  C  C564  1  0.968600  0.470400  0.814000  1
  C  C565  1  0.032200  0.493000  0.155700  1
  C  C566  1  0.967800  0.507000  0.844300  1
  C  C567  1  0.985800  0.455000  0.176700  1
  C  C568  1  0.014200  0.545000  0.823300  1
  C  C569  1  0.944400  0.453100  0.227400  1
  C  C570  1  0.055600  0.546900  0.772600  1
  C  C571  1  0.944000  0.491000  0.260800  1
  C  C572  1  0.056000  0.509000  0.739200  1
  C  C573  1  0.901700  0.487300  0.314400  1
  C  C574  1  0.098300  0.512700  0.685600  1
  C  C575  1  0.903600  0.525800  0.345100  1
  C  C576  1  0.096400  0.474200  0.654900  1
  C  C577  1  0.867800  0.521900  0.398300  1
  C  C578  1  0.132200  0.478100  0.601700  1
  C  C579  1  0.869500  0.558000  0.427700  1
  C  C580  1  0.130500  0.442000  0.572300  1
  C  C581  1  0.908100  0.601300  0.406500  1
  C  C582  1  0.091900  0.398700  0.593500  1
  C  C583  1  0.946500  0.606800  0.354600  1
  C  C584  1  0.053500  0.393200  0.645400  1
  C  C585  1  0.945400  0.569000  0.322100  1
  C  C586  1  0.054600  0.431000  0.677900  1
  C  C587  1  0.986100  0.571800  0.268700  1
  C  C588  1  0.013900  0.428200  0.731300  1
  C  C589  1  0.987600  0.532700  0.238300  1
  C  C590  1  0.012400  0.467300  0.761700  1
  C  C591  1  0.128000  0.914000  0.290000  1
  C  C592  1  0.872000  0.086000  0.710000  1
  C  C593  1  0.069100  0.920000  0.330000  1
  C  C594  1  0.930900  0.080000  0.670000  1
  C  C595  1  0.025200  0.981300  0.345400  1
  C  C596  1  0.974800  0.018700  0.654600  1
  C  C597  1  0.036100  0.041700  0.318500  1
  C  C598  1  0.963900  0.958300  0.681500  1
  C  C599  1  0.096000  0.034100  0.277000  1
  C  C600  1  0.904000  0.965900  0.723000  1
  C  C601  1  0.022800  0.076400  0.413700  1
  C  C602  1  0.977200  0.923600  0.586300  1
  C  C603  1  0.018900  0.092400  0.457300  1
  C  C604  1  0.981100  0.907600  0.542700  1
  C  C605  1  0.973600  0.161500  0.469600  1
  C  C606  1  0.026400  0.838500  0.530400  1
  C  C607  1  0.936200  0.214100  0.435300  1
  C  C608  1  0.063800  0.785900  0.564700  1
  C  C609  1  0.939300  0.197700  0.387900  1
  C  C610  1  0.060700  0.802300  0.612100  1
  C  C611  1  0.900600  0.251400  0.349800  1
  C  C612  1  0.099400  0.748600  0.650200  1
  C  C613  1  0.904400  0.235400  0.304400  1
  C  C614  1  0.095600  0.764600  0.695600  1
  C  C615  1  0.868500  0.288100  0.267400  1
  C  C616  1  0.131500  0.711900  0.732600  1
  C  C617  1  0.874400  0.271400  0.220800  1
  C  C618  1  0.125600  0.728600  0.779200  1
  C  C619  1  0.914900  0.205300  0.212400  1
  C  C620  1  0.085100  0.794700  0.787600  1
  C  C621  1  0.950200  0.152200  0.246300  1
  C  C622  1  0.049800  0.847800  0.753700  1
  C  C623  1  0.948700  0.166100  0.294100  1
  C  C624  1  0.051300  0.833900  0.705900  1
  C  C625  1  0.986900  0.114200  0.330500  1
  C  C626  1  0.013100  0.885800  0.669500  1
  C  C627  1  0.983700  0.127500  0.376100  1
  C  C628  1  0.016300  0.872500  0.623900  1
  C  C629  1  0.860100  0.442400  0.337100  1
  C  C630  1  0.139900  0.557600  0.662900  1
  C  C631  1  0.786500  0.470100  0.353900  1
  C  C632  1  0.213500  0.529900  0.646100  1
  C  C633  1  0.748300  0.428000  0.372100  1
  C  C634  1  0.251700  0.572000  0.627900  1
  C  C635  1  0.785800  0.355100  0.373700  1
  C  C636  1  0.214200  0.644900  0.626300  1
  C  C637  1  0.858700  0.325000  0.357000  1
  C  C638  1  0.141300  0.675000  0.643000  1
  C  C639  1  0.894600  0.370000  0.340200  1
  C  C640  1  0.105400  0.630000  0.659800  1
  C  C641  1  0.130700  0.610300  0.358400  1
  C  C642  1  0.869300  0.389700  0.641600  1
  C  C643  1  0.092100  0.596200  0.408000  1
  C  C644  1  0.907900  0.403800  0.592000  1
  C  C645  1  0.102000  0.528100  0.438200  1
  C  C646  1  0.898000  0.471900  0.561800  1
  C  C647  1  0.156300  0.468900  0.415900  1
  C  C648  1  0.843700  0.531100  0.584100  1
  C  C649  1  0.193100  0.487300  0.363600  1
  C  C650  1  0.806900  0.512700  0.636400  1
  C  C651  1  0.059100  0.400600  0.444700  1
  C  C652  1  0.940900  0.599400  0.555300  1
  C  C653  1  0.014200  0.365400  0.458500  1
  C  C654  1  0.985800  0.634600  0.541500  1
  C  C655  1  0.033500  0.293100  0.483800  1
  C  C656  1  0.966500  0.706900  0.516200  1
  C  C657  1  0.099400  0.255400  0.493900  1
  C  C658  1  0.900600  0.744600  0.506100  1
  C  C659  1  0.148500  0.289000  0.480900  1
  C  C660  1  0.851500  0.711000  0.519100  1
  C  C661  1  0.220400  0.248800  0.489300  1
  C  C662  1  0.779600  0.751200  0.510700  1
  C  C663  1  0.264200  0.283900  0.479500  1
  C  C664  1  0.735800  0.716100  0.520500  1
  C  C665  1  0.335400  0.245600  0.490400  1
  C  C666  1  0.664600  0.754400  0.509600  1
  C  C667  1  0.378000  0.281300  0.481300  1
  C  C668  1  0.622000  0.718700  0.518700  1
  C  C669  1  0.354700  0.356600  0.460000  1
  C  C670  1  0.645300  0.643400  0.540000  1
  C  C671  1  0.289900  0.391500  0.449000  1
  C  C672  1  0.710100  0.608500  0.551000  1
  C  C673  1  0.243500  0.356200  0.457200  1
  C  C674  1  0.756500  0.643800  0.542800  1
  C  C675  1  0.173500  0.396600  0.444800  1
  C  C676  1  0.826500  0.603400  0.555200  1
  C  C677  1  0.130100  0.361800  0.456400  1
  C  C678  1  0.869900  0.638200  0.543600  1
  C  C679  1  0.339500  0.843400  0.252700  1
  C  C680  1  0.660500  0.156600  0.747300  1
  C  C681  1  0.381700  0.805800  0.286900  1
  C  C682  1  0.618300  0.194200  0.713100  1
  C  C683  1  0.375500  0.839200  0.323900  1
  C  C684  1  0.624500  0.160800  0.676100  1
  C  C685  1  0.323600  0.909600  0.325400  1
  C  C686  1  0.676400  0.090400  0.674600  1
  C  C687  1  0.285800  0.939100  0.289100  1
  C  C688  1  0.714200  0.060900  0.710900  1
  C  C689  1  0.399700  0.999300  0.297900  1
  C  C690  1  0.600300  0.000700  0.702100  1
  C  C691  1  0.435100  0.043900  0.283300  1
  C  C692  1  0.564900  0.956100  0.716700  1
  C  C693  1  0.423200  0.082600  0.319700  1
  C  C694  1  0.576800  0.917400  0.680300  1
  C  C695  1  0.380500  0.075100  0.370000  1
  C  C696  1  0.619500  0.924900  0.630000  1
  C  C697  1  0.343000  0.030900  0.386100  1
  C  C698  1  0.657000  0.969100  0.613900  1
  C  C699  1  0.297400  0.022800  0.436800  1
  C  C700  1  0.702600  0.977200  0.563200  1
  C  C701  1  0.258200  0.979600  0.449600  1
  C  C702  1  0.741800  0.020400  0.550400  1
  C  C703  1  0.206700  0.975100  0.501000  1
  C  C704  1  0.793300  0.024900  0.499000  1
  C  C705  1  0.171400  0.931500  0.512200  1
  C  C706  1  0.828600  0.068500  0.487800  1
  C  C707  1  0.176200  0.899900  0.477600  1
  C  C708  1  0.823800  0.100100  0.522400  1
  C  C709  1  0.223500  0.902300  0.427800  1
  C  C710  1  0.776500  0.097700  0.572200  1
  C  C711  1  0.264600  0.944400  0.415700  1
  C  C712  1  0.735400  0.055600  0.584300  1
  C  C713  1  0.316400  0.946400  0.364300  1
  C  C714  1  0.683600  0.053600  0.635700  1
  C  C715  1  0.352300  0.991900  0.349600  1
  C  C716  1  0.647700  0.008100  0.650400  1
  C  C717  1  0.245900  0.169400  0.507300  1
  C  C718  1  0.754100  0.830600  0.492700  1
  C  C719  1  0.272000  0.128300  0.551600  1
  C  C720  1  0.728000  0.871700  0.448400  1
  C  C721  1  0.306100  0.054200  0.558600  1
  C  C722  1  0.693900  0.945800  0.441400  1
  C  C723  1  0.320200  0.021700  0.519700  1
  C  C724  1  0.679800  0.978300  0.480300  1
  C  C725  1  0.289200  0.059000  0.476700  1
  C  C726  1  0.710800  0.941000  0.523300  1
  C  C727  1  0.255300  0.130900  0.470300  1
  C  C728  1  0.744700  0.869100  0.529700  1
  C  C729  1  0.345800  0.527200  0.315400  1
  C  C730  1  0.654200  0.472800  0.684600  1
  C  C731  1  0.410300  0.488900  0.329400  1
  C  C732  1  0.589700  0.511100  0.670600  1
  C  C733  1  0.458000  0.429300  0.308600  1
  C  C734  1  0.542000  0.570700  0.691400  1
  C  C735  1  0.441000  0.410800  0.274200  1
  C  C736  1  0.559000  0.589200  0.725800  1
  C  C737  1  0.376100  0.453900  0.261500  1
  C  C738  1  0.623900  0.546100  0.738500  1
  C  C739  1  0.472800  0.267300  0.340500  1
  C  C740  1  0.527200  0.732700  0.659500  1
  C  C741  1  0.487200  0.200600  0.371100  1
  C  C742  1  0.512800  0.799400  0.628900  1
  C  C743  1  0.530500  0.141100  0.349600  1
  C  C744  1  0.469500  0.858900  0.650400  1
  C  C745  1  0.561600  0.147100  0.296200  1
  C  C746  1  0.438400  0.852900  0.703800  1
  C  C747  1  0.547200  0.214900  0.263200  1
  C  C748  1  0.452800  0.785100  0.736800  1
  C  C749  1  0.575800  0.222200  0.207500  1
  C  C750  1  0.424200  0.777800  0.792500  1
  C  C751  1  0.562500  0.290700  0.174200  1
  C  C752  1  0.437500  0.709300  0.825800  1
  C  C753  1  0.594900  0.298500  0.119300  1
  C  C754  1  0.405100  0.701500  0.880700  1
  C  C755  1  0.589800  0.363800  0.088000  1
  C  C756  1  0.410200  0.636200  0.912000  1
  C  C757  1  0.547500  0.424200  0.110000  1
  C  C758  1  0.452500  0.575800  0.890000  1
  C  C759  1  0.514400  0.418700  0.162100  1
  C  C760  1  0.485600  0.581300  0.837900  1
  C  C761  1  0.521700  0.351600  0.197000  1
  C  C762  1  0.478300  0.648400  0.803000  1
  C  C763  1  0.489700  0.345200  0.252900  1
  C  C764  1  0.510300  0.654800  0.747100  1
  C  C765  1  0.502800  0.277400  0.284900  1
  C  C766  1  0.497200  0.722600  0.715100  1
  C  C767  1  0.333400  0.940000  0.098700  1
  C  C768  1  0.666600  0.060000  0.901300  1
  C  C769  1  0.395200  0.933100  0.060500  1
  C  C770  1  0.604800  0.066900  0.939500  1
  C  C771  1  0.446300  0.950600  0.065600  1
  C  C772  1  0.553700  0.049400  0.934400  1
  C  C773  1  0.432800  0.974000  0.110500  1
  C  C774  1  0.567200  0.026000  0.889500  1
  C  C775  1  0.367900  0.979400  0.148000  1
  C  C776  1  0.632100  0.020600  0.852000  1
  C  C777  1  0.446700  0.108000  0.052600  1
  C  C778  1  0.553300  0.892000  0.947400  1
  C  C779  1  0.454200  0.170000  0.025900  1
  C  C780  1  0.545800  0.830000  0.974100  1
  C  C781  1  0.502100  0.189800  0.031700  1
  C  C782  1  0.497900  0.810200  0.968300  1
  C  C783  1  0.543600  0.146000  0.068400  1
  C  C784  1  0.456400  0.854000  0.931600  1
  C  C785  1  0.536900  0.081400  0.099700  1
  C  C786  1  0.463100  0.918600  0.900300  1
  C  C787  1  0.572400  0.039900  0.139800  1
  C  C788  1  0.427600  0.960100  0.860200  1
  C  C789  1  0.566800  0.975200  0.168800  1
  C  C790  1  0.433200  0.024800  0.831200  1
  C  C791  1  0.601000  0.932200  0.208900  1
  C  C792  1  0.399000  0.067800  0.791100  1
  C  C793  1  0.592900  0.870300  0.238500  1
  C  C794  1  0.407100  0.129700  0.761500  1
  C  C795  1  0.549900  0.846700  0.227500  1
  C  C796  1  0.450100  0.153300  0.772500  1
  C  C797  1  0.517500  0.887100  0.187500  1
  C  C798  1  0.482500  0.112900  0.812500  1
  C  C799  1  0.521900  0.952000  0.156700  1
  C  C800  1  0.478100  0.048000  0.843300  1
  C  C801  1  0.481900  0.996500  0.118700  1
  C  C802  1  0.518100  0.003500  0.881300  1
  C  C803  1  0.490300  0.060400  0.089200  1
  C  C804  1  0.509700  0.939600  0.910800  1
  C  C805  1  0.616500  0.157000  0.185100  1
  C  C806  1  0.383500  0.843000  0.814900  1
  C  C807  1  0.691000  0.117700  0.181000  1
  C  C808  1  0.309000  0.882300  0.819000  1
  C  C809  1  0.724900  0.058200  0.161700  1
  C  C810  1  0.275100  0.941800  0.838300  1
  C  C811  1  0.690600  0.032200  0.147400  1
  C  C812  1  0.309400  0.967800  0.852600  1
  C  C813  1  0.613200  0.067200  0.152900  1
  C  C814  1  0.386800  0.932800  0.847100  1
  C  C815  1  0.580000  0.129000  0.172700  1
  C  C816  1  0.420000  0.871000  0.827300  1
  C  C817  1  0.285000  0.585100  0.881100  1
  C  C818  1  0.715000  0.414900  0.118900  1
  C  C819  1  0.291200  0.647400  0.837500  1
  C  C820  1  0.708800  0.352600  0.162500  1
  C  C821  1  0.319800  0.686800  0.746000  1
  C  C822  1  0.680200  0.313200  0.254000  1
  C  C823  1  0.242300  0.517600  0.793200  1
  C  C824  1  0.757700  0.482400  0.206800  1
  C  C825  1  0.317500  0.465100  0.794900  1
  C  C826  1  0.682500  0.534900  0.205100  1
  C  C827  1  0.388300  0.342900  0.800500  1
  C  C828  1  0.611700  0.657100  0.199500  1
  C  C829  1  0.171000  0.379700  0.847600  1
  C  C830  1  0.829000  0.620300  0.152400  1
  C  C831  1  0.140500  0.332800  0.844300  1
  C  C832  1  0.859500  0.667200  0.155700  1
  C  C833  1  0.237800  0.227900  0.848800  1
  C  C834  1  0.762200  0.772100  0.151200  1
  C  C835  1  0.724800  0.589200  0.309500  1
  C  C836  1  0.275200  0.410800  0.690500  1
  C  C837  1  0.705300  0.666200  0.305200  1
  C  C838  1  0.294700  0.333800  0.694800  1
  C  C839  1  0.665600  0.673400  0.394800  1
  C  C840  1  0.334400  0.326600  0.605200  1
  C  C841  1  0.657700  0.461000  0.454500  1
  C  C842  1  0.342300  0.539000  0.545500  1
  C  C843  1  0.715000  0.465000  0.469300  1
  C  C844  1  0.285000  0.535000  0.530700  1
  C  C845  1  0.787800  0.404000  0.527800  1
  C  C846  1  0.212200  0.596000  0.472200  1
  C  C847  1  0.748600  0.257100  0.417100  1
  C  C848  1  0.251400  0.742900  0.582900  1
  C  C849  1  0.681100  0.243000  0.435900  1
  C  C850  1  0.318900  0.757000  0.564100  1
  C  C851  1  0.599300  0.238000  0.403600  1
  C  C852  1  0.400700  0.762000  0.596400  1
  C  C853  1  0.196100  0.203300  0.612200  1
  C  C854  1  0.803900  0.796700  0.387800  1
  C  C855  1  0.182700  0.222800  0.662400  1
  C  C856  1  0.817300  0.777200  0.337600  1
  C  C857  1  0.218100  0.205500  0.736500  1
  C  C858  1  0.781900  0.794500  0.263500  1
  C  C859  1  0.286200  0.007800  0.649500  1
  C  C860  1  0.713800  0.992200  0.350500  1
  C  C861  1  0.272400  0.941800  0.663000  1
  C  C862  1  0.727600  0.058200  0.337000  1
  C  C863  1  0.201900  0.899500  0.648000  1
  C  C864  1  0.798100  0.100500  0.352000  1
  C  C865  1  0.432000  0.923900  0.519900  1
  C  C866  1  0.568000  0.076100  0.480100  1
  C  C867  1  0.478600  0.935200  0.465400  1
  C  C868  1  0.521400  0.064800  0.534600  1
  C  C869  1  0.542700  0.886400  0.392800  1
  C  C870  1  0.457300  0.113600  0.607200  1
  C  C871  1  0.788300  0.148600  0.177500  1
  C  C872  1  0.211700  0.851400  0.822500  1
  C  C873  1  0.801800  0.179800  0.119400  1
  C  C874  1  0.198200  0.820200  0.880600  1
  C  C875  1  0.877700  0.230500  0.054100  1
  C  C876  1  0.122300  0.769500  0.945900  1
  C  C877  1  0.820700  0.952800  0.189100  1
  C  C878  1  0.179300  0.047200  0.810900  1
  C  C879  1  0.891600  0.931600  0.200100  1
  C  C880  1  0.108400  0.068400  0.799900  1
  C  C881  1  0.940300  0.976100  0.237400  1
  C  C882  1  0.059700  0.023900  0.762600  1
  C  C883  1  0.754200  0.963700  0.076600  1
  C  C884  1  0.245800  0.036300  0.923400  1
  C  C885  1  0.712500  0.017000  0.037400  1
  C  C886  1  0.287500  0.983000  0.962600  1
  C  C887  1  0.742000  0.112500  0.988000  1
  C  C888  1  0.258000  0.887500  0.012000  1
  C  C889  1  0.304300  0.282900  0.338500  1
  C  C890  1  0.695700  0.717100  0.661500  1
  C  C891  1  0.369600  0.263400  0.246400  1
  C  C892  1  0.630400  0.736600  0.753600  1
  C  C893  1  0.319800  0.207400  0.236900  1
  C  C894  1  0.680200  0.792600  0.763100  1
  C  C895  1  0.286700  0.219900  0.285300  1
  C  C896  1  0.713300  0.780100  0.714700  1
  C  C897  1  0.228600  0.206200  0.321400  1
  C  C898  1  0.771400  0.793800  0.678600  1
  C  C899  1  0.158700  0.135500  0.333900  1
  C  C900  1  0.841300  0.864500  0.666100  1
  C  C901  1  0.244900  0.146300  0.251400  1
  C  C902  1  0.755100  0.853700  0.748600  1
  C  C903  1  0.337400  0.149300  0.166500  1
  C  C904  1  0.662600  0.850700  0.833500  1
  C  C905  1  0.075800  0.244300  0.206800  1
  C  C906  1  0.924200  0.755700  0.793200  1
  C  C907  1  0.167900  0.283300  0.137400  1
  C  C908  1  0.832100  0.716700  0.862600  1
  C  C909  1  0.191100  0.337100  0.172500  1
  C  C910  1  0.808900  0.662900  0.827500  1
  C  C911  1  0.139200  0.314600  0.209100  1
  C  C912  1  0.860800  0.685400  0.790900  1
  C  C913  1  0.110900  0.330100  0.259800  1
  C  C914  1  0.889100  0.669900  0.740200  1
  C  C915  1  0.109300  0.386900  0.321600  1
  C  C916  1  0.890700  0.613100  0.678400  1
  C  C917  1  0.189600  0.394200  0.231400  1
  C  C918  1  0.810400  0.605800  0.768600  1
  C  C919  1  0.271300  0.397100  0.142400  1
  C  C920  1  0.728700  0.602900  0.857600  1
  C  C921  1  0.127500  0.379400  0.879000  1
  C  C922  1  0.872500  0.620600  0.121000  1
  C  C923  1  0.124700  0.320100  0.865700  1
  C  C924  1  0.875300  0.679900  0.134300  1
  C  C925  1  0.214000  0.206600  0.869000  1
  C  C926  1  0.786000  0.793400  0.131000  1
  C  C927  1  0.647600  0.471100  0.334500  1
  C  C928  1  0.352400  0.528900  0.665500  1
  C  C929  1  0.571900  0.477500  0.346900  1
  C  C930  1  0.428100  0.522500  0.653100  1
  C  C931  1  0.517000  0.410000  0.419800  1
  C  C932  1  0.483000  0.590000  0.580200  1
  C  C933  1  0.723000  0.297000  0.456800  1
  C  C934  1  0.277000  0.703000  0.543200  1
  C  C935  1  0.690200  0.243000  0.482800  1
  C  C936  1  0.309800  0.757000  0.517200  1
  C  C937  1  0.578000  0.241000  0.517000  1
  C  C938  1  0.422000  0.759000  0.483000  1
  C  C939  1  0.771700  0.991000  0.065800  1
  C  C940  1  0.228300  0.009000  0.934200  1
  C  C941  1  0.852000  0.958100  0.054900  1
  C  C942  1  0.148000  0.041900  0.945100  1
  C  C943  1  0.917000  0.022000  0.051000  1
  C  C944  1  0.083000  0.978000  0.949000  1
  N  N945  1  0.286000  0.583000  0.183500  1
  N  N946  1  0.714000  0.417000  0.816500  1
  N  N947  1  0.166900  0.029300  0.149000  1
  N  N948  1  0.833100  0.970700  0.851000  1
  N  N949  1  0.141800  0.620500  0.239700  1
  N  N950  1  0.858200  0.379500  0.760300  1
  N  N951  1  0.141300  0.973700  0.261200  1
  N  N952  1  0.858700  0.026300  0.738800  1
  N  N953  1  0.182700  0.552600  0.335400  1
  N  N954  1  0.817300  0.447400  0.664600  1
  N  N955  1  0.290600  0.910900  0.250800  1
  N  N956  1  0.709400  0.089100  0.749200  1
  N  N957  1  0.330800  0.510800  0.279800  1
  N  N958  1  0.669200  0.489200  0.720200  1
  N  N959  1  0.318500  0.961300  0.143500  1
  N  N960  1  0.681500  0.038700  0.856500  1
  N  N961  1  0.318700  0.259800  0.289800  1
  N  N962  1  0.681300  0.740200  0.710200  1
  N  N963  1  0.373500  0.230900  0.210300  1
  N  N964  1  0.626500  0.769100  0.789700  1
  N  N965  1  0.298800  0.169400  0.220100  1
  N  N966  1  0.701200  0.830600  0.779900  1
  N  N967  1  0.213500  0.162300  0.300200  1
  N  N968  1  0.786500  0.837700  0.699800  1
  N  N969  1  0.125300  0.279000  0.187100  1
  N  N970  1  0.874700  0.721000  0.812900  1
  N  N971  1  0.210900  0.319600  0.125700  1
  N  N972  1  0.789100  0.680400  0.874300  1
  N  N973  1  0.217800  0.374900  0.183400  1
  N  N974  1  0.782200  0.625100  0.816600  1
  N  N975  1  0.139300  0.370700  0.267300  1
  N  N976  1  0.860700  0.629300  0.732700  1
  N  N977  1  0.466900  0.746000  0.132000  1
  N  N978  1  0.533100  0.254000  0.868000  1
  N  N979  1  0.010200  0.786000  0.327800  1
  N  N980  1  0.989800  0.214000  0.672200  1
  O  O981  1  0.224600  0.573100  0.885000  1
  O  O982  1  0.775400  0.426900  0.115000  1
  O  O983  1  0.314900  0.627200  0.789600  1
  O  O984  1  0.685100  0.372800  0.210400  1
  O  O985  1  0.186800  0.511300  0.838600  1
  O  O986  1  0.813200  0.488700  0.161400  1
  O  O987  1  0.317600  0.400100  0.798000  1
  O  O988  1  0.682400  0.599900  0.202000  1
  O  O989  1  0.143700  0.400100  0.896600  1
  O  O990  1  0.856300  0.599900  0.103400  1
  O  O991  1  0.164400  0.266300  0.877100  1
  O  O992  1  0.835600  0.733700  0.122900  1
  O  O993  1  0.750700  0.542400  0.353800  1
  O  O994  1  0.249300  0.457600  0.646200  1
  O  O995  1  0.645500  0.689900  0.345800  1
  O  O996  1  0.354500  0.310100  0.654200  1
  O  O997  1  0.675200  0.453100  0.402000  1
  O  O998  1  0.324800  0.546900  0.598000  1
  O  O999  1  0.714400  0.448600  0.522100  1
  O  O1000  1  0.285600  0.551400  0.477900  1
  O  O1001  1  0.739700  0.322600  0.380600  1
  O  O1002  1  0.260300  0.677400  0.619400  1
  O  O1003  1  0.664400  0.250400  0.390300  1
  O  O1004  1  0.335600  0.749600  0.609700  1
  O  O1005  1  0.265800  0.157300  0.590100  1
  O  O1006  1  0.734200  0.842700  0.409900  1
  O  O1007  1  0.230600  0.175100  0.692800  1
  O  O1008  1  0.769400  0.824900  0.307200  1
  O  O1009  1  0.336300  0.016100  0.600700  1
  O  O1010  1  0.663700  0.983900  0.399300  1
  O  O1011  1  0.216000  0.961500  0.641300  1
  O  O1012  1  0.784000  0.038500  0.358700  1
  O  O1013  1  0.357200  0.949400  0.525600  1
  O  O1014  1  0.642800  0.050600  0.474400  1
  O  O1015  1  0.489900  0.881200  0.443500  1
  O  O1016  1  0.510100  0.118800  0.556500  1
  O  O1017  1  0.719100  0.147200  0.199500  1
  O  O1018  1  0.280900  0.852800  0.800500  1
  O  O1019  1  0.864000  0.191200  0.108500  1
  O  O1020  1  0.136000  0.808800  0.891500  1
  O  O1021  1  0.799200  0.021600  0.156800  1
  O  O1022  1  0.200800  0.978400  0.843200  1
  O  O1023  1  0.875800  0.973600  0.234500  1
  O  O1024  1  0.124200  0.026400  0.765500  1
  O  O1025  1  0.722000  0.968000  0.130200  1
  O  O1026  1  0.278000  0.032000  0.869800  1
  O  O1027  1  0.759200  0.037800  0.991900  1
  O  O1028  1  0.240800  0.962200  0.008100  1
  O  O1029  1  0.198400  0.214900  0.365200  1
  O  O1030  1  0.801600  0.785100  0.634800  1
  O  O1031  1  0.228100  0.109200  0.236800  1
  O  O1032  1  0.771900  0.890800  0.763200  1
  O  O1033  1  0.067000  0.306800  0.294300  1
  O  O1034  1  0.933000  0.693200  0.705700  1
  O  O1035  1  0.215500  0.427800  0.243200  1
  O  O1036  1  0.784500  0.572200  0.756800  1
  O  O1037  1  0.100600  0.086900  0.591900  1
  O  O1038  1  0.899400  0.913100  0.408100  1
  O  O1039  1  0.891500  0.251400  0.580900  1
  O  O1040  1  0.108500  0.748600  0.419100  1
  O  O1041  1  0.115000  0.849000  0.194500  1
  O  O1042  1  0.885000  0.151000  0.805500  1
  O  O1043  1  0.259000  0.712000  0.272600  1
  O  O1044  1  0.741000  0.288000  0.727400  1
  O  O1045  1  0.420000  0.741000  0.126400  1
  O  O1046  1  0.580000  0.259000  0.873600  1
  O  O1047  1  0.517000  0.740000  0.097600  1
  O  O1048  1  0.483000  0.260000  0.902400  1
  O  O1049  1  0.454000  0.783000  0.158600  1
  O  O1050  1  0.546000  0.217000  0.841400  1
  O  O1051  1  0.989400  0.779000  0.372400  1
  O  O1052  1  0.010600  0.221000  0.627600  1
  O  O1053  1  0.983700  0.772000  0.307000  1
  O  O1054  1  0.016300  0.228000  0.693000  1
  O  O1055  1  0.070300  0.773000  0.310900  1
  O  O1056  1  0.929700  0.227000  0.689100  1
  O  O1057  1  0.713000  0.234000  0.002100  1
  O  O1058  1  0.287000  0.766000  0.997900  1
  O  O1059  1  0.928000  0.817000  0.109000  1
  O  O1060  1  0.072000  0.183000  0.891000  1
  O  O1061  1  0.193800  0.372800  0.882000  1
  O  O1062  1  0.806200  0.627200  0.118000  1
  O  O1063  1  0.189800  0.278600  0.837000  1
  O  O1064  1  0.810200  0.721400  0.163000  1
  O  O1065  1  0.672000  0.460000  0.378500  1
  O  O1066  1  0.328000  0.540000  0.621500  1
  O  O1067  1  0.573700  0.409400  0.370400  1
  O  O1068  1  0.426300  0.590600  0.629600  1
  O  O1069  1  0.750000  0.304000  0.401600  1
  O  O1070  1  0.250000  0.696000  0.598400  1
  O  O1071  1  0.624300  0.270000  0.470900  1
  O  O1072  1  0.375700  0.730000  0.529100  1
  O  O1073  1  0.730000  0.977000  0.118700  1
  O  O1074  1  0.270000  0.023000  0.881300  1
  O  O1075  1  0.881500  0.007000  0.022300  1
  O  O1076  1  0.118500  0.993000  0.977700  1
