# generated using pymatgen
data_H89Ru4C77S4N9(O9F4)3
_symmetry_space_group_name_H-M   'P 1'
_cell_length_a   13.82700000
_cell_length_b   24.76600000
_cell_length_c   27.49800000
_cell_angle_alpha   90.00000000
_cell_angle_beta   90.00000000
_cell_angle_gamma   98.79000000
_symmetry_Int_Tables_number   1
_chemical_formula_structural   H89Ru4C77S4N9(O9F4)3
_chemical_formula_sum   'H356 Ru16 C308 S16 N36 O108 F48'
_cell_volume   9305.80588298
_cell_formula_units_Z   4
loop_
 _symmetry_equiv_pos_site_id
 _symmetry_equiv_pos_as_xyz
  1  'x, y, z'
loop_
 _atom_site_type_symbol
 _atom_site_label
 _atom_site_symmetry_multiplicity
 _atom_site_fract_x
 _atom_site_fract_y
 _atom_site_fract_z
 _atom_site_occupancy
  H  H1  1  0.394100  0.823400  0.861600  1
  H  H2  1  0.105900  0.676600  0.361600  1
  H  H3  1  0.605900  0.176600  0.138400  1
  H  H4  1  0.894100  0.323400  0.638400  1
  H  H5  1  0.323800  0.829000  0.908300  1
  H  H6  1  0.176200  0.671000  0.408300  1
  H  H7  1  0.676200  0.171000  0.091700  1
  H  H8  1  0.823800  0.329000  0.591700  1
  H  H9  1  0.396200  0.918900  0.883000  1
  H  H10  1  0.103800  0.581100  0.383000  1
  H  H11  1  0.603800  0.081100  0.117000  1
  H  H12  1  0.896200  0.418900  0.617000  1
  H  H13  1  0.280700  0.910600  0.873300  1
  H  H14  1  0.219300  0.589400  0.373300  1
  H  H15  1  0.719300  0.089400  0.126700  1
  H  H16  1  0.780700  0.410600  0.626700  1
  H  H17  1  0.354600  0.905800  0.829300  1
  H  H18  1  0.145400  0.594200  0.329300  1
  H  H19  1  0.645400  0.094200  0.170700  1
  H  H20  1  0.854600  0.405800  0.670700  1
  H  H21  1  0.262000  0.756900  0.817000  1
  H  H22  1  0.238000  0.743100  0.317000  1
  H  H23  1  0.738000  0.243100  0.183000  1
  H  H24  1  0.762000  0.256900  0.683000  1
  H  H25  1  0.224700  0.800400  0.783600  1
  H  H26  1  0.275300  0.699600  0.283600  1
  H  H27  1  0.775300  0.199600  0.216400  1
  H  H28  1  0.724700  0.300400  0.716400  1
  H  H29  1  0.131100  0.704400  0.808800  1
  H  H30  1  0.368900  0.795600  0.308800  1
  H  H31  1  0.868900  0.295600  0.191200  1
  H  H32  1  0.631100  0.204400  0.691200  1
  H  H33  1  0.095700  0.747800  0.772300  1
  H  H34  1  0.404300  0.752200  0.272300  1
  H  H35  1  0.904300  0.252200  0.227700  1
  H  H36  1  0.595700  0.247800  0.727700  1
  H  H37  1  0.067400  0.748500  0.828700  1
  H  H38  1  0.432600  0.751500  0.328700  1
  H  H39  1  0.932600  0.251500  0.171300  1
  H  H40  1  0.567400  0.248500  0.671300  1
  H  H41  1  0.263000  0.161100  0.045200  1
  H  H42  1  0.237000  0.338900  0.545200  1
  H  H43  1  0.737000  0.838900  0.954800  1
  H  H44  1  0.763000  0.661100  0.454800  1
  H  H45  1  0.147200  0.152600  0.053600  1
  H  H46  1  0.352800  0.347400  0.553600  1
  H  H47  1  0.852800  0.847400  0.946400  1
  H  H48  1  0.647200  0.652600  0.446400  1
  H  H49  1  0.209400  0.106400  0.070500  1
  H  H50  1  0.290600  0.393600  0.570500  1
  H  H51  1  0.790600  0.893600  0.929500  1
  H  H52  1  0.709400  0.606400  0.429500  1
  H  H53  1  0.413200  0.065000  0.967600  1.0
  H  H54  1  0.086800  0.435000  0.467600  1.0
  H  H55  1  0.586800  0.935000  0.032400  1.0
  H  H56  1  0.913200  0.565000  0.532400  1.0
  H  H57  1  0.629700  0.045200  0.920800  1.0
  H  H58  1  0.870300  0.454800  0.420800  1.0
  H  H59  1  0.370300  0.954800  0.079200  1.0
  H  H60  1  0.129700  0.545200  0.579200  1.0
  H  H61  1  0.917500  0.408700  0.963500  1.0
  H  H62  1  0.582500  0.091300  0.463500  1.0
  H  H63  1  0.082500  0.591300  0.036500  1.0
  H  H64  1  0.417500  0.908700  0.536500  1.0
  H  H65  1  0.941300  0.375500  0.041900  1.0
  H  H66  1  0.558700  0.124500  0.541900  1.0
  H  H67  1  0.058700  0.624500  0.958100  1.0
  H  H68  1  0.441300  0.875500  0.458100  1.0
  H  H69  1  0.987200  0.227900  0.983300  1.0
  H  H70  1  0.512800  0.272100  0.483300  1.0
  H  H71  1  0.012800  0.772100  0.016700  1.0
  H  H72  1  0.487200  0.727900  0.516700  1.0
  H  H73  1  0.962300  0.262000  0.904500  1.0
  H  H74  1  0.537700  0.238000  0.404500  1.0
  H  H75  1  0.037700  0.738000  0.095500  1.0
  H  H76  1  0.462300  0.762000  0.595500  1.0
  H  H77  1  0.988500  0.378100  0.860800  1.0
  H  H78  1  0.511500  0.121900  0.360800  1.0
  H  H79  1  0.011500  0.621900  0.139200  1.0
  H  H80  1  0.488500  0.878100  0.639200  1.0
  H  H81  1  0.883800  0.388300  0.880300  1.0
  H  H82  1  0.616200  0.111700  0.380300  1.0
  H  H83  1  0.116200  0.611700  0.119700  1.0
  H  H84  1  0.383800  0.888300  0.619700  1.0
  H  H85  1  0.896200  0.330700  0.856800  1.0
  H  H86  1  0.603800  0.169300  0.356800  1.0
  H  H87  1  0.103800  0.669300  0.143200  1.0
  H  H88  1  0.396200  0.830700  0.643200  1.0
  H  H89  1  0.945600  0.294500  0.093500  1.0
  H  H90  1  0.554400  0.205500  0.593500  1.0
  H  H91  1  0.054400  0.705500  0.906500  1.0
  H  H92  1  0.445600  0.794500  0.406500  1.0
  H  H93  1  0.103000  0.287500  0.122200  1.0
  H  H94  1  0.397000  0.212500  0.622200  1.0
  H  H95  1  0.897000  0.712500  0.877800  1.0
  H  H96  1  0.603000  0.787500  0.377800  1.0
  H  H97  1  0.104100  0.340800  0.089200  1.0
  H  H98  1  0.395900  0.159200  0.589200  1.0
  H  H99  1  0.895900  0.659200  0.910800  1.0
  H  H100  1  0.604100  0.840800  0.410800  1.0
  H  H101  1  0.142200  0.287900  0.067500  1.0
  H  H102  1  0.357800  0.212100  0.567500  1.0
  H  H103  1  0.857800  0.712100  0.932500  1.0
  H  H104  1  0.642200  0.787900  0.432500  1.0
  H  H105  1  0.911000  0.203400  0.066600  1.0
  H  H106  1  0.589000  0.296600  0.566600  1.0
  H  H107  1  0.089000  0.796600  0.933400  1.0
  H  H108  1  0.411000  0.703400  0.433400  1.0
  H  H109  1  0.985500  0.208800  0.111500  1.0
  H  H110  1  0.514500  0.291200  0.611500  1.0
  H  H111  1  0.014500  0.791200  0.888500  1.0
  H  H112  1  0.485500  0.708800  0.388500  1.0
  H  H113  1  0.025200  0.202900  0.057400  1.0
  H  H114  1  0.474800  0.297100  0.557400  1.0
  H  H115  1  0.974800  0.797100  0.942600  1.0
  H  H116  1  0.525200  0.702900  0.442600  1.0
  H  H117  1  0.749400  0.203800  0.039200  1.0
  H  H118  1  0.750600  0.296200  0.539200  1.0
  H  H119  1  0.250600  0.796200  0.960800  1.0
  H  H120  1  0.249400  0.703800  0.460800  1.0
  H  H121  1  0.772000  0.218400  0.897100  1.0
  H  H122  1  0.728000  0.281600  0.397100  1.0
  H  H123  1  0.228000  0.781600  0.102900  1.0
  H  H124  1  0.272000  0.718400  0.602900  1.0
  H  H125  1  0.677000  0.113100  0.032400  1.0
  H  H126  1  0.823000  0.386900  0.532400  1.0
  H  H127  1  0.323000  0.886900  0.967600  1.0
  H  H128  1  0.177000  0.613100  0.467600  1.0
  H  H129  1  0.698900  0.129500  0.886800  1.0
  H  H130  1  0.801100  0.370500  0.386800  1.0
  H  H131  1  0.301100  0.870500  0.113200  1.0
  H  H132  1  0.198900  0.629500  0.613200  1.0
  H  H133  1  0.491500  0.234500  0.077500  1.0
  H  H134  1  0.008500  0.265500  0.577500  1.0
  H  H135  1  0.508500  0.765500  0.922500  1.0
  H  H136  1  0.991500  0.734500  0.422500  1.0
  H  H137  1  0.439200  0.242500  0.937300  1.0
  H  H138  1  0.060800  0.257500  0.437300  1.0
  H  H139  1  0.560800  0.757500  0.062700  1.0
  H  H140  1  0.939200  0.742500  0.562700  1.0
  H  H141  1  0.467900  0.140500  0.075600  1.0
  H  H142  1  0.032100  0.359500  0.575600  1.0
  H  H143  1  0.532100  0.859500  0.924400  1.0
  H  H144  1  0.967900  0.640500  0.424400  1.0
  H  H145  1  0.412900  0.148700  0.931100  1.0
  H  H146  1  0.087100  0.351300  0.431100  1.0
  H  H147  1  0.587100  0.851300  0.068900  1.0
  H  H148  1  0.912900  0.648700  0.568900  1.0
  H  H149  1  0.277600  0.287300  0.005500  1.0
  H  H150  1  0.222400  0.212700  0.505500  1.0
  H  H151  1  0.722400  0.712700  0.994500  1.0
  H  H152  1  0.777600  0.787300  0.494500  1.0
  H  H153  1  0.333600  0.303400  0.087300  1.0
  H  H154  1  0.166400  0.196600  0.587300  1.0
  H  H155  1  0.666400  0.696600  0.912700  1.0
  H  H156  1  0.833600  0.803400  0.412700  1.0
  H  H157  1  0.513800  0.444300  0.038700  1.0
  H  H158  1  0.986200  0.055700  0.538700  1.0
  H  H159  1  0.486200  0.555700  0.961300  1.0
  H  H160  1  0.013800  0.944300  0.461300  1.0
  H  H161  1  0.455200  0.426400  0.958700  1.0
  H  H162  1  0.044800  0.073600  0.458700  1.0
  H  H163  1  0.544800  0.573600  0.041300  1.0
  H  H164  1  0.955200  0.926400  0.541300  1.0
  H  H165  1  0.309900  0.304300  0.920400  1.0
  H  H166  1  0.190100  0.195700  0.420400  1.0
  H  H167  1  0.690100  0.695700  0.079600  1.0
  H  H168  1  0.809900  0.804300  0.579600  1.0
  H  H169  1  0.427900  0.409100  0.142100  1.0
  H  H170  1  0.072100  0.090900  0.642100  1.0
  H  H171  1  0.572100  0.590900  0.857900  1.0
  H  H172  1  0.927900  0.909100  0.357900  1.0
  H  H173  1  0.532600  0.405800  0.118500  1.0
  H  H174  1  0.967400  0.094200  0.618500  1.0
  H  H175  1  0.467400  0.594200  0.881500  1.0
  H  H176  1  0.032600  0.905800  0.381500  1.0
  H  H177  1  0.465700  0.351400  0.137500  1.0
  H  H178  1  0.034300  0.148600  0.637500  1.0
  H  H179  1  0.534300  0.648600  0.862500  1.0
  H  H180  1  0.965700  0.851400  0.362500  1.0
  H  H181  1  0.168700  0.340900  0.944300  1.0
  H  H182  1  0.331300  0.159100  0.444300  1.0
  H  H183  1  0.831300  0.659100  0.055700  1.0
  H  H184  1  0.668700  0.840900  0.555700  1.0
  H  H185  1  0.185300  0.347800  0.886900  1.0
  H  H186  1  0.314700  0.152200  0.386900  1.0
  H  H187  1  0.814700  0.652200  0.113100  1.0
  H  H188  1  0.685300  0.847800  0.613100  1.0
  H  H189  1  0.214200  0.399000  0.922300  1.0
  H  H190  1  0.285800  0.101000  0.422300  1.0
  H  H191  1  0.785800  0.601000  0.077700  1.0
  H  H192  1  0.714200  0.899000  0.577700  1.0
  H  H193  1  0.446900  0.362200  0.889500  1.0
  H  H194  1  0.053100  0.137800  0.389500  1.0
  H  H195  1  0.553100  0.637800  0.110500  1.0
  H  H196  1  0.946900  0.862200  0.610500  1.0
  H  H197  1  0.385000  0.411800  0.888000  1.0
  H  H198  1  0.115000  0.088200  0.388000  1.0
  H  H199  1  0.615000  0.588200  0.112000  1.0
  H  H200  1  0.885000  0.911800  0.612000  1.0
  H  H201  1  0.355500  0.359900  0.853400  1.0
  H  H202  1  0.144500  0.140100  0.353400  1.0
  H  H203  1  0.644500  0.640100  0.146600  1.0
  H  H204  1  0.855500  0.859900  0.646600  1.0
  H  H205  1  0.952900  0.083000  0.948600  1.0
  H  H206  1  0.547100  0.417000  0.448600  1.0
  H  H207  1  0.047100  0.917000  0.051400  1.0
  H  H208  1  0.452900  0.583000  0.551400  1.0
  H  H209  1  0.844000  0.976500  0.056900  1.0
  H  H210  1  0.656000  0.523500  0.556900  1.0
  H  H211  1  0.156000  0.023500  0.943100  1.0
  H  H212  1  0.344000  0.476500  0.443100  1.0
  H  H213  1  0.129400  0.905500  0.614400  1.0
  H  H214  1  0.370600  0.594500  0.114400  1.0
  H  H215  1  0.870600  0.094500  0.385600  1.0
  H  H216  1  0.629400  0.405500  0.885600  1.0
  H  H217  1  0.211000  0.994900  0.621300  1.0
  H  H218  1  0.289000  0.505100  0.121300  1.0
  H  H219  1  0.789000  0.005100  0.378700  1.0
  H  H220  1  0.711000  0.494900  0.878700  1.0
  H  H221  1  0.335500  0.957700  0.751200  1.0
  H  H222  1  0.164500  0.542300  0.251200  1.0
  H  H223  1  0.664500  0.042300  0.248800  1.0
  H  H224  1  0.835500  0.457700  0.748800  1.0
  H  H225  1  0.251900  0.865100  0.745900  1.0
  H  H226  1  0.248100  0.634900  0.245900  1.0
  H  H227  1  0.748100  0.134900  0.254100  1.0
  H  H228  1  0.751900  0.365100  0.754100  1.0
  H  H229  1  0.167500  0.792600  0.657300  1.0
  H  H230  1  0.332500  0.707400  0.157300  1.0
  H  H231  1  0.832500  0.207400  0.342700  1.0
  H  H232  1  0.667500  0.292600  0.842700  1.0
  H  H233  1  0.069300  0.819500  0.658300  1.0
  H  H234  1  0.430700  0.680500  0.158300  1.0
  H  H235  1  0.930700  0.180500  0.341700  1.0
  H  H236  1  0.569300  0.319500  0.841700  1.0
  H  H237  1  0.118300  0.804200  0.708200  1.0
  H  H238  1  0.381700  0.695800  0.208200  1.0
  H  H239  1  0.881700  0.195800  0.291800  1.0
  H  H240  1  0.618300  0.304200  0.791800  1.0
  H  H241  1  0.358800  0.047200  0.725600  1.0
  H  H242  1  0.141200  0.452800  0.225600  1.0
  H  H243  1  0.641200  0.952800  0.274400  1.0
  H  H244  1  0.858800  0.547200  0.774400  1.0
  H  H245  1  0.226900  0.082000  0.689600  1.0
  H  H246  1  0.273100  0.418000  0.189600  1.0
  H  H247  1  0.773100  0.918000  0.310400  1.0
  H  H248  1  0.726900  0.582000  0.810400  1.0
  H  H249  1  0.277800  0.081200  0.637400  1.0
  H  H250  1  0.222200  0.418800  0.137400  1.0
  H  H251  1  0.722200  0.918800  0.362600  1.0
  H  H252  1  0.777800  0.581200  0.862600  1.0
  H  H253  1  0.327600  0.121300  0.679000  1.0
  H  H254  1  0.172400  0.378700  0.179000  1.0
  H  H255  1  0.672400  0.878700  0.321000  1.0
  H  H256  1  0.827600  0.621300  0.821000  1.0
  H  H257  1  0.479400  0.015700  0.677800  1.0
  H  H258  1  0.020600  0.484300  0.177800  1.0
  H  H259  1  0.520600  0.984300  0.322200  1.0
  H  H260  1  0.979400  0.515700  0.822200  1.0
  H  H261  1  0.484000  0.080300  0.672300  1.0
  H  H262  1  0.016000  0.419700  0.172300  1.0
  H  H263  1  0.516000  0.919700  0.327700  1.0
  H  H264  1  0.984000  0.580300  0.827700  1.0
  H  H265  1  0.435900  0.040400  0.630200  1.0
  H  H266  1  0.064100  0.459600  0.130200  1.0
  H  H267  1  0.564100  0.959600  0.369800  1.0
  H  H268  1  0.935900  0.540400  0.869800  1.0
  H  H269  1  0.838700  0.940400  0.817800  1.0
  H  H270  1  0.661300  0.559600  0.317800  1.0
  H  H271  1  0.161300  0.059600  0.182200  1.0
  H  H272  1  0.338700  0.440400  0.682200  1.0
  H  H273  1  0.870700  0.097000  0.789700  1.0
  H  H274  1  0.629300  0.403000  0.289700  1.0
  H  H275  1  0.129300  0.903000  0.210300  1.0
  H  H276  1  0.370700  0.597000  0.710300  1.0
  H  H277  1  0.873200  0.956800  0.899600  1.0
  H  H278  1  0.626800  0.543200  0.399600  1.0
  H  H279  1  0.126800  0.043200  0.100400  1.0
  H  H280  1  0.373200  0.456800  0.600400  1.0
  H  H281  1  0.915700  0.117300  0.869100  1.0
  H  H282  1  0.584300  0.382700  0.369100  1.0
  H  H283  1  0.084300  0.882700  0.130900  1.0
  H  H284  1  0.415700  0.617300  0.630900  1.0
  H  H285  1  0.935900  0.101300  0.115400  1.0
  H  H286  1  0.564100  0.398700  0.615400  1.0
  H  H287  1  0.064100  0.898700  0.884600  1.0
  H  H288  1  0.435900  0.601300  0.384600  1.0
  H  H289  1  0.801400  0.944900  0.133900  1.0
  H  H290  1  0.698600  0.555100  0.633900  1.0
  H  H291  1  0.198600  0.055100  0.866100  1.0
  H  H292  1  0.301400  0.444900  0.366100  1.0
  H  H293  1  0.800600  0.961600  0.216600  1.0
  H  H294  1  0.699400  0.538400  0.716600  1.0
  H  H295  1  0.199400  0.038400  0.783400  1.0
  H  H296  1  0.300600  0.461600  0.283400  1.0
  H  H297  1  0.695500  0.093200  0.744500  1.0
  H  H298  1  0.804500  0.406800  0.244500  1.0
  H  H299  1  0.304500  0.906800  0.255500  1.0
  H  H300  1  0.195500  0.593200  0.755500  1.0
  H  H301  1  0.734500  0.993400  0.627700  1.0
  H  H302  1  0.765500  0.506600  0.127700  1.0
  H  H303  1  0.265500  0.006600  0.372300  1.0
  H  H304  1  0.234500  0.493400  0.872300  1.0
  H  H305  1  0.630600  0.014700  0.790100  1.0
  H  H306  1  0.869400  0.485300  0.290100  1.0
  H  H307  1  0.369400  0.985300  0.209900  1.0
  H  H308  1  0.130600  0.514700  0.709900  1.0
  H  H309  1  0.670400  0.916400  0.673300  1.0
  H  H310  1  0.829600  0.583600  0.173300  1.0
  H  H311  1  0.329600  0.083600  0.326700  1.0
  H  H312  1  0.170400  0.416400  0.826700  1.0
  H  H313  1  0.627200  0.873800  0.749900  1.0
  H  H314  1  0.872800  0.626200  0.249900  1.0
  H  H315  1  0.372800  0.126200  0.250100  1.0
  H  H316  1  0.127200  0.373800  0.750100  1.0
  H  H317  1  0.667100  0.917100  0.827300  1.0
  H  H318  1  0.832900  0.582900  0.327300  1.0
  H  H319  1  0.332900  0.082900  0.172700  1.0
  H  H320  1  0.167100  0.417100  0.672700  1.0
  H  H321  1  0.566800  0.875600  0.832100  1.0
  H  H322  1  0.933200  0.624400  0.332100  1.0
  H  H323  1  0.433200  0.124400  0.167900  1.0
  H  H324  1  0.066800  0.375600  0.667900  1.0
  H  H325  1  0.564800  0.939900  0.827400  1.0
  H  H326  1  0.935200  0.560100  0.327400  1.0
  H  H327  1  0.435200  0.060100  0.172600  1.0
  H  H328  1  0.064800  0.439900  0.672600  1.0
  H  H329  1  0.464800  0.886500  0.718500  1.0
  H  H330  1  0.035200  0.613500  0.218500  1.0
  H  H331  1  0.535200  0.113500  0.281500  1.0
  H  H332  1  0.964800  0.386500  0.781500  1.0
  H  H333  1  0.447400  0.921000  0.766200  1.0
  H  H334  1  0.052600  0.579000  0.266200  1.0
  H  H335  1  0.552600  0.079000  0.233800  1.0
  H  H336  1  0.947400  0.421000  0.733800  1.0
  H  H337  1  0.452600  0.857000  0.770400  1.0
  H  H338  1  0.047400  0.643000  0.270400  1.0
  H  H339  1  0.547400  0.143000  0.229600  1.0
  H  H340  1  0.952600  0.357000  0.729600  1.0
  H  H341  1  0.708400  0.116600  0.632600  1.0
  H  H342  1  0.791600  0.383400  0.132600  1.0
  H  H343  1  0.291600  0.883400  0.367400  1.0
  H  H344  1  0.208400  0.616600  0.867400  1.0
  H  H345  1  0.807400  0.090700  0.628700  1.0
  H  H346  1  0.692600  0.409300  0.128700  1.0
  H  H347  1  0.192600  0.909300  0.371300  1.0
  H  H348  1  0.307400  0.590700  0.871300  1.0
  H  H349  1  0.790500  0.129000  0.673800  1.0
  H  H350  1  0.709500  0.371000  0.173800  1.0
  H  H351  1  0.209500  0.871000  0.326200  1.0
  H  H352  1  0.290500  0.629000  0.826200  1.0
  H  H353  1  0.929100  0.113000  0.197900  1.0
  H  H354  1  0.570900  0.387000  0.697900  1.0
  H  H355  1  0.070900  0.887000  0.802100  1.0
  H  H356  1  0.429100  0.613000  0.302100  1.0
  Ru  Ru357  1  0.848060  0.298414  0.978302  1.0
  Ru  Ru358  1  0.651940  0.201586  0.478302  1.0
  Ru  Ru359  1  0.151940  0.701586  0.021698  1.0
  Ru  Ru360  1  0.348060  0.798414  0.521698  1.0
  Ru  Ru361  1  0.473140  0.333026  0.013704  1.0
  Ru  Ru362  1  0.026860  0.166974  0.513704  1.0
  Ru  Ru363  1  0.526860  0.666974  0.986296  1.0
  Ru  Ru364  1  0.973140  0.833026  0.486296  1.0
  Ru  Ru365  1  0.779910  0.998750  0.727318  1.0
  Ru  Ru366  1  0.720090  0.501250  0.227318  1.0
  Ru  Ru367  1  0.220090  0.001250  0.272682  1.0
  Ru  Ru368  1  0.279910  0.498750  0.772682  1.0
  Ru  Ru369  1  0.149800  0.946510  0.710157  1.0
  Ru  Ru370  1  0.350200  0.553490  0.210157  1.0
  Ru  Ru371  1  0.850200  0.053490  0.289843  1.0
  Ru  Ru372  1  0.649800  0.446510  0.789843  1.0
  C  C373  1  0.524300  0.280000  0.248700  1
  C  C374  1  0.975700  0.220000  0.748700  1
  C  C375  1  0.475700  0.720000  0.751300  1
  C  C376  1  0.024300  0.780000  0.251300  1
  C  C377  1  0.460300  0.123700  0.812600  1
  C  C378  1  0.039700  0.376300  0.312600  1
  C  C379  1  0.539700  0.876300  0.187400  1
  C  C380  1  0.960300  0.623700  0.687400  1
  C  C381  1  0.174600  0.478600  0.008100  1
  C  C382  1  0.325400  0.021400  0.508100  1
  C  C383  1  0.825400  0.521400  0.991900  1
  C  C384  1  0.674600  0.978600  0.491900  1
  C  C385  1  0.179600  0.189400  0.874500  1
  C  C386  1  0.320400  0.310600  0.374500  1
  C  C387  1  0.820400  0.810600  0.125500  1
  C  C388  1  0.679600  0.689400  0.625500  1
  C  C389  1  0.336700  0.838900  0.873700  1
  C  C390  1  0.163300  0.661100  0.373700  1
  C  C391  1  0.663300  0.161100  0.126300  1
  C  C392  1  0.836700  0.338900  0.626300  1
  C  C393  1  0.342600  0.898700  0.864000  1
  C  C394  1  0.157400  0.601300  0.364000  1
  C  C395  1  0.657400  0.101300  0.136000  1
  C  C396  1  0.842600  0.398700  0.636000  1
  C  C397  1  0.214000  0.782700  0.815900  1
  C  C398  1  0.286000  0.717300  0.315900  1
  C  C399  1  0.786000  0.217300  0.184100  1
  C  C400  1  0.714000  0.282700  0.684100  1
  C  C401  1  0.118100  0.742100  0.805500  1
  C  C402  1  0.381900  0.757900  0.305500  1
  C  C403  1  0.881900  0.257900  0.194500  1
  C  C404  1  0.618100  0.242100  0.694500  1
  C  C405  1  0.209900  0.145900  0.067100  1
  C  C406  1  0.290100  0.354100  0.567100  1
  C  C407  1  0.790100  0.854100  0.932900  1
  C  C408  1  0.709900  0.645900  0.432900  1
  C  C409  1  0.950800  0.340700  0.924800  1.0
  C  C410  1  0.549200  0.159300  0.424800  1.0
  C  C411  1  0.049200  0.659300  0.075200  1.0
  C  C412  1  0.450800  0.840700  0.575200  1.0
  C  C413  1  0.945900  0.374100  0.966800  1.0
  C  C414  1  0.554100  0.125900  0.466800  1.0
  C  C415  1  0.054100  0.625900  0.033200  1.0
  C  C416  1  0.445900  0.874100  0.533200  1.0
  C  C417  1  0.959900  0.354300  0.013300  1.0
  C  C418  1  0.540100  0.145700  0.513300  1.0
  C  C419  1  0.040100  0.645700  0.986700  1.0
  C  C420  1  0.459900  0.854300  0.486700  1.0
  C  C421  1  0.981000  0.299900  0.021400  1.0
  C  C422  1  0.519000  0.200100  0.521400  1.0
  C  C423  1  0.019000  0.700100  0.978600  1.0
  C  C424  1  0.481000  0.799900  0.478600  1.0
  C  C425  1  0.987500  0.268000  0.979400  1.0
  C  C426  1  0.512500  0.232000  0.479400  1.0
  C  C427  1  0.012500  0.732000  0.020600  1.0
  C  C428  1  0.487500  0.768000  0.520600  1.0
  C  C429  1  0.973100  0.288600  0.932100  1.0
  C  C430  1  0.526900  0.211400  0.432100  1.0
  C  C431  1  0.026900  0.711400  0.067900  1.0
  C  C432  1  0.473100  0.788600  0.567900  1.0
  C  C433  1  0.927900  0.361200  0.876700  1.0
  C  C434  1  0.572100  0.138800  0.376700  1.0
  C  C435  1  0.072100  0.638800  0.123300  1.0
  C  C436  1  0.427900  0.861200  0.623300  1.0
  C  C437  1  0.993200  0.279500  0.071900  1.0
  C  C438  1  0.506800  0.220500  0.571900  1.0
  C  C439  1  0.006800  0.720500  0.928100  1.0
  C  C440  1  0.493200  0.779500  0.428100  1.0
  C  C441  1  0.094300  0.300700  0.089200  1.0
  C  C442  1  0.405700  0.199300  0.589200  1.0
  C  C443  1  0.905700  0.699300  0.910800  1.0
  C  C444  1  0.594300  0.800700  0.410800  1.0
  C  C445  1  0.977300  0.218300  0.077300  1.0
  C  C446  1  0.522700  0.281700  0.577300  1.0
  C  C447  1  0.022700  0.781700  0.922700  1.0
  C  C448  1  0.477300  0.718300  0.422700  1.0
  C  C449  1  0.673200  0.318300  0.024000  1.0
  C  C450  1  0.826800  0.181700  0.524000  1.0
  C  C451  1  0.326800  0.681700  0.976000  1.0
  C  C452  1  0.173200  0.818300  0.476000  1.0
  C  C453  1  0.656800  0.326100  0.969500  1.0
  C  C454  1  0.843200  0.173900  0.469500  1.0
  C  C455  1  0.343200  0.673900  0.030500  1.0
  C  C456  1  0.156800  0.826100  0.530500  1.0
  C  C457  1  0.740300  0.188000  0.007700  1.0
  C  C458  1  0.759700  0.312000  0.507700  1.0
  C  C459  1  0.259700  0.812000  0.992300  1.0
  C  C460  1  0.240300  0.688000  0.492300  1.0
  C  C461  1  0.753200  0.196600  0.925000  1.0
  C  C462  1  0.746800  0.303400  0.425000  1.0
  C  C463  1  0.246800  0.803400  0.075000  1.0
  C  C464  1  0.253200  0.696600  0.575000  1.0
  C  C465  1  0.697000  0.133900  0.004200  1.0
  C  C466  1  0.803000  0.366100  0.504200  1.0
  C  C467  1  0.303000  0.866100  0.995800  1.0
  C  C468  1  0.197000  0.633900  0.495800  1.0
  C  C469  1  0.710400  0.143800  0.918700  1.0
  C  C470  1  0.789600  0.356200  0.418700  1.0
  C  C471  1  0.289600  0.856200  0.081300  1.0
  C  C472  1  0.210400  0.643800  0.581300  1.0
  C  C473  1  0.683600  0.111100  0.958300  1.0
  C  C474  1  0.816400  0.388900  0.458300  1.0
  C  C475  1  0.316400  0.888900  0.041700  1.0
  C  C476  1  0.183600  0.611100  0.541700  1.0
  C  C477  1  0.474600  0.216500  0.047400  1.0
  C  C478  1  0.025400  0.283500  0.547400  1.0
  C  C479  1  0.525400  0.783500  0.952600  1.0
  C  C480  1  0.974600  0.716500  0.452600  1.0
  C  C481  1  0.444000  0.221300  0.965800  1.0
  C  C482  1  0.056000  0.278700  0.465800  1.0
  C  C483  1  0.556000  0.778700  0.034200  1.0
  C  C484  1  0.944000  0.721300  0.534200  1.0
  C  C485  1  0.460900  0.160700  0.046800  1.0
  C  C486  1  0.039100  0.339300  0.546800  1.0
  C  C487  1  0.539100  0.839300  0.953200  1.0
  C  C488  1  0.960900  0.660700  0.453200  1.0
  C  C489  1  0.428600  0.165600  0.961700  1.0
  C  C490  1  0.071400  0.334400  0.461700  1.0
  C  C491  1  0.571400  0.834400  0.038300  1.0
  C  C492  1  0.928600  0.665600  0.538300  1.0
  C  C493  1  0.436200  0.134200  0.002700  1.0
  C  C494  1  0.063800  0.365800  0.502700  1.0
  C  C495  1  0.563800  0.865800  0.997300  1.0
  C  C496  1  0.936200  0.634200  0.497300  1.0
  C  C497  1  0.402200  0.040500  0.034400  1.0
  C  C498  1  0.097800  0.459500  0.534400  1.0
  C  C499  1  0.597800  0.959500  0.965600  1.0
  C  C500  1  0.902200  0.540500  0.465600  1.0
  C  C501  1  0.627900  0.017500  0.986100  1.0
  C  C502  1  0.872100  0.482500  0.486100  1.0
  C  C503  1  0.372100  0.982500  0.013900  1.0
  C  C504  1  0.127900  0.517500  0.513900  1.0
  C  C505  1  0.315100  0.323900  0.013700  1.0
  C  C506  1  0.184900  0.176100  0.513700  1.0
  C  C507  1  0.684900  0.676100  0.986300  1.0
  C  C508  1  0.815100  0.823900  0.486300  1.0
  C  C509  1  0.348700  0.333200  0.062700  1.0
  C  C510  1  0.151300  0.166800  0.562700  1.0
  C  C511  1  0.651300  0.666800  0.937300  1.0
  C  C512  1  0.848700  0.833200  0.437300  1.0
  C  C513  1  0.419500  0.378900  0.073500  1.0
  C  C514  1  0.080500  0.121100  0.573500  1.0
  C  C515  1  0.580500  0.621100  0.926500  1.0
  C  C516  1  0.919500  0.878900  0.426500  1.0
  C  C517  1  0.454400  0.416300  0.033600  1.0
  C  C518  1  0.045600  0.083700  0.533600  1.0
  C  C519  1  0.545600  0.583700  0.966400  1.0
  C  C520  1  0.954400  0.916300  0.466400  1.0
  C  C521  1  0.419300  0.405800  0.986100  1.0
  C  C522  1  0.080700  0.094200  0.486100  1.0
  C  C523  1  0.580700  0.594200  0.013900  1.0
  C  C524  1  0.919300  0.905800  0.513900  1.0
  C  C525  1  0.350200  0.358900  0.975100  1.0
  C  C526  1  0.149800  0.141100  0.475100  1.0
  C  C527  1  0.649800  0.641100  0.024900  1.0
  C  C528  1  0.850200  0.858900  0.524900  1.0
  C  C529  1  0.314500  0.344700  0.924600  1.0
  C  C530  1  0.185500  0.155300  0.424600  1.0
  C  C531  1  0.685500  0.655300  0.075400  1.0
  C  C532  1  0.814500  0.844700  0.575400  1.0
  C  C533  1  0.465300  0.387000  0.122000  1.0
  C  C534  1  0.034700  0.113000  0.622000  1.0
  C  C535  1  0.534700  0.613000  0.878000  1.0
  C  C536  1  0.965300  0.887000  0.378000  1.0
  C  C537  1  0.211400  0.359400  0.919000  1.0
  C  C538  1  0.288600  0.140600  0.419000  1.0
  C  C539  1  0.788600  0.640600  0.081000  1.0
  C  C540  1  0.711400  0.859400  0.581000  1.0
  C  C541  1  0.381400  0.372100  0.885400  1.0
  C  C542  1  0.118600  0.127900  0.385400  1.0
  C  C543  1  0.618600  0.627900  0.114600  1.0
  C  C544  1  0.881400  0.872100  0.614600  1.0
  C  C545  1  0.943000  0.941700  0.718600  1.0
  C  C546  1  0.557000  0.558300  0.218600  1.0
  C  C547  1  0.057000  0.058300  0.281400  1.0
  C  C548  1  0.443000  0.441700  0.781400  1.0
  C  C549  1  0.982200  0.001000  0.707300  1.0
  C  C550  1  0.517800  0.499000  0.207300  1.0
  C  C551  1  0.017800  0.999000  0.292700  1.0
  C  C552  1  0.482200  0.501000  0.792700  1.0
  C  C553  1  0.183200  0.913400  0.638800  1.0
  C  C554  1  0.316800  0.586600  0.138800  1.0
  C  C555  1  0.816800  0.086600  0.361200  1.0
  C  C556  1  0.683200  0.413400  0.861200  1.0
  C  C557  1  0.231400  0.966300  0.643100  1.0
  C  C558  1  0.268600  0.533700  0.143100  1.0
  C  C559  1  0.768600  0.033700  0.356900  1.0
  C  C560  1  0.731400  0.466300  0.856900  1.0
  C  C561  1  0.292600  0.983700  0.684200  1.0
  C  C562  1  0.207400  0.516300  0.184200  1.0
  C  C563  1  0.707400  0.016300  0.315800  1.0
  C  C564  1  0.792600  0.483700  0.815800  1.0
  C  C565  1  0.304600  0.944700  0.719600  1.0
  C  C566  1  0.195400  0.555300  0.219600  1.0
  C  C567  1  0.695400  0.055300  0.280400  1.0
  C  C568  1  0.804600  0.444700  0.780400  1.0
  C  C569  1  0.254200  0.889300  0.716700  1.0
  C  C570  1  0.245800  0.610700  0.216700  1.0
  C  C571  1  0.745800  0.110700  0.283300  1.0
  C  C572  1  0.754200  0.389300  0.783300  1.0
  C  C573  1  0.191200  0.873300  0.676500  1.0
  C  C574  1  0.308800  0.626700  0.176500  1.0
  C  C575  1  0.808800  0.126700  0.323500  1.0
  C  C576  1  0.691200  0.373300  0.823500  1.0
  C  C577  1  0.131400  0.817600  0.675000  1.0
  C  C578  1  0.368600  0.682400  0.175000  1.0
  C  C579  1  0.868600  0.182400  0.325000  1.0
  C  C580  1  0.631400  0.317600  0.825000  1.0
  C  C581  1  0.346400  0.041000  0.690000  1.0
  C  C582  1  0.153600  0.459000  0.190000  1.0
  C  C583  1  0.653600  0.959000  0.310000  1.0
  C  C584  1  0.846400  0.541000  0.810000  1.0
  C  C585  1  0.289600  0.085300  0.672400  1.0
  C  C586  1  0.210400  0.414700  0.172400  1.0
  C  C587  1  0.710400  0.914700  0.327600  1.0
  C  C588  1  0.789600  0.585300  0.827600  1.0
  C  C589  1  0.445100  0.044700  0.665400  1.0
  C  C590  1  0.054900  0.455300  0.165400  1.0
  C  C591  1  0.554900  0.955300  0.334600  1.0
  C  C592  1  0.945100  0.544700  0.834600  1.0
  C  C593  1  0.849000  0.977100  0.828900  1.0
  C  C594  1  0.651000  0.522900  0.328900  1.0
  C  C595  1  0.151000  0.022900  0.171100  1.0
  C  C596  1  0.349000  0.477100  0.671100  1.0
  C  C597  1  0.869000  0.068000  0.812500  1.0
  C  C598  1  0.631000  0.432000  0.312500  1.0
  C  C599  1  0.131000  0.932000  0.187500  1.0
  C  C600  1  0.369000  0.568000  0.687500  1.0
  C  C601  1  0.872300  0.986300  0.877700  1.0
  C  C602  1  0.627700  0.513700  0.377700  1.0
  C  C603  1  0.127700  0.013700  0.122300  1.0
  C  C604  1  0.372300  0.486300  0.622300  1.0
  C  C605  1  0.895900  0.080400  0.859700  1.0
  C  C606  1  0.604100  0.419600  0.359700  1.0
  C  C607  1  0.104100  0.919600  0.140300  1.0
  C  C608  1  0.395900  0.580400  0.640300  1.0
  C  C609  1  0.894100  0.039600  0.892900  1.0
  C  C610  1  0.605900  0.460400  0.392900  1.0
  C  C611  1  0.105900  0.960400  0.107100  1.0
  C  C612  1  0.394100  0.539600  0.607100  1.0
  C  C613  1  0.879500  0.019600  0.979400  1.0
  C  C614  1  0.620500  0.480400  0.479400  1.0
  C  C615  1  0.120500  0.980400  0.020600  1.0
  C  C616  1  0.379500  0.519600  0.520600  1.0
  C  C617  1  0.906000  0.044700  0.029200  1.0
  C  C618  1  0.594000  0.455300  0.529200  1.0
  C  C619  1  0.094000  0.955300  0.970800  1.0
  C  C620  1  0.406000  0.544700  0.470800  1.0
  C  C621  1  0.871300  0.020700  0.115000  1.0
  C  C622  1  0.628700  0.479300  0.615000  1.0
  C  C623  1  0.128700  0.979300  0.885000  1.0
  C  C624  1  0.371300  0.520700  0.385000  1.0
  C  C625  1  0.908100  0.071800  0.135500  1.0
  C  C626  1  0.591900  0.428200  0.635500  1.0
  C  C627  1  0.091900  0.928200  0.864500  1.0
  C  C628  1  0.408100  0.571800  0.364500  1.0
  C  C629  1  0.829100  0.979600  0.146200  1.0
  C  C630  1  0.670900  0.520400  0.646200  1.0
  C  C631  1  0.170900  0.020400  0.853800  1.0
  C  C632  1  0.329100  0.479600  0.353800  1.0
  C  C633  1  0.828300  0.990300  0.195500  1.0
  C  C634  1  0.671700  0.509700  0.695500  1.0
  C  C635  1  0.171700  0.009700  0.804500  1.0
  C  C636  1  0.328300  0.490300  0.304500  1.0
  C  C637  1  0.710800  0.051400  0.679500  1.0
  C  C638  1  0.789200  0.448600  0.179500  1.0
  C  C639  1  0.289200  0.948600  0.320500  1.0
  C  C640  1  0.210800  0.551400  0.820500  1.0
  C  C641  1  0.677700  0.057400  0.727400  1.0
  C  C642  1  0.822300  0.442600  0.227400  1.0
  C  C643  1  0.322300  0.942600  0.272600  1.0
  C  C644  1  0.177700  0.557400  0.772600  1.0
  C  C645  1  0.699700  0.998800  0.658800  1.0
  C  C646  1  0.800300  0.501200  0.158800  1.0
  C  C647  1  0.300300  0.001200  0.341200  1.0
  C  C648  1  0.199700  0.498800  0.841200  1.0
  C  C649  1  0.638100  0.010600  0.754200  1.0
  C  C650  1  0.861900  0.489400  0.254200  1.0
  C  C651  1  0.361900  0.989400  0.245800  1.0
  C  C652  1  0.138100  0.510600  0.745800  1.0
  C  C653  1  0.661800  0.953200  0.685900  1.0
  C  C654  1  0.838200  0.546800  0.185900  1.0
  C  C655  1  0.338200  0.046800  0.314100  1.0
  C  C656  1  0.161800  0.453200  0.814100  1.0
  C  C657  1  0.630100  0.957400  0.735600  1.0
  C  C658  1  0.869900  0.542600  0.235600  1.0
  C  C659  1  0.369900  0.042600  0.264400  1.0
  C  C660  1  0.130100  0.457400  0.764400  1.0
  C  C661  1  0.593200  0.904200  0.761600  1.0
  C  C662  1  0.906800  0.595800  0.261600  1.0
  C  C663  1  0.406800  0.095800  0.238400  1.0
  C  C664  1  0.093200  0.404200  0.738400  1.0
  C  C665  1  0.598400  0.909700  0.817100  1.0
  C  C666  1  0.901600  0.590300  0.317100  1.0
  C  C667  1  0.401600  0.090300  0.182900  1.0
  C  C668  1  0.098400  0.409700  0.682900  1.0
  C  C669  1  0.478600  0.890900  0.753400  1.0
  C  C670  1  0.021400  0.609100  0.253400  1.0
  C  C671  1  0.521400  0.109100  0.246600  1.0
  C  C672  1  0.978600  0.390900  0.746600  1.0
  C  C673  1  0.758500  0.101400  0.651100  1.0
  C  C674  1  0.741500  0.398600  0.151100  1.0
  C  C675  1  0.241500  0.898600  0.348900  1.0
  C  C676  1  0.258500  0.601400  0.848900  1.0
  C  C677  1  0.903400  0.078400  0.184500  1.0
  C  C678  1  0.596600  0.421600  0.684500  1.0
  C  C679  1  0.096600  0.921600  0.815500  1.0
  C  C680  1  0.403400  0.578400  0.315500  1.0
  S  S681  1  0.631900  0.276630  0.283340  1
  S  S682  1  0.868100  0.223370  0.783340  1
  S  S683  1  0.368100  0.723370  0.716660  1
  S  S684  1  0.131900  0.776630  0.216660  1
  S  S685  1  0.464610  0.059510  0.844640  1
  S  S686  1  0.035390  0.440490  0.344640  1
  S  S687  1  0.535390  0.940490  0.155360  1
  S  S688  1  0.964610  0.559510  0.655360  1
  S  S689  1  0.283430  0.524960  0.993600  1
  S  S690  1  0.216570  0.975040  0.493600  1
  S  S691  1  0.716570  0.475040  0.006400  1
  S  S692  1  0.783430  0.024960  0.506400  1
  S  S693  1  0.146360  0.164070  0.935760  1
  S  S694  1  0.353640  0.335930  0.435760  1
  S  S695  1  0.853640  0.835930  0.064240  1
  S  S696  1  0.646360  0.664070  0.564240  1
  N  N697  1  0.224400  0.171200  0.113300  1
  N  N698  1  0.275600  0.328800  0.613300  1
  N  N699  1  0.775600  0.828800  0.886700  1
  N  N700  1  0.724400  0.671200  0.386700  1
  N  N701  1  0.769800  0.218980  0.969500  1.0
  N  N702  1  0.730200  0.281020  0.469500  1.0
  N  N703  1  0.230200  0.781020  0.030500  1.0
  N  N704  1  0.269800  0.718980  0.530500  1.0
  N  N705  1  0.465500  0.247600  0.007960  1.0
  N  N706  1  0.034500  0.252400  0.507960  1.0
  N  N707  1  0.534500  0.752400  0.992040  1.0
  N  N708  1  0.965500  0.747600  0.492040  1.0
  N  N709  1  0.416600  0.077900  0.997450  1.0
  N  N710  1  0.083400  0.422100  0.497450  1.0
  N  N711  1  0.583400  0.922100  0.002550  1.0
  N  N712  1  0.916600  0.577900  0.502550  1.0
  N  N713  1  0.644500  0.055680  0.950860  1.0
  N  N714  1  0.855500  0.444320  0.450860  1.0
  N  N715  1  0.355500  0.944320  0.049140  1.0
  N  N716  1  0.144500  0.555680  0.549140  1.0
  N  N717  1  0.840000  0.015900  0.796900  1.0
  N  N718  1  0.660000  0.484100  0.296900  1.0
  N  N719  1  0.160000  0.984100  0.203100  1.0
  N  N720  1  0.340000  0.515900  0.703100  1.0
  N  N721  1  0.914700  0.052100  0.941840  1.0
  N  N722  1  0.585300  0.447900  0.441840  1.0
  N  N723  1  0.085300  0.947900  0.058160  1.0
  N  N724  1  0.414700  0.552100  0.558160  1.0
  N  N725  1  0.870400  0.009600  0.065730  1.0
  N  N726  1  0.629600  0.490400  0.565730  1.0
  N  N727  1  0.129600  0.990400  0.934270  1.0
  N  N728  1  0.370400  0.509600  0.434270  1.0
  N  N729  1  0.136000  0.961800  0.784780  1.0
  N  N730  1  0.364000  0.538200  0.284780  1.0
  N  N731  1  0.864000  0.038200  0.215220  1.0
  N  N732  1  0.636000  0.461800  0.715220  1.0
  O  O733  1  0.655900  0.223900  0.274500  1
  O  O734  1  0.844100  0.276100  0.774500  1
  O  O735  1  0.344100  0.776100  0.725500  1
  O  O736  1  0.155900  0.723900  0.225500  1
  O  O737  1  0.600300  0.287900  0.332100  1
  O  O738  1  0.899700  0.212100  0.832100  1
  O  O739  1  0.399700  0.712100  0.667900  1
  O  O740  1  0.100300  0.787900  0.167900  1
  O  O741  1  0.694800  0.320600  0.262100  1
  O  O742  1  0.805200  0.179400  0.762100  1
  O  O743  1  0.305200  0.679400  0.737900  1
  O  O744  1  0.194800  0.820600  0.237900  1
  O  O745  1  0.408200  0.064980  0.887760  1
  O  O746  1  0.091800  0.435020  0.387760  1
  O  O747  1  0.591800  0.935020  0.112240  1
  O  O748  1  0.908200  0.564980  0.612240  1
  O  O749  1  0.422200  0.019700  0.809760  1
  O  O750  1  0.077800  0.480300  0.309760  1
  O  O751  1  0.577800  0.980300  0.190240  1
  O  O752  1  0.922200  0.519700  0.690240  1
  O  O753  1  0.567900  0.059720  0.852740  1
  O  O754  1  0.932100  0.440280  0.352740  1
  O  O755  1  0.432100  0.940280  0.147260  1
  O  O756  1  0.067900  0.559720  0.647260  1
  O  O757  1  0.317700  0.501460  0.950370  1
  O  O758  1  0.182300  0.998540  0.450370  1
  O  O759  1  0.682300  0.498540  0.049630  1
  O  O760  1  0.817700  0.001460  0.549630  1
  O  O761  1  0.345000  0.522600  0.035370  1
  O  O762  1  0.155000  0.977400  0.535370  1
  O  O763  1  0.655000  0.477400  0.964630  1
  O  O764  1  0.845000  0.022600  0.464630  1
  O  O765  1  0.246500  0.575750  0.986600  1
  O  O766  1  0.253500  0.924250  0.486600  1
  O  O767  1  0.753500  0.424250  0.013400  1
  O  O768  1  0.746500  0.075750  0.513400  1
  O  O769  1  0.188000  0.209020  0.966280  1
  O  O770  1  0.312000  0.290980  0.466280  1
  O  O771  1  0.812000  0.790980  0.033720  1
  O  O772  1  0.688000  0.709020  0.533720  1
  O  O773  1  0.191000  0.115190  0.939390  1
  O  O774  1  0.309000  0.384810  0.439390  1
  O  O775  1  0.809000  0.884810  0.060610  1
  O  O776  1  0.691000  0.615190  0.560610  1
  O  O777  1  0.041400  0.155290  0.934430  1
  O  O778  1  0.458600  0.344710  0.434430  1
  O  O779  1  0.958600  0.844710  0.065570  1
  O  O780  1  0.541400  0.655290  0.565570  1
  O  O781  1  0.267000  0.828600  0.848500  1
  O  O782  1  0.233000  0.671400  0.348500  1
  O  O783  1  0.733000  0.171400  0.151500  1
  O  O784  1  0.767000  0.328600  0.651500  1
  O  O785  1  0.270300  0.213900  0.120600  1
  O  O786  1  0.229700  0.286100  0.620600  1
  O  O787  1  0.729700  0.786100  0.879400  1
  O  O788  1  0.770300  0.713900  0.379400  1
  O  O789  1  0.152900  0.151800  0.145900  1
  O  O790  1  0.347100  0.348200  0.645900  1
  O  O791  1  0.847100  0.848200  0.854100  1
  O  O792  1  0.652900  0.651800  0.354100  1
  O  O793  1  0.603500  0.325510  0.052020  1.0
  O  O794  1  0.896500  0.174490  0.552020  1.0
  O  O795  1  0.396500  0.674490  0.947980  1.0
  O  O796  1  0.103500  0.825510  0.447980  1.0
  O  O797  1  0.573600  0.334950  0.955790  1.0
  O  O798  1  0.926400  0.165050  0.455790  1.0
  O  O799  1  0.426400  0.665050  0.044210  1.0
  O  O800  1  0.073600  0.834950  0.544210  1.0
  O  O801  1  0.751400  0.304150  0.036340  1.0
  O  O802  1  0.748600  0.195850  0.536340  1.0
  O  O803  1  0.248600  0.695850  0.963660  1.0
  O  O804  1  0.251400  0.804150  0.463660  1.0
  O  O805  1  0.726800  0.321190  0.941660  1.0
  O  O806  1  0.773200  0.178810  0.441660  1.0
  O  O807  1  0.273200  0.678810  0.058340  1.0
  O  O808  1  0.226800  0.821190  0.558340  1.0
  O  O809  1  0.408500  0.049270  0.077970  1.0
  O  O810  1  0.091500  0.450730  0.577970  1.0
  O  O811  1  0.591500  0.950730  0.922030  1.0
  O  O812  1  0.908500  0.549270  0.422030  1.0
  O  O813  1  0.635400  0.024590  0.029230  1.0
  O  O814  1  0.864600  0.475410  0.529230  1.0
  O  O815  1  0.364600  0.975410  0.970770  1.0
  O  O816  1  0.135400  0.524590  0.470770  1.0
  O  O817  1  0.854500  0.930150  0.728240  1.0
  O  O818  1  0.645500  0.569850  0.228240  1.0
  O  O819  1  0.145500  0.069850  0.271760  1.0
  O  O820  1  0.354500  0.430150  0.771760  1.0
  O  O821  1  0.921400  0.034010  0.704550  1.0
  O  O822  1  0.578600  0.465990  0.204550  1.0
  O  O823  1  0.078600  0.965990  0.295450  1.0
  O  O824  1  0.421400  0.534010  0.795450  1.0
  O  O825  1  0.003600  0.908320  0.717620  1.0
  O  O826  1  0.496400  0.591680  0.217620  1.0
  O  O827  1  0.996400  0.091680  0.282380  1.0
  O  O828  1  0.503600  0.408320  0.782380  1.0
  O  O829  1  0.074100  0.013630  0.701230  1.0
  O  O830  1  0.425900  0.486370  0.201230  1.0
  O  O831  1  0.925900  0.986370  0.298770  1.0
  O  O832  1  0.574100  0.513630  0.798770  1.0
  O  O833  1  0.827900  0.975400  0.975870  1.0
  O  O834  1  0.672100  0.524600  0.475870  1.0
  O  O835  1  0.172100  0.024600  0.024130  1.0
  O  O836  1  0.327900  0.475400  0.524130  1.0
  O  O837  1  0.952600  0.089300  0.033710  1.0
  O  O838  1  0.547400  0.410700  0.533710  1.0
  O  O839  1  0.047400  0.910700  0.966290  1.0
  O  O840  1  0.452600  0.589300  0.466290  1.0
  F  F841  1  0.493900  0.327000  0.252500  1
  F  F842  1  0.006100  0.173000  0.752500  1
  F  F843  1  0.506100  0.673000  0.747500  1
  F  F844  1  0.993900  0.827000  0.247500  1
  F  F845  1  0.527200  0.265900  0.204100  1
  F  F846  1  0.972800  0.234100  0.704100  1
  F  F847  1  0.472800  0.734100  0.795900  1
  F  F848  1  0.027200  0.765900  0.295900  1
  F  F849  1  0.451100  0.239600  0.270800  1
  F  F850  1  0.048900  0.260400  0.770800  1
  F  F851  1  0.548900  0.760400  0.729200  1
  F  F852  1  0.951100  0.739600  0.229200  1
  F  F853  1  0.369500  0.128700  0.800760  1
  F  F854  1  0.130500  0.371300  0.300760  1
  F  F855  1  0.630500  0.871300  0.199240  1
  F  F856  1  0.869500  0.628700  0.699240  1
  F  F857  1  0.497100  0.166560  0.840280  1
  F  F858  1  0.002900  0.333440  0.340280  1
  F  F859  1  0.502900  0.833440  0.159720  1
  F  F860  1  0.997100  0.666560  0.659720  1
  F  F861  1  0.513100  0.126100  0.772020  1
  F  F862  1  0.986900  0.373900  0.272020  1
  F  F863  1  0.486900  0.873900  0.227980  1
  F  F864  1  0.013100  0.626100  0.727980  1
  F  F865  1  0.110400  0.473420  0.971250  1
  F  F866  1  0.389600  0.026580  0.471250  1
  F  F867  1  0.889600  0.526580  0.028750  1
  F  F868  1  0.610400  0.973420  0.528750  1
  F  F869  1  0.191400  0.428630  0.020060  1
  F  F870  1  0.308600  0.071370  0.520060  1
  F  F871  1  0.808600  0.571370  0.979940  1
  F  F872  1  0.691400  0.928630  0.479940  1
  F  F873  1  0.126500  0.496450  0.047380  1
  F  F874  1  0.373500  0.003550  0.547380  1
  F  F875  1  0.873500  0.503550  0.952620  1
  F  F876  1  0.626500  0.996450  0.452620  1
  F  F877  1  0.278100  0.201140  0.870670  1
  F  F878  1  0.221900  0.298860  0.370670  1
  F  F879  1  0.721900  0.798860  0.129330  1
  F  F880  1  0.778100  0.701140  0.629330  1
  F  F881  1  0.143800  0.234940  0.865470  1
  F  F882  1  0.356200  0.265060  0.365470  1
  F  F883  1  0.856200  0.765060  0.134530  1
  F  F884  1  0.643800  0.734940  0.634530  1
  F  F885  1  0.148900  0.152860  0.840880  1
  F  F886  1  0.351100  0.347140  0.340880  1
  F  F887  1  0.851100  0.847140  0.159120  1
  F  F888  1  0.648900  0.652860  0.659120  1
