
#######################################################################
#
#                 Cambridge Crystallographic Data Centre
#                                CCDC 
#
#######################################################################
#
# If this CIF has been generated from an entry in the Cambridge 
# Structural Database, then it will include bibliographic, chemical, 
# crystal, experimental, refinement or atomic coordinate data resulting 
# from the CCDC's data processing and validation procedures.
#
#######################################################################

data_IDAHUS
_chemical_formula_moiety         
'C68 H76 N8 O12 Ru4 4+,4(C1 F3 O3 S1 1-),C1 H3 N1 O2,0.78(C4 H10 O1)'
_chemical_name_systematic        
"bis(\m~2~-N,N'-Di(pyridin-4-yl)ethanediamide)-bis(\m~2~-oxalato)-tetrakis(\h^6^-1-isopropyl-4-methylbenzene)-tetra-ruthenium(ii) tetrakis(trifluoromethanesulfonate) diethyl ether nitromethane solvate"
_symmetry_cell_setting           monoclinic
_symmetry_space_group_name_H-M   'P 21/n'
_symmetry_Int_Tables_number      14
_space_group_name_Hall           '-P 2yn'
loop_
_symmetry_equiv_pos_site_id
_symmetry_equiv_pos_as_xyz
1 x,y,z
2 1/2-x,1/2+y,1/2-z
3 -x,-y,-z
4 1/2+x,1/2-y,1/2+z
_cell_length_a                   13.827(3)
_cell_length_b                   27.498(6)
_cell_length_c                   24.766(5)
_cell_angle_alpha                90
_cell_angle_beta                 98.79(3)
_cell_angle_gamma                90
_cell_volume                     9305.81
_cell_formula_units_Z            4
loop_
_atom_site_label
_atom_site_type_symbol
_atom_site_fract_x
_atom_site_fract_y
_atom_site_fract_z
Ru1 Ru 0.15194(4) 0.021698(19) 0.701586(19)
Ru2 Ru 0.52686(4) -0.013704(19) 0.666974(18)
O7 O 0.3965(3) -0.05202(15) 0.67449(15)
O8 O 0.4264(3) 0.04421(15) 0.66505(16)
O9 O 0.2486(3) -0.03634(16) 0.69585(15)
O10 O 0.2732(3) 0.05834(15) 0.67881(16)
O11 O 0.5915(4) -0.07797(16) 0.95073(17)
O12 O 0.3646(5) -0.02923(19) 0.97541(18)
N4 N 0.2302(4) 0.03050(19) 0.78102(19)
N5 N 0.5345(4) -0.00796(18) 0.7524(2)
N6 N 0.5834(4) 0.00255(19) 0.92210(19)
H3 H 0.5868 0.0324 0.9350
N7 N 0.3555(4) 0.04914(19) 0.94432(19)
H4 H 0.3703 0.0792 0.9548
C24 C 0.0492(5) 0.0752(3) 0.6593(3)
C25 C 0.0541(5) 0.0332(3) 0.6259(3)
H26 H 0.0825 0.0365 0.5913
C26 C 0.0401(5) -0.0133(3) 0.6457(3)
H27 H 0.0587 -0.0419 0.6245
C27 C 0.0190(5) -0.0214(3) 0.7001(3)
C28 C 0.0125(5) 0.0206(2) 0.7320(3)
H28 H 0.0128 0.0167 0.7721
C29 C 0.0269(5) 0.0679(3) 0.7114(3)
H29 H 0.0377 0.0955 0.7380
C30 C 0.0721(6) 0.1233(3) 0.6388(4)
H30 H 0.0115 0.1392 0.6219
H31 H 0.1162 0.1197 0.6117
H32 H 0.1038 0.1432 0.6693
C31 C 0.0068(6) -0.0719(3) 0.7205(3)
H33 H 0.0544 -0.0935 0.7055
C32 C -0.0943(9) -0.0892(4) 0.6993(6)
H34 H -0.1030 -0.1222 0.7125
H35 H -0.1041 -0.0892 0.6592
H36 H -0.1422 -0.0675 0.7121
C33 C 0.0227(8) -0.0773(4) 0.7817(4)
H37 H 0.0890 -0.0666 0.7966
H38 H 0.0145 -0.1115 0.7912
H39 H -0.0252 -0.0574 0.7971
C34 C 0.3268(5) -0.0240(2) 0.6817(2)
C35 C 0.3432(5) 0.0305(2) 0.6739(2)
C36 C 0.2597(5) -0.0077(2) 0.8120(2)
H40 H 0.2506 -0.0392 0.7962
C37 C 0.2468(5) 0.0750(2) 0.8034(2)
H41 H 0.2280 0.1029 0.7816
C38 C 0.3030(5) -0.0042(2) 0.8661(2)
H42 H 0.3230 -0.0324 0.8869
C39 C 0.2896(5) 0.0813(2) 0.8562(2)
H43 H 0.3011 0.1132 0.8705
C40 C 0.3164(5) 0.0417(2) 0.8889(2)
C41 C 0.5254(5) -0.0474(2) 0.7835(2)
H44 H 0.5085 -0.0775 0.7655
C42 C 0.5560(5) 0.0342(2) 0.7787(2)
H45 H 0.5608 0.0627 0.7575
C43 C 0.5391(5) -0.0468(2) 0.8393(2)
H46 H 0.5321 -0.0756 0.8595
C44 C 0.5714(5) 0.0383(2) 0.8344(2)
H47 H 0.5871 0.0689 0.8513
C45 C 0.5638(5) -0.0027(2) 0.8658(2)
C46 C 0.5978(5) -0.0344(3) 0.9595(2)
C47 C 0.3721(5) 0.0139(2) 0.9825(3)
C48 C 0.6849(5) -0.0137(2) 0.6761(3)
H48 H 0.7224 -0.0055 0.7127
C49 C 0.6513(5) -0.0627(3) 0.6668(3)
H49 H 0.6664 -0.0873 0.6966
C50 C 0.5805(6) -0.0735(3) 0.6211(4)
C51 C 0.5456(6) -0.0336(5) 0.5837(3)
H50 H 0.4862 -0.0387 0.5557
C52 C 0.5807(6) 0.0139(3) 0.5942(3)
H51 H 0.5448 0.0413 0.5736
C53 C 0.6498(5) 0.0249(3) 0.6411(3)
C54 C 0.6855(6) 0.0754(3) 0.6553(3)
H52 H 0.6901 0.0796 0.6957
C65 C 0.5347(7) -0.1220(4) 0.6130(5)
H67 H 0.5721 -0.1421 0.5909
H68 H 0.4674 -0.1185 0.5942
H69 H 0.5343 -0.1375 0.6486
C66 C 0.7886(5) 0.0810(3) 0.6406(3)
H70 H 0.8313 0.0557 0.6591
H71 H 0.8147 0.1131 0.6522
H72 H 0.7858 0.0777 0.6010
C67 C 0.6186(7) 0.1146(3) 0.6279(5)
H73 H 0.5531 0.1105 0.6378
H74 H 0.6150 0.1120 0.5882
H75 H 0.6445 0.1466 0.6401
Ru1B Ru 0.84806(4) -0.021698(19) 1.298414(19)
Ru2B Ru 0.47314(4) 0.013704(19) 1.333026(18)
O7B O 0.6035(3) 0.05202(15) 1.32551(15)
O8B O 0.5736(3) -0.04421(15) 1.33495(16)
O9B O 0.7514(3) 0.03634(16) 1.30415(15)
O10B O 0.7268(3) -0.05834(15) 1.32119(16)
O11B O 0.4085(4) 0.07797(16) 1.04927(17)
O12B O 0.6354(5) 0.02923(19) 1.02459(18)
N4B N 0.7698(4) -0.03050(19) 1.21898(19)
N5B N 0.4655(4) 0.00796(18) 1.2476(2)
N6B N 0.4166(4) -0.00255(19) 1.07790(19)
H3B H 0.4132 -0.0324 1.0650
N7B N 0.6445(4) -0.04914(19) 1.05568(19)
H4B H 0.6297 -0.0792 1.0452
C24B C 0.9508(5) -0.0752(3) 1.3407(3)
C25B C 0.9459(5) -0.0332(3) 1.3741(3)
H26B H 0.9175 -0.0365 1.4087
C26B C 0.9599(5) 0.0133(3) 1.3543(3)
H27B H 0.9413 0.0419 1.3755
C27B C 0.9810(5) 0.0214(3) 1.2999(3)
C28B C 0.9875(5) -0.0206(2) 1.2680(3)
H28B H 0.9872 -0.0167 1.2279
C29B C 0.9731(5) -0.0679(3) 1.2886(3)
H29B H 0.9623 -0.0955 1.2620
C30B C 0.9279(6) -0.1233(3) 1.3612(4)
H30B H 0.9885 -0.1392 1.3781
H31B H 0.8838 -0.1197 1.3883
H32B H 0.8962 -0.1432 1.3307
C31B C 0.9932(6) 0.0719(3) 1.2795(3)
H33B H 0.9456 0.0935 1.2945
C32B C 1.0943(9) 0.0892(4) 1.3007(6)
H34B H 1.1030 0.1222 1.2875
H35B H 1.1041 0.0892 1.3408
H36B H 1.1422 0.0675 1.2879
C33B C 0.9773(8) 0.0773(4) 1.2183(4)
H37B H 0.9110 0.0666 1.2034
H38B H 0.9855 0.1115 1.2088
H39B H 1.0252 0.0574 1.2029
C34B C 0.6732(5) 0.0240(2) 1.3183(2)
C35B C 0.6568(5) -0.0305(2) 1.3261(2)
C36B C 0.7403(5) 0.0077(2) 1.1880(2)
H40B H 0.7494 0.0392 1.2038
C37B C 0.7532(5) -0.0750(2) 1.1966(2)
H41B H 0.7720 -0.1029 1.2184
C38B C 0.6970(5) 0.0042(2) 1.1339(2)
H42B H 0.6770 0.0324 1.1131
C39B C 0.7104(5) -0.0813(2) 1.1438(2)
H43B H 0.6989 -0.1132 1.1295
C40B C 0.6836(5) -0.0417(2) 1.1111(2)
C41B C 0.4746(5) 0.0474(2) 1.2165(2)
H44B H 0.4915 0.0775 1.2345
C42B C 0.4440(5) -0.0342(2) 1.2213(2)
H45B H 0.4392 -0.0627 1.2425
C43B C 0.4609(5) 0.0468(2) 1.1607(2)
H46B H 0.4679 0.0756 1.1405
C44B C 0.4286(5) -0.0383(2) 1.1656(2)
H47B H 0.4129 -0.0689 1.1487
C45B C 0.4362(5) 0.0027(2) 1.1342(2)
C46B C 0.4022(5) 0.0344(3) 1.0405(2)
C47B C 0.6279(5) -0.0139(2) 1.0175(3)
C48B C 0.3151(5) 0.0137(2) 1.3239(3)
H48B H 0.2776 0.0055 1.2873
C49B C 0.3487(5) 0.0627(3) 1.3332(3)
H49B H 0.3336 0.0873 1.3034
C50B C 0.4195(6) 0.0735(3) 1.3789(4)
C51B C 0.4544(6) 0.0336(5) 1.4163(3)
H50B H 0.5138 0.0387 1.4443
C52B C 0.4193(6) -0.0139(3) 1.4058(3)
H51B H 0.4552 -0.0413 1.4264
C53B C 0.3502(5) -0.0249(3) 1.3589(3)
C54B C 0.3145(6) -0.0754(3) 1.3447(3)
H52B H 0.3099 -0.0796 1.3043
C65B C 0.4653(7) 0.1220(4) 1.3870(5)
H67B H 0.4279 0.1421 1.4091
H68B H 0.5326 0.1185 1.4058
H69B H 0.4657 0.1375 1.3514
C66B C 0.2114(5) -0.0810(3) 1.3594(3)
H70B H 0.1687 -0.0557 1.3409
H71B H 0.1853 -0.1131 1.3478
H72B H 0.2142 -0.0777 1.3990
C67B C 0.3814(7) -0.1146(3) 1.3721(5)
H73B H 0.4469 -0.1105 1.3622
H74B H 0.3850 -0.1120 1.4118
H75B H 0.3555 -0.1466 1.3599
Ru3 Ru 1.22009(5) 0.272682(19) 1.00125(2)
Ru4 Ru 0.85020(4) 0.289843(18) 1.05349(2)
O1 O 1.1455(4) 0.27176(16) 1.06985(19)
O2 O 1.0786(4) 0.29545(16) 0.96599(19)
O3 O 0.9964(4) 0.28238(16) 1.09168(19)
O4 O 0.9259(4) 0.29877(16) 0.98637(19)
O5 O 1.1721(5) 0.02413(17) 1.0246(2)
O6 O 1.0474(4) -0.03371(17) 0.9107(2)
N1 N 1.1600(5) 0.2031(2) 0.9841(2)
N2 N 1.0853(4) 0.05816(18) 0.9479(2)
H1 H 1.0471 0.0514 0.9170
N3 N 1.1296(4) -0.06573(18) 0.9904(2)
H2 H 1.1560 -0.0569 1.0235
C1 C 1.0570(6) 0.2814(2) 1.0583(3)
C2 C 1.0178(6) 0.2927(2) 0.9990(3)
C3 C 0.8168(5) 0.3612(2) 1.0866(3)
H5 H 0.8706 0.3856 1.0945
C4 C 0.7686(5) 0.3569(2) 1.0337(3)
H6 H 0.7890 0.3787 1.0051
C5 C 0.7074(5) 0.3158(2) 1.0163(3)
C6 C 0.6954(6) 0.2804(3) 1.0553(3)
H7 H 0.6645 0.2488 1.0423
C7 C 0.7458(6) 0.2833(3) 1.1107(3)
H8 H 0.7481 0.2541 1.1349
C8 C 0.8088(6) 0.3235(3) 1.1267(3)
C9 C 0.8686(7) 0.3250(3) 1.1824(3)
H9 H 0.8325 0.3427 1.2074
H10 H 0.9307 0.3417 1.1805
H11 H 0.8817 0.2918 1.1958
C10 C 0.6536(6) 0.3100(3) 0.9590(3)
H12 H 0.6412 0.2744 0.9528
C11 C 0.7104(6) 0.3276(3) 0.9147(3)
H13 H 0.7731 0.3104 0.9180
H14 H 0.7222 0.3626 0.9188
H15 H 0.6724 0.3210 0.8787
C12 C 0.5549(6) 0.3346(4) 0.9553(4)
H16 H 0.5206 0.3222 0.9843
H17 H 0.5160 0.3277 0.9197
H18 H 0.5641 0.3698 0.9596
C13 C 1.1510(7) 0.1711(3) 1.0229(3)
H19 H 1.1613 0.1822 1.0596
C14 C 1.1310(5) 0.1875(2) 0.9320(3)
H20 H 1.1293 0.2103 0.9030
C15 C 1.1277(7) 0.1223(3) 1.0137(3)
H21 H 1.1268 0.1004 1.0432
C16 C 1.1041(5) 0.1403(2) 0.9196(3)
H22 H 1.0843 0.1309 0.8827
C17 C 1.1059(5) 0.1071(2) 0.9604(3)
C18 C 1.1205(5) 0.0206(2) 0.9804(3)
C19 C 1.0940(5) -0.0292(2) 0.9553(3)
C20 C 1.1287(5) -0.1150(2) 0.9793(3)
C21 C 1.0919(6) -0.1355(2) 0.9282(3)
H23 H 1.0641 -0.1154 0.8987
C22 C 1.1709(5) -0.1462(2) 1.0204(3)
H24 H 1.1986 -0.1339 1.0551
C23 C 1.1717(5) -0.1955(2) 1.0097(3)
H25 H 1.1994 -0.2166 1.0384
C55 C 1.2892(6) 0.3205(3) 0.9486(4)
C56 C 1.3223(6) 0.2726(3) 0.9426(3)
H53 H 1.3045 0.2555 0.9068
C57 C 1.3003(7) 0.3412(3) 1.0012(4)
H54 H 1.2655 0.3723 1.0066
C58 C 1.3619(6) 0.2458(3) 0.9894(4)
H55 H 1.3694 0.2099 0.9853
C59 C 1.3382(7) 0.3141(4) 1.0468(5)
H56 H 1.3296 0.3267 1.0836
C60 C 1.3699(8) 0.2644(4) 1.0426(4)
C61 C 1.4068(11) 0.2384(6) 1.0958(7)
H57 H 1.3728 0.2501 1.1262
C62 C 1.4016(18) 0.1829(9) 1.0903(11)
H58 H 1.3329 0.1727 1.0829
H59 H 1.4332 0.1679 1.1244
H60 H 1.4352 0.1726 1.0601
C63 C 1.5214(18) 0.2466(9) 1.1091(11)
H61 H 1.5352 0.2815 1.1135
H62 H 1.5526 0.2338 1.0790
H63 H 1.5474 0.2296 1.1430
C64 C 1.2415(7) 0.3489(4) 0.8986(5)
H64 H 1.2916 0.3674 0.8834
H65 H 1.1926 0.3713 0.9093
H66 H 1.2095 0.3262 0.8710
C68 C 1.0966(6) -0.1845(2) 0.9216(3)
H76 H 1.0709 -0.1979 0.8870
N8 N 0.8640(4) 0.21522(19) 1.0382(2)
Ru3B Ru 0.77991(5) -0.272682(19) 0.99875(2)
Ru4B Ru 1.14980(4) -0.289843(18) 0.94651(2)
O1B O 0.8545(4) -0.27176(16) 0.93015(19)
O2B O 0.9214(4) -0.29545(16) 1.03401(19)
O3B O 1.0036(4) -0.28238(16) 0.90832(19)
O4B O 1.0741(4) -0.29877(16) 1.01363(19)
O5B O 0.8279(5) -0.02413(17) 0.9754(2)
O6B O 0.9526(4) 0.03371(17) 1.0893(2)
N1B N 0.8400(5) -0.2031(2) 1.0159(2)
N2B N 0.9147(4) -0.05816(18) 1.0521(2)
H1B H 0.9529 -0.0514 1.0830
N3B N 0.8704(4) 0.06573(18) 1.0096(2)
H2B H 0.8440 0.0569 0.9765
C1B C 0.9430(6) -0.2814(2) 0.9417(3)
C2B C 0.9822(6) -0.2927(2) 1.0010(3)
C3B C 1.1832(5) -0.3612(2) 0.9134(3)
H5B H 1.1294 -0.3856 0.9055
C4B C 1.2314(5) -0.3569(2) 0.9663(3)
H6B H 1.2110 -0.3787 0.9949
C5B C 1.2926(5) -0.3158(2) 0.9837(3)
C6B C 1.3046(6) -0.2804(3) 0.9447(3)
H7B H 1.3355 -0.2488 0.9577
C7B C 1.2542(6) -0.2833(3) 0.8893(3)
H8B H 1.2519 -0.2541 0.8651
C8B C 1.1912(6) -0.3235(3) 0.8733(3)
C9B C 1.1314(7) -0.3250(3) 0.8176(3)
H9B H 1.1675 -0.3427 0.7926
H10B H 1.0693 -0.3417 0.8195
H11B H 1.1183 -0.2918 0.8042
C10B C 1.3464(6) -0.3100(3) 1.0410(3)
H12B H 1.3588 -0.2744 1.0472
C11B C 1.2896(6) -0.3276(3) 1.0853(3)
H13B H 1.2269 -0.3104 1.0820
H14B H 1.2778 -0.3626 1.0812
H15B H 1.3276 -0.3210 1.1213
C12B C 1.4451(6) -0.3346(4) 1.0447(4)
H16B H 1.4794 -0.3222 1.0157
H17B H 1.4840 -0.3277 1.0803
H18B H 1.4359 -0.3698 1.0404
C13B C 0.8490(7) -0.1711(3) 0.9771(3)
H19B H 0.8387 -0.1822 0.9404
C14B C 0.8690(5) -0.1875(2) 1.0680(3)
H20B H 0.8707 -0.2103 1.0970
C15B C 0.8723(7) -0.1223(3) 0.9863(3)
H21B H 0.8732 -0.1004 0.9568
C16B C 0.8959(5) -0.1403(2) 1.0804(3)
H22B H 0.9157 -0.1309 1.1173
C17B C 0.8941(5) -0.1071(2) 1.0396(3)
C18B C 0.8795(5) -0.0206(2) 1.0196(3)
C19B C 0.9060(5) 0.0292(2) 1.0447(3)
C20B C 0.8713(5) 0.1150(2) 1.0207(3)
C21B C 0.9081(6) 0.1355(2) 1.0718(3)
H23B H 0.9359 0.1154 1.1013
C22B C 0.8291(5) 0.1462(2) 0.9796(3)
H24B H 0.8014 0.1339 0.9449
C23B C 0.8283(5) 0.1955(2) 0.9903(3)
H25B H 0.8006 0.2166 0.9616
C55B C 0.7108(6) -0.3205(3) 1.0514(4)
C56B C 0.6777(6) -0.2726(3) 1.0574(3)
H53B H 0.6955 -0.2555 1.0932
C57B C 0.6997(7) -0.3412(3) 0.9988(4)
H54B H 0.7345 -0.3723 0.9934
C58B C 0.6381(6) -0.2458(3) 1.0106(4)
H55B H 0.6306 -0.2099 1.0147
C59B C 0.6618(7) -0.3141(4) 0.9532(5)
H56B H 0.6704 -0.3267 0.9164
C60B C 0.6301(8) -0.2644(4) 0.9574(4)
C61B C 0.5932(11) -0.2384(6) 0.9042(7)
H57B H 0.6272 -0.2501 0.8738
C62B C 0.5984(18) -0.1829(9) 0.9097(11)
H58B H 0.6671 -0.1727 0.9171
H59B H 0.5668 -0.1679 0.8756
H60B H 0.5648 -0.1726 0.9399
C63B C 0.4786(18) -0.2466(9) 0.8909(11)
H61B H 0.4648 -0.2815 0.8865
H62B H 0.4474 -0.2338 0.9210
H63B H 0.4526 -0.2296 0.8570
C64B C 0.7585(7) -0.3489(4) 1.1014(5)
H64B H 0.7084 -0.3674 1.1166
H65B H 0.8074 -0.3713 1.0907
H66B H 0.7905 -0.3262 1.1290
C68B C 0.9034(6) 0.1845(2) 1.0784(3)
H76B H 0.9291 0.1979 1.1130
N8B N 1.1360(4) -0.21522(19) 0.9618(2)
S1 S 0.3681(2) -0.28334(9) 0.72337(9)
F10 F 0.5061(8) -0.2525(3) 0.6730(4)
F11 F 0.4728(7) -0.2041(3) 0.7341(4)
F12 F 0.5489(8) -0.2708(4) 0.7604(6)
O22 O 0.3441(7) -0.2745(3) 0.7761(3)
O23 O 0.3997(6) -0.3321(2) 0.7121(3)
O24 O 0.3052(7) -0.2621(4) 0.6794(3)
C72 C 0.4757(12) -0.2487(5) 0.7200(7)
S2 S 0.53539(14) 0.15536(6) 0.94049(7)
F7 F 0.6305(4) 0.19924(18) 0.8713(2)
F8 F 0.5029(4) 0.15972(17) 0.83344(17)
F9 F 0.4869(4) 0.22798(16) 0.8739(2)
O19 O 0.5918(4) 0.11224(16) 0.93502(19)
O20 O 0.5778(4) 0.19024(17) 0.9803(2)
O21 O 0.4321(4) 0.14726(18) 0.94028(18)
C71 C 0.5397(6) 0.1874(3) 0.8763(3)
S3 S -0.28343(13) 0.00640(6) 0.47504(6)
F4 F -0.1104(3) 0.02875(18) 0.52658(18)
F5 F -0.1914(3) -0.02006(16) 0.57137(15)
F6 F -0.1265(3) -0.04738(18) 0.50355(18)
O16 O -0.3177(3) 0.04963(15) 0.49854(17)
O17 O -0.3450(4) -0.03537(17) 0.4774(2)
O18 O -0.2465(4) 0.0134(2) 0.42425(18)
C70 C -0.1746(5) -0.0081(3) 0.5214(3)
S4 S 0.85364(13) 0.06424(6) 0.83593(6)
F1 F 0.7219(3) 0.12933(16) 0.79886(18)
F2 F 0.8562(3) 0.13453(16) 0.76506(16)
F3 F 0.8511(4) 0.15912(14) 0.84714(17)
O13 O 0.8120(4) 0.03372(17) 0.79098(18)
O14 O 0.8090(4) 0.06061(16) 0.88481(17)
O15 O 0.9586(4) 0.06557(17) 0.84471(19)
C69 C 0.8204(5) 0.1255(3) 0.8106(3)
O25 O 0.733(2) 0.1515(14) 1.1714(12)
C73 C 0.6633(19) 0.1263(8) 1.1611(10)
H77 H 0.6059 0.1384 1.1766
H78 H 0.6762 0.0917 1.1710
C74 C 0.6574(13) 0.1360(6) 1.1013(9)
H79 H 0.6038 0.1170 1.0811
H80 H 0.7193 0.1267 1.0894
H81 H 0.6454 0.1707 1.0942
C75 C 0.786(3) 0.1841(14) 1.2173(17)
H82 H 0.7380 0.1830 1.2431
H83 H 0.7753 0.2164 1.1996
C76 C 0.8819(19) 0.1945(9) 1.2579(10)
H84 H 0.8689 0.1912 1.2956
H85 H 0.9043 0.2277 1.2522
H86 H 0.9326 0.1713 1.2515
O26 O 0.7297(9) -0.1206(4) 0.7861(4)
O27 O 0.8471(12) -0.1459(5) 0.8482(4)
N9 N 0.7756(11) -0.1133(4) 0.8288(4)
C77 C 0.7901(8) -0.0671(4) 0.8541(4)
H87 H 0.7370 -0.0452 0.8389
H88 H 0.8528 -0.0536 0.8474
H89 H 0.7906 -0.0705 0.8936
loop_
_geom_bond_atom_site_label_1
_geom_bond_atom_site_label_2
_geom_bond_site_symmetry_1
_geom_bond_site_symmetry_2
Ru1 O9 1_555 1_555
Ru2 O7 1_555 1_555
Ru3 O1 1_555 1_555
Ru4 O3 1_555 1_555
O1 C1 1_555 1_555
O2 Ru3 1_555 1_555
O3 C1 1_555 1_555
O4 Ru4 1_555 1_555
O5 C18 1_555 1_555
O6 C19 1_555 1_555
O7 C34 1_555 1_555
O8 Ru2 1_555 1_555
O9 C34 1_555 1_555
O10 Ru1 1_555 1_555
O11 C46 1_555 1_555
O12 C47 1_555 1_555
N1 Ru3 1_555 1_555
N2 H1 1_555 1_555
N3 H2 1_555 1_555
N4 Ru1 1_555 1_555
N5 Ru2 1_555 1_555
N6 H3 1_555 1_555
N7 H4 1_555 1_555
C1 C2 1_555 1_555
C2 O2 1_555 1_555
C3 Ru4 1_555 1_555
H5 C3 1_555 1_555
C4 Ru4 1_555 1_555
H6 C4 1_555 1_555
C5 Ru4 1_555 1_555
C6 Ru4 1_555 1_555
H7 C6 1_555 1_555
C7 Ru4 1_555 1_555
H8 C7 1_555 1_555
C8 Ru4 1_555 1_555
C9 C8 1_555 1_555
H9 C9 1_555 1_555
H10 C9 1_555 1_555
H11 C9 1_555 1_555
C10 C5 1_555 1_555
H12 C10 1_555 1_555
C11 C10 1_555 1_555
H13 C11 1_555 1_555
H14 C11 1_555 1_555
H15 C11 1_555 1_555
C12 C10 1_555 1_555
H16 C12 1_555 1_555
H17 C12 1_555 1_555
H18 C12 1_555 1_555
C13 N1 1_555 1_555
H19 C13 1_555 1_555
C14 N1 1_555 1_555
H20 C14 1_555 1_555
C15 C13 1_555 1_555
H21 C15 1_555 1_555
C16 C14 1_555 1_555
H22 C16 1_555 1_555
C17 N2 1_555 1_555
C18 N2 1_555 1_555
C19 N3 1_555 1_555
C20 N3 1_555 1_555
C21 C20 1_555 1_555
H23 C21 1_555 1_555
C22 C20 1_555 1_555
H24 C22 1_555 1_555
C23 C22 1_555 1_555
H25 C23 1_555 1_555
C24 Ru1 1_555 1_555
C25 Ru1 1_555 1_555
H26 C25 1_555 1_555
C26 Ru1 1_555 1_555
H27 C26 1_555 1_555
C27 Ru1 1_555 1_555
C28 Ru1 1_555 1_555
H28 C28 1_555 1_555
C29 Ru1 1_555 1_555
H29 C29 1_555 1_555
C30 C24 1_555 1_555
H30 C30 1_555 1_555
H31 C30 1_555 1_555
H32 C30 1_555 1_555
C31 C27 1_555 1_555
H33 C31 1_555 1_555
C32 C31 1_555 1_555
H34 C32 1_555 1_555
H35 C32 1_555 1_555
H36 C32 1_555 1_555
C33 C31 1_555 1_555
H37 C33 1_555 1_555
H38 C33 1_555 1_555
H39 C33 1_555 1_555
C34 C35 1_555 1_555
C35 O8 1_555 1_555
C36 N4 1_555 1_555
H40 C36 1_555 1_555
C37 N4 1_555 1_555
H41 C37 1_555 1_555
C38 C36 1_555 1_555
H42 C38 1_555 1_555
C39 C37 1_555 1_555
H43 C39 1_555 1_555
C40 N7 1_555 1_555
C41 N5 1_555 1_555
H44 C41 1_555 1_555
C42 N5 1_555 1_555
H45 C42 1_555 1_555
C43 C41 1_555 1_555
H46 C43 1_555 1_555
C44 C42 1_555 1_555
H47 C44 1_555 1_555
C45 N6 1_555 1_555
C46 N6 1_555 1_555
C47 N7 1_555 1_555
C48 Ru2 1_555 1_555
H48 C48 1_555 1_555
C49 Ru2 1_555 1_555
H49 C49 1_555 1_555
C50 Ru2 1_555 1_555
C51 Ru2 1_555 1_555
H50 C51 1_555 1_555
C52 Ru2 1_555 1_555
H51 C52 1_555 1_555
C53 Ru2 1_555 1_555
C54 C53 1_555 1_555
H52 C54 1_555 1_555
C55 Ru3 1_555 1_555
C56 Ru3 1_555 1_555
H53 C56 1_555 1_555
C57 Ru3 1_555 1_555
H54 C57 1_555 1_555
C58 Ru3 1_555 1_555
H55 C58 1_555 1_555
C59 Ru3 1_555 1_555
H56 C59 1_555 1_555
C60 Ru3 1_555 1_555
C61 C60 1_555 1_555
H57 C61 1_555 1_555
C62 C61 1_555 1_555
H58 C62 1_555 1_555
H59 C62 1_555 1_555
H60 C62 1_555 1_555
C63 C61 1_555 1_555
H61 C63 1_555 1_555
H62 C63 1_555 1_555
H63 C63 1_555 1_555
C64 C55 1_555 1_555
H64 C64 1_555 1_555
H65 C64 1_555 1_555
H66 C64 1_555 1_555
C65 C50 1_555 1_555
H67 C65 1_555 1_555
H68 C65 1_555 1_555
H69 C65 1_555 1_555
C66 C54 1_555 1_555
H70 C66 1_555 1_555
H71 C66 1_555 1_555
H72 C66 1_555 1_555
C67 C54 1_555 1_555
H73 C67 1_555 1_555
H74 C67 1_555 1_555
H75 C67 1_555 1_555
C68 C21 1_555 1_555
H76 C68 1_555 1_555
N8 Ru4 1_555 1_555
S1 O22 1_555 1_555
S2 O19 1_555 1_555
S3 O16 1_555 1_555
S4 O13 1_555 1_555
F1 C69 1_555 1_555
F2 C69 1_555 1_555
F3 C69 1_555 1_555
F4 C70 1_555 1_555
F5 C70 1_555 1_555
F6 C70 1_555 1_555
F7 C71 1_555 1_555
F8 C71 1_555 1_555
F9 C71 1_555 1_555
F10 C72 1_555 1_555
F11 C72 1_555 1_555
F12 C72 1_555 1_555
O14 S4 1_555 1_555
O15 S4 1_555 1_555
O17 S3 1_555 1_555
O18 S3 1_555 1_555
O20 S2 1_555 1_555
O21 S2 1_555 1_555
O23 S1 1_555 1_555
O24 S1 1_555 1_555
C69 S4 1_555 1_555
C70 S3 1_555 1_555
C71 S2 1_555 1_555
C72 S1 1_555 1_555
O25 C73 1_555 1_555
C73 H77 1_555 1_555
H78 C73 1_555 1_555
C74 C73 1_555 1_555
H79 C74 1_555 1_555
H80 C74 1_555 1_555
H81 C74 1_555 1_555
C75 O25 1_555 1_555
H82 C75 1_555 1_555
H83 C75 1_555 1_555
C76 C75 1_555 1_555
H84 C76 1_555 1_555
H85 C76 1_555 1_555
H86 C76 1_555 1_555
O26 N9 1_555 1_555
O27 N9 1_555 1_555
N9 C77 1_555 1_555
C77 H87 1_555 1_555
H88 C77 1_555 1_555
H89 C77 1_555 1_555
Ru1B O9B 1_555 1_555
Ru2B O7B 1_555 1_555
Ru3B O1B 1_555 1_555
Ru4B O3B 1_555 1_555
O1B C1B 1_555 1_555
O2B Ru3B 1_555 1_555
O3B C1B 1_555 1_555
O4B Ru4B 1_555 1_555
O5B C18B 1_555 1_555
O6B C19B 1_555 1_555
O7B C34B 1_555 1_555
O8B Ru2B 1_555 1_555
O9B C34B 1_555 1_555
O10B Ru1B 1_555 1_555
O11B C46B 1_555 1_555
O12B C47B 1_555 1_555
N1B Ru3B 1_555 1_555
N2B H1B 1_555 1_555
N3B H2B 1_555 1_555
N4B Ru1B 1_555 1_555
N5B Ru2B 1_555 1_555
N6B H3B 1_555 1_555
N7B H4B 1_555 1_555
C1B C2B 1_555 1_555
C2B O2B 1_555 1_555
C3B Ru4B 1_555 1_555
H5B C3B 1_555 1_555
C4B Ru4B 1_555 1_555
H6B C4B 1_555 1_555
C5B Ru4B 1_555 1_555
C6B Ru4B 1_555 1_555
H7B C6B 1_555 1_555
C7B Ru4B 1_555 1_555
H8B C7B 1_555 1_555
C8B Ru4B 1_555 1_555
C9B C8B 1_555 1_555
H9B C9B 1_555 1_555
H10B C9B 1_555 1_555
H11B C9B 1_555 1_555
C10B C5B 1_555 1_555
H12B C10B 1_555 1_555
C11B C10B 1_555 1_555
H13B C11B 1_555 1_555
H14B C11B 1_555 1_555
H15B C11B 1_555 1_555
C12B C10B 1_555 1_555
H16B C12B 1_555 1_555
H17B C12B 1_555 1_555
H18B C12B 1_555 1_555
C13B N1B 1_555 1_555
H19B C13B 1_555 1_555
C14B N1B 1_555 1_555
H20B C14B 1_555 1_555
C15B C13B 1_555 1_555
H21B C15B 1_555 1_555
C16B C14B 1_555 1_555
H22B C16B 1_555 1_555
C17B N2B 1_555 1_555
C18B N2B 1_555 1_555
C19B N3B 1_555 1_555
C20B N3B 1_555 1_555
C21B C20B 1_555 1_555
H23B C21B 1_555 1_555
C22B C20B 1_555 1_555
H24B C22B 1_555 1_555
C23B N8 1_555 1_555
H25B C23B 1_555 1_555
C24B Ru1B 1_555 1_555
C25B Ru1B 1_555 1_555
H26B C25B 1_555 1_555
C26B Ru1B 1_555 1_555
H27B C26B 1_555 1_555
C27B Ru1B 1_555 1_555
C28B Ru1B 1_555 1_555
H28B C28B 1_555 1_555
C29B Ru1B 1_555 1_555
H29B C29B 1_555 1_555
C30B C24B 1_555 1_555
H30B C30B 1_555 1_555
H31B C30B 1_555 1_555
H32B C30B 1_555 1_555
C31B C27B 1_555 1_555
H33B C31B 1_555 1_555
C32B C31B 1_555 1_555
H34B C32B 1_555 1_555
H35B C32B 1_555 1_555
H36B C32B 1_555 1_555
C33B C31B 1_555 1_555
H37B C33B 1_555 1_555
H38B C33B 1_555 1_555
H39B C33B 1_555 1_555
C34B C35B 1_555 1_555
C35B O8B 1_555 1_555
C36B N4B 1_555 1_555
H40B C36B 1_555 1_555
C37B N4B 1_555 1_555
H41B C37B 1_555 1_555
C38B C36B 1_555 1_555
H42B C38B 1_555 1_555
C39B C37B 1_555 1_555
H43B C39B 1_555 1_555
C40B N7B 1_555 1_555
C41B N5B 1_555 1_555
H44B C41B 1_555 1_555
C42B N5B 1_555 1_555
H45B C42B 1_555 1_555
C43B C41B 1_555 1_555
H46B C43B 1_555 1_555
C44B C42B 1_555 1_555
H47B C44B 1_555 1_555
C45B N6B 1_555 1_555
C46B C47 1_555 1_555
C47B C46 1_555 1_555
C48B Ru2B 1_555 1_555
H48B C48B 1_555 1_555
C49B Ru2B 1_555 1_555
H49B C49B 1_555 1_555
C50B Ru2B 1_555 1_555
C51B Ru2B 1_555 1_555
H50B C51B 1_555 1_555
C52B Ru2B 1_555 1_555
H51B C52B 1_555 1_555
C53B Ru2B 1_555 1_555
C54B C53B 1_555 1_555
H52B C54B 1_555 1_555
C55B Ru3B 1_555 1_555
C56B Ru3B 1_555 1_555
H53B C56B 1_555 1_555
C57B Ru3B 1_555 1_555
H54B C57B 1_555 1_555
C58B Ru3B 1_555 1_555
H55B C58B 1_555 1_555
C59B Ru3B 1_555 1_555
H56B C59B 1_555 1_555
C60B Ru3B 1_555 1_555
C61B C60B 1_555 1_555
H57B C61B 1_555 1_555
C62B C61B 1_555 1_555
H58B C62B 1_555 1_555
H59B C62B 1_555 1_555
H60B C62B 1_555 1_555
C63B C61B 1_555 1_555
H61B C63B 1_555 1_555
H62B C63B 1_555 1_555
H63B C63B 1_555 1_555
C64B C55B 1_555 1_555
H64B C64B 1_555 1_555
H65B C64B 1_555 1_555
H66B C64B 1_555 1_555
C65B C50B 1_555 1_555
H67B C65B 1_555 1_555
H68B C65B 1_555 1_555
H69B C65B 1_555 1_555
C66B C54B 1_555 1_555
H70B C66B 1_555 1_555
H71B C66B 1_555 1_555
H72B C66B 1_555 1_555
C67B C54B 1_555 1_555
H73B C67B 1_555 1_555
H74B C67B 1_555 1_555
H75B C67B 1_555 1_555
C68B N8 1_555 1_555
H76B C68B 1_555 1_555
N8B C23 1_555 1_555
O4 C2 1_555 1_555
O10 C35 1_555 1_555
C3 C4 1_555 1_555
C3 C8 1_555 1_555
C4 C5 1_555 1_555
C5 C6 1_555 1_555
C6 C7 1_555 1_555
C7 C8 1_555 1_555
C15 C17 1_555 1_555
C16 C17 1_555 1_555
C18 C19 1_555 1_555
C24 C25 1_555 1_555
C24 C29 1_555 1_555
C25 C26 1_555 1_555
C26 C27 1_555 1_555
C27 C28 1_555 1_555
C28 C29 1_555 1_555
C38 C40 1_555 1_555
C39 C40 1_555 1_555
C43 C45 1_555 1_555
C44 C45 1_555 1_555
C48 C49 1_555 1_555
C48 C53 1_555 1_555
C49 C50 1_555 1_555
C50 C51 1_555 1_555
C51 C52 1_555 1_555
C52 C53 1_555 1_555
C55 C56 1_555 1_555
C55 C57 1_555 1_555
C56 C58 1_555 1_555
C57 C59 1_555 1_555
C58 C60 1_555 1_555
C59 C60 1_555 1_555
C68 N8B 1_555 1_555
Ru4B N8B 1_555 1_555
O4B C2B 1_555 1_555
O10B C35B 1_555 1_555
N6B C46B 1_555 1_555
N7B C47B 1_555 1_555
C3B C4B 1_555 1_555
C3B C8B 1_555 1_555
C4B C5B 1_555 1_555
C5B C6B 1_555 1_555
C6B C7B 1_555 1_555
C7B C8B 1_555 1_555
C15B C17B 1_555 1_555
C16B C17B 1_555 1_555
C18B C19B 1_555 1_555
C21B C68B 1_555 1_555
C22B C23B 1_555 1_555
C24B C25B 1_555 1_555
C24B C29B 1_555 1_555
C25B C26B 1_555 1_555
C26B C27B 1_555 1_555
C27B C28B 1_555 1_555
C28B C29B 1_555 1_555
C38B C40B 1_555 1_555
C39B C40B 1_555 1_555
C43B C45B 1_555 1_555
C44B C45B 1_555 1_555
C48B C49B 1_555 1_555
C48B C53B 1_555 1_555
C49B C50B 1_555 1_555
C50B C51B 1_555 1_555
C51B C52B 1_555 1_555
C52B C53B 1_555 1_555
C55B C56B 1_555 1_555
C55B C57B 1_555 1_555
C56B C58B 1_555 1_555
C57B C59B 1_555 1_555
C58B C60B 1_555 1_555
C59B C60B 1_555 1_555

#END
