
#######################################################################
#
#                 Cambridge Crystallographic Data Centre
#                                CCDC 
#
#######################################################################
#
# If this CIF has been generated from an entry in the Cambridge 
# Structural Database, then it will include bibliographic, chemical, 
# crystal, experimental, refinement or atomic coordinate data resulting 
# from the CCDC's data processing and validation procedures.
#
#######################################################################

data_IDUTUY
_chemical_formula_moiety         
'C192 H168 Co10 N48,3(C4 H12 N1 1+),C6 Co1 N6 3-,38(H2 O1)'
_chemical_name_systematic        
'tris(Tetramethylammonium) dodecakis(\m~2~-cyano)-dodecakis(N-(2-pyridylmethylene)-(S)-1-phenylethylamine)-dodecacyano-deca-cobalt hexacyano-cobalt octatriacontahydrate'
_symmetry_cell_setting           cubic
_symmetry_space_group_name_H-M   'F 2 3'
_symmetry_Int_Tables_number      196
_space_group_name_Hall           'F 2 2 3'
loop_
_symmetry_equiv_pos_site_id
_symmetry_equiv_pos_as_xyz
1 x,y,z
2 -x,-y,z
3 x,-y,-z
4 -x,y,-z
5 z,x,y
6 y,z,x
7 -z,-x,y
8 -y,z,-x
9 z,-x,-y
10 -y,-z,x
11 -z,x,-y
12 y,-z,-x
13 x,1/2+y,1/2+z
14 -x,1/2-y,1/2+z
15 x,1/2-y,1/2-z
16 -x,1/2+y,1/2-z
17 z,1/2+x,1/2+y
18 y,1/2+z,1/2+x
19 -z,1/2-x,1/2+y
20 -y,1/2+z,1/2-x
21 z,1/2-x,1/2-y
22 -y,1/2-z,1/2+x
23 -z,1/2+x,1/2-y
24 y,1/2-z,1/2-x
25 1/2+x,y,1/2+z
26 1/2-x,-y,1/2+z
27 1/2+x,-y,1/2-z
28 1/2-x,y,1/2-z
29 1/2+z,x,1/2+y
30 1/2+y,z,1/2+x
31 1/2-z,-x,1/2+y
32 1/2-y,z,1/2-x
33 1/2+z,-x,1/2-y
34 1/2-y,-z,1/2+x
35 1/2-z,x,1/2-y
36 1/2+y,-z,1/2-x
37 1/2+x,1/2+y,z
38 1/2-x,1/2-y,z
39 1/2+x,1/2-y,-z
40 1/2-x,1/2+y,-z
41 1/2+z,1/2+x,y
42 1/2+y,1/2+z,x
43 1/2-z,1/2-x,y
44 1/2-y,1/2+z,-x
45 1/2+z,1/2-x,-y
46 1/2-y,1/2-z,x
47 1/2-z,1/2+x,-y
48 1/2+y,1/2-z,-x
_cell_length_a                   28.287(6)
_cell_length_b                   28.287(6)
_cell_length_c                   28.287(6)
_cell_angle_alpha                90
_cell_angle_beta                 90
_cell_angle_gamma                90
_cell_volume                     22634
_exptl_crystal_colour            yellow
_exptl_crystal_description       cube
_cell_formula_units_Z            4
loop_
_atom_site_label
_atom_site_type_symbol
_atom_site_fract_x
_atom_site_fract_y
_atom_site_fract_z
Co1 Co 0.19621(4) 0.0000 0.0000
Co2 Co 0.10956(4) -0.10956(4) -0.10956(4)
N1 N 0.2024(2) -0.0632(2) 0.0402(2)
N2 N 0.2471(2) 0.0198(3) 0.0560(3)
N3 N 0.1466(2) -0.0307(3) -0.0457(3)
N4 N 0.1894(3) -0.1731(3) -0.0751(3)
C1 C 0.1795(3) -0.1028(4) 0.0333(3)
H1 H 0.1573 -0.1047 0.0082
C2 C 0.1868(3) -0.1418(4) 0.0612(4)
H2 H 0.1718 -0.1709 0.0536
C3 C 0.2150(4) -0.1389(4) 0.0995(4)
H3 H 0.2172 -0.1648 0.1208
C4 C 0.2407(3) -0.0984(4) 0.1077(3)
H4 H 0.2632 -0.0961 0.1325
C5 C 0.2318(3) -0.0615(3) 0.0776(3)
C6 C 0.2538(3) -0.0130(4) 0.0856(3)
H5 H 0.2726 -0.0073 0.1128
C7 C 0.2630(3) 0.0674(3) 0.0657(3)
H6 H 0.2354 0.0890 0.0607
C8 C 0.2815(4) 0.0757(3) 0.1167(3)
H7 H 0.2570 0.0667 0.1395
H8 H 0.2893 0.1092 0.1208
H9 H 0.3098 0.0565 0.1220
C9 C 0.3000(3) 0.0811(3) 0.0317(3)
C10 C 0.3411(4) 0.0568(4) 0.0243(4)
H10 H 0.3470 0.0278 0.0402
C11 C 0.3744(5) 0.0755(6) -0.0072(6)
H11 H 0.4025 0.0578 -0.0122
C12 C 0.3705(6) 0.1118(6) -0.0283(4)
H12 H 0.3954 0.1228 -0.0480
C13 C 0.3288(5) 0.1379(4) -0.0238(5)
H13 H 0.3241 0.1665 -0.0407
C14 C 0.2947(3) 0.1203(3) 0.0063(4)
H14 H 0.2658 0.1372 0.0091
C15 C 0.1311(3) -0.0612(4) -0.0706(3)
C16 C 0.1588(4) -0.1482(3) -0.0875(3)
Co2B Co 0.10956(4) 0.10956(4) 0.10956(4)
N1B N 0.2024(2) 0.0632(2) -0.0402(2)
N2B N 0.2471(2) -0.0198(3) -0.0560(3)
N3B N 0.1466(2) 0.0307(3) 0.0457(3)
N4B N 0.1894(3) 0.1731(3) 0.0751(3)
C1B C 0.1795(3) 0.1028(4) -0.0333(3)
H1B H 0.1573 0.1047 -0.0082
C2B C 0.1868(3) 0.1418(4) -0.0612(4)
H2B H 0.1718 0.1709 -0.0536
C3B C 0.2150(4) 0.1389(4) -0.0995(4)
H3B H 0.2172 0.1648 -0.1208
C4B C 0.2407(3) 0.0984(4) -0.1077(3)
H4B H 0.2632 0.0961 -0.1325
C5B C 0.2318(3) 0.0615(3) -0.0776(3)
C6B C 0.2538(3) 0.0130(4) -0.0856(3)
H5B H 0.2726 0.0073 -0.1128
C7B C 0.2630(3) -0.0674(3) -0.0657(3)
H6B H 0.2354 -0.0890 -0.0607
C8B C 0.2815(4) -0.0757(3) -0.1167(3)
H7B H 0.2570 -0.0667 -0.1395
H8B H 0.2893 -0.1092 -0.1208
H9B H 0.3098 -0.0565 -0.1220
C9B C 0.3000(3) -0.0811(3) -0.0317(3)
C10B C 0.3411(4) -0.0568(4) -0.0243(4)
H10B H 0.3470 -0.0278 -0.0402
C11B C 0.3744(5) -0.0755(6) 0.0072(6)
H11B H 0.4025 -0.0578 0.0122
C12B C 0.3705(6) -0.1118(6) 0.0283(4)
H12B H 0.3954 -0.1228 0.0480
C13B C 0.3288(5) -0.1379(4) 0.0238(5)
H13B H 0.3241 -0.1665 0.0407
C14B C 0.2947(3) -0.1203(3) -0.0063(4)
H14B H 0.2658 -0.1372 -0.0091
C15B C 0.1311(3) 0.0612(4) 0.0706(3)
C16B C 0.1588(4) 0.1482(3) 0.0875(3)
Co1F Co 0.0000 -0.19621(4) 0.0000
N1F N -0.0402(2) -0.2024(2) -0.0632(2)
N2F N -0.0560(3) -0.2471(2) 0.0198(3)
N3F N 0.0457(3) -0.1466(2) -0.0307(3)
N4F N 0.0751(3) -0.1894(3) -0.1731(3)
C1F C -0.0333(3) -0.1795(3) -0.1028(4)
H1F H -0.0082 -0.1573 -0.1047
C2F C -0.0612(4) -0.1868(3) -0.1418(4)
H2F H -0.0536 -0.1718 -0.1709
C3F C -0.0995(4) -0.2150(4) -0.1389(4)
H3F H -0.1208 -0.2172 -0.1648
C4F C -0.1077(3) -0.2407(3) -0.0984(4)
H4F H -0.1325 -0.2632 -0.0961
C5F C -0.0776(3) -0.2318(3) -0.0615(3)
C6F C -0.0856(3) -0.2538(3) -0.0130(4)
H5F H -0.1128 -0.2726 -0.0073
C7F C -0.0657(3) -0.2630(3) 0.0674(3)
H6F H -0.0607 -0.2354 0.0890
C8F C -0.1167(3) -0.2815(4) 0.0757(3)
H7F H -0.1395 -0.2570 0.0667
H8F H -0.1208 -0.2893 0.1092
H9F H -0.1220 -0.3098 0.0565
C9F C -0.0317(3) -0.3000(3) 0.0811(3)
C10F C -0.0243(4) -0.3411(4) 0.0568(4)
H10F H -0.0402 -0.3470 0.0278
C11F C 0.0072(6) -0.3744(5) 0.0755(6)
H11F H 0.0122 -0.4025 0.0578
C12F C 0.0283(4) -0.3705(6) 0.1118(6)
H12F H 0.0480 -0.3954 0.1228
C13F C 0.0238(5) -0.3288(5) 0.1379(4)
H13F H 0.0407 -0.3241 0.1665
C14F C -0.0063(4) -0.2947(3) 0.1203(3)
H14F H -0.0091 -0.2658 0.1372
C15F C 0.0706(3) -0.1311(3) -0.0612(4)
C16F C 0.0875(3) -0.1588(4) -0.1482(3)
Co1G Co 0.0000 0.0000 -0.19621(4)
N1G N 0.0632(2) 0.0402(2) -0.2024(2)
N2G N -0.0198(3) 0.0560(3) -0.2471(2)
N3G N 0.0307(3) -0.0457(3) -0.1466(2)
N4G N 0.1731(3) -0.0751(3) -0.1894(3)
C1G C 0.1028(4) 0.0333(3) -0.1795(3)
H1G H 0.1047 0.0082 -0.1573
C2G C 0.1418(4) 0.0612(4) -0.1868(3)
H2G H 0.1709 0.0536 -0.1718
C3G C 0.1389(4) 0.0995(4) -0.2150(4)
H3G H 0.1648 0.1208 -0.2172
C4G C 0.0984(4) 0.1077(3) -0.2407(3)
H4G H 0.0961 0.1325 -0.2632
C5G C 0.0615(3) 0.0776(3) -0.2318(3)
C6G C 0.0130(4) 0.0856(3) -0.2538(3)
H5G H 0.0073 0.1128 -0.2726
C7G C -0.0674(3) 0.0657(3) -0.2630(3)
H6G H -0.0890 0.0607 -0.2354
C8G C -0.0757(3) 0.1167(3) -0.2815(4)
H7G H -0.0667 0.1395 -0.2570
H8G H -0.1092 0.1208 -0.2893
H9G H -0.0565 0.1220 -0.3098
C9G C -0.0811(3) 0.0317(3) -0.3000(3)
C10G C -0.0568(4) 0.0243(4) -0.3411(4)
H10G H -0.0278 0.0402 -0.3470
C11G C -0.0755(6) -0.0072(6) -0.3744(5)
H11G H -0.0578 -0.0122 -0.4025
C12G C -0.1118(6) -0.0283(4) -0.3705(6)
H12G H -0.1228 -0.0480 -0.3954
C13G C -0.1379(4) -0.0238(5) -0.3288(5)
H13G H -0.1665 -0.0407 -0.3241
C14G C -0.1203(3) 0.0063(4) -0.2947(3)
H14G H -0.1372 0.0091 -0.2658
C15G C 0.0612(4) -0.0706(3) -0.1311(3)
C16G C 0.1482(3) -0.0875(3) -0.1588(4)
Co2C Co -0.10956(4) -0.10956(4) 0.10956(4)
N1H N 0.0402(2) -0.2024(2) 0.0632(2)
N2H N 0.0560(3) -0.2471(2) -0.0198(3)
N3H N -0.0457(3) -0.1466(2) 0.0307(3)
N4H N -0.0751(3) -0.1894(3) 0.1731(3)
C1H C 0.0333(3) -0.1795(3) 0.1028(4)
H1H H 0.0082 -0.1573 0.1047
C2H C 0.0612(4) -0.1868(3) 0.1418(4)
H2H H 0.0536 -0.1718 0.1709
C3H C 0.0995(4) -0.2150(4) 0.1389(4)
H3H H 0.1208 -0.2172 0.1648
C4H C 0.1077(3) -0.2407(3) 0.0984(4)
H4H H 0.1325 -0.2632 0.0961
C5H C 0.0776(3) -0.2318(3) 0.0615(3)
C6H C 0.0856(3) -0.2538(3) 0.0130(4)
H5H H 0.1128 -0.2726 0.0073
C7H C 0.0657(3) -0.2630(3) -0.0674(3)
H6H H 0.0607 -0.2354 -0.0890
C8H C 0.1167(3) -0.2815(4) -0.0757(3)
H7H H 0.1395 -0.2570 -0.0667
H8H H 0.1208 -0.2893 -0.1092
H9H H 0.1220 -0.3098 -0.0565
C9H C 0.0317(3) -0.3000(3) -0.0811(3)
C10H C 0.0243(4) -0.3411(4) -0.0568(4)
H10H H 0.0402 -0.3470 -0.0278
C11H C -0.0072(6) -0.3744(5) -0.0755(6)
H11H H -0.0122 -0.4025 -0.0578
C12H C -0.0283(4) -0.3705(6) -0.1118(6)
H12H H -0.0480 -0.3954 -0.1228
C13H C -0.0238(5) -0.3288(5) -0.1379(4)
H13H H -0.0407 -0.3241 -0.1665
C14H C 0.0063(4) -0.2947(3) -0.1203(3)
H14H H 0.0091 -0.2658 -0.1372
C15H C -0.0706(3) -0.1311(3) 0.0612(4)
C16H C -0.0875(3) -0.1588(4) 0.1482(3)
Co1E Co 0.0000 0.0000 0.19621(4)
N1I N 0.0632(2) -0.0402(2) 0.2024(2)
N2I N -0.0198(3) -0.0560(3) 0.2471(2)
N3I N 0.0307(3) 0.0457(3) 0.1466(2)
N4I N 0.1731(3) 0.0751(3) 0.1894(3)
C1I C 0.1028(4) -0.0333(3) 0.1795(3)
H1I H 0.1047 -0.0082 0.1573
C2I C 0.1418(4) -0.0612(4) 0.1868(3)
H2I H 0.1709 -0.0536 0.1718
C3I C 0.1389(4) -0.0995(4) 0.2150(4)
H3I H 0.1648 -0.1208 0.2172
C4I C 0.0984(4) -0.1077(3) 0.2407(3)
H4I H 0.0961 -0.1325 0.2632
C5I C 0.0615(3) -0.0776(3) 0.2318(3)
C6I C 0.0130(4) -0.0856(3) 0.2538(3)
H5I H 0.0073 -0.1128 0.2726
C7I C -0.0674(3) -0.0657(3) 0.2630(3)
H6I H -0.0890 -0.0607 0.2354
C8I C -0.0757(3) -0.1167(3) 0.2815(4)
H7I H -0.0667 -0.1395 0.2570
H8I H -0.1092 -0.1208 0.2893
H9I H -0.0565 -0.1220 0.3098
C9I C -0.0811(3) -0.0317(3) 0.3000(3)
C10I C -0.0568(4) -0.0243(4) 0.3411(4)
H10I H -0.0278 -0.0402 0.3470
C11I C -0.0755(6) 0.0072(6) 0.3744(5)
H11I H -0.0578 0.0122 0.4025
C12I C -0.1118(6) 0.0283(4) 0.3705(6)
H12I H -0.1228 0.0480 0.3954
C13I C -0.1379(4) 0.0238(5) 0.3288(5)
H13I H -0.1665 0.0407 0.3241
C14I C -0.1203(3) -0.0063(4) 0.2947(3)
H14I H -0.1372 -0.0091 0.2658
C15I C 0.0612(4) 0.0706(3) 0.1311(3)
C16I C 0.1482(3) 0.0875(3) 0.1588(4)
Co1D Co 0.0000 0.19621(4) 0.0000
N1J N -0.0402(2) 0.2024(2) 0.0632(2)
N2J N -0.0560(3) 0.2471(2) -0.0198(3)
N3J N 0.0457(3) 0.1466(2) 0.0307(3)
N4J N 0.0751(3) 0.1894(3) 0.1731(3)
C1J C -0.0333(3) 0.1795(3) 0.1028(4)
H1J H -0.0082 0.1573 0.1047
C2J C -0.0612(4) 0.1868(3) 0.1418(4)
H2J H -0.0536 0.1718 0.1709
C3J C -0.0995(4) 0.2150(4) 0.1389(4)
H3J H -0.1208 0.2172 0.1648
C4J C -0.1077(3) 0.2407(3) 0.0984(4)
H4J H -0.1325 0.2632 0.0961
C5J C -0.0776(3) 0.2318(3) 0.0615(3)
C6J C -0.0856(3) 0.2538(3) 0.0130(4)
H5J H -0.1128 0.2726 0.0073
C7J C -0.0657(3) 0.2630(3) -0.0674(3)
H6J H -0.0607 0.2354 -0.0890
C8J C -0.1167(3) 0.2815(4) -0.0757(3)
H7J H -0.1395 0.2570 -0.0667
H8J H -0.1208 0.2893 -0.1092
H9J H -0.1220 0.3098 -0.0565
C9J C -0.0317(3) 0.3000(3) -0.0811(3)
C10J C -0.0243(4) 0.3411(4) -0.0568(4)
H10J H -0.0402 0.3470 -0.0278
C11J C 0.0072(6) 0.3744(5) -0.0755(6)
H11J H 0.0122 0.4025 -0.0578
C12J C 0.0283(4) 0.3705(6) -0.1118(6)
H12J H 0.0480 0.3954 -0.1228
C13J C 0.0238(5) 0.3288(5) -0.1379(4)
H13J H 0.0407 0.3241 -0.1665
C14J C -0.0063(4) 0.2947(3) -0.1203(3)
H14J H -0.0091 0.2658 -0.1372
C15J C 0.0706(3) 0.1311(3) 0.0612(4)
C16J C 0.0875(3) 0.1588(4) 0.1482(3)
Co2A Co -0.10956(4) 0.10956(4) -0.10956(4)
N1K N -0.0632(2) -0.0402(2) -0.2024(2)
N2K N 0.0198(3) -0.0560(3) -0.2471(2)
N3K N -0.0307(3) 0.0457(3) -0.1466(2)
N4K N -0.1731(3) 0.0751(3) -0.1894(3)
C1K C -0.1028(4) -0.0333(3) -0.1795(3)
H1K H -0.1047 -0.0082 -0.1573
C2K C -0.1418(4) -0.0612(4) -0.1868(3)
H2K H -0.1709 -0.0536 -0.1718
C3K C -0.1389(4) -0.0995(4) -0.2150(4)
H3K H -0.1648 -0.1208 -0.2172
C4K C -0.0984(4) -0.1077(3) -0.2407(3)
H4K H -0.0961 -0.1325 -0.2632
C5K C -0.0615(3) -0.0776(3) -0.2318(3)
C6K C -0.0130(4) -0.0856(3) -0.2538(3)
H5K H -0.0073 -0.1128 -0.2726
C7K C 0.0674(3) -0.0657(3) -0.2630(3)
H6K H 0.0890 -0.0607 -0.2354
C8K C 0.0757(3) -0.1167(3) -0.2815(4)
H7K H 0.0667 -0.1395 -0.2570
H8K H 0.1092 -0.1208 -0.2893
H9K H 0.0565 -0.1220 -0.3098
C9K C 0.0811(3) -0.0317(3) -0.3000(3)
C10K C 0.0568(4) -0.0243(4) -0.3411(4)
H10K H 0.0278 -0.0402 -0.3470
C11K C 0.0755(6) 0.0072(6) -0.3744(5)
H11K H 0.0578 0.0122 -0.4025
C12K C 0.1118(6) 0.0283(4) -0.3705(6)
H12K H 0.1228 0.0480 -0.3954
C13K C 0.1379(4) 0.0238(5) -0.3288(5)
H13K H 0.1665 0.0407 -0.3241
C14K C 0.1203(3) -0.0063(4) -0.2947(3)
H14K H 0.1372 -0.0091 -0.2658
C15K C -0.0612(4) 0.0706(3) -0.1311(3)
C16K C -0.1482(3) 0.0875(3) -0.1588(4)
Co1A Co -0.19621(4) 0.0000 0.0000
N1A N -0.2024(2) 0.0632(2) 0.0402(2)
N2A N -0.2471(2) -0.0198(3) 0.0560(3)
N3A N -0.1466(2) 0.0307(3) -0.0457(3)
N4A N -0.1894(3) 0.1731(3) -0.0751(3)
C1A C -0.1795(3) 0.1028(4) 0.0333(3)
H1A H -0.1573 0.1047 0.0082
C2A C -0.1868(3) 0.1418(4) 0.0612(4)
H2A H -0.1718 0.1709 0.0536
C3A C -0.2150(4) 0.1389(4) 0.0995(4)
H3A H -0.2172 0.1648 0.1208
C4A C -0.2407(3) 0.0984(4) 0.1077(3)
H4A H -0.2632 0.0961 0.1325
C5A C -0.2318(3) 0.0615(3) 0.0776(3)
C6A C -0.2538(3) 0.0130(4) 0.0856(3)
H5A H -0.2726 0.0073 0.1128
C7A C -0.2630(3) -0.0674(3) 0.0657(3)
H6A H -0.2354 -0.0890 0.0607
C8A C -0.2815(4) -0.0757(3) 0.1167(3)
H7A H -0.2570 -0.0667 0.1395
H8A H -0.2893 -0.1092 0.1208
H9A H -0.3098 -0.0565 0.1220
C9A C -0.3000(3) -0.0811(3) 0.0317(3)
C10A C -0.3411(4) -0.0568(4) 0.0243(4)
H10A H -0.3470 -0.0278 0.0402
C11A C -0.3744(5) -0.0755(6) -0.0072(6)
H11A H -0.4025 -0.0578 -0.0122
C12A C -0.3705(6) -0.1118(6) -0.0283(4)
H12A H -0.3954 -0.1228 -0.0480
C13A C -0.3288(5) -0.1379(4) -0.0238(5)
H13A H -0.3241 -0.1665 -0.0407
C14A C -0.2947(3) -0.1203(3) 0.0063(4)
H14A H -0.2658 -0.1372 0.0091
C15A C -0.1311(3) 0.0612(4) -0.0706(3)
C16A C -0.1588(4) 0.1482(3) -0.0875(3)
N1C N -0.2024(2) -0.0632(2) -0.0402(2)
N2C N -0.2471(2) 0.0198(3) -0.0560(3)
N3C N -0.1466(2) -0.0307(3) 0.0457(3)
N4C N -0.1894(3) -0.1731(3) 0.0751(3)
C1C C -0.1795(3) -0.1028(4) -0.0333(3)
H1C H -0.1573 -0.1047 -0.0082
C2C C -0.1868(3) -0.1418(4) -0.0612(4)
H2C H -0.1718 -0.1709 -0.0536
C3C C -0.2150(4) -0.1389(4) -0.0995(4)
H3C H -0.2172 -0.1648 -0.1208
C4C C -0.2407(3) -0.0984(4) -0.1077(3)
H4C H -0.2632 -0.0961 -0.1325
C5C C -0.2318(3) -0.0615(3) -0.0776(3)
C6C C -0.2538(3) -0.0130(4) -0.0856(3)
H5C H -0.2726 -0.0073 -0.1128
C7C C -0.2630(3) 0.0674(3) -0.0657(3)
H6C H -0.2354 0.0890 -0.0607
C8C C -0.2815(4) 0.0757(3) -0.1167(3)
H7C H -0.2570 0.0667 -0.1395
H8C H -0.2893 0.1092 -0.1208
H9C H -0.3098 0.0565 -0.1220
C9C C -0.3000(3) 0.0811(3) -0.0317(3)
C10C C -0.3411(4) 0.0568(4) -0.0243(4)
H10C H -0.3470 0.0278 -0.0402
C11C C -0.3744(5) 0.0755(6) 0.0072(6)
H11C H -0.4025 0.0578 0.0122
C12C C -0.3705(6) 0.1118(6) 0.0283(4)
H12C H -0.3954 0.1228 0.0480
C13C C -0.3288(5) 0.1379(4) 0.0238(5)
H13C H -0.3241 0.1665 0.0407
C14C C -0.2947(3) 0.1203(3) -0.0063(4)
H14C H -0.2658 0.1372 -0.0091
C15C C -0.1311(3) -0.0612(4) 0.0706(3)
C16C C -0.1588(4) -0.1482(3) 0.0875(3)
N1D N 0.0402(2) 0.2024(2) -0.0632(2)
N2D N 0.0560(3) 0.2471(2) 0.0198(3)
N3D N -0.0457(3) 0.1466(2) -0.0307(3)
N4D N -0.0751(3) 0.1894(3) -0.1731(3)
C1D C 0.0333(3) 0.1795(3) -0.1028(4)
H1D H 0.0082 0.1573 -0.1047
C2D C 0.0612(4) 0.1868(3) -0.1418(4)
H2D H 0.0536 0.1718 -0.1709
C3D C 0.0995(4) 0.2150(4) -0.1389(4)
H3D H 0.1208 0.2172 -0.1648
C4D C 0.1077(3) 0.2407(3) -0.0984(4)
H4D H 0.1325 0.2632 -0.0961
C5D C 0.0776(3) 0.2318(3) -0.0615(3)
C6D C 0.0856(3) 0.2538(3) -0.0130(4)
H5D H 0.1128 0.2726 -0.0073
C7D C 0.0657(3) 0.2630(3) 0.0674(3)
H6D H 0.0607 0.2354 0.0890
C8D C 0.1167(3) 0.2815(4) 0.0757(3)
H7D H 0.1395 0.2570 0.0667
H8D H 0.1208 0.2893 0.1092
H9D H 0.1220 0.3098 0.0565
C9D C 0.0317(3) 0.3000(3) 0.0811(3)
C10D C 0.0243(4) 0.3411(4) 0.0568(4)
H10D H 0.0402 0.3470 0.0278
C11D C -0.0072(6) 0.3744(5) 0.0755(6)
H11D H -0.0122 0.4025 0.0578
C12D C -0.0283(4) 0.3705(6) 0.1118(6)
H12D H -0.0480 0.3954 0.1228
C13D C -0.0238(5) 0.3288(5) 0.1379(4)
H13D H -0.0407 0.3241 0.1665
C14D C 0.0063(4) 0.2947(3) 0.1203(3)
H14D H 0.0091 0.2658 0.1372
C15D C -0.0706(3) 0.1311(3) -0.0612(4)
C16D C -0.0875(3) 0.1588(4) -0.1482(3)
N1E N -0.0632(2) 0.0402(2) 0.2024(2)
N2E N 0.0198(3) 0.0560(3) 0.2471(2)
N3E N -0.0307(3) -0.0457(3) 0.1466(2)
N4E N -0.1731(3) -0.0751(3) 0.1894(3)
C1E C -0.1028(4) 0.0333(3) 0.1795(3)
H1E H -0.1047 0.0082 0.1573
C2E C -0.1418(4) 0.0612(4) 0.1868(3)
H2E H -0.1709 0.0536 0.1718
C3E C -0.1389(4) 0.0995(4) 0.2150(4)
H3E H -0.1648 0.1208 0.2172
C4E C -0.0984(4) 0.1077(3) 0.2407(3)
H4E H -0.0961 0.1325 0.2632
C5E C -0.0615(3) 0.0776(3) 0.2318(3)
C6E C -0.0130(4) 0.0856(3) 0.2538(3)
H5E H -0.0073 0.1128 0.2726
C7E C 0.0674(3) 0.0657(3) 0.2630(3)
H6E H 0.0890 0.0607 0.2354
C8E C 0.0757(3) 0.1167(3) 0.2815(4)
H7E H 0.0667 0.1395 0.2570
H8E H 0.1092 0.1208 0.2893
H9E H 0.0565 0.1220 0.3098
C9E C 0.0811(3) 0.0317(3) 0.3000(3)
C10E C 0.0568(4) 0.0243(4) 0.3411(4)
H10E H 0.0278 0.0402 0.3470
C11E C 0.0755(6) -0.0072(6) 0.3744(5)
H11E H 0.0578 -0.0122 0.4025
C12E C 0.1118(6) -0.0283(4) 0.3705(6)
H12E H 0.1228 -0.0480 0.3954
C13E C 0.1379(4) -0.0238(5) 0.3288(5)
H13E H 0.1665 -0.0407 0.3241
C14E C 0.1203(3) 0.0063(4) 0.2947(3)
H14E H 0.1372 0.0091 0.2658
C15E C -0.0612(4) -0.0706(3) 0.1311(3)
C16E C -0.1482(3) -0.0875(3) 0.1588(4)
Co3 Co 0.2500 0.2500 -0.2500
N5 N 0.2500 0.2500 -0.1463(7)
C17 C 0.2500 0.2500 -0.1836(8)
N5J N 0.1463(7) 0.2500 -0.2500
C17J C 0.1836(8) 0.2500 -0.2500
N5K N 0.2500 0.1463(7) -0.2500
C17K C 0.2500 0.1836(8) -0.2500
N5N N 0.2500 0.2500 -0.3537(7)
C17N C 0.2500 0.2500 -0.3164(8)
N5Q N 0.2500 0.3537(7) -0.2500
C17Q C 0.2500 0.3164(8) -0.2500
N5BA N 0.3537(7) 0.2500 -0.2500
C17BA C 0.3164(8) 0.2500 -0.2500
N6 N 0.0000 0.0000 0.0000
C18 C 0.0293(3) 0.0293(3) -0.0293(3)
H15 H 0.0149 0.0606 -0.0324
C18A C -0.0293(3) -0.0293(3) -0.0293(3)
H15A H -0.0149 -0.0606 -0.0324
C18B C 0.0293(3) -0.0293(3) 0.0293(3)
H15B H 0.0149 -0.0606 0.0324
C18C C -0.0293(3) 0.0293(3) 0.0293(3)
H15C H -0.0149 0.0606 0.0324
H15D H -0.0324 0.0149 0.0606
H15E H 0.0606 -0.0324 0.0149
H15F H 0.0324 -0.0149 0.0606
H15G H -0.0606 -0.0324 -0.0149
H15H H -0.0324 -0.0149 -0.0606
H15I H -0.0606 0.0324 0.0149
H15J H 0.0324 0.0149 -0.0606
H15K H 0.0606 0.0324 -0.0149
O1 O 0.1610(4) -0.1610(4) 0.3390(4)
O2 O 0.2500 0.0039(16) 0.2500
O3 O 0.3125(6) 0.1875(6) 0.1875(6)
O4 O 0.2125(6) 0.2643(6) -0.0523(7)
loop_
_geom_bond_atom_site_label_1
_geom_bond_atom_site_label_2
_geom_bond_site_symmetry_1
_geom_bond_site_symmetry_2
Co1 N1 1_555 1_555
Co2 C15 1_555 1_555
N1 C1 1_555 1_555
N2 Co1 1_555 1_555
N3 Co1 1_555 1_555
N4 C16 1_555 1_555
C1 H1 1_555 1_555
C2 C1 1_555 1_555
H2 C2 1_555 1_555
C3 C2 1_555 1_555
H3 C3 1_555 1_555
C4 C3 1_555 1_555
H4 C4 1_555 1_555
C5 N1 1_555 1_555
C6 N2 1_555 1_555
H5 C6 1_555 1_555
C7 N2 1_555 1_555
H6 C7 1_555 1_555
C8 C7 1_555 1_555
H7 C8 1_555 1_555
H8 C8 1_555 1_555
H9 C8 1_555 1_555
C9 C7 1_555 1_555
C10 C9 1_555 1_555
H10 C10 1_555 1_555
C11 C10 1_555 1_555
H11 C11 1_555 1_555
C12 C11 1_555 1_555
H12 C12 1_555 1_555
C13 C12 1_555 1_555
H13 C13 1_555 1_555
C14 C9 1_555 1_555
H14 C14 1_555 1_555
C15 N3 1_555 1_555
C16 Co2 1_555 1_555
Co3 C17 1_555 1_555
N5 C17 1_555 1_555
N6 C18 1_555 1_555
C18 H15 1_555 1_555
Co2B C15B 1_555 1_555
N1B Co1 1_555 1_555
N2B Co1 1_555 1_555
N3B Co1 1_555 1_555
N4B C16B 1_555 1_555
C1B N1B 1_555 1_555
H1B C1B 1_555 1_555
C2B C1B 1_555 1_555
H2B C2B 1_555 1_555
C3B C2B 1_555 1_555
H3B C3B 1_555 1_555
C4B C3B 1_555 1_555
H4B C4B 1_555 1_555
C5B N1B 1_555 1_555
C6B N2B 1_555 1_555
H5B C6B 1_555 1_555
C7B N2B 1_555 1_555
H6B C7B 1_555 1_555
C8B C7B 1_555 1_555
H7B C8B 1_555 1_555
H8B C8B 1_555 1_555
H9B C8B 1_555 1_555
C9B C7B 1_555 1_555
C10B C9B 1_555 1_555
H10B C10B 1_555 1_555
C11B C10B 1_555 1_555
H11B C11B 1_555 1_555
C12B C11B 1_555 1_555
H12B C12B 1_555 1_555
C13B C12B 1_555 1_555
H13B C13B 1_555 1_555
C14B C9B 1_555 1_555
H14B C14B 1_555 1_555
C15B N3B 1_555 1_555
C16B Co2B 1_555 1_555
Co1F N1F 1_555 1_555
N1F C1F 1_555 1_555
N2F Co1F 1_555 1_555
N3F Co1F 1_555 1_555
N4F C16F 1_555 1_555
C1F H1F 1_555 1_555
C2F C1F 1_555 1_555
H2F C2F 1_555 1_555
C3F C2F 1_555 1_555
H3F C3F 1_555 1_555
C4F C3F 1_555 1_555
H4F C4F 1_555 1_555
C5F N1F 1_555 1_555
C6F N2F 1_555 1_555
H5F C6F 1_555 1_555
C7F N2F 1_555 1_555
H6F C7F 1_555 1_555
C8F C7F 1_555 1_555
H7F C8F 1_555 1_555
H8F C8F 1_555 1_555
H9F C8F 1_555 1_555
C9F C7F 1_555 1_555
C10F C9F 1_555 1_555
H10F C10F 1_555 1_555
C11F C10F 1_555 1_555
H11F C11F 1_555 1_555
C12F C11F 1_555 1_555
H12F C12F 1_555 1_555
C13F C12F 1_555 1_555
H13F C13F 1_555 1_555
C14F C9F 1_555 1_555
H14F C14F 1_555 1_555
C15F Co2 1_555 1_555
C16F Co2 1_555 1_555
Co1G N1G 1_555 1_555
N1G C1G 1_555 1_555
N2G Co1G 1_555 1_555
N3G Co1G 1_555 1_555
N4G C16G 1_555 1_555
C1G H1G 1_555 1_555
C2G C1G 1_555 1_555
H2G C2G 1_555 1_555
C3G C2G 1_555 1_555
H3G C3G 1_555 1_555
C4G C3G 1_555 1_555
H4G C4G 1_555 1_555
C5G N1G 1_555 1_555
C6G N2G 1_555 1_555
H5G C6G 1_555 1_555
C7G N2G 1_555 1_555
H6G C7G 1_555 1_555
C8G C7G 1_555 1_555
H7G C8G 1_555 1_555
H8G C8G 1_555 1_555
H9G C8G 1_555 1_555
C9G C7G 1_555 1_555
C10G C9G 1_555 1_555
H10G C10G 1_555 1_555
C11G C10G 1_555 1_555
H11G C11G 1_555 1_555
C12G C11G 1_555 1_555
H12G C12G 1_555 1_555
C13G C12G 1_555 1_555
H13G C13G 1_555 1_555
C14G C9G 1_555 1_555
H14G C14G 1_555 1_555
C15G Co2 1_555 1_555
C16G Co2 1_555 1_555
Co2C C15H 1_555 1_555
N1H Co1F 1_555 1_555
N2H Co1F 1_555 1_555
N3H Co1F 1_555 1_555
N4H C16H 1_555 1_555
C1H N1H 1_555 1_555
H1H C1H 1_555 1_555
C2H C1H 1_555 1_555
H2H C2H 1_555 1_555
C3H C2H 1_555 1_555
H3H C3H 1_555 1_555
C4H C3H 1_555 1_555
H4H C4H 1_555 1_555
C5H N1H 1_555 1_555
C6H N2H 1_555 1_555
H5H C6H 1_555 1_555
C7H N2H 1_555 1_555
H6H C7H 1_555 1_555
C8H C7H 1_555 1_555
H7H C8H 1_555 1_555
H8H C8H 1_555 1_555
H9H C8H 1_555 1_555
C9H C7H 1_555 1_555
C10H C9H 1_555 1_555
H10H C10H 1_555 1_555
C11H C10H 1_555 1_555
H11H C11H 1_555 1_555
C12H C11H 1_555 1_555
H12H C12H 1_555 1_555
C13H C12H 1_555 1_555
H13H C13H 1_555 1_555
C14H C9H 1_555 1_555
H14H C14H 1_555 1_555
C15H N3H 1_555 1_555
C16H Co2C 1_555 1_555
Co1E N1I 1_555 1_555
N1I C1I 1_555 1_555
N2I Co1E 1_555 1_555
N3I Co1E 1_555 1_555
N4I C16I 1_555 1_555
C1I H1I 1_555 1_555
C2I C1I 1_555 1_555
H2I C2I 1_555 1_555
C3I C2I 1_555 1_555
H3I C3I 1_555 1_555
C4I C3I 1_555 1_555
H4I C4I 1_555 1_555
C5I N1I 1_555 1_555
C6I N2I 1_555 1_555
H5I C6I 1_555 1_555
C7I N2I 1_555 1_555
H6I C7I 1_555 1_555
C8I C7I 1_555 1_555
H7I C8I 1_555 1_555
H8I C8I 1_555 1_555
H9I C8I 1_555 1_555
C9I C7I 1_555 1_555
C10I C9I 1_555 1_555
H10I C10I 1_555 1_555
C11I C10I 1_555 1_555
H11I C11I 1_555 1_555
C12I C11I 1_555 1_555
H12I C12I 1_555 1_555
C13I C12I 1_555 1_555
H13I C13I 1_555 1_555
C14I C9I 1_555 1_555
H14I C14I 1_555 1_555
C15I Co2B 1_555 1_555
C16I Co2B 1_555 1_555
Co1D N1J 1_555 1_555
N1J C1J 1_555 1_555
N2J Co1D 1_555 1_555
N3J Co1D 1_555 1_555
N4J C16J 1_555 1_555
C1J H1J 1_555 1_555
C2J C1J 1_555 1_555
H2J C2J 1_555 1_555
C3J C2J 1_555 1_555
H3J C3J 1_555 1_555
C4J C3J 1_555 1_555
H4J C4J 1_555 1_555
C5J N1J 1_555 1_555
C6J N2J 1_555 1_555
H5J C6J 1_555 1_555
C7J N2J 1_555 1_555
H6J C7J 1_555 1_555
C8J C7J 1_555 1_555
H7J C8J 1_555 1_555
H8J C8J 1_555 1_555
H9J C8J 1_555 1_555
C9J C7J 1_555 1_555
C10J C9J 1_555 1_555
H10J C10J 1_555 1_555
C11J C10J 1_555 1_555
H11J C11J 1_555 1_555
C12J C11J 1_555 1_555
H12J C12J 1_555 1_555
C13J C12J 1_555 1_555
H13J C13J 1_555 1_555
C14J C9J 1_555 1_555
H14J C14J 1_555 1_555
C15J Co2B 1_555 1_555
C16J Co2B 1_555 1_555
Co2A C15K 1_555 1_555
N1K Co1G 1_555 1_555
N2K Co1G 1_555 1_555
N3K Co1G 1_555 1_555
N4K C16K 1_555 1_555
C1K N1K 1_555 1_555
H1K C1K 1_555 1_555
C2K C1K 1_555 1_555
H2K C2K 1_555 1_555
C3K C2K 1_555 1_555
H3K C3K 1_555 1_555
C4K C3K 1_555 1_555
H4K C4K 1_555 1_555
C5K N1K 1_555 1_555
C6K N2K 1_555 1_555
H5K C6K 1_555 1_555
C7K N2K 1_555 1_555
H6K C7K 1_555 1_555
C8K C7K 1_555 1_555
H7K C8K 1_555 1_555
H8K C8K 1_555 1_555
H9K C8K 1_555 1_555
C9K C7K 1_555 1_555
C10K C9K 1_555 1_555
H10K C10K 1_555 1_555
C11K C10K 1_555 1_555
H11K C11K 1_555 1_555
C12K C11K 1_555 1_555
H12K C12K 1_555 1_555
C13K C12K 1_555 1_555
H13K C13K 1_555 1_555
C14K C9K 1_555 1_555
H14K C14K 1_555 1_555
C15K N3K 1_555 1_555
C16K Co2A 1_555 1_555
Co1A N1A 1_555 1_555
N1A C1A 1_555 1_555
N2A Co1A 1_555 1_555
N3A Co1A 1_555 1_555
N4A C16A 1_555 1_555
C1A H1A 1_555 1_555
C2A C1A 1_555 1_555
H2A C2A 1_555 1_555
C3A C2A 1_555 1_555
H3A C3A 1_555 1_555
C4A C3A 1_555 1_555
H4A C4A 1_555 1_555
C5A N1A 1_555 1_555
C6A N2A 1_555 1_555
H5A C6A 1_555 1_555
C7A N2A 1_555 1_555
H6A C7A 1_555 1_555
C8A C7A 1_555 1_555
H7A C8A 1_555 1_555
H8A C8A 1_555 1_555
H9A C8A 1_555 1_555
C9A C7A 1_555 1_555
C10A C9A 1_555 1_555
H10A C10A 1_555 1_555
C11A C10A 1_555 1_555
H11A C11A 1_555 1_555
C12A C11A 1_555 1_555
H12A C12A 1_555 1_555
C13A C12A 1_555 1_555
H13A C13A 1_555 1_555
C14A C9A 1_555 1_555
H14A C14A 1_555 1_555
C15A Co2A 1_555 1_555
C16A Co2A 1_555 1_555
N1C Co1A 1_555 1_555
N2C Co1A 1_555 1_555
N3C Co1A 1_555 1_555
N4C C16C 1_555 1_555
C1C N1C 1_555 1_555
H1C C1C 1_555 1_555
C2C C1C 1_555 1_555
H2C C2C 1_555 1_555
C3C C2C 1_555 1_555
H3C C3C 1_555 1_555
C4C C3C 1_555 1_555
H4C C4C 1_555 1_555
C5C N1C 1_555 1_555
C6C N2C 1_555 1_555
H5C C6C 1_555 1_555
C7C N2C 1_555 1_555
H6C C7C 1_555 1_555
C8C C7C 1_555 1_555
H7C C8C 1_555 1_555
H8C C8C 1_555 1_555
H9C C8C 1_555 1_555
C9C C7C 1_555 1_555
C10C C9C 1_555 1_555
H10C C10C 1_555 1_555
C11C C10C 1_555 1_555
H11C C11C 1_555 1_555
C12C C11C 1_555 1_555
H12C C12C 1_555 1_555
C13C C12C 1_555 1_555
H13C C13C 1_555 1_555
C14C C9C 1_555 1_555
H14C C14C 1_555 1_555
C15C Co2C 1_555 1_555
C16C Co2C 1_555 1_555
N1D Co1D 1_555 1_555
N2D Co1D 1_555 1_555
N3D Co1D 1_555 1_555
N4D C16D 1_555 1_555
C1D N1D 1_555 1_555
H1D C1D 1_555 1_555
C2D C1D 1_555 1_555
H2D C2D 1_555 1_555
C3D C2D 1_555 1_555
H3D C3D 1_555 1_555
C4D C3D 1_555 1_555
H4D C4D 1_555 1_555
C5D N1D 1_555 1_555
C6D N2D 1_555 1_555
H5D C6D 1_555 1_555
C7D N2D 1_555 1_555
H6D C7D 1_555 1_555
C8D C7D 1_555 1_555
H7D C8D 1_555 1_555
H8D C8D 1_555 1_555
H9D C8D 1_555 1_555
C9D C7D 1_555 1_555
C10D C9D 1_555 1_555
H10D C10D 1_555 1_555
C11D C10D 1_555 1_555
H11D C11D 1_555 1_555
C12D C11D 1_555 1_555
H12D C12D 1_555 1_555
C13D C12D 1_555 1_555
H13D C13D 1_555 1_555
C14D C9D 1_555 1_555
H14D C14D 1_555 1_555
C15D Co2A 1_555 1_555
C16D Co2A 1_555 1_555
N1E Co1E 1_555 1_555
N2E Co1E 1_555 1_555
N3E Co1E 1_555 1_555
N4E C16E 1_555 1_555
C1E N1E 1_555 1_555
H1E C1E 1_555 1_555
C2E C1E 1_555 1_555
H2E C2E 1_555 1_555
C3E C2E 1_555 1_555
H3E C3E 1_555 1_555
C4E C3E 1_555 1_555
H4E C4E 1_555 1_555
C5E N1E 1_555 1_555
C6E N2E 1_555 1_555
H5E C6E 1_555 1_555
C7E N2E 1_555 1_555
H6E C7E 1_555 1_555
C8E C7E 1_555 1_555
H7E C8E 1_555 1_555
H8E C8E 1_555 1_555
H9E C8E 1_555 1_555
C9E C7E 1_555 1_555
C10E C9E 1_555 1_555
H10E C10E 1_555 1_555
C11E C10E 1_555 1_555
H11E C11E 1_555 1_555
C12E C11E 1_555 1_555
H12E C12E 1_555 1_555
C13E C12E 1_555 1_555
H13E C13E 1_555 1_555
C14E C9E 1_555 1_555
H14E C14E 1_555 1_555
C15E Co2C 1_555 1_555
C16E Co2C 1_555 1_555
N5J C17J 1_555 1_555
C17J Co3 1_555 1_555
N5K C17K 1_555 1_555
C17K Co3 1_555 1_555
N5N C17N 1_555 1_555
C17N Co3 1_555 1_555
N5Q C17Q 1_555 1_555
C17Q Co3 1_555 1_555
N5BA C17BA 1_555 1_555
C17BA Co3 1_555 1_555
C18A N6 1_555 1_555
H15A C18A 1_555 1_555
C18B N6 1_555 1_555
H15B C18B 1_555 1_555
C18C N6 1_555 1_555
H15C C18C 1_555 1_555
H15D C18C 1_555 1_555
H15E C18B 1_555 1_555
H15F C18B 1_555 1_555
H15G C18A 1_555 1_555
H15H C18A 1_555 1_555
H15I C18C 1_555 1_555
H15J C18 1_555 1_555
H15K C18 1_555 1_555
C4 C5 1_555 1_555
C5 C6 1_555 1_555
C13 C14 1_555 1_555
C4B C5B 1_555 1_555
C5B C6B 1_555 1_555
C13B C14B 1_555 1_555
N3F C15F 1_555 1_555
C4F C5F 1_555 1_555
C5F C6F 1_555 1_555
C13F C14F 1_555 1_555
N3G C15G 1_555 1_555
C4G C5G 1_555 1_555
C5G C6G 1_555 1_555
C13G C14G 1_555 1_555
C4H C5H 1_555 1_555
C5H C6H 1_555 1_555
C13H C14H 1_555 1_555
N3I C15I 1_555 1_555
C4I C5I 1_555 1_555
C5I C6I 1_555 1_555
C13I C14I 1_555 1_555
N3J C15J 1_555 1_555
C4J C5J 1_555 1_555
C5J C6J 1_555 1_555
C13J C14J 1_555 1_555
C4K C5K 1_555 1_555
C5K C6K 1_555 1_555
C13K C14K 1_555 1_555
N3A C15A 1_555 1_555
C4A C5A 1_555 1_555
C5A C6A 1_555 1_555
C13A C14A 1_555 1_555
N3C C15C 1_555 1_555
C4C C5C 1_555 1_555
C5C C6C 1_555 1_555
C13C C14C 1_555 1_555
N3D C15D 1_555 1_555
C4D C5D 1_555 1_555
C5D C6D 1_555 1_555
C13D C14D 1_555 1_555
N3E C15E 1_555 1_555
C4E C5E 1_555 1_555
C5E C6E 1_555 1_555
C13E C14E 1_555 1_555

#END
