####################################################################### 
# 
# This file contains crystal structure data downloaded from the 
# Cambridge Structural Database (CSD) hosted by the Cambridge 
# Crystallographic Data Centre (CCDC).
# 
# Full information about CCDC data access policies and citation 
# guidelines are available at http://www.ccdc.cam.ac.uk/access/V1 
# 
# Audit and citation data items may have been added by the CCDC. 
# Please retain this information to preserve the provenance of 
# this file and to allow appropriate attribution of the data. 
# 
#######################################################################

data_comp1_Ni6Fe4cage
_audit_block_doi                 10.5517/ccy5t30
_database_code_depnum_ccdc_archive 'CCDC 869522'
loop_
_citation_id
_citation_doi
_citation_year
1 10.1002/masy.201200018 2012
_audit_update_record             
;
2012-02-28 deposited with the CCDC.	2019-03-04 downloaded from the CCDC.
;


_audit_creation_method           SHELXL-97
_chemical_name_systematic        
;
?
;
_chemical_name_common            ?
_chemical_melting_point          ?
_chemical_formula_moiety         
;
(C240 H191 Fe4 N48 Ni6)2, C84 H64 Fe2 N20 Ni2, 2(C8 H20 N), (C51 H306 O131)
;
_chemical_formula_sum            'C631 H834 N118 Ni14 Fe10 O131'
_chemical_formula_weight         13548.25

loop_
_atom_type_symbol
_atom_type_description
_atom_type_scat_dispersion_real
_atom_type_scat_dispersion_imag
_atom_type_scat_source
C C 0.0033 0.0016 'International Tables Vol C Tables 4.2.6.8 and 6.1.1.4'
H H 0.0000 0.0000 'International Tables Vol C Tables 4.2.6.8 and 6.1.1.4'
N N 0.0061 0.0033 'International Tables Vol C Tables 4.2.6.8 and 6.1.1.4'
O O 0.0106 0.0060 'International Tables Vol C Tables 4.2.6.8 and 6.1.1.4'
Fe Fe 0.3463 0.8444 'International Tables Vol C Tables 4.2.6.8 and 6.1.1.4'
Ni Ni 0.3393 1.1124 'International Tables Vol C Tables 4.2.6.8 and 6.1.1.4'

_symmetry_cell_setting           Monoclinic
_symmetry_space_group_name_H-M   'P 21'
_symmetry_space_group_name_Hall  'P 2yb'

loop_
_symmetry_equiv_pos_as_xyz
'x, y, z'
'-x, y+1/2, -z'

_cell_length_a                   21.955(8)
_cell_length_b                   55.166(20)
_cell_length_c                   27.316(10)
_cell_angle_alpha                90.00(0)
_cell_angle_beta                 90.80(1)
_cell_angle_gamma                90.00(0)
_cell_volume                     33081.0
_cell_formula_units_Z            2
_cell_measurement_temperature    100(2)
_cell_measurement_reflns_used    1024
_cell_measurement_theta_min      2.205
_cell_measurement_theta_max      22.004

_exptl_crystal_description       Needle
_exptl_crystal_colour            Red
_exptl_crystal_size_max          0.45
_exptl_crystal_size_mid          0.21
_exptl_crystal_size_min          0.15
_exptl_crystal_density_meas      ?
_exptl_crystal_density_diffrn    1.390
_exptl_crystal_density_method    'not measured'
_exptl_crystal_F_000             14612
_exptl_absorpt_coefficient_mu    0.692
_exptl_absorpt_correction_type   Empirical
_exptl_absorpt_correction_T_min  0.7459
_exptl_absorpt_correction_T_max  0.9033
_exptl_absorpt_process_details   SADABS


_exptl_special_details           
;
?
;

_diffrn_ambient_temperature      100(2)
_diffrn_radiation_wavelength     0.71073
_diffrn_radiation_type           MoK\a
_diffrn_radiation_source         'fine-focus sealed tube'
_diffrn_radiation_monochromator  graphite
_diffrn_measurement_device_type  'CCD area detector'
_diffrn_measurement_method       'phi and omega scans'
_diffrn_detector_area_resol_mean 8.366
_diffrn_standards_number         ?
_diffrn_standards_interval_count ?
_diffrn_standards_interval_time  ?
_diffrn_standards_decay_%        ?
_diffrn_reflns_number            200127
_diffrn_reflns_av_R_equivalents  0.1455
_diffrn_reflns_av_sigmaI/netI    0.2416
_diffrn_reflns_limit_h_min       -28
_diffrn_reflns_limit_h_max       27
_diffrn_reflns_limit_k_min       -71
_diffrn_reflns_limit_k_max       53
_diffrn_reflns_limit_l_min       -35
_diffrn_reflns_limit_l_max       34
_diffrn_reflns_theta_min         0.74
_diffrn_reflns_theta_max         27.50
_reflns_number_total             105812
_reflns_number_gt                48411
_reflns_threshold_expression     >2\s(I)

_computing_data_collection       'Bruker SMART'
_computing_cell_refinement       'Bruker SMART'
_computing_data_reduction        'Bruker SAINT'
_computing_structure_solution    'Bruker SHELXTL'
_computing_structure_refinement  'Bruker SHELXTL'
_computing_molecular_graphics    'Bruker SHELXTL'
_computing_publication_material  'Bruker SHELXTL'

_refine_special_details          
;
Refinement of F^2^ against ALL reflections. The weighted R-factor wR and
goodness of fit S are based on F^2^, conventional R-factors R are based
on F, with F set to zero for negative F^2^. The threshold expression of
F^2^ > 2\s(F^2^) is used only for calculating R-factors(gt) etc. and is
not relevant to the choice of reflections for refinement. R-factors based
on F^2^ are statistically about twice as large as those based on F, and R-
factors based on ALL data will be even larger. To deal with the residual
electron desity resulting from crystalline solvent molecules which could
not be accurately assigned from the diffraction data, the SQUEEZE program
from the PLATON suite was used. Full details are appended to this cif file.

;

_refine_ls_structure_factor_coef Fsqd
_refine_ls_matrix_type           full
_refine_ls_weighting_scheme      calc
_refine_ls_weighting_details     
'calc w=1/[\s^2^(Fo^2^)+(0.1087P)^2^+0.0000P] where P=(Fo^2^+2Fc^2^)/3'
_atom_sites_solution_primary     direct
_atom_sites_solution_secondary   difmap
_atom_sites_solution_hydrogens   geom
_refine_ls_hydrogen_treatment    constr
_refine_ls_extinction_method     none
_refine_ls_extinction_coef       ?
_refine_ls_abs_structure_details 'Flack H D (1983), Acta Cryst. A39, 876-881'
_refine_ls_abs_structure_Flack   0.041(10)
_refine_ls_number_reflns         105812
_refine_ls_number_parameters     6746
_refine_ls_number_restraints     6648
_refine_ls_R_factor_all          0.1565
_refine_ls_R_factor_gt           0.0933
_refine_ls_wR_factor_ref         0.2393
_refine_ls_wR_factor_gt          0.2183
_refine_ls_goodness_of_fit_ref   0.896
_refine_ls_restrained_S_all      0.886
_refine_ls_shift/su_max          0.001
_refine_ls_shift/su_mean         0.000

loop_
_atom_site_label
_atom_site_type_symbol
_atom_site_fract_x
_atom_site_fract_y
_atom_site_fract_z
_atom_site_U_iso_or_equiv
_atom_site_adp_type
_atom_site_occupancy
_atom_site_symmetry_multiplicity
_atom_site_calc_flag
_atom_site_refinement_flags
_atom_site_disorder_assembly
_atom_site_disorder_group
Ni1 Ni -0.44642(6) 0.46854(2) 0.33361(4) 0.0262(3) Uani 1 1 d . . .
Ni2 Ni -0.33961(5) 0.44454(2) 0.05850(4) 0.0252(3) Uani 1 1 d . . .
Ni3 Ni -0.24327(6) 0.30926(2) 0.13151(5) 0.0304(3) Uani 1 1 d . . .
Ni4 Ni -0.34335(6) 0.33279(3) 0.40998(5) 0.0342(3) Uani 1 1 d . . .
Ni5 Ni -0.10301(6) 0.42285(3) 0.27988(5) 0.0316(3) Uani 1 1 d . . .
Ni6 Ni -0.58275(6) 0.35444(2) 0.18869(5) 0.0303(3) Uani 1 1 d . . .
Ni7 Ni 0.26058(6) 0.62473(2) 0.85324(5) 0.0302(3) Uani 1 1 d . . .
Ni8 Ni 0.15455(6) 0.60112(2) 0.57195(5) 0.0315(3) Uani 1 1 d . . .
Ni9 Ni 0.05614(6) 0.46476(2) 0.65537(4) 0.0253(3) Uani 1 1 d . . .
Ni10 Ni 0.15925(5) 0.48969(2) 0.92937(4) 0.0241(3) Uani 1 1 d . . .
Ni11 Ni 0.39439(6) 0.51042(3) 0.70749(5) 0.0290(3) Uani 1 1 d . . .
Ni12 Ni -0.08032(6) 0.58139(2) 0.79221(5) 0.0270(3) Uani 1 1 d . . .
Ni13 Ni 0.30560(10) 0.20182(3) 0.65388(7) 0.0663(5) Uani 1 1 d . . .
Ni14 Ni 0.12584(7) 0.25047(3) 0.84003(5) 0.0449(4) Uani 1 1 d . . .
Fe1 Fe -0.52560(6) 0.44296(3) 0.16706(5) 0.0240(3) Uani 1 1 d . . .
Fe2 Fe -0.15629(6) 0.39398(3) 0.10829(5) 0.0234(3) Uani 1 1 d . . .
Fe3 Fe -0.41833(7) 0.29698(3) 0.24881(6) 0.0301(4) Uani 1 1 d . . .
Fe4 Fe -0.26920(6) 0.41977(3) 0.40667(5) 0.0262(3) Uani 1 1 d . . .
Fe5 Fe 0.08392(6) 0.63812(3) 0.73253(5) 0.0283(3) Uani 1 1 d . . .
Fe6 Fe 0.22655(6) 0.51420(3) 0.57929(5) 0.0265(3) Uani 1 1 d . . .
Fe7 Fe -0.02811(6) 0.49246(3) 0.81823(5) 0.0234(3) Uani 1 1 d . . .
Fe8 Fe 0.34318(6) 0.53971(3) 0.87826(5) 0.0257(3) Uani 1 1 d . . .
Fe9 Fe 0.26442(10) 0.28779(3) 0.71455(8) 0.0664(6) Uani 1 1 d . . .
Fe10 Fe 0.11757(10) 0.17082(3) 0.74576(7) 0.0545(5) Uani 1 1 d . . .
C1 C -0.3379(4) 0.49749(18) 0.2946(4) 0.036(3) Uani 1 1 d D . .
H1 H -0.3138 0.4840 0.3045 0.044 Uiso 1 1 calc R . .
C2 C -0.3079(4) 0.5176(2) 0.2745(4) 0.043(3) Uani 1 1 d D . .
H2 H -0.2648 0.5181 0.2724 0.052 Uiso 1 1 calc R . .
C3 C -0.3441(4) 0.53675(18) 0.2575(4) 0.041(3) Uani 1 1 d D . .
H3 H -0.3263 0.5508 0.2437 0.049 Uiso 1 1 calc R . .
C4 C -0.4071(4) 0.5347(2) 0.2614(4) 0.045(3) Uani 1 1 d D . .
H4 H -0.4330 0.5469 0.2483 0.055 Uiso 1 1 calc R . .
C5 C -0.4316(4) 0.51476(18) 0.2842(3) 0.035(3) Uani 1 1 d D . .
C6 C -0.4966(4) 0.5110(2) 0.2852(4) 0.032(2) Uani 1 1 d D . .
H5 H -0.5233 0.5217 0.2683 0.038 Uiso 1 1 calc R . .
C7 C -0.5829(5) 0.48738(19) 0.3042(4) 0.035(3) Uani 1 1 d D . .
H6 H -0.5853 0.4701 0.2935 0.041 Uiso 1 1 calc R . .
C8 C -0.6212(5) 0.5011(2) 0.2693(4) 0.039(3) Uani 1 1 d D . .
H7 H -0.6180 0.5185 0.2765 0.059 Uiso 1 1 calc R . .
H8 H -0.6637 0.4960 0.2722 0.059 Uiso 1 1 calc R . .
H9 H -0.6074 0.4981 0.2359 0.059 Uiso 1 1 calc R . .
C9 C -0.6135(4) 0.48838(19) 0.3558(3) 0.033(3) Uani 1 1 d D . .
C10 C -0.5966(5) 0.5073(2) 0.3855(4) 0.040(3) Uani 1 1 d D . .
H10 H -0.5666 0.5184 0.3747 0.048 Uiso 1 1 calc R . .
C11 C -0.6224(5) 0.5106(2) 0.4307(4) 0.043(3) Uani 1 1 d D . .
H11 H -0.6117 0.5242 0.4501 0.051 Uiso 1 1 calc R . .
C12 C -0.6640(5) 0.4939(2) 0.4477(3) 0.052(4) Uani 1 1 d D . .
H12 H -0.6784 0.4949 0.4803 0.063 Uiso 1 1 calc R . .
C13 C -0.6853(5) 0.4750(2) 0.4160(3) 0.043(3) Uani 1 1 d D . .
C14 C -0.7308(7) 0.4590(2) 0.4313(5) 0.075(5) Uani 1 1 d D . .
H13 H -0.7462 0.4605 0.4635 0.090 Uiso 1 1 calc R . .
C15 C -0.7540(6) 0.4412(2) 0.4013(4) 0.058(4) Uani 1 1 d D . .
H14 H -0.7856 0.4307 0.4118 0.070 Uiso 1 1 calc R . .
C16 C -0.7294(5) 0.4391(2) 0.3551(5) 0.059(4) Uani 1 1 d D . .
H15 H -0.7440 0.4266 0.3342 0.070 Uiso 1 1 calc R . .
C17 C -0.6851(5) 0.45436(19) 0.3384(4) 0.039(3) Uani 1 1 d D . .
H16 H -0.6715 0.4529 0.3056 0.047 Uiso 1 1 calc R . .
C18 C -0.6595(4) 0.47222(18) 0.3696(3) 0.035(3) Uani 1 1 d D . .
C19 C -0.5423(4) 0.4289(2) 0.3534(4) 0.035(3) Uani 1 1 d . . .
H17 H -0.5376 0.4243 0.3201 0.043 Uiso 1 1 calc R . .
C20 C -0.5844(6) 0.4167(2) 0.3783(5) 0.059(4) Uani 1 1 d . . .
H18 H -0.6092 0.4048 0.3626 0.070 Uiso 1 1 calc R . .
C21 C -0.5910(6) 0.4221(2) 0.4309(5) 0.053(3) Uani 1 1 d . . .
H19 H -0.6202 0.4144 0.4510 0.063 Uiso 1 1 calc R . .
C22 C -0.5496(5) 0.4397(2) 0.4481(4) 0.042(3) Uani 1 1 d . . .
H20 H -0.5507 0.4437 0.4819 0.050 Uiso 1 1 calc R . .
C23 C -0.5095(5) 0.45098(18) 0.4210(4) 0.031(2) Uani 1 1 d . . .
C24 C -0.4653(5) 0.4691(2) 0.4392(4) 0.034(3) Uani 1 1 d . . .
H21 H -0.4607 0.4720 0.4733 0.041 Uiso 1 1 calc R . .
C25 C -0.3837(4) 0.49651(19) 0.4260(3) 0.027(2) Uani 1 1 d . . .
H22 H -0.3459 0.4906 0.4098 0.032 Uiso 1 1 calc R . .
C26 C -0.3707(5) 0.4956(2) 0.4819(4) 0.044(3) Uani 1 1 d . . .
H23 H -0.4041 0.5034 0.4993 0.066 Uiso 1 1 calc R . .
H24 H -0.3325 0.5040 0.4893 0.066 Uiso 1 1 calc R . .
H25 H -0.3674 0.4786 0.4924 0.066 Uiso 1 1 calc R . .
C27 C -0.3939(4) 0.52202(17) 0.4087(4) 0.031(2) Uani 1 1 d D . .
C28 C -0.4495(5) 0.53183(19) 0.4122(4) 0.040(3) Uani 1 1 d D . .
H26 H -0.4810 0.5230 0.4277 0.048 Uiso 1 1 calc R . .
C29 C -0.4615(5) 0.5551(2) 0.3931(4) 0.039(3) Uani 1 1 d D . .
H27 H -0.5018 0.5613 0.3932 0.046 Uiso 1 1 calc R . .
C30 C -0.4161(5) 0.5684(2) 0.3750(5) 0.057(4) Uani 1 1 d D . .
H28 H -0.4249 0.5844 0.3638 0.068 Uiso 1 1 calc R . .
C31 C -0.3568(4) 0.55999(17) 0.3718(4) 0.035(3) Uani 1 1 d D . .
C32 C -0.3084(5) 0.5725(2) 0.3514(4) 0.051(3) Uani 1 1 d D . .
H29 H -0.3178 0.5874 0.3357 0.061 Uiso 1 1 calc R . .
C33 C -0.2505(5) 0.56576(19) 0.3514(4) 0.042(3) Uani 1 1 d D . .
H30 H -0.2194 0.5758 0.3385 0.050 Uiso 1 1 calc R . .
C34 C -0.2375(4) 0.5425(2) 0.3722(4) 0.047(3) Uani 1 1 d D . .
H31 H -0.1968 0.5367 0.3731 0.057 Uiso 1 1 calc R . .
C35 C -0.2824(4) 0.52877(17) 0.3904(3) 0.028(2) Uani 1 1 d D . .
H32 H -0.2725 0.5134 0.4042 0.034 Uiso 1 1 calc R . .
C36 C -0.3436(4) 0.53639(17) 0.3896(3) 0.028(2) Uani 1 1 d DU . .
C37 C -0.3151(5) 0.4873(2) 0.1287(3) 0.032(3) Uani 1 1 d . . .
H33 H -0.3451 0.4804 0.1493 0.038 Uiso 1 1 calc R . .
C38 C -0.2881(5) 0.5103(2) 0.1411(4) 0.043(3) Uani 1 1 d . . .
H34 H -0.3024 0.5190 0.1686 0.051 Uiso 1 1 calc R . .
C39 C -0.2431(4) 0.5195(2) 0.1143(4) 0.037(3) Uani 1 1 d . . .
H35 H -0.2243 0.5344 0.1228 0.044 Uiso 1 1 calc R . .
C40 C -0.2247(5) 0.5063(2) 0.0734(4) 0.035(3) Uani 1 1 d . . .
H36 H -0.1924 0.5117 0.0534 0.042 Uiso 1 1 calc R . .
C41 C -0.2564(4) 0.4846(2) 0.0632(5) 0.037(3) Uani 1 1 d . . .
C42 C -0.2351(4) 0.4703(2) 0.0196(4) 0.032(3) Uani 1 1 d . . .
H37 H -0.2008 0.4750 0.0011 0.039 Uiso 1 1 calc R . .
C43 C -0.2416(4) 0.43418(19) -0.0282(3) 0.029(2) Uani 1 1 d . . .
H38 H -0.2436 0.4175 -0.0140 0.034 Uiso 1 1 calc R . .
C44 C -0.1794(4) 0.4381(2) -0.0427(3) 0.033(3) Uani 1 1 d . . .
H39 H -0.1747 0.4548 -0.0541 0.050 Uiso 1 1 calc R . .
H40 H -0.1694 0.4268 -0.0692 0.050 Uiso 1 1 calc R . .
H41 H -0.1521 0.4352 -0.0147 0.050 Uiso 1 1 calc R . .
C45 C -0.2852(4) 0.43455(16) -0.0731(3) 0.022(2) Uani 1 1 d D . .
C46 C -0.3109(4) 0.45554(19) -0.0896(4) 0.038(3) Uani 1 1 d D . .
H42 H -0.3015 0.4703 -0.0735 0.046 Uiso 1 1 calc R . .
C47 C -0.3509(5) 0.4557(2) -0.1302(4) 0.052(4) Uani 1 1 d D . .
H43 H -0.3669 0.4707 -0.1412 0.062 Uiso 1 1 calc R . .
C48 C -0.3677(5) 0.4354(2) -0.1541(4) 0.062(4) Uani 1 1 d D . .
H44 H -0.3962 0.4361 -0.1805 0.075 Uiso 1 1 calc R . .
C49 C -0.3418(5) 0.4133(2) -0.1392(4) 0.051(4) Uani 1 1 d D . .
C50 C -0.3564(6) 0.3917(2) -0.1647(5) 0.074(5) Uani 1 1 d D . .
H45 H -0.3834 0.3922 -0.1922 0.089 Uiso 1 1 calc R . .
C51 C -0.3325(8) 0.3704(3) -0.1506(5) 0.103(7) Uani 1 1 d D . .
H46 H -0.3453 0.3559 -0.1663 0.123 Uiso 1 1 calc R . .
C52 C -0.2882(7) 0.3694(2) -0.1124(5) 0.078(5) Uani 1 1 d D . .
H47 H -0.2692 0.3545 -0.1042 0.094 Uiso 1 1 calc R . .
C53 C -0.2731(6) 0.3899(2) -0.0874(5) 0.067(4) Uani 1 1 d D . .
H48 H -0.2446 0.3891 -0.0610 0.081 Uiso 1 1 calc R . .
C54 C -0.2990(4) 0.41226(17) -0.0999(4) 0.038(3) Uani 1 1 d D . .
C55 C -0.3667(5) 0.39539(19) 0.0087(4) 0.035(3) Uani 1 1 d . . .
H49 H -0.3342 0.3892 0.0283 0.042 Uiso 1 1 calc R . .
C56 C -0.3954(6) 0.3792(3) -0.0228(4) 0.053(4) Uani 1 1 d . . .
H50 H -0.3853 0.3625 -0.0232 0.063 Uiso 1 1 calc R . .
C57 C -0.4383(5) 0.3885(2) -0.0527(4) 0.040(3) Uani 1 1 d . . .
H51 H -0.4565 0.3786 -0.0772 0.048 Uiso 1 1 calc R . .
C58 C -0.4569(5) 0.4130(2) -0.0482(4) 0.035(3) Uani 1 1 d . . .
H52 H -0.4896 0.4194 -0.0673 0.042 Uiso 1 1 calc R . .
C59 C -0.4253(4) 0.4271(2) -0.0148(4) 0.032(3) Uani 1 1 d . . .
C60 C -0.4457(5) 0.4523(2) -0.0057(4) 0.035(3) Uani 1 1 d . . .
H53 H -0.4814 0.4588 -0.0206 0.042 Uiso 1 1 calc R . .
C61 C -0.4353(4) 0.4891(2) 0.0399(4) 0.032(3) Uani 1 1 d . . .
H54 H -0.4312 0.4892 0.0764 0.038 Uiso 1 1 calc R . .
C62 C -0.5011(4) 0.4944(2) 0.0292(4) 0.038(3) Uani 1 1 d . . .
H55 H -0.5140 0.5084 0.0485 0.058 Uiso 1 1 calc R . .
H56 H -0.5259 0.4803 0.0378 0.058 Uiso 1 1 calc R . .
H57 H -0.5066 0.4980 -0.0058 0.058 Uiso 1 1 calc R . .
C63 C -0.3953(4) 0.50965(15) 0.0223(3) 0.027(2) Uani 1 1 d D . .
C64 C -0.3721(4) 0.50728(18) -0.0223(3) 0.032(3) Uani 1 1 d D . .
H58 H -0.3805 0.4931 -0.0409 0.038 Uiso 1 1 calc R . .
C65 C -0.3349(5) 0.52575(19) -0.0420(4) 0.050(3) Uani 1 1 d D . .
H59 H -0.3215 0.5246 -0.0749 0.060 Uiso 1 1 calc R . .
C66 C -0.3180(5) 0.5454(2) -0.0136(4) 0.049(3) Uani 1 1 d D . .
H60 H -0.2900 0.5570 -0.0257 0.058 Uiso 1 1 calc R . .
C67 C -0.3421(4) 0.54805(17) 0.0326(4) 0.036(3) Uani 1 1 d D . .
C68 C -0.3300(5) 0.56850(19) 0.0615(4) 0.050(3) Uani 1 1 d D . .
H61 H -0.3048 0.5809 0.0485 0.060 Uiso 1 1 calc R . .
C69 C -0.3525(6) 0.5716(2) 0.1076(5) 0.057(4) Uani 1 1 d D . .
H62 H -0.3398 0.5848 0.1274 0.068 Uiso 1 1 calc R . .
C70 C -0.3954(5) 0.5545(2) 0.1252(4) 0.053(4) Uani 1 1 d D . .
H63 H -0.4147 0.5570 0.1557 0.063 Uiso 1 1 calc R . .
C71 C -0.4090(4) 0.53418(16) 0.0976(3) 0.031(2) Uani 1 1 d D . .
H64 H -0.4371 0.5226 0.1094 0.037 Uiso 1 1 calc R . .
C72 C -0.3814(5) 0.53057(19) 0.0519(3) 0.039(3) Uani 1 1 d D . .
C73 C -0.3557(6) 0.31423(19) 0.0650(4) 0.041(3) Uani 1 1 d . . .
H65 H -0.3791 0.3134 0.0940 0.049 Uiso 1 1 calc R . .
C74 C -0.3863(6) 0.31596(19) 0.0161(5) 0.044(3) Uani 1 1 d . . .
H66 H -0.4293 0.3174 0.0126 0.053 Uiso 1 1 calc R . .
C75 C -0.3500(6) 0.3154(2) -0.0223(6) 0.055(4) Uani 1 1 d . . .
H67 H -0.3686 0.3169 -0.0538 0.066 Uiso 1 1 calc R . .
C76 C -0.2906(5) 0.3130(2) -0.0204(5) 0.043(3) Uani 1 1 d . . .
H68 H -0.2667 0.3115 -0.0490 0.052 Uiso 1 1 calc R . .
C77 C -0.2647(6) 0.3127(2) 0.0275(5) 0.044(3) Uani 1 1 d . . .
C78 C -0.1982(5) 0.31161(18) 0.0344(3) 0.030(3) Uani 1 1 d D . .
H69 H -0.1729 0.3130 0.0066 0.037 Uiso 1 1 calc R . .
C79 C -0.1113(5) 0.31066(18) 0.0852(4) 0.030(3) Uani 1 1 d D . .
H70 H -0.1055 0.3219 0.1136 0.036 Uiso 1 1 calc R . .
C80 C -0.0725(5) 0.3205(3) 0.0443(5) 0.062(4) Uani 1 1 d DU . .
H71 H -0.0736 0.3092 0.0166 0.093 Uiso 1 1 calc R . .
H72 H -0.0304 0.3224 0.0561 0.093 Uiso 1 1 calc R . .
H73 H -0.0884 0.3363 0.0337 0.093 Uiso 1 1 calc R . .
C81 C -0.0815(4) 0.28661(17) 0.1001(3) 0.033(2) Uani 1 1 d DU . .
C82 C -0.0999(5) 0.26549(17) 0.0795(4) 0.038(3) Uani 1 1 d DU . .
H74 H -0.1332 0.2664 0.0569 0.046 Uiso 1 1 calc R . .
C83 C -0.0756(5) 0.24269(19) 0.0878(5) 0.060(3) Uani 1 1 d DU . .
H75 H -0.0881 0.2293 0.0683 0.072 Uiso 1 1 calc R . .
C84 C -0.0330(5) 0.2398(2) 0.1248(5) 0.061(3) Uani 1 1 d DU . .
H76 H -0.0176 0.2242 0.1325 0.073 Uiso 1 1 calc R . .
C85 C -0.0126(5) 0.26032(19) 0.1510(4) 0.058(3) Uani 1 1 d DU . .
C86 C 0.0314(5) 0.2585(2) 0.1895(5) 0.068(4) Uani 1 1 d DU . .
H77 H 0.0441 0.2429 0.2002 0.081 Uiso 1 1 calc R . .
C87 C 0.0558(6) 0.2785(2) 0.2114(5) 0.067(4) Uani 1 1 d DU . .
H78 H 0.0854 0.2769 0.2369 0.081 Uiso 1 1 calc R . .
C88 C 0.0361(5) 0.3021(2) 0.1953(4) 0.062(4) Uani 1 1 d DU . .
H79 H 0.0535 0.3162 0.2099 0.074 Uiso 1 1 calc R . .
C89 C -0.0071(4) 0.3045(2) 0.1595(4) 0.048(3) Uani 1 1 d DU . .
H80 H -0.0179 0.3202 0.1480 0.058 Uiso 1 1 calc R . .
C90 C -0.0361(5) 0.28374(19) 0.1392(4) 0.050(3) Uani 1 1 d DU . .
C91 C -0.1424(4) 0.3138(2) 0.2107(4) 0.032(3) Uani 1 1 d . . .
H81 H -0.1417 0.3307 0.2036 0.039 Uiso 1 1 calc R . .
C92 C -0.1017(5) 0.3045(2) 0.2447(4) 0.044(3) Uani 1 1 d . . .
H82 H -0.0731 0.3149 0.2606 0.053 Uiso 1 1 calc R . .
C93 C -0.1029(5) 0.2800(2) 0.2556(4) 0.037(3) Uani 1 1 d . . .
H83 H -0.0734 0.2734 0.2777 0.044 Uiso 1 1 calc R . .
C94 C -0.1487(5) 0.2644(2) 0.2336(4) 0.040(3) Uani 1 1 d . . .
H84 H -0.1533 0.2478 0.2419 0.048 Uiso 1 1 calc R . .
C95 C -0.1857(5) 0.2763(2) 0.1988(4) 0.036(3) Uani 1 1 d . . .
C96 C -0.2342(5) 0.2620(2) 0.1719(4) 0.040(3) Uani 1 1 d . . .
H85 H -0.2410 0.2455 0.1802 0.048 Uiso 1 1 calc R . .
C97 C -0.3183(5) 0.25972(18) 0.1181(4) 0.036(3) Uani 1 1 d . . .
H86 H -0.3531 0.2713 0.1208 0.044 Uiso 1 1 calc R . .
C98 C -0.3379(5) 0.2356(2) 0.1442(3) 0.033(3) Uani 1 1 d . . .
H87 H -0.3047 0.2238 0.1426 0.050 Uiso 1 1 calc R . .
H88 H -0.3742 0.2290 0.1276 0.050 Uiso 1 1 calc R . .
H89 H -0.3472 0.2390 0.1785 0.050 Uiso 1 1 calc R . .
C99 C -0.3099(4) 0.25481(18) 0.0642(4) 0.033(3) Uani 1 1 d D . .
C100 C -0.2547(5) 0.25023(19) 0.0456(4) 0.039(3) Uani 1 1 d DU . .
H90 H -0.2209 0.2493 0.0676 0.046 Uiso 1 1 calc R . .
C101 C -0.2440(5) 0.2467(2) -0.0044(4) 0.042(3) Uani 1 1 d D . .
H91 H -0.2041 0.2431 -0.0154 0.051 Uiso 1 1 calc R . .
C102 C -0.2917(5) 0.2487(2) -0.0377(4) 0.059(4) Uani 1 1 d D . .
H92 H -0.2847 0.2475 -0.0718 0.071 Uiso 1 1 calc R . .
C103 C -0.3506(5) 0.2523(2) -0.0200(4) 0.054(3) Uani 1 1 d D . .
C104 C -0.3992(6) 0.2545(2) -0.0544(5) 0.076(5) Uani 1 1 d D . .
H93 H -0.3912 0.2543 -0.0885 0.091 Uiso 1 1 calc R . .
C105 C -0.4570(7) 0.2570(2) -0.0386(5) 0.073(5) Uani 1 1 d D . .
H94 H -0.4900 0.2562 -0.0614 0.087 Uiso 1 1 calc R . .
C106 C -0.4686(5) 0.2610(2) 0.0120(4) 0.054(4) Uani 1 1 d D . .
H95 H -0.5086 0.2647 0.0223 0.065 Uiso 1 1 calc R . .
C107 C -0.4218(5) 0.2594(2) 0.0460(4) 0.052(3) Uani 1 1 d D . .
H96 H -0.4302 0.2611 0.0799 0.063 Uiso 1 1 calc R . .
C108 C -0.3619(4) 0.2554(2) 0.0309(4) 0.046(3) Uani 1 1 d D . .
C109 C -0.4637(6) 0.3600(3) 0.4331(5) 0.060(4) Uani 1 1 d . . .
H97 H -0.4450 0.3747 0.4230 0.072 Uiso 1 1 calc R . .
C110 C -0.5242(7) 0.3608(3) 0.4528(6) 0.080(5) Uani 1 1 d . . .
H98 H -0.5434 0.3760 0.4584 0.096 Uiso 1 1 calc R . .
C111 C -0.5543(6) 0.3397(3) 0.4634(5) 0.062(4) Uani 1 1 d . . .
H99 H -0.5953 0.3398 0.4738 0.075 Uiso 1 1 calc R . .
C112 C -0.5224(7) 0.3182(3) 0.4582(6) 0.086(6) Uani 1 1 d . . .
H100 H -0.5408 0.3033 0.4674 0.103 Uiso 1 1 calc R . .
C113 C -0.4631(6) 0.3181(2) 0.4395(5) 0.050(3) Uani 1 1 d . . .
C114 C -0.4271(6) 0.2951(2) 0.4325(4) 0.039(3) Uani 1 1 d . . .
C115 C -0.3380(6) 0.2749(2) 0.4098(5) 0.055(4) Uani 1 1 d . . .
H101 H -0.3186 0.2789 0.3779 0.066 Uiso 1 1 calc R . .
C116 C -0.3771(6) 0.2518(2) 0.4009(5) 0.060(4) Uani 1 1 d . . .
H102 H -0.3779 0.2421 0.4309 0.089 Uiso 1 1 calc R . .
H103 H -0.3594 0.2423 0.3744 0.089 Uiso 1 1 calc R . .
H104 H -0.4188 0.2566 0.3917 0.089 Uiso 1 1 calc R . .
C117 C -0.2873(6) 0.2695(2) 0.4452(5) 0.068(4) Uani 1 1 d D . .
C118 C -0.2958(6) 0.2733(3) 0.4930(4) 0.066(4) Uani 1 1 d D . .
H105 H -0.3353 0.2773 0.5043 0.079 Uiso 1 1 calc R . .
C119 C -0.2467(6) 0.2715(3) 0.5271(4) 0.069(4) Uani 1 1 d D . .
H106 H -0.2535 0.2748 0.5607 0.083 Uiso 1 1 calc R . .
C120 C -0.1901(7) 0.2649(3) 0.5126(4) 0.077(5) Uani 1 1 d D . .
H107 H -0.1558 0.2662 0.5340 0.093 Uiso 1 1 calc R . .
C121 C -0.1846(6) 0.2564(2) 0.4657(4) 0.065(4) Uani 1 1 d D . .
C122 C -0.1260(7) 0.2478(3) 0.4517(5) 0.096(7) Uani 1 1 d D . .
H108 H -0.0949 0.2448 0.4755 0.115 Uiso 1 1 calc R . .
C123 C -0.1160(6) 0.2440(2) 0.4019(5) 0.065(4) Uani 1 1 d D . .
H109 H -0.0759 0.2405 0.3912 0.079 Uiso 1 1 calc R . .
C124 C -0.1642(5) 0.2452(2) 0.3669(5) 0.058(4) Uani 1 1 d D . .
H110 H -0.1576 0.2406 0.3339 0.069 Uiso 1 1 calc R . .
C125 C -0.2191(5) 0.2530(2) 0.3807(4) 0.053(3) Uani 1 1 d D . .
H111 H -0.2513 0.2539 0.3572 0.064 Uiso 1 1 calc R . .
C126 C -0.2297(5) 0.2598(2) 0.4296(4) 0.051(3) Uani 1 1 d D . .
C127 C -0.2218(5) 0.31518(19) 0.3671(4) 0.039(3) Uani 1 1 d . . .
H112 H -0.2414 0.3148 0.3358 0.047 Uiso 1 1 calc R . .
C128 C -0.1622(6) 0.3079(2) 0.3720(5) 0.054(4) Uani 1 1 d . . .
H113 H -0.1421 0.3019 0.3440 0.064 Uiso 1 1 calc R . .
C129 C -0.1317(5) 0.3090(2) 0.4135(5) 0.047(3) Uani 1 1 d . . .
H114 H -0.0915 0.3028 0.4168 0.056 Uiso 1 1 calc R . .
C130 C -0.1614(6) 0.3197(2) 0.4521(4) 0.041(3) Uani 1 1 d . . .
H115 H -0.1405 0.3225 0.4822 0.049 Uiso 1 1 calc R . .
C131 C -0.2203(4) 0.32606(19) 0.4468(4) 0.030(2) Uani 1 1 d . . .
C132 C -0.2550(5) 0.3372(2) 0.4879(4) 0.038(3) Uani 1 1 d . . .
H116 H -0.2346 0.3411 0.5177 0.045 Uiso 1 1 calc R . .
C133 C -0.3410(6) 0.3569(3) 0.5196(5) 0.060(4) Uani 1 1 d . . .
H117 H -0.3607 0.3702 0.5005 0.072 Uiso 1 1 calc R . .
C134 C -0.3002(6) 0.3687(3) 0.5554(5) 0.065(4) Uani 1 1 d . . .
H118 H -0.2695 0.3570 0.5669 0.097 Uiso 1 1 calc R . .
H119 H -0.3239 0.3744 0.5832 0.097 Uiso 1 1 calc R . .
H120 H -0.2799 0.3825 0.5400 0.097 Uiso 1 1 calc R . .
C135 C -0.3903(5) 0.3438(2) 0.5434(4) 0.047(3) Uani 1 1 d DU . .
C136 C -0.3829(7) 0.3203(2) 0.5542(5) 0.078(4) Uani 1 1 d DU . .
H121 H -0.3460 0.3125 0.5455 0.093 Uiso 1 1 calc R . .
C137 C -0.4275(6) 0.3071(2) 0.5776(6) 0.088(5) Uani 1 1 d DU . .
H122 H -0.4188 0.2907 0.5856 0.105 Uiso 1 1 calc R . .
C138 C -0.4828(7) 0.3160(2) 0.5900(7) 0.109(6) Uani 1 1 d DU . .
H123 H -0.5138 0.3062 0.6036 0.131 Uiso 1 1 calc R . .
C139 C -0.4906(6) 0.3409(2) 0.5810(7) 0.094(5) Uani 1 1 d DU . .
C140 C -0.5465(7) 0.3526(3) 0.5960(8) 0.121(7) Uani 1 1 d DU . .
H124 H -0.5773 0.3434 0.6116 0.145 Uiso 1 1 calc R . .
C141 C -0.5548(7) 0.3771(3) 0.5877(7) 0.112(6) Uani 1 1 d DU . .
H125 H -0.5914 0.3846 0.5979 0.134 Uiso 1 1 calc R . .
C142 C -0.5099(7) 0.3912(2) 0.5641(5) 0.080(5) Uani 1 1 d DU . .
H126 H -0.5172 0.4078 0.5565 0.096 Uiso 1 1 calc R . .
C143 C -0.4563(6) 0.3805(2) 0.5527(5) 0.064(4) Uani 1 1 d DU . .
H127 H -0.4249 0.3901 0.5392 0.077 Uiso 1 1 calc R . .
C144 C -0.4457(5) 0.3554(2) 0.5604(5) 0.067(4) Uani 1 1 d DU . .
C145 C -0.1544(5) 0.4690(2) 0.2324(4) 0.037(3) Uani 1 1 d . . .
H128 H -0.1698 0.4593 0.2063 0.045 Uiso 1 1 calc R . .
C146 C -0.1633(5) 0.4933(2) 0.2312(4) 0.042(3) Uani 1 1 d . . .
H129 H -0.1866 0.4997 0.2045 0.051 Uiso 1 1 calc R . .
C147 C -0.1413(5) 0.5100(3) 0.2660(5) 0.058(4) Uani 1 1 d . . .
H130 H -0.1445 0.5271 0.2631 0.070 Uiso 1 1 calc R . .
C148 C -0.1133(5) 0.4976(2) 0.3064(3) 0.036(3) Uani 1 1 d . . .
H131 H -0.1004 0.5071 0.3336 0.043 Uiso 1 1 calc R . .
C149 C -0.1036(5) 0.4729(3) 0.3088(5) 0.050(3) Uani 1 1 d . . .
C150 C -0.0787(5) 0.4616(2) 0.3481(4) 0.035(3) Uani 1 1 d . . .
H132 H -0.0700 0.4705 0.3770 0.042 Uiso 1 1 calc R . .
C151 C -0.0459(5) 0.4252(3) 0.3921(4) 0.047(3) Uani 1 1 d . . .
H133 H -0.0768 0.4121 0.3970 0.057 Uiso 1 1 calc R . .
C152 C -0.0468(6) 0.4408(3) 0.4402(5) 0.068(4) Uani 1 1 d . . .
H134 H -0.0277 0.4316 0.4671 0.101 Uiso 1 1 calc R . .
H135 H -0.0890 0.4446 0.4485 0.101 Uiso 1 1 calc R . .
H136 H -0.0242 0.4559 0.4351 0.101 Uiso 1 1 calc R . .
C153 C 0.0123(4) 0.4126(2) 0.3860(4) 0.042(3) Uani 1 1 d DU . .
C154 C 0.0564(4) 0.4232(2) 0.3596(4) 0.058(4) Uani 1 1 d DU . .
H137 H 0.0504 0.4392 0.3474 0.070 Uiso 1 1 calc R . .
C155 C 0.1113(5) 0.4109(3) 0.3501(4) 0.073(4) Uani 1 1 d DU . .
H138 H 0.1402 0.4180 0.3289 0.087 Uiso 1 1 calc R . .
C156 C 0.1236(6) 0.3887(3) 0.3708(4) 0.080(4) Uani 1 1 d DU . .
H139 H 0.1604 0.3805 0.3638 0.096 Uiso 1 1 calc R . .
C157 C 0.0811(5) 0.3785(2) 0.4024(4) 0.061(3) Uani 1 1 d DU . .
C158 C 0.0932(8) 0.3563(3) 0.4261(6) 0.111(6) Uani 1 1 d DU . .
H140 H 0.1316 0.3486 0.4225 0.134 Uiso 1 1 calc R . .
C159 C 0.0493(8) 0.3458(3) 0.4544(6) 0.116(6) Uani 1 1 d DU . .
H141 H 0.0580 0.3304 0.4687 0.139 Uiso 1 1 calc R . .
C160 C -0.0073(8) 0.3562(3) 0.4635(5) 0.088(5) Uani 1 1 d DU . .
C161 C -0.0189(5) 0.3778(2) 0.4401(4) 0.055(3) Uani 1 1 d DU . .
H143 H -0.0576 0.3853 0.4441 0.066 Uiso 1 1 calc R . .
C162 C 0.0246(5) 0.3895(2) 0.4102(4) 0.053(3) Uani 1 1 d DU . .
C163 C -0.0831(5) 0.3721(2) 0.3232(4) 0.040(3) Uani 1 1 d D . .
H144 H -0.1210 0.3738 0.3393 0.048 Uiso 1 1 calc R . .
C164 C -0.0469(5) 0.3513(2) 0.3315(4) 0.048(3) Uani 1 1 d D . .
H145 H -0.0614 0.3392 0.3532 0.058 Uiso 1 1 calc R . .
C165 C 0.0078(5) 0.3478(2) 0.3097(4) 0.042(3) Uani 1 1 d D . .
H146 H 0.0323 0.3340 0.3167 0.050 Uiso 1 1 calc R . .
C166 C 0.0259(5) 0.3655(3) 0.2769(5) 0.059(4) Uani 1 1 d DU . .
H147 H 0.0624 0.3638 0.2590 0.071 Uiso 1 1 calc R . .
C167 C -0.0101(4) 0.3856(2) 0.2710(4) 0.034(3) Uani 1 1 d D . .
C168 C 0.0070(5) 0.4045(2) 0.2354(4) 0.044(3) Uani 1 1 d DU . .
C169 C -0.0138(5) 0.4425(2) 0.1952(4) 0.035(3) Uani 1 1 d DU . .
H148 H -0.0544 0.4461 0.1797 0.043 Uiso 1 1 calc R . .
C170 C 0.0289(5) 0.4358(2) 0.1533(4) 0.043(3) Uani 1 1 d . . .
H149 H 0.0713 0.4365 0.1651 0.065 Uiso 1 1 calc R . .
H150 H 0.0232 0.4474 0.1263 0.065 Uiso 1 1 calc R . .
H151 H 0.0197 0.4194 0.1417 0.065 Uiso 1 1 calc R . .
C171 C 0.0083(4) 0.46629(16) 0.2189(3) 0.039(3) Uani 1 1 d D . .
C172 C 0.0459(5) 0.46597(18) 0.2576(4) 0.058(4) Uani 1 1 d D . .
H152 H 0.0606 0.4508 0.2693 0.069 Uiso 1 1 calc R . .
C173 C 0.0644(6) 0.4874(2) 0.2819(4) 0.065(4) Uani 1 1 d D . .
H153 H 0.0916 0.4866 0.3092 0.078 Uiso 1 1 calc R . .
C174 C 0.0428(5) 0.5089(2) 0.2658(4) 0.069(5) Uani 1 1 d D . .
H154 H 0.0530 0.5232 0.2832 0.083 Uiso 1 1 calc R . .
C175 C 0.0057(5) 0.51040(16) 0.2239(3) 0.044(3) Uani 1 1 d D . .
C176 C -0.0147(6) 0.53290(19) 0.2059(4) 0.067(4) Uani 1 1 d D . .
H155 H -0.0036 0.5472 0.2232 0.080 Uiso 1 1 calc R . .
C177 C -0.0502(5) 0.53489(18) 0.1642(4) 0.049(3) Uani 1 1 d D . .
H156 H -0.0643 0.5503 0.1533 0.058 Uiso 1 1 calc R . .
C178 C -0.0651(4) 0.51365(19) 0.1380(4) 0.049(3) Uani 1 1 d D . .
H157 H -0.0866 0.5149 0.1077 0.059 Uiso 1 1 calc R . .
C179 C -0.0489(4) 0.49133(17) 0.1555(3) 0.042(3) Uani 1 1 d D . .
H158 H -0.0617 0.4771 0.1385 0.051 Uiso 1 1 calc R . .
C180 C -0.0133(4) 0.48925(15) 0.1989(3) 0.034(3) Uani 1 1 d D . .
C181 C -0.6025(4) 0.35374(19) 0.3013(4) 0.034(2) Uani 1 1 d DU . .
H159 H -0.5637 0.3462 0.3044 0.041 Uiso 1 1 calc R . .
C182 C -0.6369(4) 0.35628(19) 0.3440(4) 0.037(2) Uani 1 1 d DU . .
H160 H -0.6229 0.3500 0.3746 0.045 Uiso 1 1 calc R . .
C183 C -0.6929(4) 0.3685(2) 0.3397(3) 0.044(2) Uani 1 1 d DU . .
H161 H -0.7169 0.3716 0.3677 0.053 Uiso 1 1 calc R . .
C184 C -0.7123(5) 0.3759(2) 0.2931(4) 0.048(2) Uani 1 1 d DU . .
H162 H -0.7508 0.3835 0.2886 0.057 Uiso 1 1 calc R . .
C185 C -0.6750(4) 0.37210(19) 0.2536(3) 0.032(2) Uani 1 1 d DU . .
C186 C -0.6921(5) 0.3810(2) 0.2049(4) 0.033(3) Uani 1 1 d . . .
H163 H -0.7267 0.3912 0.2010 0.040 Uiso 1 1 calc R . .
C187 C -0.6715(5) 0.38638(19) 0.1207(4) 0.035(3) Uani 1 1 d . . .
H164 H -0.6307 0.3922 0.1097 0.042 Uiso 1 1 calc R . .
C188 C -0.7154(5) 0.40871(19) 0.1185(4) 0.038(3) Uani 1 1 d . . .
H165 H -0.7548 0.4042 0.1322 0.058 Uiso 1 1 calc R . .
H166 H -0.7211 0.4138 0.0844 0.058 Uiso 1 1 calc R . .
H167 H -0.6977 0.4221 0.1376 0.058 Uiso 1 1 calc R . .
C189 C -0.6933(4) 0.36624(18) 0.0824(3) 0.034(3) Uani 1 1 d D . .
C190 C -0.7318(4) 0.34887(18) 0.0970(4) 0.033(3) Uani 1 1 d D . .
H168 H -0.7479 0.3493 0.1291 0.040 Uiso 1 1 calc R . .
C191 C -0.7485(5) 0.32985(19) 0.0644(4) 0.044(3) Uani 1 1 d D . .
H169 H -0.7752 0.3173 0.0747 0.053 Uiso 1 1 calc R . .
C192 C -0.7263(4) 0.32986(19) 0.0196(4) 0.035(3) Uani 1 1 d D . .
H170 H -0.7382 0.3172 -0.0021 0.042 Uiso 1 1 calc R . .
C193 C -0.6873(4) 0.34714(17) 0.0031(3) 0.029(2) Uani 1 1 d D . .
C194 C -0.6671(5) 0.3479(2) -0.0464(4) 0.041(3) Uani 1 1 d D . .
H171 H -0.6788 0.3353 -0.0684 0.049 Uiso 1 1 calc R . .
C195 C -0.6320(5) 0.3660(2) -0.0623(4) 0.048(3) Uani 1 1 d D . .
H172 H -0.6174 0.3657 -0.0949 0.058 Uiso 1 1 calc R . .
C196 C -0.6164(5) 0.3855(2) -0.0319(4) 0.059(4) Uani 1 1 d D . .
H173 H -0.5919 0.3982 -0.0442 0.071 Uiso 1 1 calc R . .
C197 C -0.6360(5) 0.38635(18) 0.0149(3) 0.034(3) Uani 1 1 d D . .
H174 H -0.6260 0.3999 0.0351 0.041 Uiso 1 1 calc R . .
C198 C -0.6710(4) 0.36721(16) 0.0336(3) 0.027(2) Uani 1 1 d D . .
C199 C -0.5331(4) 0.3563(2) 0.0845(4) 0.036(3) Uani 1 1 d DU . .
H175 H -0.5155 0.3712 0.0943 0.043 Uiso 1 1 calc R . .
C200 C -0.5266(5) 0.3481(2) 0.0357(4) 0.043(3) Uani 1 1 d DU . .
H176 H -0.5086 0.3581 0.0116 0.052 Uiso 1 1 calc R . .
C201 C -0.5478(5) 0.3248(2) 0.0243(4) 0.051(3) Uani 1 1 d DU . .
H177 H -0.5412 0.3178 -0.0069 0.061 Uiso 1 1 calc R . .
C202 C -0.5779(5) 0.3128(2) 0.0597(5) 0.047(3) Uani 1 1 d DU . .
H178 H -0.5957 0.2975 0.0522 0.057 Uiso 1 1 calc R . .
C203 C -0.5832(5) 0.32197(19) 0.1056(4) 0.039(3) Uani 1 1 d DU . .
C204 C -0.6119(5) 0.3076(2) 0.1439(4) 0.045(3) Uani 1 1 d . . .
H179 H -0.6244 0.2913 0.1387 0.054 Uiso 1 1 calc R . .
C205 C -0.6372(5) 0.3040(2) 0.2305(4) 0.037(3) Uani 1 1 d . . .
H180 H -0.6092 0.3083 0.2584 0.045 Uiso 1 1 calc R . .
C206 C -0.6343(6) 0.2758(2) 0.2221(5) 0.054(3) Uani 1 1 d . . .
H181 H -0.6507 0.2674 0.2506 0.082 Uiso 1 1 calc R . .
H182 H -0.5919 0.2709 0.2174 0.082 Uiso 1 1 calc R . .
H183 H -0.6585 0.2716 0.1929 0.082 Uiso 1 1 calc R . .
C207 C -0.7011(4) 0.3103(2) 0.2445(4) 0.042(3) Uani 1 1 d D . .
C208 C -0.7441(5) 0.3172(2) 0.2110(4) 0.053(4) Uani 1 1 d D . .
H184 H -0.7329 0.3184 0.1776 0.064 Uiso 1 1 calc R . .
C209 C -0.8030(5) 0.3226(3) 0.2235(5) 0.068(4) Uani 1 1 d D . .
H185 H -0.8323 0.3263 0.1987 0.082 Uiso 1 1 calc R . .
C210 C -0.8192(5) 0.3226(3) 0.2710(5) 0.082(5) Uani 1 1 d D . .
H186 H -0.8587 0.3280 0.2798 0.098 Uiso 1 1 calc R . .
C211 C -0.7780(4) 0.3147(2) 0.3075(4) 0.052(3) Uani 1 1 d D . .
C212 C -0.7950(7) 0.3138(3) 0.3569(5) 0.101(6) Uani 1 1 d D . .
H187 H -0.8342 0.3196 0.3656 0.121 Uiso 1 1 calc R . .
C213 C -0.7570(8) 0.3050(4) 0.3928(6) 0.141(11) Uani 1 1 d D . .
H188 H -0.7707 0.3025 0.4253 0.169 Uiso 1 1 calc R . .
C214 C -0.6950(7) 0.2995(3) 0.3793(5) 0.114(8) Uani 1 1 d D . .
H189 H -0.6660 0.2955 0.4041 0.136 Uiso 1 1 calc R . .
C215 C -0.6776(5) 0.3000(2) 0.3322(4) 0.048(3) Uani 1 1 d D . .
H190 H -0.6381 0.2946 0.3237 0.058 Uiso 1 1 calc R . .
C216 C -0.7178(4) 0.3086(2) 0.2956(3) 0.048(3) Uani 1 1 d D . .
C217 C -0.4840(4) 0.44735(19) 0.2313(4) 0.030(2) Uani 1 1 d . . .
C218 C -0.4476(3) 0.44089(16) 0.1326(3) 0.018(2) Uani 1 1 d DU . .
C219 C -0.5327(4) 0.40785(15) 0.1761(3) 0.029(2) Uani 1 1 d D . .
C220 C -0.5640(4) 0.44013(17) 0.1017(3) 0.026(2) Uani 1 1 d D . .
C221 C -0.6038(4) 0.44419(18) 0.2009(3) 0.028(2) Uani 1 1 d D . .
C222 C -0.5213(4) 0.47748(17) 0.1607(4) 0.037(3) Uani 1 1 d D . .
C223 C -0.2335(3) 0.41160(15) 0.0956(3) 0.022(2) Uani 1 1 d D . .
C224 C -0.1972(3) 0.36410(13) 0.1256(3) 0.019(2) Uani 1 1 d D . .
C225 C -0.1511(4) 0.40562(15) 0.1748(3) 0.030(3) Uani 1 1 d D . .
C226 C -0.0790(3) 0.37684(15) 0.1198(3) 0.039(3) Uani 1 1 d D . .
C227 C -0.1164(3) 0.42460(14) 0.0890(3) 0.029(2) Uani 1 1 d D . .
C228 C -0.1587(4) 0.38289(16) 0.0401(3) 0.033(3) Uani 1 1 d D . .
C229 C -0.3519(5) 0.30793(19) 0.2034(4) 0.033(3) Uani 1 1 d . . .
C230 C -0.3830(4) 0.31464(18) 0.3034(4) 0.022(2) Uani 1 1 d U . .
C231 C -0.4712(4) 0.32317(18) 0.2306(3) 0.023(2) Uani 1 1 d . . .
C232 C -0.4823(5) 0.2867(2) 0.2926(4) 0.039(3) Uani 1 1 d . . .
C233 C -0.4567(5) 0.2779(2) 0.1986(4) 0.036(3) Uani 1 1 d . . .
C234 C -0.3663(5) 0.27094(19) 0.2660(4) 0.030(2) Uani 1 1 d . . .
C235 C -0.3330(5) 0.43654(18) 0.3687(3) 0.025(2) Uani 1 1 d . . .
C236 C -0.3076(4) 0.38805(18) 0.3965(3) 0.031(3) Uani 1 1 d D . .
C237 C -0.2169(5) 0.41744(16) 0.3520(3) 0.031(3) Uani 1 1 d D . .
C238 C -0.2076(4) 0.40129(17) 0.4465(4) 0.035(3) Uani 1 1 d D . .
C239 C -0.2323(5) 0.45201(17) 0.4170(3) 0.034(3) Uani 1 1 d D . .
C240 C -0.3192(4) 0.42369(19) 0.4651(3) 0.037(3) Uani 1 1 d DU . .
C241 C 0.3637(4) 0.62123(18) 0.7783(4) 0.039(2) Uani 1 1 d DU . .
H191 H 0.3656 0.6044 0.7855 0.047 Uiso 1 1 calc R . .
C242 C 0.4056(5) 0.63074(19) 0.7462(4) 0.046(3) Uani 1 1 d DU . .
H192 H 0.4341 0.6203 0.7310 0.055 Uiso 1 1 calc R . .
C243 C 0.4061(5) 0.65503(19) 0.7360(4) 0.046(3) Uani 1 1 d DU . .
H193 H 0.4354 0.6619 0.7149 0.055 Uiso 1 1 calc R . .
C244 C 0.3622(4) 0.66901(19) 0.7580(4) 0.041(2) Uani 1 1 d DU . .
H194 H 0.3602 0.6859 0.7513 0.049 Uiso 1 1 calc R . .
C245 C 0.3227(4) 0.65921(18) 0.7883(4) 0.035(2) Uani 1 1 d DU . .
C246 C 0.2744(5) 0.6724(2) 0.8110(4) 0.034(2) Uani 1 1 d U . .
H195 H 0.2655 0.6884 0.8003 0.041 Uiso 1 1 calc R . .
C247 C 0.1900(5) 0.6742(2) 0.8672(4) 0.035(2) Uani 1 1 d U . .
H196 H 0.1559 0.6623 0.8641 0.042 Uiso 1 1 calc R . .
C248 C 0.1676(5) 0.69731(18) 0.8395(3) 0.027(2) Uani 1 1 d U . .
H197 H 0.1996 0.7029 0.8176 0.041 Uiso 1 1 calc R . .
H198 H 0.1584 0.7101 0.8632 0.041 Uiso 1 1 calc R . .
H199 H 0.1309 0.6934 0.8203 0.041 Uiso 1 1 calc R . .
C249 C 0.1970(4) 0.67909(18) 0.9203(4) 0.034(2) Uani 1 1 d DU . .
C250 C 0.2528(4) 0.68440(19) 0.9399(4) 0.035(2) Uani 1 1 d DU . .
H200 H 0.2859 0.6866 0.9183 0.043 Uiso 1 1 calc R . .
C251 C 0.2641(5) 0.6869(2) 0.9913(4) 0.051(3) Uani 1 1 d DU . .
H201 H 0.3047 0.6889 1.0030 0.062 Uiso 1 1 calc R . .
C252 C 0.2185(5) 0.6864(2) 1.0233(4) 0.045(3) Uani 1 1 d DU . .
H202 H 0.2261 0.6890 1.0572 0.054 Uiso 1 1 calc R . .
C253 C 0.1584(5) 0.6817(2) 1.0054(4) 0.050(3) Uani 1 1 d DU . .
C254 C 0.1098(5) 0.6808(2) 1.0375(4) 0.050(3) Uani 1 1 d DU . .
H203 H 0.1170 0.6840 1.0713 0.060 Uiso 1 1 calc R . .
C255 C 0.0529(6) 0.6755(3) 1.0220(4) 0.065(3) Uani 1 1 d DU . .
H204 H 0.0210 0.6736 1.0448 0.078 Uiso 1 1 calc R . .
C256 C 0.0414(5) 0.6729(2) 0.9713(4) 0.054(3) Uani 1 1 d DU . .
H205 H 0.0011 0.6696 0.9599 0.065 Uiso 1 1 calc R . .
C257 C 0.0868(4) 0.67482(18) 0.9389(4) 0.037(2) Uani 1 1 d DU . .
H206 H 0.0771 0.6741 0.9050 0.045 Uiso 1 1 calc R . .
C258 C 0.1476(4) 0.6779(2) 0.9534(3) 0.037(2) Uani 1 1 d DU . .
C259 C 0.1481(4) 0.61867(18) 0.9181(3) 0.034(2) Uani 1 1 d DU . .
H207 H 0.1243 0.6178 0.8889 0.041 Uiso 1 1 calc R . .
C260 C 0.1181(4) 0.61738(18) 0.9631(3) 0.039(2) Uani 1 1 d DU . .
H208 H 0.0754 0.6148 0.9643 0.047 Uiso 1 1 calc R . .
C261 C 0.1520(5) 0.6199(2) 1.0050(3) 0.052(3) Uani 1 1 d DU . .
H209 H 0.1324 0.6204 1.0357 0.063 Uiso 1 1 calc R . .
C262 C 0.2150(4) 0.6217(2) 1.0030(3) 0.043(2) Uani 1 1 d DU . .
H210 H 0.2391 0.6223 1.0322 0.051 Uiso 1 1 calc R . .
C263 C 0.2411(4) 0.6225(2) 0.9583(3) 0.038(2) Uani 1 1 d DU . .
C264 C 0.3066(5) 0.62309(18) 0.9512(4) 0.032(2) Uani 1 1 d U . .
H211 H 0.3325 0.6211 0.9791 0.038 Uiso 1 1 calc R . .
C265 C 0.3946(5) 0.6242(2) 0.9046(5) 0.047(3) Uani 1 1 d U . .
H212 H 0.4004 0.6137 0.8753 0.057 Uiso 1 1 calc R . .
C266 C 0.4287(5) 0.61179(19) 0.9474(4) 0.042(3) Uani 1 1 d U . .
H213 H 0.4363 0.6236 0.9736 0.063 Uiso 1 1 calc R . .
H214 H 0.4675 0.6054 0.9359 0.063 Uiso 1 1 calc R . .
H215 H 0.4038 0.5985 0.9599 0.063 Uiso 1 1 calc R . .
C267 C 0.4261(4) 0.64766(17) 0.8939(4) 0.042(2) Uani 1 1 d DU . .
C268 C 0.4068(4) 0.66796(17) 0.9190(4) 0.046(3) Uani 1 1 d DU . .
H216 H 0.3734 0.6668 0.9405 0.055 Uiso 1 1 calc R . .
C269 C 0.4370(5) 0.69078(19) 0.9126(5) 0.073(4) Uani 1 1 d DU . .
H217 H 0.4244 0.7045 0.9310 0.088 Uiso 1 1 calc R . .
C270 C 0.4826(6) 0.69301(19) 0.8810(5) 0.083(4) Uani 1 1 d DU . .
H218 H 0.5004 0.7085 0.8760 0.099 Uiso 1 1 calc R . .
C271 C 0.5053(6) 0.67259(18) 0.8547(5) 0.081(4) Uani 1 1 d DU . .
C272 C 0.5561(7) 0.6739(2) 0.8242(6) 0.108(5) Uani 1 1 d DU . .
H219 H 0.5730 0.6894 0.8173 0.130 Uiso 1 1 calc R . .
C273 C 0.5820(7) 0.6541(3) 0.8041(7) 0.112(5) Uani 1 1 d DU . .
H220 H 0.6187 0.6553 0.7863 0.134 Uiso 1 1 calc R . .
C274 C 0.5533(6) 0.6317(2) 0.8103(6) 0.084(4) Uani 1 1 d DU . .
H221 H 0.5696 0.6177 0.7949 0.101 Uiso 1 1 calc R . .
C275 C 0.5019(5) 0.62941(19) 0.8382(5) 0.067(3) Uani 1 1 d DU . .
H222 H 0.4834 0.6139 0.8414 0.080 Uiso 1 1 calc R . .
C276 C 0.4759(4) 0.64938(16) 0.8622(4) 0.053(3) Uani 1 1 d DU . .
C277 C 0.2713(5) 0.6222(2) 0.6220(4) 0.043(3) Uani 1 1 d U . .
H223 H 0.2477 0.6251 0.6503 0.052 Uiso 1 1 calc R . .
C278 C 0.3340(5) 0.62854(19) 0.6210(4) 0.040(2) Uani 1 1 d U . .
H224 H 0.3525 0.6350 0.6498 0.047 Uiso 1 1 calc R . .
C279 C 0.3685(6) 0.6258(2) 0.5808(5) 0.054(3) Uani 1 1 d U . .
H225 H 0.4100 0.6307 0.5809 0.064 Uiso 1 1 calc R . .
C280 C 0.3404(5) 0.61491(19) 0.5369(4) 0.041(2) Uani 1 1 d U . .
H226 H 0.3618 0.6125 0.5073 0.049 Uiso 1 1 calc R . .
C281 C 0.2790(5) 0.60837(19) 0.5423(4) 0.035(2) Uani 1 1 d U . .
C282 C 0.2500(5) 0.5955(2) 0.5005(4) 0.037(2) Uani 1 1 d U . .
H227 H 0.2734 0.5903 0.4735 0.045 Uiso 1 1 calc R . .
C283 C 0.1605(5) 0.5762(2) 0.4644(4) 0.039(2) Uani 1 1 d U . .
H228 H 0.1372 0.5636 0.4826 0.047 Uiso 1 1 calc R . .
C284 C 0.2050(6) 0.5629(3) 0.4322(5) 0.061(4) Uani 1 1 d U . .
H229 H 0.2231 0.5743 0.4091 0.091 Uiso 1 1 calc R . .
H230 H 0.1835 0.5501 0.4139 0.091 Uiso 1 1 calc R . .
H231 H 0.2372 0.5556 0.4526 0.091 Uiso 1 1 calc R . .
C285 C 0.1152(4) 0.59005(16) 0.4337(4) 0.044(2) Uani 1 1 d DU . .
C286 C 0.1247(5) 0.61395(17) 0.4259(4) 0.052(3) Uani 1 1 d DU . .
H232 H 0.1601 0.6215 0.4391 0.062 Uiso 1 1 calc R . .
C287 C 0.0814(5) 0.62798(17) 0.3976(4) 0.049(3) Uani 1 1 d DU . .
H233 H 0.0895 0.6445 0.3903 0.059 Uiso 1 1 calc R . .
C288 C 0.0298(5) 0.61758(17) 0.3818(4) 0.057(3) Uani 1 1 d DU . .
H234 H 0.0005 0.6272 0.3648 0.069 Uiso 1 1 calc R . .
C289 C 0.0174(4) 0.59249(16) 0.3897(4) 0.051(3) Uani 1 1 d DU . .
C290 C -0.0357(5) 0.5811(2) 0.3712(5) 0.069(4) Uani 1 1 d DU . .
H235 H -0.0642 0.5902 0.3523 0.083 Uiso 1 1 calc R . .
C291 C -0.0468(5) 0.5572(2) 0.3800(5) 0.073(4) Uani 1 1 d DU . .
H236 H -0.0838 0.5500 0.3690 0.088 Uiso 1 1 calc R . .
C292 C -0.0028(5) 0.5432(2) 0.4055(5) 0.068(3) Uani 1 1 d DU . .
H237 H -0.0102 0.5265 0.4108 0.082 Uiso 1 1 calc R . .
C293 C 0.0501(5) 0.55330(17) 0.4227(4) 0.051(3) Uani 1 1 d DU . .
H238 H 0.0798 0.5433 0.4383 0.061 Uiso 1 1 calc R . .
C294 C 0.0618(4) 0.57857(16) 0.4178(4) 0.049(3) Uani 1 1 d DU . .
C295 C 0.0357(4) 0.57352(17) 0.5444(4) 0.036(2) Uani 1 1 d DU . .
H239 H 0.0564 0.5590 0.5533 0.043 Uiso 1 1 calc R . .
C296 C -0.0228(5) 0.5717(2) 0.5258(5) 0.057(3) Uani 1 1 d DU . .
H240 H -0.0416 0.5562 0.5223 0.068 Uiso 1 1 calc R . .
C297 C -0.0544(5) 0.5926(2) 0.5121(4) 0.051(3) Uani 1 1 d DU . .
H241 H -0.0945 0.5918 0.4986 0.061 Uiso 1 1 calc R . .
C298 C -0.0257(5) 0.61434(19) 0.5190(4) 0.046(3) Uani 1 1 d DU . .
H242 H -0.0469 0.6289 0.5114 0.055 Uiso 1 1 calc R . .
C299 C 0.0307(5) 0.61565(18) 0.5359(4) 0.040(2) Uani 1 1 d DU . .
C300 C 0.0694(5) 0.6376(2) 0.5453(4) 0.036(2) Uani 1 1 d U . .
H243 H 0.0511 0.6531 0.5424 0.043 Uiso 1 1 calc R . .
C301 C 0.1563(6) 0.6602(2) 0.5733(5) 0.050(3) Uani 1 1 d U . .
H244 H 0.1758 0.6568 0.6058 0.060 Uiso 1 1 calc R . .
C302 C 0.1144(6) 0.6824(2) 0.5795(5) 0.061(4) Uani 1 1 d U . .
H245 H 0.1382 0.6960 0.5927 0.092 Uiso 1 1 calc R . .
H246 H 0.0817 0.6784 0.6021 0.092 Uiso 1 1 calc R . .
H247 H 0.0968 0.6869 0.5476 0.092 Uiso 1 1 calc R . .
C303 C 0.2061(4) 0.66497(19) 0.5378(3) 0.045(2) Uani 1 1 d DU . .
C304 C 0.1987(5) 0.6604(2) 0.4886(3) 0.057(3) Uani 1 1 d DU . .
H248 H 0.1606 0.6546 0.4765 0.069 Uiso 1 1 calc R . .
C305 C 0.2478(5) 0.6642(3) 0.4551(4) 0.070(4) Uani 1 1 d DU . .
H249 H 0.2415 0.6606 0.4214 0.084 Uiso 1 1 calc R . .
C306 C 0.3011(5) 0.6725(2) 0.4700(3) 0.061(3) Uani 1 1 d DU . .
H250 H 0.3327 0.6749 0.4471 0.073 Uiso 1 1 calc R . .
C307 C 0.3116(4) 0.6778(2) 0.5207(3) 0.057(3) Uani 1 1 d DU . .
C308 C 0.3699(5) 0.6846(2) 0.5386(4) 0.062(3) Uani 1 1 d DU . .
H251 H 0.4033 0.6854 0.5170 0.074 Uiso 1 1 calc R . .
C309 C 0.3779(5) 0.6900(2) 0.5868(4) 0.063(3) Uani 1 1 d DU . .
H252 H 0.4176 0.6940 0.5984 0.076 Uiso 1 1 calc R . .
C310 C 0.3306(5) 0.6900(2) 0.6195(4) 0.058(3) Uani 1 1 d DU . .
H253 H 0.3367 0.6957 0.6520 0.070 Uiso 1 1 calc R . .
C311 C 0.2735(4) 0.6815(2) 0.6040(3) 0.049(3) Uani 1 1 d DU . .
H254 H 0.2415 0.6801 0.6269 0.059 Uiso 1 1 calc R . .
C312 C 0.2630(4) 0.6748(2) 0.5546(3) 0.050(3) Uani 1 1 d DU . .
C313 C -0.0416(5) 0.50345(19) 0.6356(3) 0.041(3) Uani 1 1 d DU . .
H255 H -0.0395 0.5073 0.6694 0.049 Uiso 1 1 calc R . .
C314 C -0.0844(5) 0.51568(19) 0.6064(3) 0.043(3) Uani 1 1 d DU . .
H256 H -0.1123 0.5267 0.6206 0.052 Uiso 1 1 calc R . .
C315 C -0.0854(5) 0.5115(2) 0.5573(3) 0.056(3) Uani 1 1 d DU . .
H257 H -0.1127 0.5202 0.5365 0.067 Uiso 1 1 calc R . .
C316 C -0.0462(5) 0.49443(19) 0.5379(3) 0.046(3) Uani 1 1 d DU . .
H258 H -0.0460 0.4915 0.5036 0.055 Uiso 1 1 calc R . .
H259 H -0.0176 0.3179 0.8446 0.055 Uiso 1 1 d R . .
C317 C -0.0082(4) 0.48196(17) 0.5683(3) 0.030(2) Uani 1 1 d DU . .
C318 C 0.0372(5) 0.46420(19) 0.5493(4) 0.032(2) Uani 1 1 d U . .
C319 C 0.1202(5) 0.43753(19) 0.5641(4) 0.035(2) Uani 1 1 d U . .
H260 H 0.1567 0.4427 0.5837 0.042 Uiso 1 1 calc R . .
C320 C 0.1379(5) 0.4402(2) 0.5098(4) 0.046(3) Uani 1 1 d U . .
H261 H 0.1253 0.4562 0.4978 0.068 Uiso 1 1 calc R . .
H262 H 0.1175 0.4276 0.4904 0.068 Uiso 1 1 calc R . .
H263 H 0.1821 0.4385 0.5069 0.068 Uiso 1 1 calc R . .
C321 C 0.1096(3) 0.41070(15) 0.5765(3) 0.028(2) Uani 1 1 d DU . .
C322 C 0.0526(4) 0.40086(16) 0.5711(3) 0.034(2) Uani 1 1 d DU . .
H264 H 0.0204 0.4105 0.5580 0.040 Uiso 1 1 calc R . .
C323 C 0.0409(4) 0.37638(17) 0.5850(4) 0.048(3) Uani 1 1 d DU . .
H265 H 0.0009 0.3699 0.5821 0.058 Uiso 1 1 calc R . .
C324 C 0.0867(4) 0.36249(17) 0.6022(4) 0.050(3) Uani 1 1 d DU . .
H266 H 0.0784 0.3463 0.6118 0.060 Uiso 1 1 calc R . .
C325 C 0.1469(4) 0.37135(15) 0.6064(4) 0.037(2) Uani 1 1 d DU . .
C326 C 0.1952(4) 0.35706(18) 0.6252(4) 0.055(3) Uani 1 1 d DU . .
H267 H 0.1868 0.3409 0.6352 0.066 Uiso 1 1 calc R . .
C327 C 0.2521(5) 0.36522(18) 0.6295(4) 0.053(3) Uani 1 1 d DU . .
H268 H 0.2836 0.3551 0.6422 0.063 Uiso 1 1 calc R . .
C328 C 0.2645(4) 0.38917(18) 0.6149(4) 0.049(3) Uani 1 1 d DU . .
H269 H 0.3046 0.3954 0.6190 0.059 Uiso 1 1 calc R . .
C329 C 0.2197(4) 0.40392(16) 0.5948(4) 0.035(2) Uani 1 1 d DU . .
H270 H 0.2303 0.4194 0.5821 0.043 Uiso 1 1 calc R . .
C330 C 0.1585(3) 0.39626(14) 0.5931(4) 0.033(2) Uani 1 1 d DU . .
C331 C 0.1677(5) 0.43569(17) 0.6907(3) 0.029(2) Uani 1 1 d DU . .
H271 H 0.1928 0.4488 0.6807 0.035 Uiso 1 1 calc R . .
C332 C 0.1960(5) 0.4140(2) 0.7108(4) 0.040(3) Uani 1 1 d DU . .
H272 H 0.2390 0.4133 0.7152 0.048 Uiso 1 1 calc R . .
C333 C 0.1628(5) 0.3958(2) 0.7227(4) 0.044(3) Uani 1 1 d DU . .
H273 H 0.1819 0.3812 0.7336 0.053 Uiso 1 1 calc R . .
C334 C 0.1003(5) 0.3969(2) 0.7200(4) 0.049(3) Uani 1 1 d DU . .
H274 H 0.0758 0.3839 0.7313 0.059 Uiso 1 1 calc R . .
C335 C 0.0736(4) 0.41832(18) 0.6996(4) 0.032(2) Uani 1 1 d DU . .
C336 C 0.0067(5) 0.4218(2) 0.6974(4) 0.037(2) Uani 1 1 d U . .
H275 H -0.0200 0.4097 0.7097 0.044 Uiso 1 1 calc R . .
C337 C -0.0800(5) 0.4473(2) 0.6812(3) 0.036(2) Uani 1 1 d U . .
H276 H -0.0844 0.4643 0.6933 0.043 Uiso 1 1 calc R . .
C338 C -0.1153(5) 0.4303(3) 0.7153(4) 0.048(3) Uani 1 1 d U . .
H277 H -0.1109 0.4135 0.7042 0.072 Uiso 1 1 calc R . .
H278 H -0.1585 0.4348 0.7148 0.072 Uiso 1 1 calc R . .
H279 H -0.0990 0.4318 0.7488 0.072 Uiso 1 1 calc R . .
C339 C -0.1082(4) 0.44577(18) 0.6288(3) 0.041(2) Uani 1 1 d DU . .
C340 C -0.0916(5) 0.42716(18) 0.5991(3) 0.042(3) Uani 1 1 d DU . .
H280 H -0.0637 0.4152 0.6107 0.050 Uiso 1 1 calc R . .
C341 C -0.1163(4) 0.42558(19) 0.5501(3) 0.039(2) Uani 1 1 d DU . .
H281 H -0.1010 0.4139 0.5279 0.046 Uiso 1 1 calc R . .
C342 C -0.1611(5) 0.44067(19) 0.5361(3) 0.047(3) Uani 1 1 d DU . .
H282 H -0.1791 0.4389 0.5045 0.057 Uiso 1 1 calc R . .
C343 C -0.1824(4) 0.4594(2) 0.5678(3) 0.049(3) Uani 1 1 d DU . .
C344 C -0.2277(5) 0.4759(2) 0.5529(4) 0.056(3) Uani 1 1 d DU . .
H283 H -0.2422 0.4758 0.5200 0.067 Uiso 1 1 calc R . .
C345 C -0.2509(5) 0.4920(2) 0.5848(4) 0.059(3) Uani 1 1 d DU . .
H284 H -0.2835 0.5023 0.5748 0.071 Uiso 1 1 calc R . .
C346 C -0.2272(5) 0.4937(2) 0.6324(4) 0.057(3) Uani 1 1 d DU . .
H285 H -0.2441 0.5050 0.6546 0.068 Uiso 1 1 calc R . .
C347 C -0.1802(5) 0.4793(2) 0.6472(3) 0.050(3) Uani 1 1 d DU . .
H286 H -0.1634 0.4813 0.6792 0.060 Uiso 1 1 calc R . .
C348 C -0.1556(4) 0.46137(17) 0.6156(3) 0.036(2) Uani 1 1 d DU . .
C349 C 0.1372(5) 0.5391(2) 0.9796(4) 0.037(2) Uani 1 1 d U . .
H287 H 0.1697 0.5453 0.9607 0.045 Uiso 1 1 calc R . .
C350 C 0.1069(6) 0.5545(2) 1.0111(5) 0.050(3) Uani 1 1 d U . .
H288 H 0.1196 0.5709 1.0136 0.060 Uiso 1 1 calc R . .
C351 C 0.0608(5) 0.5471(2) 1.0379(5) 0.046(3) Uani 1 1 d U . .
H289 H 0.0392 0.5577 1.0587 0.055 Uiso 1 1 calc R . .
C352 C 0.0459(5) 0.5226(2) 1.0336(4) 0.041(3) Uani 1 1 d U . .
H290 H 0.0148 0.5161 1.0536 0.049 Uiso 1 1 calc R . .
C353 C 0.0752(4) 0.5075(2) 1.0011(4) 0.031(2) Uani 1 1 d U . .
C354 C 0.0549(5) 0.48313(18) 0.9919(4) 0.029(2) Uani 1 1 d U . .
H291 H 0.0194 0.4770 1.0070 0.034 Uiso 1 1 calc R . .
C355 C 0.0604(4) 0.44603(17) 0.9452(4) 0.0225(19) Uani 1 1 d U . .
H292 H 0.0607 0.4465 0.9087 0.027 Uiso 1 1 calc R . .
C356 C -0.0035(4) 0.4416(2) 0.9597(4) 0.043(3) Uani 1 1 d U . .
H293 H -0.0180 0.4265 0.9448 0.064 Uiso 1 1 calc R . .
H294 H -0.0291 0.4551 0.9484 0.064 Uiso 1 1 calc R . .
H295 H -0.0055 0.4404 0.9954 0.064 Uiso 1 1 calc R . .
C357 C 0.1019(4) 0.42585(14) 0.9607(3) 0.0224(18) Uani 1 1 d DU . .
C358 C 0.1259(4) 0.42556(16) 1.0070(3) 0.035(2) Uani 1 1 d DU . .
H296 H 0.1177 0.4387 1.0284 0.042 Uiso 1 1 calc R . .
C359 C 0.1631(5) 0.40582(19) 1.0244(4) 0.054(3) Uani 1 1 d DU . .
H297 H 0.1765 0.4055 1.0576 0.065 Uiso 1 1 calc R . .
C360 C 0.1788(5) 0.38801(18) 0.9940(3) 0.049(3) Uani 1 1 d DU . .
H298 H 0.2061 0.3757 1.0049 0.058 Uiso 1 1 calc R . .
C361 C 0.1550(4) 0.38727(17) 0.9452(3) 0.042(2) Uani 1 1 d DU . .
C362 C 0.1682(5) 0.36789(19) 0.9133(4) 0.059(3) Uani 1 1 d DU . .
H299 H 0.1950 0.3554 0.9238 0.071 Uiso 1 1 calc R . .
C363 C 0.1426(5) 0.3670(2) 0.8674(4) 0.060(3) Uani 1 1 d DU . .
H300 H 0.1555 0.3551 0.8448 0.072 Uiso 1 1 calc R . .
C364 C 0.0984(5) 0.38331(18) 0.8540(3) 0.051(3) Uani 1 1 d DU . .
H301 H 0.0772 0.3812 0.8238 0.061 Uiso 1 1 calc R . .
C365 C 0.0836(5) 0.40289(17) 0.8835(3) 0.039(2) Uani 1 1 d DU . .
H302 H 0.0545 0.4145 0.8725 0.047 Uiso 1 1 calc R . .
C366 C 0.1122(4) 0.40555(15) 0.9300(3) 0.030(2) Uani 1 1 d DU . .
C367 C 0.1797(3) 0.44856(17) 0.8548(3) 0.028(2) Uani 1 1 d DU . .
H303 H 0.1498 0.4559 0.8341 0.034 Uiso 1 1 calc R . .
C368 C 0.2062(4) 0.42680(18) 0.8417(3) 0.036(2) Uani 1 1 d DU . .
H304 H 0.1912 0.4184 0.8136 0.044 Uiso 1 1 calc R . .
C369 C 0.2531(4) 0.41708(17) 0.8677(3) 0.036(2) Uani 1 1 d DU . .
H305 H 0.2724 0.4027 0.8566 0.043 Uiso 1 1 calc R . .
C370 C 0.2731(4) 0.42823(19) 0.9113(3) 0.037(2) Uani 1 1 d DU . .
H306 H 0.3058 0.4219 0.9306 0.045 Uiso 1 1 calc R . .
C371 C 0.2423(4) 0.44885(17) 0.9241(3) 0.029(2) Uani 1 1 d DU . .
C372 C 0.2638(4) 0.46319(19) 0.9648(3) 0.026(2) Uani 1 1 d U . .
H307 H 0.3013 0.4593 0.9806 0.031 Uiso 1 1 calc R . .
C373 C 0.2578(5) 0.4988(2) 1.0179(4) 0.036(2) Uani 1 1 d U . .
H308 H 0.2566 0.5154 1.0028 0.043 Uiso 1 1 calc R . .
C374 C 0.3220(4) 0.49447(19) 1.0343(3) 0.028(2) Uani 1 1 d U . .
H309 H 0.3331 0.5062 1.0599 0.043 Uiso 1 1 calc R . .
H310 H 0.3493 0.4964 1.0065 0.043 Uiso 1 1 calc R . .
H311 H 0.3257 0.4780 1.0474 0.043 Uiso 1 1 calc R . .
C375 C 0.2152(4) 0.49927(15) 1.0604(3) 0.030(2) Uani 1 1 d DU . .
C376 C 0.1866(5) 0.47840(18) 1.0740(4) 0.049(3) Uani 1 1 d DU . .
H312 H 0.1930 0.4640 1.0556 0.059 Uiso 1 1 calc R . .
C377 C 0.1471(5) 0.47759(19) 1.1155(4) 0.053(3) Uani 1 1 d DU . .
H313 H 0.1285 0.4628 1.1249 0.063 Uiso 1 1 calc R . .
C378 C 0.1370(6) 0.49783(19) 1.1405(5) 0.074(4) Uani 1 1 d DU . .
H314 H 0.1121 0.4972 1.1687 0.089 Uiso 1 1 calc R . .
C379 C 0.1623(6) 0.52033(18) 1.1263(4) 0.067(3) Uani 1 1 d DU . .
C380 C 0.1484(7) 0.5423(2) 1.1500(5) 0.095(4) Uani 1 1 d DU . .
H315 H 0.1160 0.5428 1.1726 0.114 Uiso 1 1 calc R . .
C381 C 0.1802(7) 0.5624(2) 1.1413(5) 0.093(4) Uani 1 1 d DU . .
H316 H 0.1738 0.5763 1.1611 0.111 Uiso 1 1 calc R . .
C382 C 0.2222(7) 0.5637(2) 1.1040(5) 0.085(4) Uani 1 1 d DU . .
H317 H 0.2415 0.5786 1.0964 0.102 Uiso 1 1 calc R . .
C383 C 0.2357(5) 0.54278(17) 1.0780(4) 0.059(3) Uani 1 1 d DU . .
H318 H 0.2663 0.5433 1.0538 0.071 Uiso 1 1 calc R . .
C384 C 0.2049(5) 0.52100(15) 1.0868(3) 0.045(2) Uani 1 1 d DU . .
C385 C 0.4121(5) 0.5600(2) 0.6598(4) 0.040(2) Uani 1 1 d U . .
H319 H 0.3735 0.5580 0.6442 0.048 Uiso 1 1 calc R . .
C386 C 0.4465(5) 0.5800(2) 0.6496(5) 0.046(3) Uani 1 1 d U . .
H320 H 0.4311 0.5911 0.6259 0.056 Uiso 1 1 calc R . .
C387 C 0.5013(5) 0.5852(2) 0.6713(4) 0.047(3) Uani 1 1 d U . .
H321 H 0.5238 0.5994 0.6635 0.057 Uiso 1 1 calc R . .
C388 C 0.5237(6) 0.5673(2) 0.7078(5) 0.052(3) Uani 1 1 d U . .
H322 H 0.5609 0.5693 0.7255 0.062 Uiso 1 1 calc R . .
C389 C 0.4878(5) 0.5484(2) 0.7136(4) 0.041(2) Uani 1 1 d U . .
C390 C 0.5058(5) 0.5293(2) 0.7509(4) 0.036(2) Uani 1 1 d U . .
H323 H 0.5404 0.5317 0.7717 0.044 Uiso 1 1 calc R . .
C391 C 0.4854(5) 0.4921(2) 0.7920(4) 0.037(2) Uani 1 1 d U . .
H324 H 0.4453 0.4888 0.8075 0.044 Uiso 1 1 calc R . .
C392 C 0.5299(5) 0.5011(2) 0.8338(4) 0.048(3) Uani 1 1 d U . .
H325 H 0.5278 0.4900 0.8618 0.072 Uiso 1 1 calc R . .
H326 H 0.5180 0.5174 0.8442 0.072 Uiso 1 1 calc R . .
H327 H 0.5716 0.5014 0.8216 0.072 Uiso 1 1 calc R . .
C393 C 0.5088(4) 0.46803(15) 0.7725(3) 0.034(2) Uani 1 1 d DU . .
C394 C 0.5495(5) 0.46888(17) 0.7349(3) 0.041(3) Uani 1 1 d DU . .
H328 H 0.5649 0.4840 0.7239 0.049 Uiso 1 1 calc R . .
C395 C 0.5684(5) 0.44699(18) 0.7125(4) 0.055(3) Uani 1 1 d DU . .
H329 H 0.5982 0.4475 0.6876 0.066 Uiso 1 1 calc R . .
C396 C 0.5444(5) 0.42534(18) 0.7261(4) 0.055(3) Uani 1 1 d DU . .
H330 H 0.5555 0.4111 0.7087 0.065 Uiso 1 1 calc R . .
C397 C 0.5042(5) 0.42333(15) 0.7645(3) 0.045(2) Uani 1 1 d DU . .
C398 C 0.4837(5) 0.40099(16) 0.7842(4) 0.050(3) Uani 1 1 d DU . .
H331 H 0.4947 0.3863 0.7684 0.060 Uiso 1 1 calc R . .
C399 C 0.4495(6) 0.39990(18) 0.8241(4) 0.062(3) Uani 1 1 d DU . .
H332 H 0.4363 0.3846 0.8356 0.074 Uiso 1 1 calc R . .
C400 C 0.4326(5) 0.42124(18) 0.8497(4) 0.051(3) Uani 1 1 d DU . .
H333 H 0.4086 0.4202 0.8783 0.061 Uiso 1 1 calc R . .
C401 C 0.4513(4) 0.44337(17) 0.8327(3) 0.043(2) Uani 1 1 d DU . .
H334 H 0.4403 0.4576 0.8501 0.052 Uiso 1 1 calc R . .
C402 C 0.4867(4) 0.44559(14) 0.7900(3) 0.033(2) Uani 1 1 d DU . .
C403 C 0.3470(4) 0.4633(2) 0.7563(4) 0.034(2) Uani 1 1 d U . .
H335 H 0.3342 0.4733 0.7826 0.041 Uiso 1 1 calc R . .
C404 C 0.3373(5) 0.4381(2) 0.7591(4) 0.040(3) Uani 1 1 d U . .
H336 H 0.3174 0.4309 0.7861 0.048 Uiso 1 1 calc R . .
C405 C 0.3579(5) 0.4249(2) 0.7214(5) 0.051(3) Uani 1 1 d U . .
H337 H 0.3529 0.4079 0.7237 0.061 Uiso 1 1 calc R . .
C406 C 0.3836(5) 0.4329(2) 0.6829(4) 0.043(3) Uani 1 1 d U . .
H338 H 0.3966 0.4224 0.6575 0.052 Uiso 1 1 calc R . .
C407 C 0.3918(5) 0.4592(2) 0.6801(4) 0.033(2) Uani 1 1 d U . .
C408 C 0.4184(5) 0.4726(2) 0.6400(4) 0.037(2) Uani 1 1 d U . .
H339 H 0.4293 0.4642 0.6111 0.044 Uiso 1 1 calc R . .
C409 C 0.4464(4) 0.5076(2) 0.5930(3) 0.029(2) Uani 1 1 d U . .
H340 H 0.4165 0.5210 0.5876 0.035 Uiso 1 1 calc R . .
C410 C 0.4438(6) 0.4926(2) 0.5493(4) 0.047(3) Uani 1 1 d U . .
H341 H 0.4535 0.5024 0.5206 0.070 Uiso 1 1 calc R . .
H342 H 0.4028 0.4858 0.5454 0.070 Uiso 1 1 calc R . .
H343 H 0.4735 0.4794 0.5525 0.070 Uiso 1 1 calc R . .
C411 C 0.5080(4) 0.51945(18) 0.6005(4) 0.043(2) Uani 1 1 d DU . .
C412 C 0.5517(4) 0.5096(2) 0.6313(5) 0.066(3) Uani 1 1 d DU . .
H344 H 0.5418 0.4955 0.6496 0.079 Uiso 1 1 calc R . .
C413 C 0.6106(5) 0.5195(3) 0.6367(5) 0.080(4) Uani 1 1 d DU . .
H345 H 0.6396 0.5121 0.6580 0.096 Uiso 1 1 calc R . .
C414 C 0.6259(5) 0.5399(2) 0.6112(5) 0.074(4) Uani 1 1 d DU . .
H346 H 0.6661 0.5462 0.6133 0.089 Uiso 1 1 calc R . .
C415 C 0.5814(4) 0.55155(19) 0.5816(4) 0.059(3) Uani 1 1 d DU . .
C416 C 0.5950(5) 0.5734(2) 0.5558(5) 0.075(4) Uani 1 1 d DU . .
H347 H 0.6333 0.5811 0.5610 0.090 Uiso 1 1 calc R . .
C417 C 0.5549(6) 0.5831(2) 0.5246(5) 0.076(4) Uani 1 1 d DU . .
H348 H 0.5659 0.5971 0.5064 0.091 Uiso 1 1 calc R . .
C418 C 0.4970(5) 0.5731(2) 0.5178(4) 0.065(3) Uani 1 1 d DU . .
H349 H 0.4697 0.5800 0.4945 0.078 Uiso 1 1 calc R . .
C419 C 0.4793(4) 0.55335(17) 0.5448(4) 0.045(3) Uani 1 1 d DU . .
H350 H 0.4381 0.5481 0.5434 0.054 Uiso 1 1 calc R . .
C420 C 0.5219(4) 0.54082(17) 0.5747(4) 0.043(2) Uani 1 1 d DU . .
C421 C -0.0313(5) 0.5801(2) 0.9001(3) 0.033(2) Uani 1 1 d U . .
H351 H -0.0142 0.5648 0.8921 0.040 Uiso 1 1 calc R . .
C422 C -0.0264(5) 0.5877(2) 0.9472(4) 0.033(2) Uani 1 1 d U . .
H352 H -0.0077 0.5776 0.9712 0.039 Uiso 1 1 calc R . .
C423 C -0.0492(5) 0.6110(2) 0.9608(5) 0.046(3) Uani 1 1 d U . .
H353 H -0.0462 0.6173 0.9931 0.055 Uiso 1 1 calc R . .
C424 C -0.0770(5) 0.6237(2) 0.9206(4) 0.040(2) Uani 1 1 d U . .
H354 H -0.0937 0.6393 0.9270 0.048 Uiso 1 1 calc R . .
C425 C -0.0811(5) 0.6151(2) 0.8739(4) 0.039(2) Uani 1 1 d U . .
C426 C -0.1067(5) 0.6282(2) 0.8323(4) 0.041(3) Uani 1 1 d U . .
H355 H -0.1169 0.6448 0.8360 0.050 Uiso 1 1 calc R . .
C427 C -0.1331(5) 0.6324(2) 0.7483(4) 0.037(2) Uani 1 1 d U . .
H356 H -0.1036 0.6277 0.7224 0.044 Uiso 1 1 calc R . .
C428 C -0.1282(6) 0.6606(2) 0.7545(4) 0.047(3) Uani 1 1 d U . .
H357 H -0.1596 0.6662 0.7769 0.071 Uiso 1 1 calc R . .
H358 H -0.1341 0.6684 0.7225 0.071 Uiso 1 1 calc R . .
H359 H -0.0879 0.6647 0.7678 0.071 Uiso 1 1 calc R . .
C429 C -0.1979(4) 0.6243(2) 0.7294(3) 0.041(2) Uani 1 1 d DU . .
C430 C -0.2403(4) 0.6182(2) 0.7630(3) 0.043(3) Uani 1 1 d DU . .
H360 H -0.2295 0.6186 0.7968 0.052 Uiso 1 1 calc R . .
C431 C -0.3011(4) 0.6113(2) 0.7486(4) 0.048(3) Uani 1 1 d DU . .
H361 H -0.3295 0.6059 0.7722 0.058 Uiso 1 1 calc R . .
C432 C -0.3169(4) 0.6125(2) 0.7008(4) 0.060(3) Uani 1 1 d DU . .
H362 H -0.3567 0.6076 0.6908 0.072 Uiso 1 1 calc R . .
C433 C -0.2758(4) 0.6209(2) 0.6649(3) 0.053(3) Uani 1 1 d DU . .
C434 C -0.2926(5) 0.6222(2) 0.6142(3) 0.060(3) Uani 1 1 d DU . .
H363 H -0.3335 0.6192 0.6042 0.072 Uiso 1 1 calc R . .
C435 C -0.2506(5) 0.6277(3) 0.5810(4) 0.065(3) Uani 1 1 d DU . .
H364 H -0.2613 0.6264 0.5473 0.078 Uiso 1 1 calc R . .
C436 C -0.1915(5) 0.6353(3) 0.5937(3) 0.061(3) Uani 1 1 d DU . .
H365 H -0.1641 0.6405 0.5693 0.073 Uiso 1 1 calc R . .
C437 C -0.1743(5) 0.6350(2) 0.6420(3) 0.050(3) Uani 1 1 d DU . .
H366 H -0.1347 0.6405 0.6510 0.060 Uiso 1 1 calc R . .
C438 C -0.2139(4) 0.62667(19) 0.6793(3) 0.039(2) Uani 1 1 d DU . .
C439 C -0.1014(4) 0.5803(2) 0.6785(4) 0.031(2) Uani 1 1 d U . .
H367 H -0.0623 0.5876 0.6762 0.037 Uiso 1 1 calc R . .
C440 C -0.1338(5) 0.5774(2) 0.6370(4) 0.040(3) Uani 1 1 d U . .
H368 H -0.1193 0.5826 0.6061 0.048 Uiso 1 1 calc R . .
C441 C -0.1923(5) 0.5656(2) 0.6424(4) 0.040(2) Uani 1 1 d U . .
H369 H -0.2162 0.5621 0.6140 0.048 Uiso 1 1 calc R . .
C442 C -0.2133(5) 0.5598(2) 0.6862(4) 0.035(2) Uani 1 1 d U . .
H370 H -0.2531 0.5533 0.6897 0.042 Uiso 1 1 calc R . .
C443 C -0.1752(4) 0.56353(19) 0.7277(4) 0.030(2) Uani 1 1 d U . .
C444 C -0.1907(4) 0.5554(2) 0.7754(4) 0.031(2) Uani 1 1 d U . .
H371 H -0.2244 0.5448 0.7791 0.037 Uiso 1 1 calc R . .
C445 C -0.1720(4) 0.55125(18) 0.8625(4) 0.026(2) Uani 1 1 d U . .
H372 H -0.1323 0.5447 0.8748 0.031 Uiso 1 1 calc R . .
C446 C -0.2155(5) 0.5302(2) 0.8590(4) 0.037(3) Uani 1 1 d U . .
H373 H -0.2162 0.5217 0.8905 0.055 Uiso 1 1 calc R . .
H374 H -0.2021 0.5191 0.8334 0.055 Uiso 1 1 calc R . .
H375 H -0.2564 0.5362 0.8510 0.055 Uiso 1 1 calc R . .
C447 C -0.1904(4) 0.57081(15) 0.8971(3) 0.029(2) Uani 1 1 d DU . .
C448 C -0.2296(4) 0.58874(17) 0.8810(3) 0.037(2) Uani 1 1 d DU . .
H376 H -0.2436 0.5888 0.8480 0.044 Uiso 1 1 calc R . .
C449 C -0.2492(5) 0.60746(17) 0.9144(3) 0.047(3) Uani 1 1 d DU . .
H377 H -0.2759 0.6199 0.9029 0.056 Uiso 1 1 calc R . .
C450 C -0.2306(5) 0.60752(17) 0.9605(3) 0.045(3) Uani 1 1 d DU . .
H378 H -0.2437 0.6201 0.9817 0.054 Uiso 1 1 calc R . .
C451 C -0.1912(4) 0.58917(15) 0.9793(3) 0.036(2) Uani 1 1 d DU . .
C452 C -0.1718(5) 0.58883(17) 1.0291(3) 0.043(3) Uani 1 1 d DU . .
H379 H -0.1847 0.6012 1.0508 0.052 Uiso 1 1 calc R . .
C453 C -0.1350(5) 0.57076(18) 1.0457(3) 0.049(3) Uani 1 1 d DU . .
H380 H -0.1206 0.5713 1.0786 0.059 Uiso 1 1 calc R . .
C454 C -0.1176(5) 0.55166(17) 1.0165(3) 0.044(3) Uani 1 1 d DU . .
H381 H -0.0927 0.5391 1.0294 0.053 Uiso 1 1 calc R . .
C455 C -0.1369(4) 0.55104(15) 0.9678(3) 0.038(2) Uani 1 1 d DU . .
H382 H -0.1260 0.5377 0.9479 0.045 Uiso 1 1 calc R . .
C456 C -0.1725(4) 0.57009(14) 0.9474(2) 0.0253(19) Uani 1 1 d DU . .
C457 C 0.1492(4) 0.62665(18) 0.7768(4) 0.036(3) Uani 1 1 d DU . .
C458 C 0.1152(4) 0.61954(17) 0.6776(3) 0.028(2) Uani 1 1 d DU . .
C459 C 0.0305(4) 0.61213(17) 0.7513(3) 0.023(2) Uani 1 1 d DU . .
C460 C 0.0204(4) 0.64960(18) 0.6858(4) 0.037(3) Uani 1 1 d DU . .
C461 C 0.0496(4) 0.65780(19) 0.7860(4) 0.046(3) Uani 1 1 d DU . .
C462 C 0.1385(4) 0.66493(17) 0.7141(4) 0.033(3) Uani 1 1 d DU . .
C463 C 0.1903(4) 0.54610(17) 0.5882(3) 0.028(2) Uani 1 1 d DU . .
C464 C 0.1654(4) 0.49810(15) 0.6170(3) 0.020(2) Uani 1 1 d DU . .
C465 C 0.2810(4) 0.51701(18) 0.6357(3) 0.032(2) Uani 1 1 d DU . .
C466 C 0.2622(4) 0.48254(17) 0.5680(3) 0.028(2) Uani 1 1 d DU . .
C467 C 0.2890(4) 0.53231(18) 0.5426(3) 0.026(2) Uani 1 1 d DU . .
C468 C 0.1738(5) 0.51032(19) 0.5212(4) 0.052(3) Uani 1 1 d DU . .
C469 C 0.0125(4) 0.48629(17) 0.7565(3) 0.026(2) Uani 1 1 d DU . .
C470 C 0.0486(3) 0.49416(16) 0.8547(3) 0.018(2) Uani 1 1 d DU . .
C471 C -0.0332(4) 0.52729(16) 0.8072(3) 0.024(2) Uani 1 1 d DU . .
C472 C -0.0673(4) 0.49645(18) 0.8829(4) 0.036(3) Uani 1 1 d DU . .
C473 C -0.1075(4) 0.49142(18) 0.7837(3) 0.028(2) Uani 1 1 d DU . .
C474 C -0.0286(5) 0.45769(17) 0.8274(3) 0.034(3) Uani 1 1 d DU . .
C475 C 0.3031(4) 0.57030(16) 0.8588(3) 0.036(3) Uani 1 1 d DU . .
C476 C 0.2670(3) 0.52296(14) 0.8899(3) 0.018(2) Uani 1 1 d DU . .
C477 C 0.3480(4) 0.52809(16) 0.8108(3) 0.023(2) Uani 1 1 d DU . .
C478 C 0.3855(4) 0.50983(16) 0.8985(3) 0.037(3) Uani 1 1 d DU . .
C479 C 0.4192(4) 0.55732(17) 0.8638(3) 0.042(3) Uani 1 1 d DU . .
C480 C 0.3422(4) 0.55103(16) 0.9453(3) 0.037(3) Uani 1 1 d DU . .
C481 C 0.2176(13) 0.2337(4) 0.5792(9) 0.147(11) Uani 1 1 d . . .
H383 H 0.2227 0.2469 0.6012 0.176 Uiso 1 1 calc R . .
C482 C 0.1830(15) 0.2369(7) 0.5450(9) 0.204(19) Uani 1 1 d . . .
H384 H 0.1632 0.2520 0.5393 0.244 Uiso 1 1 calc R . .
C483 C 0.1741(13) 0.2168(3) 0.5142(7) 0.143(11) Uani 1 1 d . . .
H385 H 0.1470 0.2185 0.4870 0.172 Uiso 1 1 calc R . .
C484 C 0.2022(9) 0.1951(3) 0.5211(5) 0.091(6) Uani 1 1 d . . .
H386 H 0.1951 0.1819 0.4995 0.110 Uiso 1 1 calc R . .
C485 C 0.2417(8) 0.1930(3) 0.5611(6) 0.076(5) Uani 1 1 d . . .
C486 C 0.2789(8) 0.1723(3) 0.5685(7) 0.082(5) Uani 1 1 d . . .
H387 H 0.2801 0.1599 0.5443 0.099 Uiso 1 1 calc R . .
C487 C 0.3551(6) 0.1498(2) 0.6168(4) 0.051(3) Uani 1 1 d . . .
H388 H 0.3968 0.1571 0.6172 0.061 Uiso 1 1 calc R . .
C488 C 0.3542(6) 0.1308(2) 0.5754(4) 0.053(4) Uani 1 1 d . . .
H389 H 0.3150 0.1223 0.5750 0.080 Uiso 1 1 calc R . .
H390 H 0.3871 0.1190 0.5810 0.080 Uiso 1 1 calc R . .
H391 H 0.3601 0.1389 0.5439 0.080 Uiso 1 1 calc R . .
C489 C 0.3476(5) 0.1370(2) 0.6668(4) 0.058(4) Uani 1 1 d D . .
C490 C 0.2895(5) 0.1347(2) 0.6855(4) 0.059(4) Uani 1 1 d D . .
H392 H 0.2556 0.1413 0.6681 0.071 Uiso 1 1 calc R . .
C491 C 0.2807(5) 0.1223(2) 0.7307(4) 0.049(3) Uani 1 1 d D . .
H393 H 0.2409 0.1195 0.7426 0.059 Uiso 1 1 calc R . .
C492 C 0.3294(5) 0.1148(2) 0.7558(4) 0.076(5) Uani 1 1 d D . .
H394 H 0.3233 0.1076 0.7869 0.091 Uiso 1 1 calc R . .
C493 C 0.3895(5) 0.1169(2) 0.7392(4) 0.071(5) Uani 1 1 d D . .
C494 C 0.4408(6) 0.1062(3) 0.7625(5) 0.085(5) Uani 1 1 d D . .
H395 H 0.4348 0.0961 0.7903 0.102 Uiso 1 1 calc R . .
C495 C 0.4971(6) 0.1097(3) 0.7468(6) 0.119(8) Uani 1 1 d D . .
H396 H 0.5310 0.1053 0.7669 0.142 Uiso 1 1 calc R . .
C496 C 0.5061(6) 0.1200(3) 0.7001(7) 0.102(6) Uani 1 1 d D . .
H397 H 0.5445 0.1185 0.6848 0.122 Uiso 1 1 calc R . .
C497 C 0.4598(5) 0.1319(2) 0.6773(5) 0.093(6) Uani 1 1 d D . .
H398 H 0.4685 0.1427 0.6511 0.112 Uiso 1 1 calc R . .
C498 C 0.3980(5) 0.1286(3) 0.6921(4) 0.080(5) Uani 1 1 d D . .
C499 C 0.3368(9) 0.1785(3) 0.7560(6) 0.086(5) Uani 1 1 d . . .
H399 H 0.2948 0.1748 0.7591 0.104 Uiso 1 1 calc R . .
C500 C 0.3792(11) 0.1728(3) 0.7952(7) 0.099(7) Uani 1 1 d . . .
H400 H 0.3635 0.1668 0.8251 0.118 Uiso 1 1 calc R . .
C501 C 0.4385(10) 0.1754(3) 0.7914(8) 0.088(6) Uani 1 1 d . . .
H401 H 0.4656 0.1696 0.8162 0.105 Uiso 1 1 calc R . .
C502 C 0.4608(10) 0.1870(3) 0.7493(8) 0.100(6) Uani 1 1 d . . .
H402 H 0.5025 0.1912 0.7462 0.120 Uiso 1 1 calc R . .
C503 C 0.4184(10) 0.1920(3) 0.7124(7) 0.080(5) Uani 1 1 d . . .
C504 C 0.4373(11) 0.2060(3) 0.6671(6) 0.093(6) Uani 1 1 d . . .
H403 H 0.4778 0.2120 0.6656 0.112 Uiso 1 1 calc R . .
C505 C 0.4199(9) 0.2231(3) 0.5911(5) 0.077(5) Uani 1 1 d . . .
H404 H 0.4650 0.2250 0.5950 0.092 Uiso 1 1 calc R . .
C506 C 0.3932(9) 0.2489(2) 0.5853(5) 0.098(7) Uani 1 1 d . . .
H405 H 0.3494 0.2479 0.5784 0.146 Uiso 1 1 calc R . .
H406 H 0.4132 0.2572 0.5581 0.146 Uiso 1 1 calc R . .
H407 H 0.4001 0.2581 0.6156 0.146 Uiso 1 1 calc R . .
C507 C 0.4088(7) 0.2071(2) 0.5460(5) 0.077(5) Uani 1 1 d D . .
C508 C 0.3658(7) 0.2148(2) 0.5121(6) 0.146(12) Uani 1 1 d D . .
H408 H 0.3455 0.2298 0.5168 0.175 Uiso 1 1 calc R . .
C509 C 0.3514(7) 0.2005(3) 0.4703(5) 0.108(7) Uani 1 1 d D . .
H409 H 0.3199 0.2055 0.4483 0.130 Uiso 1 1 calc R . .
C510 C 0.3820(8) 0.1799(3) 0.4615(5) 0.117(8) Uani 1 1 d D . .
H410 H 0.3700 0.1700 0.4346 0.141 Uiso 1 1 calc R . .
C511 C 0.4322(7) 0.1727(3) 0.4918(5) 0.103(7) Uani 1 1 d D . .
C512 C 0.4638(9) 0.1507(3) 0.4836(6) 0.142(12) Uani 1 1 d D . .
H411 H 0.4535 0.1411 0.4559 0.171 Uiso 1 1 calc R . .
C513 C 0.5089(10) 0.1432(3) 0.5151(7) 0.170(14) Uani 1 1 d D . .
H412 H 0.5309 0.1288 0.5086 0.204 Uiso 1 1 calc R . .
C514 C 0.5226(7) 0.1569(3) 0.5568(6) 0.092(6) Uani 1 1 d D . .
H413 H 0.5531 0.1513 0.5791 0.111 Uiso 1 1 calc R . .
C515 C 0.4927(7) 0.1783(3) 0.5664(5) 0.106(6) Uani 1 1 d D . .
H414 H 0.5048 0.1878 0.5940 0.128 Uiso 1 1 calc R . .
C516 C 0.4444(6) 0.1864(2) 0.5359(4) 0.072(5) Uani 1 1 d D . .
C517 C -0.0013(7) 0.2579(4) 0.7910(5) 0.084(6) Uani 1 1 d . . .
H415 H 0.0027 0.2423 0.7768 0.101 Uiso 1 1 calc R . .
C518 C -0.0498(8) 0.2716(4) 0.7805(6) 0.085(6) Uani 1 1 d . . .
H416 H -0.0783 0.2655 0.7570 0.103 Uiso 1 1 calc R . .
C519 C -0.0613(7) 0.2924(4) 0.7997(8) 0.093(6) Uani 1 1 d . . .
H417 H -0.0987 0.3006 0.7931 0.111 Uiso 1 1 calc R . .
C520 C -0.0146(8) 0.3031(3) 0.8319(5) 0.078(5) Uani 1 1 d . . .
C521 C 0.0354(5) 0.2889(3) 0.8396(5) 0.048(3) Uani 1 1 d . . .
C522 C 0.0831(7) 0.2976(2) 0.8703(5) 0.064(4) Uani 1 1 d . . .
H418 H 0.0794 0.3130 0.8855 0.076 Uiso 1 1 calc R . .
C523 C 0.1875(6) 0.2964(3) 0.9037(5) 0.058(4) Uani 1 1 d . . .
H419 H 0.1714 0.3113 0.9199 0.069 Uiso 1 1 calc R . .
C524 C 0.2294(7) 0.3056(3) 0.8651(5) 0.071(5) Uani 1 1 d . . .
H420 H 0.2687 0.3098 0.8802 0.107 Uiso 1 1 calc R . .
H421 H 0.2115 0.3199 0.8495 0.107 Uiso 1 1 calc R . .
H422 H 0.2354 0.2929 0.8405 0.107 Uiso 1 1 calc R . .
C525 C 0.2118(5) 0.2813(2) 0.9440(4) 0.052(3) Uani 1 1 d D . .
C526 C 0.2678(5) 0.2709(2) 0.9379(4) 0.060(4) Uani 1 1 d D . .
H423 H 0.2865 0.2715 0.9068 0.072 Uiso 1 1 calc R . .
C527 C 0.2981(5) 0.2592(2) 0.9777(5) 0.082(6) Uani 1 1 d D . .
H424 H 0.3392 0.2541 0.9747 0.098 Uiso 1 1 calc R . .
C528 C 0.2682(5) 0.2554(2) 1.0200(4) 0.056(4) Uani 1 1 d D . .
H425 H 0.2870 0.2460 1.0451 0.068 Uiso 1 1 calc R . .
C529 C 0.2092(4) 0.2652(2) 1.0276(3) 0.047(3) Uani 1 1 d D . .
C530 C 0.1821(5) 0.2653(2) 1.0734(4) 0.065(4) Uani 1 1 d D . .
H426 H 0.2043 0.2587 1.1003 0.078 Uiso 1 1 calc R . .
C531 C 0.1265(5) 0.2741(3) 1.0813(4) 0.070(5) Uani 1 1 d D . .
H427 H 0.1069 0.2715 1.1116 0.084 Uiso 1 1 calc R . .
C532 C 0.0980(5) 0.2872(2) 1.0435(4) 0.059(4) Uani 1 1 d D . .
H428 H 0.0608 0.2954 1.0499 0.071 Uiso 1 1 calc R . .
C533 C 0.1224(4) 0.2886(2) 0.9974(4) 0.055(4) Uani 1 1 d D . .
H429 H 0.1004 0.2966 0.9719 0.066 Uiso 1 1 calc R . .
C534 C 0.1800(4) 0.27824(18) 0.9876(3) 0.042(3) Uani 1 1 d D . .
C535 C 0.2595(7) 0.2325(3) 0.8389(5) 0.062(4) Uani 1 1 d . . .
H430 H 0.2667 0.2423 0.8110 0.075 Uiso 1 1 calc R . .
C536 C 0.3061(8) 0.2162(4) 0.8578(9) 0.118(9) Uani 1 1 d . . .
H431 H 0.3435 0.2147 0.8408 0.142 Uiso 1 1 calc R . .
C537 C 0.2978(8) 0.2034(3) 0.8977(8) 0.087(6) Uani 1 1 d . . .
H432 H 0.3297 0.1935 0.9103 0.105 Uiso 1 1 calc R . .
C538 C 0.2444(8) 0.2044(3) 0.9207(5) 0.069(5) Uani 1 1 d . . .
H433 H 0.2380 0.1947 0.9489 0.083 Uiso 1 1 calc R . .
C539 C 0.1988(7) 0.2193(2) 0.9035(5) 0.053(4) Uani 1 1 d . . .
C540 C 0.1400(7) 0.2225(3) 0.9293(6) 0.061(4) Uani 1 1 d . . .
H434 H 0.1341 0.2153 0.9604 0.073 Uiso 1 1 calc R . .
C541 C 0.0415(6) 0.2396(3) 0.9336(4) 0.053(3) Uani 1 1 d . . .
H435 H 0.0385 0.2576 0.9355 0.063 Uiso 1 1 calc R . .
C542 C 0.0371(8) 0.2310(3) 0.9856(5) 0.082(5) Uani 1 1 d . . .
H436 H 0.0283 0.2136 0.9860 0.123 Uiso 1 1 calc R . .
H437 H 0.0043 0.2398 1.0019 0.123 Uiso 1 1 calc R . .
H438 H 0.0758 0.2341 1.0029 0.123 Uiso 1 1 calc R . .
C543 C -0.0116(5) 0.2319(2) 0.9031(4) 0.061(4) Uani 1 1 d DU . .
C544 C -0.0084(5) 0.2109(2) 0.8765(4) 0.077(4) Uani 1 1 d DU . .
H439 H 0.0278 0.2014 0.8782 0.092 Uiso 1 1 calc R . .
C545 C -0.0579(6) 0.2028(2) 0.8463(5) 0.089(5) Uani 1 1 d DU . .
H440 H -0.0544 0.1882 0.8281 0.106 Uiso 1 1 calc R . .
C546 C -0.1092(6) 0.2158(2) 0.8437(5) 0.089(5) Uani 1 1 d DU . .
H441 H -0.1420 0.2104 0.8234 0.107 Uiso 1 1 calc R . .
C547 C -0.1155(5) 0.2377(2) 0.8713(4) 0.083(4) Uani 1 1 d DU . .
C548 C -0.1693(5) 0.2514(3) 0.8686(6) 0.108(6) Uani 1 1 d DU . .
H442 H -0.2044 0.2449 0.8527 0.130 Uiso 1 1 calc R . .
C549 C -0.1716(7) 0.2740(3) 0.8886(7) 0.141(7) Uani 1 1 d DU . .
H443 H -0.2046 0.2845 0.8810 0.169 Uiso 1 1 calc R . .
C550 C -0.1242(6) 0.2816(3) 0.9208(4) 0.097(5) Uani 1 1 d DU . .
H444 H -0.1291 0.2960 0.9395 0.116 Uiso 1 1 calc R . .
C551 C -0.0721(6) 0.2686(2) 0.9252(4) 0.086(5) Uani 1 1 d DU . .
H445 H -0.0399 0.2745 0.9455 0.103 Uiso 1 1 calc R . .
C552 C -0.0649(5) 0.2462(2) 0.8997(5) 0.080(4) Uani 1 1 d DU . .
C553 C 0.2861(8) 0.2543(3) 0.6949(7) 0.089(6) Uani 1 1 d . . .
C554 C 0.2026(6) 0.2749(2) 0.7518(6) 0.064(5) Uani 1 1 d . . .
C555 C 0.2427(8) 0.3194(3) 0.7339(6) 0.076(5) Uani 1 1 d . . .
C556 C 0.3275(10) 0.3018(3) 0.6742(8) 0.128(9) Uani 1 1 d . . .
C557 C 0.2083(10) 0.2900(3) 0.6567(6) 0.082(5) Uani 1 1 d . . .
C558 C 0.3218(8) 0.2845(4) 0.7703(8) 0.090(6) Uani 1 1 d . . .
C559 C 0.1872(6) 0.1835(2) 0.7063(4) 0.048(3) Uani 1 1 d . . .
C560 C 0.1098(7) 0.2010(3) 0.7787(5) 0.069(5) Uani 1 1 d . . .
C561 C 0.0508(8) 0.1585(2) 0.7850(5) 0.063(4) Uani 1 1 d . . .
C562 C 0.1249(7) 0.1387(2) 0.7160(5) 0.064(4) Uani 1 1 d . . .
C563 C 0.0550(7) 0.1790(2) 0.6942(6) 0.063(4) Uani 1 1 d . . .
C564 C 0.1763(7) 0.1621(3) 0.7954(5) 0.065(5) Uani 1 1 d . . .
C565 C -0.3776(11) 0.3942(4) 1.1875(7) 0.136(7) Uani 1 1 d U . .
C566 C -0.3788(9) 0.3762(3) 1.1473(5) 0.092(6) Uani 1 1 d U . .
C567 C -0.3734(16) 0.3711(6) 1.2708(12) 0.084(7) Uani 0.50 1 d PU . .
C568 C -0.3643(17) 0.3960(7) 1.2871(13) 0.091(7) Uani 0.50 1 d PU . .
C569 C -0.4316(8) 0.3843(4) 1.2928(5) 0.095(6) Uani 1 1 d U . .
C570 C -0.2806(9) 0.3765(4) 1.2245(7) 0.111(6) Uani 1 1 d U . .
C571 C -0.2495(8) 0.3639(3) 1.2660(6) 0.096(6) Uani 1 1 d U . .
C572 C -0.3073(13) 0.4060(4) 1.2296(10) 0.165(8) Uani 1 1 d U . .
C573 C -0.3055(8) 0.4326(3) 1.2234(7) 0.092(6) Uani 1 1 d U . .
C574 C 0.2116(10) 0.5301(4) 1.7668(8) 0.125(7) Uani 1 1 d U . .
C575 C 0.1898(7) 0.5022(3) 1.7668(7) 0.088(5) Uani 1 1 d U . .
C576 C 0.1092(9) 0.5464(4) 1.7898(7) 0.102(5) Uani 1 1 d U . .
C577 C 0.1265(7) 0.5555(3) 1.8391(5) 0.075(5) Uani 1 1 d U . .
C578 C 0.1191(10) 0.5606(4) 1.7232(8) 0.129(7) Uani 1 1 d U . .
C579 C 0.0723(7) 0.5540(3) 1.6871(7) 0.095(6) Uani 1 1 d U . .
C580 C 0.1889(13) 0.5712(5) 1.7484(9) 0.060(6) Uani 0.50 1 d PU . .
C581 C 0.2025(17) 0.5481(6) 1.7145(10) 0.081(6) Uani 0.50 1 d PU . .
C582 C 0.2395(8) 0.5730(4) 1.7138(6) 0.100(6) Uani 1 1 d U . .
N1 N -0.3955(4) 0.49605(15) 0.3005(3) 0.0260(19) Uani 1 1 d . . .
N2 N -0.5183(3) 0.49282(15) 0.3094(2) 0.0217(18) Uani 1 1 d . . .
N3 N -0.5056(4) 0.44706(17) 0.3695(3) 0.036(2) Uani 1 1 d . . .
N4 N -0.4331(4) 0.48098(15) 0.4087(3) 0.030(2) Uani 1 1 d . . .
N5 N -0.2985(3) 0.47559(16) 0.0887(3) 0.029(2) Uani 1 1 d . . .
N6 N -0.2669(3) 0.45112(16) 0.0091(3) 0.029(2) Uani 1 1 d . . .
N7 N -0.3801(4) 0.41824(17) 0.0139(3) 0.032(2) Uani 1 1 d . . .
N8 N -0.4118(4) 0.46476(17) 0.0236(3) 0.034(2) Uani 1 1 d . . .
N9 N -0.2963(4) 0.31382(15) 0.0675(3) 0.031(2) Uani 1 1 d . . .
N10 N -0.1731(3) 0.30879(14) 0.0774(3) 0.0243(19) Uani 1 1 d . . .
N11 N -0.2652(4) 0.27168(16) 0.1388(3) 0.032(2) Uani 1 1 d . . .
N12 N -0.1824(4) 0.29981(16) 0.1876(3) 0.039(2) Uani 1 1 d . . .
N13 N -0.4333(5) 0.3391(2) 0.4289(4) 0.049(3) Uani 1 1 d . . .
N14 N -0.3728(4) 0.29622(17) 0.4237(3) 0.035(2) Uani 1 1 d . . .
N15 N -0.2513(4) 0.32253(16) 0.4046(4) 0.038(2) Uani 1 1 d . . .
N16 N -0.3097(4) 0.34135(16) 0.4833(3) 0.037(2) Uani 1 1 d . . .
N17 N -0.1244(4) 0.45860(18) 0.2694(3) 0.041(2) Uani 1 1 d . . .
N18 N -0.0665(4) 0.4386(2) 0.3467(3) 0.038(2) Uani 1 1 d . . .
N19 N -0.0645(4) 0.38935(18) 0.2934(3) 0.037(2) Uani 1 1 d . . .
N20 N -0.0252(3) 0.42485(16) 0.2352(2) 0.0259(19) Uani 1 1 d DU . .
N21 N -0.6208(4) 0.36126(16) 0.2556(4) 0.043(2) Uani 1 1 d . . .
N22 N -0.6621(4) 0.37540(14) 0.1688(3) 0.0247(19) Uani 1 1 d . . .
N23 N -0.5635(4) 0.34320(17) 0.1163(3) 0.036(2) Uani 1 1 d . . .
N24 N -0.6193(4) 0.31863(18) 0.1860(4) 0.040(2) Uani 1 1 d . . .
N25 N -0.4607(4) 0.45262(17) 0.2667(3) 0.037(2) Uani 1 1 d . . .
N26 N -0.4038(4) 0.44092(15) 0.1125(3) 0.0263(19) Uani 1 1 d . . .
N27 N -0.5392(4) 0.38709(16) 0.1828(3) 0.035(2) Uani 1 1 d . . .
N28 N -0.5861(4) 0.44007(18) 0.0661(4) 0.050(3) Uani 1 1 d . . .
N29 N -0.6507(5) 0.4441(2) 0.2189(3) 0.051(3) Uani 1 1 d . . .
N30 N -0.5170(4) 0.49910(18) 0.1582(4) 0.050(3) Uani 1 1 d . . .
N31 N -0.2786(3) 0.42144(15) 0.0900(2) 0.0176(17) Uani 1 1 d . . .
N32 N -0.2186(4) 0.34569(16) 0.1337(3) 0.035(2) Uani 1 1 d . . .
N33 N -0.1452(4) 0.41161(16) 0.2161(3) 0.030(2) Uani 1 1 d . . .
N34 N -0.0338(4) 0.36785(17) 0.1303(3) 0.040(2) Uani 1 1 d . . .
N35 N -0.0941(4) 0.44189(18) 0.0735(3) 0.041(2) Uani 1 1 d . . .
N36 N -0.1618(5) 0.37481(19) 0.0016(3) 0.051(3) Uani 1 1 d . . .
N37 N -0.3167(4) 0.31275(17) 0.1784(3) 0.036(2) Uani 1 1 d . . .
N38 N -0.3632(4) 0.32415(15) 0.3373(3) 0.036(2) Uani 1 1 d . . .
N39 N -0.5079(4) 0.33758(16) 0.2177(3) 0.036(2) Uani 1 1 d . . .
N40 N -0.5205(5) 0.2816(2) 0.3188(4) 0.070(3) Uani 1 1 d . . .
N41 N -0.4811(5) 0.26788(18) 0.1622(4) 0.056(3) Uani 1 1 d . . .
N42 N -0.3352(4) 0.25395(16) 0.2805(3) 0.043(2) Uani 1 1 d . . .
N43 N -0.3719(4) 0.44740(16) 0.3516(3) 0.029(2) Uani 1 1 d . . .
N44 N -0.3275(4) 0.36863(18) 0.3951(3) 0.041(2) Uani 1 1 d . . .
N45 N -0.1795(4) 0.41647(16) 0.3207(3) 0.030(2) Uani 1 1 d . . .
N46 N -0.1718(4) 0.38954(18) 0.4649(4) 0.044(3) Uani 1 1 d . . .
N47 N -0.2104(5) 0.47041(19) 0.4204(3) 0.046(3) Uani 1 1 d . . .
N48 N -0.3497(5) 0.42658(19) 0.4965(3) 0.048(3) Uani 1 1 d U . .
N49 N 0.3223(4) 0.63404(16) 0.7989(3) 0.0333(19) Uani 1 1 d U . .
N50 N 0.2415(4) 0.66265(16) 0.8468(3) 0.038(2) Uani 1 1 d U . .
N51 N 0.2072(4) 0.62102(14) 0.9145(3) 0.0260(18) Uani 1 1 d U . .
N52 N 0.3300(4) 0.62591(14) 0.9118(3) 0.0310(19) Uani 1 1 d U . .
N53 N 0.2459(4) 0.61180(15) 0.5804(3) 0.035(2) Uani 1 1 d U . .
N54 N 0.1921(4) 0.59158(15) 0.5017(3) 0.0334(19) Uani 1 1 d U . .
N55 N 0.0649(4) 0.59447(16) 0.5507(3) 0.034(2) Uani 1 1 d U . .
N56 N 0.1228(4) 0.63647(15) 0.5562(3) 0.034(2) Uani 1 1 d U . .
N57 N -0.0035(4) 0.48670(15) 0.6185(3) 0.0284(18) Uani 1 1 d U . .
N58 N 0.0694(4) 0.45207(14) 0.5816(3) 0.0276(18) Uani 1 1 d U . .
N59 N 0.1092(4) 0.43760(15) 0.6861(3) 0.0264(18) Uani 1 1 d U . .
N60 N -0.0145(4) 0.44148(17) 0.6786(3) 0.0293(19) Uani 1 1 d U . .
N61 N 0.1219(3) 0.51591(16) 0.9752(3) 0.0310(19) Uani 1 1 d U . .
N62 N 0.0856(3) 0.46994(15) 0.9630(3) 0.0283(18) Uani 1 1 d U . .
N63 N 0.1972(3) 0.45950(15) 0.8982(3) 0.0305(19) Uani 1 1 d U . .
N64 N 0.2320(3) 0.48138(15) 0.9799(3) 0.0242(17) Uani 1 1 d U . .
N65 N 0.4322(4) 0.54332(17) 0.6915(3) 0.038(2) Uani 1 1 d U . .
N66 N 0.4748(4) 0.51056(18) 0.7538(3) 0.0342(19) Uani 1 1 d U . .
N67 N 0.3731(4) 0.47347(17) 0.7185(3) 0.034(2) Uani 1 1 d U . .
N68 N 0.4273(4) 0.49437(17) 0.6422(3) 0.0325(19) Uani 1 1 d U . .
N69 N -0.0588(4) 0.59278(15) 0.8640(3) 0.033(2) Uani 1 1 d U . .
N70 N -0.1155(4) 0.61848(16) 0.7933(4) 0.040(2) Uani 1 1 d U . .
N71 N -0.1202(4) 0.57383(16) 0.7231(3) 0.0326(19) Uani 1 1 d U . .
N72 N -0.1606(3) 0.56203(15) 0.8133(3) 0.0226(17) Uani 1 1 d U . .
N73 N 0.1853(4) 0.62203(16) 0.8042(4) 0.045(2) Uani 1 1 d U . .
N74 N 0.1326(4) 0.61076(16) 0.6441(3) 0.039(2) Uani 1 1 d U . .
N75 N -0.0051(4) 0.59843(16) 0.7638(3) 0.0265(19) Uani 1 1 d U . .
N76 N -0.0181(5) 0.65485(19) 0.6627(4) 0.053(3) Uani 1 1 d U . .
N77 N 0.0274(4) 0.66766(16) 0.8171(3) 0.038(2) Uani 1 1 d U . .
N78 N 0.1725(4) 0.68080(18) 0.7035(3) 0.044(2) Uani 1 1 d U . .
N79 N 0.1730(4) 0.56597(17) 0.5891(3) 0.032(2) Uani 1 1 d U . .
N80 N 0.1295(4) 0.48708(16) 0.6374(3) 0.030(2) Uani 1 1 d U . .
N81 N 0.3166(4) 0.51629(18) 0.6658(3) 0.038(2) Uani 1 1 d U . .
N82 N 0.2840(5) 0.46416(18) 0.5629(3) 0.047(3) Uani 1 1 d U . .
N83 N 0.3257(4) 0.54334(17) 0.5268(3) 0.035(2) Uani 1 1 d U . .
N84 N 0.1417(5) 0.50937(19) 0.4875(4) 0.060(3) Uani 1 1 d U . .
N85 N 0.0376(3) 0.48205(14) 0.7224(3) 0.0256(19) Uani 1 1 d U . .
N86 N 0.0935(4) 0.49533(14) 0.8743(3) 0.0255(18) Uani 1 1 d U . .
N87 N -0.0395(3) 0.54822(17) 0.8016(3) 0.034(2) Uani 1 1 d U . .
N88 N -0.0886(4) 0.49677(17) 0.9190(3) 0.039(2) Uani 1 1 d U . .
N89 N -0.1541(4) 0.49274(18) 0.7659(3) 0.039(2) Uani 1 1 d U . .
N90 N -0.0288(5) 0.43684(17) 0.8300(3) 0.044(3) Uani 1 1 d U . .
N91 N 0.2844(4) 0.58858(16) 0.8508(3) 0.035(2) Uani 1 1 d U . .
N92 N 0.2233(4) 0.51351(16) 0.8990(3) 0.0253(18) Uani 1 1 d U . .
N93 N 0.3544(4) 0.52184(16) 0.7718(3) 0.033(2) Uani 1 1 d U . .
N94 N 0.4083(4) 0.49223(18) 0.9137(3) 0.036(2) Uani 1 1 d U . .
N95 N 0.4626(4) 0.56661(17) 0.8538(3) 0.044(2) Uani 1 1 d U . .
N96 N 0.3398(5) 0.55906(17) 0.9853(3) 0.052(3) Uani 1 1 d U . .
N97 N 0.2539(7) 0.2108(2) 0.5910(4) 0.083(4) Uani 1 1 d . . .
N98 N 0.3113(6) 0.17017(19) 0.6084(4) 0.062(3) Uani 1 1 d . . .
N99 N 0.3574(6) 0.1894(2) 0.7143(4) 0.066(3) Uani 1 1 d . . .
N100 N 0.4005(7) 0.2101(2) 0.6303(5) 0.075(4) Uani 1 1 d . . .
N101 N 0.0443(5) 0.2668(2) 0.8234(4) 0.056(3) Uani 1 1 d . . .
N102 N 0.1315(5) 0.2848(2) 0.8779(4) 0.061(3) Uani 1 1 d . . .
N103 N 0.2046(6) 0.2333(2) 0.8627(4) 0.064(3) Uani 1 1 d . . .
N104 N 0.0981(5) 0.23492(19) 0.9092(3) 0.047(3) Uani 1 1 d . . .
N105 N 0.2976(7) 0.2364(2) 0.6823(4) 0.079(4) Uani 1 1 d . . .
N106 N 0.1651(5) 0.26602(18) 0.7825(4) 0.047(3) Uani 1 1 d . . .
N107 N 0.2236(5) 0.3388(2) 0.7522(5) 0.072(4) Uani 1 1 d . . .
N108 N 0.3645(9) 0.3095(3) 0.6513(9) 0.164(9) Uani 1 1 d . . .
N109 N 0.1708(10) 0.2906(2) 0.6262(6) 0.131(8) Uani 1 1 d . . .
N110 N 0.3568(8) 0.2817(3) 0.7963(7) 0.116(7) Uani 1 1 d . . .
N111 N 0.2262(5) 0.19063(18) 0.6834(3) 0.050(3) Uani 1 1 d . . .
N112 N 0.1059(5) 0.2197(2) 0.8005(3) 0.054(3) Uani 1 1 d . . .
N113 N 0.0133(8) 0.1520(3) 0.8095(6) 0.123(7) Uani 1 1 d . . .
N114 N 0.1297(7) 0.1203(3) 0.7006(6) 0.107(5) Uani 1 1 d . . .
N115 N 0.0219(8) 0.1830(3) 0.6657(6) 0.103(5) Uani 1 1 d . . .
N116 N 0.2141(7) 0.1590(2) 0.8248(5) 0.075(4) Uani 1 1 d . . .
N117 N -0.3416(4) 0.38861(16) 1.2339(3) 0.0274(18) Uani 1 1 d U . .
N118 N 0.1573(4) 0.54633(15) 1.7510(3) 0.0270(18) Uani 1 1 d U . .
O1 O 0.2174(6) 0.5188(3) 1.3255(7) 0.177(9) Uani 1 1 d . . .
O2 O -0.1195(4) 0.50705(15) 1.4299(3) 0.059(2) Uani 1 1 d . . .
O3 O -0.1629(8) 0.6329(3) 1.4482(6) 0.249(14) Uani 1 1 d . . .
O4 O 0.5651(8) 0.4482(3) 1.5631(10) 0.260(14) Uani 1 1 d . . .
O5 O -0.1323(5) 0.3605(2) 1.5492(5) 0.107(4) Uani 1 1 d . . .
O6 O 0.6162(10) 0.1802(4) 1.6765(7) 0.216(10) Uani 1 1 d . . .
O7 O 0.3119(6) 0.3731(2) 1.7903(4) 0.106(4) Uani 1 1 d . . .
O8 O 0.5086(7) 0.3265(3) 1.8967(7) 0.181(8) Uani 1 1 d . . .
O9 O 0.2476(4) 0.71868(16) 1.7422(3) 0.054(2) Uani 1 1 d . . .
O10 O 0.5815(5) 0.75050(18) 1.8989(4) 0.086(3) Uani 1 1 d . . .
O11 O 0.4097(3) 0.44500(14) 1.9596(3) 0.0390(18) Uani 1 1 d . . .
O12 O 0.5953(8) 0.5688(3) 1.8320(8) 0.231(12) Uani 1 1 d . . .
O13 O 0.3525(7) 0.59546(19) 2.0618(3) 0.104(4) Uani 1 1 d . . .
O14 O -0.0781(7) 0.6905(3) 1.8735(6) 0.155(6) Uani 1 1 d . . .
O15 O 0.0065(8) 0.3761(3) 2.0038(6) 0.150(6) Uani 1 1 d . . .
O16 O 0.0199(5) 0.3454(4) 1.9621(7) 0.199(11) Uani 1 1 d . . .
O17 O -0.1561(8) 0.3391(3) 1.9232(6) 0.153(6) Uani 1 1 d . . .
O18 O 0.1070(9) 0.3664(3) 2.1466(8) 0.226(11) Uani 1 1 d . . .
O19 O -0.0900(3) 0.48995(13) 2.0258(2) 0.0354(17) Uani 1 1 d . . .
O20 O 0.0193(7) 0.6039(2) 2.0845(7) 0.162(7) Uani 1 1 d . . .
O21 O -0.1217(6) 0.6643(3) 2.0187(8) 0.194(10) Uani 1 1 d . . .
O22 O -0.0908(10) 0.6441(4) 2.0887(5) 0.191(8) Uani 1 1 d . . .
H142 H -0.015(12) 0.341(5) 0.475(10) 0.230 Uiso 1 1 d . . .

loop_
_atom_site_aniso_label
_atom_site_aniso_U_11
_atom_site_aniso_U_22
_atom_site_aniso_U_33
_atom_site_aniso_U_23
_atom_site_aniso_U_13
_atom_site_aniso_U_12
Ni1 0.0325(7) 0.0182(7) 0.0279(7) 0.0002(6) -0.0025(6) 0.0008(6)
Ni2 0.0251(7) 0.0192(7) 0.0312(7) 0.0027(6) -0.0018(5) 0.0036(6)
Ni3 0.0348(8) 0.0169(7) 0.0394(8) 0.0037(6) 0.0017(6) 0.0014(6)
Ni4 0.0456(9) 0.0199(8) 0.0370(8) 0.0029(6) -0.0033(7) -0.0023(6)
Ni5 0.0311(7) 0.0338(9) 0.0297(7) 0.0013(6) -0.0037(6) -0.0052(6)
Ni6 0.0290(7) 0.0170(7) 0.0449(8) 0.0027(6) -0.0021(6) 0.0002(6)
Ni7 0.0339(8) 0.0144(7) 0.0421(8) -0.0008(6) -0.0042(6) 0.0009(6)
Ni8 0.0436(8) 0.0180(8) 0.0327(8) 0.0007(6) -0.0025(6) -0.0020(6)
Ni9 0.0305(7) 0.0208(7) 0.0246(7) 0.0000(6) -0.0013(5) -0.0014(6)
Ni10 0.0223(6) 0.0168(7) 0.0333(7) 0.0012(6) -0.0017(5) -0.0009(5)
Ni11 0.0276(7) 0.0289(8) 0.0304(7) 0.0024(6) -0.0010(6) 0.0030(6)
Ni12 0.0267(7) 0.0171(7) 0.0370(8) 0.0014(6) -0.0027(6) 0.0008(6)
Ni13 0.1137(16) 0.0254(10) 0.0607(11) -0.0031(8) 0.0324(11) -0.0011(10)
Ni14 0.0652(10) 0.0274(9) 0.0424(9) -0.0027(7) 0.0101(8) -0.0087(8)
Fe1 0.0273(8) 0.0183(8) 0.0262(8) 0.0010(6) -0.0021(6) 0.0019(6)
Fe2 0.0264(8) 0.0180(8) 0.0258(8) 0.0036(6) -0.0031(6) 0.0007(6)
Fe3 0.0325(8) 0.0169(8) 0.0409(9) 0.0022(7) -0.0018(7) 0.0002(6)
Fe4 0.0317(8) 0.0188(8) 0.0279(8) 0.0013(6) -0.0028(6) -0.0016(6)
Fe5 0.0316(8) 0.0156(8) 0.0376(9) 0.0018(7) -0.0038(7) -0.0027(6)
Fe6 0.0318(8) 0.0166(8) 0.0309(8) 0.0014(6) -0.0011(6) 0.0007(6)
Fe7 0.0277(8) 0.0157(8) 0.0267(8) 0.0003(6) -0.0036(6) 0.0008(6)
Fe8 0.0280(8) 0.0165(8) 0.0326(8) 0.0023(6) -0.0009(6) -0.0028(6)
Fe9 0.0939(16) 0.0226(11) 0.0840(15) -0.0041(10) 0.0410(13) -0.0085(10)
Fe10 0.0876(14) 0.0288(11) 0.0471(11) -0.0024(8) -0.0007(10) -0.0145(10)
C1 0.035(7) 0.038(7) 0.036(6) 0.009(5) 0.005(5) 0.006(5)
C2 0.024(6) 0.059(9) 0.047(7) 0.011(6) 0.006(5) 0.000(6)
C3 0.048(7) 0.040(8) 0.034(6) 0.000(6) -0.003(5) -0.009(6)
C4 0.054(8) 0.042(8) 0.040(7) 0.014(6) -0.009(6) 0.001(6)
C5 0.051(7) 0.032(7) 0.022(5) -0.002(5) -0.004(5) -0.001(6)
C6 0.023(5) 0.028(6) 0.045(7) -0.002(5) -0.008(5) -0.003(5)
C7 0.042(6) 0.017(6) 0.045(7) -0.002(5) 0.000(5) 0.011(5)
C8 0.039(6) 0.037(7) 0.042(7) -0.012(5) 0.006(5) -0.011(5)
C9 0.027(6) 0.035(7) 0.039(6) -0.002(5) 0.000(5) 0.000(5)
C10 0.043(7) 0.034(7) 0.043(7) -0.017(6) 0.007(5) -0.002(5)
C11 0.054(7) 0.034(7) 0.040(7) 0.007(6) 0.019(6) -0.005(6)
C12 0.073(9) 0.066(10) 0.018(6) -0.028(6) 0.002(6) -0.011(7)
C13 0.041(7) 0.057(9) 0.032(6) -0.006(6) 0.005(5) -0.018(6)
C14 0.125(13) 0.034(9) 0.066(9) -0.029(7) 0.048(9) -0.017(8)
C15 0.067(9) 0.055(10) 0.054(8) 0.006(7) 0.020(7) -0.033(7)
C16 0.041(7) 0.045(9) 0.090(11) -0.011(8) -0.004(7) -0.015(6)
C17 0.039(7) 0.047(8) 0.030(6) 0.004(5) 0.004(5) 0.000(6)
C18 0.039(6) 0.033(7) 0.034(6) -0.015(5) 0.012(5) -0.013(5)
C19 0.024(6) 0.036(7) 0.046(7) -0.007(5) -0.012(5) 0.002(5)
C20 0.068(9) 0.026(8) 0.083(11) 0.004(7) 0.011(8) -0.017(6)
C21 0.054(8) 0.023(7) 0.081(10) 0.006(7) -0.027(7) -0.008(6)
C22 0.056(8) 0.033(7) 0.038(7) 0.016(5) 0.004(6) -0.008(6)
C23 0.044(6) 0.007(5) 0.041(7) 0.006(5) 0.006(5) 0.012(5)
C24 0.034(6) 0.022(6) 0.047(7) 0.008(5) -0.008(5) 0.002(5)
C25 0.030(6) 0.028(6) 0.023(5) 0.001(4) -0.005(4) -0.003(5)
C26 0.048(7) 0.045(8) 0.039(7) 0.014(6) -0.013(5) -0.006(6)
C27 0.039(6) 0.021(6) 0.033(6) 0.000(5) -0.011(5) -0.004(5)
C28 0.044(7) 0.035(7) 0.043(7) -0.019(6) 0.003(5) -0.012(6)
C29 0.055(8) 0.034(7) 0.027(6) 0.006(5) -0.003(5) 0.004(6)
C30 0.061(9) 0.022(7) 0.086(10) -0.012(7) -0.027(8) 0.007(6)
C31 0.038(7) 0.027(7) 0.039(6) -0.004(5) -0.015(5) -0.010(5)
C32 0.074(10) 0.063(10) 0.016(6) 0.004(6) -0.006(6) -0.003(8)
C33 0.067(9) 0.021(7) 0.036(7) 0.008(5) -0.013(6) 0.002(6)
C34 0.028(6) 0.076(10) 0.037(7) -0.019(7) -0.011(5) 0.020(6)
C35 0.038(6) 0.023(6) 0.024(6) 0.001(4) 0.005(5) -0.011(5)
C36 0.038(5) 0.037(6) 0.008(4) -0.004(4) -0.007(4) -0.010(5)
C37 0.040(6) 0.036(7) 0.019(5) 0.001(5) -0.003(5) 0.007(5)
C38 0.046(7) 0.047(8) 0.034(6) -0.006(6) -0.012(5) 0.008(6)
C39 0.023(6) 0.032(7) 0.055(7) -0.001(6) 0.006(5) -0.003(5)
C40 0.035(6) 0.025(7) 0.045(7) -0.001(5) 0.003(5) -0.003(5)
C41 0.003(4) 0.028(7) 0.080(9) 0.009(6) -0.004(5) 0.000(4)
C42 0.022(5) 0.034(7) 0.040(6) 0.012(5) -0.008(5) -0.007(5)
C43 0.042(6) 0.019(6) 0.026(6) -0.013(4) -0.007(5) 0.014(5)
C44 0.030(6) 0.049(8) 0.021(5) -0.007(5) -0.009(4) 0.001(5)
C45 0.016(5) 0.030(6) 0.020(5) 0.007(4) 0.003(4) 0.017(4)
C46 0.031(6) 0.038(7) 0.046(7) -0.001(5) 0.008(5) 0.013(5)
C47 0.032(7) 0.060(10) 0.062(8) 0.018(7) -0.020(6) 0.026(6)
C48 0.038(7) 0.098(13) 0.050(8) -0.021(8) -0.028(6) 0.026(8)
C49 0.034(7) 0.064(10) 0.056(8) -0.010(7) -0.026(6) -0.005(6)
C50 0.077(11) 0.082(13) 0.063(10) -0.030(9) -0.028(8) 0.006(9)
C51 0.158(17) 0.092(15) 0.057(10) -0.054(10) -0.044(11) 0.051(13)
C52 0.115(13) 0.052(11) 0.068(10) -0.001(8) -0.017(9) 0.021(9)
C53 0.080(10) 0.044(9) 0.077(10) -0.031(8) -0.038(8) 0.028(8)
C54 0.027(6) 0.045(8) 0.042(7) 0.001(6) 0.003(5) -0.003(5)
C55 0.034(6) 0.015(6) 0.057(7) -0.003(5) -0.004(5) -0.005(5)
C56 0.080(9) 0.054(9) 0.023(6) -0.003(6) -0.014(6) -0.010(7)
C57 0.045(7) 0.027(7) 0.047(7) 0.004(5) -0.011(6) 0.013(5)
C58 0.041(6) 0.024(6) 0.040(7) 0.007(5) -0.001(5) 0.006(5)
C59 0.022(5) 0.038(7) 0.037(6) 0.004(5) -0.004(5) -0.014(5)
C60 0.019(5) 0.029(7) 0.058(8) 0.012(6) 0.005(5) -0.002(5)
C61 0.012(5) 0.038(7) 0.044(6) 0.004(5) -0.010(4) -0.001(5)
C62 0.032(6) 0.031(7) 0.053(7) 0.002(5) 0.003(5) -0.008(5)
C63 0.037(6) 0.005(5) 0.041(6) 0.004(4) -0.010(5) 0.005(4)
C64 0.029(6) 0.030(7) 0.036(6) 0.010(5) 0.003(5) 0.004(5)
C65 0.052(8) 0.028(7) 0.070(9) 0.015(6) -0.008(6) -0.020(6)
C66 0.030(6) 0.041(8) 0.075(9) -0.001(7) 0.009(6) -0.016(6)
C67 0.034(6) 0.024(7) 0.049(7) -0.003(5) -0.015(5) 0.004(5)
C68 0.050(8) 0.029(8) 0.070(9) 0.018(7) 0.003(7) -0.002(6)
C69 0.063(9) 0.019(7) 0.088(11) -0.002(7) -0.005(8) -0.005(6)
C70 0.058(8) 0.043(8) 0.057(8) -0.026(7) -0.017(7) 0.012(7)
C71 0.046(7) 0.009(5) 0.039(6) 0.000(5) -0.005(5) -0.004(5)
C72 0.036(6) 0.057(9) 0.025(6) 0.006(5) 0.001(5) -0.014(6)
C73 0.062(8) 0.013(6) 0.047(7) -0.002(5) 0.001(6) 0.006(5)
C74 0.048(7) 0.011(6) 0.074(9) -0.011(6) -0.009(7) 0.009(5)
C75 0.061(9) 0.019(7) 0.084(10) 0.002(7) -0.002(8) -0.005(6)
C76 0.042(7) 0.021(7) 0.066(9) -0.004(6) -0.002(6) -0.007(5)
C77 0.052(8) 0.012(6) 0.069(9) -0.004(6) -0.007(7) 0.002(5)
C78 0.062(7) 0.013(6) 0.016(5) 0.007(4) 0.001(5) 0.016(5)
C79 0.049(7) 0.009(5) 0.033(6) 0.008(4) -0.019(5) 0.003(5)
C80 0.042(6) 0.056(7) 0.087(8) -0.017(6) -0.009(6) 0.014(6)
C81 0.042(6) 0.023(6) 0.033(6) 0.007(5) 0.008(5) 0.004(5)
C82 0.031(6) 0.024(6) 0.060(7) 0.016(5) 0.006(5) 0.001(5)
C83 0.061(8) 0.021(6) 0.100(10) 0.009(7) 0.018(7) 0.015(6)
C84 0.051(8) 0.042(8) 0.089(10) 0.018(7) 0.021(6) 0.019(6)
C85 0.056(8) 0.051(7) 0.067(8) 0.040(6) 0.008(6) 0.011(6)
C86 0.047(8) 0.057(9) 0.098(10) 0.028(8) 0.009(7) 0.021(7)
C87 0.046(8) 0.071(10) 0.086(10) 0.028(8) 0.010(7) 0.012(7)
C88 0.043(7) 0.078(9) 0.064(8) 0.022(7) -0.010(6) 0.006(7)
C89 0.025(6) 0.056(8) 0.064(8) 0.001(6) -0.004(5) 0.012(5)
C90 0.030(6) 0.054(7) 0.068(8) 0.013(6) 0.005(5) 0.014(5)
C91 0.023(5) 0.039(7) 0.034(6) 0.009(5) -0.011(5) -0.010(5)
C92 0.052(7) 0.027(7) 0.052(8) 0.000(6) -0.009(6) 0.000(6)
C93 0.043(7) 0.030(7) 0.037(6) -0.004(5) 0.001(5) 0.016(5)
C94 0.030(6) 0.020(6) 0.071(8) 0.006(6) -0.005(6) 0.015(5)
C95 0.040(7) 0.019(6) 0.049(7) 0.009(5) -0.004(5) 0.002(5)
C96 0.043(7) 0.015(6) 0.061(8) -0.012(6) -0.006(6) 0.003(5)
C97 0.036(6) 0.005(5) 0.068(8) 0.003(5) 0.011(6) 0.005(4)
C98 0.049(7) 0.031(7) 0.019(5) -0.009(5) 0.007(5) -0.006(5)
C99 0.038(6) 0.010(6) 0.049(7) 0.007(5) 0.004(5) 0.001(5)
C100 0.051(6) 0.016(5) 0.048(6) 0.017(5) -0.007(5) -0.003(5)
C101 0.069(8) 0.016(6) 0.041(7) 0.004(5) 0.000(6) 0.005(6)
C102 0.100(12) 0.015(7) 0.064(9) -0.003(6) 0.023(9) -0.004(7)
C103 0.077(10) 0.024(7) 0.060(9) -0.004(6) 0.001(8) -0.006(6)
C104 0.128(14) 0.028(8) 0.072(10) 0.004(7) -0.031(11) 0.029(9)
C105 0.115(14) 0.026(8) 0.077(11) -0.013(7) -0.031(10) 0.018(8)
C106 0.080(10) 0.018(7) 0.063(9) -0.012(6) -0.021(7) 0.024(6)
C107 0.064(9) 0.013(6) 0.080(10) -0.007(6) -0.012(7) 0.009(6)
C108 0.046(7) 0.021(7) 0.069(9) 0.001(6) -0.004(6) -0.014(5)
C109 0.047(8) 0.081(12) 0.053(8) 0.020(8) -0.016(7) -0.022(8)
C110 0.056(10) 0.052(11) 0.131(15) 0.022(10) -0.029(9) 0.004(8)
C111 0.044(8) 0.064(11) 0.080(10) -0.005(8) 0.015(7) -0.005(8)
C112 0.064(11) 0.086(15) 0.106(13) 0.041(11) -0.009(9) -0.032(10)
C113 0.070(9) 0.025(7) 0.057(8) 0.013(6) 0.013(7) 0.000(6)
C114 0.063(8) 0.014(6) 0.040(7) 0.008(5) -0.005(6) -0.006(5)
C115 0.085(10) 0.026(8) 0.054(8) 0.013(6) -0.005(7) -0.008(7)
C116 0.061(9) 0.033(8) 0.084(10) -0.004(7) -0.001(7) -0.017(7)
C117 0.083(11) 0.042(9) 0.078(11) 0.027(8) -0.006(9) -0.038(8)
C118 0.091(11) 0.053(10) 0.055(9) 0.018(7) 0.004(8) -0.007(8)
C119 0.092(12) 0.066(11) 0.048(9) 0.024(7) -0.032(9) 0.000(9)
C120 0.108(14) 0.089(13) 0.033(8) 0.020(8) -0.034(9) -0.006(11)
C121 0.091(11) 0.022(8) 0.082(11) -0.001(7) -0.007(9) 0.022(7)
C122 0.21(2) 0.025(9) 0.056(10) 0.005(7) 0.000(12) -0.025(11)
C123 0.059(9) 0.039(9) 0.099(12) -0.007(8) -0.011(8) -0.004(7)
C124 0.073(10) 0.016(7) 0.084(10) 0.007(6) -0.007(8) -0.007(6)
C125 0.067(9) 0.015(7) 0.077(10) 0.004(6) -0.001(7) 0.000(6)
C126 0.080(10) 0.028(7) 0.047(8) 0.000(6) -0.011(7) -0.008(7)
C127 0.055(8) 0.013(6) 0.050(8) 0.002(5) -0.002(6) 0.008(5)
C128 0.059(9) 0.046(9) 0.056(9) 0.008(7) 0.030(7) -0.011(7)
C129 0.045(7) 0.026(7) 0.068(9) 0.006(6) 0.001(7) 0.020(6)
C130 0.074(9) 0.023(7) 0.027(6) 0.001(5) 0.008(6) -0.002(6)
C131 0.021(5) 0.019(6) 0.051(7) 0.004(5) -0.002(5) 0.006(4)
C132 0.050(7) 0.047(8) 0.016(5) -0.013(5) -0.004(5) 0.000(6)
C133 0.047(8) 0.060(10) 0.073(9) -0.027(8) -0.018(7) 0.036(7)
C134 0.080(10) 0.047(9) 0.067(9) -0.001(7) 0.021(8) 0.003(8)
C135 0.061(8) 0.034(7) 0.045(7) 0.012(6) -0.002(6) 0.008(6)
C136 0.113(11) 0.043(8) 0.077(10) 0.020(8) 0.021(9) 0.005(8)
C137 0.112(12) 0.036(8) 0.116(12) 0.017(8) 0.049(10) 0.011(8)
C138 0.107(12) 0.048(9) 0.174(16) -0.007(11) 0.049(12) 0.007(9)
C139 0.087(10) 0.063(9) 0.134(13) 0.014(10) 0.061(10) 0.012(8)
C140 0.128(13) 0.069(10) 0.169(16) 0.055(12) 0.084(12) 0.028(10)
C141 0.096(12) 0.083(12) 0.158(15) 0.057(12) 0.041(11) 0.027(10)
C142 0.119(12) 0.047(9) 0.076(10) 0.023(8) 0.026(9) 0.014(8)
C143 0.084(9) 0.046(8) 0.061(9) -0.003(7) -0.001(7) -0.003(7)
C144 0.083(9) 0.066(8) 0.054(8) 0.015(7) 0.012(7) 0.005(7)
C145 0.048(7) 0.033(7) 0.031(6) 0.006(5) 0.005(5) 0.002(6)
C146 0.055(7) 0.050(9) 0.021(6) 0.001(6) -0.005(5) 0.023(6)
C147 0.049(8) 0.045(9) 0.080(10) 0.032(8) 0.010(7) 0.015(7)
C148 0.032(6) 0.061(9) 0.013(5) 0.000(5) 0.004(4) -0.012(6)
C149 0.037(7) 0.059(10) 0.052(8) -0.022(7) -0.005(6) 0.011(6)
C150 0.043(7) 0.036(8) 0.026(6) -0.003(5) -0.003(5) -0.004(6)
C151 0.024(6) 0.086(11) 0.032(6) -0.021(6) 0.002(5) -0.019(6)
C152 0.066(9) 0.077(12) 0.060(9) -0.039(8) 0.010(7) -0.006(8)
C153 0.036(6) 0.063(8) 0.026(6) -0.005(5) -0.010(5) -0.023(6)
C154 0.019(6) 0.079(10) 0.077(9) 0.018(7) -0.028(6) -0.023(6)
C155 0.040(7) 0.137(14) 0.042(8) -0.007(8) -0.015(6) 0.000(8)
C156 0.060(8) 0.139(13) 0.041(8) -0.043(7) -0.016(6) 0.035(9)
C157 0.044(7) 0.089(10) 0.050(8) -0.021(6) -0.018(6) 0.014(7)
C158 0.153(15) 0.096(13) 0.085(13) -0.014(9) -0.014(10) 0.064(12)
C159 0.202(18) 0.055(11) 0.088(13) 0.018(9) -0.032(12) 0.059(11)
C160 0.143(13) 0.067(11) 0.053(9) 0.013(8) -0.029(9) -0.009(10)
C161 0.056(7) 0.067(9) 0.042(7) -0.008(6) -0.022(6) -0.013(6)
C162 0.065(7) 0.072(9) 0.021(6) -0.008(5) -0.014(5) 0.002(6)
C163 0.035(6) 0.041(8) 0.043(7) 0.011(6) -0.001(5) -0.006(6)
C164 0.073(9) 0.045(8) 0.025(6) 0.006(5) -0.022(6) -0.026(7)
C165 0.052(8) 0.034(7) 0.040(7) 0.010(6) 0.013(6) 0.005(6)
C166 0.024(5) 0.082(8) 0.071(7) -0.018(6) 0.007(5) -0.004(6)
C167 0.025(6) 0.041(7) 0.036(6) -0.001(5) -0.005(5) -0.006(5)
C168 0.047(7) 0.044(8) 0.040(7) -0.010(6) -0.019(6) -0.003(6)
C169 0.043(6) 0.028(6) 0.035(6) 0.009(5) -0.005(5) -0.003(5)
C170 0.032(6) 0.067(9) 0.031(6) 0.018(6) 0.005(5) 0.011(6)
C171 0.030(6) 0.045(8) 0.040(7) 0.009(6) 0.000(5) -0.010(5)
C172 0.056(8) 0.043(9) 0.073(9) 0.009(7) -0.036(7) -0.018(7)
C173 0.052(8) 0.063(11) 0.080(10) -0.027(9) -0.026(7) -0.003(8)
C174 0.049(8) 0.097(14) 0.061(9) 0.018(9) -0.017(7) -0.026(9)
C175 0.056(8) 0.048(9) 0.027(6) -0.018(6) 0.002(5) -0.004(6)
C176 0.072(10) 0.077(12) 0.052(9) -0.015(8) 0.024(8) -0.006(8)
C177 0.074(9) 0.028(7) 0.044(7) -0.002(6) -0.014(6) 0.001(6)
C178 0.018(6) 0.085(11) 0.045(7) 0.008(7) 0.010(5) 0.009(6)
C179 0.033(6) 0.047(8) 0.047(7) -0.005(6) -0.006(5) -0.006(6)
C180 0.019(5) 0.049(8) 0.035(6) 0.001(6) 0.001(4) -0.017(5)
C181 0.029(5) 0.022(5) 0.052(6) -0.009(5) -0.001(4) -0.005(4)
C182 0.037(5) 0.029(5) 0.046(5) -0.004(4) 0.001(4) -0.011(4)
C183 0.041(5) 0.044(6) 0.048(5) -0.012(5) 0.006(4) -0.007(4)
C184 0.032(5) 0.046(6) 0.066(5) 0.001(5) 0.001(4) -0.006(4)
C185 0.017(4) 0.032(5) 0.046(5) -0.003(4) -0.006(4) -0.015(4)
C186 0.029(6) 0.029(7) 0.042(7) -0.006(5) -0.018(5) -0.003(5)
C187 0.053(7) 0.016(6) 0.036(6) -0.012(5) -0.012(5) 0.001(5)
C188 0.042(7) 0.019(6) 0.054(7) -0.016(5) -0.006(5) 0.005(5)
C189 0.024(6) 0.033(7) 0.045(7) 0.001(5) -0.022(5) 0.011(5)
C190 0.026(6) 0.026(7) 0.047(7) -0.009(5) -0.011(5) -0.005(5)
C191 0.027(6) 0.022(7) 0.084(10) 0.001(6) -0.001(6) -0.013(5)
C192 0.025(6) 0.035(7) 0.045(7) -0.012(5) -0.005(5) 0.003(5)
C193 0.024(5) 0.028(6) 0.033(6) -0.006(5) -0.017(5) 0.007(5)
C194 0.046(7) 0.034(8) 0.041(7) 0.003(6) -0.001(6) 0.002(6)
C195 0.047(7) 0.051(9) 0.046(7) -0.004(7) -0.016(6) 0.005(6)
C196 0.058(8) 0.044(9) 0.074(10) 0.032(7) -0.012(7) 0.012(7)
C197 0.052(7) 0.031(7) 0.020(6) 0.012(5) -0.002(5) 0.012(5)
C198 0.010(5) 0.019(6) 0.051(7) -0.003(5) -0.011(4) 0.001(4)
C199 0.009(4) 0.046(6) 0.053(6) -0.002(5) -0.004(4) 0.005(4)
C200 0.025(6) 0.042(7) 0.064(8) 0.002(6) 0.012(5) -0.002(5)
C201 0.024(6) 0.051(8) 0.077(8) -0.014(6) 0.007(6) 0.007(5)
C202 0.024(6) 0.035(7) 0.082(9) 0.002(6) 0.003(6) -0.005(5)
C203 0.036(6) 0.015(6) 0.066(7) 0.010(5) -0.002(6) 0.000(5)
C204 0.059(8) 0.038(8) 0.037(7) -0.003(6) -0.006(6) -0.003(6)
C205 0.048(7) 0.025(7) 0.038(6) 0.015(5) -0.007(5) -0.009(5)
C206 0.064(9) 0.029(7) 0.070(9) 0.016(6) -0.008(7) -0.006(6)
C207 0.048(7) 0.019(6) 0.059(8) -0.002(6) 0.006(6) -0.007(5)
C208 0.049(8) 0.027(7) 0.083(10) 0.024(7) -0.015(7) -0.012(6)
C209 0.051(9) 0.052(10) 0.102(13) 0.031(9) 0.013(8) -0.018(7)
C210 0.038(8) 0.035(9) 0.172(18) 0.014(10) 0.022(10) 0.018(7)
C211 0.030(7) 0.027(7) 0.100(11) -0.006(7) 0.001(7) -0.007(5)
C212 0.097(14) 0.060(13) 0.148(19) -0.012(13) 0.060(14) -0.024(10)
C213 0.24(3) 0.076(17) 0.105(17) 0.022(13) -0.005(19) -0.089(19)
C214 0.105(14) 0.024(9) 0.21(2) 0.020(11) 0.083(15) -0.003(9)
C215 0.054(8) 0.026(7) 0.066(9) -0.006(6) 0.028(7) -0.008(6)
C216 0.058(8) 0.031(7) 0.053(8) 0.009(6) -0.018(7) -0.015(6)
C217 0.023(5) 0.020(6) 0.047(7) 0.009(5) 0.005(5) 0.008(4)
C218 0.009(4) 0.026(5) 0.020(4) 0.001(4) -0.005(4) -0.010(4)
C219 0.033(6) 0.014(6) 0.040(6) 0.001(5) -0.007(5) -0.011(4)
C220 0.032(6) 0.015(6) 0.031(6) 0.004(5) -0.008(5) 0.001(4)
C221 0.011(5) 0.034(7) 0.039(6) -0.012(5) 0.001(4) -0.005(5)
C222 0.041(7) 0.033(8) 0.036(6) 0.013(5) 0.015(5) 0.007(5)
C223 0.012(5) 0.023(6) 0.031(6) -0.011(4) -0.005(4) 0.008(4)
C224 0.010(4) 0.023(6) 0.024(5) 0.005(4) 0.008(4) 0.000(4)
C225 0.016(5) 0.027(6) 0.047(7) 0.023(5) 0.013(5) 0.002(4)
C226 0.024(6) 0.016(6) 0.077(9) -0.011(6) -0.011(6) 0.003(5)
C227 0.018(5) 0.042(7) 0.029(6) 0.002(5) -0.001(4) 0.010(5)
C228 0.029(6) 0.027(7) 0.043(7) 0.003(5) 0.000(5) 0.008(5)
C229 0.032(6) 0.014(6) 0.052(7) -0.001(5) -0.001(6) -0.007(5)
C230 0.008(4) 0.020(5) 0.038(5) 0.010(4) -0.009(4) 0.001(4)
C231 0.029(6) 0.014(6) 0.028(6) -0.004(4) 0.007(4) 0.002(4)
C232 0.030(6) 0.041(8) 0.045(7) 0.024(6) 0.003(5) -0.016(5)
C233 0.030(6) 0.018(6) 0.058(8) -0.015(5) -0.009(5) 0.007(5)
C234 0.034(6) 0.025(6) 0.030(6) -0.008(5) 0.008(5) 0.004(5)
C235 0.041(6) 0.017(6) 0.018(5) 0.008(4) 0.011(5) -0.006(5)
C236 0.026(6) 0.050(8) 0.018(5) -0.002(5) -0.005(4) 0.009(5)
C237 0.058(7) 0.006(5) 0.029(6) -0.005(4) -0.018(5) 0.009(5)
C238 0.038(7) 0.014(6) 0.053(7) 0.001(5) 0.007(6) -0.012(5)
C239 0.043(7) 0.043(8) 0.018(6) 0.006(5) 0.005(5) 0.004(6)
C240 0.050(5) 0.037(5) 0.024(5) 0.022(4) 0.003(4) 0.001(4)
C241 0.033(6) 0.029(6) 0.054(7) -0.007(5) -0.008(4) 0.013(4)
C242 0.045(6) 0.042(6) 0.051(7) -0.020(5) -0.005(5) 0.001(5)
C243 0.050(6) 0.040(6) 0.046(6) -0.015(5) -0.002(5) -0.004(5)
C244 0.030(6) 0.034(6) 0.059(7) -0.014(5) 0.003(4) -0.007(4)
C245 0.029(5) 0.025(5) 0.050(6) 0.000(5) -0.012(4) 0.004(4)
C246 0.039(5) 0.019(5) 0.043(6) -0.006(4) -0.004(4) 0.004(4)
C247 0.044(6) 0.022(5) 0.039(5) 0.004(4) 0.002(4) -0.006(4)
C248 0.044(6) 0.018(5) 0.019(5) -0.003(4) 0.009(4) -0.004(4)
C249 0.044(5) 0.008(5) 0.050(5) 0.004(4) 0.005(4) 0.002(4)
C250 0.033(5) 0.021(6) 0.053(5) 0.004(5) 0.000(4) 0.008(4)
C251 0.056(6) 0.031(7) 0.067(6) -0.002(6) -0.006(5) 0.012(6)
C252 0.070(6) 0.016(6) 0.051(6) -0.007(5) -0.003(5) 0.002(5)
C253 0.067(5) 0.022(6) 0.062(5) 0.004(5) 0.005(5) -0.006(5)
C254 0.079(6) 0.037(7) 0.034(5) 0.011(5) 0.014(5) -0.003(6)
C255 0.073(6) 0.062(8) 0.061(6) 0.027(7) 0.029(6) 0.010(7)
C256 0.047(6) 0.037(7) 0.078(7) -0.015(6) 0.011(5) 0.013(5)
C257 0.043(5) 0.009(5) 0.060(6) 0.000(5) 0.015(4) 0.005(4)
C258 0.044(5) 0.021(5) 0.048(5) 0.001(5) 0.014(4) -0.002(5)
C259 0.040(4) 0.010(5) 0.051(5) -0.007(4) 0.002(4) 0.010(4)
C260 0.045(6) 0.013(5) 0.058(6) 0.022(5) 0.010(4) 0.016(5)
C261 0.081(7) 0.017(6) 0.060(6) 0.001(5) 0.012(5) 0.003(6)
C262 0.074(6) 0.017(6) 0.036(5) 0.004(5) -0.006(5) -0.005(5)
C263 0.054(5) 0.019(5) 0.041(5) 0.007(5) -0.010(4) -0.010(5)
C264 0.048(5) 0.010(5) 0.037(5) -0.010(4) -0.011(4) -0.001(5)
C265 0.029(5) 0.023(5) 0.089(7) 0.005(5) -0.011(5) -0.005(4)
C266 0.039(6) 0.013(6) 0.073(8) -0.010(5) -0.019(5) 0.003(5)
C267 0.016(4) 0.037(5) 0.073(7) 0.008(5) -0.021(4) -0.014(4)
C268 0.040(6) 0.025(5) 0.073(7) 0.013(5) -0.014(5) 0.005(4)
C269 0.067(8) 0.031(6) 0.122(10) -0.004(7) -0.015(6) 0.004(6)
C270 0.102(10) 0.037(6) 0.110(10) 0.018(7) 0.005(7) -0.021(7)
C271 0.072(8) 0.039(6) 0.133(10) 0.029(7) 0.026(6) -0.013(6)
C272 0.105(10) 0.062(8) 0.158(12) 0.033(9) 0.043(8) -0.023(8)
C273 0.103(11) 0.101(10) 0.133(12) 0.022(10) 0.050(9) -0.011(8)
C274 0.069(8) 0.078(8) 0.108(10) -0.013(8) 0.032(7) 0.012(7)
C275 0.046(7) 0.057(7) 0.097(9) -0.006(7) 0.001(6) 0.005(6)
C276 0.034(6) 0.032(5) 0.094(8) 0.001(5) 0.000(5) 0.005(4)
C277 0.065(6) 0.028(6) 0.036(5) 0.003(5) -0.009(5) -0.003(5)
C278 0.056(6) 0.012(5) 0.050(6) 0.009(5) -0.015(5) -0.004(5)
C279 0.049(6) 0.024(6) 0.087(7) 0.008(6) -0.011(5) -0.016(5)
C280 0.056(6) 0.014(5) 0.052(6) 0.000(5) -0.006(5) -0.005(5)
C281 0.053(5) 0.018(5) 0.035(5) 0.007(4) -0.006(4) 0.007(4)
C282 0.055(6) 0.025(6) 0.033(5) 0.004(4) 0.000(5) -0.007(5)
C283 0.055(6) 0.028(6) 0.033(6) -0.008(4) -0.009(4) -0.004(4)
C284 0.080(9) 0.050(9) 0.051(8) -0.009(6) -0.014(6) 0.023(7)
C285 0.060(6) 0.032(5) 0.039(6) 0.001(5) 0.000(5) 0.004(4)
C286 0.088(8) 0.035(6) 0.032(6) 0.004(5) -0.018(5) 0.005(5)
C287 0.075(7) 0.033(6) 0.038(6) 0.015(5) -0.012(5) 0.001(5)
C288 0.076(7) 0.047(6) 0.047(7) 0.017(6) -0.011(6) 0.006(5)
C289 0.052(6) 0.037(5) 0.065(7) 0.012(5) 0.006(5) 0.002(4)
C290 0.089(8) 0.056(7) 0.062(8) 0.012(7) -0.041(7) 0.001(6)
C291 0.061(7) 0.060(8) 0.097(9) 0.017(7) -0.022(7) -0.020(6)
C292 0.071(8) 0.048(7) 0.085(9) 0.008(7) -0.010(7) -0.007(6)
C293 0.054(6) 0.043(6) 0.055(7) -0.002(6) -0.007(5) -0.001(5)
C294 0.059(6) 0.039(5) 0.048(6) 0.001(5) -0.009(5) 0.005(5)
C295 0.043(5) 0.019(5) 0.046(6) 0.021(5) 0.010(5) 0.002(4)
C296 0.041(6) 0.047(6) 0.082(8) -0.004(6) 0.001(6) 0.001(5)
C297 0.039(6) 0.058(7) 0.054(7) 0.008(6) -0.020(5) -0.007(5)
C298 0.040(5) 0.041(6) 0.057(7) 0.027(5) 0.008(5) 0.003(5)
C299 0.053(5) 0.024(5) 0.042(6) 0.017(5) 0.002(5) -0.008(4)
C300 0.055(6) 0.016(5) 0.038(6) 0.005(5) 0.007(5) -0.003(4)
C301 0.060(6) 0.012(5) 0.077(7) -0.020(5) 0.008(5) -0.003(4)
C302 0.069(8) 0.022(6) 0.092(10) -0.022(7) -0.016(7) 0.007(6)
C303 0.087(6) 0.009(5) 0.040(5) 0.015(4) 0.004(4) -0.014(5)
C304 0.097(8) 0.041(7) 0.033(5) 0.003(5) 0.007(5) -0.029(6)
C305 0.112(9) 0.043(8) 0.056(7) -0.017(6) 0.022(6) -0.022(7)
C306 0.093(8) 0.031(7) 0.059(6) 0.020(6) 0.014(6) 0.000(6)
C307 0.087(6) 0.019(6) 0.065(6) -0.002(5) 0.015(5) -0.012(6)
C308 0.083(7) 0.023(6) 0.079(7) 0.018(6) 0.009(6) -0.015(6)
C309 0.074(7) 0.033(7) 0.083(7) 0.009(7) -0.002(6) -0.005(6)
C310 0.069(7) 0.014(6) 0.091(8) -0.007(6) -0.005(5) 0.011(5)
C311 0.071(6) 0.025(6) 0.053(6) 0.009(5) 0.003(5) -0.005(5)
C312 0.075(6) 0.022(6) 0.055(5) 0.003(5) 0.005(5) 0.002(5)
C313 0.053(6) 0.035(7) 0.034(5) 0.003(5) 0.001(5) 0.006(5)
C314 0.055(7) 0.026(6) 0.048(6) 0.001(5) -0.008(5) 0.012(5)
C315 0.067(7) 0.044(7) 0.056(6) 0.003(6) -0.013(6) 0.008(5)
C316 0.070(7) 0.032(7) 0.034(5) 0.004(5) -0.013(5) 0.007(5)
C317 0.031(5) 0.029(5) 0.031(5) 0.002(4) -0.011(4) -0.002(4)
C318 0.042(6) 0.013(5) 0.042(6) -0.008(4) -0.008(4) -0.002(4)
C319 0.047(6) 0.021(5) 0.036(5) 0.010(4) -0.008(4) 0.000(4)
C320 0.059(7) 0.045(8) 0.034(6) 0.006(5) 0.017(5) -0.001(6)
C321 0.039(5) 0.021(4) 0.024(5) 0.002(4) 0.008(4) -0.001(4)
C322 0.051(5) 0.023(5) 0.027(5) 0.000(4) -0.002(5) -0.003(4)
C323 0.054(6) 0.027(6) 0.064(7) -0.008(5) 0.011(6) -0.016(5)
C324 0.075(6) 0.026(6) 0.049(7) -0.003(5) 0.024(6) -0.003(5)
C325 0.061(5) 0.023(5) 0.028(5) -0.005(4) 0.017(5) 0.005(4)
C326 0.090(7) 0.027(6) 0.048(7) 0.013(5) 0.006(6) 0.011(5)
C327 0.075(6) 0.039(6) 0.044(6) -0.001(5) 0.005(6) 0.031(6)
C328 0.056(6) 0.036(6) 0.055(7) -0.016(5) 0.004(5) 0.025(5)
C329 0.046(5) 0.022(5) 0.038(6) -0.009(4) 0.009(5) 0.020(4)
C330 0.048(5) 0.020(4) 0.032(5) -0.005(4) 0.003(4) 0.011(4)
C331 0.046(5) 0.020(5) 0.020(5) -0.002(4) -0.006(4) -0.001(4)
C332 0.050(6) 0.035(6) 0.036(6) -0.003(5) -0.012(5) 0.014(4)
C333 0.064(6) 0.022(5) 0.046(6) -0.004(5) -0.017(6) 0.016(5)
C334 0.075(6) 0.024(6) 0.047(6) 0.004(5) -0.024(6) 0.003(5)
C335 0.038(5) 0.022(5) 0.037(5) -0.003(4) -0.013(4) -0.005(4)
C336 0.051(5) 0.026(6) 0.034(6) -0.009(5) -0.008(5) -0.011(4)
C337 0.041(5) 0.051(7) 0.016(4) -0.011(4) 0.002(4) 0.002(5)
C338 0.045(6) 0.070(9) 0.029(6) -0.008(5) 0.003(5) -0.019(6)
C339 0.031(5) 0.052(6) 0.039(5) -0.020(4) -0.002(4) -0.006(4)
C340 0.049(6) 0.036(6) 0.040(5) -0.020(5) 0.003(5) -0.006(5)
C341 0.039(6) 0.054(7) 0.023(5) -0.010(5) 0.004(4) -0.003(5)
C342 0.049(6) 0.056(7) 0.037(6) -0.027(5) 0.000(5) -0.008(5)
C343 0.032(5) 0.065(7) 0.051(6) -0.028(5) -0.002(4) 0.006(5)
C344 0.055(7) 0.064(8) 0.047(6) -0.015(5) -0.018(5) 0.017(5)
C345 0.051(7) 0.075(9) 0.050(6) -0.017(6) -0.015(5) 0.031(6)
C346 0.055(7) 0.064(8) 0.052(6) -0.023(6) -0.006(5) 0.014(6)
C347 0.045(6) 0.060(8) 0.044(6) -0.020(5) -0.006(5) -0.004(5)
C348 0.024(5) 0.047(6) 0.036(5) -0.005(4) -0.006(4) -0.005(4)
C349 0.026(5) 0.031(5) 0.054(6) -0.009(5) -0.001(4) -0.007(4)
C350 0.064(7) 0.014(5) 0.073(8) -0.009(5) 0.003(6) -0.004(5)
C351 0.042(6) 0.021(5) 0.075(8) -0.015(5) 0.009(5) -0.005(5)
C352 0.044(6) 0.022(5) 0.056(7) -0.012(5) 0.007(5) -0.003(4)
C353 0.019(5) 0.028(5) 0.047(6) -0.005(4) 0.000(4) 0.005(4)
C354 0.029(5) 0.020(5) 0.036(6) 0.009(4) -0.007(4) 0.001(4)
C355 0.022(4) 0.013(4) 0.032(5) 0.000(4) -0.007(4) -0.008(3)
C356 0.031(5) 0.038(7) 0.058(7) 0.025(6) -0.013(5) 0.005(5)
C357 0.027(4) 0.014(4) 0.026(4) 0.006(3) -0.002(4) -0.007(3)
C358 0.031(5) 0.026(5) 0.047(5) 0.010(4) -0.016(4) -0.011(4)
C359 0.045(7) 0.041(7) 0.075(7) 0.002(5) -0.033(6) 0.003(5)
C360 0.034(6) 0.026(6) 0.085(7) 0.016(5) -0.010(5) 0.000(5)
C361 0.026(5) 0.029(6) 0.072(6) 0.003(5) 0.006(5) 0.012(4)
C362 0.047(7) 0.035(7) 0.097(7) -0.014(6) 0.020(6) 0.012(5)
C363 0.077(8) 0.031(7) 0.073(7) -0.007(6) 0.033(6) 0.003(5)
C364 0.088(8) 0.022(6) 0.042(6) -0.006(5) 0.009(6) -0.013(5)
C365 0.055(7) 0.028(6) 0.035(5) -0.003(4) -0.006(5) 0.000(5)
C366 0.033(5) 0.021(5) 0.038(5) 0.000(4) 0.002(4) 0.002(4)
C367 0.008(4) 0.039(5) 0.038(5) -0.003(4) 0.007(3) -0.008(4)
C368 0.037(6) 0.041(6) 0.031(5) -0.014(5) 0.009(4) -0.016(4)
C369 0.044(6) 0.032(6) 0.033(5) -0.004(4) 0.005(4) 0.002(5)
C370 0.023(5) 0.043(6) 0.046(6) -0.007(5) 0.007(4) 0.007(4)
C371 0.014(4) 0.033(5) 0.039(5) -0.007(4) 0.003(4) -0.005(4)
C372 0.024(5) 0.029(5) 0.025(5) -0.001(4) -0.008(4) 0.000(4)
C373 0.041(5) 0.030(6) 0.035(5) -0.007(4) 0.003(4) -0.013(4)
C374 0.039(5) 0.025(6) 0.021(5) -0.013(4) -0.001(4) -0.011(5)
C375 0.030(5) 0.039(5) 0.022(4) 0.009(4) -0.012(4) -0.004(4)
C376 0.042(6) 0.057(6) 0.049(6) -0.001(5) -0.001(5) -0.020(5)
C377 0.049(7) 0.058(7) 0.052(7) 0.005(6) 0.008(5) -0.028(6)
C378 0.075(8) 0.080(8) 0.069(8) -0.008(6) 0.030(6) -0.011(7)
C379 0.068(7) 0.074(7) 0.060(7) -0.021(6) 0.018(5) -0.016(6)
C380 0.122(11) 0.101(8) 0.062(8) -0.047(8) 0.023(7) -0.022(8)
C381 0.136(11) 0.087(9) 0.056(8) -0.034(8) 0.025(7) -0.014(8)
C382 0.122(10) 0.070(8) 0.064(8) -0.032(7) 0.025(7) -0.008(8)
C383 0.070(8) 0.041(6) 0.066(7) -0.015(6) -0.007(6) -0.010(6)
C384 0.045(6) 0.049(5) 0.040(6) -0.002(5) -0.002(4) -0.008(5)
C385 0.045(6) 0.038(6) 0.036(6) -0.005(5) 0.005(5) 0.005(4)
C386 0.039(6) 0.027(6) 0.073(7) 0.019(5) 0.006(5) 0.017(5)
C387 0.054(6) 0.029(6) 0.059(7) 0.015(5) 0.002(5) 0.012(5)
C388 0.051(7) 0.037(6) 0.067(7) 0.015(5) -0.014(6) -0.003(5)
C389 0.032(5) 0.038(6) 0.052(6) 0.001(4) 0.010(4) 0.000(4)
C390 0.021(5) 0.041(6) 0.047(6) 0.005(5) 0.001(4) -0.002(4)
C391 0.047(6) 0.038(5) 0.025(5) -0.002(4) -0.015(4) 0.011(5)
C392 0.067(8) 0.049(8) 0.028(6) -0.007(5) -0.028(5) 0.019(6)
C393 0.031(5) 0.032(5) 0.039(5) 0.003(4) -0.006(4) 0.007(4)
C394 0.047(6) 0.035(6) 0.040(6) 0.007(5) 0.014(4) 0.006(5)
C395 0.054(7) 0.052(7) 0.060(7) 0.012(6) 0.023(5) 0.028(6)
C396 0.060(7) 0.043(6) 0.060(7) -0.027(6) 0.002(5) 0.009(6)
C397 0.055(6) 0.025(5) 0.053(6) 0.004(4) -0.008(4) 0.004(5)
C398 0.067(7) 0.015(5) 0.066(7) -0.006(5) -0.013(5) 0.000(5)
C399 0.077(8) 0.031(6) 0.077(8) 0.014(6) -0.005(6) -0.003(6)
C400 0.063(7) 0.044(6) 0.045(6) 0.014(5) -0.014(5) -0.001(6)
C401 0.040(6) 0.039(6) 0.051(6) -0.001(5) -0.002(4) -0.004(5)
C402 0.029(5) 0.030(4) 0.040(5) 0.004(4) -0.007(4) 0.004(4)
C403 0.018(5) 0.049(6) 0.036(5) -0.009(5) 0.002(4) 0.001(5)
C404 0.049(6) 0.045(6) 0.025(5) 0.011(5) -0.003(4) -0.012(5)
C405 0.049(7) 0.038(6) 0.066(7) 0.002(5) 0.020(6) -0.007(5)
C406 0.051(7) 0.034(5) 0.044(6) 0.001(5) -0.005(5) 0.007(5)
C407 0.040(6) 0.029(5) 0.031(5) -0.006(4) 0.001(4) 0.006(4)
C408 0.044(6) 0.031(5) 0.035(5) 0.006(5) 0.000(4) 0.000(5)
C409 0.038(5) 0.035(6) 0.014(4) 0.009(4) 0.003(4) 0.008(4)
C410 0.061(8) 0.035(7) 0.044(6) 0.000(5) 0.002(6) 0.008(6)
C411 0.040(5) 0.051(6) 0.039(6) -0.001(4) 0.016(4) 0.005(4)
C412 0.024(5) 0.086(9) 0.087(8) 0.008(7) 0.002(5) 0.003(5)
C413 0.034(6) 0.121(11) 0.085(9) -0.003(7) 0.001(6) 0.012(7)
C414 0.038(6) 0.101(10) 0.083(9) -0.016(7) 0.001(6) -0.019(6)
C415 0.046(6) 0.058(7) 0.073(8) -0.013(5) 0.017(5) -0.009(5)
C416 0.084(8) 0.066(8) 0.077(9) -0.017(6) 0.027(6) -0.035(7)
C417 0.105(9) 0.040(8) 0.083(9) 0.020(6) 0.051(7) -0.014(6)
C418 0.090(8) 0.049(8) 0.057(7) 0.011(6) 0.025(6) 0.000(6)
C419 0.060(6) 0.031(6) 0.044(6) -0.008(4) 0.008(5) 0.006(5)
C420 0.046(5) 0.035(6) 0.049(6) -0.015(4) 0.011(5) -0.003(4)
C421 0.037(6) 0.046(6) 0.017(5) 0.000(4) 0.003(4) 0.003(5)
C422 0.036(6) 0.033(6) 0.029(5) 0.008(4) -0.019(4) -0.005(4)
C423 0.033(6) 0.037(6) 0.067(6) -0.008(5) -0.005(5) -0.002(5)
C424 0.037(6) 0.030(6) 0.053(5) -0.016(4) -0.002(5) -0.003(5)
C425 0.053(6) 0.021(5) 0.043(5) -0.012(4) -0.008(5) -0.002(4)
C426 0.032(6) 0.038(6) 0.053(5) 0.004(5) -0.016(5) 0.002(5)
C427 0.045(5) 0.022(5) 0.044(5) 0.014(4) -0.002(4) 0.004(4)
C428 0.073(8) 0.018(5) 0.051(7) 0.008(5) -0.009(6) 0.018(5)
C429 0.033(5) 0.031(6) 0.061(5) 0.014(5) 0.002(4) 0.011(4)
C430 0.033(5) 0.032(6) 0.064(6) 0.027(5) 0.004(4) 0.017(5)
C431 0.035(5) 0.037(7) 0.072(6) 0.012(6) 0.007(5) 0.003(5)
C432 0.048(6) 0.047(8) 0.085(7) 0.001(7) -0.004(5) -0.002(6)
C433 0.063(6) 0.029(6) 0.067(5) 0.002(6) -0.006(5) 0.000(5)
C434 0.054(7) 0.049(8) 0.076(6) 0.002(7) -0.027(5) 0.017(6)
C435 0.081(8) 0.057(8) 0.057(6) -0.011(6) -0.024(5) 0.025(7)
C436 0.080(7) 0.056(8) 0.047(6) 0.007(6) -0.018(6) 0.007(7)
C437 0.071(7) 0.032(7) 0.046(5) -0.003(5) -0.008(5) -0.003(6)
C438 0.052(5) 0.014(5) 0.050(5) -0.001(5) -0.005(4) 0.011(4)
C439 0.023(5) 0.031(6) 0.039(5) 0.008(5) 0.003(4) 0.006(4)
C440 0.037(5) 0.046(7) 0.037(5) -0.001(5) 0.005(4) 0.012(5)
C441 0.047(6) 0.030(6) 0.044(5) -0.013(5) -0.012(5) 0.005(5)
C442 0.031(5) 0.029(6) 0.045(5) -0.013(5) -0.006(4) -0.009(4)
C443 0.025(5) 0.027(5) 0.038(4) -0.001(4) 0.002(4) 0.014(4)
C444 0.020(5) 0.030(6) 0.042(4) -0.008(4) 0.003(4) 0.004(4)
C445 0.021(5) 0.022(5) 0.034(4) -0.001(4) 0.016(4) -0.001(4)
C446 0.046(7) 0.036(6) 0.028(6) -0.001(5) 0.000(5) -0.009(5)
C447 0.015(4) 0.034(5) 0.038(4) -0.004(4) 0.013(4) -0.005(4)
C448 0.034(6) 0.041(6) 0.037(5) 0.006(4) 0.007(5) 0.008(4)
C449 0.036(6) 0.029(6) 0.074(6) 0.001(5) 0.009(5) 0.006(5)
C450 0.047(6) 0.028(6) 0.060(6) -0.005(5) 0.008(5) 0.007(5)
C451 0.031(5) 0.024(5) 0.053(5) -0.010(4) 0.004(4) -0.005(4)
C452 0.060(7) 0.028(6) 0.041(5) -0.002(5) 0.019(5) -0.005(5)
C453 0.069(7) 0.037(7) 0.042(6) -0.005(5) 0.000(5) -0.004(5)
C454 0.054(7) 0.032(6) 0.047(6) 0.010(5) 0.007(5) 0.011(5)
C455 0.041(6) 0.027(6) 0.045(5) 0.002(4) 0.000(5) -0.008(4)
C456 0.022(5) 0.021(5) 0.033(4) 0.005(4) 0.013(4) -0.005(4)
C457 0.027(6) 0.023(6) 0.058(7) 0.012(5) -0.017(5) 0.004(5)
C458 0.039(6) 0.020(6) 0.025(5) -0.001(4) -0.001(4) 0.007(4)
C459 0.019(5) 0.031(6) 0.017(5) 0.000(4) -0.008(4) -0.002(4)
C460 0.033(6) 0.013(6) 0.065(8) -0.012(5) -0.002(5) -0.006(5)
C461 0.012(5) 0.032(7) 0.095(10) -0.006(6) 0.027(6) -0.005(5)
C462 0.024(6) 0.018(6) 0.056(7) 0.011(5) -0.003(5) 0.006(4)
C463 0.018(5) 0.031(6) 0.034(6) -0.001(5) 0.000(4) -0.002(4)
C464 0.028(5) 0.008(5) 0.024(5) -0.002(4) 0.005(4) 0.004(4)
C465 0.044(6) 0.028(6) 0.023(5) -0.012(5) 0.004(4) 0.002(5)
C466 0.035(6) 0.027(6) 0.022(5) 0.001(5) 0.005(4) -0.012(4)
C467 0.018(5) 0.046(7) 0.015(5) 0.004(5) -0.004(4) -0.010(4)
C468 0.095(10) 0.010(6) 0.050(7) 0.011(6) 0.003(6) -0.008(6)
C469 0.027(5) 0.020(6) 0.032(5) -0.004(5) -0.004(4) -0.003(4)
C470 0.012(4) 0.021(5) 0.022(5) 0.007(4) -0.006(4) -0.003(4)
C471 0.021(5) 0.025(5) 0.027(5) -0.006(4) 0.008(4) 0.004(4)
C472 0.038(6) 0.020(6) 0.051(7) -0.008(5) -0.014(5) 0.018(5)
C473 0.024(5) 0.029(6) 0.029(5) -0.012(5) -0.008(4) 0.019(5)
C474 0.067(8) 0.023(5) 0.011(5) 0.005(4) 0.006(5) 0.004(5)
C475 0.038(6) 0.027(6) 0.043(6) 0.003(5) -0.004(5) 0.016(5)
C476 0.018(4) 0.015(5) 0.022(4) -0.007(4) -0.007(4) -0.011(4)
C477 0.022(5) 0.028(6) 0.019(5) 0.004(4) 0.003(4) 0.000(4)
C478 0.016(5) 0.040(7) 0.054(7) -0.018(6) -0.009(5) 0.000(5)
C479 0.033(6) 0.045(8) 0.048(7) -0.011(6) 0.020(5) -0.002(5)
C480 0.035(6) 0.014(6) 0.062(7) -0.002(5) 0.008(6) -0.018(5)
C481 0.24(3) 0.087(17) 0.115(18) 0.051(14) 0.071(19) 0.070(18)
C482 0.31(4) 0.23(4) 0.077(16) 0.05(2) 0.00(2) 0.17(3)
C483 0.34(4) 0.028(10) 0.058(11) 0.020(9) 0.026(16) 0.059(15)
C484 0.22(2) 0.028(9) 0.026(7) -0.015(6) 0.004(10) 0.012(10)
C485 0.133(15) 0.026(9) 0.069(11) 0.008(8) 0.016(10) 0.004(9)
C486 0.104(13) 0.044(10) 0.098(13) 0.013(9) -0.028(11) 0.002(9)
C487 0.077(9) 0.024(7) 0.053(8) 0.019(6) 0.022(7) 0.001(6)
C488 0.074(9) 0.038(8) 0.049(8) -0.033(6) 0.011(7) 0.005(7)
C489 0.067(9) 0.011(6) 0.096(11) -0.026(7) 0.012(8) -0.007(6)
C490 0.101(11) 0.023(7) 0.054(8) -0.007(6) 0.015(8) -0.022(7)
C491 0.085(10) 0.014(6) 0.049(8) 0.002(6) 0.003(7) 0.005(6)
C492 0.122(14) 0.041(10) 0.066(10) -0.029(8) 0.027(10) -0.009(9)
C493 0.108(13) 0.018(7) 0.088(12) -0.021(7) 0.033(10) -0.018(8)
C494 0.092(13) 0.051(11) 0.110(14) -0.028(9) -0.037(11) 0.000(10)
C495 0.14(2) 0.062(14) 0.15(2) -0.021(13) -0.088(17) -0.018(13)
C496 0.115(16) 0.054(13) 0.138(18) -0.003(12) 0.010(14) 0.014(11)
C497 0.126(16) 0.023(9) 0.129(15) -0.028(9) -0.022(13) -0.009(9)
C498 0.068(11) 0.061(11) 0.111(14) -0.048(10) 0.028(10) -0.005(9)
C499 0.146(16) 0.054(11) 0.060(10) -0.007(8) 0.036(11) 0.003(10)
C500 0.149(19) 0.069(13) 0.078(13) 0.023(10) 0.010(13) 0.061(13)
C501 0.092(14) 0.060(12) 0.112(16) -0.039(11) 0.006(12) 0.015(10)
C502 0.140(19) 0.065(13) 0.094(15) -0.049(11) 0.021(15) -0.016(12)
C503 0.121(16) 0.032(9) 0.088(13) -0.034(9) 0.009(12) -0.024(9)
C504 0.20(2) 0.014(8) 0.065(11) -0.013(8) 0.051(13) -0.012(10)
C505 0.148(15) 0.028(8) 0.055(9) -0.007(7) 0.026(9) -0.014(9)
C506 0.22(2) 0.010(7) 0.063(10) -0.017(7) 0.072(11) -0.008(9)
C507 0.091(13) 0.085(14) 0.055(10) 0.014(9) 0.014(9) -0.010(10)
C508 0.24(3) 0.079(16) 0.120(18) -0.035(14) 0.12(2) -0.106(18)
C509 0.118(16) 0.103(18) 0.104(16) 0.057(14) 0.046(13) 0.014(14)
C510 0.20(3) 0.10(2) 0.055(12) -0.011(12) 0.005(13) -0.041(17)
C511 0.17(2) 0.043(11) 0.102(15) -0.020(11) 0.079(14) 0.009(12)
C512 0.27(4) 0.063(15) 0.100(17) -0.034(12) 0.103(19) -0.084(19)
C513 0.19(3) 0.18(3) 0.15(3) -0.08(2) 0.11(2) -0.03(2)
C514 0.137(16) 0.045(11) 0.096(13) -0.015(9) 0.034(11) 0.006(10)
C515 0.088(14) 0.098(17) 0.134(17) -0.016(13) 0.035(12) -0.005(12)
C516 0.072(11) 0.043(10) 0.102(13) 0.006(9) 0.043(10) -0.009(8)
C517 0.058(9) 0.128(17) 0.065(10) -0.069(10) -0.014(8) 0.012(10)
C518 0.064(11) 0.14(2) 0.056(10) 0.002(11) -0.017(8) -0.001(12)
C519 0.057(10) 0.080(14) 0.142(17) 0.001(13) 0.004(11) 0.041(10)
C520 0.102(13) 0.097(14) 0.037(8) 0.000(8) 0.024(8) 0.019(11)
C521 0.032(7) 0.064(10) 0.048(8) 0.024(7) 0.007(6) 0.009(7)
C522 0.071(10) 0.029(8) 0.091(11) -0.008(7) 0.010(8) 0.030(7)
C523 0.059(8) 0.047(9) 0.067(9) -0.042(7) 0.018(7) -0.019(7)
C524 0.097(11) 0.058(10) 0.060(9) -0.006(7) 0.020(8) -0.050(9)
C525 0.052(8) 0.024(7) 0.079(10) -0.011(7) 0.008(7) 0.001(6)
C526 0.070(10) 0.041(9) 0.070(10) -0.024(7) 0.002(8) -0.011(7)
C527 0.067(10) 0.053(11) 0.125(15) -0.055(10) -0.032(11) 0.017(8)
C528 0.059(9) 0.038(8) 0.071(10) -0.017(7) -0.008(7) 0.013(7)
C529 0.085(10) 0.029(7) 0.027(7) 0.000(5) -0.010(6) -0.010(7)
C530 0.086(11) 0.049(10) 0.060(10) 0.013(7) -0.021(8) -0.005(8)
C531 0.049(9) 0.061(11) 0.099(12) 0.007(9) -0.037(8) -0.023(8)
C532 0.045(8) 0.053(9) 0.080(10) -0.042(8) 0.019(7) -0.015(7)
C533 0.049(8) 0.051(9) 0.065(9) 0.016(7) 0.007(7) -0.017(7)
C534 0.067(8) 0.015(6) 0.045(7) -0.011(5) 0.024(6) -0.010(6)
C535 0.088(11) 0.041(9) 0.059(9) 0.002(7) 0.007(8) 0.015(8)
C536 0.079(13) 0.116(19) 0.16(2) -0.065(16) -0.054(13) 0.081(13)
C537 0.065(11) 0.045(10) 0.152(18) 0.035(11) -0.017(12) 0.016(8)
C538 0.117(14) 0.031(9) 0.060(9) -0.003(7) -0.029(9) 0.015(9)
C539 0.089(11) 0.022(7) 0.048(8) -0.001(6) -0.001(7) -0.012(7)
C540 0.079(10) 0.028(8) 0.076(10) -0.009(7) 0.010(9) -0.005(7)
C541 0.055(8) 0.060(10) 0.043(8) 0.003(6) 0.018(7) 0.002(7)
C542 0.147(15) 0.051(10) 0.049(9) -0.020(7) 0.013(9) -0.052(10)
C543 0.069(8) 0.081(10) 0.034(7) -0.007(6) 0.025(6) -0.023(7)
C544 0.096(10) 0.091(11) 0.043(8) 0.017(7) 0.006(7) -0.025(9)
C545 0.090(11) 0.116(13) 0.059(9) 0.027(9) -0.005(8) -0.027(9)
C546 0.093(10) 0.118(13) 0.056(9) 0.026(8) 0.007(8) -0.031(9)
C547 0.072(8) 0.136(13) 0.042(8) 0.026(8) 0.018(7) -0.018(8)
C548 0.080(10) 0.164(17) 0.082(12) 0.007(11) 0.034(9) -0.012(10)
C549 0.147(15) 0.196(19) 0.082(13) -0.012(13) 0.042(10) 0.009(15)
C550 0.115(13) 0.154(15) 0.022(7) 0.005(8) 0.037(8) 0.028(10)
C551 0.106(11) 0.104(12) 0.050(9) 0.013(8) 0.055(8) 0.024(9)
C552 0.069(8) 0.111(12) 0.061(9) -0.003(8) 0.022(7) -0.025(8)
C553 0.107(13) 0.052(12) 0.111(14) 0.010(10) 0.076(11) -0.011(10)
C554 0.041(8) 0.018(7) 0.133(14) -0.041(8) -0.019(8) 0.012(6)
C555 0.115(13) 0.035(9) 0.078(11) 0.023(8) 0.011(9) 0.025(9)
C556 0.152(18) 0.063(13) 0.171(19) -0.001(12) 0.118(16) -0.056(13)
C557 0.156(18) 0.020(8) 0.071(11) 0.006(8) 0.032(11) -0.005(9)
C558 0.068(12) 0.060(13) 0.141(19) -0.036(12) 0.016(11) -0.007(10)
C559 0.080(10) 0.022(7) 0.041(7) -0.007(6) -0.004(7) 0.017(6)
C560 0.117(13) 0.041(9) 0.050(8) -0.006(7) 0.024(8) -0.042(9)
C561 0.102(12) 0.032(8) 0.053(9) 0.010(6) -0.004(8) -0.028(8)
C562 0.121(13) 0.011(7) 0.060(9) -0.006(6) 0.008(8) -0.008(7)
C563 0.096(12) 0.024(8) 0.068(10) -0.003(7) -0.031(9) -0.025(7)
C564 0.091(11) 0.069(11) 0.034(8) 0.036(7) -0.003(7) -0.035(9)
C565 0.201(18) 0.093(14) 0.112(11) -0.022(10) -0.072(12) 0.076(13)
C566 0.140(15) 0.088(14) 0.048(9) -0.029(8) -0.039(9) 0.025(11)
C567 0.114(16) 0.044(13) 0.095(16) 0.017(11) 0.015(13) 0.008(12)
C568 0.113(15) 0.067(15) 0.091(12) -0.028(13) -0.013(12) 0.015(14)
C569 0.110(11) 0.128(15) 0.050(9) 0.036(9) 0.049(8) 0.018(10)
C570 0.097(11) 0.137(16) 0.098(12) -0.004(11) 0.009(9) 0.038(11)
C571 0.119(13) 0.081(13) 0.087(11) -0.026(9) -0.076(10) 0.068(10)
C572 0.22(2) 0.065(10) 0.208(19) 0.022(14) -0.015(14) -0.072(12)
C573 0.123(13) 0.025(7) 0.128(14) -0.030(8) 0.041(11) -0.038(8)
C574 0.150(14) 0.088(11) 0.138(15) 0.058(12) -0.008(12) 0.047(11)
C575 0.084(11) 0.017(7) 0.162(16) 0.005(9) -0.019(11) 0.013(7)
C576 0.118(13) 0.077(13) 0.112(11) -0.021(9) 0.052(10) -0.033(10)
C577 0.084(11) 0.086(13) 0.055(8) 0.021(8) -0.012(8) 0.005(9)
C578 0.152(14) 0.106(16) 0.127(13) 0.012(12) -0.080(11) -0.013(11)
C579 0.084(11) 0.050(10) 0.148(16) 0.020(10) -0.077(10) -0.002(8)
C580 0.084(14) 0.035(11) 0.063(14) -0.019(10) 0.031(10) -0.042(10)
C581 0.139(15) 0.062(14) 0.041(12) -0.014(10) 0.019(11) -0.037(12)
C582 0.101(12) 0.115(14) 0.086(11) -0.016(10) 0.044(9) -0.055(10)
N1 0.029(5) 0.019(5) 0.030(5) 0.009(4) -0.009(4) -0.002(4)
N2 0.031(5) 0.024(5) 0.011(4) -0.010(3) 0.009(3) -0.004(4)
N3 0.029(5) 0.026(6) 0.054(6) 0.000(4) -0.008(4) 0.004(4)
N4 0.040(5) 0.022(5) 0.028(5) 0.008(4) 0.011(4) 0.005(4)
N5 0.011(4) 0.030(5) 0.046(6) 0.003(4) -0.003(4) 0.006(4)
N6 0.011(4) 0.035(6) 0.043(5) 0.008(4) 0.004(4) 0.004(4)
N7 0.027(5) 0.031(6) 0.040(5) 0.008(4) -0.003(4) 0.002(4)
N8 0.028(5) 0.025(5) 0.050(6) 0.021(5) 0.004(4) -0.002(4)
N9 0.033(5) 0.021(5) 0.039(5) 0.013(4) -0.001(4) -0.004(4)
N10 0.018(4) 0.015(4) 0.041(5) 0.016(4) 0.010(4) 0.004(3)
N11 0.030(5) 0.020(5) 0.046(6) 0.007(4) -0.002(4) -0.004(4)
N12 0.041(5) 0.017(5) 0.059(6) 0.011(5) 0.011(5) 0.000(4)
N13 0.058(7) 0.035(7) 0.054(7) 0.017(5) -0.011(5) 0.004(5)
N14 0.047(6) 0.031(6) 0.027(5) -0.009(4) -0.001(4) -0.015(5)
N15 0.052(6) 0.011(5) 0.051(6) 0.003(4) -0.007(5) -0.004(4)
N16 0.033(5) 0.018(5) 0.061(6) 0.011(4) -0.005(5) 0.008(4)
N17 0.033(5) 0.040(6) 0.051(6) 0.000(5) -0.018(4) -0.007(4)
N18 0.027(5) 0.065(8) 0.023(5) 0.010(5) -0.010(4) 0.009(5)
N19 0.029(5) 0.049(7) 0.033(5) -0.010(5) -0.010(4) -0.013(4)
N20 0.020(4) 0.046(6) 0.011(4) 0.008(4) -0.002(3) -0.009(4)
N21 0.043(6) 0.017(5) 0.068(7) 0.009(5) -0.012(5) -0.015(4)
N22 0.040(5) 0.014(5) 0.020(4) 0.001(4) -0.009(4) 0.000(4)
N23 0.022(5) 0.028(6) 0.057(6) 0.000(5) 0.008(4) -0.003(4)
N24 0.028(5) 0.034(6) 0.057(6) 0.004(5) -0.008(4) -0.004(4)
N25 0.048(6) 0.035(6) 0.028(5) -0.006(4) -0.018(4) 0.022(5)
N26 0.031(5) 0.015(5) 0.033(5) 0.001(4) -0.009(4) 0.009(4)
N27 0.040(5) 0.026(6) 0.037(5) 0.006(4) -0.009(4) -0.012(4)
N28 0.054(6) 0.025(6) 0.071(7) 0.025(5) -0.031(6) -0.010(5)
N29 0.055(7) 0.057(8) 0.040(6) -0.011(5) -0.014(5) -0.029(6)
N30 0.056(7) 0.024(6) 0.070(7) 0.007(5) 0.000(5) 0.014(5)
N31 0.022(4) 0.025(5) 0.006(4) -0.003(3) 0.006(3) -0.001(4)
N32 0.038(5) 0.017(5) 0.051(6) -0.004(4) 0.008(4) 0.000(4)
N33 0.029(5) 0.036(6) 0.026(5) -0.003(4) 0.002(4) 0.002(4)
N34 0.046(6) 0.023(6) 0.051(6) 0.000(4) -0.007(5) -0.004(5)
N35 0.048(6) 0.030(6) 0.045(6) 0.001(5) -0.005(4) -0.025(5)
N36 0.096(8) 0.039(7) 0.019(5) -0.004(4) -0.004(5) -0.002(6)
N37 0.023(5) 0.036(6) 0.048(6) -0.013(5) 0.009(4) -0.009(4)
N38 0.038(5) 0.012(5) 0.059(6) 0.003(4) -0.022(5) 0.001(4)
N39 0.053(6) 0.012(5) 0.043(6) -0.014(4) 0.006(5) -0.003(4)
N40 0.064(8) 0.068(9) 0.077(9) 0.015(7) -0.008(7) -0.002(7)
N41 0.066(7) 0.017(6) 0.086(8) -0.007(5) 0.011(6) -0.005(5)
N42 0.059(6) 0.012(5) 0.059(6) 0.002(4) -0.001(5) 0.010(5)
N43 0.044(5) 0.017(5) 0.026(5) -0.005(4) -0.007(4) 0.000(4)
N44 0.050(6) 0.023(6) 0.049(6) 0.011(5) -0.008(5) -0.017(5)
N45 0.030(5) 0.039(6) 0.019(5) 0.009(4) -0.012(4) -0.013(4)
N46 0.048(6) 0.030(6) 0.054(6) 0.008(5) -0.017(5) 0.008(5)
N47 0.064(7) 0.028(6) 0.045(6) 0.010(5) -0.018(5) -0.014(5)
N48 0.061(6) 0.043(6) 0.040(5) 0.007(4) 0.004(4) 0.007(5)
N49 0.027(4) 0.026(4) 0.046(5) 0.003(4) -0.012(4) 0.001(4)
N50 0.041(5) 0.022(5) 0.051(5) -0.004(4) -0.001(4) -0.001(4)
N51 0.037(4) 0.011(4) 0.030(4) 0.006(3) -0.005(3) -0.005(4)
N52 0.034(4) 0.006(4) 0.052(5) 0.003(4) -0.007(4) 0.001(3)
N53 0.042(5) 0.011(4) 0.052(5) 0.001(4) -0.002(4) -0.004(4)
N54 0.050(5) 0.017(5) 0.033(5) -0.001(3) -0.003(4) 0.004(4)
N55 0.038(5) 0.022(4) 0.042(5) 0.003(4) 0.003(4) 0.002(3)
N56 0.054(5) 0.012(4) 0.036(5) -0.007(4) -0.002(4) -0.001(4)
N57 0.040(5) 0.017(4) 0.029(4) 0.000(3) -0.001(4) -0.008(3)
N58 0.045(5) 0.009(4) 0.028(4) 0.002(3) -0.003(3) -0.010(3)
N59 0.042(4) 0.021(4) 0.016(4) -0.004(3) 0.003(4) -0.005(3)
N60 0.032(4) 0.043(5) 0.012(4) -0.005(4) -0.013(3) -0.013(4)
N61 0.019(4) 0.026(4) 0.049(5) -0.004(4) 0.005(3) 0.001(3)
N62 0.024(4) 0.020(4) 0.042(5) 0.006(4) 0.003(4) -0.003(3)
N63 0.022(4) 0.024(5) 0.046(5) 0.005(4) -0.001(3) -0.004(3)
N64 0.023(4) 0.023(5) 0.027(4) 0.004(3) -0.004(3) -0.005(3)
N65 0.034(5) 0.028(5) 0.051(5) -0.008(4) 0.003(4) 0.008(4)
N66 0.029(5) 0.044(5) 0.029(4) -0.007(4) -0.006(4) 0.008(4)
N67 0.022(4) 0.043(5) 0.038(5) -0.005(4) 0.002(4) -0.011(4)
N68 0.035(5) 0.030(5) 0.032(4) 0.007(4) -0.002(4) 0.004(4)
N69 0.044(5) 0.013(4) 0.043(5) 0.004(3) 0.000(4) 0.003(4)
N70 0.043(5) 0.020(5) 0.056(5) 0.002(4) -0.013(4) 0.009(4)
N71 0.025(4) 0.025(5) 0.048(5) -0.004(4) -0.005(4) 0.007(3)
N72 0.028(4) 0.022(5) 0.018(3) 0.003(3) -0.004(3) 0.007(3)
N73 0.040(5) 0.013(5) 0.080(7) 0.010(5) -0.017(5) -0.013(4)
N74 0.064(6) 0.012(5) 0.040(5) 0.000(4) -0.005(5) -0.001(4)
N75 0.027(5) 0.033(5) 0.020(4) -0.007(4) 0.002(3) -0.003(4)
N76 0.051(6) 0.031(6) 0.076(8) 0.005(5) -0.019(5) -0.002(5)
N77 0.039(5) 0.020(5) 0.056(6) -0.013(4) -0.002(4) 0.007(4)
N78 0.048(6) 0.032(6) 0.051(6) -0.006(5) -0.003(5) -0.016(4)
N79 0.033(5) 0.037(5) 0.027(5) -0.003(4) -0.009(4) 0.015(4)
N80 0.032(5) 0.024(5) 0.035(5) 0.004(4) 0.007(4) 0.003(4)
N81 0.034(5) 0.043(6) 0.035(5) -0.004(4) -0.009(4) 0.013(4)
N82 0.071(7) 0.023(5) 0.048(6) 0.004(5) -0.007(5) 0.013(5)
N83 0.032(5) 0.034(6) 0.040(5) -0.020(4) 0.020(4) -0.012(4)
N84 0.099(9) 0.024(6) 0.055(7) 0.020(5) -0.028(6) 0.004(6)
N85 0.017(4) 0.016(5) 0.044(5) 0.006(4) 0.006(4) -0.005(3)
N86 0.030(4) 0.017(5) 0.030(5) 0.006(4) 0.005(4) -0.006(4)
N87 0.020(4) 0.030(5) 0.051(6) 0.011(4) 0.008(4) 0.007(4)
N88 0.062(6) 0.029(6) 0.028(5) 0.020(4) 0.005(4) 0.005(5)
N89 0.032(5) 0.050(7) 0.035(5) -0.021(5) -0.004(4) 0.011(5)
N90 0.072(7) 0.019(5) 0.041(6) -0.003(4) -0.026(5) -0.006(5)
N91 0.031(5) 0.020(5) 0.055(6) -0.007(4) -0.013(4) 0.009(4)
N92 0.032(4) 0.033(5) 0.011(4) 0.006(4) -0.006(3) 0.003(4)
N93 0.047(5) 0.029(5) 0.024(4) 0.000(4) -0.005(4) 0.009(4)
N94 0.040(5) 0.036(6) 0.032(5) -0.010(4) -0.006(4) 0.013(4)
N95 0.053(6) 0.026(6) 0.053(6) -0.007(5) 0.016(5) -0.009(4)
N96 0.108(9) 0.015(5) 0.032(5) -0.003(4) 0.004(6) 0.002(5)
N97 0.146(12) 0.032(8) 0.071(8) -0.025(6) 0.060(8) -0.024(8)
N98 0.092(9) 0.020(6) 0.074(8) -0.005(6) 0.036(7) -0.003(6)
N99 0.094(10) 0.058(8) 0.046(7) -0.028(6) 0.010(7) -0.015(7)
N100 0.139(12) 0.033(8) 0.053(8) -0.003(6) 0.023(8) -0.006(7)
N101 0.077(8) 0.050(8) 0.040(6) 0.004(5) 0.016(6) 0.010(6)
N102 0.075(8) 0.047(8) 0.060(7) -0.003(6) 0.010(6) -0.012(6)
N103 0.096(10) 0.045(8) 0.051(7) -0.023(6) 0.008(7) -0.001(6)
N104 0.086(8) 0.028(6) 0.027(5) -0.012(4) 0.001(5) -0.011(6)
N105 0.140(12) 0.022(7) 0.077(9) -0.021(6) 0.068(8) -0.001(7)
N106 0.057(7) 0.033(6) 0.053(6) -0.019(5) 0.017(5) -0.015(5)
N107 0.075(8) 0.045(8) 0.096(9) 0.029(7) -0.006(7) 0.012(7)
N108 0.173(17) 0.027(9) 0.29(3) 0.047(12) 0.115(18) 0.024(10)
N109 0.26(2) 0.016(7) 0.118(13) 0.011(8) -0.067(14) 0.007(10)
N110 0.096(13) 0.096(14) 0.156(17) -0.020(12) -0.023(11) 0.037(11)
N111 0.093(8) 0.024(6) 0.036(6) 0.010(4) 0.029(6) -0.006(5)
N112 0.098(9) 0.055(8) 0.010(5) 0.013(5) -0.005(5) -0.011(6)
N113 0.116(13) 0.126(16) 0.125(14) 0.052(11) -0.028(10) -0.076(12)
N114 0.129(13) 0.052(10) 0.138(14) -0.040(9) -0.023(10) -0.007(9)
N115 0.141(14) 0.058(10) 0.107(12) -0.037(8) -0.059(10) -0.019(9)
N116 0.121(11) 0.044(8) 0.059(8) -0.003(6) 0.003(8) -0.019(8)
N117 0.025(4) 0.025(5) 0.032(4) 0.006(4) 0.000(3) -0.003(3)
N118 0.024(4) 0.009(4) 0.048(5) -0.010(4) -0.004(4) -0.004(3)
O1 0.082(9) 0.145(15) 0.30(2) -0.153(15) -0.043(11) 0.033(9)
O2 0.109(7) 0.029(5) 0.040(5) 0.011(4) -0.020(5) -0.009(5)
O3 0.259(17) 0.204(17) 0.276(19) -0.218(16) -0.243(16) 0.223(16)
O4 0.202(17) 0.092(13) 0.49(4) 0.085(17) 0.23(2) 0.087(13)
O5 0.091(8) 0.093(10) 0.136(10) 0.016(8) -0.026(7) -0.018(7)
O6 0.25(2) 0.21(2) 0.191(18) 0.008(15) 0.043(16) -0.109(19)
O7 0.132(10) 0.106(11) 0.082(8) -0.007(7) 0.016(7) -0.061(8)
O8 0.147(13) 0.126(14) 0.27(2) 0.134(14) 0.059(13) 0.067(11)
O9 0.063(6) 0.036(5) 0.061(5) -0.002(4) -0.014(4) -0.007(4)
O10 0.102(8) 0.044(7) 0.113(8) 0.018(6) -0.037(7) -0.014(6)
O11 0.043(4) 0.029(5) 0.044(4) 0.010(4) -0.016(3) 0.007(4)
O12 0.217(17) 0.082(11) 0.40(3) -0.135(15) 0.215(19) -0.100(12)
O13 0.221(14) 0.041(7) 0.050(6) -0.005(5) 0.023(7) 0.010(8)
O14 0.171(14) 0.133(15) 0.161(14) 0.001(11) -0.015(11) -0.045(11)
O15 0.190(16) 0.142(16) 0.120(12) 0.016(10) 0.021(11) -0.038(12)
O16 0.059(7) 0.31(3) 0.227(17) 0.218(19) -0.009(9) -0.074(11)
O17 0.192(15) 0.091(12) 0.174(14) 0.003(10) -0.046(12) 0.052(11)
O18 0.237(19) 0.157(17) 0.28(2) -0.031(15) -0.170(17) 0.149(15)
O19 0.058(5) 0.019(4) 0.029(4) 0.017(3) 0.000(3) -0.010(3)
O20 0.171(14) 0.037(8) 0.28(2) -0.021(10) 0.029(13) 0.022(8)
O21 0.090(9) 0.136(14) 0.36(2) -0.191(16) 0.077(12) -0.046(9)
O22 0.31(2) 0.19(2) 0.076(10) -0.011(10) -0.002(12) -0.034(17)

_geom_special_details            
;
All s.u.'s (except the s.u. in the dihedral angle between two l.s. planes)
are estimated using the full covariance matrix. The cell s.u.'s are taken
into account individually in the estimation of s.u.'s in distances, angles
and torsion angles; correlations between s.u.'s in cell parameters are only
used when they are defined by crystal symmetry. An approximate (isotropic)
treatment of cell s.u.'s is used for estimating s.u.'s involving l.s.
planes.
;

loop_
_geom_bond_atom_site_label_1
_geom_bond_atom_site_label_2
_geom_bond_distance
_geom_bond_site_symmetry_2
_geom_bond_publ_flag
Ni1 N3 2.022(9) . ?
Ni1 N25 2.048(9) . ?
Ni1 N43 2.063(9) . ?
Ni1 N1 2.098(8) . ?
Ni1 N2 2.166(8) . ?
Ni1 N4 2.178(8) . ?
Ni2 N31 2.032(8) . ?
Ni2 N26 2.064(9) . ?
Ni2 N7 2.085(9) . ?
Ni2 N5 2.100(9) . ?
Ni2 N6 2.137(8) . ?
Ni2 N8 2.151(8) . ?
Ni3 N32 2.082(9) . ?
Ni3 N37 2.082(9) . ?
Ni3 N12 2.086(9) . ?
Ni3 N9 2.102(8) . ?
Ni3 N11 2.139(9) . ?
Ni3 N10 2.150(7) . ?
Ni4 N44 2.049(9) . ?
Ni4 N13 2.077(11) . ?
Ni4 N38 2.082(9) . ?
Ni4 N15 2.105(10) . ?
Ni4 N14 2.153(9) . ?
Ni4 N16 2.176(9) . ?
Ni5 N17 2.046(10) . ?
Ni5 N33 2.057(8) . ?
Ni5 N45 2.060(9) . ?
Ni5 N19 2.064(10) . ?
Ni5 N20 2.116(7) . ?
Ni5 N18 2.166(9) . ?
Ni6 N39 2.038(10) . ?
Ni6 N27 2.047(9) . ?
Ni6 N21 2.056(11) . ?
Ni6 N23 2.122(9) . ?
Ni6 N24 2.133(9) . ?
Ni6 N22 2.154(8) . ?
Ni7 N91 2.063(9) . ?
Ni7 N51 2.067(8) . ?
Ni7 N49 2.088(9) . ?
Ni7 N73 2.117(9) . ?
Ni7 N50 2.141(9) . ?
Ni7 N52 2.193(8) . ?
Ni8 N79 2.034(9) . ?
Ni8 N55 2.077(9) . ?
Ni8 N53 2.100(9) . ?
Ni8 N74 2.104(10) . ?
Ni8 N56 2.113(9) . ?
Ni8 N54 2.164(9) . ?
Ni9 N57 2.039(8) . ?
Ni9 N59 2.069(8) . ?
Ni9 N80 2.092(9) . ?
Ni9 N85 2.109(9) . ?
Ni9 N60 2.118(8) . ?
Ni9 N58 2.156(8) . ?
Ni10 N63 2.052(9) . ?
Ni10 N61 2.089(8) . ?
Ni10 N86 2.094(8) . ?
Ni10 N92 2.105(8) . ?
Ni10 N64 2.145(7) . ?
Ni10 N62 2.165(8) . ?
Ni11 N65 2.045(10) . ?
Ni11 N81 2.065(8) . ?
Ni11 N93 2.074(9) . ?
Ni11 N67 2.114(9) . ?
Ni11 N68 2.127(9) . ?
Ni11 N66 2.158(8) . ?
Ni12 N87 2.052(9) . ?
Ni12 N75 2.061(8) . ?
Ni12 N69 2.108(9) . ?
Ni12 N71 2.112(8) . ?
Ni12 N72 2.146(8) . ?
Ni12 N70 2.187(9) . ?
Ni13 N111 2.027(11) . ?
Ni13 N105 2.066(11) . ?
Ni13 N99 2.104(13) . ?
Ni13 N97 2.106(15) . ?
Ni13 N98 2.147(11) . ?
Ni13 N100 2.237(14) . ?
Ni14 N106 1.997(11) . ?
Ni14 N101 2.050(11) . ?
Ni14 N112 2.056(12) . ?
Ni14 N103 2.058(13) . ?
Ni14 N102 2.160(11) . ?
Ni14 N104 2.171(10) . ?
Fe1 C222 1.915(9) . ?
Fe1 C219 1.959(8) . ?
Fe1 C221 1.962(8) . ?
Fe1 C218 1.968(8) . ?
Fe1 C220 1.969(9) . ?
Fe1 C217 1.982(12) . ?
Fe2 C225 1.930(8) . ?
Fe2 C224 1.940(7) . ?
Fe2 C228 1.961(8) . ?
Fe2 C226 1.964(7) . ?
Fe2 C227 1.977(8) . ?
Fe2 C223 1.980(7) . ?
Fe3 C234 1.891(11) . ?
Fe3 C231 1.914(10) . ?
Fe3 C233 1.917(11) . ?
Fe3 C230 1.934(11) . ?
Fe3 C232 1.943(11) . ?
Fe3 C229 2.020(12) . ?
Fe4 C237 1.901(10) . ?
Fe4 C236 1.960(10) . ?
Fe4 C235 1.962(11) . ?
Fe4 C240 1.962(9) . ?
Fe4 C239 1.974(10) . ?
Fe4 C238 2.003(10) . ?
Fe5 C459 1.926(9) . ?
Fe5 C458 1.950(9) . ?
Fe5 C457 1.967(9) . ?
Fe5 C462 1.973(9) . ?
Fe5 C461 1.978(10) . ?
Fe5 C460 1.981(10) . ?
Fe6 C464 1.921(8) . ?
Fe6 C466 1.940(10) . ?
Fe6 C465 1.944(9) . ?
Fe6 C463 1.948(9) . ?
Fe6 C468 1.963(11) . ?
Fe6 C467 1.980(9) . ?
Fe7 C474 1.935(9) . ?
Fe7 C469 1.947(9) . ?
Fe7 C470 1.948(8) . ?
Fe7 C471 1.948(9) . ?
Fe7 C473 1.970(8) . ?
Fe7 C472 1.989(10) . ?
Fe8 C480 1.936(8) . ?
Fe8 C476 1.940(7) . ?
Fe8 C477 1.956(8) . ?
Fe8 C478 1.968(8) . ?
Fe8 C475 1.973(8) . ?
Fe8 C479 1.976(8) . ?
Fe9 C554 1.850(17) . ?
Fe9 C555 1.888(16) . ?
Fe9 C556 1.943(15) . ?
Fe9 C558 1.97(2) . ?
Fe9 C553 1.984(18) . ?
Fe9 C557 1.99(2) . ?
Fe10 C560 1.903(15) . ?
Fe10 C564 1.919(15) . ?
Fe10 C561 1.951(16) . ?
Fe10 C562 1.955(13) . ?
Fe10 C563 2.006(15) . ?
Fe10 C559 2.008(15) . ?
C1 N1 1.278(11) . ?
C1 C2 1.406(11) . ?
C1 H1 0.9500 . ?
C2 C3 1.399(11) . ?
C2 H2 0.9500 . ?
C3 C4 1.392(11) . ?
C3 H3 0.9500 . ?
C4 C5 1.375(11) . ?
C4 H4 0.9500 . ?
C5 N1 1.372(12) . ?
C5 C6 1.443(12) . ?
C6 N2 1.294(13) . ?
C6 H5 0.9500 . ?
C7 N2 1.455(12) . ?
C7 C8 1.474(13) . ?
C7 C9 1.571(14) . ?
C7 H6 1.0000 . ?
C8 H7 0.9800 . ?
C8 H8 0.9800 . ?
C8 H9 0.9800 . ?
C9 C10 1.370(12) . ?
C9 C18 1.403(11) . ?
C10 C11 1.378(12) . ?
C10 H10 0.9500 . ?
C11 C12 1.383(13) . ?
C11 H11 0.9500 . ?
C12 C13 1.428(12) . ?
C12 H12 0.9500 . ?
C13 C14 1.401(13) . ?
C13 C18 1.404(11) . ?
C14 C15 1.371(13) . ?
C14 H13 0.9500 . ?
C15 C16 1.382(13) . ?
C15 H14 0.9500 . ?
C16 C17 1.369(13) . ?
C16 H15 0.9500 . ?
C17 C18 1.414(11) . ?
C17 H16 0.9500 . ?
C19 C20 1.339(16) . ?
C19 N3 1.355(13) . ?
C19 H17 0.9500 . ?
C20 C21 1.475(18) . ?
C20 H18 0.9500 . ?
C21 C22 1.406(16) . ?
C21 H19 0.9500 . ?
C22 C23 1.315(14) . ?
C22 H20 0.9500 . ?
C23 N3 1.428(13) . ?
C23 C24 1.476(15) . ?
C24 N4 1.279(13) . ?
C24 H21 0.9500 . ?
C25 N4 1.457(12) . ?
C25 C27 1.501(13) . ?
C25 C26 1.549(13) . ?
C25 H22 1.0000 . ?
C26 H23 0.9800 . ?
C26 H24 0.9800 . ?
C26 H25 0.9800 . ?
C27 C28 1.340(12) . ?
C27 C36 1.460(11) . ?
C28 C29 1.409(13) . ?
C28 H26 0.9500 . ?
C29 C30 1.341(13) . ?
C29 H27 0.9500 . ?
C30 C31 1.386(12) . ?
C30 H28 0.9500 . ?
C31 C32 1.390(12) . ?
C31 C36 1.418(12) . ?
C32 C33 1.324(13) . ?
C32 H29 0.9500 . ?
C33 C34 1.430(13) . ?
C33 H30 0.9500 . ?
C34 C35 1.343(12) . ?
C34 H31 0.9500 . ?
C35 C36 1.408(11) . ?
C35 H32 0.9500 . ?
C37 N5 1.324(13) . ?
C37 C38 1.439(16) . ?
C37 H33 0.9500 . ?
C38 C39 1.337(15) . ?
C38 H34 0.9500 . ?
C39 C40 1.397(15) . ?
C39 H35 0.9500 . ?
C40 C41 1.412(14) . ?
C40 H36 0.9500 . ?
C41 N5 1.266(12) . ?
C41 C42 1.509(16) . ?
C42 N6 1.297(13) . ?
C42 H37 0.9500 . ?
C43 C44 1.443(13) . ?
C43 N6 1.495(12) . ?
C43 C45 1.546(12) . ?
C43 H38 1.0000 . ?
C44 H39 0.9800 . ?
C44 H40 0.9800 . ?
C44 H41 0.9800 . ?
C45 C46 1.361(11) . ?
C45 C54 1.461(12) . ?
C46 C47 1.404(12) . ?
C46 H42 0.9500 . ?
C47 C48 1.343(14) . ?
C47 H43 0.9500 . ?
C48 C49 1.407(13) . ?
C48 H44 0.9500 . ?
C49 C50 1.416(13) . ?
C49 C54 1.417(11) . ?
C50 C51 1.338(15) . ?
C50 H45 0.9500 . ?
C51 C52 1.417(15) . ?
C51 H46 0.9500 . ?
C52 C53 1.359(14) . ?
C52 H47 0.9500 . ?
C53 C54 1.396(13) . ?
C53 H48 0.9500 . ?
C55 N7 1.302(13) . ?
C55 C56 1.386(15) . ?
C55 H49 0.9500 . ?
C56 C57 1.340(15) . ?
C56 H50 0.9500 . ?
C57 C58 1.416(15) . ?
C57 H51 0.9500 . ?
C58 C59 1.378(14) . ?
C58 H52 0.9500 . ?
C59 N7 1.347(12) . ?
C59 C60 1.483(15) . ?
C60 N8 1.284(13) . ?
C60 H53 0.9500 . ?
C61 C62 1.499(13) . ?
C61 N8 1.509(14) . ?
C61 C63 1.516(13) . ?
C61 H54 1.0000 . ?
C62 H55 0.9800 . ?
C62 H56 0.9800 . ?
C62 H57 0.9800 . ?
C63 C64 1.333(10) . ?
C63 C72 1.440(10) . ?
C64 C65 1.417(11) . ?
C64 H58 0.9500 . ?
C65 C66 1.380(11) . ?
C65 H59 0.9500 . ?
C66 C67 1.382(11) . ?
C66 H60 0.9500 . ?
C67 C68 1.401(11) . ?
C67 C72 1.402(11) . ?
C68 C69 1.370(12) . ?
C68 H61 0.9500 . ?
C69 C70 1.420(12) . ?
C69 H62 0.9500 . ?
C70 C71 1.381(11) . ?
C70 H63 0.9500 . ?
C71 C72 1.408(10) . ?
C71 H64 0.9500 . ?
C73 N9 1.305(13) . ?
C73 C74 1.492(16) . ?
C73 H65 0.9500 . ?
C74 C75 1.325(17) . ?
C74 H66 0.9500 . ?
C75 C76 1.313(16) . ?
C75 H67 0.9500 . ?
C76 C77 1.421(16) . ?
C76 H68 0.9500 . ?
C77 N9 1.304(14) . ?
C77 C78 1.469(15) . ?
C78 N10 1.300(11) . ?
C78 H69 0.9500 . ?
C79 N10 1.375(12) . ?
C79 C80 1.516(14) . ?
C79 C81 1.532(13) . ?
C79 H70 1.0000 . ?
C80 H71 0.9800 . ?
C80 H72 0.9800 . ?
C80 H73 0.9800 . ?
C81 C82 1.354(11) . ?
C81 C90 1.459(11) . ?
C82 C83 1.384(11) . ?
C82 H74 0.9500 . ?
C83 C84 1.376(12) . ?
C83 H75 0.9500 . ?
C84 C85 1.409(12) . ?
C84 H76 0.9500 . ?
C85 C86 1.421(12) . ?
C85 C90 1.426(11) . ?
C86 C87 1.365(13) . ?
C86 H77 0.9500 . ?
C87 C88 1.441(12) . ?
C87 H78 0.9500 . ?
C88 C89 1.359(11) . ?
C88 H79 0.9500 . ?
C89 C90 1.422(11) . ?
C89 H80 0.9500 . ?
C91 N12 1.323(13) . ?
C91 C92 1.379(14) . ?
C91 H81 0.9500 . ?
C92 C93 1.385(16) . ?
C92 H82 0.9500 . ?
C93 C94 1.449(15) . ?
C93 H83 0.9500 . ?
C94 C95 1.405(14) . ?
C94 H84 0.9500 . ?
C95 N12 1.335(13) . ?
C95 C96 1.508(15) . ?
C96 N11 1.245(13) . ?
C96 H85 0.9500 . ?
C97 N11 1.447(13) . ?
C97 C99 1.510(14) . ?
C97 C98 1.573(14) . ?
C97 H86 1.0000 . ?
C98 H87 0.9800 . ?
C98 H88 0.9800 . ?
C98 H89 0.9800 . ?
C99 C100 1.344(11) . ?
C99 C108 1.450(11) . ?
C100 C101 1.403(11) . ?
C100 H90 0.9500 . ?
C101 C102 1.380(11) . ?
C101 H91 0.9500 . ?
C102 C103 1.400(11) . ?
C102 H92 0.9500 . ?
C103 C104 1.418(12) . ?
C103 C108 1.426(11) . ?
C104 C105 1.353(13) . ?
C104 H93 0.9500 . ?
C105 C106 1.427(12) . ?
C105 H94 0.9500 . ?
C106 C107 1.377(11) . ?
C106 H95 0.9500 . ?
C107 C108 1.402(11) . ?
C107 H96 0.9500 . ?
C109 N13 1.341(18) . ?
C109 C110 1.440(19) . ?
C109 H97 0.9500 . ?
C110 C111 1.37(2) . ?
C110 H98 0.9500 . ?
C111 C112 1.39(2) . ?
C111 H99 0.9500 . ?
C112 C113 1.403(19) . ?
C112 H100 0.9500 . ?
C113 N13 1.364(15) . ?
C113 C114 1.507(17) . ?
C114 N14 1.220(13) . ?
C115 N14 1.455(16) . ?
C115 C117 1.497(17) . ?
C115 C116 1.553(17) . ?
C115 H101 1.0000 . ?
C116 H102 0.9800 . ?
C116 H103 0.9800 . ?
C116 H104 0.9800 . ?
C117 C118 1.338(12) . ?
C117 C126 1.442(12) . ?
C118 C119 1.419(12) . ?
C118 H105 0.9500 . ?
C119 C120 1.357(12) . ?
C119 H106 0.9500 . ?
C120 C121 1.373(12) . ?
C120 H107 0.9500 . ?
C121 C126 1.401(11) . ?
C121 C122 1.427(13) . ?
C122 C123 1.398(12) . ?
C122 H108 0.9500 . ?
C123 C124 1.419(12) . ?
C123 H109 0.9500 . ?
C124 C125 1.337(12) . ?
C124 H110 0.9500 . ?
C125 C126 1.410(11) . ?
C125 H111 0.9500 . ?
C127 N15 1.286(14) . ?
C127 C128 1.374(16) . ?
C127 H112 0.9500 . ?
C128 C129 1.310(17) . ?
C128 H113 0.9500 . ?
C129 C130 1.379(16) . ?
C129 H114 0.9500 . ?
C130 C131 1.345(15) . ?
C130 H115 0.9500 . ?
C131 N15 1.344(13) . ?
C131 C132 1.498(15) . ?
C132 N16 1.226(13) . ?
C132 H116 0.9500 . ?
C133 C135 1.460(18) . ?
C133 C134 1.470(17) . ?
C133 N16 1.486(15) . ?
C133 H117 1.0000 . ?
C134 H118 0.9800 . ?
C134 H119 0.9800 . ?
C134 H120 0.9800 . ?
C135 C136 1.338(12) . ?
C135 C144 1.455(11) . ?
C136 C137 1.386(12) . ?
C136 H121 0.9500 . ?
C137 C138 1.357(11) . ?
C137 H122 0.9500 . ?
C138 C139 1.403(11) . ?
C138 H123 0.9500 . ?
C139 C144 1.396(12) . ?
C139 C140 1.450(12) . ?
C140 C141 1.381(13) . ?
C140 H124 0.9500 . ?
C141 C142 1.419(13) . ?
C141 H125 0.9500 . ?
C142 C143 1.356(12) . ?
C142 H126 0.9500 . ?
C143 C144 1.420(12) . ?
C143 H127 0.9500 . ?
C145 N17 1.330(13) . ?
C145 C146 1.355(16) . ?
C145 H128 0.9500 . ?
C146 C147 1.402(18) . ?
C146 H129 0.9500 . ?
C147 C148 1.428(15) . ?
C147 H130 0.9500 . ?
C148 C149 1.379(17) . ?
C148 H131 0.9500 . ?
C149 C150 1.351(16) . ?
C149 N17 1.408(14) . ?
C150 N18 1.294(14) . ?
C150 H132 0.9500 . ?
C151 C153 1.467(15) . ?
C151 N18 1.509(15) . ?
C151 C152 1.572(16) . ?
C151 H133 1.0000 . ?
C152 H134 0.9800 . ?
C152 H135 0.9800 . ?
C152 H136 0.9800 . ?
C153 C154 1.348(11) . ?
C153 C162 1.458(11) . ?
C154 C155 1.413(12) . ?
C154 H137 0.9500 . ?
C155 C156 1.371(13) . ?
C155 H138 0.9500 . ?
C156 C157 1.400(12) . ?
C156 H139 0.9500 . ?
C157 C162 1.398(11) . ?
C157 C158 1.410(13) . ?
C158 C159 1.372(14) . ?
C158 H140 0.9500 . ?
C159 C160 1.394(14) . ?
C159 H141 0.9500 . ?
C159 H142 1.5(3) . ?
C160 C161 1.377(12) . ?
C160 H142 0.9(3) . ?
C161 C162 1.420(11) . ?
C161 H143 0.9500 . ?
C163 N19 1.319(14) . ?
C163 C164 1.414(14) . ?
C163 H144 0.9500 . ?
C164 C165 1.361(13) . ?
C164 H145 0.9500 . ?
C165 C166 1.389(14) . ?
C165 H146 0.9500 . ?
C166 C167 1.369(14) . ?
C166 H147 0.9500 . ?
C167 N19 1.366(13) . ?
C167 C168 1.477(16) . ?
C168 N20 1.328(12) . ?
C169 N20 1.487(11) . ?
C169 C170 1.535(15) . ?
C169 C171 1.540(14) . ?
C169 H148 1.0000 . ?
C170 H149 0.9800 . ?
C170 H150 0.9800 . ?
C170 H151 0.9800 . ?
C171 C172 1.332(9) . ?
C171 C180 1.456(9) . ?
C172 C173 1.412(10) . ?
C172 H152 0.9500 . ?
C173 C174 1.349(10) . ?
C173 H153 0.9500 . ?
C174 C175 1.400(9) . ?
C174 H154 0.9500 . ?
C175 C176 1.406(10) . ?
C175 C180 1.411(9) . ?
C176 C177 1.375(10) . ?
C176 H155 0.9500 . ?
C177 C178 1.410(10) . ?
C177 H156 0.9500 . ?
C178 C179 1.366(10) . ?
C178 H157 0.9500 . ?
C179 C180 1.417(9) . ?
C179 H158 0.9500 . ?
C181 N21 1.370(13) . ?
C181 C182 1.404(11) . ?
C181 H159 0.9500 . ?
C182 C183 1.405(11) . ?
C182 H160 0.9500 . ?
C183 C184 1.398(11) . ?
C183 H161 0.9500 . ?
C184 C185 1.379(11) . ?
C184 H162 0.9500 . ?
C185 N21 1.332(13) . ?
C185 C186 1.463(13) . ?
C186 N22 1.232(13) . ?
C186 H163 0.9500 . ?
C187 N22 1.458(13) . ?
C187 C188 1.565(14) . ?
C187 C189 1.596(14) . ?
C187 H164 1.0000 . ?
C188 H165 0.9800 . ?
C188 H166 0.9800 . ?
C188 H167 0.9800 . ?
C189 C190 1.342(12) . ?
C189 C198 1.428(11) . ?
C190 C191 1.420(12) . ?
C190 H168 0.9500 . ?
C191 C192 1.323(12) . ?
C191 H169 0.9500 . ?
C192 C193 1.363(12) . ?
C192 H170 0.9500 . ?
C193 C198 1.428(11) . ?
C193 C194 1.430(11) . ?
C194 C195 1.340(13) . ?
C194 H171 0.9500 . ?
C195 C196 1.396(14) . ?
C195 H172 0.9500 . ?
C196 C197 1.356(13) . ?
C196 H173 0.9500 . ?
C197 C198 1.406(11) . ?
C197 H174 0.9500 . ?
C199 N23 1.317(13) . ?
C199 C200 1.415(13) . ?
C199 H175 0.9500 . ?
C200 C201 1.401(14) . ?
C200 H176 0.9500 . ?
C201 C202 1.353(14) . ?
C201 H177 0.9500 . ?
C202 C203 1.359(14) . ?
C202 H178 0.9500 . ?
C203 N23 1.281(13) . ?
C203 C204 1.463(16) . ?
C204 N24 1.313(14) . ?
C204 H179 0.9500 . ?
C205 C207 1.500(14) . ?
C205 N24 1.517(14) . ?
C205 C206 1.571(16) . ?
C205 H180 1.0000 . ?
C206 H181 0.9800 . ?
C206 H182 0.9800 . ?
C206 H183 0.9800 . ?
C207 C208 1.361(11) . ?
C207 C216 1.451(10) . ?
C208 C209 1.374(11) . ?
C208 H184 0.9500 . ?
C209 C210 1.352(12) . ?
C209 H185 0.9500 . ?
C210 C211 1.408(11) . ?
C210 H186 0.9500 . ?
C211 C212 1.404(12) . ?
C211 C216 1.408(11) . ?
C212 C213 1.371(13) . ?
C212 H187 0.9500 . ?
C213 C214 1.446(13) . ?
C213 H188 0.9500 . ?
C214 C215 1.347(12) . ?
C214 H189 0.9500 . ?
C215 C216 1.405(11) . ?
C215 H190 0.9500 . ?
C217 N25 1.125(12) . ?
C218 N26 1.114(10) . ?
C219 N27 1.169(11) . ?
C220 N28 1.083(11) . ?
C221 N29 1.148(11) . ?
C222 N30 1.199(12) . ?
C223 N31 1.137(9) . ?
C224 N32 1.141(10) . ?
C225 N33 1.180(10) . ?
C226 N34 1.143(11) . ?
C227 N35 1.156(11) . ?
C228 N36 1.144(11) . ?
C229 N37 1.071(12) . ?
C230 N38 1.145(12) . ?
C231 N39 1.184(12) . ?
C232 N40 1.145(14) . ?
C233 N41 1.250(13) . ?
C234 N42 1.223(13) . ?
C235 N43 1.139(12) . ?
C236 N44 1.158(12) . ?
C237 N45 1.193(11) . ?
C238 N46 1.131(12) . ?
C239 N47 1.126(12) . ?
C240 N48 1.105(12) . ?
C241 N49 1.287(12) . ?
C241 C242 1.384(12) . ?
C241 H191 0.9500 . ?
C242 C243 1.368(12) . ?
C242 H192 0.9500 . ?
C243 C244 1.380(11) . ?
C243 H193 0.9500 . ?
C244 C245 1.322(12) . ?
C244 H194 0.9500 . ?
C245 N49 1.419(13) . ?
C245 C246 1.433(14) . ?
C246 N50 1.336(14) . ?
C246 H195 0.9500 . ?
C247 N50 1.420(13) . ?
C247 C249 1.481(14) . ?
C247 C248 1.556(14) . ?
C247 H196 1.0000 . ?
C248 H197 0.9800 . ?
C248 H198 0.9800 . ?
C248 H199 0.9800 . ?
C249 C250 1.362(10) . ?
C249 C258 1.422(10) . ?
C250 C251 1.429(11) . ?
C250 H200 0.9500 . ?
C251 C252 1.338(11) . ?
C251 H201 0.9500 . ?
C252 C253 1.424(11) . ?
C252 H202 0.9500 . ?
C253 C254 1.391(11) . ?
C253 C258 1.453(11) . ?
C254 C255 1.346(12) . ?
C254 H203 0.9500 . ?
C255 C256 1.412(11) . ?
C255 H204 0.9500 . ?
C256 C257 1.346(11) . ?
C256 H205 0.9500 . ?
C257 C258 1.398(10) . ?
C257 H206 0.9500 . ?
C259 N51 1.311(11) . ?
C259 C260 1.402(9) . ?
C259 H207 0.9500 . ?
C260 C261 1.364(10) . ?
C260 H208 0.9500 . ?
C261 C262 1.387(9) . ?
C261 H209 0.9500 . ?
C262 C263 1.358(9) . ?
C262 H210 0.9500 . ?
C263 N51 1.402(11) . ?
C263 C264 1.453(13) . ?
C264 N52 1.211(12) . ?
C264 H211 0.9500 . ?
C265 N52 1.439(13) . ?
C265 C267 1.495(14) . ?
C265 C266 1.540(15) . ?
C265 H212 1.0000 . ?
C266 H213 0.9800 . ?
C266 H214 0.9800 . ?
C266 H215 0.9800 . ?
C267 C268 1.382(10) . ?
C267 C276 1.406(9) . ?
C268 C269 1.434(11) . ?
C268 H216 0.9500 . ?
C269 C270 1.337(11) . ?
C269 H217 0.9500 . ?
C270 C271 1.429(10) . ?
C270 H218 0.9500 . ?
C271 C272 1.405(10) . ?
C271 C276 1.450(10) . ?
C272 C273 1.351(12) . ?
C272 H219 0.9500 . ?
C273 C274 1.400(12) . ?
C273 H220 0.9500 . ?
C274 C275 1.377(11) . ?
C274 H221 0.9500 . ?
C275 C276 1.407(10) . ?
C275 H222 0.9500 . ?
C277 N53 1.386(13) . ?
C277 C278 1.420(16) . ?
C277 H223 0.9500 . ?
C278 C279 1.353(17) . ?
C278 H224 0.9500 . ?
C279 C280 1.469(16) . ?
C279 H225 0.9500 . ?
C280 C281 1.405(15) . ?
C280 H226 0.9500 . ?
C281 N53 1.289(13) . ?
C281 C282 1.481(15) . ?
C282 N54 1.291(13) . ?
C282 H227 0.9500 . ?
C283 N54 1.490(13) . ?
C283 C285 1.501(14) . ?
C283 C284 1.513(16) . ?
C283 H228 1.0000 . ?
C284 H229 0.9800 . ?
C284 H230 0.9800 . ?
C284 H231 0.9800 . ?
C285 C286 1.352(10) . ?
C285 C294 1.397(9) . ?
C286 C287 1.442(10) . ?
C286 H232 0.9500 . ?
C287 C288 1.336(10) . ?
C287 H233 0.9500 . ?
C288 C289 1.428(10) . ?
C288 H234 0.9500 . ?
C289 C290 1.412(10) . ?
C289 C294 1.452(10) . ?
C290 C291 1.360(11) . ?
C290 H235 0.9500 . ?
C291 C292 1.412(11) . ?
C291 H236 0.9500 . ?
C292 C293 1.367(10) . ?
C292 H237 0.9500 . ?
C293 C294 1.424(10) . ?
C293 H238 0.9500 . ?
C295 N55 1.332(13) . ?
C295 C296 1.379(12) . ?
C295 H239 0.9500 . ?
C296 C297 1.396(12) . ?
C296 H240 0.9500 . ?
C297 C298 1.366(12) . ?
C297 H241 0.9500 . ?
C298 C299 1.317(11) . ?
C298 H242 0.9500 . ?
C299 N55 1.443(13) . ?
C299 C300 1.500(14) . ?
C300 N56 1.207(13) . ?
C300 H243 0.9500 . ?
C301 C303 1.494(15) . ?
C301 C302 1.541(16) . ?
C301 N56 1.569(14) . ?
C301 H244 1.0000 . ?
C302 H245 0.9800 . ?
C302 H246 0.9800 . ?
C302 H247 0.9800 . ?
C303 C304 1.376(10) . ?
C303 C312 1.430(9) . ?
C304 C305 1.439(11) . ?
C304 H248 0.9500 . ?
C305 C306 1.318(11) . ?
C305 H249 0.9500 . ?
C306 C307 1.430(10) . ?
C306 H250 0.9500 . ?
C307 C308 1.415(10) . ?
C307 C312 1.431(10) . ?
C308 C309 1.359(11) . ?
C308 H251 0.9500 . ?
C309 C310 1.379(11) . ?
C309 H252 0.9500 . ?
C310 C311 1.398(10) . ?
C310 H253 0.9500 . ?
C311 C312 1.416(9) . ?
C311 H254 0.9500 . ?
C313 N57 1.334(12) . ?
C313 C314 1.397(9) . ?
C313 H255 0.9500 . ?
C314 C315 1.361(9) . ?
C314 H256 0.9500 . ?
C315 C316 1.386(8) . ?
C315 H257 0.9500 . ?
C316 C317 1.358(8) . ?
C316 H258 0.9500 . ?
C317 N57 1.398(11) . ?
C317 C318 1.496(13) . ?
C318 N58 1.308(12) . ?
C319 N58 1.459(13) . ?
C319 C321 1.537(13) . ?
C319 C320 1.544(14) . ?
C319 H260 1.0000 . ?
C320 H261 0.9800 . ?
C320 H262 0.9800 . ?
C320 H263 0.9800 . ?
C321 C322 1.371(9) . ?
C321 C330 1.406(9) . ?
C322 C323 1.426(10) . ?
C322 H264 0.9500 . ?
C323 C324 1.344(9) . ?
C323 H265 0.9500 . ?
C324 C325 1.411(10) . ?
C324 H266 0.9500 . ?
C325 C326 1.413(10) . ?
C325 C330 1.445(9) . ?
C326 C327 1.330(11) . ?
C326 H267 0.9500 . ?
C327 C328 1.408(11) . ?
C327 H268 0.9500 . ?
C328 C329 1.384(10) . ?
C328 H269 0.9500 . ?
C329 C330 1.407(9) . ?
C329 H270 0.9500 . ?
C331 N59 1.293(12) . ?
C331 C332 1.451(13) . ?
C331 H271 0.9500 . ?
C332 C333 1.288(14) . ?
C332 H272 0.9500 . ?
C333 C334 1.374(14) . ?
C333 H273 0.9500 . ?
C334 C335 1.431(13) . ?
C334 H274 0.9500 . ?
C335 N59 1.373(12) . ?
C335 C336 1.483(14) . ?
C336 N60 1.287(14) . ?
C336 H275 0.9500 . ?
C337 N60 1.476(13) . ?
C337 C338 1.539(16) . ?
C337 C339 1.552(12) . ?
C337 H276 1.0000 . ?
C338 H277 0.9800 . ?
C338 H278 0.9800 . ?
C338 H279 0.9800 . ?
C339 C340 1.362(10) . ?
C339 C348 1.395(9) . ?
C340 C341 1.439(10) . ?
C340 H280 0.9500 . ?
C341 C342 1.340(10) . ?
C341 H281 0.9500 . ?
C342 C343 1.433(9) . ?
C342 H282 0.9500 . ?
C343 C344 1.403(10) . ?
C343 C348 1.428(9) . ?
C344 C345 1.348(10) . ?
C344 H283 0.9500 . ?
C345 C346 1.395(10) . ?
C345 H284 0.9500 . ?
C346 C347 1.359(10) . ?
C346 H285 0.9500 . ?
C347 C348 1.424(9) . ?
C347 H286 0.9500 . ?
C349 N61 1.328(13) . ?
C349 C350 1.385(16) . ?
C349 H287 0.9500 . ?
C350 C351 1.322(16) . ?
C350 H288 0.9500 . ?
C351 C352 1.395(15) . ?
C351 H289 0.9500 . ?
C352 C353 1.381(14) . ?
C352 H290 0.9500 . ?
C353 N61 1.336(12) . ?
C353 C354 1.439(14) . ?
C354 N62 1.273(13) . ?
C354 H291 0.9500 . ?
C355 C356 1.482(13) . ?
C355 C357 1.496(12) . ?
C355 N62 1.508(12) . ?
C355 H292 1.0000 . ?
C356 H293 0.9800 . ?
C356 H294 0.9800 . ?
C356 H295 0.9800 . ?
C357 C358 1.363(9) . ?
C357 C366 1.419(9) . ?
C358 C359 1.438(10) . ?
C358 H296 0.9500 . ?
C359 C360 1.336(10) . ?
C359 H297 0.9500 . ?
C360 C361 1.424(10) . ?
C360 H298 0.9500 . ?
C361 C362 1.412(10) . ?
C361 C366 1.436(9) . ?
C362 C363 1.366(11) . ?
C362 H299 0.9500 . ?
C363 C364 1.368(11) . ?
C363 H300 0.9500 . ?
C364 C365 1.388(10) . ?
C364 H301 0.9500 . ?
C365 C366 1.418(9) . ?
C365 H302 0.9500 . ?
C367 N63 1.382(11) . ?
C367 C368 1.383(9) . ?
C367 H303 0.9500 . ?
C368 C369 1.354(9) . ?
C368 H304 0.9500 . ?
C369 C370 1.405(9) . ?
C369 H305 0.9500 . ?
C370 C371 1.372(9) . ?
C370 H306 0.9500 . ?
C371 N63 1.344(11) . ?
C371 C372 1.438(12) . ?
C372 N64 1.293(12) . ?
C372 H307 0.9500 . ?
C373 C374 1.492(14) . ?
C373 C375 1.501(13) . ?
C373 N64 1.520(12) . ?
C373 H308 1.0000 . ?
C374 H309 0.9800 . ?
C374 H310 0.9800 . ?
C374 H311 0.9800 . ?
C375 C376 1.365(10) . ?
C375 C384 1.419(9) . ?
C376 C377 1.437(10) . ?
C376 H312 0.9500 . ?
C377 C378 1.330(11) . ?
C377 H313 0.9500 . ?
C378 C379 1.416(10) . ?
C378 H314 0.9500 . ?
C379 C380 1.410(10) . ?
C379 C384 1.439(10) . ?
C380 C381 1.335(11) . ?
C380 H315 0.9500 . ?
C381 C382 1.384(11) . ?
C381 H316 0.9500 . ?
C382 C383 1.388(11) . ?
C382 H317 0.9500 . ?
C383 C384 1.401(10) . ?
C383 H318 0.9500 . ?
C385 N65 1.336(14) . ?
C385 C386 1.368(16) . ?
C385 H319 0.9500 . ?
C386 C387 1.365(16) . ?
C386 H320 0.9500 . ?
C387 C388 1.483(16) . ?
C387 H321 0.9500 . ?
C388 C389 1.319(16) . ?
C388 H322 0.9500 . ?
C389 N65 1.384(13) . ?
C389 C390 1.511(16) . ?
C390 N66 1.244(14) . ?
C390 H323 0.9500 . ?
C391 N66 1.475(14) . ?
C391 C393 1.521(14) . ?
C391 C392 1.572(14) . ?
C391 H324 1.0000 . ?
C392 H325 0.9800 . ?
C392 H326 0.9800 . ?
C392 H327 0.9800 . ?
C393 C394 1.372(9) . ?
C393 C402 1.415(9) . ?
C394 C395 1.419(10) . ?
C394 H328 0.9500 . ?
C395 C396 1.359(10) . ?
C395 H329 0.9500 . ?
C396 C397 1.385(10) . ?
C396 H330 0.9500 . ?
C397 C398 1.420(10) . ?
C397 C402 1.465(9) . ?
C398 C399 1.333(10) . ?
C398 H331 0.9500 . ?
C399 C400 1.422(11) . ?
C399 H332 0.9500 . ?
C400 C401 1.371(10) . ?
C400 H333 0.9500 . ?
C401 C402 1.416(9) . ?
C401 H334 0.9500 . ?
C403 N67 1.313(13) . ?
C403 C404 1.408(16) . ?
C403 H335 0.9500 . ?
C404 C405 1.344(16) . ?
C404 H336 0.9500 . ?
C405 C406 1.279(16) . ?
C405 H337 0.9500 . ?
C406 C407 1.466(15) . ?
C406 H338 0.9500 . ?
C407 N67 1.379(13) . ?
C407 C408 1.451(15) . ?
C408 N68 1.216(14) . ?
C408 H339 0.9500 . ?
C409 C410 1.452(15) . ?
C409 C411 1.513(13) . ?
C409 N68 1.591(12) . ?
C409 H340 1.0000 . ?
C410 H341 0.9800 . ?
C410 H342 0.9800 . ?
C410 H343 0.9800 . ?
C411 C412 1.380(10) . ?
C411 C420 1.408(10) . ?
C412 C413 1.410(11) . ?
C412 H344 0.9500 . ?
C413 C414 1.366(11) . ?
C413 H345 0.9500 . ?
C414 C415 1.413(10) . ?
C414 H346 0.9500 . ?
C415 C416 1.429(10) . ?
C415 C420 1.444(10) . ?
C416 C417 1.330(11) . ?
C416 H347 0.9500 . ?
C417 C418 1.395(11) . ?
C417 H348 0.9500 . ?
C418 C419 1.374(10) . ?
C418 H349 0.9500 . ?
C419 C420 1.413(9) . ?
C419 H350 0.9500 . ?
C421 N69 1.346(12) . ?
C421 C422 1.357(13) . ?
C421 H351 0.9500 . ?
C422 C423 1.427(16) . ?
C422 H352 0.9500 . ?
C423 C424 1.433(16) . ?
C423 H353 0.9500 . ?
C424 C425 1.363(14) . ?
C424 H354 0.9500 . ?
C425 N69 1.356(13) . ?
C425 C426 1.452(15) . ?
C426 N70 1.206(13) . ?
C426 H355 0.9500 . ?
C427 N70 1.495(13) . ?
C427 C428 1.569(15) . ?
C427 C429 1.571(13) . ?
C427 H356 1.0000 . ?
C428 H357 0.9800 . ?
C428 H358 0.9800 . ?
C428 H359 0.9800 . ?
C429 C430 1.356(10) . ?
C429 C438 1.414(9) . ?
C430 C431 1.440(10) . ?
C430 H360 0.9500 . ?
C431 C432 1.348(10) . ?
C431 H361 0.9500 . ?
C432 C433 1.420(10) . ?
C432 H362 0.9500 . ?
C433 C434 1.429(10) . ?
C433 C438 1.446(10) . ?
C434 C435 1.337(11) . ?
C434 H363 0.9500 . ?
C435 C436 1.402(11) . ?
C435 H364 0.9500 . ?
C436 C437 1.367(10) . ?
C436 H365 0.9500 . ?
C437 C438 1.425(9) . ?
C437 H366 0.9500 . ?
C439 N71 1.339(13) . ?
C439 C440 1.340(14) . ?
C439 H367 0.9500 . ?
C440 C441 1.448(16) . ?
C440 H368 0.9500 . ?
C441 C442 1.329(15) . ?
C441 H369 0.9500 . ?
C442 C443 1.415(14) . ?
C442 H370 0.9500 . ?
C443 N71 1.342(13) . ?
C443 C444 1.424(14) . ?
C444 N72 1.273(11) . ?
C444 H371 0.9500 . ?
C445 N72 1.494(12) . ?
C445 C447 1.495(12) . ?
C445 C446 1.503(14) . ?
C445 H372 1.0000 . ?
C446 H373 0.9800 . ?
C446 H374 0.9800 . ?
C446 H375 0.9800 . ?
C447 C448 1.378(8) . ?
C447 C456 1.424(8) . ?
C448 C449 1.448(9) . ?
C448 H376 0.9500 . ?
C449 C450 1.320(9) . ?
C449 H377 0.9500 . ?
C450 C451 1.423(8) . ?
C450 H378 0.9500 . ?
C451 C452 1.419(8) . ?
C451 C456 1.429(8) . ?
C452 C453 1.358(9) . ?
C452 H379 0.9500 . ?
C453 C454 1.379(9) . ?
C453 H380 0.9500 . ?
C454 C455 1.390(9) . ?
C454 H381 0.9500 . ?
C455 C456 1.419(8) . ?
C455 H382 0.9500 . ?
C457 N73 1.113(11) . ?
C458 N74 1.107(11) . ?
C459 N75 1.144(11) . ?
C460 N76 1.089(12) . ?
C461 N77 1.125(12) . ?
C462 N78 1.188(12) . ?
C463 N79 1.161(12) . ?
C464 N80 1.145(11) . ?
C465 N81 1.127(11) . ?
C466 N82 1.131(12) . ?
C467 N83 1.103(11) . ?
C468 N84 1.153(13) . ?
C469 N85 1.116(11) . ?
C470 N86 1.117(10) . ?
C471 N87 1.173(11) . ?
C472 N88 1.096(11) . ?
C473 N89 1.130(10) . ?
C474 N90 1.152(12) . ?
C475 N91 1.109(11) . ?
C476 N92 1.123(10) . ?
C477 N93 1.128(10) . ?
C478 N94 1.166(11) . ?
C479 N95 1.120(11) . ?
C480 N96 1.180(11) . ?
C481 C482 1.21(3) . ?
C481 N97 1.52(2) . ?
C481 H383 0.9500 . ?
C482 C483 1.40(4) . ?
C482 H384 0.9500 . ?
C483 C484 1.36(2) . ?
C483 H385 0.9500 . ?
C484 C485 1.39(2) . ?
C484 H386 0.9500 . ?
C485 N97 1.303(18) . ?
C485 C486 1.42(2) . ?
C486 N98 1.298(17) . ?
C486 H387 0.9500 . ?
C487 N98 1.496(17) . ?
C487 C488 1.541(16) . ?
C487 C489 1.546(15) . ?
C487 H388 1.0000 . ?
C488 H389 0.9800 . ?
C488 H390 0.9800 . ?
C488 H391 0.9800 . ?
C489 C498 1.378(10) . ?
C489 C490 1.385(10) . ?
C490 C491 1.427(10) . ?
C490 H392 0.9500 . ?
C491 C492 1.329(11) . ?
C491 H393 0.9500 . ?
C492 C493 1.405(10) . ?
C492 H394 0.9500 . ?
C493 C494 1.417(10) . ?
C493 C498 1.453(10) . ?
C494 C495 1.328(12) . ?
C494 H395 0.9500 . ?
C495 C496 1.412(12) . ?
C495 H396 0.9500 . ?
C496 C497 1.357(11) . ?
C496 H397 0.9500 . ?
C497 C498 1.434(10) . ?
C497 H398 0.9500 . ?
C499 N99 1.372(18) . ?
C499 C500 1.44(2) . ?
C499 H399 0.9500 . ?
C500 C501 1.32(2) . ?
C500 H400 0.9500 . ?
C501 C502 1.41(3) . ?
C501 H401 0.9500 . ?
C502 C503 1.39(2) . ?
C502 H402 0.9500 . ?
C503 N99 1.35(2) . ?
C503 C504 1.52(2) . ?
C504 N100 1.30(2) . ?
C504 H403 0.9500 . ?
C505 N100 1.362(17) . ?
C505 C507 1.534(18) . ?
C505 C506 1.55(2) . ?
C505 H404 1.0000 . ?
C506 H405 0.9800 . ?
C506 H406 0.9800 . ?
C506 H407 0.9800 . ?
C507 C508 1.381(12) . ?
C507 C516 1.413(10) . ?
C508 C509 1.421(12) . ?
C508 H408 0.9500 . ?
C509 C510 1.339(12) . ?
C509 H409 0.9500 . ?
C510 C511 1.427(11) . ?
C510 H410 0.9500 . ?
C511 C512 1.416(11) . ?
C511 C516 1.442(11) . ?
C512 C513 1.368(12) . ?
C512 H411 0.9500 . ?
C513 C514 1.395(12) . ?
C513 H412 0.9500 . ?
C514 C515 1.379(11) . ?
C514 H413 0.9500 . ?
C515 C516 1.413(11) . ?
C515 H414 0.9500 . ?
C517 C518 1.33(2) . ?
C517 N101 1.415(16) . ?
C517 H415 0.9500 . ?
C518 C519 1.29(2) . ?
C518 H416 0.9500 . ?
C519 C520 1.46(2) . ?
C519 H417 0.9500 . ?
C520 C521 1.36(2) . ?
C520 H259 0.8919 . ?
C521 N101 1.312(17) . ?
C521 C522 1.416(19) . ?
C522 N102 1.290(16) . ?
C522 H418 0.9500 . ?
C523 C525 1.476(17) . ?
C523 C524 1.495(17) . ?
C523 N102 1.547(16) . ?
C523 H419 1.0000 . ?
C524 H420 0.9800 . ?
C524 H421 0.9800 . ?
C524 H422 0.9800 . ?
C525 C526 1.368(10) . ?
C525 C534 1.399(10) . ?
C526 C527 1.422(11) . ?
C526 H423 0.9500 . ?
C527 C528 1.352(11) . ?
C527 H424 0.9500 . ?
C528 C529 1.419(10) . ?
C528 H425 0.9500 . ?
C529 C530 1.392(10) . ?
C529 C534 1.451(10) . ?
C530 C531 1.334(11) . ?
C530 H426 0.9500 . ?
C531 C532 1.401(11) . ?
C531 H427 0.9500 . ?
C532 C533 1.378(10) . ?
C532 H428 0.9500 . ?
C533 C534 1.418(10) . ?
C533 H429 0.9500 . ?
C535 N103 1.378(17) . ?
C535 C536 1.45(2) . ?
C535 H430 0.9500 . ?
C536 C537 1.31(3) . ?
C536 H431 0.9500 . ?
C537 C538 1.34(2) . ?
C537 H432 0.9500 . ?
C538 C539 1.374(19) . ?
C538 H433 0.9500 . ?
C539 N103 1.364(16) . ?
C539 C540 1.490(19) . ?
C540 N104 1.266(16) . ?
C540 H434 0.9500 . ?
C541 N104 1.440(15) . ?
C541 C543 1.486(16) . ?
C541 C542 1.500(17) . ?
C541 H435 1.0000 . ?
C542 H436 0.9800 . ?
C542 H437 0.9800 . ?
C542 H438 0.9800 . ?
C543 C544 1.373(11) . ?
C543 C552 1.412(10) . ?
C544 C545 1.427(11) . ?
C544 H439 0.9500 . ?
C545 C546 1.337(11) . ?
C545 H440 0.9500 . ?
C546 C547 1.434(11) . ?
C546 H441 0.9500 . ?
C547 C548 1.403(11) . ?
C547 C552 1.424(10) . ?
C548 C549 1.361(12) . ?
C548 H442 0.9500 . ?
C549 C550 1.415(12) . ?
C549 H443 0.9500 . ?
C550 C551 1.354(10) . ?
C550 H444 0.9500 . ?
C551 C552 1.428(9) . ?
C551 H445 0.9500 . ?
C553 N105 1.079(18) . ?
C554 N106 1.281(17) . ?
C555 N107 1.253(18) . ?
C556 N108 1.114(19) . ?
C557 N109 1.17(2) . ?
C558 N110 1.05(2) . ?
C559 N111 1.138(15) . ?
C560 N112 1.193(17) . ?
C561 N113 1.127(18) . ?
C562 N114 1.106(17) . ?
C563 N115 1.081(16) . ?
C564 N116 1.159(16) . ?
C565 C566 1.48(2) . ?
C565 N117 1.515(19) . ?
C567 N117 1.57(3) . ?
C567 C569 1.60(4) . ?
C568 N117 1.60(3) . ?
C568 C569 1.62(4) . ?
C570 C571 1.49(2) . ?
C570 N117 1.524(19) . ?
C572 N117 1.23(2) . ?
C572 C573 1.47(3) . ?
C574 N118 1.544(19) . ?
C574 C575 1.62(3) . ?
C576 C577 1.48(2) . ?
C576 N118 1.507(18) . ?
C578 N118 1.37(2) . ?
C578 C579 1.46(2) . ?
C580 C582 1.47(3) . ?
C580 N118 1.54(2) . ?
C581 N118 1.42(3) . ?
C581 C582 1.60(3) . ?

loop_
_geom_angle_atom_site_label_1
_geom_angle_atom_site_label_2
_geom_angle_atom_site_label_3
_geom_angle
_geom_angle_site_symmetry_1
_geom_angle_site_symmetry_3
_geom_angle_publ_flag
N3 Ni1 N25 95.2(4) . . ?
N3 Ni1 N43 93.8(3) . . ?
N25 Ni1 N43 94.6(3) . . ?
N3 Ni1 N1 169.4(3) . . ?
N25 Ni1 N1 90.0(4) . . ?
N43 Ni1 N1 94.9(3) . . ?
N3 Ni1 N2 92.3(3) . . ?
N25 Ni1 N2 83.7(3) . . ?
N43 Ni1 N2 173.8(3) . . ?
N1 Ni1 N2 79.1(3) . . ?
N3 Ni1 N4 78.9(3) . . ?
N25 Ni1 N4 172.8(4) . . ?
N43 Ni1 N4 81.9(3) . . ?
N1 Ni1 N4 96.5(3) . . ?
N2 Ni1 N4 100.4(3) . . ?
N31 Ni2 N26 95.2(3) . . ?
N31 Ni2 N7 94.8(3) . . ?
N26 Ni2 N7 93.5(3) . . ?
N31 Ni2 N5 93.9(3) . . ?
N26 Ni2 N5 95.3(3) . . ?
N7 Ni2 N5 167.0(3) . . ?
N31 Ni2 N6 83.1(3) . . ?
N26 Ni2 N6 172.7(3) . . ?
N7 Ni2 N6 93.7(3) . . ?
N5 Ni2 N6 77.8(3) . . ?
N31 Ni2 N8 172.2(3) . . ?
N26 Ni2 N8 81.9(3) . . ?
N7 Ni2 N8 78.3(4) . . ?
N5 Ni2 N8 93.5(3) . . ?
N6 Ni2 N8 100.7(3) . . ?
N32 Ni3 N37 95.5(3) . . ?
N32 Ni3 N12 93.2(4) . . ?
N37 Ni3 N12 93.7(3) . . ?
N32 Ni3 N9 92.8(3) . . ?
N37 Ni3 N9 94.4(4) . . ?
N12 Ni3 N9 169.4(4) . . ?
N32 Ni3 N11 172.7(3) . . ?
N37 Ni3 N11 81.6(4) . . ?
N12 Ni3 N11 80.3(3) . . ?
N9 Ni3 N11 94.1(3) . . ?
N32 Ni3 N10 81.0(3) . . ?
N37 Ni3 N10 173.0(3) . . ?
N12 Ni3 N10 92.5(3) . . ?
N9 Ni3 N10 79.8(3) . . ?
N11 Ni3 N10 102.6(3) . . ?
N44 Ni4 N13 93.0(4) . . ?
N44 Ni4 N38 93.8(4) . . ?
N13 Ni4 N38 95.1(4) . . ?
N44 Ni4 N15 94.6(4) . . ?
N13 Ni4 N15 168.1(4) . . ?
N38 Ni4 N15 93.5(4) . . ?
N44 Ni4 N14 172.2(4) . . ?
N13 Ni4 N14 79.9(4) . . ?
N38 Ni4 N14 83.8(3) . . ?
N15 Ni4 N14 92.9(4) . . ?
N44 Ni4 N16 85.2(3) . . ?
N13 Ni4 N16 92.7(4) . . ?
N38 Ni4 N16 172.2(4) . . ?
N15 Ni4 N16 79.0(4) . . ?
N14 Ni4 N16 98.2(3) . . ?
N17 Ni5 N33 94.2(3) . . ?
N17 Ni5 N45 93.1(4) . . ?
N33 Ni5 N45 92.7(3) . . ?
N17 Ni5 N19 168.8(3) . . ?
N33 Ni5 N19 93.5(3) . . ?
N45 Ni5 N19 94.9(4) . . ?
N17 Ni5 N20 93.1(4) . . ?
N33 Ni5 N20 83.4(3) . . ?
N45 Ni5 N20 172.9(4) . . ?
N19 Ni5 N20 79.5(3) . . ?
N17 Ni5 N18 79.2(4) . . ?
N33 Ni5 N18 172.6(4) . . ?
N45 Ni5 N18 84.7(3) . . ?
N19 Ni5 N18 93.6(3) . . ?
N20 Ni5 N18 100.0(3) . . ?
N39 Ni6 N27 93.3(3) . . ?
N39 Ni6 N21 94.2(4) . . ?
N27 Ni6 N21 96.0(3) . . ?
N39 Ni6 N23 93.4(3) . . ?
N27 Ni6 N23 94.8(3) . . ?
N21 Ni6 N23 166.4(3) . . ?
N39 Ni6 N24 83.8(3) . . ?
N27 Ni6 N24 171.2(4) . . ?
N21 Ni6 N24 92.5(4) . . ?
N23 Ni6 N24 77.1(4) . . ?
N39 Ni6 N22 170.9(3) . . ?
N27 Ni6 N22 83.4(3) . . ?
N21 Ni6 N22 77.8(3) . . ?
N23 Ni6 N22 95.3(3) . . ?
N24 Ni6 N22 100.7(3) . . ?
N91 Ni7 N51 94.4(3) . . ?
N91 Ni7 N49 92.7(4) . . ?
N51 Ni7 N49 168.8(3) . . ?
N91 Ni7 N73 96.2(3) . . ?
N51 Ni7 N73 93.4(4) . . ?
N49 Ni7 N73 94.4(3) . . ?
N91 Ni7 N50 172.6(4) . . ?
N51 Ni7 N50 92.9(3) . . ?
N49 Ni7 N50 80.2(4) . . ?
N73 Ni7 N50 82.3(3) . . ?
N91 Ni7 N52 83.0(3) . . ?
N51 Ni7 N52 78.9(3) . . ?
N49 Ni7 N52 93.4(3) . . ?
N73 Ni7 N52 172.2(4) . . ?
N50 Ni7 N52 99.5(3) . . ?
N79 Ni8 N55 94.7(3) . . ?
N79 Ni8 N53 93.2(3) . . ?
N55 Ni8 N53 168.5(3) . . ?
N79 Ni8 N74 94.2(3) . . ?
N55 Ni8 N74 94.5(4) . . ?
N53 Ni8 N74 93.3(4) . . ?
N79 Ni8 N56 172.1(4) . . ?
N55 Ni8 N56 78.3(4) . . ?
N53 Ni8 N56 94.3(3) . . ?
N74 Ni8 N56 83.0(3) . . ?
N79 Ni8 N54 84.0(3) . . ?
N55 Ni8 N54 94.6(3) . . ?
N53 Ni8 N54 77.9(4) . . ?
N74 Ni8 N54 170.9(4) . . ?
N56 Ni8 N54 100.0(3) . . ?
N57 Ni9 N59 169.9(3) . . ?
N57 Ni9 N80 91.5(3) . . ?
N59 Ni9 N80 95.2(3) . . ?
N57 Ni9 N85 91.7(3) . . ?
N59 Ni9 N85 95.2(3) . . ?
N80 Ni9 N85 95.5(3) . . ?
N57 Ni9 N60 92.3(3) . . ?
N59 Ni9 N60 81.4(3) . . ?
N80 Ni9 N60 175.6(3) . . ?
N85 Ni9 N60 82.2(3) . . ?
N57 Ni9 N58 80.0(3) . . ?
N59 Ni9 N58 93.5(3) . . ?
N80 Ni9 N58 81.8(3) . . ?
N85 Ni9 N58 171.1(3) . . ?
N60 Ni9 N58 101.0(3) . . ?
N63 Ni10 N61 167.4(3) . . ?
N63 Ni10 N86 95.9(3) . . ?
N61 Ni10 N86 93.2(3) . . ?
N63 Ni10 N92 93.8(3) . . ?
N61 Ni10 N92 94.3(3) . . ?
N86 Ni10 N92 94.7(3) . . ?
N63 Ni10 N64 77.9(3) . . ?
N61 Ni10 N64 93.3(3) . . ?
N86 Ni10 N64 173.5(3) . . ?
N92 Ni10 N64 83.8(3) . . ?
N63 Ni10 N62 94.5(3) . . ?
N61 Ni10 N62 78.0(3) . . ?
N86 Ni10 N62 82.4(3) . . ?
N92 Ni10 N62 171.5(3) . . ?
N64 Ni10 N62 100.0(3) . . ?
N65 Ni11 N81 94.5(4) . . ?
N65 Ni11 N93 95.1(4) . . ?
N81 Ni11 N93 93.6(3) . . ?
N65 Ni11 N67 167.8(3) . . ?
N81 Ni11 N67 92.7(4) . . ?
N93 Ni11 N67 94.3(3) . . ?
N65 Ni11 N68 92.7(3) . . ?
N81 Ni11 N68 83.7(3) . . ?
N93 Ni11 N68 171.9(4) . . ?
N67 Ni11 N68 78.3(3) . . ?
N65 Ni11 N66 78.0(4) . . ?
N81 Ni11 N66 170.6(4) . . ?
N93 Ni11 N66 81.6(3) . . ?
N67 Ni11 N66 95.8(3) . . ?
N68 Ni11 N66 102.0(3) . . ?
N87 Ni12 N75 95.9(3) . . ?
N87 Ni12 N69 93.3(3) . . ?
N75 Ni12 N69 92.5(3) . . ?
N87 Ni12 N71 96.3(3) . . ?
N75 Ni12 N71 94.4(3) . . ?
N69 Ni12 N71 167.5(3) . . ?
N87 Ni12 N72 83.2(3) . . ?
N75 Ni12 N72 173.3(3) . . ?
N69 Ni12 N72 94.2(3) . . ?
N71 Ni12 N72 79.0(3) . . ?
N87 Ni12 N70 170.4(4) . . ?
N75 Ni12 N70 82.1(3) . . ?
N69 Ni12 N70 77.4(3) . . ?
N71 Ni12 N70 93.2(3) . . ?
N72 Ni12 N70 99.8(3) . . ?
N111 Ni13 N105 93.1(4) . . ?
N111 Ni13 N99 92.7(5) . . ?
N105 Ni13 N99 93.1(5) . . ?
N111 Ni13 N97 86.5(4) . . ?
N105 Ni13 N97 92.3(5) . . ?
N99 Ni13 N97 174.6(4) . . ?
N111 Ni13 N98 92.3(4) . . ?
N105 Ni13 N98 166.7(5) . . ?
N99 Ni13 N98 98.8(5) . . ?
N97 Ni13 N98 75.8(5) . . ?
N111 Ni13 N100 170.6(5) . . ?
N105 Ni13 N100 90.2(5) . . ?
N99 Ni13 N100 78.3(5) . . ?
N97 Ni13 N100 102.2(5) . . ?
N98 Ni13 N100 86.4(4) . . ?
N106 Ni14 N101 91.2(4) . . ?
N106 Ni14 N112 91.8(4) . . ?
N101 Ni14 N112 93.9(5) . . ?
N106 Ni14 N103 93.7(5) . . ?
N101 Ni14 N103 174.9(4) . . ?
N112 Ni14 N103 87.2(4) . . ?
N106 Ni14 N102 88.7(4) . . ?
N101 Ni14 N102 76.4(5) . . ?
N112 Ni14 N102 170.3(5) . . ?
N103 Ni14 N102 102.5(4) . . ?
N106 Ni14 N104 170.0(4) . . ?
N101 Ni14 N104 96.4(4) . . ?
N112 Ni14 N104 94.1(3) . . ?
N103 Ni14 N104 78.6(5) . . ?
N102 Ni14 N104 86.8(4) . . ?
C222 Fe1 C219 177.3(4) . . ?
C222 Fe1 C221 93.0(4) . . ?
C219 Fe1 C221 84.5(4) . . ?
C222 Fe1 C218 88.3(4) . . ?
C219 Fe1 C218 94.2(4) . . ?
C221 Fe1 C218 178.6(4) . . ?
C222 Fe1 C220 91.0(4) . . ?
C219 Fe1 C220 90.1(4) . . ?
C221 Fe1 C220 93.6(4) . . ?
C218 Fe1 C220 85.8(3) . . ?
C222 Fe1 C217 86.3(4) . . ?
C219 Fe1 C217 92.6(4) . . ?
C221 Fe1 C217 88.5(4) . . ?
C218 Fe1 C217 92.1(4) . . ?
C220 Fe1 C217 176.7(4) . . ?
C225 Fe2 C224 94.3(3) . . ?
C225 Fe2 C228 177.7(4) . . ?
C224 Fe2 C228 87.7(3) . . ?
C225 Fe2 C226 88.2(3) . . ?
C224 Fe2 C226 87.3(3) . . ?
C228 Fe2 C226 90.8(3) . . ?
C225 Fe2 C227 86.9(3) . . ?
C224 Fe2 C227 178.3(3) . . ?
C228 Fe2 C227 91.1(3) . . ?
C226 Fe2 C227 94.0(3) . . ?
C225 Fe2 C223 92.4(3) . . ?
C224 Fe2 C223 93.5(3) . . ?
C228 Fe2 C223 88.6(3) . . ?
C226 Fe2 C223 178.9(4) . . ?
C227 Fe2 C223 85.1(3) . . ?
C234 Fe3 C231 179.3(4) . . ?
C234 Fe3 C233 91.0(4) . . ?
C231 Fe3 C233 88.3(4) . . ?
C234 Fe3 C230 87.5(4) . . ?
C231 Fe3 C230 93.2(4) . . ?
C233 Fe3 C230 175.3(5) . . ?
C234 Fe3 C232 93.7(5) . . ?
C231 Fe3 C232 86.6(4) . . ?
C233 Fe3 C232 88.1(5) . . ?
C230 Fe3 C232 87.6(4) . . ?
C234 Fe3 C229 86.6(4) . . ?
C231 Fe3 C229 93.2(4) . . ?
C233 Fe3 C229 92.2(5) . . ?
C230 Fe3 C229 92.1(4) . . ?
C232 Fe3 C229 179.6(5) . . ?
C237 Fe4 C236 95.3(4) . . ?
C237 Fe4 C235 92.9(4) . . ?
C236 Fe4 C235 92.5(4) . . ?
C237 Fe4 C240 176.1(4) . . ?
C236 Fe4 C240 88.2(4) . . ?
C235 Fe4 C240 88.6(4) . . ?
C237 Fe4 C239 85.5(4) . . ?
C236 Fe4 C239 178.8(4) . . ?
C235 Fe4 C239 86.5(4) . . ?
C240 Fe4 C239 91.0(4) . . ?
C237 Fe4 C238 88.9(4) . . ?
C236 Fe4 C238 84.7(4) . . ?
C235 Fe4 C238 176.8(4) . . ?
C240 Fe4 C238 89.8(4) . . ?
C239 Fe4 C238 96.2(4) . . ?
C459 Fe5 C458 92.1(4) . . ?
C459 Fe5 C457 92.1(4) . . ?
C458 Fe5 C457 92.5(4) . . ?
C459 Fe5 C462 179.3(4) . . ?
C458 Fe5 C462 88.6(4) . . ?
C457 Fe5 C462 87.7(4) . . ?
C459 Fe5 C461 88.4(4) . . ?
C458 Fe5 C461 177.2(4) . . ?
C457 Fe5 C461 90.2(4) . . ?
C462 Fe5 C461 90.9(4) . . ?
C459 Fe5 C460 89.1(4) . . ?
C458 Fe5 C460 85.7(4) . . ?
C457 Fe5 C460 177.8(5) . . ?
C462 Fe5 C460 91.1(4) . . ?
C461 Fe5 C460 91.6(4) . . ?
C464 Fe6 C466 87.5(4) . . ?
C464 Fe6 C465 92.2(4) . . ?
C466 Fe6 C465 87.3(4) . . ?
C464 Fe6 C463 93.5(4) . . ?
C466 Fe6 C463 178.0(4) . . ?
C465 Fe6 C463 94.4(4) . . ?
C464 Fe6 C468 88.5(4) . . ?
C466 Fe6 C468 90.5(4) . . ?
C465 Fe6 C468 177.7(5) . . ?
C463 Fe6 C468 87.8(4) . . ?
C464 Fe6 C467 177.0(4) . . ?
C466 Fe6 C467 95.2(4) . . ?
C465 Fe6 C467 86.5(4) . . ?
C463 Fe6 C467 83.9(4) . . ?
C468 Fe6 C467 92.9(4) . . ?
C474 Fe7 C469 86.7(4) . . ?
C474 Fe7 C470 89.3(4) . . ?
C469 Fe7 C470 92.8(4) . . ?
C474 Fe7 C471 176.1(4) . . ?
C469 Fe7 C471 93.7(4) . . ?
C470 Fe7 C471 94.5(4) . . ?
C474 Fe7 C473 91.5(4) . . ?
C469 Fe7 C473 89.6(4) . . ?
C470 Fe7 C473 177.5(4) . . ?
C471 Fe7 C473 84.6(4) . . ?
C474 Fe7 C472 89.5(4) . . ?
C469 Fe7 C472 175.8(4) . . ?
C470 Fe7 C472 85.5(4) . . ?
C471 Fe7 C472 90.2(4) . . ?
C473 Fe7 C472 92.1(4) . . ?
C480 Fe8 C476 88.8(3) . . ?
C480 Fe8 C477 177.5(4) . . ?
C476 Fe8 C477 93.2(3) . . ?
C480 Fe8 C478 90.9(4) . . ?
C476 Fe8 C478 87.7(3) . . ?
C477 Fe8 C478 87.6(3) . . ?
C480 Fe8 C475 88.2(4) . . ?
C476 Fe8 C475 94.0(3) . . ?
C477 Fe8 C475 93.2(3) . . ?
C478 Fe8 C475 178.1(4) . . ?
C480 Fe8 C479 92.9(3) . . ?
C476 Fe8 C479 177.6(4) . . ?
C477 Fe8 C479 85.2(3) . . ?
C478 Fe8 C479 94.0(4) . . ?
C475 Fe8 C479 84.3(4) . . ?
C554 Fe9 C555 90.6(6) . . ?
C554 Fe9 C556 178.3(9) . . ?
C555 Fe9 C556 88.6(8) . . ?
C554 Fe9 C558 90.4(7) . . ?
C555 Fe9 C558 91.6(7) . . ?
C556 Fe9 C558 91.2(10) . . ?
C554 Fe9 C553 88.4(5) . . ?
C555 Fe9 C553 179.0(7) . . ?
C556 Fe9 C553 92.4(7) . . ?
C558 Fe9 C553 88.4(8) . . ?
C554 Fe9 C557 90.5(7) . . ?
C555 Fe9 C557 90.6(7) . . ?
C556 Fe9 C557 87.9(9) . . ?
C558 Fe9 C557 177.6(7) . . ?
C553 Fe9 C557 89.4(7) . . ?
C560 Fe10 C564 87.1(7) . . ?
C560 Fe10 C561 88.5(6) . . ?
C564 Fe10 C561 91.5(6) . . ?
C560 Fe10 C562 176.3(6) . . ?
C564 Fe10 C562 90.5(7) . . ?
C561 Fe10 C562 88.9(6) . . ?
C560 Fe10 C563 94.0(6) . . ?
C564 Fe10 C563 178.4(6) . . ?
C561 Fe10 C563 87.3(6) . . ?
C562 Fe10 C563 88.4(6) . . ?
C560 Fe10 C559 91.3(5) . . ?
C564 Fe10 C559 87.5(5) . . ?
C561 Fe10 C559 179.0(6) . . ?
C562 Fe10 C559 91.4(5) . . ?
C563 Fe10 C559 93.7(6) . . ?
N1 C1 C2 124.6(8) . . ?
N1 C1 H1 117.7 . . ?
C2 C1 H1 117.7 . . ?
C3 C2 C1 117.3(8) . . ?
C3 C2 H2 121.4 . . ?
C1 C2 H2 121.4 . . ?
C4 C3 C2 118.2(8) . . ?
C4 C3 H3 120.9 . . ?
C2 C3 H3 120.9 . . ?
C5 C4 C3 119.7(8) . . ?
C5 C4 H4 120.2 . . ?
C3 C4 H4 120.2 . . ?
N1 C5 C4 121.3(8) . . ?
N1 C5 C6 116.9(9) . . ?
C4 C5 C6 121.1(9) . . ?
N2 C6 C5 119.5(9) . . ?
N2 C6 H5 120.2 . . ?
C5 C6 H5 120.2 . . ?
N2 C7 C8 120.2(9) . . ?
N2 C7 C9 109.6(8) . . ?
C8 C7 C9 108.4(8) . . ?
N2 C7 H6 105.9 . . ?
C8 C7 H6 105.9 . . ?
C9 C7 H6 105.9 . . ?
C7 C8 H7 109.5 . . ?
C7 C8 H8 109.5 . . ?
H7 C8 H8 109.5 . . ?
C7 C8 H9 109.5 . . ?
H7 C8 H9 109.5 . . ?
H8 C8 H9 109.5 . . ?
C10 C9 C18 121.1(9) . . ?
C10 C9 C7 116.2(9) . . ?
C18 C9 C7 122.5(8) . . ?
C9 C10 C11 121.2(9) . . ?
C9 C10 H10 119.4 . . ?
C11 C10 H10 119.4 . . ?
C10 C11 C12 119.7(10) . . ?
C10 C11 H11 120.1 . . ?
C12 C11 H11 120.1 . . ?
C11 C12 C13 119.6(9) . . ?
C11 C12 H12 120.2 . . ?
C13 C12 H12 120.2 . . ?
C14 C13 C18 119.9(9) . . ?
C14 C13 C12 120.5(9) . . ?
C18 C13 C12 119.6(8) . . ?
C15 C14 C13 122.2(10) . . ?
C15 C14 H13 118.9 . . ?
C13 C14 H13 118.9 . . ?
C14 C15 C16 117.2(10) . . ?
C14 C15 H14 121.4 . . ?
C16 C15 H14 121.4 . . ?
C17 C16 C15 122.9(10) . . ?
C17 C16 H15 118.6 . . ?
C15 C16 H15 118.6 . . ?
C16 C17 C18 120.2(9) . . ?
C16 C17 H16 119.9 . . ?
C18 C17 H16 119.9 . . ?
C9 C18 C13 118.3(8) . . ?
C9 C18 C17 124.3(8) . . ?
C13 C18 C17 117.3(8) . . ?
C20 C19 N3 128.2(12) . . ?
C20 C19 H17 115.9 . . ?
N3 C19 H17 115.9 . . ?
C19 C20 C21 118.1(12) . . ?
C19 C20 H18 120.9 . . ?
C21 C20 H18 120.9 . . ?
C22 C21 C20 113.2(12) . . ?
C22 C21 H19 123.4 . . ?
C20 C21 H19 123.4 . . ?
C23 C22 C21 125.0(12) . . ?
C23 C22 H20 117.5 . . ?
C21 C22 H20 117.5 . . ?
C22 C23 N3 122.2(10) . . ?
C22 C23 C24 125.2(10) . . ?
N3 C23 C24 112.6(9) . . ?
N4 C24 C23 119.7(10) . . ?
N4 C24 H21 120.2 . . ?
C23 C24 H21 120.2 . . ?
N4 C25 C27 110.0(8) . . ?
N4 C25 C26 115.3(8) . . ?
C27 C25 C26 111.5(9) . . ?
N4 C25 H22 106.5 . . ?
C27 C25 H22 106.5 . . ?
C26 C25 H22 106.5 . . ?
C25 C26 H23 109.5 . . ?
C25 C26 H24 109.5 . . ?
H23 C26 H24 109.5 . . ?
C25 C26 H25 109.5 . . ?
H23 C26 H25 109.5 . . ?
H24 C26 H25 109.5 . . ?
C28 C27 C36 120.0(9) . . ?
C28 C27 C25 119.2(9) . . ?
C36 C27 C25 120.8(8) . . ?
C27 C28 C29 120.5(9) . . ?
C27 C28 H26 119.8 . . ?
C29 C28 H26 119.8 . . ?
C30 C29 C28 120.1(10) . . ?
C30 C29 H27 120.0 . . ?
C28 C29 H27 120.0 . . ?
C29 C30 C31 122.8(10) . . ?
C29 C30 H28 118.6 . . ?
C31 C30 H28 118.6 . . ?
C30 C31 C32 125.6(10) . . ?
C30 C31 C36 118.4(8) . . ?
C32 C31 C36 116.0(9) . . ?
C33 C32 C31 126.9(10) . . ?
C33 C32 H29 116.5 . . ?
C31 C32 H29 116.5 . . ?
C32 C33 C34 115.9(10) . . ?
C32 C33 H30 122.1 . . ?
C34 C33 H30 122.1 . . ?
C35 C34 C33 120.7(9) . . ?
C35 C34 H31 119.7 . . ?
C33 C34 H31 119.7 . . ?
C34 C35 C36 122.1(9) . . ?
C34 C35 H32 119.0 . . ?
C36 C35 H32 119.0 . . ?
C35 C36 C31 118.0(8) . . ?
C35 C36 C27 124.0(8) . . ?
C31 C36 C27 118.0(8) . . ?
N5 C37 C38 120.4(10) . . ?
N5 C37 H33 119.8 . . ?
C38 C37 H33 119.8 . . ?
C39 C38 C37 120.6(11) . . ?
C39 C38 H34 119.7 . . ?
C37 C38 H34 119.7 . . ?
C38 C39 C40 117.7(11) . . ?
C38 C39 H35 121.1 . . ?
C40 C39 H35 121.1 . . ?
C39 C40 C41 116.8(10) . . ?
C39 C40 H36 121.6 . . ?
C41 C40 H36 121.6 . . ?
N5 C41 C40 125.9(11) . . ?
N5 C41 C42 117.8(10) . . ?
C40 C41 C42 116.2(9) . . ?
N6 C42 C41 115.4(9) . . ?
N6 C42 H37 122.3 . . ?
C41 C42 H37 122.3 . . ?
C44 C43 N6 117.1(8) . . ?
C44 C43 C45 111.0(8) . . ?
N6 C43 C45 107.5(7) . . ?
C44 C43 H38 106.9 . . ?
N6 C43 H38 106.9 . . ?
C45 C43 H38 106.9 . . ?
C43 C44 H39 109.5 . . ?
C43 C44 H40 109.5 . . ?
H39 C44 H40 109.5 . . ?
C43 C44 H41 109.5 . . ?
H39 C44 H41 109.5 . . ?
H40 C44 H41 109.5 . . ?
C46 C45 C54 117.9(8) . . ?
C46 C45 C43 121.6(8) . . ?
C54 C45 C43 120.5(7) . . ?
C45 C46 C47 121.1(9) . . ?
C45 C46 H42 119.4 . . ?
C47 C46 H42 119.4 . . ?
C48 C47 C46 123.0(10) . . ?
C48 C47 H43 118.5 . . ?
C46 C47 H43 118.5 . . ?
C47 C48 C49 118.3(9) . . ?
C47 C48 H44 120.8 . . ?
C49 C48 H44 120.8 . . ?
C48 C49 C50 120.0(9) . . ?
C48 C49 C54 121.0(9) . . ?
C50 C49 C54 119.0(9) . . ?
C51 C50 C49 120.5(10) . . ?
C51 C50 H45 119.7 . . ?
C49 C50 H45 119.7 . . ?
C50 C51 C52 120.6(12) . . ?
C50 C51 H46 119.7 . . ?
C52 C51 H46 119.7 . . ?
C53 C52 C51 119.8(11) . . ?
C53 C52 H47 120.1 . . ?
C51 C52 H47 120.1 . . ?
C52 C53 C54 121.0(10) . . ?
C52 C53 H48 119.5 . . ?
C54 C53 H48 119.5 . . ?
C53 C54 C49 118.8(9) . . ?
C53 C54 C45 122.6(8) . . ?
C49 C54 C45 118.5(8) . . ?
N7 C55 C56 126.2(11) . . ?
N7 C55 H49 116.9 . . ?
C56 C55 H49 116.9 . . ?
C57 C56 C55 116.2(13) . . ?
C57 C56 H50 121.9 . . ?
C55 C56 H50 121.9 . . ?
C56 C57 C58 120.9(11) . . ?
C56 C57 H51 119.6 . . ?
C58 C57 H51 119.6 . . ?
C59 C58 C57 116.9(10) . . ?
C59 C58 H52 121.5 . . ?
C57 C58 H52 121.5 . . ?
N7 C59 C58 122.8(10) . . ?
N7 C59 C60 117.6(9) . . ?
C58 C59 C60 119.3(9) . . ?
N8 C60 C59 115.7(9) . . ?
N8 C60 H53 122.1 . . ?
C59 C60 H53 122.1 . . ?
C62 C61 N8 116.6(9) . . ?
C62 C61 C63 110.7(9) . . ?
N8 C61 C63 111.7(8) . . ?
C62 C61 H54 105.6 . . ?
N8 C61 H54 105.6 . . ?
C63 C61 H54 105.6 . . ?
C61 C62 H55 109.5 . . ?
C61 C62 H56 109.5 . . ?
H55 C62 H56 109.5 . . ?
C61 C62 H57 109.5 . . ?
H55 C62 H57 109.5 . . ?
H56 C62 H57 109.5 . . ?
C64 C63 C72 120.7(8) . . ?
C64 C63 C61 116.6(8) . . ?
C72 C63 C61 122.7(8) . . ?
C63 C64 C65 120.5(10) . . ?
C63 C64 H58 119.8 . . ?
C65 C64 H58 119.8 . . ?
C66 C65 C64 120.1(10) . . ?
C66 C65 H59 119.9 . . ?
C64 C65 H59 119.9 . . ?
C65 C66 C67 119.6(9) . . ?
C65 C66 H60 120.2 . . ?
C67 C66 H60 120.2 . . ?
C66 C67 C68 122.0(9) . . ?
C66 C67 C72 121.1(8) . . ?
C68 C67 C72 116.9(9) . . ?
C69 C68 C67 123.4(10) . . ?
C69 C68 H61 118.3 . . ?
C67 C68 H61 118.3 . . ?
C68 C69 C70 118.6(10) . . ?
C68 C69 H62 120.7 . . ?
C70 C69 H62 120.7 . . ?
C71 C70 C69 119.5(10) . . ?
C71 C70 H63 120.2 . . ?
C69 C70 H63 120.2 . . ?
C70 C71 C72 120.4(9) . . ?
C70 C71 H64 119.8 . . ?
C72 C71 H64 119.8 . . ?
C67 C72 C71 120.8(8) . . ?
C67 C72 C63 117.8(8) . . ?
C71 C72 C63 121.3(8) . . ?
N9 C73 C74 119.1(11) . . ?
N9 C73 H65 120.5 . . ?
C74 C73 H65 120.5 . . ?
C75 C74 C73 116.0(12) . . ?
C75 C74 H66 122.0 . . ?
C73 C74 H66 122.0 . . ?
C76 C75 C74 125.4(14) . . ?
C76 C75 H67 117.3 . . ?
C74 C75 H67 117.3 . . ?
C75 C76 C77 115.0(13) . . ?
C75 C76 H68 122.5 . . ?
C77 C76 H68 122.5 . . ?
N9 C77 C76 124.1(11) . . ?
N9 C77 C78 115.8(11) . . ?
C76 C77 C78 120.1(11) . . ?
N10 C78 C77 121.8(10) . . ?
N10 C78 H69 119.1 . . ?
C77 C78 H69 119.1 . . ?
N10 C79 C80 118.4(8) . . ?
N10 C79 C81 113.2(8) . . ?
C80 C79 C81 105.3(9) . . ?
N10 C79 H70 106.4 . . ?
C80 C79 H70 106.4 . . ?
C81 C79 H70 106.4 . . ?
C79 C80 H71 109.5 . . ?
C79 C80 H72 109.5 . . ?
H71 C80 H72 109.5 . . ?
C79 C80 H73 109.5 . . ?
H71 C80 H73 109.5 . . ?
H72 C80 H73 109.5 . . ?
C82 C81 C90 114.1(9) . . ?
C82 C81 C79 120.7(8) . . ?
C90 C81 C79 125.0(8) . . ?
C81 C82 C83 127.0(10) . . ?
C81 C82 H74 116.5 . . ?
C83 C82 H74 116.5 . . ?
C84 C83 C82 118.8(11) . . ?
C84 C83 H75 120.6 . . ?
C82 C83 H75 120.6 . . ?
C83 C84 C85 119.3(10) . . ?
C83 C84 H76 120.4 . . ?
C85 C84 H76 120.4 . . ?
C84 C85 C86 121.7(10) . . ?
C84 C85 C90 120.1(9) . . ?
C86 C85 C90 118.2(10) . . ?
C87 C86 C85 121.7(11) . . ?
C87 C86 H77 119.2 . . ?
C85 C86 H77 119.2 . . ?
C86 C87 C88 119.0(11) . . ?
C86 C87 H78 120.5 . . ?
C88 C87 H78 120.5 . . ?
C89 C88 C87 120.7(11) . . ?
C89 C88 H79 119.6 . . ?
C87 C88 H79 119.6 . . ?
C88 C89 C90 120.5(10) . . ?
C88 C89 H80 119.8 . . ?
C90 C89 H80 119.8 . . ?
C89 C90 C85 118.9(9) . . ?
C89 C90 C81 119.7(9) . . ?
C85 C90 C81 120.3(9) . . ?
N12 C91 C92 121.5(11) . . ?
N12 C91 H81 119.3 . . ?
C92 C91 H81 119.3 . . ?
C91 C92 C93 119.7(11) . . ?
C91 C92 H82 120.2 . . ?
C93 C92 H82 120.2 . . ?
C92 C93 C94 120.4(10) . . ?
C92 C93 H83 119.8 . . ?
C94 C93 H83 119.8 . . ?
C95 C94 C93 113.2(10) . . ?
C95 C94 H84 123.4 . . ?
C93 C94 H84 123.4 . . ?
N12 C95 C94 125.2(10) . . ?
N12 C95 C96 116.0(10) . . ?
C94 C95 C96 118.8(10) . . ?
N11 C96 C95 120.2(10) . . ?
N11 C96 H85 119.9 . . ?
C95 C96 H85 119.9 . . ?
N11 C97 C99 110.8(8) . . ?
N11 C97 C98 115.6(9) . . ?
C99 C97 C98 109.1(8) . . ?
N11 C97 H86 106.9 . . ?
C99 C97 H86 106.9 . . ?
C98 C97 H86 106.9 . . ?
C97 C98 H87 109.5 . . ?
C97 C98 H88 109.5 . . ?
H87 C98 H88 109.5 . . ?
C97 C98 H89 109.5 . . ?
H87 C98 H89 109.5 . . ?
H88 C98 H89 109.5 . . ?
C100 C99 C108 118.2(9) . . ?
C100 C99 C97 121.7(9) . . ?
C108 C99 C97 120.1(8) . . ?
C99 C100 C101 123.9(9) . . ?
C99 C100 H90 118.0 . . ?
C101 C100 H90 118.0 . . ?
C102 C101 C100 119.6(10) . . ?
C102 C101 H91 120.2 . . ?
C100 C101 H91 120.2 . . ?
C101 C102 C103 118.7(10) . . ?
C101 C102 H92 120.6 . . ?
C103 C102 H92 120.6 . . ?
C102 C103 C104 118.3(10) . . ?
C102 C103 C108 121.8(9) . . ?
C104 C103 C108 119.7(10) . . ?
C105 C104 C103 119.9(12) . . ?
C105 C104 H93 120.1 . . ?
C103 C104 H93 120.1 . . ?
C104 C105 C106 120.4(12) . . ?
C104 C105 H94 119.8 . . ?
C106 C105 H94 119.8 . . ?
C107 C106 C105 120.2(11) . . ?
C107 C106 H95 119.9 . . ?
C105 C106 H95 119.9 . . ?
C106 C107 C108 120.2(10) . . ?
C106 C107 H96 119.9 . . ?
C108 C107 H96 119.9 . . ?
C107 C108 C103 119.0(9) . . ?
C107 C108 C99 123.5(9) . . ?
C103 C108 C99 117.5(9) . . ?
N13 C109 C110 121.4(13) . . ?
N13 C109 H97 119.3 . . ?
C110 C109 H97 119.3 . . ?
C111 C110 C109 120.1(15) . . ?
C111 C110 H98 120.0 . . ?
C109 C110 H98 120.0 . . ?
C110 C111 C112 117.4(14) . . ?
C110 C111 H99 121.3 . . ?
C112 C111 H99 121.3 . . ?
C111 C112 C113 120.8(14) . . ?
C111 C112 H100 119.6 . . ?
C113 C112 H100 119.6 . . ?
N13 C113 C112 121.6(13) . . ?
N13 C113 C114 115.6(11) . . ?
C112 C113 C114 122.7(12) . . ?
N14 C114 C113 119.9(11) . . ?
N14 C115 C117 112.4(10) . . ?
N14 C115 C116 114.3(11) . . ?
C117 C115 C116 110.0(10) . . ?
N14 C115 H101 106.5 . . ?
C117 C115 H101 106.5 . . ?
C116 C115 H101 106.5 . . ?
C115 C116 H102 109.5 . . ?
C115 C116 H103 109.5 . . ?
H102 C116 H103 109.5 . . ?
C115 C116 H104 109.5 . . ?
H102 C116 H104 109.5 . . ?
H103 C116 H104 109.5 . . ?
C118 C117 C126 118.9(11) . . ?
C118 C117 C115 119.1(12) . . ?
C126 C117 C115 122.0(11) . . ?
C117 C118 C119 120.9(12) . . ?
C117 C118 H105 119.6 . . ?
C119 C118 H105 119.6 . . ?
C120 C119 C118 121.1(11) . . ?
C120 C119 H106 119.4 . . ?
C118 C119 H106 119.4 . . ?
C119 C120 C121 117.3(11) . . ?
C119 C120 H107 121.4 . . ?
C121 C120 H107 121.4 . . ?
C120 C121 C126 122.6(10) . . ?
C120 C121 C122 117.1(11) . . ?
C126 C121 C122 119.2(11) . . ?
C123 C122 C121 117.7(12) . . ?
C123 C122 H108 121.2 . . ?
C121 C122 H108 121.2 . . ?
C122 C123 C124 121.5(12) . . ?
C122 C123 H109 119.3 . . ?
C124 C123 H109 119.3 . . ?
C125 C124 C123 119.5(11) . . ?
C125 C124 H110 120.2 . . ?
C123 C124 H110 120.2 . . ?
C124 C125 C126 120.9(11) . . ?
C124 C125 H111 119.5 . . ?
C126 C125 H111 119.5 . . ?
C121 C126 C125 120.4(10) . . ?
C121 C126 C117 117.1(9) . . ?
C125 C126 C117 122.5(10) . . ?
N15 C127 C128 120.2(12) . . ?
N15 C127 H112 119.9 . . ?
C128 C127 H112 119.9 . . ?
C129 C128 C127 123.2(12) . . ?
C129 C128 H113 118.4 . . ?
C127 C128 H113 118.4 . . ?
C128 C129 C130 116.0(12) . . ?
C128 C129 H114 122.0 . . ?
C130 C129 H114 122.0 . . ?
C131 C130 C129 119.6(11) . . ?
C131 C130 H115 120.2 . . ?
C129 C130 H115 120.2 . . ?
N15 C131 C130 121.9(10) . . ?
N15 C131 C132 116.4(9) . . ?
C130 C131 C132 121.7(10) . . ?
N16 C132 C131 120.5(10) . . ?
N16 C132 H116 119.7 . . ?
C131 C132 H116 119.7 . . ?
C135 C133 C134 111.8(12) . . ?
C135 C133 N16 111.5(11) . . ?
C134 C133 N16 114.6(10) . . ?
C135 C133 H117 106.1 . . ?
C134 C133 H117 106.1 . . ?
N16 C133 H117 106.1 . . ?
C133 C134 H118 109.5 . . ?
C133 C134 H119 109.5 . . ?
H118 C134 H119 109.5 . . ?
C133 C134 H120 109.5 . . ?
H118 C134 H120 109.5 . . ?
H119 C134 H120 109.5 . . ?
C136 C135 C144 117.1(10) . . ?
C136 C135 C133 119.1(11) . . ?
C144 C135 C133 123.6(10) . . ?
C135 C136 C137 121.8(12) . . ?
C135 C136 H121 119.1 . . ?
C137 C136 H121 119.1 . . ?
C138 C137 C136 124.4(12) . . ?
C138 C137 H122 117.8 . . ?
C136 C137 H122 117.8 . . ?
C137 C138 C139 114.7(12) . . ?
C137 C138 H123 122.6 . . ?
C139 C138 H123 122.6 . . ?
C144 C139 C138 123.1(11) . . ?
C144 C139 C140 117.7(10) . . ?
C138 C139 C140 119.1(11) . . ?
C141 C140 C139 119.9(12) . . ?
C141 C140 H124 120.1 . . ?
C139 C140 H124 120.1 . . ?
C140 C141 C142 121.5(13) . . ?
C140 C141 H125 119.2 . . ?
C142 C141 H125 119.2 . . ?
C143 C142 C141 118.3(12) . . ?
C143 C142 H126 120.9 . . ?
C141 C142 H126 120.9 . . ?
C142 C143 C144 122.2(11) . . ?
C142 C143 H127 118.9 . . ?
C144 C143 H127 118.9 . . ?
C139 C144 C143 120.2(10) . . ?
C139 C144 C135 118.4(10) . . ?
C143 C144 C135 121.2(10) . . ?
N17 C145 C146 121.1(11) . . ?
N17 C145 H128 119.5 . . ?
C146 C145 H128 119.5 . . ?
C145 C146 C147 125.7(11) . . ?
C145 C146 H129 117.2 . . ?
C147 C146 H129 117.2 . . ?
C146 C147 C148 110.6(12) . . ?
C146 C147 H130 124.7 . . ?
C148 C147 H130 124.7 . . ?
C149 C148 C147 125.0(11) . . ?
C149 C148 H131 117.5 . . ?
C147 C148 H131 117.5 . . ?
C150 C149 C148 123.9(11) . . ?
C150 C149 N17 118.0(12) . . ?
C148 C149 N17 117.9(11) . . ?
N18 C150 C149 120.8(11) . . ?
N18 C150 H132 119.6 . . ?
C149 C150 H132 119.6 . . ?
C153 C151 N18 113.0(8) . . ?
C153 C151 C152 112.1(9) . . ?
N18 C151 C152 114.2(12) . . ?
C153 C151 H133 105.5 . . ?
N18 C151 H133 105.5 . . ?
C152 C151 H133 105.5 . . ?
C151 C152 H134 109.5 . . ?
C151 C152 H135 109.5 . . ?
H134 C152 H135 109.5 . . ?
C151 C152 H136 109.5 . . ?
H134 C152 H136 109.5 . . ?
H135 C152 H136 109.5 . . ?
C154 C153 C162 119.5(10) . . ?
C154 C153 C151 119.2(10) . . ?
C162 C153 C151 121.2(9) . . ?
C153 C154 C155 120.7(11) . . ?
C153 C154 H137 119.7 . . ?
C155 C154 H137 119.7 . . ?
C156 C155 C154 121.1(11) . . ?
C156 C155 H138 119.4 . . ?
C154 C155 H138 119.4 . . ?
C155 C156 C157 119.0(11) . . ?
C155 C156 H139 120.5 . . ?
C157 C156 H139 120.5 . . ?
C162 C157 C156 121.3(10) . . ?
C162 C157 C158 118.1(11) . . ?
C156 C157 C158 120.6(11) . . ?
C159 C158 C157 119.8(13) . . ?
C159 C158 H140 120.1 . . ?
C157 C158 H140 120.1 . . ?
C158 C159 C160 124.1(13) . . ?
C158 C159 H141 118.0 . . ?
C160 C159 H141 118.0 . . ?
C158 C159 H142 157(10) . . ?
C160 C159 H142 35(10) . . ?
H141 C159 H142 83.8 . . ?
C161 C160 C159 115.8(12) . . ?
C161 C160 H142 157(10) . . ?
C159 C160 H142 82(10) . . ?
C160 C161 C162 122.5(11) . . ?
C160 C161 H143 118.7 . . ?
C162 C161 H143 118.7 . . ?
C157 C162 C161 119.7(10) . . ?
C157 C162 C153 118.0(9) . . ?
C161 C162 C153 122.3(9) . . ?
N19 C163 C164 120.4(10) . . ?
N19 C163 H144 119.8 . . ?
C164 C163 H144 119.8 . . ?
C165 C164 C163 122.9(10) . . ?
C165 C164 H145 118.5 . . ?
C163 C164 H145 118.5 . . ?
C164 C165 C166 116.3(10) . . ?
C164 C165 H146 121.8 . . ?
C166 C165 H146 121.8 . . ?
C167 C166 C165 118.5(10) . . ?
C167 C166 H147 120.8 . . ?
C165 C166 H147 120.8 . . ?
N19 C167 C166 125.2(10) . . ?
N19 C167 C168 114.9(10) . . ?
C166 C167 C168 119.8(10) . . ?
N20 C168 C167 117.3(10) . . ?
N20 C169 C170 120.2(9) . . ?
N20 C169 C171 107.7(8) . . ?
C170 C169 C171 108.9(9) . . ?
N20 C169 H148 106.4 . . ?
C170 C169 H148 106.4 . . ?
C171 C169 H148 106.4 . . ?
C169 C170 H149 109.5 . . ?
C169 C170 H150 109.5 . . ?
H149 C170 H150 109.5 . . ?
C169 C170 H151 109.5 . . ?
H149 C170 H151 109.5 . . ?
H150 C170 H151 109.5 . . ?
C172 C171 C180 120.2(8) . . ?
C172 C171 C169 120.7(8) . . ?
C180 C171 C169 119.0(7) . . ?
C171 C172 C173 122.3(8) . . ?
C171 C172 H152 118.9 . . ?
C173 C172 H152 118.9 . . ?
C174 C173 C172 118.9(8) . . ?
C174 C173 H153 120.5 . . ?
C172 C173 H153 120.5 . . ?
C173 C174 C175 121.2(9) . . ?
C173 C174 H154 119.4 . . ?
C175 C174 H154 119.4 . . ?
C174 C175 C176 121.2(8) . . ?
C174 C175 C180 120.7(7) . . ?
C176 C175 C180 118.2(7) . . ?
C177 C176 C175 122.2(9) . . ?
C177 C176 H155 118.9 . . ?
C175 C176 H155 118.9 . . ?
C176 C177 C178 118.7(8) . . ?
C176 C177 H156 120.7 . . ?
C178 C177 H156 120.7 . . ?
C179 C178 C177 120.9(8) . . ?
C179 C178 H157 119.5 . . ?
C177 C178 H157 119.5 . . ?
C178 C179 C180 120.3(8) . . ?
C178 C179 H158 119.9 . . ?
C180 C179 H158 119.9 . . ?
C175 C180 C179 119.5(7) . . ?
C175 C180 C171 116.5(6) . . ?
C179 C180 C171 123.9(7) . . ?
N21 C181 C182 125.0(9) . . ?
N21 C181 H159 117.5 . . ?
C182 C181 H159 117.5 . . ?
C181 C182 C183 117.2(8) . . ?
C181 C182 H160 121.4 . . ?
C183 C182 H160 121.4 . . ?
C184 C183 C182 118.2(8) . . ?
C184 C183 H161 120.9 . . ?
C182 C183 H161 120.9 . . ?
C185 C184 C183 119.4(9) . . ?
C185 C184 H162 120.3 . . ?
C183 C184 H162 120.3 . . ?
N21 C185 C184 125.1(9) . . ?
N21 C185 C186 114.0(9) . . ?
C184 C185 C186 120.8(9) . . ?
N22 C186 C185 120.6(10) . . ?
N22 C186 H163 119.7 . . ?
C185 C186 H163 119.7 . . ?
N22 C187 C188 116.2(9) . . ?
N22 C187 C189 109.8(8) . . ?
C188 C187 C189 110.1(8) . . ?
N22 C187 H164 106.8 . . ?
C188 C187 H164 106.8 . . ?
C189 C187 H164 106.8 . . ?
C187 C188 H165 109.5 . . ?
C187 C188 H166 109.5 . . ?
H165 C188 H166 109.5 . . ?
C187 C188 H167 109.5 . . ?
H165 C188 H167 109.5 . . ?
H166 C188 H167 109.5 . . ?
C190 C189 C198 122.0(9) . . ?
C190 C189 C187 119.1(9) . . ?
C198 C189 C187 118.9(8) . . ?
C189 C190 C191 120.0(9) . . ?
C189 C190 H168 120.0 . . ?
C191 C190 H168 120.0 . . ?
C192 C191 C190 118.9(9) . . ?
C192 C191 H169 120.5 . . ?
C190 C191 H169 120.5 . . ?
C191 C192 C193 123.2(9) . . ?
C191 C192 H170 118.4 . . ?
C193 C192 H170 118.4 . . ?
C192 C193 C198 120.2(8) . . ?
C192 C193 C194 122.6(8) . . ?
C198 C193 C194 116.8(8) . . ?
C195 C194 C193 121.0(9) . . ?
C195 C194 H171 119.5 . . ?
C193 C194 H171 119.5 . . ?
C194 C195 C196 121.2(10) . . ?
C194 C195 H172 119.4 . . ?
C196 C195 H172 119.4 . . ?
C197 C196 C195 120.8(10) . . ?
C197 C196 H173 119.6 . . ?
C195 C196 H173 119.6 . . ?
C196 C197 C198 119.8(9) . . ?
C196 C197 H174 120.1 . . ?
C198 C197 H174 120.1 . . ?
C197 C198 C193 120.4(8) . . ?
C197 C198 C189 124.3(8) . . ?
C193 C198 C189 115.4(8) . . ?
N23 C199 C200 120.4(10) . . ?
N23 C199 H175 119.8 . . ?
C200 C199 H175 119.8 . . ?
C201 C200 C199 117.6(10) . . ?
C201 C200 H176 121.2 . . ?
C199 C200 H176 121.2 . . ?
C202 C201 C200 117.1(10) . . ?
C202 C201 H177 121.4 . . ?
C200 C201 H177 121.4 . . ?
C201 C202 C203 121.7(11) . . ?
C201 C202 H178 119.2 . . ?
C203 C202 H178 119.2 . . ?
N23 C203 C202 121.2(10) . . ?
N23 C203 C204 118.7(11) . . ?
C202 C203 C204 120.1(10) . . ?
N24 C204 C203 115.8(11) . . ?
N24 C204 H179 122.1 . . ?
C203 C204 H179 122.1 . . ?
C207 C205 N24 109.5(8) . . ?
C207 C205 C206 107.9(9) . . ?
N24 C205 C206 113.4(9) . . ?
C207 C205 H180 108.6 . . ?
N24 C205 H180 108.6 . . ?
C206 C205 H180 108.6 . . ?
C205 C206 H181 109.5 . . ?
C205 C206 H182 109.5 . . ?
H181 C206 H182 109.5 . . ?
C205 C206 H183 109.5 . . ?
H181 C206 H183 109.5 . . ?
H182 C206 H183 109.5 . . ?
C208 C207 C216 119.0(9) . . ?
C208 C207 C205 122.5(9) . . ?
C216 C207 C205 118.6(8) . . ?
C207 C208 C209 122.7(10) . . ?
C207 C208 H184 118.7 . . ?
C209 C208 H184 118.7 . . ?
C210 C209 C208 120.0(11) . . ?
C210 C209 H185 120.0 . . ?
C208 C209 H185 120.0 . . ?
C209 C210 C211 120.4(10) . . ?
C209 C210 H186 119.8 . . ?
C211 C210 H186 119.8 . . ?
C212 C211 C210 120.9(10) . . ?
C212 C211 C216 118.5(9) . . ?
C210 C211 C216 120.5(9) . . ?
C213 C212 C211 122.2(12) . . ?
C213 C212 H187 118.9 . . ?
C211 C212 H187 118.9 . . ?
C212 C213 C214 117.1(12) . . ?
C212 C213 H188 121.4 . . ?
C214 C213 H188 121.4 . . ?
C215 C214 C213 121.4(12) . . ?
C215 C214 H189 119.3 . . ?
C213 C214 H189 119.3 . . ?
C214 C215 C216 120.1(10) . . ?
C214 C215 H190 119.9 . . ?
C216 C215 H190 119.9 . . ?
C215 C216 C211 119.9(9) . . ?
C215 C216 C207 122.8(9) . . ?
C211 C216 C207 117.2(8) . . ?
N25 C217 Fe1 172.0(9) . . ?
N26 C218 Fe1 176.4(8) . . ?
N27 C219 Fe1 176.9(9) . . ?
N28 C220 Fe1 175.4(9) . . ?
N29 C221 Fe1 176.5(9) . . ?
N30 C222 Fe1 177.6(10) . . ?
N31 C223 Fe2 177.4(8) . . ?
N32 C224 Fe2 175.2(8) . . ?
N33 C225 Fe2 175.8(8) . . ?
N34 C226 Fe2 174.2(9) . . ?
N35 C227 Fe2 173.9(8) . . ?
N36 C228 Fe2 174.8(9) . . ?
N37 C229 Fe3 176.8(10) . . ?
N38 C230 Fe3 176.3(9) . . ?
N39 C231 Fe3 173.2(9) . . ?
N40 C232 Fe3 177.2(12) . . ?
N41 C233 Fe3 172.2(10) . . ?
N42 C234 Fe3 174.8(9) . . ?
N43 C235 Fe4 172.2(9) . . ?
N44 C236 Fe4 172.9(9) . . ?
N45 C237 Fe4 173.7(8) . . ?
N46 C238 Fe4 173.2(10) . . ?
N47 C239 Fe4 176.4(9) . . ?
N48 C240 Fe4 176.1(10) . . ?
N49 C241 C242 123.3(10) . . ?
N49 C241 H191 118.4 . . ?
C242 C241 H191 118.4 . . ?
C243 C242 C241 120.5(9) . . ?
C243 C242 H192 119.7 . . ?
C241 C242 H192 119.7 . . ?
C242 C243 C244 116.8(9) . . ?
C242 C243 H193 121.6 . . ?
C244 C243 H193 121.6 . . ?
C245 C244 C243 120.9(10) . . ?
C245 C244 H194 119.6 . . ?
C243 C244 H194 119.6 . . ?
C244 C245 N49 122.2(9) . . ?
C244 C245 C246 124.0(10) . . ?
N49 C245 C246 113.6(9) . . ?
N50 C246 C245 121.6(10) . . ?
N50 C246 H195 119.2 . . ?
C245 C246 H195 119.2 . . ?
N50 C247 C249 113.2(9) . . ?
N50 C247 C248 115.1(9) . . ?
C249 C247 C248 110.9(9) . . ?
N50 C247 H196 105.6 . . ?
C249 C247 H196 105.6 . . ?
C248 C247 H196 105.6 . . ?
C247 C248 H197 109.5 . . ?
C247 C248 H198 109.5 . . ?
H197 C248 H198 109.5 . . ?
C247 C248 H199 109.5 . . ?
H197 C248 H199 109.5 . . ?
H198 C248 H199 109.5 . . ?
C250 C249 C258 116.6(9) . . ?
C250 C249 C247 120.4(9) . . ?
C258 C249 C247 123.0(9) . . ?
C249 C250 C251 123.4(10) . . ?
C249 C250 H200 118.3 . . ?
C251 C250 H200 118.3 . . ?
C252 C251 C250 121.2(10) . . ?
C252 C251 H201 119.4 . . ?
C250 C251 H201 119.4 . . ?
C251 C252 C253 118.6(10) . . ?
C251 C252 H202 120.7 . . ?
C253 C252 H202 120.7 . . ?
C254 C253 C252 120.4(10) . . ?
C254 C253 C258 119.8(9) . . ?
C252 C253 C258 119.9(9) . . ?
C255 C254 C253 121.7(10) . . ?
C255 C254 H203 119.2 . . ?
C253 C254 H203 119.2 . . ?
C254 C255 C256 119.0(11) . . ?
C254 C255 H204 120.5 . . ?
C256 C255 H204 120.5 . . ?
C257 C256 C255 120.8(11) . . ?
C257 C256 H205 119.6 . . ?
C255 C256 H205 119.6 . . ?
C256 C257 C258 122.6(10) . . ?
C256 C257 H206 118.7 . . ?
C258 C257 H206 118.7 . . ?
C257 C258 C249 124.0(9) . . ?
C257 C258 C253 115.8(8) . . ?
C249 C258 C253 120.1(8) . . ?
N51 C259 C260 123.3(8) . . ?
N51 C259 H207 118.4 . . ?
C260 C259 H207 118.4 . . ?
C261 C260 C259 118.2(8) . . ?
C261 C260 H208 120.9 . . ?
C259 C260 H208 120.9 . . ?
C260 C261 C262 120.5(7) . . ?
C260 C261 H209 119.8 . . ?
C262 C261 H209 119.8 . . ?
C263 C262 C261 118.1(8) . . ?
C263 C262 H210 121.0 . . ?
C261 C262 H210 121.0 . . ?
C262 C263 N51 122.6(8) . . ?
C262 C263 C264 123.5(9) . . ?
N51 C263 C264 113.7(8) . . ?
N52 C264 C263 123.6(10) . . ?
N52 C264 H211 118.2 . . ?
C263 C264 H211 118.2 . . ?
N52 C265 C267 115.5(9) . . ?
N52 C265 C266 113.2(10) . . ?
C267 C265 C266 108.3(9) . . ?
N52 C265 H212 106.4 . . ?
C267 C265 H212 106.4 . . ?
C266 C265 H212 106.4 . . ?
C265 C266 H213 109.5 . . ?
C265 C266 H214 109.5 . . ?
H213 C266 H214 109.5 . . ?
C265 C266 H215 109.5 . . ?
H213 C266 H215 109.5 . . ?
H214 C266 H215 109.5 . . ?
C268 C267 C276 119.7(8) . . ?
C268 C267 C265 117.2(9) . . ?
C276 C267 C265 122.9(9) . . ?
C267 C268 C269 120.4(8) . . ?
C267 C268 H216 119.8 . . ?
C269 C268 H216 119.8 . . ?
C270 C269 C268 120.7(9) . . ?
C270 C269 H217 119.7 . . ?
C268 C269 H217 119.7 . . ?
C269 C270 C271 121.4(9) . . ?
C269 C270 H218 119.3 . . ?
C271 C270 H218 119.3 . . ?
C272 C271 C270 122.9(8) . . ?
C272 C271 C276 119.3(8) . . ?
C270 C271 C276 117.8(7) . . ?
C273 C272 C271 122.7(9) . . ?
C273 C272 H219 118.6 . . ?
C271 C272 H219 118.6 . . ?
C272 C273 C274 118.3(9) . . ?
C272 C273 H220 120.8 . . ?
C274 C273 H220 120.8 . . ?
C275 C274 C273 121.3(9) . . ?
C275 C274 H221 119.3 . . ?
C273 C274 H221 119.3 . . ?
C274 C275 C276 121.9(9) . . ?
C274 C275 H222 119.0 . . ?
C276 C275 H222 119.0 . . ?
C267 C276 C275 123.9(8) . . ?
C267 C276 C271 119.9(7) . . ?
C275 C276 C271 116.1(7) . . ?
N53 C277 C278 117.6(11) . . ?
N53 C277 H223 121.2 . . ?
C278 C277 H223 121.2 . . ?
C279 C278 C277 122.9(11) . . ?
C279 C278 H224 118.6 . . ?
C277 C278 H224 118.6 . . ?
C278 C279 C280 118.4(11) . . ?
C278 C279 H225 120.8 . . ?
C280 C279 H225 120.8 . . ?
C281 C280 C279 114.3(11) . . ?
C281 C280 H226 122.8 . . ?
C279 C280 H226 122.8 . . ?
N53 C281 C280 126.9(11) . . ?
N53 C281 C282 116.8(10) . . ?
C280 C281 C282 116.3(10) . . ?
N54 C282 C281 118.3(10) . . ?
N54 C282 H227 120.8 . . ?
C281 C282 H227 120.8 . . ?
N54 C283 C285 112.9(9) . . ?
N54 C283 C284 112.1(10) . . ?
C285 C283 C284 110.5(9) . . ?
N54 C283 H228 107.0 . . ?
C285 C283 H228 107.0 . . ?
C284 C283 H228 107.0 . . ?
C283 C284 H229 109.5 . . ?
C283 C284 H230 109.5 . . ?
H229 C284 H230 109.5 . . ?
C283 C284 H231 109.5 . . ?
H229 C284 H231 109.5 . . ?
H230 C284 H231 109.5 . . ?
C286 C285 C294 121.6(8) . . ?
C286 C285 C283 118.9(8) . . ?
C294 C285 C283 119.3(8) . . ?
C285 C286 C287 120.4(8) . . ?
C285 C286 H232 119.8 . . ?
C287 C286 H232 119.8 . . ?
C288 C287 C286 119.5(8) . . ?
C288 C287 H233 120.2 . . ?
C286 C287 H233 120.2 . . ?
C287 C288 C289 122.0(8) . . ?
C287 C288 H234 119.0 . . ?
C289 C288 H234 119.0 . . ?
C290 C289 C288 122.5(8) . . ?
C290 C289 C294 119.9(7) . . ?
C288 C289 C294 117.6(7) . . ?
C291 C290 C289 121.1(8) . . ?
C291 C290 H235 119.4 . . ?
C289 C290 H235 119.4 . . ?
C290 C291 C292 119.6(8) . . ?
C290 C291 H236 120.2 . . ?
C292 C291 H236 120.2 . . ?
C293 C292 C291 121.3(9) . . ?
C293 C292 H237 119.3 . . ?
C291 C292 H237 119.3 . . ?
C292 C293 C294 121.3(8) . . ?
C292 C293 H238 119.4 . . ?
C294 C293 H238 119.4 . . ?
C285 C294 C293 124.4(8) . . ?
C285 C294 C289 118.7(7) . . ?
C293 C294 C289 116.6(7) . . ?
N55 C295 C296 123.8(9) . . ?
N55 C295 H239 118.1 . . ?
C296 C295 H239 118.1 . . ?
C295 C296 C297 119.6(10) . . ?
C295 C296 H240 120.2 . . ?
C297 C296 H240 120.2 . . ?
C298 C297 C296 117.6(9) . . ?
C298 C297 H241 121.2 . . ?
C296 C297 H241 121.2 . . ?
C299 C298 C297 121.8(10) . . ?
C299 C298 H242 119.1 . . ?
C297 C298 H242 119.1 . . ?
C298 C299 N55 122.4(9) . . ?
C298 C299 C300 129.2(10) . . ?
N55 C299 C300 108.3(9) . . ?
N56 C300 C299 123.2(10) . . ?
N56 C300 H243 118.4 . . ?
C299 C300 H243 118.4 . . ?
C303 C301 C302 112.1(11) . . ?
C303 C301 N56 107.4(8) . . ?
C302 C301 N56 114.7(10) . . ?
C303 C301 H244 107.5 . . ?
C302 C301 H244 107.5 . . ?
N56 C301 H244 107.5 . . ?
C301 C302 H245 109.5 . . ?
C301 C302 H246 109.5 . . ?
H245 C302 H246 109.5 . . ?
C301 C302 H247 109.5 . . ?
H245 C302 H247 109.5 . . ?
H246 C302 H247 109.5 . . ?
C304 C303 C312 118.2(7) . . ?
C304 C303 C301 121.5(9) . . ?
C312 C303 C301 120.2(8) . . ?
C303 C304 C305 121.0(8) . . ?
C303 C304 H248 119.5 . . ?
C305 C304 H248 119.5 . . ?
C306 C305 C304 121.7(8) . . ?
C306 C305 H249 119.2 . . ?
C304 C305 H249 119.2 . . ?
C305 C306 C307 120.0(8) . . ?
C305 C306 H250 120.0 . . ?
C307 C306 H250 120.0 . . ?
C308 C307 C306 121.4(8) . . ?
C308 C307 C312 119.1(7) . . ?
C306 C307 C312 119.4(7) . . ?
C309 C308 C307 119.8(8) . . ?
C309 C308 H251 120.1 . . ?
C307 C308 H251 120.1 . . ?
C308 C309 C310 122.6(9) . . ?
C308 C309 H252 118.7 . . ?
C310 C309 H252 118.7 . . ?
C309 C310 C311 118.9(8) . . ?
C309 C310 H253 120.6 . . ?
C311 C310 H253 120.6 . . ?
C310 C311 C312 120.7(8) . . ?
C310 C311 H254 119.6 . . ?
C312 C311 H254 119.6 . . ?
C311 C312 C303 122.3(7) . . ?
C311 C312 C307 118.2(7) . . ?
C303 C312 C307 119.5(7) . . ?
N57 C313 C314 123.7(7) . . ?
N57 C313 H255 118.1 . . ?
C314 C313 H255 118.1 . . ?
C315 C314 C313 118.8(7) . . ?
C315 C314 H256 120.6 . . ?
C313 C314 H256 120.6 . . ?
C314 C315 C316 119.4(7) . . ?
C314 C315 H257 120.3 . . ?
C316 C315 H257 120.3 . . ?
C317 C316 C315 119.3(7) . . ?
C317 C316 H258 120.3 . . ?
C315 C316 H258 120.3 . . ?
C316 C317 N57 122.8(7) . . ?
C316 C317 C318 121.8(8) . . ?
N57 C317 C318 115.0(7) . . ?
N58 C318 C317 117.2(9) . . ?
N58 C319 C321 109.8(8) . . ?
N58 C319 C320 117.8(9) . . ?
C321 C319 C320 110.2(9) . . ?
N58 C319 H260 106.1 . . ?
C321 C319 H260 106.1 . . ?
C320 C319 H260 106.1 . . ?
C319 C320 H261 109.5 . . ?
C319 C320 H262 109.5 . . ?
H261 C320 H262 109.5 . . ?
C319 C320 H263 109.5 . . ?
H261 C320 H263 109.5 . . ?
H262 C320 H263 109.5 . . ?
C322 C321 C330 120.1(7) . . ?
C322 C321 C319 119.8(8) . . ?
C330 C321 C319 120.0(7) . . ?
C321 C322 C323 120.9(7) . . ?
C321 C322 H264 119.5 . . ?
C323 C322 H264 119.5 . . ?
C324 C323 C322 119.7(8) . . ?
C324 C323 H265 120.1 . . ?
C322 C323 H265 120.1 . . ?
C323 C324 C325 121.7(8) . . ?
C323 C324 H266 119.1 . . ?
C325 C324 H266 119.1 . . ?
C324 C325 C326 122.2(8) . . ?
C324 C325 C330 118.5(7) . . ?
C326 C325 C330 119.2(7) . . ?
C327 C326 C325 122.8(8) . . ?
C327 C326 H267 118.6 . . ?
C325 C326 H267 118.6 . . ?
C326 C327 C328 118.5(8) . . ?
C326 C327 H268 120.7 . . ?
C328 C327 H268 120.7 . . ?
C329 C328 C327 121.7(8) . . ?
C329 C328 H269 119.2 . . ?
C327 C328 H269 119.2 . . ?
C328 C329 C330 120.6(8) . . ?
C328 C329 H270 119.7 . . ?
C330 C329 H270 119.7 . . ?
C321 C330 C329 124.3(7) . . ?
C321 C330 C325 118.8(7) . . ?
C329 C330 C325 116.7(6) . . ?
N59 C331 C332 121.5(9) . . ?
N59 C331 H271 119.2 . . ?
C332 C331 H271 119.2 . . ?
C333 C332 C331 120.0(10) . . ?
C333 C332 H272 120.0 . . ?
C331 C332 H272 120.0 . . ?
C332 C333 C334 121.3(10) . . ?
C332 C333 H273 119.3 . . ?
C334 C333 H273 119.3 . . ?
C333 C334 C335 117.4(10) . . ?
C333 C334 H274 121.3 . . ?
C335 C334 H274 121.3 . . ?
N59 C335 C334 120.9(9) . . ?
N59 C335 C336 117.2(9) . . ?
C334 C335 C336 121.5(10) . . ?
N60 C336 C335 118.5(10) . . ?
N60 C336 H275 120.8 . . ?
C335 C336 H275 120.8 . . ?
N60 C337 C338 113.4(10) . . ?
N60 C337 C339 108.6(7) . . ?
C338 C337 C339 109.2(9) . . ?
N60 C337 H276 108.5 . . ?
C338 C337 H276 108.5 . . ?
C339 C337 H276 108.5 . . ?
C337 C338 H277 109.5 . . ?
C337 C338 H278 109.5 . . ?
H277 C338 H278 109.5 . . ?
C337 C338 H279 109.5 . . ?
H277 C338 H279 109.5 . . ?
H278 C338 H279 109.5 . . ?
C340 C339 C348 121.0(7) . . ?
C340 C339 C337 118.9(8) . . ?
C348 C339 C337 119.5(7) . . ?
C339 C340 C341 120.0(8) . . ?
C339 C340 H280 120.0 . . ?
C341 C340 H280 120.0 . . ?
C342 C341 C340 119.6(8) . . ?
C342 C341 H281 120.2 . . ?
C340 C341 H281 120.2 . . ?
C341 C342 C343 121.4(8) . . ?
C341 C342 H282 119.3 . . ?
C343 C342 H282 119.3 . . ?
C344 C343 C348 119.9(7) . . ?
C344 C343 C342 122.0(7) . . ?
C348 C343 C342 118.2(7) . . ?
C345 C344 C343 120.8(8) . . ?
C345 C344 H283 119.6 . . ?
C343 C344 H283 119.6 . . ?
C344 C345 C346 120.3(8) . . ?
C344 C345 H284 119.8 . . ?
C346 C345 H284 119.8 . . ?
C347 C346 C345 120.7(8) . . ?
C347 C346 H285 119.6 . . ?
C345 C346 H285 119.6 . . ?
C346 C347 C348 121.1(8) . . ?
C346 C347 H286 119.4 . . ?
C348 C347 H286 119.4 . . ?
C339 C348 C347 124.0(7) . . ?
C339 C348 C343 119.2(7) . . ?
C347 C348 C343 116.8(6) . . ?
N61 C349 C350 121.5(10) . . ?
N61 C349 H287 119.3 . . ?
C350 C349 H287 119.3 . . ?
C351 C350 C349 122.2(11) . . ?
C351 C350 H288 118.9 . . ?
C349 C350 H288 118.9 . . ?
C350 C351 C352 115.7(11) . . ?
C350 C351 H289 122.2 . . ?
C352 C351 H289 122.2 . . ?
C353 C352 C351 121.7(11) . . ?
C353 C352 H290 119.2 . . ?
C351 C352 H290 119.2 . . ?
N61 C353 C352 120.0(10) . . ?
N61 C353 C354 118.0(9) . . ?
C352 C353 C354 121.9(10) . . ?
N62 C354 C353 118.6(9) . . ?
N62 C354 H291 120.7 . . ?
C353 C354 H291 120.7 . . ?
C356 C355 C357 112.2(8) . . ?
C356 C355 N62 113.7(8) . . ?
C357 C355 N62 109.9(7) . . ?
C356 C355 H292 106.9 . . ?
C357 C355 H292 106.9 . . ?
N62 C355 H292 106.9 . . ?
C355 C356 H293 109.5 . . ?
C355 C356 H294 109.5 . . ?
H293 C356 H294 109.5 . . ?
C355 C356 H295 109.5 . . ?
H293 C356 H295 109.5 . . ?
H294 C356 H295 109.5 . . ?
C358 C357 C366 118.4(7) . . ?
C358 C357 C355 119.8(7) . . ?
C366 C357 C355 121.4(7) . . ?
C357 C358 C359 121.7(8) . . ?
C357 C358 H296 119.2 . . ?
C359 C358 H296 119.2 . . ?
C360 C359 C358 120.1(8) . . ?
C360 C359 H297 119.9 . . ?
C358 C359 H297 119.9 . . ?
C359 C360 C361 120.6(8) . . ?
C359 C360 H298 119.7 . . ?
C361 C360 H298 119.7 . . ?
C362 C361 C360 121.6(8) . . ?
C362 C361 C366 119.5(7) . . ?
C360 C361 C366 118.7(7) . . ?
C363 C362 C361 120.5(8) . . ?
C363 C362 H299 119.8 . . ?
C361 C362 H299 119.8 . . ?
C362 C363 C364 120.3(8) . . ?
C362 C363 H300 119.9 . . ?
C364 C363 H300 119.9 . . ?
C363 C364 C365 121.7(8) . . ?
C363 C364 H301 119.1 . . ?
C365 C364 H301 119.1 . . ?
C364 C365 C366 119.8(8) . . ?
C364 C365 H302 120.1 . . ?
C366 C365 H302 120.1 . . ?
C365 C366 C357 122.6(7) . . ?
C365 C366 C361 117.8(6) . . ?
C357 C366 C361 119.5(6) . . ?
N63 C367 C368 119.2(7) . . ?
N63 C367 H303 120.4 . . ?
C368 C367 H303 120.4 . . ?
C369 C368 C367 121.9(7) . . ?
C369 C368 H304 119.0 . . ?
C367 C368 H304 119.0 . . ?
C368 C369 C370 119.9(7) . . ?
C368 C369 H305 120.1 . . ?
C370 C369 H305 120.1 . . ?
C371 C370 C369 115.4(7) . . ?
C371 C370 H306 122.3 . . ?
C369 C370 H306 122.3 . . ?
N63 C371 C370 126.2(7) . . ?
N63 C371 C372 113.5(8) . . ?
C370 C371 C372 119.7(8) . . ?
N64 C372 C371 120.0(8) . . ?
N64 C372 H307 120.0 . . ?
C371 C372 H307 120.0 . . ?
C374 C373 C375 111.4(8) . . ?
C374 C373 N64 116.5(9) . . ?
C375 C373 N64 107.9(8) . . ?
C374 C373 H308 106.9 . . ?
C375 C373 H308 106.9 . . ?
N64 C373 H308 106.9 . . ?
C373 C374 H309 109.5 . . ?
C373 C374 H310 109.5 . . ?
H309 C374 H310 109.5 . . ?
C373 C374 H311 109.5 . . ?
H309 C374 H311 109.5 . . ?
H310 C374 H311 109.5 . . ?
C376 C375 C384 119.8(7) . . ?
C376 C375 C373 119.4(8) . . ?
C384 C375 C373 120.8(8) . . ?
C375 C376 C377 121.8(8) . . ?
C375 C376 H312 119.1 . . ?
C377 C376 H312 119.1 . . ?
C378 C377 C376 119.1(8) . . ?
C378 C377 H313 120.5 . . ?
C376 C377 H313 120.5 . . ?
C377 C378 C379 121.7(8) . . ?
C377 C378 H314 119.1 . . ?
C379 C378 H314 119.1 . . ?
C380 C379 C378 122.7(8) . . ?
C380 C379 C384 118.0(8) . . ?
C378 C379 C384 119.3(7) . . ?
C381 C380 C379 121.1(9) . . ?
C381 C380 H315 119.4 . . ?
C379 C380 H315 119.4 . . ?
C380 C381 C382 121.8(9) . . ?
C380 C381 H316 119.1 . . ?
C382 C381 H316 119.1 . . ?
C381 C382 C383 119.1(9) . . ?
C381 C382 H317 120.5 . . ?
C383 C382 H317 120.5 . . ?
C382 C383 C384 121.1(9) . . ?
C382 C383 H318 119.5 . . ?
C384 C383 H318 119.5 . . ?
C383 C384 C375 123.8(8) . . ?
C383 C384 C379 118.1(7) . . ?
C375 C384 C379 118.1(7) . . ?
N65 C385 C386 120.7(11) . . ?
N65 C385 H319 119.7 . . ?
C386 C385 H319 119.7 . . ?
C387 C386 C385 124.5(11) . . ?
C387 C386 H320 117.8 . . ?
C385 C386 H320 117.8 . . ?
C386 C387 C388 115.8(11) . . ?
C386 C387 H321 122.1 . . ?
C388 C387 H321 122.1 . . ?
C389 C388 C387 114.5(11) . . ?
C389 C388 H322 122.7 . . ?
C387 C388 H322 122.7 . . ?
C388 C389 N65 129.2(11) . . ?
C388 C389 C390 118.7(10) . . ?
N65 C389 C390 112.0(10) . . ?
N66 C390 C389 119.0(10) . . ?
N66 C390 H323 120.5 . . ?
C389 C390 H323 120.5 . . ?
N66 C391 C393 114.0(8) . . ?
N66 C391 C392 112.7(10) . . ?
C393 C391 C392 108.7(8) . . ?
N66 C391 H324 107.0 . . ?
C393 C391 H324 107.0 . . ?
C392 C391 H324 107.0 . . ?
C391 C392 H325 109.5 . . ?
C391 C392 H326 109.5 . . ?
H325 C392 H326 109.5 . . ?
C391 C392 H327 109.5 . . ?
H325 C392 H327 109.5 . . ?
H326 C392 H327 109.5 . . ?
C394 C393 C402 120.9(7) . . ?
C394 C393 C391 117.3(8) . . ?
C402 C393 C391 121.7(8) . . ?
C393 C394 C395 119.5(8) . . ?
C393 C394 H328 120.3 . . ?
C395 C394 H328 120.3 . . ?
C396 C395 C394 120.8(8) . . ?
C396 C395 H329 119.6 . . ?
C394 C395 H329 119.6 . . ?
C395 C396 C397 122.1(8) . . ?
C395 C396 H330 118.9 . . ?
C397 C396 H330 118.9 . . ?
C396 C397 C398 124.4(8) . . ?
C396 C397 C402 117.8(7) . . ?
C398 C397 C402 117.5(7) . . ?
C399 C398 C397 122.2(8) . . ?
C399 C398 H331 118.9 . . ?
C397 C398 H331 118.9 . . ?
C398 C399 C400 121.3(8) . . ?
C398 C399 H332 119.4 . . ?
C400 C399 H332 119.4 . . ?
C401 C400 C399 119.2(8) . . ?
C401 C400 H333 120.4 . . ?
C399 C400 H333 120.4 . . ?
C400 C401 C402 121.8(8) . . ?
C400 C401 H334 119.1 . . ?
C402 C401 H334 119.1 . . ?
C393 C402 C401 123.3(7) . . ?
C393 C402 C397 118.7(7) . . ?
C401 C402 C397 118.0(7) . . ?
N67 C403 C404 122.1(10) . . ?
N67 C403 H335 118.9 . . ?
C404 C403 H335 118.9 . . ?
C405 C404 C403 116.0(10) . . ?
C405 C404 H336 122.0 . . ?
C403 C404 H336 122.0 . . ?
C406 C405 C404 127.1(13) . . ?
C406 C405 H337 116.5 . . ?
C404 C405 H337 116.5 . . ?
C405 C406 C407 116.0(11) . . ?
C405 C406 H338 122.0 . . ?
C407 C406 H338 122.0 . . ?
N67 C407 C408 114.2(10) . . ?
N67 C407 C406 119.2(10) . . ?
C408 C407 C406 126.6(10) . . ?
N68 C408 C407 122.2(11) . . ?
N68 C408 H339 118.9 . . ?
C407 C408 H339 118.9 . . ?
C410 C409 C411 112.5(9) . . ?
C410 C409 N68 115.1(9) . . ?
C411 C409 N68 109.2(7) . . ?
C410 C409 H340 106.5 . . ?
C411 C409 H340 106.5 . . ?
N68 C409 H340 106.5 . . ?
C409 C410 H341 109.5 . . ?
C409 C410 H342 109.5 . . ?
H341 C410 H342 109.5 . . ?
C409 C410 H343 109.5 . . ?
H341 C410 H343 109.5 . . ?
H342 C410 H343 109.5 . . ?
C412 C411 C420 118.8(8) . . ?
C412 C411 C409 121.6(8) . . ?
C420 C411 C409 119.6(8) . . ?
C411 C412 C413 122.6(9) . . ?
C411 C412 H344 118.7 . . ?
C413 C412 H344 118.7 . . ?
C414 C413 C412 119.9(9) . . ?
C414 C413 H345 120.1 . . ?
C412 C413 H345 120.1 . . ?
C413 C414 C415 119.5(8) . . ?
C413 C414 H346 120.2 . . ?
C415 C414 H346 120.2 . . ?
C414 C415 C416 121.1(8) . . ?
C414 C415 C420 120.3(7) . . ?
C416 C415 C420 118.5(7) . . ?
C417 C416 C415 120.9(9) . . ?
C417 C416 H347 119.6 . . ?
C415 C416 H347 119.6 . . ?
C416 C417 C418 121.3(9) . . ?
C416 C417 H348 119.3 . . ?
C418 C417 H348 119.3 . . ?
C419 C418 C417 120.4(9) . . ?
C419 C418 H349 119.8 . . ?
C417 C418 H349 119.8 . . ?
C418 C419 C420 120.5(8) . . ?
C418 C419 H350 119.7 . . ?
C420 C419 H350 119.7 . . ?
C411 C420 C419 123.5(7) . . ?
C411 C420 C415 118.7(7) . . ?
C419 C420 C415 117.7(7) . . ?
N69 C421 C422 124.1(11) . . ?
N69 C421 H351 117.9 . . ?
C422 C421 H351 117.9 . . ?
C421 C422 C423 120.2(10) . . ?
C421 C422 H352 119.9 . . ?
C423 C422 H352 119.9 . . ?
C422 C423 C424 112.9(11) . . ?
C422 C423 H353 123.5 . . ?
C424 C423 H353 123.5 . . ?
C425 C424 C423 124.6(11) . . ?
C425 C424 H354 117.7 . . ?
C423 C424 H354 117.7 . . ?
N69 C425 C424 118.9(10) . . ?
N69 C425 C426 115.6(10) . . ?
C424 C425 C426 125.4(11) . . ?
N70 C426 C425 121.8(11) . . ?
N70 C426 H355 119.1 . . ?
C425 C426 H355 119.1 . . ?
N70 C427 C428 113.8(9) . . ?
N70 C427 C429 110.3(8) . . ?
C428 C427 C429 112.2(9) . . ?
N70 C427 H356 106.7 . . ?
C428 C427 H356 106.7 . . ?
C429 C427 H356 106.7 . . ?
C427 C428 H357 109.5 . . ?
C427 C428 H358 109.5 . . ?
H357 C428 H358 109.5 . . ?
C427 C428 H359 109.5 . . ?
H357 C428 H359 109.5 . . ?
H358 C428 H359 109.5 . . ?
C430 C429 C438 120.9(7) . . ?
C430 C429 C427 118.3(8) . . ?
C438 C429 C427 120.2(7) . . ?
C429 C430 C431 121.5(8) . . ?
C429 C430 H360 119.2 . . ?
C431 C430 H360 119.2 . . ?
C432 C431 C430 118.5(8) . . ?
C432 C431 H361 120.8 . . ?
C430 C431 H361 120.8 . . ?
C431 C432 C433 121.9(8) . . ?
C431 C432 H362 119.1 . . ?
C433 C432 H362 119.1 . . ?
C432 C433 C434 121.8(8) . . ?
C432 C433 C438 119.2(7) . . ?
C434 C433 C438 118.8(7) . . ?
C435 C434 C433 119.8(8) . . ?
C435 C434 H363 120.1 . . ?
C433 C434 H363 120.1 . . ?
C434 C435 C436 122.9(9) . . ?
C434 C435 H364 118.5 . . ?
C436 C435 H364 118.5 . . ?
C437 C436 C435 118.6(8) . . ?
C437 C436 H365 120.7 . . ?
C435 C436 H365 120.7 . . ?
C436 C437 C438 122.0(8) . . ?
C436 C437 H366 119.0 . . ?
C438 C437 H366 119.0 . . ?
C429 C438 C437 125.2(7) . . ?
C429 C438 C433 117.6(7) . . ?
C437 C438 C433 117.2(7) . . ?
N71 C439 C440 124.8(10) . . ?
N71 C439 H367 117.6 . . ?
C440 C439 H367 117.6 . . ?
C439 C440 C441 115.4(10) . . ?
C439 C440 H368 122.3 . . ?
C441 C440 H368 122.3 . . ?
C442 C441 C440 121.3(10) . . ?
C442 C441 H369 119.4 . . ?
C440 C441 H369 119.4 . . ?
C441 C442 C443 118.6(10) . . ?
C441 C442 H370 120.7 . . ?
C443 C442 H370 120.7 . . ?
N71 C443 C442 120.6(10) . . ?
N71 C443 C444 116.6(9) . . ?
C442 C443 C444 122.7(10) . . ?
N72 C444 C443 121.6(10) . . ?
N72 C444 H371 119.2 . . ?
C443 C444 H371 119.2 . . ?
N72 C445 C447 109.4(8) . . ?
N72 C445 C446 111.4(8) . . ?
C447 C445 C446 114.8(8) . . ?
N72 C445 H372 106.9 . . ?
C447 C445 H372 106.9 . . ?
C446 C445 H372 106.9 . . ?
C445 C446 H373 109.5 . . ?
C445 C446 H374 109.5 . . ?
H373 C446 H374 109.5 . . ?
C445 C446 H375 109.5 . . ?
H373 C446 H375 109.5 . . ?
H374 C446 H375 109.5 . . ?
C448 C447 C456 119.4(6) . . ?
C448 C447 C445 119.2(7) . . ?
C456 C447 C445 121.1(7) . . ?
C447 C448 C449 120.0(6) . . ?
C447 C448 H376 120.0 . . ?
C449 C448 H376 120.0 . . ?
C450 C449 C448 120.8(7) . . ?
C450 C449 H377 119.6 . . ?
C448 C449 H377 119.6 . . ?
C449 C450 C451 121.5(7) . . ?
C449 C450 H378 119.3 . . ?
C451 C450 H378 119.3 . . ?
C452 C451 C450 121.8(6) . . ?
C452 C451 C456 119.3(6) . . ?
C450 C451 C456 118.9(6) . . ?
C453 C452 C451 119.8(7) . . ?
C453 C452 H379 120.1 . . ?
C451 C452 H379 120.1 . . ?
C452 C453 C454 122.5(7) . . ?
C452 C453 H380 118.8 . . ?
C454 C453 H380 118.8 . . ?
C453 C454 C455 119.3(7) . . ?
C453 C454 H381 120.4 . . ?
C455 C454 H381 120.4 . . ?
C454 C455 C456 121.1(7) . . ?
C454 C455 H382 119.5 . . ?
C456 C455 H382 119.5 . . ?
C455 C456 C447 122.9(6) . . ?
C455 C456 C451 117.9(6) . . ?
C447 C456 C451 119.3(6) . . ?
N73 C457 Fe5 173.7(10) . . ?
N74 C458 Fe5 174.0(9) . . ?
N75 C459 Fe5 173.3(9) . . ?
N76 C460 Fe5 173.6(11) . . ?
N77 C461 Fe5 175.1(10) . . ?
N78 C462 Fe5 178.4(9) . . ?
N79 C463 Fe6 172.0(9) . . ?
N80 C464 Fe6 175.1(8) . . ?
N81 C465 Fe6 171.2(9) . . ?
N82 C466 Fe6 177.6(9) . . ?
N83 C467 Fe6 172.7(9) . . ?
N84 C468 Fe6 176.2(11) . . ?
N85 C469 Fe7 176.7(9) . . ?
N86 C470 Fe7 177.8(8) . . ?
N87 C471 Fe7 176.3(8) . . ?
N88 C472 Fe7 174.5(9) . . ?
N89 C473 Fe7 173.9(9) . . ?
N90 C474 Fe7 175.9(8) . . ?
N91 C475 Fe8 173.2(9) . . ?
N92 C476 Fe8 176.6(7) . . ?
N93 C477 Fe8 175.8(8) . . ?
N94 C478 Fe8 174.9(9) . . ?
N95 C479 Fe8 176.8(9) . . ?
N96 C480 Fe8 176.1(9) . . ?
C482 C481 N97 127(3) . . ?
C482 C481 H383 116.4 . . ?
N97 C481 H383 116.4 . . ?
C481 C482 C483 115(3) . . ?
C481 C482 H384 122.3 . . ?
C483 C482 H384 122.3 . . ?
C484 C483 C482 124(2) . . ?
C484 C483 H385 118.2 . . ?
C482 C483 H385 118.2 . . ?
C483 C484 C485 117.3(15) . . ?
C483 C484 H386 121.4 . . ?
C485 C484 H386 121.4 . . ?
N97 C485 C484 123.4(15) . . ?
N97 C485 C486 113.9(17) . . ?
C484 C485 C486 122.1(15) . . ?
N98 C486 C485 120.0(17) . . ?
N98 C486 H387 120.0 . . ?
C485 C486 H387 120.0 . . ?
N98 C487 C488 113.4(11) . . ?
N98 C487 C489 113.6(10) . . ?
C488 C487 C489 109.9(10) . . ?
N98 C487 H388 106.5 . . ?
C488 C487 H388 106.5 . . ?
C489 C487 H388 106.5 . . ?
C487 C488 H389 109.5 . . ?
C487 C488 H390 109.5 . . ?
H389 C488 H390 109.5 . . ?
C487 C488 H391 109.5 . . ?
H389 C488 H391 109.5 . . ?
H390 C488 H391 109.5 . . ?
C498 C489 C490 121.4(9) . . ?
C498 C489 C487 120.1(9) . . ?
C490 C489 C487 118.5(9) . . ?
C489 C490 C491 120.0(9) . . ?
C489 C490 H392 120.0 . . ?
C491 C490 H392 120.0 . . ?
C492 C491 C490 118.6(9) . . ?
C492 C491 H393 120.7 . . ?
C490 C491 H393 120.7 . . ?
C491 C492 C493 124.0(9) . . ?
C491 C492 H394 118.0 . . ?
C493 C492 H394 118.0 . . ?
C492 C493 C494 124.3(9) . . ?
C492 C493 C498 117.1(8) . . ?
C494 C493 C498 118.2(8) . . ?
C495 C494 C493 122.1(10) . . ?
C495 C494 H395 119.0 . . ?
C493 C494 H395 119.0 . . ?
C494 C495 C496 119.6(10) . . ?
C494 C495 H396 120.2 . . ?
C496 C495 H396 120.2 . . ?
C497 C496 C495 119.8(10) . . ?
C497 C496 H397 120.1 . . ?
C495 C496 H397 120.1 . . ?
C496 C497 C498 120.9(10) . . ?
C496 C497 H398 119.6 . . ?
C498 C497 H398 119.6 . . ?
C489 C498 C497 124.9(9) . . ?
C489 C498 C493 118.8(8) . . ?
C497 C498 C493 116.2(8) . . ?
N99 C499 C500 119.8(18) . . ?
N99 C499 H399 120.1 . . ?
C500 C499 H399 120.1 . . ?
C501 C500 C499 123.0(19) . . ?
C501 C500 H400 118.5 . . ?
C499 C500 H400 118.5 . . ?
C500 C501 C502 118(2) . . ?
C500 C501 H401 121.0 . . ?
C502 C501 H401 121.0 . . ?
C503 C502 C501 117(2) . . ?
C503 C502 H402 121.7 . . ?
C501 C502 H402 121.7 . . ?
N99 C503 C502 127.4(18) . . ?
N99 C503 C504 111.5(19) . . ?
C502 C503 C504 120(2) . . ?
N100 C504 C503 123.0(19) . . ?
N100 C504 H403 118.5 . . ?
C503 C504 H403 118.5 . . ?
N100 C505 C507 106.3(12) . . ?
N100 C505 C506 116.3(13) . . ?
C507 C505 C506 113.1(13) . . ?
N100 C505 H404 106.9 . . ?
C507 C505 H404 106.9 . . ?
C506 C505 H404 106.9 . . ?
C505 C506 H405 109.5 . . ?
C505 C506 H406 109.5 . . ?
H405 C506 H406 109.5 . . ?
C505 C506 H407 109.5 . . ?
H405 C506 H407 109.5 . . ?
H406 C506 H407 109.5 . . ?
C508 C507 C516 119.5(9) . . ?
C508 C507 C505 117.4(12) . . ?
C516 C507 C505 122.8(11) . . ?
C507 C508 C509 120.6(10) . . ?
C507 C508 H408 119.7 . . ?
C509 C508 H408 119.7 . . ?
C510 C509 C508 120.5(10) . . ?
C510 C509 H409 119.7 . . ?
C508 C509 H409 119.7 . . ?
C509 C510 C511 121.2(10) . . ?
C509 C510 H410 119.4 . . ?
C511 C510 H410 119.4 . . ?
C512 C511 C510 121.5(10) . . ?
C512 C511 C516 119.7(9) . . ?
C510 C511 C516 118.1(8) . . ?
C513 C512 C511 120.7(10) . . ?
C513 C512 H411 119.7 . . ?
C511 C512 H411 119.7 . . ?
C512 C513 C514 119.8(10) . . ?
C512 C513 H412 120.1 . . ?
C514 C513 H412 120.1 . . ?
C515 C514 C513 121.5(10) . . ?
C515 C514 H413 119.3 . . ?
C513 C514 H413 119.3 . . ?
C514 C515 C516 120.7(10) . . ?
C514 C515 H414 119.6 . . ?
C516 C515 H414 119.6 . . ?
C515 C516 C507 123.4(9) . . ?
C515 C516 C511 117.2(8) . . ?
C507 C516 C511 119.3(8) . . ?
C518 C517 N101 119.6(15) . . ?
C518 C517 H415 120.2 . . ?
N101 C517 H415 120.2 . . ?
C519 C518 C517 125.3(17) . . ?
C519 C518 H416 117.4 . . ?
C517 C518 H416 117.4 . . ?
C518 C519 C520 117.5(15) . . ?
C518 C519 H417 121.2 . . ?
C520 C519 H417 121.2 . . ?
C521 C520 C519 114.8(15) . . ?
C521 C520 H259 122.0 . . ?
C519 C520 H259 123.1 . . ?
N101 C521 C520 127.2(14) . . ?
N101 C521 C522 113.7(11) . . ?
C520 C521 C522 119.0(15) . . ?
N102 C522 C521 120.6(13) . . ?
N102 C522 H418 119.7 . . ?
C521 C522 H418 119.7 . . ?
C525 C523 C524 119.8(12) . . ?
C525 C523 N102 112.5(11) . . ?
C524 C523 N102 108.2(10) . . ?
C525 C523 H419 105.0 . . ?
C524 C523 H419 105.0 . . ?
N102 C523 H419 105.0 . . ?
C523 C524 H420 109.5 . . ?
C523 C524 H421 109.5 . . ?
H420 C524 H421 109.5 . . ?
C523 C524 H422 109.5 . . ?
H420 C524 H422 109.5 . . ?
H421 C524 H422 109.5 . . ?
C526 C525 C534 120.8(8) . . ?
C526 C525 C523 117.5(9) . . ?
C534 C525 C523 121.6(9) . . ?
C525 C526 C527 120.6(9) . . ?
C525 C526 H423 119.7 . . ?
C527 C526 H423 119.7 . . ?
C528 C527 C526 119.7(9) . . ?
C528 C527 H424 120.2 . . ?
C526 C527 H424 120.2 . . ?
C527 C528 C529 121.4(8) . . ?
C527 C528 H425 119.3 . . ?
C529 C528 H425 119.3 . . ?
C530 C529 C528 122.4(8) . . ?
C530 C529 C534 118.9(7) . . ?
C528 C529 C534 118.2(7) . . ?
C531 C530 C529 123.4(9) . . ?
C531 C530 H426 118.3 . . ?
C529 C530 H426 118.3 . . ?
C530 C531 C532 118.1(9) . . ?
C530 C531 H427 121.0 . . ?
C532 C531 H427 121.0 . . ?
C533 C532 C531 121.8(9) . . ?
C533 C532 H428 119.1 . . ?
C531 C532 H428 119.1 . . ?
C532 C533 C534 120.6(8) . . ?
C532 C533 H429 119.7 . . ?
C534 C533 H429 119.7 . . ?
C525 C534 C533 124.7(8) . . ?
C525 C534 C529 118.7(7) . . ?
C533 C534 C529 116.5(7) . . ?
N103 C535 C536 118.2(16) . . ?
N103 C535 H430 120.9 . . ?
C536 C535 H430 120.9 . . ?
C537 C536 C535 121(2) . . ?
C537 C536 H431 119.3 . . ?
C535 C536 H431 119.3 . . ?
C536 C537 C538 120.1(17) . . ?
C536 C537 H432 120.0 . . ?
C538 C537 H432 120.0 . . ?
C537 C538 C539 120.1(15) . . ?
C537 C538 H433 120.0 . . ?
C539 C538 H433 120.0 . . ?
N103 C539 C538 123.0(14) . . ?
N103 C539 C540 114.2(13) . . ?
C538 C539 C540 122.7(14) . . ?
N104 C540 C539 119.3(14) . . ?
N104 C540 H434 120.3 . . ?
C539 C540 H434 120.3 . . ?
N104 C541 C543 111.4(10) . . ?
N104 C541 C542 116.8(12) . . ?
C543 C541 C542 112.5(11) . . ?
N104 C541 H435 105.0 . . ?
C543 C541 H435 105.0 . . ?
C542 C541 H435 105.0 . . ?
C541 C542 H436 109.5 . . ?
C541 C542 H437 109.5 . . ?
H436 C542 H437 109.5 . . ?
C541 C542 H438 109.5 . . ?
H436 C542 H438 109.5 . . ?
H437 C542 H438 109.5 . . ?
C544 C543 C552 119.0(9) . . ?
C544 C543 C541 119.4(10) . . ?
C552 C543 C541 121.5(9) . . ?
C543 C544 C545 121.8(9) . . ?
C543 C544 H439 119.1 . . ?
C545 C544 H439 119.1 . . ?
C546 C545 C544 119.8(10) . . ?
C546 C545 H440 120.1 . . ?
C544 C545 H440 120.1 . . ?
C545 C546 C547 120.8(9) . . ?
C545 C546 H441 119.6 . . ?
C547 C546 H441 119.6 . . ?
C548 C547 C552 120.2(8) . . ?
C548 C547 C546 120.8(9) . . ?
C552 C547 C546 118.9(8) . . ?
C549 C548 C547 120.3(10) . . ?
C549 C548 H442 119.8 . . ?
C547 C548 H442 119.8 . . ?
C548 C549 C550 119.4(10) . . ?
C548 C549 H443 120.3 . . ?
C550 C549 H443 120.3 . . ?
C551 C550 C549 120.7(9) . . ?
C551 C550 H444 119.7 . . ?
C549 C550 H444 119.7 . . ?
C550 C551 C552 120.9(9) . . ?
C550 C551 H445 119.5 . . ?
C552 C551 H445 119.5 . . ?
C543 C552 C547 119.5(8) . . ?
C543 C552 C551 123.2(9) . . ?
C547 C552 C551 117.2(8) . . ?
N105 C553 Fe9 177.0(18) . . ?
N106 C554 Fe9 172.1(12) . . ?
N107 C555 Fe9 170.7(13) . . ?
N108 C556 Fe9 179(2) . . ?
N109 C557 Fe9 173.0(18) . . ?
N110 C558 Fe9 172(2) . . ?
N111 C559 Fe10 179.0(12) . . ?
N112 C560 Fe10 178.0(15) . . ?
N113 C561 Fe10 176.8(15) . . ?
N114 C562 Fe10 177.8(15) . . ?
N115 C563 Fe10 178.2(17) . . ?
N116 C564 Fe10 173.5(13) . . ?
C566 C565 N117 119.1(15) . . ?
N117 C567 C569 109(2) . . ?
N117 C568 C569 106(2) . . ?
C567 C569 C568 53.9(17) . . ?
C571 C570 N117 118.1(15) . . ?
N117 C572 C573 144(3) . . ?
N118 C574 C575 109.0(16) . . ?
C577 C576 N118 117.8(14) . . ?
N118 C578 C579 130.7(18) . . ?
C582 C580 N118 115.9(18) . . ?
N118 C581 C582 115(2) . . ?
C580 C582 C581 62.9(16) . . ?
C1 N1 C5 118.7(8) . . ?
C1 N1 Ni1 129.3(6) . . ?
C5 N1 Ni1 112.1(6) . . ?
C6 N2 C7 118.4(8) . . ?
C6 N2 Ni1 111.3(6) . . ?
C7 N2 Ni1 127.4(6) . . ?
C19 N3 C23 112.9(9) . . ?
C19 N3 Ni1 131.2(8) . . ?
C23 N3 Ni1 115.9(7) . . ?
C24 N4 C25 120.2(9) . . ?
C24 N4 Ni1 112.6(7) . . ?
C25 N4 Ni1 125.5(6) . . ?
C41 N5 C37 118.4(10) . . ?
C41 N5 Ni2 114.6(8) . . ?
C37 N5 Ni2 126.8(7) . . ?
C42 N6 C43 117.2(8) . . ?
C42 N6 Ni2 113.8(7) . . ?
C43 N6 Ni2 127.7(7) . . ?
C55 N7 C59 116.8(9) . . ?
C55 N7 Ni2 130.0(7) . . ?
C59 N7 Ni2 113.1(7) . . ?
C60 N8 C61 117.7(8) . . ?
C60 N8 Ni2 114.5(7) . . ?
C61 N8 Ni2 125.7(7) . . ?
C77 N9 C73 120.1(10) . . ?
C77 N9 Ni3 113.3(8) . . ?
C73 N9 Ni3 126.0(8) . . ?
C78 N10 C79 122.5(8) . . ?
C78 N10 Ni3 108.7(6) . . ?
C79 N10 Ni3 127.4(7) . . ?
C96 N11 C97 121.2(9) . . ?
C96 N11 Ni3 111.3(7) . . ?
C97 N11 Ni3 125.9(7) . . ?
C91 N12 C95 119.9(10) . . ?
C91 N12 Ni3 128.2(7) . . ?
C95 N12 Ni3 111.9(7) . . ?
C109 N13 C113 118.2(11) . . ?
C109 N13 Ni4 129.9(9) . . ?
C113 N13 Ni4 111.9(9) . . ?
C114 N14 C115 121.9(10) . . ?
C114 N14 Ni4 112.2(8) . . ?
C115 N14 Ni4 123.4(8) . . ?
C127 N15 C131 118.4(10) . . ?
C127 N15 Ni4 129.4(8) . . ?
C131 N15 Ni4 112.1(7) . . ?
C132 N16 C133 119.9(10) . . ?
C132 N16 Ni4 111.9(8) . . ?
C133 N16 Ni4 125.8(7) . . ?
C145 N17 C149 119.4(11) . . ?
C145 N17 Ni5 129.3(8) . . ?
C149 N17 Ni5 111.3(8) . . ?
C150 N18 C151 121.1(9) . . ?
C150 N18 Ni5 110.1(7) . . ?
C151 N18 Ni5 126.7(8) . . ?
C163 N19 C167 116.6(10) . . ?
C163 N19 Ni5 128.7(8) . . ?
C167 N19 Ni5 114.4(7) . . ?
C168 N20 C169 117.5(9) . . ?
C168 N20 Ni5 112.8(7) . . ?
C169 N20 Ni5 127.1(7) . . ?
C185 N21 C181 115.1(9) . . ?
C185 N21 Ni6 114.7(7) . . ?
C181 N21 Ni6 129.7(7) . . ?
C186 N22 C187 123.0(9) . . ?
C186 N22 Ni6 111.9(7) . . ?
C187 N22 Ni6 123.6(7) . . ?
C203 N23 C199 121.5(10) . . ?
C203 N23 Ni6 114.1(7) . . ?
C199 N23 Ni6 124.3(8) . . ?
C204 N24 C205 119.5(10) . . ?
C204 N24 Ni6 114.1(8) . . ?
C205 N24 Ni6 124.6(7) . . ?
C217 N25 Ni1 159.9(8) . . ?
C218 N26 Ni2 162.9(7) . . ?
C219 N27 Ni6 158.9(8) . . ?
C223 N31 Ni2 157.5(7) . . ?
C224 N32 Ni3 163.9(8) . . ?
C225 N33 Ni5 159.3(7) . . ?
C229 N37 Ni3 160.1(10) . . ?
C230 N38 Ni4 161.6(8) . . ?
C231 N39 Ni6 164.9(8) . . ?
C235 N43 Ni1 169.5(8) . . ?
C236 N44 Ni4 162.1(9) . . ?
C237 N45 Ni5 162.5(8) . . ?
C241 N49 C245 116.3(9) . . ?
C241 N49 Ni7 130.2(7) . . ?
C245 N49 Ni7 113.0(6) . . ?
C246 N50 C247 123.3(9) . . ?
C246 N50 Ni7 110.2(7) . . ?
C247 N50 Ni7 124.3(7) . . ?
C259 N51 C263 117.2(8) . . ?
C259 N51 Ni7 130.1(6) . . ?
C263 N51 Ni7 112.7(6) . . ?
C264 N52 C265 123.0(10) . . ?
C264 N52 Ni7 110.3(7) . . ?
C265 N52 Ni7 125.2(8) . . ?
C281 N53 C277 119.9(10) . . ?
C281 N53 Ni8 114.8(7) . . ?
C277 N53 Ni8 125.4(8) . . ?
C282 N54 C283 121.9(9) . . ?
C282 N54 Ni8 111.6(7) . . ?
C283 N54 Ni8 124.5(7) . . ?
C295 N55 C299 114.8(8) . . ?
C295 N55 Ni8 129.9(7) . . ?
C299 N55 Ni8 115.0(6) . . ?
C300 N56 C301 118.7(9) . . ?
C300 N56 Ni8 114.5(8) . . ?
C301 N56 Ni8 124.0(7) . . ?
C313 N57 C317 115.7(7) . . ?
C313 N57 Ni9 129.8(6) . . ?
C317 N57 Ni9 114.3(6) . . ?
C318 N58 C319 117.8(8) . . ?
C318 N58 Ni9 112.7(7) . . ?
C319 N58 Ni9 126.8(6) . . ?
C331 N59 C335 118.6(9) . . ?
C331 N59 Ni9 130.6(7) . . ?
C335 N59 Ni9 110.5(6) . . ?
C336 N60 C337 120.7(9) . . ?
C336 N60 Ni9 111.7(7) . . ?
C337 N60 Ni9 127.0(7) . . ?
C349 N61 C353 118.7(9) . . ?
C349 N61 Ni10 128.4(7) . . ?
C353 N61 Ni10 112.8(7) . . ?
C354 N62 C355 120.3(8) . . ?
C354 N62 Ni10 112.3(7) . . ?
C355 N62 Ni10 125.2(6) . . ?
C371 N63 C367 117.2(8) . . ?
C371 N63 Ni10 115.9(6) . . ?
C367 N63 Ni10 126.9(6) . . ?
C372 N64 C373 120.7(8) . . ?
C372 N64 Ni10 111.2(6) . . ?
C373 N64 Ni10 124.8(7) . . ?
C385 N65 C389 115.2(10) . . ?
C385 N65 Ni11 128.3(8) . . ?
C389 N65 Ni11 116.3(7) . . ?
C390 N66 C391 122.7(9) . . ?
C390 N66 Ni11 114.2(8) . . ?
C391 N66 Ni11 122.2(7) . . ?
C403 N67 C407 119.5(10) . . ?
C403 N67 Ni11 128.6(8) . . ?
C407 N67 Ni11 111.9(7) . . ?
C408 N68 C409 117.0(9) . . ?
C408 N68 Ni11 113.3(8) . . ?
C409 N68 Ni11 127.9(6) . . ?
C421 N69 C425 119.2(9) . . ?
C421 N69 Ni12 128.3(7) . . ?
C425 N69 Ni12 112.3(7) . . ?
C426 N70 C427 122.4(10) . . ?
C426 N70 Ni12 112.1(8) . . ?
C427 N70 Ni12 123.7(7) . . ?
C439 N71 C443 119.2(9) . . ?
C439 N71 Ni12 129.1(7) . . ?
C443 N71 Ni12 111.1(7) . . ?
C444 N72 C445 121.6(9) . . ?
C444 N72 Ni12 110.2(6) . . ?
C445 N72 Ni12 126.0(6) . . ?
C457 N73 Ni7 162.2(9) . . ?
C458 N74 Ni8 166.0(9) . . ?
C459 N75 Ni12 165.7(8) . . ?
C463 N79 Ni8 163.7(8) . . ?
C464 N80 Ni9 164.4(8) . . ?
C465 N81 Ni11 165.4(9) . . ?
C469 N85 Ni9 157.7(8) . . ?
C470 N86 Ni10 158.5(7) . . ?
C471 N87 Ni12 160.8(8) . . ?
C475 N91 Ni7 165.0(9) . . ?
C476 N92 Ni10 162.8(7) . . ?
C477 N93 Ni11 162.0(8) . . ?
C485 N97 C481 112.9(18) . . ?
C485 N97 Ni13 115.9(12) . . ?
C481 N97 Ni13 130.0(13) . . ?
C486 N98 C487 122.6(12) . . ?
C486 N98 Ni13 112.2(11) . . ?
C487 N98 Ni13 124.5(10) . . ?
C503 N99 C499 114.6(15) . . ?
C503 N99 Ni13 117.6(12) . . ?
C499 N99 Ni13 127.8(13) . . ?
C504 N100 C505 120.2(16) . . ?
C504 N100 Ni13 108.2(11) . . ?
C505 N100 Ni13 129.5(13) . . ?
C521 N101 C517 115.2(12) . . ?
C521 N101 Ni14 117.9(9) . . ?
C517 N101 Ni14 126.4(10) . . ?
C522 N102 C523 119.5(12) . . ?
C522 N102 Ni14 111.2(9) . . ?
C523 N102 Ni14 128.4(9) . . ?
C539 N103 C535 117.1(12) . . ?
C539 N103 Ni14 114.7(10) . . ?
C535 N103 Ni14 127.7(9) . . ?
C540 N104 C541 121.5(11) . . ?
C540 N104 Ni14 112.2(10) . . ?
C541 N104 Ni14 126.0(9) . . ?
C553 N105 Ni13 170.9(18) . . ?
C554 N106 Ni14 165.5(10) . . ?
C559 N111 Ni13 169.1(11) . . ?
C560 N112 Ni14 163.4(12) . . ?
C572 N117 C565 94.3(17) . . ?
C572 N117 C570 77.6(17) . . ?
C565 N117 C570 113.4(12) . . ?
C572 N117 C567 145(2) . . ?
C565 N117 C567 115.6(18) . . ?
C570 N117 C567 103.7(16) . . ?
C572 N117 C568 95(2) . . ?
C565 N117 C568 123.0(16) . . ?
C570 N117 C568 123.5(15) . . ?
C567 N117 C568 54.9(18) . . ?
C578 N118 C581 90.0(19) . . ?
C578 N118 C576 87.4(15) . . ?
C581 N118 C576 175.9(17) . . ?
C578 N118 C580 74.8(15) . . ?
C581 N118 C580 65.6(16) . . ?
C576 N118 C580 110.5(13) . . ?
C578 N118 C574 161.7(15) . . ?
C581 N118 C574 72.1(17) . . ?
C576 N118 C574 110.6(13) . . ?
C580 N118 C574 100.5(15) . . ?

_diffrn_measured_fraction_theta_max 0.954
_diffrn_reflns_theta_full        27.50
_diffrn_measured_fraction_theta_full 0.954
_refine_diff_density_max         1.694
_refine_diff_density_min         -0.690
_refine_diff_density_rms         0.119

loop_
_platon_squeeze_void_nr
_platon_squeeze_void_average_x
_platon_squeeze_void_average_y
_platon_squeeze_void_average_z
_platon_squeeze_void_volume
_platon_squeeze_void_count_electrons
_platon_squeeze_void_content
1 0.578 0.222 -0.092 4118 1471 '55 (H2O), 51 (CH3OH)'
2 0.422 0.722 0.091 4117 1470 '55 (H2O), 51 (CH3OH)'
3 0.089 0.341 0.052 24 6 '1 (H2O)'
4 0.101 0.485 0.399 44 9 '1 (H2O) '
5 0.843 0.583 0.417 7 3 ' '
6 0.713 0.591 0.468 25 11 '1 (H2O)'
7 0.287 0.091 0.532 25 11 '1 (H2O) '
8 0.899 0.985 0.601 44 9 '1 (H2O) '
9 0.157 0.083 0.583 7 3 ' '
10 0.911 0.841 0.948 24 6 '1 (H2O)'
_platon_squeeze_details          
;
;
