
#######################################################################
#
#                 Cambridge Crystallographic Data Centre
#                                CCDC 
#
#######################################################################
#
# If this CIF has been generated from an entry in the Cambridge 
# Structural Database, then it will include bibliographic, chemical, 
# crystal, experimental, refinement or atomic coordinate data resulting 
# from the CCDC's data processing and validation procedures.
#
#######################################################################

data_IDUVOV
_chemical_formula_moiety         
'C288 H252 Co8 N84 16+,B4 F16 Na1 3-,C4 H8 O1,4(C1 H3 N1 O2),13(B1 F4 1-),4(H2 O1)'
_chemical_name_systematic        
'dodecakis(\m-3,5-bis{[3-(pyridin-2-yl)-1H-pyrazol-1-yl]methyl}aniline)-octa-cobalt tetrakis(tetrafluoroborate)-sodium tridecakis(tetrafluoroborate) nitromethane tetrahydrofuran unknown solvate tetrahydrate'
_symmetry_cell_setting           tetragonal
_symmetry_space_group_name_H-M   'I 41/a c d'
_symmetry_Int_Tables_number      142
_space_group_name_Hall           '-I 4bd 2c'
loop_
_symmetry_equiv_pos_site_id
_symmetry_equiv_pos_as_xyz
1 x,y,z
2 1/4-y,3/4+x,1/4+z
3 1/2-x,-y,1/2+z
4 1/4+y,1/4-x,3/4+z
5 x,-y,1/2-z
6 1/4+y,3/4+x,3/4-z
7 1/2-x,y,-z
8 1/4-y,1/4-x,1/4-z
9 1/2+x,1/2+y,1/2+z
10 3/4-y,1/4+x,3/4+z
11 -x,1/2-y,z
12 3/4+y,3/4-x,1/4+z
13 1/2+x,1/2-y,-z
14 3/4+y,1/4+x,1/4-z
15 -x,1/2+y,1/2-z
16 3/4-y,3/4-x,3/4-z
17 -x,-y,-z
18 3/4+y,1/4-x,3/4-z
19 1/2+x,y,1/2-z
20 3/4-y,3/4+x,1/4-z
21 -x,y,1/2+z
22 3/4-y,1/4-x,1/4+z
23 1/2+x,-y,z
24 3/4+y,3/4+x,3/4+z
25 1/2-x,1/2-y,1/2-z
26 1/4+y,3/4-x,1/4-z
27 x,1/2+y,-z
28 1/4-y,1/4+x,3/4-z
29 1/2-x,1/2+y,z
30 1/4-y,3/4-x,3/4+z
31 x,1/2-y,1/2+z
32 1/4+y,1/4+x,1/4+z
_cell_length_a                   43.2777(5)
_cell_length_b                   43.2777(5)
_cell_length_c                   39.1423(5)
_cell_angle_alpha                90
_cell_angle_beta                 90
_cell_angle_gamma                90
_cell_volume                     73311.9
_exptl_crystal_colour            orange
_exptl_crystal_description       Prism
_cell_formula_units_Z            8
_chemical_properties_physical    Efflorescent
_exptl_crystal_recrystallization_method 
'Re-crystallisation from solvent: nitromethane/tetrahydrofuran'
loop_
_atom_site_label
_atom_site_type_symbol
_atom_site_fract_x
_atom_site_fract_y
_atom_site_fract_z
Co1 Co 0.07873(6) 0.38766(5) 0.26986(5)
Co2 Co 0.15663(5) 0.16511(6) 0.23559(5)
N1 N 0.0904(3) 0.4242(2) 0.2349(2)
C1 C 0.1181(3) 0.4213(3) 0.2174(3)
C2 C 0.1277(3) 0.4446(4) 0.1953(4)
H1 H 0.1467 0.4427 0.1833
C3 C 0.1095(4) 0.4708(3) 0.1909(4)
H2 H 0.1160 0.4867 0.1759
C4 C 0.0818(4) 0.4737(3) 0.2085(4)
H3 H 0.0693 0.4916 0.2055
C5 C 0.0722(3) 0.4504(3) 0.2305(3)
H4 H 0.0532 0.4523 0.2425
N2 N 0.1444(3) 0.3484(2) 0.2503(2)
N3 N 0.1229(2) 0.3731(3) 0.2480(2)
C6 C 0.1350(3) 0.3953(2) 0.2249(3)
C7 C 0.1640(3) 0.3844(3) 0.2130(3)
H5 H 0.1772 0.3946 0.1973
C8 C 0.1698(2) 0.3554(3) 0.2287(3)
H6 H 0.1875 0.3428 0.2253
C9 C 0.1384(4) 0.3227(4) 0.2707(4)
H7 H 0.1247 0.3289 0.2898
H8 H 0.1580 0.3151 0.2805
N4 N 0.1391(3) 0.1290(2) 0.2031(2)
C10 C 0.1072(3) 0.1287(2) 0.1997(3)
C11 C 0.0930(2) 0.1061(3) 0.1798(3)
H9 H 0.0712 0.1059 0.1774
C12 C 0.1108(3) 0.0839(3) 0.1634(3)
H10 H 0.1011 0.0685 0.1498
C13 C 0.1428(3) 0.0842(2) 0.1668(3)
H11 H 0.1549 0.0690 0.1556
C14 C 0.1569(2) 0.1067(3) 0.1867(3)
H12 H 0.1788 0.1069 0.1891
N5 N 0.0881(2) 0.1914(2) 0.2540(2)
N6 N 0.10902(19) 0.1705(2) 0.2383(2)
C15 C 0.0917(3) 0.1506(2) 0.2167(2)
C16 C 0.0601(2) 0.1593(3) 0.2191(3)
H13 H 0.0434 0.1498 0.2073
C17 C 0.0579(2) 0.1845(2) 0.2421(3)
H14 H 0.0395 0.1949 0.2484
C18 C 0.0974(4) 0.2170(4) 0.2737(4)
H15 H 0.1164 0.2117 0.2865
H16 H 0.0811 0.2220 0.2905
C19 C 0.0971(2) 0.2755(2) 0.20136(17)
C20 C 0.1122(2) 0.29995(19) 0.2173(2)
H17 H 0.1152 0.3189 0.2054
C21 C 0.1230(2) 0.2967(2) 0.2505(2)
C22 C 0.1186(2) 0.2690(2) 0.26788(17)
H18 H 0.1260 0.2668 0.2906
C23 C 0.1035(2) 0.24460(19) 0.2520(2)
C24 C 0.0927(2) 0.2479(2) 0.2187(2)
H19 H 0.0824 0.2312 0.2079
N7 N 0.0866(3) 0.2791(3) 0.1683(3)
H20 H 0.0895 0.2967 0.1574
H21 H 0.0770 0.2637 0.1580
N8 N 0.1024(3) 0.4152(2) 0.30829(19)
C25 C 0.08336(19) 0.4361(2) 0.3250(2)
C26 C 0.0959(3) 0.4572(2) 0.3480(2)
H22 H 0.0828 0.4715 0.3594
C27 C 0.1275(3) 0.4573(2) 0.3542(2)
H23 H 0.1361 0.4717 0.3699
C28 C 0.1466(2) 0.4364(3) 0.3375(3)
H24 H 0.1682 0.4364 0.3417
C29 C 0.1341(2) 0.4153(2) 0.3145(2)
H25 H 0.1471 0.4010 0.3031
N9 N 0.0098(2) 0.4140(2) 0.2918(2)
N10 N 0.0425(2) 0.4129(2) 0.2929(2)
C30 C 0.0527(2) 0.4342(2) 0.3181(2)
C31 C 0.0262(3) 0.4484(2) 0.3326(2)
H26 H 0.0263 0.4636 0.3500
C32 C -0.0003(2) 0.4359(2) 0.3163(2)
H27 H -0.0212 0.4413 0.3211
C33 C -0.0069(4) 0.3952(4) 0.2683(4)
H28 H -0.0042 0.3731 0.2743
H29 H 0.0011 0.3985 0.2449
N11 N -0.2036(2) 0.3496(3) 0.2301(3)
C34 C -0.2136(2) 0.3720(3) 0.2529(2)
C35 C -0.2439(3) 0.3827(3) 0.2513(3)
H30 H -0.2508 0.3981 0.2669
C36 C -0.2641(2) 0.3710(3) 0.2269(3)
H31 H -0.2847 0.3783 0.2258
C37 C -0.2540(2) 0.3486(3) 0.2041(3)
H32 H -0.2678 0.3405 0.1874
C38 C -0.2237(3) 0.3378(3) 0.2057(3)
H33 H -0.2169 0.3225 0.1901
N12 N -0.1450(2) 0.3809(3) 0.3027(2)
N13 N -0.1632(2) 0.3677(2) 0.2763(2)
C39 C -0.1927(2) 0.3821(3) 0.2768(3)
C40 C -0.1927(2) 0.4043(3) 0.3036(3)
H34 H -0.2095 0.4173 0.3097
C41 C -0.1632(3) 0.4035(2) 0.3196(2)
H35 H -0.1569 0.4160 0.3383
C42 C -0.1146(4) 0.3738(4) 0.3076(4)
H36 H -0.1111 0.3521 0.3006
H37 H -0.1098 0.3754 0.3322
C43 C -0.0821(3) 0.4376(2) 0.2519(2)
C44 C -0.0510(3) 0.4296(2) 0.2518(2)
H38 H -0.0366 0.4417 0.2394
C45 C -0.0410(2) 0.4038(3) 0.2700(3)
C46 C -0.0621(3) 0.3861(2) 0.2882(2)
H39 H -0.0553 0.3685 0.3006
C47 C -0.0932(2) 0.3941(2) 0.2883(2)
C48 C -0.1032(2) 0.4198(3) 0.2701(3)
H40 H -0.1245 0.4253 0.2702
N14 N -0.0910(4) 0.4642(3) 0.2335(3)
H41 H -0.0770 0.4751 0.2225
H42 H -0.1105 0.4699 0.2331
N15 N 0.0543(2) 0.3606(2) 0.2326(2)
C49 C 0.0453(3) 0.3315(2) 0.24403(18)
C50 C 0.0282(3) 0.3122(2) 0.2228(3)
H43 H 0.0220 0.2924 0.2307
C51 C 0.0201(2) 0.3220(2) 0.1902(2)
H44 H 0.0084 0.3089 0.1758
C52 C 0.0291(3) 0.3511(3) 0.17880(19)
H45 H 0.0236 0.3577 0.1565
C53 C 0.0462(3) 0.3703(2) 0.2000(2)
H46 H 0.0524 0.3902 0.1922
N16 N 0.0731(2) 0.3345(2) 0.32921(18)
N17 N 0.0672(2) 0.34707(18) 0.2964(2)
C54 C 0.0527(2) 0.3239(2) 0.27631(17)
C55 C 0.0497(2) 0.29695(19) 0.2968(2)
H47 H 0.0408 0.2779 0.2898
C56 C 0.0623(3) 0.3035(2) 0.3295(2)
H48 H 0.0633 0.2896 0.3482
C57 C 0.0815(4) 0.3528(4) 0.3576(3)
H49 H 0.0987 0.3664 0.3506
H50 H 0.0895 0.3389 0.3756
N18 N 0.0509(2) 0.4065(2) 0.5538(2)
C58 C 0.0231(3) 0.4209(2) 0.54602(17)
C59 C -0.0012(2) 0.4200(2) 0.5692(2)
H51 H -0.0203 0.4299 0.5639
C60 C 0.0023(2) 0.4046(2) 0.6001(2)
H52 H -0.0144 0.4040 0.6160
C61 C 0.0301(3) 0.3902(2) 0.60791(17)
H53 H 0.0325 0.3797 0.6291
C62 C 0.0544(2) 0.3911(2) 0.5847(2)
H54 H 0.0734 0.3813 0.5900
N19 N 0.0390(3) 0.4458(2) 0.46137(19)
N20 N 0.0446(2) 0.4269(2) 0.4904(2)
C63 C 0.0213(3) 0.4332(2) 0.51492(19)
C64 C 0.0012(2) 0.4560(3) 0.5010(3)
H55 H -0.0164 0.4645 0.5120
C65 C 0.0122(3) 0.4638(2) 0.4680(2)
H56 H 0.0032 0.4784 0.4529
C66 C 0.0533(5) 0.4435(4) 0.4306(3)
H57 H 0.0759 0.4432 0.4344
H58 H 0.0484 0.4621 0.4170
C67 C 0.0038(2) 0.3844(3) 0.3840(2)
C68 C 0.0259(3) 0.3662(2) 0.3679(2)
H59 H 0.0196 0.3497 0.3535
C69 C 0.0571(2) 0.3722(2) 0.3727(2)
C70 C 0.0663(2) 0.3965(2) 0.3938(2)
H60 H 0.0876 0.4006 0.3971
C71 C 0.0442(3) 0.41466(19) 0.4099(2)
C72 C 0.0130(3) 0.4087(2) 0.4050(2)
H61 H -0.0021 0.4211 0.4161
N21 N -0.0285(3) 0.3783(3) 0.3782(3)
H62 H -0.0341 0.3632 0.3645
H63 H -0.0426 0.3897 0.3883
Co1J Co -0.07873(6) 0.11234(5) 0.26986(5)
Co2J Co -0.15663(5) 0.33489(6) 0.23559(5)
N1J N -0.0904(3) 0.0758(2) 0.2349(2)
C1J C -0.1181(3) 0.0787(3) 0.2174(3)
C2J C -0.1277(3) 0.0554(4) 0.1953(4)
H1J H -0.1467 0.0573 0.1833
C3J C -0.1095(4) 0.0292(3) 0.1909(4)
H2J H -0.1160 0.0133 0.1759
C4J C -0.0818(4) 0.0263(3) 0.2085(4)
H3J H -0.0693 0.0084 0.2055
C5J C -0.0722(3) 0.0496(3) 0.2305(3)
H4J H -0.0532 0.0477 0.2425
N2J N -0.1444(3) 0.1516(2) 0.2503(2)
N3J N -0.1229(2) 0.1269(3) 0.2480(2)
C6J C -0.1350(3) 0.1047(2) 0.2249(3)
C7J C -0.1640(3) 0.1156(3) 0.2130(3)
H5J H -0.1772 0.1054 0.1973
C8J C -0.1698(2) 0.1446(3) 0.2287(3)
H6J H -0.1875 0.1572 0.2253
C9J C -0.1384(4) 0.1773(4) 0.2707(4)
H7J H -0.1247 0.1711 0.2898
H8J H -0.1580 0.1849 0.2805
N4J N -0.1391(3) 0.3710(2) 0.2031(2)
C10J C -0.1072(3) 0.3713(2) 0.1997(3)
C11J C -0.0930(2) 0.3939(3) 0.1798(3)
H9J H -0.0712 0.3941 0.1774
C12J C -0.1108(3) 0.4161(3) 0.1634(3)
H10J H -0.1011 0.4315 0.1498
C13J C -0.1428(3) 0.4158(2) 0.1668(3)
H11J H -0.1549 0.4310 0.1556
C14J C -0.1569(2) 0.3933(3) 0.1867(3)
H12J H -0.1788 0.3931 0.1891
N5J N -0.0881(2) 0.3086(2) 0.2540(2)
N6J N -0.10902(19) 0.3295(2) 0.2383(2)
C15J C -0.0917(3) 0.3494(2) 0.2167(2)
C16J C -0.0601(2) 0.3407(3) 0.2191(3)
H13J H -0.0434 0.3502 0.2073
C17J C -0.0579(2) 0.3155(2) 0.2421(3)
H14J H -0.0395 0.3051 0.2484
C18J C -0.0974(4) 0.2830(4) 0.2737(4)
H15J H -0.1164 0.2883 0.2865
H16J H -0.0811 0.2780 0.2905
C19J C -0.0971(2) 0.2245(2) 0.20136(17)
C20J C -0.1122(2) 0.20005(19) 0.2173(2)
H17J H -0.1152 0.1811 0.2054
C21J C -0.1230(2) 0.2033(2) 0.2505(2)
C22J C -0.1186(2) 0.2310(2) 0.26788(17)
H18J H -0.1260 0.2332 0.2906
C23J C -0.1035(2) 0.25540(19) 0.2520(2)
C24J C -0.0927(2) 0.2521(2) 0.2187(2)
H19J H -0.0824 0.2688 0.2079
N7J N -0.0866(3) 0.2209(3) 0.1683(3)
H20J H -0.0895 0.2033 0.1574
H21J H -0.0770 0.2363 0.1580
N8J N -0.1024(3) 0.0848(2) 0.30829(19)
C25J C -0.08336(19) 0.0639(2) 0.3250(2)
C26J C -0.0959(3) 0.0428(2) 0.3480(2)
H22J H -0.0828 0.0285 0.3594
C27J C -0.1275(3) 0.0427(2) 0.3542(2)
H23J H -0.1361 0.0283 0.3699
C28J C -0.1466(2) 0.0636(3) 0.3375(3)
H24J H -0.1682 0.0636 0.3417
C29J C -0.1341(2) 0.0847(2) 0.3145(2)
H25J H -0.1471 0.0990 0.3031
N9J N -0.0098(2) 0.0860(2) 0.2918(2)
N10J N -0.0425(2) 0.0871(2) 0.2929(2)
C30J C -0.0527(2) 0.0658(2) 0.3181(2)
C31J C -0.0262(3) 0.0516(2) 0.3326(2)
H26J H -0.0263 0.0364 0.3500
C32J C 0.0003(2) 0.0641(2) 0.3163(2)
H27J H 0.0212 0.0587 0.3211
C33J C 0.0069(4) 0.1048(4) 0.2683(4)
H28J H 0.0042 0.1269 0.2743
H29J H -0.0011 0.1015 0.2449
N11J N 0.2036(2) 0.1504(3) 0.2301(3)
C34J C 0.2136(2) 0.1280(3) 0.2529(2)
C35J C 0.2439(3) 0.1173(3) 0.2513(3)
H30J H 0.2508 0.1019 0.2669
C36J C 0.2641(2) 0.1290(3) 0.2269(3)
H31J H 0.2847 0.1217 0.2258
C37J C 0.2540(2) 0.1514(3) 0.2041(3)
H32J H 0.2678 0.1595 0.1874
C38J C 0.2237(3) 0.1622(3) 0.2057(3)
H33J H 0.2169 0.1775 0.1901
N12J N 0.1450(2) 0.1191(3) 0.3027(2)
N13J N 0.1632(2) 0.1323(2) 0.2763(2)
C39J C 0.1927(2) 0.1179(3) 0.2768(3)
C40J C 0.1927(2) 0.0957(3) 0.3036(3)
H34J H 0.2095 0.0827 0.3097
C41J C 0.1632(3) 0.0965(2) 0.3196(2)
H35J H 0.1569 0.0840 0.3383
C42J C 0.1146(4) 0.1262(4) 0.3076(4)
H36J H 0.1111 0.1479 0.3006
H37J H 0.1098 0.1246 0.3322
C43J C 0.0821(3) 0.0624(2) 0.2519(2)
C44J C 0.0510(3) 0.0704(2) 0.2518(2)
H38J H 0.0366 0.0583 0.2394
C45J C 0.0410(2) 0.0962(3) 0.2700(3)
C46J C 0.0621(3) 0.1139(2) 0.2882(2)
H39J H 0.0553 0.1315 0.3006
C47J C 0.0932(2) 0.1059(2) 0.2883(2)
C48J C 0.1032(2) 0.0802(3) 0.2701(3)
H40J H 0.1245 0.0747 0.2702
N14J N 0.0910(4) 0.0358(3) 0.2335(3)
H41J H 0.0770 0.0249 0.2225
H42J H 0.1105 0.0301 0.2331
N15J N -0.0543(2) 0.1394(2) 0.2326(2)
C49J C -0.0453(3) 0.1685(2) 0.24403(18)
C50J C -0.0282(3) 0.1878(2) 0.2228(3)
H43J H -0.0220 0.2076 0.2307
C51J C -0.0201(2) 0.1780(2) 0.1902(2)
H44J H -0.0084 0.1911 0.1758
C52J C -0.0291(3) 0.1489(3) 0.17880(19)
H45J H -0.0236 0.1423 0.1565
C53J C -0.0462(3) 0.1297(2) 0.2000(2)
H46J H -0.0524 0.1098 0.1922
N16J N -0.0731(2) 0.1655(2) 0.32921(18)
N17J N -0.0672(2) 0.15293(18) 0.2964(2)
C54J C -0.0527(2) 0.1761(2) 0.27631(17)
C55J C -0.0497(2) 0.20305(19) 0.2968(2)
H47J H -0.0408 0.2221 0.2898
C56J C -0.0623(3) 0.1965(2) 0.3295(2)
H48J H -0.0633 0.2104 0.3482
C57J C -0.0815(4) 0.1472(4) 0.3576(3)
H49J H -0.0987 0.1336 0.3506
H50J H -0.0895 0.1611 0.3756
N18J N -0.0509(2) 0.0935(2) 0.5538(2)
C58J C -0.0231(3) 0.0791(2) 0.54602(17)
C59J C 0.0012(2) 0.0800(2) 0.5692(2)
H51J H 0.0203 0.0701 0.5639
C60J C -0.0023(2) 0.0954(2) 0.6001(2)
H52J H 0.0144 0.0960 0.6160
C61J C -0.0301(3) 0.1098(2) 0.60791(17)
H53J H -0.0325 0.1203 0.6291
C62J C -0.0544(2) 0.1089(2) 0.5847(2)
H54J H -0.0734 0.1187 0.5900
N19J N -0.0390(3) 0.0542(2) 0.46137(19)
N20J N -0.0446(2) 0.0731(2) 0.4904(2)
C63J C -0.0213(3) 0.0668(2) 0.51492(19)
C64J C -0.0012(2) 0.0440(3) 0.5010(3)
H55J H 0.0164 0.0355 0.5120
C65J C -0.0122(3) 0.0362(2) 0.4680(2)
H56J H -0.0032 0.0216 0.4529
C66J C -0.0533(5) 0.0565(4) 0.4306(3)
H57J H -0.0759 0.0568 0.4344
H58J H -0.0484 0.0379 0.4170
C67J C -0.0038(2) 0.1156(3) 0.3840(2)
C68J C -0.0259(3) 0.1338(2) 0.3679(2)
H59J H -0.0196 0.1503 0.3535
C69J C -0.0571(2) 0.1278(2) 0.3727(2)
C70J C -0.0663(2) 0.1035(2) 0.3938(2)
H60J H -0.0876 0.0994 0.3971
C71J C -0.0442(3) 0.08534(19) 0.4099(2)
C72J C -0.0130(3) 0.0913(2) 0.4050(2)
H61J H 0.0021 0.0789 0.4161
N21J N 0.0285(3) 0.1217(3) 0.3782(3)
H62J H 0.0341 0.1368 0.3645
H63J H 0.0426 0.1103 0.3883
Co1Q Co 0.13766(5) 0.17127(6) 0.48014(5)
Co2Q Co -0.08489(6) 0.09337(5) 0.51441(5)
N1Q N 0.1742(2) 0.1596(3) 0.5151(2)
C1Q C 0.1713(3) 0.1319(3) 0.5326(3)
C2Q C 0.1946(4) 0.1223(3) 0.5547(4)
H1Q H 0.1927 0.1033 0.5667
C3Q C 0.2208(3) 0.1405(4) 0.5591(4)
H2Q H 0.2367 0.1340 0.5741
C4Q C 0.2237(3) 0.1682(4) 0.5415(4)
H3Q H 0.2416 0.1807 0.5445
C5Q C 0.2004(3) 0.1778(3) 0.5195(3)
H4Q H 0.2023 0.1968 0.5075
N2Q N 0.0984(2) 0.1056(3) 0.4997(2)
N3Q N 0.1231(3) 0.1271(2) 0.5020(2)
C6Q C 0.1453(2) 0.1150(3) 0.5251(3)
C7Q C 0.1344(3) 0.0860(3) 0.5370(3)
H5Q H 0.1446 0.0728 0.5527
C8Q C 0.1054(3) 0.0802(2) 0.5213(3)
H6Q H 0.0928 0.0625 0.5247
C9Q C 0.0727(4) 0.1116(4) 0.4793(4)
H7Q H 0.0789 0.1253 0.4602
H8Q H 0.0651 0.0920 0.4695
N4Q N -0.1210(2) 0.1109(3) 0.5469(2)
C10Q C -0.1213(2) 0.1428(3) 0.5503(3)
C11Q C -0.1439(3) 0.1570(2) 0.5702(3)
H9Q H -0.1441 0.1788 0.5726
C12Q C -0.1661(3) 0.1392(3) 0.5866(3)
H10Q H -0.1815 0.1489 0.6002
C13Q C -0.1658(2) 0.1072(3) 0.5832(3)
H11Q H -0.1810 0.0951 0.5944
C14Q C -0.1433(3) 0.0931(2) 0.5633(3)
H12Q H -0.1431 0.0712 0.5609
N5Q N -0.0586(2) 0.1619(2) 0.4960(2)
N6Q N -0.0795(2) 0.14098(19) 0.5117(2)
C15Q C -0.0994(2) 0.1583(3) 0.5333(2)
C16Q C -0.0907(3) 0.1899(2) 0.5309(3)
H13Q H -0.1002 0.2066 0.5427
C17Q C -0.0655(2) 0.1921(2) 0.5079(3)
H14Q H -0.0551 0.2105 0.5016
C18Q C -0.0330(4) 0.1526(4) 0.4763(4)
H15Q H -0.0383 0.1336 0.4635
H16Q H -0.0280 0.1689 0.4595
C19Q C 0.0255(2) 0.1529(2) 0.54864(17)
C20Q C 0.04995(19) 0.1378(2) 0.5327(2)
H17Q H 0.0689 0.1348 0.5446
C21Q C 0.0467(2) 0.1270(2) 0.4995(2)
C22Q C 0.0190(2) 0.1314(2) 0.48212(17)
H18Q H 0.0168 0.1240 0.4594
C23Q C -0.00540(19) 0.1465(2) 0.4980(2)
C24Q C -0.0021(2) 0.1573(2) 0.5313(2)
H19Q H -0.0188 0.1676 0.5421
N7Q N 0.0291(3) 0.1634(3) 0.5817(3)
H20Q H 0.0467 0.1605 0.5926
H21Q H 0.0137 0.1730 0.5920
N8Q N 0.1652(2) 0.1476(3) 0.44171(19)
C25Q C 0.1861(2) 0.16664(19) 0.4250(2)
C26Q C 0.2072(2) 0.1541(3) 0.4020(2)
H22Q H 0.2215 0.1672 0.3906
C27Q C 0.2073(2) 0.1225(3) 0.3958(2)
H23Q H 0.2217 0.1139 0.3801
C28Q C 0.1864(3) 0.1034(2) 0.4125(3)
H24Q H 0.1864 0.0818 0.4083
C29Q C 0.1653(2) 0.1159(2) 0.4355(2)
H25Q H 0.1510 0.1029 0.4469
N9Q N 0.1640(2) 0.2402(2) 0.4582(2)
N10Q N 0.1629(2) 0.2075(2) 0.4571(2)
C30Q C 0.1842(2) 0.1973(2) 0.4319(2)
C31Q C 0.1984(2) 0.2238(3) 0.4174(2)
H26Q H 0.2136 0.2237 0.4000
C32Q C 0.1859(2) 0.2503(2) 0.4337(2)
H27Q H 0.1913 0.2712 0.4289
C33Q C 0.1452(4) 0.2569(4) 0.4817(4)
H28Q H 0.1231 0.2542 0.4757
H29Q H 0.1485 0.2489 0.5051
N11Q N 0.0996(3) 0.4536(2) 0.5199(3)
C34Q C 0.1220(3) 0.4636(2) 0.4971(2)
C35Q C 0.1327(3) 0.4939(3) 0.4987(3)
H30Q H 0.1481 0.5008 0.4831
C36Q C 0.1210(3) 0.5141(2) 0.5231(3)
H31Q H 0.1283 0.5347 0.5242
C37Q C 0.0986(3) 0.5040(2) 0.5459(3)
H32Q H 0.0905 0.5178 0.5626
C38Q C 0.0878(3) 0.4737(3) 0.5443(3)
H33Q H 0.0725 0.4669 0.5599
N12Q N 0.1309(3) 0.3950(2) 0.4473(2)
N13Q N 0.1177(2) 0.4132(2) 0.4737(2)
C39Q C 0.1321(3) 0.4427(2) 0.4732(3)
C40Q C 0.1543(3) 0.4427(2) 0.4464(3)
H34Q H 0.1673 0.4595 0.4403
C41Q C 0.1535(2) 0.4132(3) 0.4304(2)
H35Q H 0.1660 0.4069 0.4117
C42Q C 0.1238(4) 0.3646(4) 0.4424(4)
H36Q H 0.1021 0.3611 0.4494
H37Q H 0.1254 0.3598 0.4178
C43Q C 0.1876(2) 0.3321(3) 0.4981(2)
C44Q C 0.1796(2) 0.3010(3) 0.4982(2)
H38Q H 0.1917 0.2866 0.5106
C45Q C 0.1538(3) 0.2910(2) 0.4800(3)
C46Q C 0.1361(2) 0.3121(3) 0.4618(2)
H39Q H 0.1185 0.3053 0.4494
C47Q C 0.1441(2) 0.3432(2) 0.4617(2)
C48Q C 0.1698(3) 0.3532(2) 0.4799(3)
H40Q H 0.1753 0.3745 0.4798
N14Q N 0.2142(3) 0.3410(4) 0.5165(3)
H41Q H 0.2251 0.3270 0.5275
H42Q H 0.2199 0.3605 0.5169
N15Q N 0.1106(2) 0.1957(2) 0.5174(2)
C49Q C 0.0815(2) 0.2047(3) 0.50597(18)
C50Q C 0.0622(2) 0.2218(3) 0.5272(3)
H43Q H 0.0424 0.2280 0.5193
C51Q C 0.0720(2) 0.2299(2) 0.5598(2)
H44Q H 0.0589 0.2416 0.5742
C52Q C 0.1011(3) 0.2209(3) 0.57120(19)
H45Q H 0.1077 0.2264 0.5935
C53Q C 0.1203(2) 0.2038(3) 0.5500(2)
H46Q H 0.1402 0.1976 0.5578
N16Q N 0.0845(2) 0.1769(2) 0.42079(18)
N17Q N 0.09707(18) 0.1828(2) 0.4536(2)
C54Q C 0.0739(2) 0.1973(2) 0.47369(17)
C55Q C 0.04695(19) 0.2003(2) 0.4532(2)
H47Q H 0.0279 0.2092 0.4602
C56Q C 0.0535(2) 0.1877(3) 0.4205(2)
H48Q H 0.0396 0.1867 0.4018
C57Q C 0.1028(4) 0.1685(4) 0.3924(3)
H49Q H 0.1164 0.1513 0.3994
H50Q H 0.0889 0.1605 0.3744
N18Q N 0.1565(2) 0.1991(2) 0.1962(2)
C58Q C 0.1709(2) 0.2269(3) 0.20398(17)
C59Q C 0.1700(2) 0.2512(2) 0.1808(2)
H51Q H 0.1799 0.2703 0.1861
C60Q C 0.1546(2) 0.2477(2) 0.1499(2)
H52Q H 0.1540 0.2644 0.1340
C61Q C 0.1402(2) 0.2199(3) 0.14209(17)
H53Q H 0.1297 0.2175 0.1209
C62Q C 0.1411(2) 0.1956(2) 0.1653(2)
H54Q H 0.1313 0.1766 0.1600
N19Q N 0.1958(2) 0.2110(3) 0.28863(19)
N20Q N 0.1769(2) 0.2054(2) 0.2596(2)
C63Q C 0.1832(2) 0.2287(3) 0.23508(19)
C64Q C 0.2060(3) 0.2488(2) 0.2490(3)
H55Q H 0.2145 0.2664 0.2380
C65Q C 0.2138(2) 0.2378(3) 0.2820(2)
H56Q H 0.2284 0.2468 0.2971
C66Q C 0.1935(4) 0.1967(5) 0.3194(3)
H57Q H 0.1932 0.1741 0.3156
H58Q H 0.2121 0.2016 0.3330
C67Q C 0.1344(3) 0.2462(2) 0.3660(2)
C68Q C 0.1162(2) 0.2241(3) 0.3821(2)
H59Q H 0.0997 0.2304 0.3965
C69Q C 0.1222(2) 0.1929(2) 0.3773(2)
C70Q C 0.1465(2) 0.1837(2) 0.3562(2)
H60Q H 0.1506 0.1624 0.3529
C71Q C 0.16466(19) 0.2058(3) 0.3401(2)
C72Q C 0.1587(2) 0.2370(3) 0.3450(2)
H61Q H 0.1711 0.2521 0.3339
N21Q N 0.1283(3) 0.2785(3) 0.3718(3)
H62Q H 0.1132 0.2841 0.3855
H63Q H 0.1397 0.2926 0.3617
Co1AA Co -0.13766(5) 0.32873(6) 0.48014(5)
Co2AA Co 0.08489(6) 0.40663(5) 0.51441(5)
N1AA N -0.1742(2) 0.3404(3) 0.5151(2)
C1AA C -0.1713(3) 0.3681(3) 0.5326(3)
C2AA C -0.1946(4) 0.3777(3) 0.5547(4)
H1AA H -0.1927 0.3967 0.5667
C3AA C -0.2208(3) 0.3595(4) 0.5591(4)
H2AA H -0.2367 0.3660 0.5741
C4AA C -0.2237(3) 0.3318(4) 0.5415(4)
H3AA H -0.2416 0.3193 0.5445
C5AA C -0.2004(3) 0.3222(3) 0.5195(3)
H4AA H -0.2023 0.3032 0.5075
N2AA N -0.0984(2) 0.3944(3) 0.4997(2)
N3AA N -0.1231(3) 0.3729(2) 0.5020(2)
C6AA C -0.1453(2) 0.3850(3) 0.5251(3)
C7AA C -0.1344(3) 0.4140(3) 0.5370(3)
H5AA H -0.1446 0.4272 0.5527
C8AA C -0.1054(3) 0.4198(2) 0.5213(3)
H6AA H -0.0928 0.4375 0.5247
C9AA C -0.0727(4) 0.3884(4) 0.4793(4)
H7AA H -0.0789 0.3747 0.4602
H8AA H -0.0651 0.4080 0.4695
N4AA N 0.1210(2) 0.3891(3) 0.5469(2)
C10AA C 0.1213(2) 0.3572(3) 0.5503(3)
C11AA C 0.1439(3) 0.3430(2) 0.5702(3)
H9AA H 0.1441 0.3212 0.5726
C12AA C 0.1661(3) 0.3608(3) 0.5866(3)
H10AA H 0.1815 0.3511 0.6002
C13AA C 0.1658(2) 0.3928(3) 0.5832(3)
H11AA H 0.1810 0.4049 0.5944
C14AA C 0.1433(3) 0.4069(2) 0.5633(3)
H12AA H 0.1431 0.4288 0.5609
N5AA N 0.0586(2) 0.3381(2) 0.4960(2)
N6AA N 0.0795(2) 0.35902(19) 0.5117(2)
C15AA C 0.0994(2) 0.3417(3) 0.5333(2)
C16AA C 0.0907(3) 0.3101(2) 0.5309(3)
H13AA H 0.1002 0.2934 0.5427
C17AA C 0.0655(2) 0.3079(2) 0.5079(3)
H14AA H 0.0551 0.2895 0.5016
C18AA C 0.0330(4) 0.3474(4) 0.4763(4)
H15AA H 0.0383 0.3664 0.4635
H16AA H 0.0280 0.3311 0.4595
C19AA C -0.0255(2) 0.3471(2) 0.54864(17)
C20AA C -0.04995(19) 0.3622(2) 0.5327(2)
H17AA H -0.0689 0.3652 0.5446
C21AA C -0.0467(2) 0.3730(2) 0.4995(2)
C22AA C -0.0190(2) 0.3686(2) 0.48212(17)
H18AA H -0.0168 0.3760 0.4594
C23AA C 0.00540(19) 0.3535(2) 0.4980(2)
C24AA C 0.0021(2) 0.3427(2) 0.5313(2)
H19AA H 0.0188 0.3324 0.5421
N7AA N -0.0291(3) 0.3366(3) 0.5817(3)
H20AA H -0.0467 0.3395 0.5926
H21AA H -0.0137 0.3270 0.5920
N8AA N -0.1652(2) 0.3524(3) 0.44171(19)
C25AA C -0.1861(2) 0.33336(19) 0.4250(2)
C26AA C -0.2072(2) 0.3459(3) 0.4020(2)
H22AA H -0.2215 0.3328 0.3906
C27AA C -0.2073(2) 0.3775(3) 0.3958(2)
H23AA H -0.2217 0.3861 0.3801
C28AA C -0.1864(3) 0.3966(2) 0.4125(3)
H24AA H -0.1864 0.4182 0.4083
C29AA C -0.1653(2) 0.3841(2) 0.4355(2)
H25AA H -0.1510 0.3971 0.4469
N9AA N -0.1640(2) 0.2598(2) 0.4582(2)
N10AA N -0.1629(2) 0.2925(2) 0.4571(2)
C30AA C -0.1842(2) 0.3027(2) 0.4319(2)
C31AA C -0.1984(2) 0.2762(3) 0.4174(2)
H26AA H -0.2136 0.2763 0.4000
C32AA C -0.1859(2) 0.2497(2) 0.4337(2)
H27AA H -0.1913 0.2288 0.4289
C33AA C -0.1452(4) 0.2431(4) 0.4817(4)
H28AA H -0.1231 0.2458 0.4757
H29AA H -0.1485 0.2511 0.5051
N11AA N -0.0996(3) 0.0464(2) 0.5199(3)
C34AA C -0.1220(3) 0.0364(2) 0.4971(2)
C35AA C -0.1327(3) 0.0061(3) 0.4987(3)
H30AA H -0.1481 -0.0008 0.4831
C36AA C -0.1210(3) -0.0141(2) 0.5231(3)
H31AA H -0.1283 -0.0347 0.5242
C37AA C -0.0986(3) -0.0040(2) 0.5459(3)
H32AA H -0.0905 -0.0178 0.5626
C38AA C -0.0878(3) 0.0263(3) 0.5443(3)
H33AA H -0.0725 0.0331 0.5599
N12AA N -0.1309(3) 0.1050(2) 0.4473(2)
N13AA N -0.1177(2) 0.0868(2) 0.4737(2)
C39AA C -0.1321(3) 0.0573(2) 0.4732(3)
C40AA C -0.1543(3) 0.0573(2) 0.4464(3)
H34AA H -0.1673 0.0405 0.4403
C41AA C -0.1535(2) 0.0868(3) 0.4304(2)
H35AA H -0.1660 0.0931 0.4117
C42AA C -0.1238(4) 0.1354(4) 0.4424(4)
H36AA H -0.1021 0.1389 0.4494
H37AA H -0.1254 0.1402 0.4178
C43AA C -0.1876(2) 0.1679(3) 0.4981(2)
C44AA C -0.1796(2) 0.1990(3) 0.4982(2)
H38AA H -0.1917 0.2134 0.5106
C45AA C -0.1538(3) 0.2090(2) 0.4800(3)
C46AA C -0.1361(2) 0.1879(3) 0.4618(2)
H39AA H -0.1185 0.1947 0.4494
C47AA C -0.1441(2) 0.1568(2) 0.4617(2)
C48AA C -0.1698(3) 0.1468(2) 0.4799(3)
H40AA H -0.1753 0.1255 0.4798
N14AA N -0.2142(3) 0.1590(4) 0.5165(3)
H41AA H -0.2251 0.1730 0.5275
H42AA H -0.2199 0.1395 0.5169
N15AA N -0.1106(2) 0.3043(2) 0.5174(2)
C49AA C -0.0815(2) 0.2953(3) 0.50597(18)
C50AA C -0.0622(2) 0.2782(3) 0.5272(3)
H43AA H -0.0424 0.2720 0.5193
C51AA C -0.0720(2) 0.2701(2) 0.5598(2)
H44AA H -0.0589 0.2584 0.5742
C52AA C -0.1011(3) 0.2791(3) 0.57120(19)
H45AA H -0.1077 0.2736 0.5935
C53AA C -0.1203(2) 0.2962(3) 0.5500(2)
H46AA H -0.1402 0.3024 0.5578
N16AA N -0.0845(2) 0.3231(2) 0.42079(18)
N17AA N -0.09707(18) 0.3172(2) 0.4536(2)
C54AA C -0.0739(2) 0.3027(2) 0.47369(17)
C55AA C -0.04695(19) 0.2997(2) 0.4532(2)
H47AA H -0.0279 0.2908 0.4602
C56AA C -0.0535(2) 0.3123(3) 0.4205(2)
H48AA H -0.0396 0.3133 0.4018
C57AA C -0.1028(4) 0.3315(4) 0.3924(3)
H49AA H -0.1164 0.3487 0.3994
H50AA H -0.0889 0.3395 0.3744
N18AA N -0.1565(2) 0.3009(2) 0.1962(2)
C58AA C -0.1709(2) 0.2731(3) 0.20398(17)
C59AA C -0.1700(2) 0.2488(2) 0.1808(2)
H51AA H -0.1799 0.2297 0.1861
C60AA C -0.1546(2) 0.2523(2) 0.1499(2)
H52AA H -0.1540 0.2356 0.1340
C61AA C -0.1402(2) 0.2801(3) 0.14209(17)
H53AA H -0.1297 0.2825 0.1209
C62AA C -0.1411(2) 0.3044(2) 0.1653(2)
H54AA H -0.1313 0.3234 0.1600
N19AA N -0.1958(2) 0.2890(3) 0.28863(19)
N20AA N -0.1769(2) 0.2946(2) 0.2596(2)
C63AA C -0.1832(2) 0.2713(3) 0.23508(19)
C64AA C -0.2060(3) 0.2512(2) 0.2490(3)
H55AA H -0.2145 0.2336 0.2380
C65AA C -0.2138(2) 0.2622(3) 0.2820(2)
H56AA H -0.2284 0.2532 0.2971
C66AA C -0.1935(4) 0.3033(5) 0.3194(3)
H57AA H -0.1932 0.3259 0.3156
H58AA H -0.2121 0.2984 0.3330
C67AA C -0.1344(3) 0.2538(2) 0.3660(2)
C68AA C -0.1162(2) 0.2759(3) 0.3821(2)
H59AA H -0.0997 0.2696 0.3965
C69AA C -0.1222(2) 0.3071(2) 0.3773(2)
C70AA C -0.1465(2) 0.3163(2) 0.3562(2)
H60AA H -0.1506 0.3376 0.3529
C71AA C -0.16466(19) 0.2942(3) 0.3401(2)
C72AA C -0.1587(2) 0.2630(3) 0.3450(2)
H61AA H -0.1711 0.2479 0.3339
N21AA N -0.1283(3) 0.2215(3) 0.3718(3)
H62AA H -0.1132 0.2159 0.3855
H63AA H -0.1397 0.2074 0.3617
Na1 Na 0.0000 0.2500 0.3750
B1 B 0.0283(5) 0.1962(7) 0.3268(5)
F1 F 0.0563(3) 0.1855(3) 0.3332(2)
F2 F 0.0102(2) 0.2017(3) 0.3561(2)
F3 F 0.0288(3) 0.2228(3) 0.3086(3)
F4 F 0.0137(3) 0.1745(3) 0.3068(3)
B1J B -0.0283(5) 0.3038(7) 0.3268(5)
F1J F -0.0563(3) 0.3145(3) 0.3332(2)
F2J F -0.0102(2) 0.2983(3) 0.3561(2)
F3J F -0.0288(3) 0.2772(3) 0.3086(3)
F4J F -0.0137(3) 0.3255(3) 0.3068(3)
B1Q B -0.0538(7) 0.2217(5) 0.4232(5)
F1Q F -0.0645(3) 0.1937(3) 0.4168(2)
F2Q F -0.0483(3) 0.2398(2) 0.3939(2)
F3Q F -0.0272(3) 0.2212(3) 0.4414(3)
F4Q F -0.0755(3) 0.2363(3) 0.4432(3)
B1AA B 0.0538(7) 0.2783(5) 0.4232(5)
F1AA F 0.0645(3) 0.3063(3) 0.4168(2)
F2AA F 0.0483(3) 0.2602(2) 0.3939(2)
F3AA F 0.0272(3) 0.2788(3) 0.4414(3)
F4AA F 0.0755(3) 0.2637(3) 0.4432(3)
B2 B 0.2239(6) 0.3233(7) 0.1598(7)
F5 F 0.2429(3) 0.3011(3) 0.1437(3)
F6 F 0.1950(3) 0.3183(3) 0.1468(3)
F7 F 0.2224(2) 0.3114(3) 0.1945(3)
F8 F 0.2347(4) 0.3503(4) 0.1597(4)
B3 B 0.9012(8) 0.4290(7) 0.4014(8)
F9 F 0.9277(4) 0.4367(3) 0.4001(3)
F10 F 0.8864(3) 0.4290(3) 0.4312(3)
F11 F 0.8815(4) 0.4452(4) 0.3782(4)
F12 F 0.8966(4) 0.3983(5) 0.3879(5)
B4 B 0.9938(8) 0.5000 0.2500
F13 F 1.0091(3) 0.4742(3) 0.2469(3)
F14 F 0.9726(2) 0.5018(2) 0.2216(3)
F13D F 1.0091(3) 0.5258(3) 0.2531(3)
F14D F 0.9726(2) 0.4982(2) 0.2784(3)
N22 N 0.0133(3) 0.4431(3) 0.6709(3)
O1 O 0.0410(2) 0.4464(3) 0.6686(3)
O2 O 0.0013(3) 0.4198(3) 0.6836(3)
C73 C -0.0073(3) 0.4671(3) 0.6581(5)
H64 H -0.0288 0.4609 0.6618
H65 H -0.0032 0.4865 0.6702
H66 H -0.0037 0.4701 0.6336
O3 O 0.0941(4) 0.3441(4) 0.1250
C74 C 0.0896(8) 0.3768(5) 0.1241(10)
H67 H 0.0763 0.3831 0.1434
H68 H 0.0789 0.3825 0.1026
C75 C 0.1203(8) 0.3937(9) 0.1262(14)
H69 H 0.1223 0.4087 0.1072
H70 H 0.1221 0.4050 0.1481
C74M C 0.1268(5) 0.3396(8) 0.1259(10)
H67M H 0.1331 0.3263 0.1066
H68M H 0.1325 0.3289 0.1474
C75M C 0.1437(9) 0.3703(8) 0.1238(14)
H69M H 0.1587 0.3723 0.1428
H70M H 0.1550 0.3721 0.1019
O4 O 0.0405(8) 0.5092(8) 0.6202(8)
loop_
_geom_bond_atom_site_label_1
_geom_bond_atom_site_label_2
_geom_bond_site_symmetry_1
_geom_bond_site_symmetry_2
Co1 N1 1_555 1_555
Co2 N4 1_555 1_555
N1 C1 1_555 1_555
C1 C2 1_555 1_555
C2 H1 1_555 1_555
C3 C2 1_555 1_555
H2 C3 1_555 1_555
C4 C3 1_555 1_555
H3 C4 1_555 1_555
C5 N1 1_555 1_555
H4 C5 1_555 1_555
N2 N3 1_555 1_555
N3 Co1 1_555 1_555
C6 C1 1_555 1_555
C7 C6 1_555 1_555
H5 C7 1_555 1_555
C8 N2 1_555 1_555
H6 C8 1_555 1_555
C9 N2 1_555 1_555
H7 C9 1_555 1_555
H8 C9 1_555 1_555
N4 C10 1_555 1_555
C10 C11 1_555 1_555
C11 H9 1_555 1_555
C12 C11 1_555 1_555
H10 C12 1_555 1_555
C13 C12 1_555 1_555
H11 C13 1_555 1_555
C14 N4 1_555 1_555
H12 C14 1_555 1_555
N5 N6 1_555 1_555
N6 Co2 1_555 1_555
C15 C10 1_555 1_555
C16 C15 1_555 1_555
H13 C16 1_555 1_555
C17 N5 1_555 1_555
H14 C17 1_555 1_555
C18 N5 1_555 1_555
H15 C18 1_555 1_555
H16 C18 1_555 1_555
C19 C20 1_555 1_555
C20 H17 1_555 1_555
C21 C9 1_555 1_555
C22 C21 1_555 1_555
H18 C22 1_555 1_555
C23 C18 1_555 1_555
C24 C19 1_555 1_555
H19 C24 1_555 1_555
N7 C19 1_555 1_555
H20 N7 1_555 1_555
H21 N7 1_555 1_555
N8 Co1 1_555 1_555
C25 N8 1_555 1_555
C26 C25 1_555 1_555
H22 C26 1_555 1_555
C27 C26 1_555 1_555
H23 C27 1_555 1_555
C28 C27 1_555 1_555
H24 C28 1_555 1_555
C29 N8 1_555 1_555
H25 C29 1_555 1_555
N9 N10 1_555 1_555
N10 Co1 1_555 1_555
C30 C25 1_555 1_555
C31 C30 1_555 1_555
H26 C31 1_555 1_555
C32 N9 1_555 1_555
H27 C32 1_555 1_555
C33 N9 1_555 1_555
H28 C33 1_555 1_555
H29 C33 1_555 1_555
N11 C34 1_555 1_555
C34 C35 1_555 1_555
C35 H30 1_555 1_555
C36 C35 1_555 1_555
H31 C36 1_555 1_555
C37 C36 1_555 1_555
H32 C37 1_555 1_555
C38 N11 1_555 1_555
H33 C38 1_555 1_555
N12 N13 1_555 1_555
N13 C39 1_555 1_555
C39 C34 1_555 1_555
C40 C39 1_555 1_555
H34 C40 1_555 1_555
C41 N12 1_555 1_555
H35 C41 1_555 1_555
C42 N12 1_555 1_555
H36 C42 1_555 1_555
H37 C42 1_555 1_555
C43 C44 1_555 1_555
C44 H38 1_555 1_555
C45 C33 1_555 1_555
C46 C45 1_555 1_555
H39 C46 1_555 1_555
C47 C42 1_555 1_555
C48 C43 1_555 1_555
H40 C48 1_555 1_555
N14 C43 1_555 1_555
H41 N14 1_555 1_555
H42 N14 1_555 1_555
N15 Co1 1_555 1_555
C49 N15 1_555 1_555
C50 C49 1_555 1_555
H43 C50 1_555 1_555
C51 C50 1_555 1_555
H44 C51 1_555 1_555
C52 C51 1_555 1_555
H45 C52 1_555 1_555
C53 N15 1_555 1_555
H46 C53 1_555 1_555
N16 N17 1_555 1_555
N17 Co1 1_555 1_555
C54 C49 1_555 1_555
C55 C54 1_555 1_555
H47 C55 1_555 1_555
C56 N16 1_555 1_555
H48 C56 1_555 1_555
C57 N16 1_555 1_555
H49 C57 1_555 1_555
H50 C57 1_555 1_555
N18 C58 1_555 1_555
C58 C59 1_555 1_555
C59 H51 1_555 1_555
C60 C59 1_555 1_555
H52 C60 1_555 1_555
C61 C60 1_555 1_555
H53 C61 1_555 1_555
C62 N18 1_555 1_555
H54 C62 1_555 1_555
N19 N20 1_555 1_555
N20 C63 1_555 1_555
C63 C58 1_555 1_555
C64 C63 1_555 1_555
H55 C64 1_555 1_555
C65 N19 1_555 1_555
H56 C65 1_555 1_555
C66 N19 1_555 1_555
H57 C66 1_555 1_555
H58 C66 1_555 1_555
C67 C68 1_555 1_555
C68 H59 1_555 1_555
C69 C57 1_555 1_555
C70 C69 1_555 1_555
H60 C70 1_555 1_555
C71 C66 1_555 1_555
C72 C67 1_555 1_555
H61 C72 1_555 1_555
N21 C67 1_555 1_555
H62 N21 1_555 1_555
H63 N21 1_555 1_555
Na1 F2 1_555 1_555
B1 F1 1_555 1_555
F2 B1 1_555 1_555
F3 B1 1_555 1_555
F4 B1 1_555 1_555
B2 F5 1_555 1_555
F6 B2 1_555 1_555
F7 B2 1_555 1_555
F8 B2 1_555 1_555
B3 F9 1_555 1_555
F10 B3 1_555 1_555
F11 B3 1_555 1_555
F12 B3 1_555 1_555
B4 F13 1_555 1_555
F14 B4 1_555 1_555
N22 O1 1_555 1_555
O2 N22 1_555 1_555
C73 N22 1_555 1_555
H64 C73 1_555 1_555
H65 C73 1_555 1_555
H66 C73 1_555 1_555
O3 C74 1_555 1_555
C74 H67 1_555 1_555
H68 C74 1_555 1_555
C75 C74 1_555 1_555
H69 C75 1_555 1_555
H70 C75 1_555 1_555
Co1J N1J 1_555 1_555
Co2J N11 1_555 1_555
N1J C1J 1_555 1_555
C1J C2J 1_555 1_555
C2J H1J 1_555 1_555
C3J C2J 1_555 1_555
H2J C3J 1_555 1_555
C4J C3J 1_555 1_555
H3J C4J 1_555 1_555
C5J N1J 1_555 1_555
H4J C5J 1_555 1_555
N2J N3J 1_555 1_555
N3J Co1J 1_555 1_555
C6J C1J 1_555 1_555
C7J C6J 1_555 1_555
H5J C7J 1_555 1_555
C8J N2J 1_555 1_555
H6J C8J 1_555 1_555
C9J N2J 1_555 1_555
H7J C9J 1_555 1_555
H8J C9J 1_555 1_555
N4J Co2J 1_555 1_555
C10J N4J 1_555 1_555
C11J C10J 1_555 1_555
H9J C11J 1_555 1_555
C12J C11J 1_555 1_555
H10J C12J 1_555 1_555
C13J C12J 1_555 1_555
H11J C13J 1_555 1_555
C14J N4J 1_555 1_555
H12J C14J 1_555 1_555
N5J N6J 1_555 1_555
N6J Co2J 1_555 1_555
C15J C10J 1_555 1_555
C16J C15J 1_555 1_555
H13J C16J 1_555 1_555
C17J N5J 1_555 1_555
H14J C17J 1_555 1_555
C18J N5J 1_555 1_555
H15J C18J 1_555 1_555
H16J C18J 1_555 1_555
C19J C20J 1_555 1_555
C20J H17J 1_555 1_555
C21J C9J 1_555 1_555
C22J C21J 1_555 1_555
H18J C22J 1_555 1_555
C23J C18J 1_555 1_555
C24J C19J 1_555 1_555
H19J C24J 1_555 1_555
N7J C19J 1_555 1_555
H20J N7J 1_555 1_555
H21J N7J 1_555 1_555
N8J Co1J 1_555 1_555
C25J N8J 1_555 1_555
C26J C25J 1_555 1_555
H22J C26J 1_555 1_555
C27J C26J 1_555 1_555
H23J C27J 1_555 1_555
C28J C27J 1_555 1_555
H24J C28J 1_555 1_555
C29J N8J 1_555 1_555
H25J C29J 1_555 1_555
N9J N10J 1_555 1_555
N10J Co1J 1_555 1_555
C30J C25J 1_555 1_555
C31J C30J 1_555 1_555
H26J C31J 1_555 1_555
C32J N9J 1_555 1_555
H27J C32J 1_555 1_555
C33J N9J 1_555 1_555
H28J C33J 1_555 1_555
H29J C33J 1_555 1_555
N11J Co2 1_555 1_555
C34J N11J 1_555 1_555
C35J C34J 1_555 1_555
H30J C35J 1_555 1_555
C36J C35J 1_555 1_555
H31J C36J 1_555 1_555
C37J C36J 1_555 1_555
H32J C37J 1_555 1_555
C38J N11J 1_555 1_555
H33J C38J 1_555 1_555
N12J N13J 1_555 1_555
N13J Co2 1_555 1_555
C39J C34J 1_555 1_555
C40J C39J 1_555 1_555
H34J C40J 1_555 1_555
C41J N12J 1_555 1_555
H35J C41J 1_555 1_555
C42J N12J 1_555 1_555
H36J C42J 1_555 1_555
H37J C42J 1_555 1_555
C43J C44J 1_555 1_555
C44J H38J 1_555 1_555
C45J C33J 1_555 1_555
C46J C45J 1_555 1_555
H39J C46J 1_555 1_555
C47J C42J 1_555 1_555
C48J C43J 1_555 1_555
H40J C48J 1_555 1_555
N14J C43J 1_555 1_555
H41J N14J 1_555 1_555
H42J N14J 1_555 1_555
N15J Co1J 1_555 1_555
C49J N15J 1_555 1_555
C50J C49J 1_555 1_555
H43J C50J 1_555 1_555
C51J C50J 1_555 1_555
H44J C51J 1_555 1_555
C52J C51J 1_555 1_555
H45J C52J 1_555 1_555
C53J N15J 1_555 1_555
H46J C53J 1_555 1_555
N16J N17J 1_555 1_555
N17J Co1J 1_555 1_555
C54J C49J 1_555 1_555
C55J C54J 1_555 1_555
H47J C55J 1_555 1_555
C56J N16J 1_555 1_555
H48J C56J 1_555 1_555
C57J N16J 1_555 1_555
H49J C57J 1_555 1_555
H50J C57J 1_555 1_555
N18J C58J 1_555 1_555
C58J C59J 1_555 1_555
C59J H51J 1_555 1_555
C60J C59J 1_555 1_555
H52J C60J 1_555 1_555
C61J C60J 1_555 1_555
H53J C61J 1_555 1_555
C62J N18J 1_555 1_555
H54J C62J 1_555 1_555
N19J N20J 1_555 1_555
N20J C63J 1_555 1_555
C63J C58J 1_555 1_555
C64J C63J 1_555 1_555
H55J C64J 1_555 1_555
C65J N19J 1_555 1_555
H56J C65J 1_555 1_555
C66J N19J 1_555 1_555
H57J C66J 1_555 1_555
H58J C66J 1_555 1_555
C67J C68J 1_555 1_555
C68J H59J 1_555 1_555
C69J C57J 1_555 1_555
C70J C69J 1_555 1_555
H60J C70J 1_555 1_555
C71J C66J 1_555 1_555
C72J C67J 1_555 1_555
H61J C72J 1_555 1_555
N21J C67J 1_555 1_555
H62J N21J 1_555 1_555
H63J N21J 1_555 1_555
Co1Q N1Q 1_555 1_555
Co2Q N18J 1_555 1_555
N1Q C1Q 1_555 1_555
C1Q C2Q 1_555 1_555
C2Q H1Q 1_555 1_555
C3Q C2Q 1_555 1_555
H2Q C3Q 1_555 1_555
C4Q C3Q 1_555 1_555
H3Q C4Q 1_555 1_555
C5Q N1Q 1_555 1_555
H4Q C5Q 1_555 1_555
N2Q N3Q 1_555 1_555
N3Q Co1Q 1_555 1_555
C6Q C1Q 1_555 1_555
C7Q C6Q 1_555 1_555
H5Q C7Q 1_555 1_555
C8Q N2Q 1_555 1_555
H6Q C8Q 1_555 1_555
C9Q N2Q 1_555 1_555
H7Q C9Q 1_555 1_555
H8Q C9Q 1_555 1_555
N4Q Co2Q 1_555 1_555
C10Q N4Q 1_555 1_555
C11Q C10Q 1_555 1_555
H9Q C11Q 1_555 1_555
C12Q C11Q 1_555 1_555
H10Q C12Q 1_555 1_555
C13Q C12Q 1_555 1_555
H11Q C13Q 1_555 1_555
C14Q N4Q 1_555 1_555
H12Q C14Q 1_555 1_555
N5Q N6Q 1_555 1_555
N6Q Co2Q 1_555 1_555
C15Q C10Q 1_555 1_555
C16Q C15Q 1_555 1_555
H13Q C16Q 1_555 1_555
C17Q N5Q 1_555 1_555
H14Q C17Q 1_555 1_555
C18Q N5Q 1_555 1_555
H15Q C18Q 1_555 1_555
H16Q C18Q 1_555 1_555
C19Q C20Q 1_555 1_555
C20Q H17Q 1_555 1_555
C21Q C9Q 1_555 1_555
C22Q C21Q 1_555 1_555
H18Q C22Q 1_555 1_555
C23Q C18Q 1_555 1_555
C24Q C19Q 1_555 1_555
H19Q C24Q 1_555 1_555
N7Q C19Q 1_555 1_555
H20Q N7Q 1_555 1_555
H21Q N7Q 1_555 1_555
N8Q Co1Q 1_555 1_555
C25Q N8Q 1_555 1_555
C26Q C25Q 1_555 1_555
H22Q C26Q 1_555 1_555
C27Q C26Q 1_555 1_555
H23Q C27Q 1_555 1_555
C28Q C27Q 1_555 1_555
H24Q C28Q 1_555 1_555
C29Q N8Q 1_555 1_555
H25Q C29Q 1_555 1_555
N9Q N10Q 1_555 1_555
N10Q Co1Q 1_555 1_555
C30Q C25Q 1_555 1_555
C31Q C30Q 1_555 1_555
H26Q C31Q 1_555 1_555
C32Q N9Q 1_555 1_555
H27Q C32Q 1_555 1_555
C33Q N9Q 1_555 1_555
H28Q C33Q 1_555 1_555
H29Q C33Q 1_555 1_555
N11Q C34Q 1_555 1_555
C34Q C35Q 1_555 1_555
C35Q H30Q 1_555 1_555
C36Q C35Q 1_555 1_555
H31Q C36Q 1_555 1_555
C37Q C36Q 1_555 1_555
H32Q C37Q 1_555 1_555
C38Q N11Q 1_555 1_555
H33Q C38Q 1_555 1_555
N12Q N13Q 1_555 1_555
N13Q C39Q 1_555 1_555
C39Q C34Q 1_555 1_555
C40Q C39Q 1_555 1_555
H34Q C40Q 1_555 1_555
C41Q N12Q 1_555 1_555
H35Q C41Q 1_555 1_555
C42Q N12Q 1_555 1_555
H36Q C42Q 1_555 1_555
H37Q C42Q 1_555 1_555
C43Q C44Q 1_555 1_555
C44Q H38Q 1_555 1_555
C45Q C33Q 1_555 1_555
C46Q C45Q 1_555 1_555
H39Q C46Q 1_555 1_555
C47Q C42Q 1_555 1_555
C48Q C43Q 1_555 1_555
H40Q C48Q 1_555 1_555
N14Q C43Q 1_555 1_555
H41Q N14Q 1_555 1_555
H42Q N14Q 1_555 1_555
N15Q Co1Q 1_555 1_555
C49Q N15Q 1_555 1_555
C50Q C49Q 1_555 1_555
H43Q C50Q 1_555 1_555
C51Q C50Q 1_555 1_555
H44Q C51Q 1_555 1_555
C52Q C51Q 1_555 1_555
H45Q C52Q 1_555 1_555
C53Q N15Q 1_555 1_555
H46Q C53Q 1_555 1_555
N16Q N17Q 1_555 1_555
N17Q Co1Q 1_555 1_555
C54Q C49Q 1_555 1_555
C55Q C54Q 1_555 1_555
H47Q C55Q 1_555 1_555
C56Q N16Q 1_555 1_555
H48Q C56Q 1_555 1_555
C57Q N16Q 1_555 1_555
H49Q C57Q 1_555 1_555
H50Q C57Q 1_555 1_555
N18Q Co2 1_555 1_555
C58Q N18Q 1_555 1_555
C59Q C58Q 1_555 1_555
H51Q C59Q 1_555 1_555
C60Q C59Q 1_555 1_555
H52Q C60Q 1_555 1_555
C61Q C60Q 1_555 1_555
H53Q C61Q 1_555 1_555
C62Q N18Q 1_555 1_555
H54Q C62Q 1_555 1_555
N19Q N20Q 1_555 1_555
N20Q Co2 1_555 1_555
C63Q C58Q 1_555 1_555
C64Q C63Q 1_555 1_555
H55Q C64Q 1_555 1_555
C65Q N19Q 1_555 1_555
H56Q C65Q 1_555 1_555
C66Q N19Q 1_555 1_555
H57Q C66Q 1_555 1_555
H58Q C66Q 1_555 1_555
C67Q C68Q 1_555 1_555
C68Q H59Q 1_555 1_555
C69Q C57Q 1_555 1_555
C70Q C69Q 1_555 1_555
H60Q C70Q 1_555 1_555
C71Q C66Q 1_555 1_555
C72Q C67Q 1_555 1_555
H61Q C72Q 1_555 1_555
N21Q C67Q 1_555 1_555
H62Q N21Q 1_555 1_555
H63Q N21Q 1_555 1_555
Co1AA N1AA 1_555 1_555
Co2AA N18 1_555 1_555
N1AA C1AA 1_555 1_555
C1AA C2AA 1_555 1_555
C2AA H1AA 1_555 1_555
C3AA C2AA 1_555 1_555
H2AA C3AA 1_555 1_555
C4AA C3AA 1_555 1_555
H3AA C4AA 1_555 1_555
C5AA N1AA 1_555 1_555
H4AA C5AA 1_555 1_555
N2AA N3AA 1_555 1_555
N3AA Co1AA 1_555 1_555
C6AA C1AA 1_555 1_555
C7AA C6AA 1_555 1_555
H5AA C7AA 1_555 1_555
C8AA N2AA 1_555 1_555
H6AA C8AA 1_555 1_555
C9AA N2AA 1_555 1_555
H7AA C9AA 1_555 1_555
H8AA C9AA 1_555 1_555
N4AA Co2AA 1_555 1_555
C10AA N4AA 1_555 1_555
C11AA C10AA 1_555 1_555
H9AA C11AA 1_555 1_555
C12AA C11AA 1_555 1_555
H10AA C12AA 1_555 1_555
C13AA C12AA 1_555 1_555
H11AA C13AA 1_555 1_555
C14AA N4AA 1_555 1_555
H12AA C14AA 1_555 1_555
N5AA N6AA 1_555 1_555
N6AA Co2AA 1_555 1_555
C15AA C10AA 1_555 1_555
C16AA C15AA 1_555 1_555
H13AA C16AA 1_555 1_555
C17AA N5AA 1_555 1_555
H14AA C17AA 1_555 1_555
C18AA N5AA 1_555 1_555
H15AA C18AA 1_555 1_555
H16AA C18AA 1_555 1_555
C19AA C20AA 1_555 1_555
C20AA H17AA 1_555 1_555
C21AA C9AA 1_555 1_555
C22AA C21AA 1_555 1_555
H18AA C22AA 1_555 1_555
C23AA C18AA 1_555 1_555
C24AA C19AA 1_555 1_555
H19AA C24AA 1_555 1_555
N7AA C19AA 1_555 1_555
H20AA N7AA 1_555 1_555
H21AA N7AA 1_555 1_555
N8AA Co1AA 1_555 1_555
C25AA N8AA 1_555 1_555
C26AA C25AA 1_555 1_555
H22AA C26AA 1_555 1_555
C27AA C26AA 1_555 1_555
H23AA C27AA 1_555 1_555
C28AA C27AA 1_555 1_555
H24AA C28AA 1_555 1_555
C29AA N8AA 1_555 1_555
H25AA C29AA 1_555 1_555
N9AA N10AA 1_555 1_555
N10AA Co1AA 1_555 1_555
C30AA C25AA 1_555 1_555
C31AA C30AA 1_555 1_555
H26AA C31AA 1_555 1_555
C32AA N9AA 1_555 1_555
H27AA C32AA 1_555 1_555
C33AA N9AA 1_555 1_555
H28AA C33AA 1_555 1_555
H29AA C33AA 1_555 1_555
N11AA Co2Q 1_555 1_555
C34AA N11AA 1_555 1_555
C35AA C34AA 1_555 1_555
H30AA C35AA 1_555 1_555
C36AA C35AA 1_555 1_555
H31AA C36AA 1_555 1_555
C37AA C36AA 1_555 1_555
H32AA C37AA 1_555 1_555
C38AA N11AA 1_555 1_555
H33AA C38AA 1_555 1_555
N12AA N13AA 1_555 1_555
N13AA Co2Q 1_555 1_555
C39AA C34AA 1_555 1_555
C40AA C39AA 1_555 1_555
H34AA C40AA 1_555 1_555
C41AA N12AA 1_555 1_555
H35AA C41AA 1_555 1_555
C42AA N12AA 1_555 1_555
H36AA C42AA 1_555 1_555
H37AA C42AA 1_555 1_555
C43AA C44AA 1_555 1_555
C44AA H38AA 1_555 1_555
C45AA C33AA 1_555 1_555
C46AA C45AA 1_555 1_555
H39AA C46AA 1_555 1_555
C47AA C42AA 1_555 1_555
C48AA C43AA 1_555 1_555
H40AA C48AA 1_555 1_555
N14AA C43AA 1_555 1_555
H41AA N14AA 1_555 1_555
H42AA N14AA 1_555 1_555
N15AA Co1AA 1_555 1_555
C49AA N15AA 1_555 1_555
C50AA C49AA 1_555 1_555
H43AA C50AA 1_555 1_555
C51AA C50AA 1_555 1_555
H44AA C51AA 1_555 1_555
C52AA C51AA 1_555 1_555
H45AA C52AA 1_555 1_555
C53AA N15AA 1_555 1_555
H46AA C53AA 1_555 1_555
N16AA N17AA 1_555 1_555
N17AA Co1AA 1_555 1_555
C54AA C49AA 1_555 1_555
C55AA C54AA 1_555 1_555
H47AA C55AA 1_555 1_555
C56AA N16AA 1_555 1_555
H48AA C56AA 1_555 1_555
C57AA N16AA 1_555 1_555
H49AA C57AA 1_555 1_555
H50AA C57AA 1_555 1_555
N18AA Co2J 1_555 1_555
C58AA N18AA 1_555 1_555
C59AA C58AA 1_555 1_555
H51AA C59AA 1_555 1_555
C60AA C59AA 1_555 1_555
H52AA C60AA 1_555 1_555
C61AA C60AA 1_555 1_555
H53AA C61AA 1_555 1_555
C62AA N18AA 1_555 1_555
H54AA C62AA 1_555 1_555
N19AA N20AA 1_555 1_555
N20AA Co2J 1_555 1_555
C63AA C58AA 1_555 1_555
C64AA C63AA 1_555 1_555
H55AA C64AA 1_555 1_555
C65AA N19AA 1_555 1_555
H56AA C65AA 1_555 1_555
C66AA N19AA 1_555 1_555
H57AA C66AA 1_555 1_555
H58AA C66AA 1_555 1_555
C67AA C68AA 1_555 1_555
C68AA H59AA 1_555 1_555
C69AA C57AA 1_555 1_555
C70AA C69AA 1_555 1_555
H60AA C70AA 1_555 1_555
C71AA C66AA 1_555 1_555
C72AA C67AA 1_555 1_555
H61AA C72AA 1_555 1_555
N21AA C67AA 1_555 1_555
H62AA N21AA 1_555 1_555
H63AA N21AA 1_555 1_555
B1J F1J 1_555 1_555
F2J Na1 1_555 1_555
F3J B1J 1_555 1_555
F4J B1J 1_555 1_555
B1Q F1Q 1_555 1_555
F2Q Na1 1_555 1_555
F3Q B1Q 1_555 1_555
F4Q B1Q 1_555 1_555
B1AA F1AA 1_555 1_555
F2AA Na1 1_555 1_555
F3AA B1AA 1_555 1_555
F4AA B1AA 1_555 1_555
F13D B4 1_555 1_555
F14D B4 1_555 1_555
C74M O3 1_555 1_555
H67M C74M 1_555 1_555
H68M C74M 1_555 1_555
C75M C75 1_555 1_555
H69M C75M 1_555 1_555
H70M C75M 1_555 1_555
C4 C5 1_555 1_555
N3 C6 1_555 1_555
C7 C8 1_555 1_555
C13 C14 1_555 1_555
N6 C15 1_555 1_555
C16 C17 1_555 1_555
C20 C21 1_555 1_555
C22 C23 1_555 1_555
C23 C24 1_555 1_555
C28 C29 1_555 1_555
N10 C30 1_555 1_555
C31 C32 1_555 1_555
C37 C38 1_555 1_555
N13 Co2J 1_555 1_555
C40 C41 1_555 1_555
C44 C45 1_555 1_555
C46 C47 1_555 1_555
C47 C48 1_555 1_555
C52 C53 1_555 1_555
N17 C54 1_555 1_555
C55 C56 1_555 1_555
C61 C62 1_555 1_555
N20 Co2AA 1_555 1_555
C64 C65 1_555 1_555
C68 C69 1_555 1_555
C70 C71 1_555 1_555
C71 C72 1_555 1_555
C4J C5J 1_555 1_555
N3J C6J 1_555 1_555
C7J C8J 1_555 1_555
C13J C14J 1_555 1_555
N6J C15J 1_555 1_555
C16J C17J 1_555 1_555
C20J C21J 1_555 1_555
C22J C23J 1_555 1_555
C23J C24J 1_555 1_555
C28J C29J 1_555 1_555
N10J C30J 1_555 1_555
C31J C32J 1_555 1_555
C37J C38J 1_555 1_555
N13J C39J 1_555 1_555
C40J C41J 1_555 1_555
C44J C45J 1_555 1_555
C46J C47J 1_555 1_555
C47J C48J 1_555 1_555
C52J C53J 1_555 1_555
N17J C54J 1_555 1_555
C55J C56J 1_555 1_555
C61J C62J 1_555 1_555
N20J Co2Q 1_555 1_555
C64J C65J 1_555 1_555
C68J C69J 1_555 1_555
C70J C71J 1_555 1_555
C71J C72J 1_555 1_555
C4Q C5Q 1_555 1_555
N3Q C6Q 1_555 1_555
C7Q C8Q 1_555 1_555
C13Q C14Q 1_555 1_555
N6Q C15Q 1_555 1_555
C16Q C17Q 1_555 1_555
C20Q C21Q 1_555 1_555
C22Q C23Q 1_555 1_555
C23Q C24Q 1_555 1_555
C28Q C29Q 1_555 1_555
N10Q C30Q 1_555 1_555
C31Q C32Q 1_555 1_555
N11Q Co2AA 1_555 1_555
C37Q C38Q 1_555 1_555
N13Q Co2AA 1_555 1_555
C40Q C41Q 1_555 1_555
C44Q C45Q 1_555 1_555
C46Q C47Q 1_555 1_555
C47Q C48Q 1_555 1_555
C52Q C53Q 1_555 1_555
N17Q C54Q 1_555 1_555
C55Q C56Q 1_555 1_555
C61Q C62Q 1_555 1_555
N20Q C63Q 1_555 1_555
C64Q C65Q 1_555 1_555
C68Q C69Q 1_555 1_555
C70Q C71Q 1_555 1_555
C71Q C72Q 1_555 1_555
C4AA C5AA 1_555 1_555
N3AA C6AA 1_555 1_555
C7AA C8AA 1_555 1_555
C13AA C14AA 1_555 1_555
N6AA C15AA 1_555 1_555
C16AA C17AA 1_555 1_555
C20AA C21AA 1_555 1_555
C22AA C23AA 1_555 1_555
C23AA C24AA 1_555 1_555
C28AA C29AA 1_555 1_555
N10AA C30AA 1_555 1_555
C31AA C32AA 1_555 1_555
C37AA C38AA 1_555 1_555
N13AA C39AA 1_555 1_555
C40AA C41AA 1_555 1_555
C44AA C45AA 1_555 1_555
C46AA C47AA 1_555 1_555
C47AA C48AA 1_555 1_555
C52AA C53AA 1_555 1_555
N17AA C54AA 1_555 1_555
C55AA C56AA 1_555 1_555
C61AA C62AA 1_555 1_555
N20AA C63AA 1_555 1_555
C64AA C65AA 1_555 1_555
C68AA C69AA 1_555 1_555
C70AA C71AA 1_555 1_555
C71AA C72AA 1_555 1_555
B1J F2J 1_555 1_555
B1Q F2Q 1_555 1_555
B1AA F2AA 1_555 1_555
C74M C75M 1_555 1_555

#END
