# generated using pymatgen
data_Fe10Ni14H445C580(N59O11)2
_symmetry_space_group_name_H-M   'P 1'
_cell_length_a   21.95500000
_cell_length_b   27.31600000
_cell_length_c   55.16600000
_cell_angle_alpha   90.00000000
_cell_angle_beta   90.00000000
_cell_angle_gamma   90.80000000
_symmetry_Int_Tables_number   1
_chemical_formula_structural   Fe10Ni14H445C580(N59O11)2
_chemical_formula_sum   'Fe20 Ni28 H890 C1160 N236 O44'
_cell_volume   33081.08195589
_cell_formula_units_Z   2
loop_
 _symmetry_equiv_pos_site_id
 _symmetry_equiv_pos_as_xyz
  1  'x, y, z'
loop_
 _atom_site_type_symbol
 _atom_site_label
 _atom_site_symmetry_multiplicity
 _atom_site_fract_x
 _atom_site_fract_y
 _atom_site_fract_z
 _atom_site_occupancy
  Fe  Fe1  1  0.525600  0.832940  0.557040  1.0
  Fe  Fe2  1  0.474400  0.167060  0.057040  1.0
  Fe  Fe3  1  0.156290  0.891710  0.606020  1.0
  Fe  Fe4  1  0.843710  0.108290  0.106020  1.0
  Fe  Fe5  1  0.418330  0.751190  0.703020  1.0
  Fe  Fe6  1  0.581670  0.248810  0.203020  1.0
  Fe  Fe7  1  0.269200  0.593330  0.580230  1.0
  Fe  Fe8  1  0.730800  0.406670  0.080230  1.0
  Fe  Fe9  1  0.916080  0.267470  0.361880  1.0
  Fe  Fe10  1  0.083920  0.732530  0.861880  1.0
  Fe  Fe11  1  0.773450  0.420710  0.485800  1.0
  Fe  Fe12  1  0.226550  0.579290  0.985800  1.0
  Fe  Fe13  1  0.028110  0.181770  0.507540  1.0
  Fe  Fe14  1  0.971890  0.818230  0.007540  1.0
  Fe  Fe15  1  0.656820  0.121740  0.460290  1.0
  Fe  Fe16  1  0.343180  0.878260  0.960290  1.0
  Fe  Fe17  1  0.735580  0.285450  0.712210  1.0
  Fe  Fe18  1  0.264420  0.714550  0.212210  1.0
  Fe  Fe19  1  0.882430  0.254240  0.829180  1.0
  Fe  Fe20  1  0.117570  0.745760  0.329180  1.0
  Ni  Ni21  1  0.446420  0.666390  0.531460  1.0
  Ni  Ni22  1  0.553580  0.333610  0.031460  1.0
  Ni  Ni23  1  0.339610  0.941500  0.555460  1.0
  Ni  Ni24  1  0.660390  0.058500  0.055460  1.0
  Ni  Ni25  1  0.243270  0.868490  0.690740  1.0
  Ni  Ni26  1  0.756730  0.131510  0.190740  1.0
  Ni  Ni27  1  0.343350  0.590020  0.667210  1.0
  Ni  Ni28  1  0.656650  0.409980  0.167210  1.0
  Ni  Ni29  1  0.103010  0.720120  0.577150  1.0
  Ni  Ni30  1  0.896990  0.279880  0.077150  1.0
  Ni  Ni31  1  0.582750  0.811310  0.645560  1.0
  Ni  Ni32  1  0.417250  0.188690  0.145560  1.0
  Ni  Ni33  1  0.739420  0.146760  0.375270  1.0
  Ni  Ni34  1  0.260580  0.853240  0.875270  1.0
  Ni  Ni35  1  0.845450  0.428050  0.398880  1.0
  Ni  Ni36  1  0.154550  0.571950  0.898880  1.0
  Ni  Ni37  1  0.943860  0.344630  0.535240  1.0
  Ni  Ni38  1  0.056140  0.655370  0.035240  1.0
  Ni  Ni39  1  0.840750  0.070630  0.510310  1.0
  Ni  Ni40  1  0.159250  0.929370  0.010310  1.0
  Ni  Ni41  1  0.605610  0.292510  0.489580  1.0
  Ni  Ni42  1  0.394390  0.707490  0.989580  1.0
  Ni  Ni43  1  0.080320  0.207790  0.418610  1.0
  Ni  Ni44  1  0.919680  0.792210  0.918610  1.0
  Ni  Ni45  1  0.694400  0.346120  0.798180  1.0
  Ni  Ni46  1  0.305600  0.653880  0.298180  1.0
  Ni  Ni47  1  0.874160  0.159970  0.749530  1.0
  Ni  Ni48  1  0.125840  0.840030  0.249530  1.0
  H  H49  1  0.313800  0.695500  0.516000  1.0
  H  H50  1  0.686200  0.304500  0.016000  1.0
  H  H51  1  0.264800  0.727600  0.481900  1.0
  H  H52  1  0.735200  0.272400  0.981900  1.0
  H  H53  1  0.326300  0.756300  0.449200  1.0
  H  H54  1  0.673700  0.243700  0.949200  1.0
  H  H55  1  0.433000  0.751700  0.453100  1.0
  H  H56  1  0.567000  0.248300  0.953100  1.0
  H  H57  1  0.523300  0.731700  0.478300  1.0
  H  H58  1  0.476700  0.268300  0.978300  1.0
  H  H59  1  0.585300  0.706500  0.529900  1.0
  H  H60  1  0.414700  0.293500  0.029900  1.0
  H  H61  1  0.618000  0.723500  0.481500  1.0
  H  H62  1  0.382000  0.276500  0.981500  1.0
  H  H63  1  0.663700  0.727800  0.504000  1.0
  H  H64  1  0.336300  0.272200  0.004000  1.0
  H  H65  1  0.607400  0.764100  0.501900  1.0
  H  H66  1  0.392600  0.235900  0.001900  1.0
  H  H67  1  0.566600  0.625300  0.481600  1.0
  H  H68  1  0.433400  0.374700  0.981600  1.0
  H  H69  1  0.611700  0.549900  0.475800  1.0
  H  H70  1  0.388300  0.450100  0.975800  1.0
  H  H71  1  0.678400  0.519700  0.505100  1.0
  H  H72  1  0.321600  0.480300  0.005100  1.0
  H  H73  1  0.746200  0.536500  0.539500  1.0
  H  H74  1  0.253800  0.463500  0.039500  1.0
  H  H75  1  0.785600  0.588200  0.569300  1.0
  H  H76  1  0.214400  0.411800  0.069300  1.0
  H  H77  1  0.744000  0.665800  0.573400  1.0
  H  H78  1  0.256000  0.334200  0.073400  1.0
  H  H79  1  0.671500  0.694400  0.547100  1.0
  H  H80  1  0.328500  0.305600  0.047100  1.0
  H  H81  1  0.537600  0.679900  0.575700  1.0
  H  H82  1  0.462400  0.320100  0.075700  1.0
  H  H83  1  0.609200  0.637400  0.595200  1.0
  H  H84  1  0.390800  0.362600  0.095200  1.0
  H  H85  1  0.620200  0.549000  0.585600  1.0
  H  H86  1  0.379800  0.451000  0.085600  1.0
  H  H87  1  0.550700  0.518100  0.556300  1.0
  H  H88  1  0.449300  0.481900  0.056300  1.0
  H  H89  1  0.460700  0.526700  0.528000  1.0
  H  H90  1  0.539300  0.473300  0.028000  1.0
  H  H91  1  0.345900  0.590200  0.509400  1.0
  H  H92  1  0.654100  0.409800  0.009400  1.0
  H  H93  1  0.404100  0.500700  0.496600  1.0
  H  H94  1  0.595900  0.499300  0.996600  1.0
  H  H95  1  0.332500  0.510700  0.496000  1.0
  H  H96  1  0.667500  0.489300  0.996000  1.0
  H  H97  1  0.367400  0.507600  0.521400  1.0
  H  H98  1  0.632600  0.492400  0.021400  1.0
  H  H99  1  0.481000  0.572300  0.477000  1.0
  H  H100  1  0.519000  0.427700  0.977000  1.0
  H  H101  1  0.501800  0.606800  0.438700  1.0
  H  H102  1  0.498200  0.393200  0.938700  1.0
  H  H103  1  0.424900  0.636200  0.415600  1.0
  H  H104  1  0.575100  0.363800  0.915600  1.0
  H  H105  1  0.317800  0.664300  0.412600  1.0
  H  H106  1  0.682200  0.335700  0.912600  1.0
  H  H107  1  0.219400  0.661500  0.424200  1.0
  H  H108  1  0.780600  0.338500  0.924200  1.0
  H  H109  1  0.196800  0.626900  0.463300  1.0
  H  H110  1  0.803200  0.373100  0.963300  1.0
  H  H111  1  0.272500  0.595800  0.486600  1.0
  H  H112  1  0.727500  0.404200  0.986600  1.0
  H  H113  1  0.345100  0.850700  0.519600  1.0
  H  H114  1  0.654900  0.149300  0.019600  1.0
  H  H115  1  0.302400  0.831400  0.481000  1.0
  H  H116  1  0.697600  0.168600  0.981000  1.0
  H  H117  1  0.224300  0.877200  0.465600  1.0
  H  H118  1  0.775700  0.122800  0.965600  1.0
  H  H119  1  0.192400  0.946600  0.488300  1.0
  H  H120  1  0.807600  0.053400  0.988300  1.0
  H  H121  1  0.200800  0.998900  0.525000  1.0
  H  H122  1  0.799200  0.001100  0.025000  1.0
  H  H123  1  0.243600  0.014000  0.582500  1.0
  H  H124  1  0.756400  0.986000  0.082500  1.0
  H  H125  1  0.174700  0.054100  0.545200  1.0
  H  H126  1  0.825300  0.945900  0.045200  1.0
  H  H127  1  0.169400  0.069200  0.573200  1.0
  H  H128  1  0.830600  0.930800  0.073200  1.0
  H  H129  1  0.152100  0.014700  0.564800  1.0
  H  H130  1  0.847900  0.985300  0.064800  1.0
  H  H131  1  0.301500  0.073500  0.529700  1.0
  H  H132  1  0.698500  0.926500  0.029700  1.0
  H  H133  1  0.366900  0.141200  0.529300  1.0
  H  H134  1  0.633100  0.858800  0.029300  1.0
  H  H135  1  0.396200  0.180500  0.563900  1.0
  H  H136  1  0.603800  0.819500  0.063900  1.0
  H  H137  1  0.383400  0.192200  0.607800  1.0
  H  H138  1  0.616600  0.807800  0.107800  1.0
  H  H139  1  0.345300  0.166300  0.644100  1.0
  H  H140  1  0.654700  0.833700  0.144100  1.0
  H  H141  1  0.269200  0.104200  0.645500  1.0
  H  H142  1  0.730800  0.895800  0.145500  1.0
  H  H143  1  0.244600  0.061000  0.610900  1.0
  H  H144  1  0.755400  0.939000  0.110900  1.0
  H  H145  1  0.334200  0.971700  0.610800  1.0
  H  H146  1  0.665800  0.028300  0.110800  1.0
  H  H147  1  0.385300  0.023200  0.637500  1.0
  H  H148  1  0.614700  0.976800  0.137500  1.0
  H  H149  1  0.456500  0.077200  0.621400  1.0
  H  H150  1  0.543500  0.922800  0.121400  1.0
  H  H151  1  0.489600  0.067300  0.580600  1.0
  H  H152  1  0.510400  0.932700  0.080600  1.0
  H  H153  1  0.481400  0.020600  0.541200  1.0
  H  H154  1  0.518600  0.979400  0.041200  1.0
  H  H155  1  0.431200  0.923600  0.510800  1.0
  H  H156  1  0.568800  0.076400  0.010800  1.0
  H  H157  1  0.514000  0.951500  0.491600  1.0
  H  H158  1  0.486000  0.048500  0.991600  1.0
  H  H159  1  0.525900  0.962200  0.519700  1.0
  H  H160  1  0.474100  0.037800  0.019700  1.0
  H  H161  1  0.506600  0.005800  0.502000  1.0
  H  H162  1  0.493400  0.994200  0.002000  1.0
  H  H163  1  0.380500  0.040900  0.506900  1.0
  H  H164  1  0.619500  0.959100  0.006900  1.0
  H  H165  1  0.321500  0.074900  0.475400  1.0
  H  H166  1  0.678500  0.925100  0.975400  1.0
  H  H167  1  0.290000  0.025700  0.443000  1.0
  H  H168  1  0.710000  0.974300  0.943000  1.0
  H  H169  1  0.304800  0.951500  0.419100  1.0
  H  H170  1  0.695200  0.048500  0.919100  1.0
  H  H171  1  0.339800  0.872600  0.415200  1.0
  H  H172  1  0.660200  0.127400  0.915200  1.0
  H  H173  1  0.414700  0.844300  0.443000  1.0
  H  H174  1  0.585300  0.155700  0.943000  1.0
  H  H175  1  0.437100  0.890600  0.477400  1.0
  H  H176  1  0.562900  0.109400  0.977400  1.0
  H  H177  1  0.379100  0.906000  0.686600  1.0
  H  H178  1  0.620900  0.094000  0.186600  1.0
  H  H179  1  0.429300  0.987400  0.682600  1.0
  H  H180  1  0.570700  0.012600  0.182600  1.0
  H  H181  1  0.368600  0.053800  0.683100  1.0
  H  H182  1  0.631400  0.946200  0.183100  1.0
  H  H183  1  0.266700  0.049000  0.688500  1.0
  H  H184  1  0.733300  0.951000  0.188500  1.0
  H  H185  1  0.172900  0.993400  0.687000  1.0
  H  H186  1  0.827100  0.006600  0.187000  1.0
  H  H187  1  0.105500  0.886400  0.678100  1.0
  H  H188  1  0.894500  0.113600  0.178100  1.0
  H  H189  1  0.073600  0.983400  0.690800  1.0
  H  H190  1  0.926400  0.016600  0.190800  1.0
  H  H191  1  0.030400  0.943900  0.677600  1.0
  H  H192  1  0.969600  0.056100  0.177600  1.0
  H  H193  1  0.088400  0.966300  0.663700  1.0
  H  H194  1  0.911600  0.033700  0.163700  1.0
  H  H195  1  0.133200  0.943100  0.733600  1.0
  H  H196  1  0.866800  0.056900  0.233600  1.0
  H  H197  1  0.088100  0.931700  0.770700  1.0
  H  H198  1  0.911900  0.068300  0.270700  1.0
  H  H199  1  0.017600  0.867500  0.775800  1.0
  H  H200  1  0.982400  0.132500  0.275800  1.0
  H  H201  1  0.955900  0.799800  0.757100  1.0
  H  H202  1  0.044100  0.200200  0.257100  1.0
  H  H203  1  0.914600  0.763100  0.723100  1.0
  H  H204  1  0.085400  0.236900  0.223100  1.0
  H  H205  1  0.946500  0.790100  0.683800  1.0
  H  H206  1  0.053500  0.209900  0.183800  1.0
  H  H207  1  0.017900  0.852000  0.679800  1.0
  H  H208  1  0.982100  0.148000  0.179800  1.0
  H  H209  1  0.141700  0.796400  0.669300  1.0
  H  H210  1  0.858300  0.203600  0.169300  1.0
  H  H211  1  0.073100  0.739400  0.685100  1.0
  H  H212  1  0.926900  0.260600  0.185100  1.0
  H  H213  1  0.073400  0.722300  0.726600  1.0
  H  H214  1  0.926600  0.277700  0.226600  1.0
  H  H215  1  0.153300  0.758100  0.752200  1.0
  H  H216  1  0.846700  0.241900  0.252200  1.0
  H  H217  1  0.241000  0.819800  0.754500  1.0
  H  H218  1  0.759000  0.180200  0.254500  1.0
  H  H219  1  0.353100  0.879200  0.728700  1.0
  H  H220  1  0.646900  0.120800  0.228700  1.0
  H  H221  1  0.304700  0.857400  0.776200  1.0
  H  H222  1  0.695300  0.142600  0.276200  1.0
  H  H223  1  0.374200  0.872400  0.771000  1.0
  H  H224  1  0.625800  0.127600  0.271000  1.0
  H  H225  1  0.347200  0.821500  0.761000  1.0
  H  H226  1  0.652800  0.178500  0.261000  1.0
  H  H227  1  0.220900  0.932400  0.750700  1.0
  H  H228  1  0.779100  0.067600  0.250700  1.0
  H  H229  1  0.204100  0.015400  0.756900  1.0
  H  H230  1  0.795900  0.984600  0.256900  1.0
  H  H231  1  0.284700  0.071800  0.752500  1.0
  H  H232  1  0.715300  0.928200  0.252500  1.0
  H  H233  1  0.391200  0.088500  0.745700  1.0
  H  H234  1  0.608800  0.911500  0.245700  1.0
  H  H235  1  0.490000  0.061400  0.743800  1.0
  H  H236  1  0.510000  0.938600  0.243800  1.0
  H  H237  1  0.508600  0.977700  0.735300  1.0
  H  H238  1  0.491400  0.022300  0.235300  1.0
  H  H239  1  0.430200  0.920100  0.738900  1.0
  H  H240  1  0.569800  0.079900  0.238900  1.0
  H  H241  1  0.445000  0.577000  0.625300  1.0
  H  H242  1  0.555000  0.423000  0.125300  1.0
  H  H243  1  0.543400  0.541600  0.624000  1.0
  H  H244  1  0.456600  0.458400  0.124000  1.0
  H  H245  1  0.595300  0.526200  0.660200  1.0
  H  H246  1  0.404700  0.473800  0.160200  1.0
  H  H247  1  0.540800  0.532600  0.696700  1.0
  H  H248  1  0.459200  0.467400  0.196700  1.0
  H  H249  1  0.318600  0.622100  0.721100  1.0
  H  H250  1  0.681400  0.377900  0.221100  1.0
  H  H251  1  0.377900  0.569100  0.757900  1.0
  H  H252  1  0.622100  0.430900  0.257900  1.0
  H  H253  1  0.359400  0.625600  0.757700  1.0
  H  H254  1  0.640600  0.374400  0.257700  1.0
  H  H255  1  0.418800  0.608300  0.743400  1.0
  H  H256  1  0.581200  0.391700  0.243400  1.0
  H  H257  1  0.335300  0.495700  0.722700  1.0
  H  H258  1  0.664700  0.504300  0.222700  1.0
  H  H259  1  0.253500  0.439300  0.725200  1.0
  H  H260  1  0.746500  0.560700  0.225200  1.0
  H  H261  1  0.155800  0.466000  0.733800  1.0
  H  H262  1  0.844200  0.534000  0.233800  1.0
  H  H263  1  0.094900  0.524500  0.755200  1.0
  H  H264  1  0.905100  0.475500  0.255200  1.0
  H  H265  1  0.075900  0.608800  0.759500  1.0
  H  H266  1  0.924100  0.391200  0.259500  1.0
  H  H267  1  0.157600  0.666100  0.759400  1.0
  H  H268  1  0.842400  0.333900  0.259400  1.0
  H  H269  1  0.251300  0.642800  0.746100  1.0
  H  H270  1  0.748700  0.357200  0.246100  1.0
  H  H271  1  0.241400  0.664200  0.685200  1.0
  H  H272  1  0.758600  0.335800  0.185200  1.0
  H  H273  1  0.142100  0.656000  0.698100  1.0
  H  H274  1  0.857900  0.344000  0.198100  1.0
  H  H275  1  0.091500  0.583200  0.697200  1.0
  H  H276  1  0.908500  0.416800  0.197200  1.0
  H  H277  1  0.140500  0.517800  0.677500  1.0
  H  H278  1  0.859500  0.482200  0.177500  1.0
  H  H279  1  0.234600  0.482300  0.658900  1.0
  H  H280  1  0.765400  0.517700  0.158900  1.0
  H  H281  1  0.360700  0.499500  0.629800  1.0
  H  H282  1  0.639300  0.500500  0.129800  1.0
  H  H283  1  0.269500  0.433100  0.643000  1.0
  H  H284  1  0.730500  0.566900  0.143000  1.0
  H  H285  1  0.323900  0.416800  0.625600  1.0
  H  H286  1  0.676100  0.583200  0.125600  1.0
  H  H287  1  0.279900  0.460000  0.617500  1.0
  H  H288  1  0.720100  0.540000  0.117500  1.0
  H  H289  1  0.346000  0.454500  0.687500  1.0
  H  H290  1  0.654000  0.545500  0.187500  1.0
  H  H291  1  0.418800  0.414400  0.709300  1.0
  H  H292  1  0.581200  0.585600  0.209300  1.0
  H  H293  1  0.513800  0.396400  0.693800  1.0
  H  H294  1  0.486200  0.603600  0.193800  1.0
  H  H295  1  0.577300  0.388400  0.656600  1.0
  H  H296  1  0.422700  0.611600  0.156600  1.0
  H  H297  1  0.591400  0.402100  0.615400  1.0
  H  H298  1  0.408600  0.597900  0.115400  1.0
  H  H299  1  0.517200  0.443500  0.592200  1.0
  H  H300  1  0.482800  0.556500  0.092200  1.0
  H  H301  1  0.424900  0.460800  0.609900  1.0
  H  H302  1  0.575100  0.539200  0.109900  1.0
  H  H303  1  0.169800  0.793700  0.540700  1.0
  H  H304  1  0.830200  0.206300  0.040700  1.0
  H  H305  1  0.186600  0.795500  0.500300  1.0
  H  H306  1  0.813400  0.204500  0.000300  1.0
  H  H307  1  0.144500  0.736900  0.472900  1.0
  H  H308  1  0.855500  0.263100  0.972900  1.0
  H  H309  1  0.100400  0.666400  0.492900  1.0
  H  H310  1  0.899600  0.333600  0.992900  1.0
  H  H311  1  0.070000  0.623000  0.529500  1.0
  H  H312  1  0.930000  0.377000  0.029500  1.0
  H  H313  1  0.076800  0.603000  0.587900  1.0
  H  H314  1  0.923200  0.397000  0.087900  1.0
  H  H315  1  0.027700  0.532900  0.568400  1.0
  H  H316  1  0.972300  0.467100  0.068400  1.0
  H  H317  1  0.089000  0.551500  0.555400  1.0
  H  H318  1  0.911000  0.448500  0.055400  1.0
  H  H319  1  0.024200  0.564900  0.544100  1.0
  H  H320  1  0.975800  0.435100  0.044100  1.0
  H  H321  1  0.949600  0.652600  0.560800  1.0
  H  H322  1  0.050400  0.347400  0.060800  1.0
  H  H323  1  0.859800  0.671100  0.582000  1.0
  H  H324  1  0.140200  0.328900  0.082000  1.0
  H  H325  1  0.839600  0.636200  0.619500  1.0
  H  H326  1  0.160400  0.363800  0.119500  1.0
  H  H327  1  0.868400  0.577500  0.651400  1.0
  H  H328  1  0.131600  0.422500  0.151400  1.0
  H  H329  1  0.942000  0.531300  0.669600  1.0
  H  H330  1  0.058000  0.468700  0.169600  1.0
  H  H331  1  0.057600  0.555900  0.614700  1.0
  H  H332  1  0.942400  0.444100  0.114700  1.0
  H  H333  1  0.121000  0.660700  0.626200  1.0
  H  H334  1  0.879000  0.339300  0.126200  1.0
  H  H335  1  0.061400  0.646800  0.660800  1.0
  H  H336  1  0.938600  0.353200  0.160800  1.0
  H  H337  1  0.967700  0.683300  0.666000  1.0
  H  H338  1  0.032300  0.316700  0.166000  1.0
  H  H339  1  0.937600  0.741000  0.636200  1.0
  H  H340  1  0.062400  0.259000  0.136200  1.0
  H  H341  1  0.054400  0.820300  0.553900  1.0
  H  H342  1  0.945600  0.179700  0.053900  1.0
  H  H343  1  0.928700  0.834900  0.563500  1.0
  H  H344  1  0.071300  0.165100  0.063500  1.0
  H  H345  1  0.976800  0.873700  0.552600  1.0
  H  H346  1  0.023200  0.126300  0.052600  1.0
  H  H347  1  0.980300  0.858300  0.580600  1.0
  H  H348  1  0.019700  0.141700  0.080600  1.0
  H  H349  1  0.939400  0.730700  0.549200  1.0
  H  H350  1  0.060600  0.269300  0.049200  1.0
  H  H351  1  0.908400  0.690800  0.513400  1.0
  H  H352  1  0.091600  0.309200  0.013400  1.0
  H  H353  1  0.947000  0.716800  0.476800  1.0
  H  H354  1  0.053000  0.283200  0.976800  1.0
  H  H355  1  0.003600  0.776800  0.452800  1.0
  H  H356  1  0.996400  0.223200  0.952800  1.0
  H  H357  1  0.064300  0.846700  0.449700  1.0
  H  H358  1  0.935700  0.153300  0.949700  1.0
  H  H359  1  0.086600  0.892300  0.485100  1.0
  H  H360  1  0.913400  0.107700  0.985100  1.0
  H  H361  1  0.061700  0.861500  0.522900  1.0
  H  H362  1  0.938300  0.138500  0.022900  1.0
  H  H363  1  0.563700  0.695600  0.653800  1.0
  H  H364  1  0.436300  0.304400  0.153800  1.0
  H  H365  1  0.622900  0.625400  0.650000  1.0
  H  H366  1  0.377100  0.374600  0.150000  1.0
  H  H367  1  0.716900  0.632300  0.628400  1.0
  H  H368  1  0.283100  0.367700  0.128400  1.0
  H  H369  1  0.750800  0.711400  0.616500  1.0
  H  H370  1  0.249200  0.288600  0.116500  1.0
  H  H371  1  0.726700  0.799000  0.608800  1.0
  H  H372  1  0.273300  0.201000  0.108800  1.0
  H  H373  1  0.630700  0.890300  0.607800  1.0
  H  H374  1  0.369300  0.109700  0.107800  1.0
  H  H375  1  0.754800  0.867800  0.595800  1.0
  H  H376  1  0.245200  0.132200  0.095800  1.0
  H  H377  1  0.721100  0.915600  0.586200  1.0
  H  H378  1  0.278900  0.084400  0.086200  1.0
  H  H379  1  0.697700  0.862400  0.577900  1.0
  H  H380  1  0.302300  0.137600  0.077900  1.0
  H  H381  1  0.747900  0.870900  0.650700  1.0
  H  H382  1  0.252100  0.129100  0.150700  1.0
  H  H383  1  0.775200  0.925300  0.682700  1.0
  H  H384  1  0.224800  0.074700  0.182700  1.0
  H  H385  1  0.738200  0.002100  0.682800  1.0
  H  H386  1  0.261800  0.997900  0.182800  1.0
  H  H387  1  0.678800  0.068400  0.664700  1.0
  H  H388  1  0.321200  0.931600  0.164700  1.0
  H  H389  1  0.617400  0.094900  0.634300  1.0
  H  H390  1  0.382600  0.905100  0.134300  1.0
  H  H391  1  0.591900  0.044200  0.601800  1.0
  H  H392  1  0.408100  0.955800  0.101800  1.0
  H  H393  1  0.626000  0.964900  0.600100  1.0
  H  H394  1  0.374000  0.035100  0.100100  1.0
  H  H395  1  0.515500  0.905700  0.628800  1.0
  H  H396  1  0.484500  0.094300  0.128800  1.0
  H  H397  1  0.508600  0.988400  0.641900  1.0
  H  H398  1  0.491400  0.011600  0.141900  1.0
  H  H399  1  0.541200  0.006900  0.682200  1.0
  H  H400  1  0.458800  0.993100  0.182200  1.0
  H  H401  1  0.595700  0.947800  0.702500  1.0
  H  H402  1  0.404300  0.052200  0.202500  1.0
  H  H403  1  0.624400  0.861300  0.708700  1.0
  H  H404  1  0.375600  0.138700  0.208700  1.0
  H  H405  1  0.609200  0.741600  0.691700  1.0
  H  H406  1  0.390800  0.258400  0.191700  1.0
  H  H407  1  0.650700  0.749400  0.732600  1.0
  H  H408  1  0.349300  0.250600  0.232600  1.0
  H  H409  1  0.591900  0.782600  0.729100  1.0
  H  H410  1  0.408100  0.217400  0.229100  1.0
  H  H411  1  0.658500  0.807100  0.728400  1.0
  H  H412  1  0.341500  0.192900  0.228400  1.0
  H  H413  1  0.732900  0.822400  0.681600  1.0
  H  H414  1  0.267100  0.177600  0.181600  1.0
  H  H415  1  0.832300  0.801300  0.673700  1.0
  H  H416  1  0.167700  0.198700  0.173700  1.0
  H  H417  1  0.858700  0.720200  0.672000  1.0
  H  H418  1  0.141300  0.279800  0.172000  1.0
  H  H419  1  0.834200  0.634400  0.680400  1.0
  H  H420  1  0.165800  0.365600  0.180400  1.0
  H  H421  1  0.770700  0.574700  0.697500  1.0
  H  H422  1  0.229300  0.425300  0.197500  1.0
  H  H423  1  0.666000  0.595900  0.704500  1.0
  H  H424  1  0.334000  0.404100  0.204500  1.0
  H  H425  1  0.638100  0.676300  0.705400  1.0
  H  H426  1  0.361900  0.323700  0.205400  1.0
  H  H427  1  0.634400  0.214500  0.395600  1.0
  H  H428  1  0.365600  0.785500  0.895600  1.0
  H  H429  1  0.565900  0.269000  0.379700  1.0
  H  H430  1  0.434100  0.731000  0.879700  1.0
  H  H431  1  0.564600  0.285100  0.338100  1.0
  H  H432  1  0.435400  0.714900  0.838100  1.0
  H  H433  1  0.639800  0.248700  0.314100  1.0
  H  H434  1  0.360200  0.751300  0.814100  1.0
  H  H435  1  0.734500  0.199700  0.311600  1.0
  H  H436  1  0.265500  0.800300  0.811600  1.0
  H  H437  1  0.844100  0.135900  0.337700  1.0
  H  H438  1  0.155900  0.864100  0.837700  1.0
  H  H439  1  0.800400  0.182400  0.297100  1.0
  H  H440  1  0.199600  0.817600  0.797100  1.0
  H  H441  1  0.841600  0.136800  0.289900  1.0
  H  H442  1  0.158400  0.863200  0.789900  1.0
  H  H443  1  0.869100  0.179700  0.306600  1.0
  H  H444  1  0.130900  0.820300  0.806600  1.0
  H  H445  1  0.714100  0.081700  0.313400  1.0
  H  H446  1  0.285900  0.918300  0.813400  1.0
  H  H447  1  0.695300  0.997000  0.311100  1.0
  H  H448  1  0.304700  0.003000  0.811100  1.0
  H  H449  1  0.773900  0.942800  0.311000  1.0
  H  H450  1  0.226100  0.057200  0.811000  1.0
  H  H451  1  0.883000  0.928700  0.316000  1.0
  H  H452  1  0.117000  0.071300  0.816000  1.0
  H  H453  1  0.979000  0.955200  0.326400  1.0
  H  H454  1  0.021000  0.044800  0.826400  1.0
  H  H455  1  0.998900  0.040100  0.330400  1.0
  H  H456  1  0.001100  0.959900  0.830400  1.0
  H  H457  1  0.922900  0.095000  0.325900  1.0
  H  H458  1  0.077100  0.905000  0.825900  1.0
  H  H459  1  0.875700  0.111100  0.382200  1.0
  H  H460  1  0.124300  0.888900  0.882200  1.0
  H  H461  1  0.924600  0.035700  0.385200  1.0
  H  H462  1  0.075400  0.964300  0.885200  1.0
  H  H463  1  0.867600  0.964300  0.379600  1.0
  H  H464  1  0.132400  0.035700  0.879600  1.0
  H  H465  1  0.760900  0.967800  0.377700  1.0
  H  H466  1  0.239100  0.032200  0.877700  1.0
  H  H467  1  0.667500  0.020900  0.378900  1.0
  H  H468  1  0.332500  0.979100  0.878900  1.0
  H  H469  1  0.599600  0.124700  0.386300  1.0
  H  H470  1  0.400400  0.875300  0.886300  1.0
  H  H471  1  0.563700  0.026400  0.376400  1.0
  H  H472  1  0.436300  0.973600  0.876400  1.0
  H  H473  1  0.532500  0.064100  0.394600  1.0
  H  H474  1  0.467500  0.935900  0.894600  1.0
  H  H475  1  0.596200  0.040100  0.401500  1.0
  H  H476  1  0.403800  0.959900  0.901500  1.0
  H  H477  1  0.626600  0.059500  0.333200  1.0
  H  H478  1  0.373400  0.940500  0.833200  1.0
  H  H479  1  0.575600  0.069000  0.295500  1.0
  H  H480  1  0.424400  0.931000  0.795500  1.0
  H  H481  1  0.499600  0.124000  0.291500  1.0
  H  H482  1  0.500400  0.876000  0.791500  1.0
  H  H483  1  0.427000  0.182700  0.310600  1.0
  H  H484  1  0.573000  0.817300  0.810600  1.0
  H  H485  1  0.381300  0.213700  0.344700  1.0
  H  H486  1  0.618700  0.786300  0.844700  1.0
  H  H487  1  0.430400  0.205100  0.382300  1.0
  H  H488  1  0.569600  0.794900  0.882300  1.0
  H  H489  1  0.516600  0.158600  0.386100  1.0
  H  H490  1  0.483400  0.841400  0.886100  1.0
  H  H491  1  0.752300  0.349700  0.374900  1.0
  H  H492  1  0.247700  0.650300  0.874900  1.0
  H  H493  1  0.647500  0.350200  0.365000  1.0
  H  H494  1  0.352500  0.649800  0.865000  1.0
  H  H495  1  0.590000  0.419100  0.369300  1.0
  H  H496  1  0.410000  0.580900  0.869300  1.0
  H  H497  1  0.638200  0.492700  0.387500  1.0
  H  H498  1  0.361800  0.507300  0.887500  1.0
  H  H499  1  0.726600  0.526500  0.409700  1.0
  H  H500  1  0.273400  0.473500  0.909700  1.0
  H  H501  1  0.862800  0.517400  0.436400  1.0
  H  H502  1  0.137200  0.482600  0.936400  1.0
  H  H503  1  0.776900  0.590900  0.425700  1.0
  H  H504  1  0.223100  0.409100  0.925700  1.0
  H  H505  1  0.816500  0.586100  0.449900  1.0
  H  H506  1  0.183500  0.413900  0.949900  1.0
  H  H507  1  0.762800  0.547400  0.444400  1.0
  H  H508  1  0.237200  0.452600  0.944400  1.0
  H  H509  1  0.839900  0.560900  0.378500  1.0
  H  H510  1  0.160100  0.439100  0.878500  1.0
  H  H511  1  0.910500  0.609700  0.355500  1.0
  H  H512  1  0.089500  0.390300  0.855500  1.0
  H  H513  1  0.999500  0.635200  0.372800  1.0
  H  H514  1  0.000500  0.364800  0.872800  1.0
  H  H515  1  0.064200  0.647700  0.409800  1.0
  H  H516  1  0.935800  0.352300  0.909800  1.0
  H  H517  1  0.083800  0.631000  0.450000  1.0
  H  H518  1  0.916200  0.369000  0.950000  1.0
  H  H519  1  0.010200  0.589200  0.473500  1.0
  H  H520  1  0.989800  0.410800  0.973500  1.0
  H  H521  1  0.920200  0.561700  0.456700  1.0
  H  H522  1  0.079800  0.438300  0.956700  1.0
  H  H523  1  0.943600  0.446700  0.441000  1.0
  H  H524  1  0.056400  0.553300  0.941000  1.0
  H  H525  1  0.041600  0.477700  0.443800  1.0
  H  H526  1  0.958400  0.522300  0.943800  1.0
  H  H527  1  0.094500  0.501400  0.408200  1.0
  H  H528  1  0.905500  0.498600  0.908200  1.0
  H  H529  1  0.046900  0.488600  0.371100  1.0
  H  H530  1  0.953100  0.511400  0.871100  1.0
  H  H531  1  0.948900  0.457600  0.346900  1.0
  H  H532  1  0.051100  0.542400  0.846900  1.0
  H  H533  1  0.824200  0.394200  0.343200  1.0
  H  H534  1  0.175800  0.605800  0.843200  1.0
  H  H535  1  0.861800  0.407300  0.304000  1.0
  H  H536  1  0.138200  0.592700  0.804000  1.0
  H  H537  1  0.918300  0.397900  0.321600  1.0
  H  H538  1  0.081700  0.602100  0.821600  1.0
  H  H539  1  0.903200  0.452400  0.313100  1.0
  H  H540  1  0.096800  0.547600  0.813100  1.0
  H  H541  1  0.839400  0.523500  0.345400  1.0
  H  H542  1  0.160600  0.476500  0.845400  1.0
  H  H543  1  0.758500  0.578600  0.339400  1.0
  H  H544  1  0.241500  0.421400  0.839400  1.0
  H  H545  1  0.667300  0.552900  0.325100  1.0
  H  H546  1  0.332700  0.447100  0.825100  1.0
  H  H547  1  0.596700  0.483000  0.314600  1.0
  H  H548  1  0.403300  0.517000  0.814600  1.0
  H  H549  1  0.582400  0.401600  0.306000  1.0
  H  H550  1  0.417600  0.598400  0.806000  1.0
  H  H551  1  0.663300  0.348000  0.304300  1.0
  H  H552  1  0.336700  0.652000  0.804300  1.0
  H  H553  1  0.758500  0.373100  0.319900  1.0
  H  H554  1  0.241500  0.626900  0.819900  1.0
  H  H555  1  0.039500  0.330600  0.492700  1.0
  H  H556  1  0.960500  0.669400  0.992700  1.0
  H  H557  1  0.112300  0.379400  0.473300  1.0
  H  H558  1  0.887700  0.620600  0.973300  1.0
  H  H559  1  0.112700  0.463500  0.479800  1.0
  H  H560  1  0.887300  0.536500  0.979800  1.0
  H  H561  1  0.046000  0.496400  0.508500  1.0
  H  H562  1  0.954000  0.503600  0.008500  1.0
  H  H563  1  0.017600  0.155400  0.682100  1.0
  H  H564  1  0.982400  0.844600  0.182100  1.0
  H  H565  1  0.843300  0.416300  0.557300  1.0
  H  H566  1  0.156700  0.583700  0.057300  1.0
  H  H567  1  0.874700  0.502200  0.543800  1.0
  H  H568  1  0.125300  0.497800  0.043800  1.0
  H  H569  1  0.882500  0.509600  0.572400  1.0
  H  H570  1  0.117500  0.490400  0.072400  1.0
  H  H571  1  0.817900  0.493100  0.561500  1.0
  H  H572  1  0.182100  0.506900  0.061500  1.0
  H  H573  1  0.979600  0.442000  0.589500  1.0
  H  H574  1  0.020400  0.558000  0.089500  1.0
  H  H575  1  0.999100  0.417900  0.630100  1.0
  H  H576  1  0.000900  0.582100  0.130100  1.0
  H  H577  1  0.921600  0.388200  0.653700  1.0
  H  H578  1  0.078400  0.611800  0.153700  1.0
  H  H579  1  0.813200  0.364800  0.659100  1.0
  H  H580  1  0.186800  0.635200  0.159100  1.0
  H  H581  1  0.716400  0.357800  0.644900  1.0
  H  H582  1  0.283600  0.642200  0.144900  1.0
  H  H583  1  0.695400  0.381000  0.604600  1.0
  H  H584  1  0.304600  0.619000  0.104600  1.0
  H  H585  1  0.769700  0.417900  0.580600  1.0
  H  H586  1  0.230300  0.582100  0.080600  1.0
  H  H587  1  0.807200  0.319300  0.551200  1.0
  H  H588  1  0.192800  0.680700  0.051200  1.0
  H  H589  1  0.761000  0.284800  0.586700  1.0
  H  H590  1  0.239000  0.715200  0.086700  1.0
  H  H591  1  0.818100  0.266400  0.618800  1.0
  H  H592  1  0.181900  0.733600  0.118800  1.0
  H  H593  1  0.924200  0.268700  0.616100  1.0
  H  H594  1  0.075800  0.731300  0.116100  1.0
  H  H595  1  0.020000  0.290300  0.590300  1.0
  H  H596  1  0.980000  0.709700  0.090300  1.0
  H  H597  1  0.084400  0.306700  0.535700  1.0
  H  H598  1  0.915600  0.693300  0.035700  1.0
  H  H599  1  0.110900  0.295800  0.586500  1.0
  H  H600  1  0.889100  0.704200  0.086500  1.0
  H  H601  1  0.158500  0.285200  0.565200  1.0
  H  H602  1  0.841500  0.714800  0.065200  1.0
  H  H603  1  0.099000  0.251200  0.568200  1.0
  H  H604  1  0.901000  0.748800  0.068200  1.0
  H  H605  1  0.063700  0.389300  0.584800  1.0
  H  H606  1  0.936300  0.610700  0.084800  1.0
  H  H607  1  0.101000  0.472100  0.586100  1.0
  H  H608  1  0.899000  0.527900  0.086100  1.0
  H  H609  1  0.179100  0.495500  0.561100  1.0
  H  H610  1  0.820900  0.504500  0.061100  1.0
  H  H611  1  0.242200  0.480000  0.524200  1.0
  H  H612  1  0.757800  0.520000  0.024200  1.0
  H  H613  1  0.283500  0.425200  0.497700  1.0
  H  H614  1  0.716500  0.574800  0.997700  1.0
  H  H615  1  0.244100  0.345400  0.495000  1.0
  H  H616  1  0.755900  0.654600  0.995000  1.0
  H  H617  1  0.163400  0.320800  0.518700  1.0
  H  H618  1  0.836600  0.679200  0.018700  1.0
  H  H619  1  0.830300  0.039300  0.454700  1.0
  H  H620  1  0.169700  0.960700  0.954700  1.0
  H  H621  1  0.880400  0.986400  0.429100  1.0
  H  H622  1  0.119600  0.013600  0.929100  1.0
  H  H623  1  0.960800  0.941300  0.442300  1.0
  H  H624  1  0.039200  0.058700  0.942300  1.0
  H  H625  1  0.985200  0.946400  0.483900  1.0
  H  H626  1  0.014800  0.053600  0.983900  1.0
  H  H627  1  0.980600  0.993000  0.523000  1.0
  H  H628  1  0.019400  0.007000  0.023000  1.0
  H  H629  1  0.939300  0.091300  0.553500  1.0
  H  H630  1  0.060700  0.908700  0.053500  1.0
  H  H631  1  0.018000  0.055200  0.573500  1.0
  H  H632  1  0.982000  0.944800  0.073500  1.0
  H  H633  1  0.029100  0.051600  0.544900  1.0
  H  H634  1  0.970900  0.948400  0.044900  1.0
  H  H635  1  0.005500  0.004600  0.559600  1.0
  H  H636  1  0.994500  0.995400  0.059600  1.0
  H  H637  1  0.882300  0.971600  0.561300  1.0
  H  H638  1  0.117700  0.028400  0.061300  1.0
  H  H639  1  0.823500  0.942400  0.594500  1.0
  H  H640  1  0.176500  0.057600  0.094500  1.0
  H  H641  1  0.793900  0.995100  0.624300  1.0
  H  H642  1  0.206100  0.004900  0.124300  1.0
  H  H643  1  0.805000  0.076200  0.644600  1.0
  H  H644  1  0.195000  0.923800  0.144600  1.0
  H  H645  1  0.844500  0.155200  0.644900  1.0
  H  H646  1  0.155500  0.844800  0.144900  1.0
  H  H647  1  0.922800  0.176200  0.618800  1.0
  H  H648  1  0.077200  0.823800  0.118800  1.0
  H  H649  1  0.945500  0.127500  0.585500  1.0
  H  H650  1  0.054500  0.872500  0.085500  1.0
  H  H651  1  0.850200  0.165900  0.544100  1.0
  H  H652  1  0.149800  0.834100  0.044100  1.0
  H  H653  1  0.808800  0.186400  0.581600  1.0
  H  H654  1  0.191200  0.813600  0.081600  1.0
  H  H655  1  0.727600  0.143400  0.597300  1.0
  H  H656  1  0.272400  0.856600  0.097300  1.0
  H  H657  1  0.694200  0.069400  0.578100  1.0
  H  H658  1  0.305800  0.930600  0.078100  1.0
  H  H659  1  0.698700  0.019400  0.540700  1.0
  H  H660  1  0.301300  0.980600  0.040700  1.0
  H  H661  1  0.743400  0.997200  0.484600  1.0
  H  H662  1  0.256600  0.002800  0.984600  1.0
  H  H663  1  0.666900  0.940100  0.493800  1.0
  H  H664  1  0.333100  0.059900  0.993800  1.0
  H  H665  1  0.650700  0.993500  0.503600  1.0
  H  H666  1  0.349300  0.006500  0.003600  1.0
  H  H667  1  0.674300  0.952600  0.522000  1.0
  H  H668  1  0.325700  0.047400  0.022000  1.0
  H  H669  1  0.807000  0.944400  0.536000  1.0
  H  H670  1  0.193000  0.055600  0.036000  1.0
  H  H671  1  0.871500  0.875100  0.537200  1.0
  H  H672  1  0.128500  0.124900  0.037200  1.0
  H  H673  1  0.887900  0.831300  0.502800  1.0
  H  H674  1  0.112100  0.168700  0.002800  1.0
  H  H675  1  0.884000  0.827400  0.457200  1.0
  H  H676  1  0.116000  0.172600  0.957200  1.0
  H  H677  1  0.826200  0.838900  0.423700  1.0
  H  H678  1  0.173800  0.161100  0.923700  1.0
  H  H679  1  0.758500  0.903600  0.421400  1.0
  H  H680  1  0.241500  0.096400  0.921400  1.0
  H  H681  1  0.733700  0.946200  0.456700  1.0
  H  H682  1  0.266300  0.053800  0.956700  1.0
  H  H683  1  0.626500  0.355800  0.442000  1.0
  H  H684  1  0.373500  0.644200  0.942000  1.0
  H  H685  1  0.568900  0.374100  0.408900  1.0
  H  H686  1  0.431100  0.625900  0.908900  1.0
  H  H687  1  0.476200  0.336500  0.400600  1.0
  H  H688  1  0.523800  0.663500  0.900600  1.0
  H  H689  1  0.439100  0.274500  0.430700  1.0
  H  H690  1  0.560900  0.725500  0.930700  1.0
  H  H691  1  0.459600  0.228300  0.468300  1.0
  H  H692  1  0.540400  0.771700  0.968300  1.0
  H  H693  1  0.554700  0.192500  0.511200  1.0
  H  H694  1  0.445300  0.807500  0.011200  1.0
  H  H695  1  0.472200  0.138200  0.510000  1.0
  H  H696  1  0.527800  0.861800  0.010000  1.0
  H  H697  1  0.482000  0.155800  0.482600  1.0
  H  H698  1  0.518000  0.844200  0.982600  1.0
  H  H699  1  0.428400  0.178400  0.498600  1.0
  H  H700  1  0.571600  0.821600  0.998600  1.0
  H  H701  1  0.435100  0.276100  0.516000  1.0
  H  H702  1  0.564900  0.723900  0.016000  1.0
  H  H703  1  0.401800  0.312400  0.552500  1.0
  H  H704  1  0.598200  0.687600  0.052500  1.0
  H  H705  1  0.444500  0.291300  0.588900  1.0
  H  H706  1  0.555500  0.708700  0.088900  1.0
  H  H707  1  0.505300  0.231600  0.613700  1.0
  H  H708  1  0.494700  0.768400  0.113700  1.0
  H  H709  1  0.563700  0.164400  0.615400  1.0
  H  H710  1  0.436300  0.835600  0.115400  1.0
  H  H711  1  0.591400  0.121700  0.579800  1.0
  H  H712  1  0.408600  0.878300  0.079800  1.0
  H  H713  1  0.559700  0.149900  0.542400  1.0
  H  H714  1  0.440300  0.850100  0.042400  1.0
  H  H715  1  0.665800  0.217400  0.526700  1.0
  H  H716  1  0.334200  0.782600  0.026700  1.0
  H  H717  1  0.682600  0.213900  0.569100  1.0
  H  H718  1  0.317400  0.786100  0.069100  1.0
  H  H719  1  0.647100  0.276300  0.592100  1.0
  H  H720  1  0.352900  0.723700  0.092100  1.0
  H  H721  1  0.603400  0.342500  0.577600  1.0
  H  H722  1  0.396600  0.657500  0.077600  1.0
  H  H723  1  0.570700  0.388900  0.535800  1.0
  H  H724  1  0.429300  0.611100  0.035800  1.0
  H  H725  1  0.583500  0.412400  0.479000  1.0
  H  H726  1  0.416500  0.587600  0.979000  1.0
  H  H727  1  0.546500  0.479400  0.497600  1.0
  H  H728  1  0.453500  0.520600  0.997600  1.0
  H  H729  1  0.597200  0.454600  0.514200  1.0
  H  H730  1  0.402800  0.545400  0.014200  1.0
  H  H731  1  0.526500  0.447500  0.520600  1.0
  H  H732  1  0.473500  0.552500  0.020600  1.0
  H  H733  1  0.458200  0.350400  0.504500  1.0
  H  H734  1  0.541800  0.649600  0.004500  1.0
  H  H735  1  0.360400  0.342000  0.487900  1.0
  H  H736  1  0.639600  0.658000  0.987900  1.0
  H  H737  1  0.333900  0.386700  0.453800  1.0
  H  H738  1  0.666100  0.613300  0.953800  1.0
  H  H739  1  0.366700  0.439000  0.418900  1.0
  H  H740  1  0.633300  0.561000  0.918900  1.0
  H  H741  1  0.434100  0.493600  0.402900  1.0
  H  H742  1  0.565900  0.506400  0.902900  1.0
  H  H743  1  0.530300  0.505500  0.420000  1.0
  H  H744  1  0.469700  0.494500  0.920000  1.0
  H  H745  1  0.561900  0.456600  0.451900  1.0
  H  H746  1  0.438100  0.543400  0.951900  1.0
  H  H747  1  0.014200  0.107900  0.435200  1.0
  H  H748  1  0.985800  0.892100  0.935200  1.0
  H  H749  1  0.007700  0.028800  0.422400  1.0
  H  H750  1  0.992300  0.971200  0.922400  1.0
  H  H751  1  0.046200  0.006900  0.382700  1.0
  H  H752  1  0.953800  0.993100  0.882700  1.0
  H  H753  1  0.093700  0.073000  0.360700  1.0
  H  H754  1  0.906300  0.927000  0.860700  1.0
  H  H755  1  0.116900  0.164000  0.355200  1.0
  H  H756  1  0.883100  0.836000  0.855200  1.0
  H  H757  1  0.103600  0.277600  0.372300  1.0
  H  H758  1  0.896400  0.722400  0.872300  1.0
  H  H759  1  0.159600  0.223100  0.333800  1.0
  H  H760  1  0.840400  0.776900  0.833800  1.0
  H  H761  1  0.134100  0.277500  0.331600  1.0
  H  H762  1  0.865900  0.722500  0.831600  1.0
  H  H763  1  0.087900  0.232200  0.335300  1.0
  H  H764  1  0.912100  0.767800  0.835300  1.0
  H  H765  1  0.229500  0.203200  0.381400  1.0
  H  H766  1  0.770500  0.796800  0.881400  1.0
  H  H767  1  0.329500  0.227800  0.394100  1.0
  H  H768  1  0.670500  0.772200  0.894100  1.0
  H  H769  1  0.356700  0.309200  0.392400  1.0
  H  H770  1  0.643300  0.690800  0.892400  1.0
  H  H771  1  0.333500  0.395800  0.380800  1.0
  H  H772  1  0.666500  0.604200  0.880800  1.0
  H  H773  1  0.261300  0.452700  0.373600  1.0
  H  H774  1  0.738700  0.547300  0.873600  1.0
  H  H775  1  0.164100  0.430700  0.359500  1.0
  H  H776  1  0.835900  0.569300  0.859500  1.0
  H  H777  1  0.134700  0.349000  0.359500  1.0
  H  H778  1  0.865300  0.651000  0.859500  1.0
  H  H779  1  0.062300  0.323800  0.412400  1.0
  H  H780  1  0.937700  0.676200  0.912400  1.0
  H  H781  1  0.119300  0.393900  0.417400  1.0
  H  H782  1  0.880700  0.606100  0.917400  1.0
  H  H783  1  0.216200  0.386000  0.437900  1.0
  H  H784  1  0.783800  0.614000  0.937900  1.0
  H  H785  1  0.253100  0.310300  0.446700  1.0
  H  H786  1  0.746900  0.689700  0.946700  1.0
  H  H787  1  0.224400  0.220900  0.455200  1.0
  H  H788  1  0.775600  0.779100  0.955200  1.0
  H  H789  1  0.132300  0.125200  0.455300  1.0
  H  H790  1  0.867700  0.874800  0.955300  1.0
  H  H791  1  0.216200  0.109500  0.478300  1.0
  H  H792  1  0.783800  0.890500  0.978300  1.0
  H  H793  1  0.202100  0.166600  0.480900  1.0
  H  H794  1  0.797900  0.833400  0.980900  1.0
  H  H795  1  0.256400  0.149000  0.463800  1.0
  H  H796  1  0.743600  0.851000  0.963800  1.0
  H  H797  1  0.243600  0.152000  0.411200  1.0
  H  H798  1  0.756400  0.848000  0.911200  1.0
  H  H799  1  0.275900  0.097100  0.380100  1.0
  H  H800  1  0.724100  0.902900  0.880100  1.0
  H  H801  1  0.243700  0.018300  0.379900  1.0
  H  H802  1  0.756300  0.981700  0.879900  1.0
  H  H803  1  0.184700  0.949200  0.398800  1.0
  H  H804  1  0.815300  0.050800  0.898800  1.0
  H  H805  1  0.120600  0.921400  0.428700  1.0
  H  H806  1  0.879400  0.078600  0.928700  1.0
  H  H807  1  0.092700  0.970600  0.460900  1.0
  H  H808  1  0.907300  0.029400  0.960900  1.0
  H  H809  1  0.126000  0.052100  0.462300  1.0
  H  H810  1  0.874000  0.947900  0.962300  1.0
  H  H811  1  0.777300  0.398800  0.753100  1.0
  H  H812  1  0.222700  0.601200  0.253100  1.0
  H  H813  1  0.836800  0.460700  0.748000  1.0
  H  H814  1  0.163200  0.539300  0.248000  1.0
  H  H815  1  0.853000  0.513000  0.781500  1.0
  H  H816  1  0.147000  0.487000  0.281500  1.0
  H  H817  1  0.804900  0.500500  0.818100  1.0
  H  H818  1  0.195100  0.499500  0.318100  1.0
  H  H819  1  0.719900  0.455700  0.840100  1.0
  H  H820  1  0.280100  0.544300  0.340100  1.0
  H  H821  1  0.603200  0.382800  0.842900  1.0
  H  H822  1  0.396800  0.617200  0.342900  1.0
  H  H823  1  0.685000  0.425000  0.877700  1.0
  H  H824  1  0.315000  0.575000  0.377700  1.0
  H  H825  1  0.612900  0.419000  0.881000  1.0
  H  H826  1  0.387100  0.581000  0.381000  1.0
  H  H827  1  0.639900  0.456100  0.861100  1.0
  H  H828  1  0.360100  0.543900  0.361100  1.0
  H  H829  1  0.744400  0.331900  0.858700  1.0
  H  H830  1  0.255600  0.668100  0.358700  1.0
  H  H831  1  0.759100  0.257400  0.880500  1.0
  H  H832  1  0.240900  0.742600  0.380500  1.0
  H  H833  1  0.676700  0.213100  0.892400  1.0
  H  H834  1  0.323300  0.786900  0.392400  1.0
  H  H835  1  0.565200  0.209700  0.903900  1.0
  H  H836  1  0.434800  0.790300  0.403900  1.0
  H  H837  1  0.469000  0.233100  0.894700  1.0
  H  H838  1  0.531000  0.766900  0.394700  1.0
  H  H839  1  0.455500  0.315200  0.881500  1.0
  H  H840  1  0.544500  0.684800  0.381500  1.0
  H  H841  1  0.531500  0.348900  0.857300  1.0
  H  H842  1  0.468500  0.651100  0.357300  1.0
  H  H843  1  0.705200  0.240900  0.825200  1.0
  H  H844  1  0.294800  0.759100  0.325200  1.0
  H  H845  1  0.636500  0.174900  0.833200  1.0
  H  H846  1  0.363500  0.825100  0.333200  1.0
  H  H847  1  0.534400  0.183800  0.830400  1.0
  H  H848  1  0.465600  0.816200  0.330400  1.0
  H  H849  1  0.497500  0.253800  0.808800  1.0
  H  H850  1  0.502500  0.746200  0.308800  1.0
  H  H851  1  0.522200  0.334400  0.788000  1.0
  H  H852  1  0.477800  0.665600  0.288000  1.0
  H  H853  1  0.535000  0.405000  0.775000  1.0
  H  H854  1  0.465000  0.595000  0.275000  1.0
  H  H855  1  0.650600  0.421600  0.752100  1.0
  H  H856  1  0.349400  0.578400  0.252100  1.0
  H  H857  1  0.586800  0.441900  0.742800  1.0
  H  H858  1  0.413200  0.558100  0.242800  1.0
  H  H859  1  0.599900  0.384400  0.741900  1.0
  H  H860  1  0.400100  0.615600  0.241900  1.0
  H  H861  1  0.654500  0.483200  0.770200  1.0
  H  H862  1  0.345500  0.516800  0.270200  1.0
  H  H863  1  0.680100  0.551700  0.794500  1.0
  H  H864  1  0.319900  0.448300  0.294500  1.0
  H  H865  1  0.630000  0.565400  0.830000  1.0
  H  H866  1  0.370000  0.434600  0.330000  1.0
  H  H867  1  0.546500  0.544100  0.858900  1.0
  H  H868  1  0.453500  0.455900  0.358900  1.0
  H  H869  1  0.469100  0.491400  0.871200  1.0
  H  H870  1  0.530900  0.508600  0.371200  1.0
  H  H871  1  0.446900  0.420900  0.848700  1.0
  H  H872  1  0.553100  0.579100  0.348700  1.0
  H  H873  1  0.495200  0.406000  0.812200  1.0
  H  H874  1  0.504800  0.594000  0.312200  1.0
  H  H875  1  0.997300  0.223200  0.757700  1.0
  H  H876  1  0.002700  0.776800  0.257700  1.0
  H  H877  1  0.078300  0.243000  0.734500  1.0
  H  H878  1  0.921700  0.757000  0.234500  1.0
  H  H879  1  0.098700  0.206900  0.699400  1.0
  H  H880  1  0.901300  0.793100  0.199400  1.0
  H  H881  1  0.920600  0.114500  0.687000  1.0
  H  H882  1  0.079400  0.885500  0.187000  1.0
  H  H883  1  0.828600  0.080100  0.688700  1.0
  H  H884  1  0.171400  0.919900  0.188700  1.0
  H  H885  1  0.731300  0.119800  0.690200  1.0
  H  H886  1  0.268700  0.880200  0.190200  1.0
  H  H887  1  0.788500  0.150500  0.680100  1.0
  H  H888  1  0.211500  0.849500  0.180100  1.0
  H  H889  1  0.764600  0.159500  0.707100  1.0
  H  H890  1  0.235400  0.840500  0.207100  1.0
  H  H891  1  0.713500  0.093200  0.728500  1.0
  H  H892  1  0.286500  0.906800  0.228500  1.0
  H  H893  1  0.660800  0.025300  0.745900  1.0
  H  H894  1  0.339200  0.974700  0.245900  1.0
  H  H895  1  0.713000  0.954900  0.754000  1.0
  H  H896  1  0.287000  0.045100  0.254000  1.0
  H  H897  1  0.795700  0.899700  0.741300  1.0
  H  H898  1  0.204300  0.100300  0.241300  1.0
  H  H899  1  0.893100  0.888400  0.728500  1.0
  H  H900  1  0.106900  0.111600  0.228500  1.0
  H  H901  1  0.939200  0.950100  0.704600  1.0
  H  H902  1  0.060800  0.049900  0.204600  1.0
  H  H903  1  0.899600  0.028100  0.703400  1.0
  H  H904  1  0.100400  0.971900  0.203400  1.0
  H  H905  1  0.733300  0.189000  0.757700  1.0
  H  H906  1  0.266700  0.811000  0.257700  1.0
  H  H907  1  0.656500  0.159200  0.785300  1.0
  H  H908  1  0.343500  0.840800  0.285300  1.0
  H  H909  1  0.670300  0.089700  0.806500  1.0
  H  H910  1  0.329700  0.910300  0.306500  1.0
  H  H911  1  0.762000  0.051100  0.805300  1.0
  H  H912  1  0.238000  0.948900  0.305300  1.0
  H  H913  1  0.865900  0.039600  0.784700  1.0
  H  H914  1  0.134100  0.960400  0.284700  1.0
  H  H915  1  0.961500  0.064500  0.742400  1.0
  H  H916  1  0.038500  0.935500  0.242400  1.0
  H  H917  1  0.971700  0.014000  0.786400  1.0
  H  H918  1  0.028300  0.986000  0.286400  1.0
  H  H919  1  0.995700  0.998100  0.760200  1.0
  H  H920  1  0.004300  0.001900  0.260200  1.0
  H  H921  1  0.924200  0.997100  0.765900  1.0
  H  H922  1  0.075800  0.002900  0.265900  1.0
  H  H923  1  0.972200  0.121800  0.798600  1.0
  H  H924  1  0.027800  0.878200  0.298600  1.0
  H  H925  1  0.054400  0.171900  0.811800  1.0
  H  H926  1  0.945600  0.828100  0.311800  1.0
  H  H927  1  0.142000  0.176600  0.789600  1.0
  H  H928  1  0.858000  0.823400  0.289600  1.0
  H  H929  1  0.204400  0.147300  0.755100  1.0
  H  H930  1  0.795600  0.852700  0.255100  1.0
  H  H931  1  0.204600  0.119000  0.715500  1.0
  H  H932  1  0.795400  0.881000  0.215500  1.0
  H  H933  1  0.129100  0.060500  0.704000  1.0
  H  H934  1  0.870900  0.939500  0.204000  1.0
  H  H935  1  0.039900  0.054500  0.725500  1.0
  H  H936  1  0.960100  0.945500  0.225500  1.0
  H  H937  1  0.015000  0.525000  0.659000  1.0
  H  H938  1  0.985000  0.475000  0.159000  1.0
  C  C939  1  0.337900  0.705400  0.502510  1.0
  C  C940  1  0.662100  0.294600  0.002510  1.0
  C  C941  1  0.307900  0.725500  0.482400  1.0
  C  C942  1  0.692100  0.274500  0.982400  1.0
  C  C943  1  0.344100  0.742500  0.463250  1.0
  C  C944  1  0.655900  0.257500  0.963250  1.0
  C  C945  1  0.407100  0.738600  0.465300  1.0
  C  C946  1  0.592900  0.261400  0.965300  1.0
  C  C947  1  0.431600  0.715800  0.485240  1.0
  C  C948  1  0.568400  0.284200  0.985240  1.0
  C  C949  1  0.496600  0.714800  0.489000  1.0
  C  C950  1  0.503400  0.285200  0.989000  1.0
  C  C951  1  0.582900  0.695800  0.512620  1.0
  C  C952  1  0.417100  0.304200  0.012620  1.0
  C  C953  1  0.621200  0.730700  0.498900  1.0
  C  C954  1  0.378800  0.269300  0.998900  1.0
  C  C955  1  0.613500  0.644200  0.511620  1.0
  C  C956  1  0.386500  0.355800  0.011620  1.0
  C  C957  1  0.596600  0.614500  0.492700  1.0
  C  C958  1  0.403400  0.385500  0.992700  1.0
  C  C959  1  0.622400  0.569300  0.489400  1.0
  C  C960  1  0.377600  0.430700  0.989400  1.0
  C  C961  1  0.664000  0.552300  0.506100  1.0
  C  C962  1  0.336000  0.447700  0.006100  1.0
  C  C963  1  0.685300  0.584000  0.525000  1.0
  C  C964  1  0.314700  0.416000  0.025000  1.0
  C  C965  1  0.730800  0.568700  0.541000  1.0
  C  C966  1  0.269200  0.431300  0.041000  1.0
  C  C967  1  0.754000  0.598700  0.558800  1.0
  C  C968  1  0.246000  0.401300  0.058800  1.0
  C  C969  1  0.729400  0.644900  0.560900  1.0
  C  C970  1  0.270600  0.355100  0.060900  1.0
  C  C971  1  0.685100  0.661600  0.545640  1.0
  C  C972  1  0.314900  0.338400  0.045640  1.0
  C  C973  1  0.659500  0.630400  0.527780  1.0
  C  C974  1  0.340500  0.369600  0.027780  1.0
  C  C975  1  0.542300  0.646600  0.571100  1.0
  C  C976  1  0.457700  0.353400  0.071100  1.0
  C  C977  1  0.584400  0.621700  0.583300  1.0
  C  C978  1  0.415600  0.378300  0.083300  1.0
  C  C979  1  0.591000  0.569100  0.577900  1.0
  C  C980  1  0.409000  0.430900  0.077900  1.0
  C  C981  1  0.549600  0.551900  0.560300  1.0
  C  C982  1  0.450400  0.448100  0.060300  1.0
  C  C983  1  0.509500  0.579000  0.549020  1.0
  C  C984  1  0.490500  0.421000  0.049020  1.0
  C  C985  1  0.465300  0.560800  0.530900  1.0
  C  C986  1  0.534700  0.439200  0.030900  1.0
  C  C987  1  0.383700  0.574000  0.503490  1.0
  C  C988  1  0.616300  0.426000  0.003490  1.0
  C  C989  1  0.370700  0.518100  0.504400  1.0
  C  C990  1  0.629300  0.481900  0.004400  1.0
  C  C991  1  0.393900  0.591300  0.477980  1.0
  C  C992  1  0.606100  0.408700  0.977980  1.0
  C  C993  1  0.449500  0.587800  0.468170  1.0
  C  C994  1  0.550500  0.412200  0.968170  1.0
  C  C995  1  0.461500  0.606900  0.444900  1.0
  C  C996  1  0.538500  0.393100  0.944900  1.0
  C  C997  1  0.416100  0.625000  0.431600  1.0
  C  C998  1  0.583900  0.375000  0.931600  1.0
  C  C999  1  0.356800  0.628200  0.440010  1.0
  C  C1000  1  0.643200  0.371800  0.940010  1.0
  C  C1001  1  0.308400  0.648600  0.427500  1.0
  C  C1002  1  0.691600  0.351400  0.927500  1.0
  C  C1003  1  0.250500  0.648600  0.434240  1.0
  C  C1004  1  0.749500  0.351400  0.934240  1.0
  C  C1005  1  0.237500  0.627800  0.457500  1.0
  C  C1006  1  0.762500  0.372200  0.957500  1.0
  C  C1007  1  0.282400  0.609600  0.471230  1.0
  C  C1008  1  0.717600  0.390400  0.971230  1.0
  C  C1009  1  0.343600  0.610400  0.463610  1.0
  C  C1010  1  0.656400  0.389600  0.963610  1.0
  C  C1011  1  0.315100  0.871300  0.512700  1.0
  C  C1012  1  0.684900  0.128700  0.012700  1.0
  C  C1013  1  0.288100  0.858900  0.489700  1.0
  C  C1014  1  0.711900  0.141100  0.989700  1.0
  C  C1015  1  0.243100  0.885700  0.480500  1.0
  C  C1016  1  0.756900  0.114300  0.980500  1.0
  C  C1017  1  0.224700  0.926600  0.493700  1.0
  C  C1018  1  0.775300  0.073400  0.993700  1.0
  C  C1019  1  0.256400  0.936800  0.515400  1.0
  C  C1020  1  0.743600  0.063200  0.015400  1.0
  C  C1021  1  0.235100  0.980400  0.529700  1.0
  C  C1022  1  0.764900  0.019600  0.029700  1.0
  C  C1023  1  0.241600  0.028200  0.565820  1.0
  C  C1024  1  0.758400  0.971800  0.065820  1.0
  C  C1025  1  0.179400  0.042700  0.561900  1.0
  C  C1026  1  0.820600  0.957300  0.061900  1.0
  C  C1027  1  0.285200  0.073100  0.565450  1.0
  C  C1028  1  0.714800  0.926900  0.065450  1.0
  C  C1029  1  0.310900  0.089600  0.544460  1.0
  C  C1030  1  0.689100  0.910400  0.044460  1.0
  C  C1031  1  0.350900  0.130200  0.544300  1.0
  C  C1032  1  0.649100  0.869800  0.044300  1.0
  C  C1033  1  0.367700  0.154100  0.564600  1.0
  C  C1034  1  0.632300  0.845900  0.064600  1.0
  C  C1035  1  0.341800  0.139200  0.586700  1.0
  C  C1036  1  0.658200  0.860800  0.086700  1.0
  C  C1037  1  0.356400  0.164700  0.608300  1.0
  C  C1038  1  0.643600  0.835300  0.108300  1.0
  C  C1039  1  0.332500  0.150600  0.629600  1.0
  C  C1040  1  0.667500  0.849400  0.129600  1.0
  C  C1041  1  0.288200  0.112400  0.630600  1.0
  C  C1042  1  0.711800  0.887600  0.130600  1.0
  C  C1043  1  0.273100  0.087400  0.610100  1.0
  C  C1044  1  0.726900  0.912600  0.110100  1.0
  C  C1045  1  0.299000  0.099900  0.587740  1.0
  C  C1046  1  0.701000  0.900100  0.087740  1.0
  C  C1047  1  0.366700  0.991300  0.604610  1.0
  C  C1048  1  0.633300  0.008700  0.104610  1.0
  C  C1049  1  0.395400  0.022800  0.620800  1.0
  C  C1050  1  0.604600  0.977200  0.120800  1.0
  C  C1051  1  0.438300  0.052700  0.611500  1.0
  C  C1052  1  0.561700  0.947300  0.111500  1.0
  C  C1053  1  0.456900  0.048200  0.587000  1.0
  C  C1054  1  0.543100  0.951800  0.087000  1.0
  C  C1055  1  0.425300  0.014800  0.572900  1.0
  C  C1056  1  0.574700  0.985200  0.072900  1.0
  C  C1057  1  0.445700  0.005700  0.547700  1.0
  C  C1058  1  0.554300  0.994300  0.047700  1.0
  C  C1059  1  0.435300  0.960100  0.510900  1.0
  C  C1060  1  0.564700  0.039900  0.010900  1.0
  C  C1061  1  0.501100  0.970800  0.505600  1.0
  C  C1062  1  0.498900  0.029200  0.005600  1.0
  C  C1063  1  0.395300  0.977700  0.490350  1.0
  C  C1064  1  0.604700  0.022300  0.990350  1.0
  C  C1065  1  0.372100  0.022300  0.492720  1.0
  C  C1066  1  0.627900  0.977700  0.992720  1.0
  C  C1067  1  0.334900  0.042000  0.474250  1.0
  C  C1068  1  0.665100  0.958000  0.974250  1.0
  C  C1069  1  0.318000  0.013600  0.454600  1.0
  C  C1070  1  0.682000  0.986400  0.954600  1.0
  C  C1071  1  0.342100  0.967400  0.451950  1.0
  C  C1072  1  0.657900  0.032600  0.951950  1.0
  C  C1073  1  0.330000  0.938500  0.431500  1.0
  C  C1074  1  0.670000  0.061500  0.931500  1.0
  C  C1075  1  0.352500  0.892400  0.428400  1.0
  C  C1076  1  0.647500  0.107600  0.928400  1.0
  C  C1077  1  0.395400  0.874800  0.445500  1.0
  C  C1078  1  0.604600  0.125200  0.945500  1.0
  C  C1079  1  0.409000  0.902400  0.465820  1.0
  C  C1080  1  0.591000  0.097600  0.965820  1.0
  C  C1081  1  0.381400  0.948100  0.469430  1.0
  C  C1082  1  0.618600  0.051900  0.969430  1.0
  C  C1083  1  0.355700  0.935000  0.685770  1.0
  C  C1084  1  0.644300  0.065000  0.185770  1.0
  C  C1085  1  0.386300  0.983900  0.684040  1.0
  C  C1086  1  0.613700  0.016100  0.184040  1.0
  C  C1087  1  0.350000  0.022300  0.684600  1.0
  C  C1088  1  0.650000  0.977700  0.184600  1.0
  C  C1089  1  0.290600  0.020400  0.687000  1.0
  C  C1090  1  0.709400  0.979600  0.187000  1.0
  C  C1091  1  0.264700  0.972500  0.687300  1.0
  C  C1092  1  0.735300  0.027500  0.187300  1.0
  C  C1093  1  0.198200  0.965600  0.688390  1.0
  C  C1094  1  0.801800  0.034400  0.188390  1.0
  C  C1095  1  0.111300  0.914800  0.689340  1.0
  C  C1096  1  0.888700  0.085200  0.189340  1.0
  C  C1097  1  0.072500  0.955700  0.679500  1.0
  C  C1098  1  0.927500  0.044300  0.179500  1.0
  C  C1099  1  0.081500  0.899900  0.713390  1.0
  C  C1100  1  0.918500  0.100100  0.213390  1.0
  C  C1101  1  0.099900  0.920500  0.734510  1.0
  C  C1102  1  0.900100  0.079500  0.234510  1.0
  C  C1103  1  0.075600  0.912200  0.757310  1.0
  C  C1104  1  0.924400  0.087800  0.257310  1.0
  C  C1105  1  0.033000  0.875200  0.760200  1.0
  C  C1106  1  0.967000  0.124800  0.260200  1.0
  C  C1107  1  0.012600  0.849000  0.739680  1.0
  C  C1108  1  0.987400  0.151000  0.239680  1.0
  C  C1109  1  0.968600  0.810500  0.741500  1.0
  C  C1110  1  0.031400  0.189500  0.241500  1.0
  C  C1111  1  0.944200  0.788600  0.721500  1.0
  C  C1112  1  0.055800  0.211400  0.221500  1.0
  C  C1113  1  0.963900  0.804700  0.697900  1.0
  C  C1114  1  0.036100  0.195300  0.197900  1.0
  C  C1115  1  0.007100  0.840500  0.695500  1.0
  C  C1116  1  0.992900  0.159500  0.195500  1.0
  C  C1117  1  0.036100  0.860800  0.716260  1.0
  C  C1118  1  0.963900  0.139200  0.216260  1.0
  C  C1119  1  0.142400  0.789300  0.686200  1.0
  C  C1120  1  0.857600  0.210700  0.186200  1.0
  C  C1121  1  0.101700  0.755300  0.695500  1.0
  C  C1122  1  0.898300  0.244700  0.195500  1.0
  C  C1123  1  0.102900  0.744400  0.720000  1.0
  C  C1124  1  0.897100  0.255600  0.220000  1.0
  C  C1125  1  0.148700  0.766400  0.735600  1.0
  C  C1126  1  0.851300  0.233600  0.235600  1.0
  C  C1127  1  0.185700  0.801200  0.723700  1.0
  C  C1128  1  0.814300  0.198800  0.223700  1.0
  C  C1129  1  0.234200  0.828100  0.738000  1.0
  C  C1130  1  0.765800  0.171900  0.238000  1.0
  C  C1131  1  0.318300  0.881900  0.740280  1.0
  C  C1132  1  0.681700  0.118100  0.240280  1.0
  C  C1133  1  0.337900  0.855800  0.764400  1.0
  C  C1134  1  0.662100  0.144200  0.264400  1.0
  C  C1135  1  0.309900  0.935800  0.745190  1.0
  C  C1136  1  0.690100  0.064200  0.245190  1.0
  C  C1137  1  0.254700  0.954400  0.749770  1.0
  C  C1138  1  0.745300  0.045600  0.249770  1.0
  C  C1139  1  0.244000  0.004400  0.753300  1.0
  C  C1140  1  0.756000  0.995600  0.253300  1.0
  C  C1141  1  0.291700  0.037700  0.751300  1.0
  C  C1142  1  0.708300  0.962300  0.251300  1.0
  C  C1143  1  0.350600  0.020000  0.747700  1.0
  C  C1144  1  0.649400  0.980000  0.247700  1.0
  C  C1145  1  0.399200  0.054400  0.745500  1.0
  C  C1146  1  0.600800  0.945600  0.245500  1.0
  C  C1147  1  0.457000  0.038600  0.743000  1.0
  C  C1148  1  0.543000  0.961400  0.243000  1.0
  C  C1149  1  0.468600  0.988000  0.739000  1.0
  C  C1150  1  0.531400  0.012000  0.239000  1.0
  C  C1151  1  0.421800  0.954000  0.740600  1.0
  C  C1152  1  0.578200  0.046000  0.240600  1.0
  C  C1153  1  0.361900  0.969100  0.744600  1.0
  C  C1154  1  0.638100  0.030900  0.244600  1.0
  C  C1155  1  0.463700  0.566900  0.640000  1.0
  C  C1156  1  0.536300  0.433100  0.140000  1.0
  C  C1157  1  0.524200  0.547200  0.639200  1.0
  C  C1158  1  0.475800  0.452800  0.139200  1.0
  C  C1159  1  0.554300  0.536600  0.660300  1.0
  C  C1160  1  0.445700  0.463400  0.160300  1.0
  C  C1161  1  0.522400  0.541800  0.681800  1.0
  C  C1162  1  0.477600  0.458200  0.181800  1.0
  C  C1163  1  0.463100  0.560500  0.681900  1.0
  C  C1164  1  0.536900  0.439500  0.181900  1.0
  C  C1165  1  0.427100  0.567500  0.704900  1.0
  C  C1166  1  0.572900  0.432500  0.204900  1.0
  C  C1167  1  0.338000  0.590200  0.725100  1.0
  C  C1168  1  0.662000  0.409800  0.225100  1.0
  C  C1169  1  0.377100  0.599100  0.748200  1.0
  C  C1170  1  0.622900  0.400900  0.248200  1.0
  C  C1171  1  0.287300  0.554800  0.730500  1.0
  C  C1172  1  0.712700  0.445200  0.230500  1.0
  C  C1173  1  0.295800  0.507000  0.726700  1.0
  C  C1174  1  0.704200  0.493000  0.226700  1.0
  C  C1175  1  0.246700  0.472900  0.728500  1.0
  C  C1176  1  0.753300  0.527100  0.228500  1.0
  C  C1177  1  0.190100  0.487400  0.735100  1.0
  C  C1178  1  0.809900  0.512600  0.235100  1.0
  C  C1179  1  0.184600  0.534300  0.743600  1.0
  C  C1180  1  0.815400  0.465700  0.243600  1.0
  C  C1181  1  0.126000  0.548300  0.752200  1.0
  C  C1182  1  0.874000  0.451700  0.252200  1.0
  C  C1183  1  0.116000  0.598100  0.756000  1.0
  C  C1184  1  0.884000  0.401900  0.256000  1.0
  C  C1185  1  0.164200  0.633100  0.754800  1.0
  C  C1186  1  0.835800  0.366900  0.254800  1.0
  C  C1187  1  0.219100  0.619300  0.747000  1.0
  C  C1188  1  0.780900  0.380700  0.247000  1.0
  C  C1189  1  0.229700  0.570400  0.740200  1.0
  C  C1190  1  0.770300  0.429600  0.240200  1.0
  C  C1191  1  0.221800  0.632900  0.684820  1.0
  C  C1192  1  0.778200  0.367100  0.184820  1.0
  C  C1193  1  0.162200  0.628000  0.692100  1.0
  C  C1194  1  0.837800  0.372000  0.192100  1.0
  C  C1195  1  0.131700  0.586500  0.691000  1.0
  C  C1196  1  0.868300  0.413500  0.191000  1.0
  C  C1197  1  0.161400  0.547900  0.680300  1.0
  C  C1198  1  0.838600  0.452100  0.180300  1.0
  C  C1199  1  0.220300  0.553200  0.673940  1.0
  C  C1200  1  0.779700  0.446800  0.173940  1.0
  C  C1201  1  0.255000  0.512100  0.662800  1.0
  C  C1202  1  0.745000  0.487900  0.162800  1.0
  C  C1203  1  0.341000  0.480400  0.643100  1.0
  C  C1204  1  0.659000  0.519600  0.143100  1.0
  C  C1205  1  0.300200  0.444600  0.631300  1.0
  C  C1206  1  0.699800  0.555400  0.131300  1.0
  C  C1207  1  0.390300  0.456600  0.656200  1.0
  C  C1208  1  0.609700  0.543400  0.156200  1.0
  C  C1209  1  0.382900  0.445800  0.679700  1.0
  C  C1210  1  0.617100  0.554200  0.179700  1.0
  C  C1211  1  0.427500  0.422400  0.692900  1.0
  C  C1212  1  0.572500  0.577600  0.192900  1.0
  C  C1213  1  0.482800  0.410000  0.684000  1.0
  C  C1214  1  0.517200  0.590000  0.184000  1.0
  C  C1215  1  0.490600  0.419000  0.659100  1.0
  C  C1216  1  0.509400  0.581000  0.159100  1.0
  C  C1217  1  0.546500  0.404000  0.647400  1.0
  C  C1218  1  0.453500  0.596000  0.147400  1.0
  C  C1219  1  0.554800  0.412300  0.622900  1.0
  C  C1220  1  0.445200  0.587700  0.122900  1.0
  C  C1221  1  0.509900  0.435900  0.608800  1.0
  C  C1222  1  0.490100  0.564100  0.108800  1.0
  C  C1223  1  0.456300  0.447300  0.619500  1.0
  C  C1224  1  0.543700  0.552700  0.119500  1.0
  C  C1225  1  0.445700  0.439600  0.644600  1.0
  C  C1226  1  0.554300  0.560400  0.144600  1.0
  C  C1227  1  0.154400  0.767600  0.531000  1.0
  C  C1228  1  0.845600  0.232400  0.031000  1.0
  C  C1229  1  0.163300  0.768800  0.506700  1.0
  C  C1230  1  0.836700  0.231200  0.006700  1.0
  C  C1231  1  0.141300  0.734000  0.490000  1.0
  C  C1232  1  0.858700  0.266000  0.990000  1.0
  C  C1233  1  0.113300  0.693600  0.502400  1.0
  C  C1234  1  0.886700  0.306400  0.002400  1.0
  C  C1235  1  0.103600  0.691200  0.527100  1.0
  C  C1236  1  0.896400  0.308800  0.027100  1.0
  C  C1237  1  0.078700  0.651900  0.538400  1.0
  C  C1238  1  0.921300  0.348100  0.038400  1.0
  C  C1239  1  0.045900  0.607900  0.574800  1.0
  C  C1240  1  0.954100  0.392100  0.074800  1.0
  C  C1241  1  0.046800  0.559800  0.559200  1.0
  C  C1242  1  0.953200  0.440200  0.059200  1.0
  C  C1243  1  0.987700  0.614000  0.587400  1.0
  C  C1244  1  0.012300  0.386000  0.087400  1.0
  C  C1245  1  0.943600  0.640400  0.576800  1.0
  C  C1246  1  0.056400  0.359600  0.076800  1.0
  C  C1247  1  0.888700  0.649900  0.589100  1.0
  C  C1248  1  0.111300  0.350100  0.089100  1.0
  C  C1249  1  0.876400  0.629200  0.611300  1.0
  C  C1250  1  0.123600  0.370800  0.111300  1.0
  C  C1251  1  0.918900  0.597600  0.621500  1.0
  C  C1252  1  0.081100  0.402400  0.121500  1.0
  C  C1253  1  0.906800  0.573900  0.643700  1.0
  C  C1254  1  0.093200  0.426100  0.143700  1.0
  C  C1255  1  0.950700  0.545600  0.654200  1.0
  C  C1256  1  0.049300  0.454400  0.154200  1.0
  C  C1257  1  0.007300  0.536500  0.643800  1.0
  C  C1258  1  0.992700  0.463500  0.143800  1.0
  C  C1259  1  0.018900  0.559900  0.622200  1.0
  C  C1260  1  0.981100  0.440100  0.122200  1.0
  C  C1261  1  0.975400  0.589800  0.610500  1.0
  C  C1262  1  0.024600  0.410200  0.110500  1.0
  C  C1263  1  0.083100  0.676800  0.627900  1.0
  C  C1264  1  0.916900  0.323200  0.127900  1.0
  C  C1265  1  0.046900  0.668500  0.648700  1.0
  C  C1266  1  0.953100  0.331500  0.148700  1.0
  C  C1267  1  0.992200  0.690300  0.652200  1.0
  C  C1268  1  0.007800  0.309700  0.152200  1.0
  C  C1269  1  0.974100  0.723100  0.634500  1.0
  C  C1270  1  0.025900  0.276900  0.134500  1.0
  C  C1271  1  0.010100  0.729000  0.614400  1.0
  C  C1272  1  0.989900  0.271000  0.114400  1.0
  C  C1273  1  0.993000  0.764600  0.595500  1.0
  C  C1274  1  0.007000  0.235400  0.095500  1.0
  C  C1275  1  0.013800  0.804800  0.557500  1.0
  C  C1276  1  0.986200  0.195200  0.057500  1.0
  C  C1277  1  0.971100  0.846700  0.564200  1.0
  C  C1278  1  0.028900  0.153300  0.064200  1.0
  C  C1279  1  0.991700  0.781100  0.533710  1.0
  C  C1280  1  0.008300  0.218900  0.033710  1.0
  C  C1281  1  0.954100  0.742400  0.534030  1.0
  C  C1282  1  0.045900  0.257600  0.034030  1.0
  C  C1283  1  0.935600  0.718100  0.512600  1.0
  C  C1284  1  0.064400  0.281900  0.012600  1.0
  C  C1285  1  0.957200  0.734200  0.491100  1.0
  C  C1286  1  0.042800  0.265800  0.991100  1.0
  C  C1287  1  0.994300  0.776100  0.489600  1.0
  C  C1288  1  0.005700  0.223900  0.989600  1.0
  C  C1289  1  0.014700  0.794100  0.467100  1.0
  C  C1290  1  0.985300  0.205900  0.967100  1.0
  C  C1291  1  0.050200  0.835800  0.465110  1.0
  C  C1292  1  0.949800  0.164200  0.965110  1.0
  C  C1293  1  0.065100  0.862000  0.486350  1.0
  C  C1294  1  0.934900  0.138000  0.986350  1.0
  C  C1295  1  0.048900  0.844500  0.508670  1.0
  C  C1296  1  0.951100  0.155500  0.008670  1.0
  C  C1297  1  0.013300  0.801100  0.510750  1.0
  C  C1298  1  0.986700  0.198900  0.010750  1.0
  C  C1299  1  0.602500  0.698700  0.646260  1.0
  C  C1300  1  0.397500  0.301300  0.146260  1.0
  C  C1301  1  0.636900  0.656000  0.643720  1.0
  C  C1302  1  0.363100  0.344000  0.143720  1.0
  C  C1303  1  0.692900  0.660300  0.631500  1.0
  C  C1304  1  0.307100  0.339700  0.131500  1.0
  C  C1305  1  0.712300  0.706900  0.624100  1.0
  C  C1306  1  0.287700  0.293100  0.124100  1.0
  C  C1307  1  0.675000  0.746400  0.627900  1.0
  C  C1308  1  0.325000  0.253600  0.127900  1.0
  C  C1309  1  0.692100  0.795100  0.619000  1.0
  C  C1310  1  0.307900  0.204900  0.119000  1.0
  C  C1311  1  0.671500  0.879300  0.613620  1.0
  C  C1312  1  0.328500  0.120700  0.113620  1.0
  C  C1313  1  0.715400  0.881500  0.591290  1.0
  C  C1314  1  0.284600  0.118500  0.091290  1.0
  C  C1315  1  0.693300  0.917600  0.633760  1.0
  C  C1316  1  0.306700  0.082400  0.133760  1.0
  C  C1317  1  0.731800  0.903000  0.651130  1.0
  C  C1318  1  0.268200  0.097000  0.151130  1.0
  C  C1319  1  0.748500  0.935600  0.670150  1.0
  C  C1320  1  0.251500  0.064400  0.170150  1.0
  C  C1321  1  0.726300  0.980400  0.670140  1.0
  C  C1322  1  0.273700  0.019600  0.170140  1.0
  C  C1323  1  0.687300  0.996900  0.652860  1.0
  C  C1324  1  0.312700  0.003100  0.152860  1.0
  C  C1325  1  0.667100  0.046400  0.652100  1.0
  C  C1326  1  0.332900  0.953600  0.152100  1.0
  C  C1327  1  0.632000  0.062300  0.634000  1.0
  C  C1328  1  0.368000  0.937700  0.134000  1.0
  C  C1329  1  0.616400  0.031900  0.614500  1.0
  C  C1330  1  0.383600  0.968100  0.114500  1.0
  C  C1331  1  0.636000  0.985100  0.613650  1.0
  C  C1332  1  0.364000  0.014900  0.113650  1.0
  C  C1333  1  0.671000  0.966400  0.632790  1.0
  C  C1334  1  0.329000  0.033600  0.132790  1.0
  C  C1335  1  0.533100  0.915500  0.643700  1.0
  C  C1336  1  0.466900  0.084500  0.143700  1.0
  C  C1337  1  0.526600  0.964300  0.651900  1.0
  C  C1338  1  0.473400  0.035700  0.151900  1.0
  C  C1339  1  0.547800  0.975700  0.675200  1.0
  C  C1340  1  0.452200  0.024300  0.175200  1.0
  C  C1341  1  0.577900  0.940300  0.687200  1.0
  C  C1342  1  0.422100  0.059700  0.187200  1.0
  C  C1343  1  0.583200  0.894400  0.678030  1.0
  C  C1344  1  0.416800  0.105600  0.178030  1.0
  C  C1345  1  0.611900  0.856100  0.692400  1.0
  C  C1346  1  0.388100  0.143900  0.192400  1.0
  C  C1347  1  0.637200  0.769500  0.696000  1.0
  C  C1348  1  0.362800  0.230500  0.196000  1.0
  C  C1349  1  0.634300  0.777900  0.724200  1.0
  C  C1350  1  0.365700  0.222100  0.224200  1.0
  C  C1351  1  0.701100  0.755500  0.689700  1.0
  C  C1352  1  0.298900  0.244500  0.189700  1.0
  C  C1353  1  0.744100  0.789000  0.682800  1.0
  C  C1354  1  0.255900  0.211000  0.182800  1.0
  C  C1355  1  0.803000  0.776500  0.677400  1.0
  C  C1356  1  0.197000  0.223500  0.177400  1.0
  C  C1357  1  0.819200  0.729000  0.677400  1.0
  C  C1358  1  0.180800  0.271000  0.177400  1.0
  C  C1359  1  0.778000  0.692500  0.685300  1.0
  C  C1360  1  0.222000  0.307500  0.185300  1.0
  C  C1361  1  0.795000  0.643100  0.686200  1.0
  C  C1362  1  0.205000  0.356900  0.186200  1.0
  C  C1363  1  0.757000  0.607200  0.695000  1.0
  C  C1364  1  0.243000  0.392800  0.195000  1.0
  C  C1365  1  0.695000  0.620700  0.700500  1.0
  C  C1366  1  0.305000  0.379300  0.200500  1.0
  C  C1367  1  0.677600  0.667800  0.700000  1.0
  C  C1368  1  0.322400  0.332200  0.200000  1.0
  C  C1369  1  0.717800  0.704400  0.691400  1.0
  C  C1370  1  0.282200  0.295600  0.191400  1.0
  C  C1371  1  0.484000  0.768700  0.552650  1.0
  C  C1372  1  0.516000  0.231300  0.052650  1.0
  C  C1373  1  0.447600  0.867400  0.559110  1.0
  C  C1374  1  0.552400  0.132600  0.059110  1.0
  C  C1375  1  0.532700  0.823900  0.592150  1.0
  C  C1376  1  0.467300  0.176100  0.092150  1.0
  C  C1377  1  0.564000  0.898300  0.559870  1.0
  C  C1378  1  0.436000  0.101700  0.059870  1.0
  C  C1379  1  0.603800  0.799100  0.555810  1.0
  C  C1380  1  0.396200  0.200900  0.055810  1.0
  C  C1381  1  0.521300  0.839300  0.522520  1.0
  C  C1382  1  0.478700  0.160700  0.022520  1.0
  C  C1383  1  0.233500  0.904400  0.588400  1.0
  C  C1384  1  0.766500  0.095600  0.088400  1.0
  C  C1385  1  0.197200  0.874400  0.635900  1.0
  C  C1386  1  0.802800  0.125600  0.135900  1.0
  C  C1387  1  0.151100  0.825200  0.594380  1.0
  C  C1388  1  0.848900  0.174800  0.094380  1.0
  C  C1389  1  0.079000  0.880200  0.623160  1.0
  C  C1390  1  0.921000  0.119800  0.123160  1.0
  C  C1391  1  0.116400  0.911000  0.575400  1.0
  C  C1392  1  0.883600  0.089000  0.075400  1.0
  C  C1393  1  0.158700  0.959900  0.617110  1.0
  C  C1394  1  0.841300  0.040100  0.117110  1.0
  C  C1395  1  0.351900  0.796600  0.692070  1.0
  C  C1396  1  0.648100  0.203400  0.192070  1.0
  C  C1397  1  0.383000  0.696600  0.685360  1.0
  C  C1398  1  0.617000  0.303400  0.185360  1.0
  C  C1399  1  0.471200  0.769400  0.676830  1.0
  C  C1400  1  0.528800  0.230600  0.176830  1.0
  C  C1401  1  0.482300  0.707400  0.713300  1.0
  C  C1402  1  0.517700  0.292600  0.213300  1.0
  C  C1403  1  0.456700  0.801400  0.722100  1.0
  C  C1404  1  0.543300  0.198600  0.222100  1.0
  C  C1405  1  0.366300  0.734000  0.729060  1.0
  C  C1406  1  0.633700  0.266000  0.229060  1.0
  C  C1407  1  0.333000  0.631300  0.563460  1.0
  C  C1408  1  0.667000  0.368700  0.063460  1.0
  C  C1409  1  0.307600  0.603500  0.611950  1.0
  C  C1410  1  0.692400  0.396500  0.111950  1.0
  C  C1411  1  0.216900  0.648000  0.582560  1.0
  C  C1412  1  0.783100  0.352000  0.082560  1.0
  C  C1413  1  0.207600  0.553500  0.598710  1.0
  C  C1414  1  0.792400  0.446500  0.098710  1.0
  C  C1415  1  0.232300  0.583000  0.547990  1.0
  C  C1416  1  0.767700  0.417000  0.047990  1.0
  C  C1417  1  0.319200  0.534900  0.576310  1.0
  C  C1418  1  0.680800  0.465100  0.076310  1.0
  C  C1419  1  0.636300  0.221700  0.378770  1.0
  C  C1420  1  0.363700  0.778300  0.878770  1.0
  C  C1421  1  0.594400  0.253800  0.369260  1.0
  C  C1422  1  0.405600  0.746200  0.869260  1.0
  C  C1423  1  0.593900  0.264000  0.344970  1.0
  C  C1424  1  0.406100  0.736000  0.844970  1.0
  C  C1425  1  0.637800  0.242000  0.330990  1.0
  C  C1426  1  0.362200  0.758000  0.830990  1.0
  C  C1427  1  0.677300  0.211700  0.340790  1.0
  C  C1428  1  0.322700  0.788300  0.840790  1.0
  C  C1429  1  0.725600  0.189000  0.327600  1.0
  C  C1430  1  0.274400  0.811000  0.827600  1.0
  C  C1431  1  0.810000  0.132800  0.325800  1.0
  C  C1432  1  0.190000  0.867200  0.825800  1.0
  C  C1433  1  0.832400  0.160500  0.302690  1.0
  C  C1434  1  0.167600  0.839500  0.802690  1.0
  C  C1435  1  0.803000  0.079700  0.320910  1.0
  C  C1436  1  0.197000  0.920300  0.820910  1.0
  C  C1437  1  0.747200  0.060100  0.315600  1.0
  C  C1438  1  0.252800  0.939900  0.815600  1.0
  C  C1439  1  0.735900  0.008700  0.313100  1.0
  C  C1440  1  0.264100  0.991300  0.813100  1.0
  C  C1441  1  0.781500  0.976700  0.313600  1.0
  C  C1442  1  0.218500  0.023300  0.813600  1.0
  C  C1443  1  0.841600  0.994600  0.318300  1.0
  C  C1444  1  0.158400  0.005400  0.818300  1.0
  C  C1445  1  0.890200  0.962500  0.319200  1.0
  C  C1446  1  0.109800  0.037500  0.819200  1.0
  C  C1447  1  0.947100  0.978000  0.324500  1.0
  C  C1448  1  0.052900  0.022000  0.824500  1.0
  C  C1449  1  0.958600  0.028700  0.327100  1.0
  C  C1450  1  0.041400  0.971300  0.827100  1.0
  C  C1451  1  0.913200  0.061100  0.325180  1.0
  C  C1452  1  0.086800  0.938900  0.825180  1.0
  C  C1453  1  0.852400  0.046600  0.322100  1.0
  C  C1454  1  0.147600  0.953400  0.822100  1.0
  C  C1455  1  0.851900  0.081900  0.381330  1.0
  C  C1456  1  0.148100  0.918100  0.881330  1.0
  C  C1457  1  0.881900  0.036900  0.382620  1.0
  C  C1458  1  0.118100  0.963100  0.882620  1.0
  C  C1459  1  0.848000  0.995000  0.380100  1.0
  C  C1460  1  0.152000  0.005000  0.880100  1.0
  C  C1461  1  0.785000  0.997000  0.378300  1.0
  C  C1462  1  0.215000  0.003000  0.878300  1.0
  C  C1463  1  0.758900  0.041700  0.377500  1.0
  C  C1464  1  0.241100  0.958300  0.877500  1.0
  C  C1465  1  0.693400  0.048800  0.376910  1.0
  C  C1466  1  0.306600  0.951200  0.876910  1.0
  C  C1467  1  0.605400  0.095400  0.375800  1.0
  C  C1468  1  0.394600  0.904600  0.875800  1.0
  C  C1469  1  0.571300  0.052600  0.388210  1.0
  C  C1470  1  0.428700  0.947400  0.888210  1.0
  C  C1471  1  0.573900  0.106100  0.352340  1.0
  C  C1472  1  0.426100  0.893900  0.852340  1.0
  C  C1473  1  0.593200  0.081000  0.332040  1.0
  C  C1474  1  0.406800  0.919000  0.832040  1.0
  C  C1475  1  0.563000  0.087400  0.309220  1.0
  C  C1476  1  0.437000  0.912600  0.809220  1.0
  C  C1477  1  0.517400  0.119000  0.306990  1.0
  C  C1478  1  0.482600  0.881000  0.806990  1.0
  C  C1479  1  0.494700  0.145300  0.327410  1.0
  C  C1480  1  0.505300  0.854700  0.827410  1.0
  C  C1481  1  0.443900  0.175800  0.326100  1.0
  C  C1482  1  0.556100  0.824200  0.826100  1.0
  C  C1483  1  0.418000  0.195900  0.345900  1.0
  C  C1484  1  0.582000  0.804100  0.845900  1.0
  C  C1485  1  0.446700  0.189700  0.368300  1.0
  C  C1486  1  0.553300  0.810300  0.868300  1.0
  C  C1487  1  0.498100  0.161800  0.370590  1.0
  C  C1488  1  0.501900  0.838200  0.870590  1.0
  C  C1489  1  0.524100  0.137800  0.350620  1.0
  C  C1490  1  0.475900  0.862200  0.850620  1.0
  C  C1491  1  0.728700  0.378000  0.377800  1.0
  C  C1492  1  0.271300  0.622000  0.877800  1.0
  C  C1493  1  0.666000  0.379000  0.371460  1.0
  C  C1494  1  0.334000  0.621000  0.871460  1.0
  C  C1495  1  0.631500  0.419200  0.374200  1.0
  C  C1496  1  0.368500  0.580800  0.874200  1.0
  C  C1497  1  0.659600  0.463100  0.385090  1.0
  C  C1498  1  0.340400  0.536900  0.885090  1.0
  C  C1499  1  0.721000  0.457700  0.391630  1.0
  C  C1500  1  0.279000  0.542300  0.891630  1.0
  C  C1501  1  0.750000  0.499500  0.404500  1.0
  C  C1502  1  0.250000  0.500500  0.904500  1.0
  C  C1503  1  0.839500  0.535600  0.423800  1.0
  C  C1504  1  0.160500  0.464400  0.923800  1.0
  C  C1505  1  0.795000  0.567800  0.437100  1.0
  C  C1506  1  0.205000  0.432200  0.937100  1.0
  C  C1507  1  0.884800  0.566300  0.409950  1.0
  C  C1508  1  0.115200  0.433700  0.909950  1.0
  C  C1509  1  0.875300  0.574100  0.386050  1.0
  C  C1510  1  0.124700  0.425900  0.886050  1.0
  C  C1511  1  0.918600  0.602400  0.372020  1.0
  C  C1512  1  0.081400  0.397600  0.872020  1.0
  C  C1513  1  0.970200  0.618200  0.382420  1.0
  C  C1514  1  0.029800  0.381800  0.882420  1.0
  C  C1515  1  0.982600  0.610300  0.407510  1.0
  C  C1516  1  0.017400  0.389700  0.907510  1.0
  C  C1517  1  0.035700  0.628800  0.418900  1.0
  C  C1518  1  0.964300  0.371200  0.918900  1.0
  C  C1519  1  0.046800  0.620000  0.442800  1.0
  C  C1520  1  0.953200  0.380000  0.942800  1.0
  C  C1521  1  0.002800  0.594500  0.456800  1.0
  C  C1522  1  0.997200  0.405500  0.956800  1.0
  C  C1523  1  0.949900  0.577300  0.446700  1.0
  C  C1524  1  0.050100  0.422700  0.946700  1.0
  C  C1525  1  0.938200  0.582200  0.421430  1.0
  C  C1526  1  0.061800  0.417800  0.921430  1.0
  C  C1527  1  0.964300  0.455600  0.426480  1.0
  C  C1528  1  0.035700  0.544400  0.926480  1.0
  C  C1529  1  0.022800  0.474200  0.428300  1.0
  C  C1530  1  0.977200  0.525800  0.928300  1.0
  C  C1531  1  0.054400  0.487900  0.407400  1.0
  C  C1532  1  0.945600  0.512100  0.907400  1.0
  C  C1533  1  0.025700  0.481000  0.385660  1.0
  C  C1534  1  0.974300  0.519000  0.885660  1.0
  C  C1535  1  0.969300  0.464100  0.384350  1.0
  C  C1536  1  0.030700  0.535900  0.884350  1.0
  C  C1537  1  0.930600  0.454700  0.362400  1.0
  C  C1538  1  0.069400  0.545300  0.862400  1.0
  C  C1539  1  0.843700  0.426700  0.339800  1.0
  C  C1540  1  0.156300  0.573300  0.839800  1.0
  C  C1541  1  0.885600  0.420500  0.317600  1.0
  C  C1542  1  0.114400  0.579500  0.817600  1.0
  C  C1543  1  0.793900  0.462200  0.335030  1.0
  C  C1544  1  0.206100  0.537800  0.835030  1.0
  C  C1545  1  0.801300  0.511400  0.339600  1.0
  C  C1546  1  0.198700  0.488600  0.839600  1.0
  C  C1547  1  0.752200  0.544900  0.335800  1.0
  C  C1548  1  0.247800  0.455100  0.835800  1.0
  C  C1549  1  0.698900  0.530000  0.327500  1.0
  C  C1550  1  0.301100  0.470000  0.827500  1.0
  C  C1551  1  0.688400  0.479300  0.322200  1.0
  C  C1552  1  0.311600  0.520700  0.822200  1.0
  C  C1553  1  0.630100  0.461400  0.315400  1.0
  C  C1554  1  0.369900  0.538600  0.815400  1.0
  C  C1555  1  0.622100  0.413200  0.310000  1.0
  C  C1556  1  0.377900  0.586800  0.810000  1.0
  C  C1557  1  0.669400  0.380500  0.310000  1.0
  C  C1558  1  0.330600  0.619500  0.810000  1.0
  C  C1559  1  0.726500  0.396000  0.318500  1.0
  C  C1560  1  0.273500  0.604000  0.818500  1.0
  C  C1561  1  0.737000  0.445400  0.325200  1.0
  C  C1562  1  0.263000  0.554600  0.825200  1.0
  C  C1563  1  0.041600  0.364400  0.496550  1.0
  C  C1564  1  0.958400  0.635600  0.996550  1.0
  C  C1565  1  0.084400  0.393600  0.484320  1.0
  C  C1566  1  0.915600  0.606400  0.984320  1.0
  C  C1567  1  0.085400  0.442700  0.488500  1.0
  C  C1568  1  0.914600  0.557300  0.988500  1.0
  C  C1569  1  0.046200  0.462100  0.505570  1.0
  C  C1570  1  0.953800  0.537900  0.005570  1.0
  C  C1571  1  0.008200  0.431700  0.518040  1.0
  C  C1572  1  0.991800  0.568300  0.018040  1.0
  C  C1573  1  0.962800  0.450700  0.535800  1.0
  C  C1574  1  0.037200  0.549300  0.035800  1.0
  C  C1575  1  0.879800  0.435900  0.562470  1.0
  C  C1576  1  0.120200  0.564100  0.062470  1.0
  C  C1577  1  0.862100  0.490200  0.559800  1.0
  C  C1578  1  0.137900  0.509800  0.059800  1.0
  C  C1579  1  0.890400  0.423500  0.589300  1.0
  C  C1580  1  0.109600  0.576500  0.089300  1.0
  C  C1581  1  0.947400  0.428900  0.599140  1.0
  C  C1582  1  0.052600  0.571100  0.099140  1.0
  C  C1583  1  0.959100  0.415000  0.623620  1.0
  C  C1584  1  0.040900  0.585000  0.123620  1.0
  C  C1585  1  0.913300  0.397800  0.637510  1.0
  C  C1586  1  0.086700  0.602200  0.137510  1.0
  C  C1587  1  0.853100  0.393600  0.628650  1.0
  C  C1588  1  0.146900  0.606400  0.128650  1.0
  C  C1589  1  0.804800  0.374800  0.642940  1.0
  C  C1590  1  0.195200  0.625200  0.142940  1.0
  C  C1591  1  0.747900  0.370500  0.634780  1.0
  C  C1592  1  0.252100  0.629500  0.134780  1.0
  C  C1593  1  0.735500  0.385100  0.610830  1.0
  C  C1594  1  0.264500  0.614900  0.110830  1.0
  C  C1595  1  0.780300  0.405200  0.596080  1.0
  C  C1596  1  0.219700  0.594800  0.096080  1.0
  C  C1597  1  0.841500  0.406900  0.603740  1.0
  C  C1598  1  0.158500  0.593100  0.103740  1.0
  C  C1599  1  0.832300  0.309300  0.564310  1.0
  C  C1600  1  0.167700  0.690700  0.064310  1.0
  C  C1601  1  0.804000  0.289200  0.586000  1.0
  C  C1602  1  0.196000  0.710800  0.086000  1.0
  C  C1603  1  0.837200  0.277300  0.604200  1.0
  C  C1604  1  0.162800  0.722700  0.104200  1.0
  C  C1605  1  0.899700  0.280000  0.603100  1.0
  C  C1606  1  0.100300  0.720000  0.103100  1.0
  C  C1607  1  0.926400  0.300400  0.581680  1.0
  C  C1608  1  0.073600  0.699600  0.081680  1.0
  C  C1609  1  0.993300  0.302600  0.578200  1.0
  C  C1610  1  0.006700  0.697400  0.078200  1.0
  C  C1611  1  0.080000  0.318800  0.552700  1.0
  C  C1612  1  0.920000  0.681200  0.052700  1.0
  C  C1613  1  0.115300  0.284700  0.569700  1.0
  C  C1614  1  0.884700  0.715300  0.069700  1.0
  C  C1615  1  0.108200  0.371200  0.554230  1.0
  C  C1616  1  0.891800  0.628800  0.054230  1.0
  C  C1617  1  0.091600  0.400900  0.572840  1.0
  C  C1618  1  0.908400  0.599100  0.072840  1.0
  C  C1619  1  0.116300  0.449900  0.574420  1.0
  C  C1620  1  0.883700  0.550100  0.074420  1.0
  C  C1621  1  0.161100  0.463900  0.559330  1.0
  C  C1622  1  0.838900  0.536100  0.059330  1.0
  C  C1623  1  0.182400  0.432200  0.540600  1.0
  C  C1624  1  0.817600  0.567800  0.040600  1.0
  C  C1625  1  0.227700  0.447100  0.524100  1.0
  C  C1626  1  0.772300  0.552900  0.024100  1.0
  C  C1627  1  0.250900  0.415200  0.508000  1.0
  C  C1628  1  0.749100  0.584800  0.008000  1.0
  C  C1629  1  0.227200  0.367600  0.506300  1.0
  C  C1630  1  0.772800  0.632400  0.006300  1.0
  C  C1631  1  0.180200  0.352800  0.520700  1.0
  C  C1632  1  0.819800  0.647200  0.020700  1.0
  C  C1633  1  0.155600  0.384400  0.538630  1.0
  C  C1634  1  0.844400  0.615600  0.038630  1.0
  C  C1635  1  0.862800  0.020400  0.460900  1.0
  C  C1636  1  0.137200  0.979600  0.960900  1.0
  C  C1637  1  0.893100  0.988900  0.445500  1.0
  C  C1638  1  0.106900  0.011100  0.945500  1.0
  C  C1639  1  0.939200  0.962100  0.452900  1.0
  C  C1640  1  0.060800  0.037900  0.952900  1.0
  C  C1641  1  0.954100  0.966400  0.477400  1.0
  C  C1642  1  0.045900  0.033600  0.977400  1.0
  C  C1643  1  0.924800  0.998900  0.492500  1.0
  C  C1644  1  0.075200  0.001100  0.992500  1.0
  C  C1645  1  0.945100  0.008100  0.516870  1.0
  C  C1646  1  0.054900  0.991900  0.016870  1.0
  C  C1647  1  0.939600  0.054800  0.553970  1.0
  C  C1648  1  0.060400  0.945200  0.053970  1.0
  C  C1649  1  0.003500  0.040300  0.558400  1.0
  C  C1650  1  0.996500  0.959700  0.058400  1.0
  C  C1651  1  0.898100  0.039300  0.574150  1.0
  C  C1652  1  0.101900  0.960700  0.074150  1.0
  C  C1653  1  0.874100  0.993000  0.574440  1.0
  C  C1654  1  0.125900  0.007000  0.074440  1.0
  C  C1655  1  0.836900  0.975600  0.594180  1.0
  C  C1656  1  0.163100  0.024400  0.094180  1.0
  C  C1657  1  0.821200  0.006000  0.611990  1.0
  C  C1658  1  0.178800  0.994000  0.111990  1.0
  C  C1659  1  0.845000  0.054800  0.612730  1.0
  C  C1660  1  0.155000  0.945200  0.112730  1.0
  C  C1661  1  0.831800  0.086700  0.632110  1.0
  C  C1662  1  0.168200  0.913300  0.132110  1.0
  C  C1663  1  0.857400  0.132600  0.633000  1.0
  C  C1664  1  0.142600  0.867400  0.133000  1.0
  C  C1665  1  0.901600  0.146000  0.616690  1.0
  C  C1666  1  0.098400  0.854000  0.116690  1.0
  C  C1667  1  0.916400  0.116500  0.597110  1.0
  C  C1668  1  0.083600  0.883500  0.097110  1.0
  C  C1669  1  0.887800  0.070000  0.594450  1.0
  C  C1670  1  0.112200  0.930000  0.094450  1.0
  C  C1671  1  0.820300  0.145200  0.551440  1.0
  C  C1672  1  0.179700  0.854800  0.051440  1.0
  C  C1673  1  0.793800  0.158300  0.573200  1.0
  C  C1674  1  0.206200  0.841700  0.073200  1.0
  C  C1675  1  0.746900  0.132300  0.582920  1.0
  C  C1676  1  0.253100  0.867700  0.082920  1.0
  C  C1677  1  0.726900  0.088700  0.571770  1.0
  C  C1678  1  0.273100  0.911300  0.071770  1.0
  C  C1679  1  0.757700  0.075900  0.551150  1.0
  C  C1680  1  0.242300  0.924100  0.051150  1.0
  C  C1681  1  0.736200  0.035200  0.536810  1.0
  C  C1682  1  0.263800  0.964800  0.036810  1.0
  C  C1683  1  0.742200  0.982100  0.501200  1.0
  C  C1684  1  0.257800  0.017900  0.001200  1.0
  C  C1685  1  0.678000  0.965700  0.505530  1.0
  C  C1686  1  0.322000  0.034300  0.005530  1.0
  C  C1687  1  0.784800  0.939600  0.500730  1.0
  C  C1688  1  0.215200  0.060400  0.000730  1.0
  C  C1689  1  0.813400  0.926000  0.521600  1.0
  C  C1690  1  0.186600  0.074000  0.021600  1.0
  C  C1691  1  0.852900  0.884500  0.522410  1.0
  C  C1692  1  0.147100  0.115500  0.022410  1.0
  C  C1693  1  0.863000  0.859500  0.502170  1.0
  C  C1694  1  0.137000  0.140500  0.002170  1.0
  C  C1695  1  0.837700  0.873700  0.479670  1.0
  C  C1696  1  0.162300  0.126300  0.979670  1.0
  C  C1697  1  0.851600  0.850000  0.457700  1.0
  C  C1698  1  0.148400  0.150000  0.957700  1.0
  C  C1699  1  0.819800  0.858700  0.437600  1.0
  C  C1700  1  0.180200  0.141300  0.937600  1.0
  C  C1701  1  0.777800  0.896000  0.436300  1.0
  C  C1702  1  0.222200  0.104000  0.936300  1.0
  C  C1703  1  0.764300  0.922000  0.457220  1.0
  C  C1704  1  0.235700  0.078000  0.957220  1.0
  C  C1705  1  0.795100  0.913200  0.479000  1.0
  C  C1706  1  0.204900  0.086800  0.979000  1.0
  C  C1707  1  0.587900  0.340200  0.440000  1.0
  C  C1708  1  0.412100  0.659800  0.940000  1.0
  C  C1709  1  0.553500  0.350400  0.420000  1.0
  C  C1710  1  0.446500  0.649600  0.920000  1.0
  C  C1711  1  0.498700  0.328700  0.414800  1.0
  C  C1712  1  0.501300  0.671300  0.914800  1.0
  C  C1713  1  0.476300  0.292200  0.432700  1.0
  C  C1714  1  0.523700  0.707800  0.932700  1.0
  C  C1715  1  0.512200  0.286400  0.451600  1.0
  C  C1716  1  0.487800  0.713600  0.951600  1.0
  C  C1717  1  0.494200  0.249100  0.470700  1.0
  C  C1718  1  0.505800  0.750900  0.970700  1.0
  C  C1719  1  0.514600  0.208000  0.507900  1.0
  C  C1720  1  0.485400  0.792000  0.007900  1.0
  C  C1721  1  0.470100  0.166200  0.498900  1.0
  C  C1722  1  0.529900  0.833800  0.998900  1.0
  C  C1723  1  0.491200  0.227500  0.531970  1.0
  C  C1724  1  0.508800  0.772500  0.031970  1.0
  C  C1725  1  0.450500  0.265100  0.531120  1.0
  C  C1726  1  0.549500  0.734900  0.031120  1.0
  C  C1727  1  0.431600  0.287500  0.553010  1.0
  C  C1728  1  0.568400  0.712500  0.053010  1.0
  C  C1729  1  0.455600  0.273900  0.574660  1.0
  C  C1730  1  0.544400  0.726100  0.074660  1.0
  C  C1731  1  0.495800  0.235500  0.576670  1.0
  C  C1732  1  0.504200  0.764500  0.076670  1.0
  C  C1733  1  0.516300  0.215800  0.599010  1.0
  C  C1734  1  0.483700  0.784200  0.099010  1.0
  C  C1735  1  0.550500  0.175900  0.600100  1.0
  C  C1736  1  0.449500  0.824100  0.100100  1.0
  C  C1737  1  0.567400  0.150300  0.578760  1.0
  C  C1738  1  0.432600  0.849700  0.078760  1.0
  C  C1739  1  0.548700  0.167300  0.556630  1.0
  C  C1740  1  0.451300  0.832700  0.056630  1.0
  C  C1741  1  0.513300  0.210000  0.554410  1.0
  C  C1742  1  0.486700  0.790000  0.054410  1.0
  C  C1743  1  0.653000  0.243700  0.536700  1.0
  C  C1744  1  0.347000  0.756300  0.036700  1.0
  C  C1745  1  0.662700  0.240900  0.561900  1.0
  C  C1746  1  0.337300  0.759100  0.061900  1.0
  C  C1747  1  0.642100  0.278600  0.575100  1.0
  C  C1748  1  0.357900  0.721400  0.075100  1.0
  C  C1749  1  0.616400  0.317100  0.567100  1.0
  C  C1750  1  0.383600  0.682900  0.067100  1.0
  C  C1751  1  0.608200  0.319900  0.540800  1.0
  C  C1752  1  0.391800  0.680100  0.040800  1.0
  C  C1753  1  0.581600  0.360000  0.527400  1.0
  C  C1754  1  0.418400  0.640000  0.027400  1.0
  C  C1755  1  0.553600  0.407000  0.492400  1.0
  C  C1756  1  0.446400  0.593000  0.992400  1.0
  C  C1757  1  0.556200  0.450700  0.507400  1.0
  C  C1758  1  0.443800  0.549300  0.007400  1.0
  C  C1759  1  0.492000  0.399500  0.480550  1.0
  C  C1760  1  0.508000  0.600500  0.980550  1.0
  C  C1761  1  0.448300  0.368700  0.490400  1.0
  C  C1762  1  0.551700  0.631300  0.990400  1.0
  C  C1763  1  0.389400  0.363300  0.480500  1.0
  C  C1764  1  0.610600  0.636700  0.980500  1.0
  C  C1765  1  0.374100  0.388800  0.460100  1.0
  C  C1766  1  0.625900  0.611200  0.960100  1.0
  C  C1767  1  0.418600  0.418400  0.448450  1.0
  C  C1768  1  0.581400  0.581600  0.948450  1.0
  C  C1769  1  0.405000  0.444200  0.426600  1.0
  C  C1770  1  0.595000  0.555800  0.926600  1.0
  C  C1771  1  0.445100  0.475400  0.416900  1.0
  C  C1772  1  0.554900  0.524600  0.916900  1.0
  C  C1773  1  0.503000  0.482200  0.426900  1.0
  C  C1774  1  0.497000  0.517800  0.926900  1.0
  C  C1775  1  0.520700  0.455200  0.446650  1.0
  C  C1776  1  0.479300  0.544800  0.946650  1.0
  C  C1777  1  0.478100  0.425300  0.459180  1.0
  C  C1778  1  0.521900  0.574700  0.959180  1.0
  C  C1779  1  0.031300  0.099900  0.419900  1.0
  C  C1780  1  0.968700  0.900100  0.919900  1.0
  C  C1781  1  0.026400  0.052800  0.412300  1.0
  C  C1782  1  0.973600  0.947200  0.912300  1.0
  C  C1783  1  0.049200  0.039200  0.389000  1.0
  C  C1784  1  0.950800  0.960800  0.889000  1.0
  C  C1785  1  0.077000  0.079400  0.376300  1.0
  C  C1786  1  0.923000  0.920600  0.876300  1.0
  C  C1787  1  0.081100  0.126100  0.384900  1.0
  C  C1788  1  0.918900  0.873900  0.884900  1.0
  C  C1789  1  0.106700  0.167700  0.371800  1.0
  C  C1790  1  0.893300  0.832300  0.871800  1.0
  C  C1791  1  0.133100  0.251700  0.367600  1.0
  C  C1792  1  0.866900  0.748300  0.867600  1.0
  C  C1793  1  0.128200  0.245500  0.339400  1.0
  C  C1794  1  0.871800  0.754500  0.839400  1.0
  C  C1795  1  0.197900  0.270600  0.375700  1.0
  C  C1796  1  0.802100  0.729400  0.875700  1.0
  C  C1797  1  0.240300  0.237000  0.381800  1.0
  C  C1798  1  0.759700  0.763000  0.881800  1.0
  C  C1799  1  0.301100  0.251400  0.388700  1.0
  C  C1800  1  0.698900  0.748600  0.888700  1.0
  C  C1801  1  0.316900  0.299200  0.387500  1.0
  C  C1802  1  0.683100  0.700800  0.887500  1.0
  C  C1803  1  0.275800  0.335100  0.379100  1.0
  C  C1804  1  0.724200  0.664900  0.879100  1.0
  C  C1805  1  0.292600  0.385800  0.377800  1.0
  C  C1806  1  0.707400  0.614200  0.877800  1.0
  C  C1807  1  0.250600  0.419000  0.372300  1.0
  C  C1808  1  0.749400  0.581000  0.872300  1.0
  C  C1809  1  0.191500  0.406300  0.364700  1.0
  C  C1810  1  0.808500  0.593700  0.864700  1.0
  C  C1811  1  0.174300  0.358000  0.365000  1.0
  C  C1812  1  0.825700  0.642000  0.865000  1.0
  C  C1813  1  0.213900  0.320700  0.373330  1.0
  C  C1814  1  0.786100  0.679300  0.873330  1.0
  C  C1815  1  0.101400  0.321500  0.419700  1.0
  C  C1816  1  0.898600  0.678500  0.919700  1.0
  C  C1817  1  0.133800  0.363000  0.422600  1.0
  C  C1818  1  0.866200  0.637000  0.922600  1.0
  C  C1819  1  0.192300  0.357600  0.434400  1.0
  C  C1820  1  0.807700  0.642400  0.934400  1.0
  C  C1821  1  0.213300  0.313800  0.440200  1.0
  C  C1822  1  0.786700  0.686200  0.940200  1.0
  C  C1823  1  0.175200  0.272300  0.436470  1.0
  C  C1824  1  0.824800  0.727700  0.936470  1.0
  C  C1825  1  0.190700  0.224600  0.444600  1.0
  C  C1826  1  0.809300  0.775400  0.944600  1.0
  C  C1827  1  0.172000  0.137500  0.448750  1.0
  C  C1828  1  0.828000  0.862500  0.948750  1.0
  C  C1829  1  0.215500  0.141000  0.469800  1.0
  C  C1830  1  0.784500  0.859000  0.969800  1.0
  C  C1831  1  0.190400  0.102900  0.429190  1.0
  C  C1832  1  0.809600  0.897100  0.929190  1.0
  C  C1833  1  0.229600  0.119000  0.411260  1.0
  C  C1834  1  0.770400  0.881000  0.911260  1.0
  C  C1835  1  0.249200  0.085600  0.392540  1.0
  C  C1836  1  0.750800  0.914400  0.892540  1.0
  C  C1837  1  0.230600  0.039500  0.392480  1.0
  C  C1838  1  0.769400  0.960500  0.892480  1.0
  C  C1839  1  0.191200  0.020700  0.410830  1.0
  C  C1840  1  0.808800  0.979300  0.910830  1.0
  C  C1841  1  0.171800  0.970900  0.411170  1.0
  C  C1842  1  0.828200  0.029100  0.911170  1.0
  C  C1843  1  0.135000  0.954300  0.429240  1.0
  C  C1844  1  0.865000  0.045700  0.929240  1.0
  C  C1845  1  0.117600  0.983500  0.448340  1.0
  C  C1846  1  0.882400  0.016500  0.948340  1.0
  C  C1847  1  0.136900  0.032200  0.448960  1.0
  C  C1848  1  0.863100  0.967800  0.948960  1.0
  C  C1849  1  0.172500  0.052600  0.429910  1.0
  C  C1850  1  0.827500  0.947400  0.929910  1.0
  C  C1851  1  0.850800  0.223200  0.373350  1.0
  C  C1852  1  0.149200  0.776800  0.873350  1.0
  C  C1853  1  0.884800  0.322400  0.380460  1.0
  C  C1854  1  0.115200  0.677600  0.880460  1.0
  C  C1855  1  0.969500  0.248700  0.387870  1.0
  C  C1856  1  0.030500  0.751300  0.887870  1.0
  C  C1857  1  0.979600  0.314200  0.350400  1.0
  C  C1858  1  0.020400  0.685800  0.850400  1.0
  C  C1859  1  0.950400  0.214000  0.342200  1.0
  C  C1860  1  0.049600  0.786000  0.842200  1.0
  C  C1861  1  0.861500  0.285900  0.335070  1.0
  C  C1862  1  0.138500  0.714100  0.835070  1.0
  C  C1863  1  0.809700  0.411800  0.453900  1.0
  C  C1864  1  0.190300  0.588200  0.953900  1.0
  C  C1865  1  0.834600  0.383000  0.501900  1.0
  C  C1866  1  0.165400  0.617000  0.001900  1.0
  C  C1867  1  0.719000  0.364300  0.482990  1.0
  C  C1868  1  0.281000  0.635700  0.982990  1.0
  C  C1869  1  0.737800  0.432000  0.517460  1.0
  C  C1870  1  0.262200  0.568000  0.017460  1.0
  C  C1871  1  0.711000  0.457400  0.467690  1.0
  C  C1872  1  0.289000  0.542600  0.967690  1.0
  C  C1873  1  0.826200  0.478800  0.489680  1.0
  C  C1874  1  0.173800  0.521200  0.989680  1.0
  C  C1875  1  0.987500  0.243500  0.513710  1.0
  C  C1876  1  0.012500  0.756500  0.013710  1.0
  C  C1877  1  0.951400  0.145300  0.505840  1.0
  C  C1878  1  0.048600  0.854700  0.005840  1.0
  C  C1879  1  0.033200  0.192800  0.472710  1.0
  C  C1880  1  0.966800  0.807200  0.972710  1.0
  C  C1881  1  0.067300  0.117100  0.503550  1.0
  C  C1882  1  0.932700  0.882900  0.003550  1.0
  C  C1883  1  0.107500  0.216300  0.508580  1.0
  C  C1884  1  0.892500  0.783700  0.008580  1.0
  C  C1885  1  0.028600  0.172600  0.542310  1.0
  C  C1886  1  0.971400  0.827400  0.042310  1.0
  C  C1887  1  0.696900  0.141200  0.429700  1.0
  C  C1888  1  0.303100  0.858800  0.929700  1.0
  C  C1889  1  0.733000  0.110100  0.477040  1.0
  C  C1890  1  0.267000  0.889900  0.977040  1.0
  C  C1891  1  0.652000  0.189200  0.471910  1.0
  C  C1892  1  0.348000  0.810800  0.971910  1.0
  C  C1893  1  0.614500  0.101500  0.490170  1.0
  C  C1894  1  0.385500  0.898500  0.990170  1.0
  C  C1895  1  0.580800  0.136200  0.442680  1.0
  C  C1896  1  0.419200  0.863800  0.942680  1.0
  C  C1897  1  0.657800  0.054700  0.448970  1.0
  C  C1898  1  0.342200  0.945300  0.948970  1.0
  C  C1899  1  0.782400  0.420800  0.766300  1.0
  C  C1900  1  0.217600  0.579200  0.266300  1.0
  C  C1901  1  0.817000  0.455000  0.763100  1.0
  C  C1902  1  0.183000  0.545000  0.263100  1.0
  C  C1903  1  0.825900  0.485800  0.783200  1.0
  C  C1904  1  0.174100  0.514200  0.283200  1.0
  C  C1905  1  0.797800  0.478900  0.804900  1.0
  C  C1906  1  0.202200  0.521100  0.304900  1.0
  C  C1907  1  0.758300  0.438900  0.807000  1.0
  C  C1908  1  0.241700  0.561100  0.307000  1.0
  C  C1909  1  0.721100  0.431500  0.827700  1.0
  C  C1910  1  0.278900  0.568500  0.327700  1.0
  C  C1911  1  0.644900  0.383200  0.850200  1.0
  C  C1912  1  0.355100  0.616800  0.350200  1.0
  C  C1913  1  0.645800  0.424600  0.869200  1.0
  C  C1914  1  0.354200  0.575400  0.369200  1.0
  C  C1915  1  0.652400  0.333200  0.863000  1.0
  C  C1916  1  0.347600  0.666800  0.363000  1.0
  C  C1917  1  0.710500  0.314500  0.865300  1.0
  C  C1918  1  0.289500  0.685500  0.365300  1.0
  C  C1919  1  0.719300  0.269300  0.877700  1.0
  C  C1920  1  0.280700  0.730700  0.377700  1.0
  C  C1921  1  0.670600  0.244200  0.885200  1.0
  C  C1922  1  0.329400  0.755800  0.385200  1.0
  C  C1923  1  0.610500  0.260800  0.883100  1.0
  C  C1924  1  0.389500  0.739200  0.383100  1.0
  C  C1925  1  0.559200  0.237500  0.893800  1.0
  C  C1926  1  0.440800  0.762500  0.393800  1.0
  C  C1927  1  0.502900  0.253200  0.890300  1.0
  C  C1928  1  0.497100  0.746800  0.390300  1.0
  C  C1929  1  0.493900  0.299900  0.880000  1.0
  C  C1930  1  0.506100  0.700100  0.380000  1.0
  C  C1931  1  0.540200  0.322700  0.868100  1.0
  C  C1932  1  0.459800  0.677300  0.368100  1.0
  C  C1933  1  0.602000  0.307900  0.871400  1.0
  C  C1934  1  0.398000  0.692100  0.371400  1.0
  C  C1935  1  0.663200  0.244000  0.821500  1.0
  C  C1936  1  0.336800  0.756000  0.321500  1.0
  C  C1937  1  0.620800  0.204800  0.827200  1.0
  C  C1938  1  0.379200  0.795200  0.327200  1.0
  C  C1939  1  0.561500  0.208600  0.824600  1.0
  C  C1940  1  0.438500  0.791400  0.324600  1.0
  C  C1941  1  0.539200  0.250700  0.813000  1.0
  C  C1942  1  0.460800  0.749300  0.313000  1.0
  C  C1943  1  0.581600  0.287600  0.808000  1.0
  C  C1944  1  0.418400  0.712400  0.308000  1.0
  C  C1945  1  0.562700  0.332900  0.794000  1.0
  C  C1946  1  0.437300  0.667100  0.294000  1.0
  C  C1947  1  0.580100  0.408900  0.776900  1.0
  C  C1948  1  0.419900  0.591100  0.276900  1.0
  C  C1949  1  0.606800  0.414700  0.751100  1.0
  C  C1950  1  0.393200  0.585300  0.251100  1.0
  C  C1951  1  0.591200  0.454000  0.792900  1.0
  C  C1952  1  0.408800  0.546000  0.292900  1.0
  C  C1953  1  0.634200  0.487900  0.785200  1.0
  C  C1954  1  0.365800  0.512100  0.285200  1.0
  C  C1955  1  0.648600  0.529700  0.799500  1.0
  C  C1956  1  0.351400  0.470300  0.299500  1.0
  C  C1957  1  0.618000  0.538500  0.820100  1.0
  C  C1958  1  0.382000  0.461500  0.320100  1.0
  C  C1959  1  0.567800  0.508200  0.827300  1.0
  C  C1960  1  0.432200  0.491800  0.327300  1.0
  C  C1961  1  0.536200  0.516400  0.849300  1.0
  C  C1962  1  0.463800  0.483600  0.349300  1.0
  C  C1963  1  0.491100  0.484900  0.856800  1.0
  C  C1964  1  0.508900  0.515100  0.356800  1.0
  C  C1965  1  0.477400  0.443200  0.843100  1.0
  C  C1966  1  0.522600  0.556800  0.343100  1.0
  C  C1967  1  0.507300  0.433600  0.821700  1.0
  C  C1968  1  0.492700  0.566400  0.321700  1.0
  C  C1969  1  0.555600  0.464100  0.813600  1.0
  C  C1970  1  0.444400  0.535900  0.313600  1.0
  C  C1971  1  0.001300  0.209000  0.742100  1.0
  C  C1972  1  0.998700  0.791000  0.242100  1.0
  C  C1973  1  0.049800  0.219500  0.728400  1.0
  C  C1974  1  0.950200  0.780500  0.228400  1.0
  C  C1975  1  0.061300  0.200300  0.707600  1.0
  C  C1976  1  0.938700  0.799700  0.207600  1.0
  C  C1977  1  0.014600  0.168100  0.696900  1.0
  C  C1978  1  0.985400  0.831900  0.196900  1.0
  C  C1979  1  0.964600  0.160400  0.711100  1.0
  C  C1980  1  0.035400  0.839600  0.211100  1.0
  C  C1981  1  0.916900  0.129700  0.702400  1.0
  C  C1982  1  0.083100  0.870300  0.202400  1.0
  C  C1983  1  0.812500  0.096300  0.703600  1.0
  C  C1984  1  0.187500  0.903700  0.203600  1.0
  C  C1985  1  0.770600  0.134900  0.694400  1.0
  C  C1986  1  0.229400  0.865100  0.194400  1.0
  C  C1987  1  0.788200  0.056000  0.718700  1.0
  C  C1988  1  0.211800  0.944000  0.218700  1.0
  C  C1989  1  0.732200  0.062100  0.729100  1.0
  C  C1990  1  0.267800  0.937900  0.229100  1.0
  C  C1991  1  0.701900  0.022300  0.740800  1.0
  C  C1992  1  0.298100  0.977700  0.240800  1.0
  C  C1993  1  0.731800  0.980000  0.744600  1.0
  C  C1994  1  0.268200  0.020000  0.244600  1.0
  C  C1995  1  0.790800  0.972400  0.734800  1.0
  C  C1996  1  0.209200  0.027600  0.234800  1.0
  C  C1997  1  0.817900  0.926600  0.734700  1.0
  C  C1998  1  0.182100  0.073400  0.234700  1.0
  C  C1999  1  0.873500  0.918700  0.725900  1.0
  C  C2000  1  0.126500  0.081300  0.225900  1.0
  C  C2001  1  0.902000  0.956500  0.712800  1.0
  C  C2002  1  0.098000  0.043500  0.212800  1.0
  C  C2003  1  0.877600  0.002600  0.711400  1.0
  C  C2004  1  0.122400  0.997400  0.211400  1.0
  C  C2005  1  0.820000  0.012400  0.721760  1.0
  C  C2006  1  0.180000  0.987600  0.221760  1.0
  C  C2007  1  0.740500  0.161100  0.767500  1.0
  C  C2008  1  0.259500  0.838900  0.267500  1.0
  C  C2009  1  0.693900  0.142200  0.783800  1.0
  C  C2010  1  0.306100  0.857800  0.283800  1.0
  C  C2011  1  0.702200  0.102300  0.796600  1.0
  C  C2012  1  0.297800  0.897700  0.296600  1.0
  C  C2013  1  0.755600  0.079300  0.795600  1.0
  C  C2014  1  0.244400  0.920700  0.295600  1.0
  C  C2015  1  0.801200  0.096500  0.780700  1.0
  C  C2016  1  0.198800  0.903500  0.280700  1.0
  C  C2017  1  0.860000  0.070700  0.777500  1.0
  C  C2018  1  0.140000  0.929300  0.277500  1.0
  C  C2019  1  0.958500  0.066400  0.760400  1.0
  C  C2020  1  0.041500  0.933600  0.260400  1.0
  C  C2021  1  0.962900  0.014400  0.769000  1.0
  C  C2022  1  0.037100  0.985600  0.269000  1.0
  C  C2023  1  0.011600  0.096900  0.768100  1.0
  C  C2024  1  0.988400  0.903100  0.268100  1.0
  C  C2025  1  0.008400  0.123500  0.789100  1.0
  C  C2026  1  0.991600  0.876500  0.289100  1.0
  C  C2027  1  0.057900  0.153700  0.797200  1.0
  C  C2028  1  0.942100  0.846300  0.297200  1.0
  C  C2029  1  0.109200  0.156300  0.784200  1.0
  C  C2030  1  0.890800  0.843700  0.284200  1.0
  C  C2031  1  0.115500  0.128700  0.762300  1.0
  C  C2032  1  0.884500  0.871300  0.262300  1.0
  C  C2033  1  0.169300  0.131400  0.748600  1.0
  C  C2034  1  0.830700  0.868600  0.248600  1.0
  C  C2035  1  0.171600  0.111400  0.726000  1.0
  C  C2036  1  0.828400  0.888600  0.226000  1.0
  C  C2037  1  0.124200  0.079200  0.718400  1.0
  C  C2038  1  0.875800  0.920800  0.218400  1.0
  C  C2039  1  0.072100  0.074800  0.731400  1.0
  C  C2040  1  0.927900  0.925200  0.231400  1.0
  C  C2041  1  0.064900  0.100300  0.753800  1.0
  C  C2042  1  0.935100  0.899700  0.253800  1.0
  C  C2043  1  0.713900  0.305100  0.745700  1.0
  C  C2044  1  0.286100  0.694900  0.245700  1.0
  C  C2045  1  0.797400  0.248200  0.725100  1.0
  C  C2046  1  0.202600  0.751800  0.225100  1.0
  C  C2047  1  0.757300  0.266100  0.680600  1.0
  C  C2048  1  0.242700  0.733900  0.180600  1.0
  C  C2049  1  0.672500  0.325800  0.698200  1.0
  C  C2050  1  0.327500  0.674200  0.198200  1.0
  C  C2051  1  0.791700  0.343300  0.710000  1.0
  C  C2052  1  0.208300  0.656700  0.210000  1.0
  C  C2053  1  0.678200  0.229700  0.715500  1.0
  C  C2054  1  0.321800  0.770300  0.215500  1.0
  C  C2055  1  0.812800  0.293700  0.816500  1.0
  C  C2056  1  0.187200  0.706300  0.316500  1.0
  C  C2057  1  0.890200  0.221300  0.799000  1.0
  C  C2058  1  0.109800  0.778700  0.299000  1.0
  C  C2059  1  0.949200  0.215000  0.841500  1.0
  C  C2060  1  0.050800  0.785000  0.341500  1.0
  C  C2061  1  0.875100  0.284000  0.861300  1.0
  C  C2062  1  0.124900  0.716000  0.361300  1.0
  C  C2063  1  0.945000  0.305800  0.821000  1.0
  C  C2064  1  0.055000  0.694200  0.321000  1.0
  C  C2065  1  0.823700  0.204600  0.837900  1.0
  C  C2066  1  0.176300  0.795400  0.337900  1.0
  C  C2067  1  0.377600  0.812500  0.605800  1.0
  C  C2068  1  0.622400  0.187500  0.105800  1.0
  C  C2069  1  0.378800  0.852700  0.623800  1.0
  C  C2070  1  0.621200  0.147300  0.123800  1.0
  C  C2071  1  0.431600  0.707200  0.615700  1.0
  C  C2072  1  0.568400  0.292800  0.115700  1.0
  C  C2073  1  0.280600  0.775500  0.623500  1.0
  C  C2074  1  0.719400  0.224500  0.123500  1.0
  C  C2075  1  0.249500  0.734000  0.636100  1.0
  C  C2076  1  0.750500  0.266000  0.136100  1.0
  C  C2077  1  0.307300  0.770400  0.594000  1.0
  C  C2078  1  0.692700  0.229600  0.094000  1.0
  C  C2079  1  0.305500  0.776600  0.567400  1.0
  C  C2080  1  0.694500  0.223400  0.067400  1.0
  C  C2081  1  0.788400  0.233200  0.469900  1.0
  C  C2082  1  0.211600  0.766800  0.969900  1.0
  C  C2083  1  0.810200  0.233200  0.497800  1.0
  C  C2084  1  0.189800  0.766800  0.997800  1.0
  C  C2085  1  0.890800  0.210200  0.453600  1.0
  C  C2086  1  0.109200  0.789800  0.953600  1.0
  C  C2087  1  0.873500  0.160900  0.444500  1.0
  C  C2088  1  0.126500  0.839100  0.944500  1.0
  C  C2089  1  0.880900  0.276800  0.439400  1.0
  C  C2090  1  0.119100  0.723200  0.939400  1.0
  C  C2091  1  0.927700  0.312900  0.446000  1.0
  C  C2092  1  0.072300  0.687100  0.946000  1.0
  C  C2093  1  0.760500  0.286200  0.427000  1.0
  C  C2094  1  0.239500  0.713800  0.927000  1.0
  C  C2095  1  0.373400  0.729200  0.628900  0.5
  C  C2096  1  0.626600  0.270800  0.128900  0.5
  C  C2097  1  0.364300  0.712900  0.604000  0.5
  C  C2098  1  0.635700  0.287100  0.104000  0.5
  C  C2099  1  0.811100  0.251600  0.428800  0.5
  C  C2100  1  0.188900  0.748400  0.928800  0.5
  C  C2101  1  0.797500  0.285500  0.451900  0.5
  C  C2102  1  0.202500  0.714500  0.951900  0.5
  N  N2103  1  0.395500  0.699500  0.503950  1.0
  N  N2104  1  0.604500  0.300500  0.003950  1.0
  N  N2105  1  0.518300  0.690600  0.507180  1.0
  N  N2106  1  0.481700  0.309400  0.007180  1.0
  N  N2107  1  0.505600  0.630500  0.552940  1.0
  N  N2108  1  0.494400  0.369500  0.052940  1.0
  N  N2109  1  0.433100  0.591300  0.519020  1.0
  N  N2110  1  0.566900  0.408700  0.019020  1.0
  N  N2111  1  0.298500  0.911300  0.524410  1.0
  N  N2112  1  0.701500  0.088700  0.024410  1.0
  N  N2113  1  0.266900  0.990900  0.548880  1.0
  N  N2114  1  0.733100  0.009100  0.048880  1.0
  N  N2115  1  0.380100  0.986100  0.581760  1.0
  N  N2116  1  0.619900  0.013900  0.081760  1.0
  N  N2117  1  0.411800  0.976400  0.535240  1.0
  N  N2118  1  0.588200  0.023600  0.035240  1.0
  N  N2119  1  0.296300  0.932500  0.686180  1.0
  N  N2120  1  0.703700  0.067500  0.186180  1.0
  N  N2121  1  0.173100  0.922600  0.691210  1.0
  N  N2122  1  0.826900  0.077400  0.191210  1.0
  N  N2123  1  0.265200  0.861200  0.728320  1.0
  N  N2124  1  0.734800  0.138800  0.228320  1.0
  N  N2125  1  0.182400  0.812400  0.700190  1.0
  N  N2126  1  0.817600  0.187600  0.200190  1.0
  N  N2127  1  0.433300  0.571100  0.660900  1.0
  N  N2128  1  0.566700  0.428900  0.160900  1.0
  N  N2129  1  0.372800  0.576300  0.703780  1.0
  N  N2130  1  0.627200  0.423700  0.203780  1.0
  N  N2131  1  0.251300  0.595400  0.677470  1.0
  N  N2132  1  0.748700  0.404600  0.177470  1.0
  N  N2133  1  0.309700  0.516700  0.658650  1.0
  N  N2134  1  0.690300  0.483300  0.158650  1.0
  N  N2135  1  0.124400  0.730600  0.541400  1.0
  N  N2136  1  0.875600  0.269400  0.041400  1.0
  N  N2137  1  0.066500  0.653300  0.561400  1.0
  N  N2138  1  0.933500  0.346700  0.061400  1.0
  N  N2139  1  0.064500  0.706600  0.610650  1.0
  N  N2140  1  0.935500  0.293400  0.110650  1.0
  N  N2141  1  0.025200  0.764800  0.575150  1.0
  N  N2142  1  0.974800  0.235200  0.075150  1.0
  N  N2143  1  0.620800  0.744400  0.638740  1.0
  N  N2144  1  0.379200  0.255600  0.138740  1.0
  N  N2145  1  0.662100  0.831200  0.624600  1.0
  N  N2146  1  0.337900  0.168800  0.124600  1.0
  N  N2147  1  0.563500  0.883700  0.656800  1.0
  N  N2148  1  0.436500  0.116300  0.156800  1.0
  N  N2149  1  0.619300  0.814000  0.681370  1.0
  N  N2150  1  0.380700  0.186000  0.181370  1.0
  N  N2151  1  0.460700  0.733300  0.547380  1.0
  N  N2152  1  0.539300  0.266700  0.047380  1.0
  N  N2153  1  0.403800  0.887500  0.559080  1.0
  N  N2154  1  0.596200  0.112500  0.059080  1.0
  N  N2155  1  0.539200  0.817200  0.612910  1.0
  N  N2156  1  0.460800  0.182800  0.112910  1.0
  N  N2157  1  0.586100  0.933900  0.559930  1.0
  N  N2158  1  0.413900  0.066100  0.059930  1.0
  N  N2159  1  0.650700  0.781100  0.555900  1.0
  N  N2160  1  0.349300  0.218900  0.055900  1.0
  N  N2161  1  0.517000  0.841800  0.500900  1.0
  N  N2162  1  0.483000  0.158200  0.000900  1.0
  N  N2163  1  0.278600  0.910000  0.578560  1.0
  N  N2164  1  0.721400  0.090000  0.078560  1.0
  N  N2165  1  0.218600  0.866300  0.654310  1.0
  N  N2166  1  0.781400  0.133700  0.154310  1.0
  N  N2167  1  0.145200  0.783900  0.588390  1.0
  N  N2168  1  0.854800  0.216100  0.088390  1.0
  N  N2169  1  0.033800  0.869700  0.632150  1.0
  N  N2170  1  0.966200  0.130300  0.132150  1.0
  N  N2171  1  0.094100  0.926500  0.558110  1.0
  N  N2172  1  0.905900  0.073500  0.058110  1.0
  N  N2173  1  0.161800  0.998400  0.625190  1.0
  N  N2174  1  0.838200  0.001600  0.125190  1.0
  N  N2175  1  0.316700  0.821600  0.687250  1.0
  N  N2176  1  0.683300  0.178400  0.187250  1.0
  N  N2177  1  0.363200  0.662700  0.675850  1.0
  N  N2178  1  0.636800  0.337300  0.175850  1.0
  N  N2179  1  0.507900  0.782300  0.662420  1.0
  N  N2180  1  0.492100  0.217700  0.162420  1.0
  N  N2181  1  0.520500  0.681200  0.718400  1.0
  N  N2182  1  0.479500  0.318800  0.218400  1.0
  N  N2183  1  0.481100  0.837800  0.732120  1.0
  N  N2184  1  0.518900  0.162200  0.232120  1.0
  N  N2185  1  0.335200  0.719500  0.746050  1.0
  N  N2186  1  0.664800  0.280500  0.246050  1.0
  N  N2187  1  0.371900  0.648400  0.552600  1.0
  N  N2188  1  0.628100  0.351600  0.052600  1.0
  N  N2189  1  0.327500  0.604900  0.631370  1.0
  N  N2190  1  0.672500  0.395100  0.131370  1.0
  N  N2191  1  0.179500  0.679300  0.583530  1.0
  N  N2192  1  0.820500  0.320700  0.083530  1.0
  N  N2193  1  0.171800  0.535100  0.610460  1.0
  N  N2194  1  0.828200  0.464900  0.110460  1.0
  N  N2195  1  0.210400  0.579600  0.529590  1.0
  N  N2196  1  0.789600  0.420400  0.029590  1.0
  N  N2197  1  0.349700  0.503500  0.573420  1.0
  N  N2198  1  0.650300  0.496500  0.073420  1.0
  N  N2199  1  0.677700  0.201100  0.365960  1.0
  N  N2200  1  0.322300  0.798900  0.865960  1.0
  N  N2201  1  0.758500  0.153200  0.337350  1.0
  N  N2202  1  0.241500  0.846800  0.837350  1.0
  N  N2203  1  0.792800  0.085500  0.378980  1.0
  N  N2204  1  0.207200  0.914500  0.878980  1.0
  N  N2205  1  0.670000  0.088200  0.374090  1.0
  N  N2206  1  0.330000  0.911800  0.874090  1.0
  N  N2207  1  0.754100  0.419600  0.388200  1.0
  N  N2208  1  0.245900  0.580400  0.888200  1.0
  N  N2209  1  0.807900  0.498300  0.408420  1.0
  N  N2210  1  0.192100  0.501700  0.908420  1.0
  N  N2211  1  0.935100  0.449300  0.405530  1.0
  N  N2212  1  0.064900  0.550700  0.905530  1.0
  N  N2213  1  0.877200  0.443800  0.363530  1.0
  N  N2214  1  0.122800  0.556200  0.863530  1.0
  N  N2215  1  0.003500  0.381500  0.513300  1.0
  N  N2216  1  0.996500  0.618500  0.013300  1.0
  N  N2217  1  0.930600  0.418400  0.547930  1.0
  N  N2218  1  0.069400  0.581600  0.047930  1.0
  N  N2219  1  0.890800  0.313900  0.562400  1.0
  N  N2220  1  0.109200  0.686100  0.062400  1.0
  N  N2221  1  0.014500  0.321400  0.558520  1.0
  N  N2222  1  0.985500  0.678600  0.058520  1.0
  N  N2223  1  0.878100  0.024800  0.484090  1.0
  N  N2224  1  0.121900  0.975200  0.984090  1.0
  N  N2225  1  0.914400  0.037000  0.530060  1.0
  N  N2226  1  0.085600  0.963000  0.030060  1.0
  N  N2227  1  0.802800  0.101800  0.540500  1.0
  N  N2228  1  0.197200  0.898200  0.040500  1.0
  N  N2229  1  0.768000  0.020100  0.518620  1.0
  N  N2230  1  0.232000  0.979900  0.018620  1.0
  N  N2231  1  0.567800  0.308500  0.456680  1.0
  N  N2232  1  0.432200  0.691500  0.956680  1.0
  N  N2233  1  0.525200  0.246200  0.489440  1.0
  N  N2234  1  0.474800  0.753800  0.989440  1.0
  N  N2235  1  0.626900  0.281500  0.526530  1.0
  N  N2236  1  0.373100  0.718500  0.026530  1.0
  N  N2237  1  0.572700  0.357800  0.505630  1.0
  N  N2238  1  0.427300  0.642200  0.005630  1.0
  N  N2239  1  0.058800  0.136000  0.407220  1.0
  N  N2240  1  0.941200  0.864000  0.907220  1.0
  N  N2241  1  0.115500  0.206700  0.381520  1.0
  N  N2242  1  0.884500  0.793300  0.881520  1.0
  N  N2243  1  0.120200  0.276900  0.426170  1.0
  N  N2244  1  0.879800  0.723100  0.926170  1.0
  N  N2245  1  0.160600  0.186700  0.437970  1.0
  N  N2246  1  0.839400  0.813300  0.937970  1.0
  N  N2247  1  0.814700  0.195800  0.377970  1.0
  N  N2248  1  0.185300  0.804200  0.877970  1.0
  N  N2249  1  0.867400  0.355900  0.389240  1.0
  N  N2250  1  0.132600  0.644100  0.889240  1.0
  N  N2251  1  0.005100  0.236200  0.401570  1.0
  N  N2252  1  0.994900  0.763800  0.901570  1.0
  N  N2253  1  0.018100  0.337300  0.345150  1.0
  N  N2254  1  0.981900  0.662700  0.845150  1.0
  N  N2255  1  0.972600  0.182900  0.332340  1.0
  N  N2256  1  0.027400  0.817100  0.832340  1.0
  N  N2257  1  0.827500  0.296500  0.319200  1.0
  N  N2258  1  0.172500  0.703500  0.819200  1.0
  N  N2259  1  0.827000  0.410900  0.434030  1.0
  N  N2260  1  0.173000  0.589100  0.934030  1.0
  N  N2261  1  0.870500  0.362600  0.512920  1.0
  N  N2262  1  0.129500  0.637400  0.012920  1.0
  N  N2263  1  0.683400  0.334200  0.483710  1.0
  N  N2264  1  0.316600  0.665800  0.983710  1.0
  N  N2265  1  0.716000  0.437100  0.535840  1.0
  N  N2266  1  0.284000  0.562900  0.035840  1.0
  N  N2267  1  0.674300  0.473200  0.456660  1.0
  N  N2268  1  0.325700  0.526800  0.956660  1.0
  N  N2269  1  0.858300  0.512500  0.490630  1.0
  N  N2270  1  0.141700  0.487500  0.990630  1.0
  N  N2271  1  0.962400  0.277600  0.517950  1.0
  N  N2272  1  0.037600  0.722400  0.017950  1.0
  N  N2273  1  0.906500  0.125700  0.504670  1.0
  N  N2274  1  0.093500  0.874300  0.004670  1.0
  N  N2275  1  0.039500  0.198400  0.451780  1.0
  N  N2276  1  0.960500  0.801600  0.951780  1.0
  N  N2277  1  0.088600  0.081000  0.503230  1.0
  N  N2278  1  0.911400  0.919000  0.003230  1.0
  N  N2279  1  0.154100  0.234100  0.507260  1.0
  N  N2280  1  0.845900  0.765900  0.007260  1.0
  N  N2281  1  0.028800  0.170000  0.563160  1.0
  N  N2282  1  0.971200  0.830000  0.063160  1.0
  N  N2283  1  0.715600  0.149200  0.411420  1.0
  N  N2284  1  0.284400  0.850800  0.911420  1.0
  N  N2285  1  0.776700  0.101000  0.486490  1.0
  N  N2286  1  0.223300  0.899000  0.986490  1.0
  N  N2287  1  0.645600  0.228200  0.478160  1.0
  N  N2288  1  0.354400  0.771800  0.978160  1.0
  N  N2289  1  0.591700  0.086300  0.507770  1.0
  N  N2290  1  0.408300  0.913700  0.007770  1.0
  N  N2291  1  0.537400  0.146200  0.433390  1.0
  N  N2292  1  0.462600  0.853800  0.933390  1.0
  N  N2293  1  0.660200  0.014700  0.440940  1.0
  N  N2294  1  0.339800  0.985300  0.940940  1.0
  N  N2295  1  0.746100  0.409000  0.789200  1.0
  N  N2296  1  0.253900  0.591000  0.289200  1.0
  N  N2297  1  0.688700  0.391600  0.829830  1.0
  N  N2298  1  0.311300  0.608400  0.329830  1.0
  N  N2299  1  0.642600  0.285700  0.810600  1.0
  N  N2300  1  0.357400  0.714300  0.310600  1.0
  N  N2301  1  0.599500  0.369700  0.789900  1.0
  N  N2302  1  0.400500  0.630300  0.289900  1.0
  N  N2303  1  0.955700  0.176600  0.733200  1.0
  N  N2304  1  0.044300  0.823400  0.233200  1.0
  N  N2305  1  0.868500  0.122100  0.715200  1.0
  N  N2306  1  0.131500  0.877900  0.215200  1.0
  N  N2307  1  0.795400  0.137300  0.766700  1.0
  N  N2308  1  0.204600  0.862700  0.266700  1.0
  N  N2309  1  0.901900  0.090800  0.765080  1.0
  N  N2310  1  0.098100  0.909200  0.265080  1.0
  N  N2311  1  0.702400  0.317700  0.763600  1.0
  N  N2312  1  0.297600  0.682300  0.263600  1.0
  N  N2313  1  0.834900  0.217500  0.733980  1.0
  N  N2314  1  0.165100  0.782500  0.233980  1.0
  N  N2315  1  0.776400  0.247800  0.661200  1.0
  N  N2316  1  0.223600  0.752200  0.161200  1.0
  N  N2317  1  0.635500  0.348700  0.690500  1.0
  N  N2318  1  0.364500  0.651300  0.190500  1.0
  N  N2319  1  0.829200  0.373800  0.709400  1.0
  N  N2320  1  0.170800  0.626200  0.209400  1.0
  N  N2321  1  0.643200  0.203700  0.718300  1.0
  N  N2322  1  0.356800  0.796300  0.218300  1.0
  N  N2323  1  0.773800  0.316600  0.809370  1.0
  N  N2324  1  0.226200  0.683400  0.309370  1.0
  N  N2325  1  0.894100  0.199500  0.780300  1.0
  N  N2326  1  0.105900  0.800500  0.280300  1.0
  N  N2327  1  0.986700  0.190500  0.848000  1.0
  N  N2328  1  0.013300  0.809500  0.348000  1.0
  N  N2329  1  0.870300  0.299400  0.879700  1.0
  N  N2330  1  0.129700  0.700600  0.379700  1.0
  N  N2331  1  0.978100  0.334300  0.817000  1.0
  N  N2332  1  0.021900  0.665700  0.317000  1.0
  N  N2333  1  0.785900  0.175200  0.841000  1.0
  N  N2334  1  0.214100  0.824800  0.341000  1.0
  N  N2335  1  0.341600  0.766100  0.611390  1.0
  N  N2336  1  0.658400  0.233900  0.111390  1.0
  N  N2337  1  0.842700  0.249000  0.453670  1.0
  N  N2338  1  0.157300  0.751000  0.953670  1.0
  O  O2339  1  0.782600  0.674500  0.481200  1.0
  O  O2340  1  0.217400  0.325500  0.981200  1.0
  O  O2341  1  0.119500  0.570100  0.492950  1.0
  O  O2342  1  0.880500  0.429900  0.992950  1.0
  O  O2343  1  0.162900  0.551800  0.367100  1.0
  O  O2344  1  0.837100  0.448200  0.867100  1.0
  O  O2345  1  0.434900  0.436900  0.551800  1.0
  O  O2346  1  0.565100  0.563100  0.051800  1.0
  O  O2347  1  0.132300  0.450800  0.639500  1.0
  O  O2348  1  0.867700  0.549200  0.139500  1.0
  O  O2349  1  0.383800  0.323500  0.819800  1.0
  O  O2350  1  0.616200  0.676500  0.319800  1.0
  O  O2351  1  0.688100  0.209700  0.626900  1.0
  O  O2352  1  0.311900  0.790300  0.126900  1.0
  O  O2353  1  0.491400  0.103300  0.673500  1.0
  O  O2354  1  0.508600  0.896700  0.173500  1.0
  O  O2355  1  0.752400  0.257800  0.281320  1.0
  O  O2356  1  0.247600  0.742200  0.781320  1.0
  O  O2357  1  0.418500  0.101100  0.249500  1.0
  O  O2358  1  0.581500  0.898900  0.749500  1.0
  O  O2359  1  0.590300  0.040400  0.555000  1.0
  O  O2360  1  0.409700  0.959600  0.055000  1.0
  O  O2361  1  0.404700  0.168000  0.431200  1.0
  O  O2362  1  0.595300  0.832000  0.931200  1.0
  O  O2363  1  0.647500  0.938200  0.404540  1.0
  O  O2364  1  0.352500  0.061800  0.904540  1.0
  O  O2365  1  0.078100  0.126500  0.309500  1.0
  O  O2366  1  0.921900  0.873500  0.809500  1.0
  O  O2367  1  0.993500  0.996200  0.623900  1.0
  O  O2368  1  0.006500  0.003800  0.123900  1.0
  O  O2369  1  0.980100  0.037900  0.654600  1.0
  O  O2370  1  0.019900  0.962100  0.154600  1.0
  O  O2371  1  0.156100  0.076800  0.660900  1.0
  O  O2372  1  0.843900  0.923200  0.160900  1.0
  O  O2373  1  0.893000  0.853400  0.633600  1.0
  O  O2374  1  0.107000  0.146600  0.133600  1.0
  O  O2375  1  0.090000  0.974200  0.510050  1.0
  O  O2376  1  0.910000  0.025800  0.010050  1.0
  O  O2377  1  0.980700  0.915500  0.396100  1.0
  O  O2378  1  0.019300  0.084500  0.896100  1.0
  O  O2379  1  0.121700  0.981300  0.335700  1.0
  O  O2380  1  0.878300  0.018700  0.835700  1.0
  O  O2381  1  0.090800  0.911300  0.355900  1.0
  O  O2382  1  0.909200  0.088700  0.855900  1.0
