# generated using pymatgen
data_NaCo8B16H280C300N88(O9F35)2
_symmetry_space_group_name_H-M   'P 1'
_cell_length_a   36.32505431
_cell_length_b   36.32505431
_cell_length_c   36.32505431
_cell_angle_alpha   106.87484129
_cell_angle_beta   106.87484129
_cell_angle_gamma   114.79898158
_symmetry_Int_Tables_number   1
_chemical_formula_structural   NaCo8B16H280C300N88(O9F35)2
_chemical_formula_sum   'Na4 Co32 B64 H1120 C1200 N352 O72 F280'
_cell_volume   36655.96774258
_cell_formula_units_Z   4
loop_
 _symmetry_equiv_pos_site_id
 _symmetry_equiv_pos_as_xyz
  1  'x, y, z'
loop_
 _atom_site_type_symbol
 _atom_site_label
 _atom_site_symmetry_multiplicity
 _atom_site_fract_x
 _atom_site_fract_y
 _atom_site_fract_z
 _atom_site_occupancy
  B  B1  1  0.616300  0.516900  0.452800  1
  B  B2  1  0.663500  0.616300  0.099400  1
  B  B3  1  0.064100  0.663500  0.047200  1
  B  B4  1  0.516900  0.064100  0.400600  1
  B  B5  1  0.435900  0.983100  0.099400  1
  B  B6  1  0.836500  0.435900  0.452800  1
  B  B7  1  0.883700  0.836500  0.400600  1
  B  B8  1  0.983100  0.883700  0.047200  1
  B  B9  1  0.383700  0.483100  0.547200  1
  B  B10  1  0.336500  0.383700  0.900600  1
  B  B11  1  0.935900  0.336500  0.952800  1
  B  B12  1  0.483100  0.935900  0.599400  1
  B  B13  1  0.564100  0.016900  0.900600  1
  B  B14  1  0.163500  0.564100  0.547200  1
  B  B15  1  0.116300  0.163500  0.599400  1
  B  B16  1  0.016900  0.116300  0.952800  1
  B  B17  1  0.697400  0.169600  0.669800  1
  B  B18  1  0.527600  0.697400  0.527800  1
  B  B19  1  0.499800  0.527600  0.830200  1
  B  B20  1  0.169600  0.499800  0.972200  1
  B  B21  1  0.000200  0.330400  0.527800  1
  B  B22  1  0.972400  0.000200  0.669800  1
  B  B23  1  0.802600  0.972400  0.972200  1
  B  B24  1  0.330400  0.802600  0.830200  1
  B  B25  1  0.302600  0.830400  0.330200  1
  B  B26  1  0.472400  0.302600  0.472200  1
  B  B27  1  0.500200  0.472400  0.169800  1
  B  B28  1  0.830400  0.500200  0.027800  1
  B  B29  1  0.999800  0.669600  0.472200  1
  B  B30  1  0.027600  0.999800  0.330200  1
  B  B31  1  0.197400  0.027600  0.027800  1
  B  B32  1  0.669600  0.197400  0.169800  1
  B  B33  1  0.756200  0.250000  0.506200  1
  B  B34  1  0.750000  0.756200  0.506200  1
  B  B35  1  0.743800  0.750000  0.993800  1
  B  B36  1  0.250000  0.743800  0.993800  1
  B  B37  1  0.243800  0.750000  0.493800  1
  B  B38  1  0.250000  0.243800  0.493800  1
  B  B39  1  0.256200  0.250000  0.006200  1
  B  B40  1  0.750000  0.256200  0.006200  1
  B  B41  1  0.319100  0.069100  0.638200  1
  B  B42  1  0.180900  0.319100  0.250000  1
  B  B43  1  0.430900  0.180900  0.861800  1
  B  B44  1  0.069100  0.430900  0.250000  1
  B  B45  1  0.680900  0.930900  0.361800  1
  B  B46  1  0.819100  0.680900  0.750000  1
  B  B47  1  0.569100  0.819100  0.138200  1
  B  B48  1  0.930900  0.569100  0.750000  1
  B  B49  1  0.644900  0.477000  0.775500  1.0
  B  B50  1  0.369400  0.644900  0.167900  1.0
  B  B51  1  0.701500  0.369400  0.724500  1.0
  B  B52  1  0.477000  0.701500  0.332100  1.0
  B  B53  1  0.798500  0.023000  0.167900  1.0
  B  B54  1  0.130600  0.798500  0.775500  1.0
  B  B55  1  0.855100  0.130600  0.332100  1.0
  B  B56  1  0.023000  0.855100  0.724500  1.0
  B  B57  1  0.355100  0.523000  0.224500  1.0
  B  B58  1  0.630600  0.355100  0.832100  1.0
  B  B59  1  0.298500  0.630600  0.275500  1.0
  B  B60  1  0.523000  0.298500  0.667900  1.0
  B  B61  1  0.201500  0.977000  0.832100  1.0
  B  B62  1  0.869400  0.201500  0.224500  1.0
  B  B63  1  0.144900  0.869400  0.667900  1.0
  B  B64  1  0.977000  0.144900  0.275500  1.0
  C  C65  1  0.349200  0.874800  0.540200  1
  C  C66  1  0.309000  0.349200  0.474400  1
  C  C67  1  0.334600  0.309000  0.959800  1
  C  C68  1  0.874800  0.334600  0.025600  1
  C  C69  1  0.165400  0.625200  0.474400  1
  C  C70  1  0.191000  0.165400  0.540200  1
  C  C71  1  0.150800  0.191000  0.025600  1
  C  C72  1  0.625200  0.150800  0.959800  1
  C  C73  1  0.650800  0.125200  0.459800  1
  C  C74  1  0.691000  0.650800  0.525600  1
  C  C75  1  0.665400  0.691000  0.040200  1
  C  C76  1  0.125200  0.665400  0.974400  1
  C  C77  1  0.834600  0.374800  0.525600  1
  C  C78  1  0.809000  0.834600  0.459800  1
  C  C79  1  0.849200  0.809000  0.974400  1
  C  C80  1  0.374800  0.849200  0.040200  1
  C  C81  1  0.786300  0.499100  0.533600  1.0
  C  C82  1  0.752700  0.786300  0.287200  1.0
  C  C83  1  0.965500  0.752700  0.966400  1.0
  C  C84  1  0.499100  0.965500  0.212800  1.0
  C  C85  1  0.534500  0.000900  0.287200  1.0
  C  C86  1  0.747300  0.534500  0.533600  1.0
  C  C87  1  0.713700  0.747300  0.212800  1.0
  C  C88  1  0.000900  0.713700  0.966400  1.0
  C  C89  1  0.213700  0.500900  0.466400  1.0
  C  C90  1  0.247300  0.213700  0.712800  1.0
  C  C91  1  0.034500  0.247300  0.033600  1.0
  C  C92  1  0.500900  0.034500  0.787200  1.0
  C  C93  1  0.465500  0.999100  0.712800  1.0
  C  C94  1  0.252700  0.465500  0.466400  1.0
  C  C95  1  0.286300  0.252700  0.787200  1.0
  C  C96  1  0.999100  0.286300  0.033600  1.0
  C  C97  1  0.753500  0.480100  0.486000  1.0
  C  C98  1  0.767500  0.753500  0.273400  1.0
  C  C99  1  0.994100  0.767500  0.014000  1.0
  C  C100  1  0.480100  0.994100  0.226600  1.0
  C  C101  1  0.505900  0.019900  0.273400  1.0
  C  C102  1  0.732500  0.505900  0.486000  1.0
  C  C103  1  0.746500  0.732500  0.226600  1.0
  C  C104  1  0.019900  0.746500  0.014000  1.0
  C  C105  1  0.246500  0.519900  0.514000  1.0
  C  C106  1  0.232500  0.246500  0.726600  1.0
  C  C107  1  0.005900  0.232500  0.986000  1.0
  C  C108  1  0.519900  0.005900  0.773400  1.0
  C  C109  1  0.494100  0.980100  0.726600  1.0
  C  C110  1  0.267500  0.494100  0.514000  1.0
  C  C111  1  0.253500  0.267500  0.773400  1.0
  C  C112  1  0.980100  0.253500  0.986000  1.0
  C  C113  1  0.664500  0.361300  0.460600  1.0
  C  C114  1  0.703900  0.664500  0.303200  1.0
  C  C115  1  0.900700  0.703900  0.039400  1.0
  C  C116  1  0.361300  0.900700  0.196800  1.0
  C  C117  1  0.599300  0.138700  0.303200  1.0
  C  C118  1  0.796100  0.599300  0.460600  1.0
  C  C119  1  0.835500  0.796100  0.196800  1.0
  C  C120  1  0.138700  0.835500  0.039400  1.0
  C  C121  1  0.335500  0.638700  0.539400  1.0
  C  C122  1  0.296100  0.335500  0.696800  1.0
  C  C123  1  0.099300  0.296100  0.960600  1.0
  C  C124  1  0.638700  0.099300  0.803200  1.0
  C  C125  1  0.400700  0.861300  0.696800  1.0
  C  C126  1  0.203900  0.400700  0.539400  1.0
  C  C127  1  0.164500  0.203900  0.803200  1.0
  C  C128  1  0.861300  0.164500  0.960600  1.0
  C  C129  1  0.677000  0.360100  0.427700  1.0
  C  C130  1  0.749300  0.677000  0.316900  1.0
  C  C131  1  0.932400  0.749300  0.072300  1.0
  C  C132  1  0.360100  0.932400  0.183100  1.0
  C  C133  1  0.567600  0.139900  0.316900  1.0
  C  C134  1  0.750700  0.567600  0.427700  1.0
  C  C135  1  0.823000  0.750700  0.183100  1.0
  C  C136  1  0.139900  0.823000  0.072300  1.0
  C  C137  1  0.323000  0.639900  0.572300  1.0
  C  C138  1  0.250700  0.323000  0.683100  1.0
  C  C139  1  0.067600  0.250700  0.927700  1.0
  C  C140  1  0.639900  0.067600  0.816900  1.0
  C  C141  1  0.432400  0.860100  0.683100  1.0
  C  C142  1  0.249300  0.432400  0.572300  1.0
  C  C143  1  0.177000  0.249300  0.816900  1.0
  C  C144  1  0.860100  0.177000  0.927700  1.0
  C  C145  1  0.699600  0.338300  0.419700  1.0
  C  C146  1  0.779900  0.699600  0.361300  1.0
  C  C147  1  0.918600  0.779900  0.080300  1.0
  C  C148  1  0.338300  0.918600  0.138700  1.0
  C  C149  1  0.581400  0.161700  0.361300  1.0
  C  C150  1  0.720100  0.581400  0.419700  1.0
  C  C151  1  0.800400  0.720100  0.138700  1.0
  C  C152  1  0.161700  0.800400  0.080300  1.0
  C  C153  1  0.300400  0.661700  0.580300  1.0
  C  C154  1  0.220100  0.300400  0.638700  1.0
  C  C155  1  0.081400  0.220100  0.919700  1.0
  C  C156  1  0.661700  0.081400  0.861300  1.0
  C  C157  1  0.418600  0.838300  0.638700  1.0
  C  C158  1  0.279900  0.418600  0.580300  1.0
  C  C159  1  0.199600  0.279900  0.861300  1.0
  C  C160  1  0.838300  0.199600  0.919700  1.0
  C  C161  1  0.709700  0.317800  0.444500  1.0
  C  C162  1  0.765200  0.709700  0.391900  1.0
  C  C163  1  0.873300  0.765200  0.055500  1.0
  C  C164  1  0.317800  0.873300  0.108100  1.0
  C  C165  1  0.626700  0.182200  0.391900  1.0
  C  C166  1  0.734800  0.626700  0.444500  1.0
  C  C167  1  0.790300  0.734800  0.108100  1.0
  C  C168  1  0.182200  0.790300  0.055500  1.0
  C  C169  1  0.290300  0.682200  0.555500  1.0
  C  C170  1  0.234800  0.290300  0.608100  1.0
  C  C171  1  0.126700  0.234800  0.944500  1.0
  C  C172  1  0.682200  0.126700  0.891900  1.0
  C  C173  1  0.373300  0.817800  0.608100  1.0
  C  C174  1  0.265200  0.373300  0.555500  1.0
  C  C175  1  0.209700  0.265200  0.891900  1.0
  C  C176  1  0.817800  0.209700  0.944500  1.0
  C  C177  1  0.697300  0.319100  0.477400  1.0
  C  C178  1  0.719900  0.697300  0.378200  1.0
  C  C179  1  0.841700  0.719900  0.022600  1.0
  C  C180  1  0.319100  0.841700  0.121800  1.0
  C  C181  1  0.658300  0.180900  0.378200  1.0
  C  C182  1  0.780100  0.658300  0.477400  1.0
  C  C183  1  0.802700  0.780100  0.121800  1.0
  C  C184  1  0.180900  0.802700  0.022600  1.0
  C  C185  1  0.302700  0.680900  0.522600  1.0
  C  C186  1  0.280100  0.302700  0.621800  1.0
  C  C187  1  0.158300  0.280100  0.977400  1.0
  C  C188  1  0.680900  0.158300  0.878200  1.0
  C  C189  1  0.341700  0.819100  0.621800  1.0
  C  C190  1  0.219900  0.341700  0.522600  1.0
  C  C191  1  0.197300  0.219900  0.878200  1.0
  C  C192  1  0.819100  0.197300  0.977400  1.0
  C  C193  1  0.640100  0.379800  0.469700  1.0
  C  C194  1  0.670400  0.640100  0.260300  1.0
  C  C195  1  0.910100  0.670400  0.030300  1.0
  C  C196  1  0.379800  0.910100  0.239700  1.0
  C  C197  1  0.589900  0.120200  0.260300  1.0
  C  C198  1  0.829600  0.589900  0.469700  1.0
  C  C199  1  0.859900  0.829600  0.239700  1.0
  C  C200  1  0.120200  0.859900  0.030300  1.0
  C  C201  1  0.359900  0.620200  0.530300  1.0
  C  C202  1  0.329600  0.359900  0.739700  1.0
  C  C203  1  0.089900  0.329600  0.969700  1.0
  C  C204  1  0.620200  0.089900  0.760300  1.0
  C  C205  1  0.410100  0.879800  0.739700  1.0
  C  C206  1  0.170400  0.410100  0.530300  1.0
  C  C207  1  0.140100  0.170400  0.760300  1.0
  C  C208  1  0.879800  0.140100  0.969700  1.0
  C  C209  1  0.623000  0.402600  0.451600  1.0
  C  C210  1  0.671400  0.623000  0.220400  1.0
  C  C211  1  0.951000  0.671400  0.048400  1.0
  C  C212  1  0.402600  0.951000  0.279600  1.0
  C  C213  1  0.549000  0.097400  0.220400  1.0
  C  C214  1  0.828600  0.549000  0.451600  1.0
  C  C215  1  0.877000  0.828600  0.279600  1.0
  C  C216  1  0.097400  0.877000  0.048400  1.0
  C  C217  1  0.377000  0.597400  0.548400  1.0
  C  C218  1  0.328600  0.377000  0.779600  1.0
  C  C219  1  0.049000  0.328600  0.951600  1.0
  C  C220  1  0.597400  0.049000  0.720400  1.0
  C  C221  1  0.451000  0.902600  0.779600  1.0
  C  C222  1  0.171400  0.451000  0.548400  1.0
  C  C223  1  0.123000  0.171400  0.720400  1.0
  C  C224  1  0.902600  0.123000  0.951600  1.0
  C  C225  1  0.601500  0.415900  0.474800  1.0
  C  C226  1  0.626700  0.601500  0.185600  1.0
  C  C227  1  0.941100  0.626700  0.025200  1.0
  C  C228  1  0.415900  0.941100  0.314400  1.0
  C  C229  1  0.558900  0.084100  0.185600  1.0
  C  C230  1  0.873300  0.558900  0.474800  1.0
  C  C231  1  0.898500  0.873300  0.314400  1.0
  C  C232  1  0.084100  0.898500  0.025200  1.0
  C  C233  1  0.398500  0.584100  0.525200  1.0
  C  C234  1  0.373300  0.398500  0.814400  1.0
  C  C235  1  0.058900  0.373300  0.974800  1.0
  C  C236  1  0.584100  0.058900  0.685600  1.0
  C  C237  1  0.441100  0.915900  0.814400  1.0
  C  C238  1  0.126700  0.441100  0.525200  1.0
  C  C239  1  0.101500  0.126700  0.685600  1.0
  C  C240  1  0.915900  0.101500  0.974800  1.0
  C  C241  1  0.590900  0.406600  0.538900  1.0
  C  C242  1  0.552000  0.590900  0.184300  1.0
  C  C243  1  0.867700  0.552000  0.961100  1.0
  C  C244  1  0.406600  0.867700  0.315700  1.0
  C  C245  1  0.632300  0.093400  0.184300  1.0
  C  C246  1  0.948000  0.632300  0.538900  1.0
  C  C247  1  0.909100  0.948000  0.315700  1.0
  C  C248  1  0.093400  0.909100  0.961100  1.0
  C  C249  1  0.409100  0.593400  0.461100  1.0
  C  C250  1  0.448000  0.409100  0.815700  1.0
  C  C251  1  0.132300  0.448000  0.038900  1.0
  C  C252  1  0.593400  0.132300  0.684300  1.0
  C  C253  1  0.367700  0.906600  0.815700  1.0
  C  C254  1  0.052000  0.367700  0.461100  1.0
  C  C255  1  0.090900  0.052000  0.684300  1.0
  C  C256  1  0.906600  0.090900  0.038900  1.0
  C  C257  1  0.693100  0.671600  0.764100  1.0
  C  C258  1  0.429000  0.693100  0.021500  1.0
  C  C259  1  0.907500  0.429000  0.735900  1.0
  C  C260  1  0.671600  0.907500  0.478500  1.0
  C  C261  1  0.592500  0.828400  0.021500  1.0
  C  C262  1  0.071000  0.592500  0.764100  1.0
  C  C263  1  0.806900  0.071000  0.478500  1.0
  C  C264  1  0.828400  0.806900  0.735900  1.0
  C  C265  1  0.306900  0.328400  0.235900  1.0
  C  C266  1  0.571000  0.306900  0.978500  1.0
  C  C267  1  0.092500  0.571000  0.264100  1.0
  C  C268  1  0.328400  0.092500  0.521500  1.0
  C  C269  1  0.407500  0.171600  0.978500  1.0
  C  C270  1  0.929000  0.407500  0.235900  1.0
  C  C271  1  0.193100  0.929000  0.521500  1.0
  C  C272  1  0.171600  0.193100  0.264100  1.0
  C  C273  1  0.727200  0.714100  0.800900  1.0
  C  C274  1  0.426300  0.727200  0.013100  1.0
  C  C275  1  0.913200  0.426300  0.699100  1.0
  C  C276  1  0.714100  0.913200  0.486900  1.0
  C  C277  1  0.586800  0.785900  0.013100  1.0
  C  C278  1  0.073700  0.586800  0.800900  1.0
  C  C279  1  0.772800  0.073700  0.486900  1.0
  C  C280  1  0.785900  0.772800  0.699100  1.0
  C  C281  1  0.272800  0.285900  0.199100  1.0
  C  C282  1  0.573700  0.272800  0.986900  1.0
  C  C283  1  0.086800  0.573700  0.300900  1.0
  C  C284  1  0.285900  0.086800  0.513100  1.0
  C  C285  1  0.413200  0.214100  0.986900  1.0
  C  C286  1  0.926300  0.413200  0.199100  1.0
  C  C287  1  0.227200  0.926300  0.513100  1.0
  C  C288  1  0.214100  0.227200  0.300900  1.0
  C  C289  1  0.725800  0.752700  0.805300  1.0
  C  C290  1  0.420500  0.725800  0.973100  1.0
  C  C291  1  0.947400  0.420500  0.694700  1.0
  C  C292  1  0.752700  0.947400  0.526900  1.0
  C  C293  1  0.552600  0.747300  0.973100  1.0
  C  C294  1  0.079500  0.552600  0.805300  1.0
  C  C295  1  0.774200  0.079500  0.526900  1.0
  C  C296  1  0.747300  0.774200  0.694700  1.0
  C  C297  1  0.274200  0.247300  0.194700  1.0
  C  C298  1  0.579500  0.274200  0.026900  1.0
  C  C299  1  0.052600  0.579500  0.305300  1.0
  C  C300  1  0.247300  0.052600  0.473100  1.0
  C  C301  1  0.447400  0.252700  0.026900  1.0
  C  C302  1  0.920500  0.447400  0.194700  1.0
  C  C303  1  0.225800  0.920500  0.473100  1.0
  C  C304  1  0.252700  0.225800  0.305300  1.0
  C  C305  1  0.690400  0.749000  0.773000  1.0
  C  C306  1  0.417400  0.690400  0.941400  1.0
  C  C307  1  0.976000  0.417400  0.727000  1.0
  C  C308  1  0.749000  0.976000  0.558600  1.0
  C  C309  1  0.524000  0.751000  0.941400  1.0
  C  C310  1  0.082600  0.524000  0.773000  1.0
  C  C311  1  0.809600  0.082600  0.558600  1.0
  C  C312  1  0.751000  0.809600  0.727000  1.0
  C  C313  1  0.309600  0.251000  0.227000  1.0
  C  C314  1  0.582600  0.309600  0.058600  1.0
  C  C315  1  0.024000  0.582600  0.273000  1.0
  C  C316  1  0.251000  0.024000  0.441400  1.0
  C  C317  1  0.476000  0.249000  0.058600  1.0
  C  C318  1  0.917400  0.476000  0.227000  1.0
  C  C319  1  0.190400  0.917400  0.441400  1.0
  C  C320  1  0.249000  0.190400  0.273000  1.0
  C  C321  1  0.656400  0.706600  0.736400  1.0
  C  C322  1  0.420000  0.656400  0.949800  1.0
  C  C323  1  0.970200  0.420000  0.763600  1.0
  C  C324  1  0.706600  0.970200  0.550200  1.0
  C  C325  1  0.529800  0.793400  0.949800  1.0
  C  C326  1  0.080000  0.529800  0.736400  1.0
  C  C327  1  0.843600  0.080000  0.550200  1.0
  C  C328  1  0.793400  0.843600  0.763600  1.0
  C  C329  1  0.343600  0.293400  0.263600  1.0
  C  C330  1  0.580000  0.343600  0.050200  1.0
  C  C331  1  0.029800  0.580000  0.236400  1.0
  C  C332  1  0.293400  0.029800  0.449800  1.0
  C  C333  1  0.470200  0.206600  0.050200  1.0
  C  C334  1  0.920000  0.470200  0.263600  1.0
  C  C335  1  0.156400  0.920000  0.449800  1.0
  C  C336  1  0.206600  0.156400  0.236400  1.0
  C  C337  1  0.691600  0.632700  0.757700  1.0
  C  C338  1  0.433900  0.691600  0.058900  1.0
  C  C339  1  0.875000  0.433900  0.742300  1.0
  C  C340  1  0.632700  0.875000  0.441100  1.0
  C  C341  1  0.625000  0.867300  0.058900  1.0
  C  C342  1  0.066100  0.625000  0.757700  1.0
  C  C343  1  0.808400  0.066100  0.441100  1.0
  C  C344  1  0.867300  0.808400  0.742300  1.0
  C  C345  1  0.308400  0.367300  0.242300  1.0
  C  C346  1  0.566100  0.308400  0.941100  1.0
  C  C347  1  0.125000  0.566100  0.257700  1.0
  C  C348  1  0.367300  0.125000  0.558900  1.0
  C  C349  1  0.375000  0.132700  0.941100  1.0
  C  C350  1  0.933900  0.375000  0.242300  1.0
  C  C351  1  0.191600  0.933900  0.558900  1.0
  C  C352  1  0.132700  0.191600  0.257700  1.0
  C  C353  1  0.720800  0.621600  0.780600  1.0
  C  C354  1  0.440200  0.720800  0.099200  1.0
  C  C355  1  0.841000  0.440200  0.719400  1.0
  C  C356  1  0.621600  0.841000  0.400800  1.0
  C  C357  1  0.659000  0.878400  0.099200  1.0
  C  C358  1  0.059800  0.659000  0.780600  1.0
  C  C359  1  0.779200  0.059800  0.400800  1.0
  C  C360  1  0.878400  0.779200  0.719400  1.0
  C  C361  1  0.279200  0.378400  0.219400  1.0
  C  C362  1  0.559800  0.279200  0.900800  1.0
  C  C363  1  0.159000  0.559800  0.280600  1.0
  C  C364  1  0.378400  0.159000  0.599200  1.0
  C  C365  1  0.341000  0.121600  0.900800  1.0
  C  C366  1  0.940200  0.341000  0.219400  1.0
  C  C367  1  0.220800  0.940200  0.599200  1.0
  C  C368  1  0.121600  0.220800  0.280600  1.0
  C  C369  1  0.700000  0.573400  0.757600  1.0
  C  C370  1  0.442400  0.700000  0.126600  1.0
  C  C371  1  0.815800  0.442400  0.742400  1.0
  C  C372  1  0.573400  0.815800  0.373400  1.0
  C  C373  1  0.684200  0.926600  0.126600  1.0
  C  C374  1  0.057600  0.684200  0.757600  1.0
  C  C375  1  0.800000  0.057600  0.373400  1.0
  C  C376  1  0.926600  0.800000  0.742400  1.0
  C  C377  1  0.300000  0.426600  0.242400  1.0
  C  C378  1  0.557600  0.300000  0.873400  1.0
  C  C379  1  0.184200  0.557600  0.257600  1.0
  C  C380  1  0.426600  0.184200  0.626600  1.0
  C  C381  1  0.315800  0.073400  0.873400  1.0
  C  C382  1  0.942400  0.315800  0.242400  1.0
  C  C383  1  0.200000  0.942400  0.626600  1.0
  C  C384  1  0.073400  0.200000  0.257600  1.0
  C  C385  1  0.628900  0.509300  0.685600  1.0
  C  C386  1  0.443300  0.628900  0.119600  1.0
  C  C387  1  0.823700  0.443300  0.814400  1.0
  C  C388  1  0.509300  0.823700  0.380400  1.0
  C  C389  1  0.676300  0.990700  0.119600  1.0
  C  C390  1  0.056700  0.676300  0.685600  1.0
  C  C391  1  0.871100  0.056700  0.380400  1.0
  C  C392  1  0.990700  0.871100  0.814400  1.0
  C  C393  1  0.371100  0.490700  0.314400  1.0
  C  C394  1  0.556700  0.371100  0.880400  1.0
  C  C395  1  0.176300  0.556700  0.185600  1.0
  C  C396  1  0.490700  0.176300  0.619600  1.0
  C  C397  1  0.323700  0.009300  0.880400  1.0
  C  C398  1  0.943300  0.323700  0.314400  1.0
  C  C399  1  0.128900  0.943300  0.619600  1.0
  C  C400  1  0.009300  0.128900  0.185600  1.0
  C  C401  1  0.701540  0.523140  0.627400  1.0
  C  C402  1  0.574140  0.701540  0.178400  1.0
  C  C403  1  0.895740  0.574140  0.872600  1.0
  C  C404  1  0.523140  0.895740  0.321600  1.0
  C  C405  1  0.604260  0.976860  0.178400  1.0
  C  C406  1  0.925860  0.604260  0.627400  1.0
  C  C407  1  0.798460  0.925860  0.321600  1.0
  C  C408  1  0.976860  0.798460  0.872600  1.0
  C  C409  1  0.298460  0.476860  0.372600  1.0
  C  C410  1  0.425860  0.298460  0.821600  1.0
  C  C411  1  0.104260  0.425860  0.127400  1.0
  C  C412  1  0.476860  0.104260  0.678400  1.0
  C  C413  1  0.395740  0.023140  0.821600  1.0
  C  C414  1  0.074140  0.395740  0.372600  1.0
  C  C415  1  0.201540  0.074140  0.678400  1.0
  C  C416  1  0.023140  0.201540  0.127400  1.0
  C  C417  1  0.670500  0.482750  0.587850  1.0
  C  C418  1  0.582650  0.670500  0.187750  1.0
  C  C419  1  0.894900  0.582650  0.912150  1.0
  C  C420  1  0.482750  0.894900  0.312250  1.0
  C  C421  1  0.605100  0.017250  0.187750  1.0
  C  C422  1  0.917350  0.605100  0.587850  1.0
  C  C423  1  0.829500  0.917350  0.312250  1.0
  C  C424  1  0.017250  0.829500  0.912150  1.0
  C  C425  1  0.329500  0.517250  0.412150  1.0
  C  C426  1  0.417350  0.329500  0.812250  1.0
  C  C427  1  0.105100  0.417350  0.087850  1.0
  C  C428  1  0.517250  0.105100  0.687750  1.0
  C  C429  1  0.394900  0.982750  0.812250  1.0
  C  C430  1  0.082650  0.394900  0.412150  1.0
  C  C431  1  0.170500  0.082650  0.687750  1.0
  C  C432  1  0.982750  0.170500  0.087850  1.0
  C  C433  1  0.626500  0.452800  0.580300  1.0
  C  C434  1  0.546200  0.626500  0.173700  1.0
  C  C435  1  0.872500  0.546200  0.919700  1.0
  C  C436  1  0.452800  0.872500  0.326300  1.0
  C  C437  1  0.627500  0.047200  0.173700  1.0
  C  C438  1  0.953800  0.627500  0.580300  1.0
  C  C439  1  0.873500  0.953800  0.326300  1.0
  C  C440  1  0.047200  0.873500  0.919700  1.0
  C  C441  1  0.373500  0.547200  0.419700  1.0
  C  C442  1  0.453800  0.373500  0.826300  1.0
  C  C443  1  0.127500  0.453800  0.080300  1.0
  C  C444  1  0.547200  0.127500  0.673700  1.0
  C  C445  1  0.372500  0.952800  0.826300  1.0
  C  C446  1  0.046200  0.372500  0.419700  1.0
  C  C447  1  0.126500  0.046200  0.673700  1.0
  C  C448  1  0.952800  0.126500  0.080300  1.0
  C  C449  1  0.613520  0.463120  0.612400  1.0
  C  C450  1  0.501120  0.613520  0.150400  1.0
  C  C451  1  0.850720  0.501120  0.887600  1.0
  C  C452  1  0.463120  0.850720  0.349600  1.0
  C  C453  1  0.649280  0.036880  0.150400  1.0
  C  C454  1  0.998880  0.649280  0.612400  1.0
  C  C455  1  0.886480  0.998880  0.349600  1.0
  C  C456  1  0.036880  0.886480  0.887600  1.0
  C  C457  1  0.386480  0.536880  0.387600  1.0
  C  C458  1  0.498880  0.386480  0.849600  1.0
  C  C459  1  0.149280  0.498880  0.112400  1.0
  C  C460  1  0.536880  0.149280  0.650400  1.0
  C  C461  1  0.350720  0.963120  0.849600  1.0
  C  C462  1  0.001120  0.350720  0.387600  1.0
  C  C463  1  0.113520  0.001120  0.650400  1.0
  C  C464  1  0.963120  0.113520  0.112400  1.0
  C  C465  1  0.644500  0.503400  0.651900  1.0
  C  C466  1  0.492600  0.644500  0.141100  1.0
  C  C467  1  0.851500  0.492600  0.848100  1.0
  C  C468  1  0.503400  0.851500  0.358900  1.0
  C  C469  1  0.648500  0.996600  0.141100  1.0
  C  C470  1  0.007400  0.648500  0.651900  1.0
  C  C471  1  0.855500  0.007400  0.358900  1.0
  C  C472  1  0.996600  0.855500  0.848100  1.0
  C  C473  1  0.355500  0.496600  0.348100  1.0
  C  C474  1  0.507400  0.355500  0.858900  1.0
  C  C475  1  0.148500  0.507400  0.151900  1.0
  C  C476  1  0.496600  0.148500  0.641100  1.0
  C  C477  1  0.351500  0.003400  0.858900  1.0
  C  C478  1  0.992600  0.351500  0.348100  1.0
  C  C479  1  0.144500  0.992600  0.641100  1.0
  C  C480  1  0.003400  0.144500  0.151900  1.0
  C  C481  1  0.688600  0.533400  0.659400  1.0
  C  C482  1  0.529200  0.688600  0.155200  1.0
  C  C483  1  0.874000  0.529200  0.840600  1.0
  C  C484  1  0.533400  0.874000  0.344800  1.0
  C  C485  1  0.626000  0.966600  0.155200  1.0
  C  C486  1  0.970800  0.626000  0.659400  1.0
  C  C487  1  0.811400  0.970800  0.344800  1.0
  C  C488  1  0.966600  0.811400  0.840600  1.0
  C  C489  1  0.311400  0.466600  0.340600  1.0
  C  C490  1  0.470800  0.311400  0.844800  1.0
  C  C491  1  0.126000  0.470800  0.159400  1.0
  C  C492  1  0.466600  0.126000  0.655200  1.0
  C  C493  1  0.374000  0.033400  0.844800  1.0
  C  C494  1  0.029200  0.374000  0.340600  1.0
  C  C495  1  0.188600  0.029200  0.655200  1.0
  C  C496  1  0.033400  0.188600  0.159400  1.0
  C  C497  1  0.591640  0.238900  0.480540  1.0
  C  C498  1  0.611100  0.591640  0.352740  1.0
  C  C499  1  0.758360  0.611100  0.019460  1.0
  C  C500  1  0.238900  0.758360  0.147260  1.0
  C  C501  1  0.741640  0.261100  0.352740  1.0
  C  C502  1  0.888900  0.741640  0.480540  1.0
  C  C503  1  0.908360  0.888900  0.147260  1.0
  C  C504  1  0.261100  0.908360  0.019460  1.0
  C  C505  1  0.408360  0.761100  0.519460  1.0
  C  C506  1  0.388900  0.408360  0.647260  1.0
  C  C507  1  0.241640  0.388900  0.980540  1.0
  C  C508  1  0.761100  0.241640  0.852740  1.0
  C  C509  1  0.258360  0.738900  0.647260  1.0
  C  C510  1  0.111100  0.258360  0.519460  1.0
  C  C511  1  0.091640  0.111100  0.852740  1.0
  C  C512  1  0.738900  0.091640  0.980540  1.0
  C  C513  1  0.556100  0.194800  0.446900  1.0
  C  C514  1  0.609200  0.556100  0.361300  1.0
  C  C515  1  0.747900  0.609200  0.053100  1.0
  C  C516  1  0.194800  0.747900  0.138700  1.0
  C  C517  1  0.752100  0.305200  0.361300  1.0
  C  C518  1  0.890800  0.752100  0.446900  1.0
  C  C519  1  0.943900  0.890800  0.138700  1.0
  C  C520  1  0.305200  0.943900  0.053100  1.0
  C  C521  1  0.443900  0.805200  0.553100  1.0
  C  C522  1  0.390800  0.443900  0.638700  1.0
  C  C523  1  0.252100  0.390800  0.946900  1.0
  C  C524  1  0.805200  0.252100  0.861300  1.0
  C  C525  1  0.247900  0.694800  0.638700  1.0
  C  C526  1  0.109200  0.247900  0.553100  1.0
  C  C527  1  0.056100  0.109200  0.861300  1.0
  C  C528  1  0.694800  0.056100  0.946900  1.0
  C  C529  1  0.518300  0.188500  0.415200  1.0
  C  C530  1  0.603100  0.518300  0.329800  1.0
  C  C531  1  0.773300  0.603100  0.084800  1.0
  C  C532  1  0.188500  0.773300  0.170200  1.0
  C  C533  1  0.726700  0.311500  0.329800  1.0
  C  C534  1  0.896900  0.726700  0.415200  1.0
  C  C535  1  0.981700  0.896900  0.170200  1.0
  C  C536  1  0.311500  0.981700  0.084800  1.0
  C  C537  1  0.481700  0.811500  0.584800  1.0
  C  C538  1  0.396900  0.481700  0.670200  1.0
  C  C539  1  0.226700  0.396900  0.915200  1.0
  C  C540  1  0.811500  0.226700  0.829800  1.0
  C  C541  1  0.273300  0.688500  0.670200  1.0
  C  C542  1  0.103100  0.273300  0.584800  1.0
  C  C543  1  0.018300  0.103100  0.829800  1.0
  C  C544  1  0.688500  0.018300  0.915200  1.0
  C  C545  1  0.515900  0.226100  0.417000  1.0
  C  C546  1  0.598900  0.515900  0.289800  1.0
  C  C547  1  0.809100  0.598900  0.083000  1.0
  C  C548  1  0.226100  0.809100  0.210200  1.0
  C  C549  1  0.690900  0.273900  0.289800  1.0
  C  C550  1  0.901100  0.690900  0.417000  1.0
  C  C551  1  0.984100  0.901100  0.210200  1.0
  C  C552  1  0.273900  0.984100  0.083000  1.0
  C  C553  1  0.484100  0.773900  0.583000  1.0
  C  C554  1  0.401100  0.484100  0.710200  1.0
  C  C555  1  0.190900  0.401100  0.917000  1.0
  C  C556  1  0.773900  0.190900  0.789800  1.0
  C  C557  1  0.309100  0.726100  0.710200  1.0
  C  C558  1  0.098900  0.309100  0.583000  1.0
  C  C559  1  0.015900  0.098900  0.789800  1.0
  C  C560  1  0.726100  0.015900  0.917000  1.0
  C  C561  1  0.551400  0.270200  0.450600  1.0
  C  C562  1  0.600800  0.551400  0.281200  1.0
  C  C563  1  0.819600  0.600800  0.049400  1.0
  C  C564  1  0.270200  0.819600  0.218800  1.0
  C  C565  1  0.680400  0.229800  0.281200  1.0
  C  C566  1  0.899200  0.680400  0.450600  1.0
  C  C567  1  0.948600  0.899200  0.218800  1.0
  C  C568  1  0.229800  0.948600  0.049400  1.0
  C  C569  1  0.448600  0.729800  0.549400  1.0
  C  C570  1  0.399200  0.448600  0.718800  1.0
  C  C571  1  0.180400  0.399200  0.950600  1.0
  C  C572  1  0.729800  0.180400  0.781200  1.0
  C  C573  1  0.319600  0.770200  0.718800  1.0
  C  C574  1  0.100800  0.319600  0.549400  1.0
  C  C575  1  0.051400  0.100800  0.781200  1.0
  C  C576  1  0.770200  0.051400  0.950600  1.0
  C  C577  1  0.629200  0.247700  0.513100  1.0
  C  C578  1  0.616100  0.629200  0.381500  1.0
  C  C579  1  0.734600  0.616100  0.986900  1.0
  C  C580  1  0.247700  0.734600  0.118500  1.0
  C  C581  1  0.765400  0.252300  0.381500  1.0
  C  C582  1  0.883900  0.765400  0.513100  1.0
  C  C583  1  0.870800  0.883900  0.118500  1.0
  C  C584  1  0.252300  0.870800  0.986900  1.0
  C  C585  1  0.370800  0.752300  0.486900  1.0
  C  C586  1  0.383900  0.370800  0.618500  1.0
  C  C587  1  0.265400  0.383900  0.013100  1.0
  C  C588  1  0.752300  0.265400  0.881500  1.0
  C  C589  1  0.234600  0.747700  0.618500  1.0
  C  C590  1  0.116100  0.234600  0.486900  1.0
  C  C591  1  0.129200  0.116100  0.881500  1.0
  C  C592  1  0.747700  0.129200  0.013100  1.0
  C  C593  1  0.641200  0.219000  0.525400  1.0
  C  C594  1  0.615800  0.641200  0.422200  1.0
  C  C595  1  0.693600  0.615800  0.974600  1.0
  C  C596  1  0.219000  0.693600  0.077800  1.0
  C  C597  1  0.806400  0.281000  0.422200  1.0
  C  C598  1  0.884200  0.806400  0.525400  1.0
  C  C599  1  0.858800  0.884200  0.077800  1.0
  C  C600  1  0.281000  0.858800  0.974600  1.0
  C  C601  1  0.358800  0.781000  0.474600  1.0
  C  C602  1  0.384200  0.358800  0.577800  1.0
  C  C603  1  0.306400  0.384200  0.025400  1.0
  C  C604  1  0.781000  0.306400  0.922200  1.0
  C  C605  1  0.193600  0.719000  0.577800  1.0
  C  C606  1  0.115800  0.193600  0.474600  1.0
  C  C607  1  0.141200  0.115800  0.922200  1.0
  C  C608  1  0.719000  0.141200  0.025400  1.0
  C  C609  1  0.684000  0.247800  0.564400  1.0
  C  C610  1  0.619600  0.684000  0.436200  1.0
  C  C611  1  0.683400  0.619600  0.935600  1.0
  C  C612  1  0.247800  0.683400  0.063800  1.0
  C  C613  1  0.816600  0.252200  0.436200  1.0
  C  C614  1  0.880400  0.816600  0.564400  1.0
  C  C615  1  0.816000  0.880400  0.063800  1.0
  C  C616  1  0.252200  0.816000  0.935600  1.0
  C  C617  1  0.316000  0.752200  0.435600  1.0
  C  C618  1  0.380400  0.316000  0.563800  1.0
  C  C619  1  0.316600  0.380400  0.064400  1.0
  C  C620  1  0.752200  0.316600  0.936200  1.0
  C  C621  1  0.183400  0.747800  0.563800  1.0
  C  C622  1  0.119600  0.183400  0.435600  1.0
  C  C623  1  0.184000  0.119600  0.936200  1.0
  C  C624  1  0.747800  0.184000  0.064400  1.0
  C  C625  1  0.738600  0.336500  0.611700  1.0
  C  C626  1  0.626900  0.738600  0.402100  1.0
  C  C627  1  0.724800  0.626900  0.888300  1.0
  C  C628  1  0.336500  0.724800  0.097900  1.0
  C  C629  1  0.775200  0.163500  0.402100  1.0
  C  C630  1  0.873100  0.775200  0.611700  1.0
  C  C631  1  0.761400  0.873100  0.097900  1.0
  C  C632  1  0.163500  0.761400  0.888300  1.0
  C  C633  1  0.261400  0.663500  0.388300  1.0
  C  C634  1  0.373100  0.261400  0.597900  1.0
  C  C635  1  0.275200  0.373100  0.111700  1.0
  C  C636  1  0.663500  0.275200  0.902100  1.0
  C  C637  1  0.224800  0.836500  0.597900  1.0
  C  C638  1  0.126900  0.224800  0.388300  1.0
  C  C639  1  0.238600  0.126900  0.902100  1.0
  C  C640  1  0.836500  0.238600  0.111700  1.0
  C  C641  1  0.960700  0.375100  0.841600  1.0
  C  C642  1  0.619100  0.960700  0.585600  1.0
  C  C643  1  0.533500  0.619100  0.658400  1.0
  C  C644  1  0.375100  0.533500  0.914400  1.0
  C  C645  1  0.966500  0.124900  0.585600  1.0
  C  C646  1  0.880900  0.966500  0.841600  1.0
  C  C647  1  0.539300  0.880900  0.914400  1.0
  C  C648  1  0.124900  0.539300  0.658400  1.0
  C  C649  1  0.039300  0.624900  0.158400  1.0
  C  C650  1  0.380900  0.039300  0.414400  1.0
  C  C651  1  0.466500  0.380900  0.341600  1.0
  C  C652  1  0.624900  0.466500  0.085600  1.0
  C  C653  1  0.033500  0.875100  0.414400  1.0
  C  C654  1  0.119100  0.033500  0.158400  1.0
  C  C655  1  0.460700  0.119100  0.085600  1.0
  C  C656  1  0.875100  0.460700  0.341600  1.0
  C  C657  1  0.992600  0.366000  0.861200  1.0
  C  C658  1  0.631400  0.992600  0.626600  1.0
  C  C659  1  0.504800  0.631400  0.638800  1.0
  C  C660  1  0.366000  0.504800  0.873400  1.0
  C  C661  1  0.995200  0.134000  0.626600  1.0
  C  C662  1  0.868600  0.995200  0.861200  1.0
  C  C663  1  0.507400  0.868600  0.873400  1.0
  C  C664  1  0.134000  0.507400  0.638800  1.0
  C  C665  1  0.007400  0.634000  0.138800  1.0
  C  C666  1  0.368600  0.007400  0.373400  1.0
  C  C667  1  0.495200  0.368600  0.361200  1.0
  C  C668  1  0.634000  0.495200  0.126600  1.0
  C  C669  1  0.004800  0.866000  0.373400  1.0
  C  C670  1  0.131400  0.004800  0.138800  1.0
  C  C671  1  0.492600  0.131400  0.126600  1.0
  C  C672  1  0.866000  0.492600  0.361200  1.0
  C  C673  1  0.037200  0.402100  0.893100  1.0
  C  C674  1  0.644100  0.037200  0.635100  1.0
  C  C675  1  0.509000  0.644100  0.606900  1.0
  C  C676  1  0.402100  0.509000  0.864900  1.0
  C  C677  1  0.991000  0.097900  0.635100  1.0
  C  C678  1  0.855900  0.991000  0.893100  1.0
  C  C679  1  0.462800  0.855900  0.864900  1.0
  C  C680  1  0.097900  0.462800  0.606900  1.0
  C  C681  1  0.962800  0.597900  0.106900  1.0
  C  C682  1  0.355900  0.962800  0.364900  1.0
  C  C683  1  0.491000  0.355900  0.393100  1.0
  C  C684  1  0.597900  0.491000  0.135100  1.0
  C  C685  1  0.009000  0.902100  0.364900  1.0
  C  C686  1  0.144100  0.009000  0.106900  1.0
  C  C687  1  0.537200  0.144100  0.135100  1.0
  C  C688  1  0.902100  0.537200  0.393100  1.0
  C  C689  1  0.049900  0.447300  0.905400  1.0
  C  C690  1  0.644500  0.049900  0.602600  1.0
  C  C691  1  0.541900  0.644500  0.594600  1.0
  C  C692  1  0.447300  0.541900  0.897400  1.0
  C  C693  1  0.958100  0.052700  0.602600  1.0
  C  C694  1  0.855500  0.958100  0.905400  1.0
  C  C695  1  0.450100  0.855500  0.897400  1.0
  C  C696  1  0.052700  0.450100  0.594600  1.0
  C  C697  1  0.950100  0.552700  0.094600  1.0
  C  C698  1  0.355500  0.950100  0.397400  1.0
  C  C699  1  0.458100  0.355500  0.405400  1.0
  C  C700  1  0.552700  0.458100  0.102600  1.0
  C  C701  1  0.041900  0.947300  0.397400  1.0
  C  C702  1  0.144500  0.041900  0.094600  1.0
  C  C703  1  0.549900  0.144500  0.102600  1.0
  C  C704  1  0.947300  0.549900  0.405400  1.0
  C  C705  1  0.018000  0.456500  0.885900  1.0
  C  C706  1  0.632100  0.018000  0.561500  1.0
  C  C707  1  0.570600  0.632100  0.614100  1.0
  C  C708  1  0.456500  0.570600  0.938500  1.0
  C  C709  1  0.929400  0.043500  0.561500  1.0
  C  C710  1  0.867900  0.929400  0.885900  1.0
  C  C711  1  0.482000  0.867900  0.938500  1.0
  C  C712  1  0.043500  0.482000  0.614100  1.0
  C  C713  1  0.982000  0.543500  0.114100  1.0
  C  C714  1  0.367900  0.982000  0.438500  1.0
  C  C715  1  0.429400  0.367900  0.385900  1.0
  C  C716  1  0.543500  0.429400  0.061500  1.0
  C  C717  1  0.070600  0.956500  0.438500  1.0
  C  C718  1  0.132100  0.070600  0.114100  1.0
  C  C719  1  0.518000  0.132100  0.061500  1.0
  C  C720  1  0.956500  0.518000  0.385900  1.0
  C  C721  1  0.915900  0.341100  0.810600  1.0
  C  C722  1  0.605300  0.915900  0.574800  1.0
  C  C723  1  0.530500  0.605300  0.689400  1.0
  C  C724  1  0.341100  0.530500  0.925200  1.0
  C  C725  1  0.969500  0.158900  0.574800  1.0
  C  C726  1  0.894700  0.969500  0.810600  1.0
  C  C727  1  0.584100  0.894700  0.925200  1.0
  C  C728  1  0.158900  0.584100  0.689400  1.0
  C  C729  1  0.084100  0.658900  0.189400  1.0
  C  C730  1  0.394700  0.084100  0.425200  1.0
  C  C731  1  0.469500  0.394700  0.310600  1.0
  C  C732  1  0.658900  0.469500  0.074800  1.0
  C  C733  1  0.030500  0.841100  0.425200  1.0
  C  C734  1  0.105300  0.030500  0.189400  1.0
  C  C735  1  0.415900  0.105300  0.074800  1.0
  C  C736  1  0.841100  0.415900  0.310600  1.0
  C  C737  1  0.889100  0.292100  0.788400  1.0
  C  C738  1  0.600700  0.889100  0.597000  1.0
  C  C739  1  0.503700  0.600700  0.711600  1.0
  C  C740  1  0.292100  0.503700  0.903000  1.0
  C  C741  1  0.996300  0.207900  0.597000  1.0
  C  C742  1  0.899300  0.996300  0.788400  1.0
  C  C743  1  0.610900  0.899300  0.903000  1.0
  C  C744  1  0.207900  0.610900  0.711600  1.0
  C  C745  1  0.110900  0.707900  0.211600  1.0
  C  C746  1  0.399300  0.110900  0.403000  1.0
  C  C747  1  0.496300  0.399300  0.288400  1.0
  C  C748  1  0.707900  0.496300  0.097000  1.0
  C  C749  1  0.003700  0.792100  0.403000  1.0
  C  C750  1  0.100700  0.003700  0.211600  1.0
  C  C751  1  0.389100  0.100700  0.097000  1.0
  C  C752  1  0.792100  0.389100  0.288400  1.0
  C  C753  1  0.843600  0.276900  0.759700  1.0
  C  C754  1  0.583900  0.843600  0.566700  1.0
  C  C755  1  0.517200  0.583900  0.740300  1.0
  C  C756  1  0.276900  0.517200  0.933300  1.0
  C  C757  1  0.982800  0.223100  0.566700  1.0
  C  C758  1  0.916100  0.982800  0.759700  1.0
  C  C759  1  0.656400  0.916100  0.933300  1.0
  C  C760  1  0.223100  0.656400  0.740300  1.0
  C  C761  1  0.156400  0.723100  0.240300  1.0
  C  C762  1  0.416100  0.156400  0.433300  1.0
  C  C763  1  0.482800  0.416100  0.259700  1.0
  C  C764  1  0.723100  0.482800  0.066700  1.0
  C  C765  1  0.017200  0.776900  0.433300  1.0
  C  C766  1  0.083900  0.017200  0.240300  1.0
  C  C767  1  0.343600  0.083900  0.066700  1.0
  C  C768  1  0.776900  0.343600  0.259700  1.0
  C  C769  1  0.807000  0.318600  0.740800  1.0
  C  C770  1  0.566200  0.807000  0.488400  1.0
  C  C771  1  0.577800  0.566200  0.759200  1.0
  C  C772  1  0.318600  0.577800  0.011600  1.0
  C  C773  1  0.922200  0.181400  0.488400  1.0
  C  C774  1  0.933800  0.922200  0.740800  1.0
  C  C775  1  0.693000  0.933800  0.011600  1.0
  C  C776  1  0.181400  0.693000  0.759200  1.0
  C  C777  1  0.193000  0.681400  0.259200  1.0
  C  C778  1  0.433800  0.193000  0.511600  1.0
  C  C779  1  0.422200  0.433800  0.240800  1.0
  C  C780  1  0.681400  0.422200  0.988400  1.0
  C  C781  1  0.077800  0.818600  0.511600  1.0
  C  C782  1  0.066200  0.077800  0.259200  1.0
  C  C783  1  0.307000  0.066200  0.988400  1.0
  C  C784  1  0.818600  0.307000  0.240800  1.0
  C  C785  1  0.830200  0.310500  0.644500  1.0
  C  C786  1  0.685700  0.830200  0.519700  1.0
  C  C787  1  0.666000  0.685700  0.855500  1.0
  C  C788  1  0.310500  0.666000  0.980300  1.0
  C  C789  1  0.834000  0.189500  0.519700  1.0
  C  C790  1  0.814300  0.834000  0.644500  1.0
  C  C791  1  0.669800  0.814300  0.980300  1.0
  C  C792  1  0.189500  0.669800  0.855500  1.0
  C  C793  1  0.169800  0.689500  0.355500  1.0
  C  C794  1  0.314300  0.169800  0.480300  1.0
  C  C795  1  0.334000  0.314300  0.144500  1.0
  C  C796  1  0.689500  0.334000  0.019700  1.0
  C  C797  1  0.166000  0.810500  0.480300  1.0
  C  C798  1  0.185700  0.166000  0.355500  1.0
  C  C799  1  0.330200  0.185700  0.019700  1.0
  C  C800  1  0.810500  0.330200  0.144500  1.0
  C  C801  1  0.799200  0.318600  0.621400  1.0
  C  C802  1  0.677800  0.799200  0.480600  1.0
  C  C803  1  0.697200  0.677800  0.878600  1.0
  C  C804  1  0.318600  0.697200  0.019400  1.0
  C  C805  1  0.802800  0.181400  0.480600  1.0
  C  C806  1  0.822200  0.802800  0.621400  1.0
  C  C807  1  0.700800  0.822200  0.019400  1.0
  C  C808  1  0.181400  0.700800  0.878600  1.0
  C  C809  1  0.200800  0.681400  0.378600  1.0
  C  C810  1  0.322200  0.200800  0.519400  1.0
  C  C811  1  0.302800  0.322200  0.121400  1.0
  C  C812  1  0.681400  0.302800  0.980600  1.0
  C  C813  1  0.197200  0.818600  0.519400  1.0
  C  C814  1  0.177800  0.197200  0.378600  1.0
  C  C815  1  0.299200  0.177800  0.980600  1.0
  C  C816  1  0.818600  0.299200  0.121400  1.0
  C  C817  1  0.771000  0.326200  0.637200  1.0
  C  C818  1  0.633800  0.771000  0.444800  1.0
  C  C819  1  0.689000  0.633800  0.862800  1.0
  C  C820  1  0.326200  0.689000  0.055200  1.0
  C  C821  1  0.811000  0.173800  0.444800  1.0
  C  C822  1  0.866200  0.811000  0.637200  1.0
  C  C823  1  0.729000  0.866200  0.055200  1.0
  C  C824  1  0.173800  0.729000  0.862800  1.0
  C  C825  1  0.229000  0.673800  0.362800  1.0
  C  C826  1  0.366200  0.229000  0.555200  1.0
  C  C827  1  0.311000  0.366200  0.137200  1.0
  C  C828  1  0.673800  0.311000  0.944800  1.0
  C  C829  1  0.189000  0.826200  0.555200  1.0
  C  C830  1  0.133800  0.189000  0.362800  1.0
  C  C831  1  0.271000  0.133800  0.944800  1.0
  C  C832  1  0.826200  0.271000  0.137200  1.0
  C  C833  1  0.773900  0.325700  0.676000  1.0
  C  C834  1  0.597900  0.773900  0.448200  1.0
  C  C835  1  0.649700  0.597900  0.824000  1.0
  C  C836  1  0.325700  0.649700  0.051800  1.0
  C  C837  1  0.850300  0.174300  0.448200  1.0
  C  C838  1  0.902100  0.850300  0.676000  1.0
  C  C839  1  0.726100  0.902100  0.051800  1.0
  C  C840  1  0.174300  0.726100  0.824000  1.0
  C  C841  1  0.226100  0.674300  0.324000  1.0
  C  C842  1  0.402100  0.226100  0.551800  1.0
  C  C843  1  0.350300  0.402100  0.176000  1.0
  C  C844  1  0.674300  0.350300  0.948200  1.0
  C  C845  1  0.149700  0.825700  0.551800  1.0
  C  C846  1  0.097900  0.149700  0.324000  1.0
  C  C847  1  0.273900  0.097900  0.948200  1.0
  C  C848  1  0.825700  0.273900  0.176000  1.0
  C  C849  1  0.804900  0.317600  0.699100  1.0
  C  C850  1  0.605800  0.804900  0.487300  1.0
  C  C851  1  0.618500  0.605800  0.800900  1.0
  C  C852  1  0.317600  0.618500  0.012700  1.0
  C  C853  1  0.881500  0.182400  0.487300  1.0
  C  C854  1  0.894200  0.881500  0.699100  1.0
  C  C855  1  0.695100  0.894200  0.012700  1.0
  C  C856  1  0.182400  0.695100  0.800900  1.0
  C  C857  1  0.195100  0.682400  0.300900  1.0
  C  C858  1  0.394200  0.195100  0.512700  1.0
  C  C859  1  0.381500  0.394200  0.199100  1.0
  C  C860  1  0.682400  0.381500  0.987300  1.0
  C  C861  1  0.118500  0.817600  0.512700  1.0
  C  C862  1  0.105800  0.118500  0.300900  1.0
  C  C863  1  0.304900  0.105800  0.987300  1.0
  C  C864  1  0.817600  0.304900  0.199100  1.0
  C  C865  1  0.833100  0.310100  0.683400  1.0
  C  C866  1  0.649700  0.833100  0.523000  1.0
  C  C867  1  0.626700  0.649700  0.816600  1.0
  C  C868  1  0.310100  0.626700  0.977000  1.0
  C  C869  1  0.873300  0.189900  0.523000  1.0
  C  C870  1  0.850300  0.873300  0.683400  1.0
  C  C871  1  0.666900  0.850300  0.977000  1.0
  C  C872  1  0.189900  0.666900  0.816600  1.0
  C  C873  1  0.166900  0.689900  0.316600  1.0
  C  C874  1  0.350300  0.166900  0.477000  1.0
  C  C875  1  0.373300  0.350300  0.183400  1.0
  C  C876  1  0.689900  0.373300  0.023000  1.0
  C  C877  1  0.126700  0.810100  0.477000  1.0
  C  C878  1  0.149700  0.126700  0.316600  1.0
  C  C879  1  0.333100  0.149700  0.023000  1.0
  C  C880  1  0.810100  0.333100  0.183400  1.0
  C  C881  1  0.710670  0.424470  0.623200  1.0
  C  C882  1  0.587470  0.710670  0.286200  1.0
  C  C883  1  0.801270  0.587470  0.876800  1.0
  C  C884  1  0.424470  0.801270  0.213800  1.0
  C  C885  1  0.698730  0.075530  0.286200  1.0
  C  C886  1  0.912530  0.698730  0.623200  1.0
  C  C887  1  0.789330  0.912530  0.213800  1.0
  C  C888  1  0.075530  0.789330  0.876800  1.0
  C  C889  1  0.289330  0.575530  0.376800  1.0
  C  C890  1  0.412530  0.289330  0.713800  1.0
  C  C891  1  0.198730  0.412530  0.123200  1.0
  C  C892  1  0.575530  0.198730  0.786200  1.0
  C  C893  1  0.301270  0.924470  0.713800  1.0
  C  C894  1  0.087470  0.301270  0.376800  1.0
  C  C895  1  0.210670  0.087470  0.786200  1.0
  C  C896  1  0.924470  0.210670  0.123200  1.0
  C  C897  1  0.749000  0.465000  0.659600  1.0
  C  C898  1  0.589400  0.749000  0.284000  1.0
  C  C899  1  0.805400  0.589400  0.840400  1.0
  C  C900  1  0.465000  0.805400  0.216000  1.0
  C  C901  1  0.694600  0.035000  0.284000  1.0
  C  C902  1  0.910600  0.694600  0.659600  1.0
  C  C903  1  0.751000  0.910600  0.216000  1.0
  C  C904  1  0.035000  0.751000  0.840400  1.0
  C  C905  1  0.251000  0.535000  0.340400  1.0
  C  C906  1  0.410600  0.251000  0.716000  1.0
  C  C907  1  0.194600  0.410600  0.159600  1.0
  C  C908  1  0.535000  0.194600  0.784000  1.0
  C  C909  1  0.305400  0.965000  0.716000  1.0
  C  C910  1  0.089400  0.305400  0.340400  1.0
  C  C911  1  0.249000  0.089400  0.784000  1.0
  C  C912  1  0.965000  0.249000  0.159600  1.0
  C  C913  1  0.789700  0.487800  0.657900  1.0
  C  C914  1  0.631800  0.789700  0.301900  1.0
  C  C915  1  0.829900  0.631800  0.842100  1.0
  C  C916  1  0.487800  0.829900  0.198100  1.0
  C  C917  1  0.670100  0.012200  0.301900  1.0
  C  C918  1  0.868200  0.670100  0.657900  1.0
  C  C919  1  0.710300  0.868200  0.198100  1.0
  C  C920  1  0.012200  0.710300  0.842100  1.0
  C  C921  1  0.210300  0.512200  0.342100  1.0
  C  C922  1  0.368200  0.210300  0.698100  1.0
  C  C923  1  0.170100  0.368200  0.157900  1.0
  C  C924  1  0.512200  0.170100  0.801900  1.0
  C  C925  1  0.329900  0.987800  0.698100  1.0
  C  C926  1  0.131800  0.329900  0.342100  1.0
  C  C927  1  0.289700  0.131800  0.801900  1.0
  C  C928  1  0.987800  0.289700  0.157900  1.0
  C  C929  1  0.792100  0.470100  0.619800  1.0
  C  C930  1  0.672300  0.792100  0.322000  1.0
  C  C931  1  0.850300  0.672300  0.880200  1.0
  C  C932  1  0.470100  0.850300  0.178000  1.0
  C  C933  1  0.649700  0.029900  0.322000  1.0
  C  C934  1  0.827700  0.649700  0.619800  1.0
  C  C935  1  0.707900  0.827700  0.178000  1.0
  C  C936  1  0.029900  0.707900  0.880200  1.0
  C  C937  1  0.207900  0.529900  0.380200  1.0
  C  C938  1  0.327700  0.207900  0.678000  1.0
  C  C939  1  0.149700  0.327700  0.119800  1.0
  C  C940  1  0.529900  0.149700  0.822000  1.0
  C  C941  1  0.350300  0.970100  0.678000  1.0
  C  C942  1  0.172300  0.350300  0.380200  1.0
  C  C943  1  0.292100  0.172300  0.822000  1.0
  C  C944  1  0.970100  0.292100  0.119800  1.0
  C  C945  1  0.753800  0.429700  0.583500  1.0
  C  C946  1  0.670300  0.753800  0.324100  1.0
  C  C947  1  0.846200  0.670300  0.916500  1.0
  C  C948  1  0.429700  0.846200  0.175900  1.0
  C  C949  1  0.653800  0.070300  0.324100  1.0
  C  C950  1  0.829700  0.653800  0.583500  1.0
  C  C951  1  0.746200  0.829700  0.175900  1.0
  C  C952  1  0.070300  0.746200  0.916500  1.0
  C  C953  1  0.246200  0.570300  0.416500  1.0
  C  C954  1  0.329700  0.246200  0.675900  1.0
  C  C955  1  0.153800  0.329700  0.083500  1.0
  C  C956  1  0.570300  0.153800  0.824100  1.0
  C  C957  1  0.346200  0.929700  0.675900  1.0
  C  C958  1  0.170300  0.346200  0.416500  1.0
  C  C959  1  0.253800  0.170300  0.824100  1.0
  C  C960  1  0.929700  0.253800  0.083500  1.0
  C  C961  1  0.670990  0.399790  0.623400  1.0
  C  C962  1  0.547590  0.670990  0.271200  1.0
  C  C963  1  0.776390  0.547590  0.876600  1.0
  C  C964  1  0.399790  0.776390  0.228800  1.0
  C  C965  1  0.723610  0.100210  0.271200  1.0
  C  C966  1  0.952410  0.723610  0.623400  1.0
  C  C967  1  0.829010  0.952410  0.228800  1.0
  C  C968  1  0.100210  0.829010  0.876600  1.0
  C  C969  1  0.329010  0.600210  0.376600  1.0
  C  C970  1  0.452410  0.329010  0.728800  1.0
  C  C971  1  0.223610  0.452410  0.123400  1.0
  C  C972  1  0.600210  0.223610  0.771200  1.0
  C  C973  1  0.276390  0.899790  0.728800  1.0
  C  C974  1  0.047590  0.276390  0.376600  1.0
  C  C975  1  0.170990  0.047590  0.771200  1.0
  C  C976  1  0.899790  0.170990  0.123400  1.0
  C  C977  1  0.653500  0.406250  0.653350  1.0
  C  C978  1  0.500150  0.653500  0.247250  1.0
  C  C979  1  0.752900  0.500150  0.846650  1.0
  C  C980  1  0.406250  0.752900  0.252750  1.0
  C  C981  1  0.747100  0.093750  0.247250  1.0
  C  C982  1  0.999850  0.747100  0.653350  1.0
  C  C983  1  0.846500  0.999850  0.252750  1.0
  C  C984  1  0.093750  0.846500  0.846650  1.0
  C  C985  1  0.346500  0.593750  0.346650  1.0
  C  C986  1  0.499850  0.346500  0.752750  1.0
  C  C987  1  0.247100  0.499850  0.153350  1.0
  C  C988  1  0.593750  0.247100  0.747250  1.0
  C  C989  1  0.252900  0.906250  0.752750  1.0
  C  C990  1  0.000150  0.252900  0.346650  1.0
  C  C991  1  0.153500  0.000150  0.747250  1.0
  C  C992  1  0.906250  0.153500  0.153350  1.0
  C  C993  1  0.608200  0.367000  0.634200  1.0
  C  C994  1  0.474000  0.608200  0.241200  1.0
  C  C995  1  0.732800  0.474000  0.865800  1.0
  C  C996  1  0.367000  0.732800  0.258800  1.0
  C  C997  1  0.767200  0.133000  0.241200  1.0
  C  C998  1  0.026000  0.767200  0.634200  1.0
  C  C999  1  0.891800  0.026000  0.258800  1.0
  C  C1000  1  0.133000  0.891800  0.865800  1.0
  C  C1001  1  0.391800  0.633000  0.365800  1.0
  C  C1002  1  0.526000  0.391800  0.758800  1.0
  C  C1003  1  0.267200  0.526000  0.134200  1.0
  C  C1004  1  0.633000  0.267200  0.741200  1.0
  C  C1005  1  0.232800  0.867000  0.758800  1.0
  C  C1006  1  0.974000  0.232800  0.365800  1.0
  C  C1007  1  0.108200  0.974000  0.741200  1.0
  C  C1008  1  0.867000  0.108200  0.134200  1.0
  C  C1009  1  0.560900  0.289600  0.565700  1.0
  C  C1010  1  0.495200  0.560900  0.271300  1.0
  C  C1011  1  0.723900  0.495200  0.934300  1.0
  C  C1012  1  0.289600  0.723900  0.228700  1.0
  C  C1013  1  0.776100  0.210400  0.271300  1.0
  C  C1014  1  0.004800  0.776100  0.565700  1.0
  C  C1015  1  0.939100  0.004800  0.228700  1.0
  C  C1016  1  0.210400  0.939100  0.934300  1.0
  C  C1017  1  0.439100  0.710400  0.434300  1.0
  C  C1018  1  0.504800  0.439100  0.728700  1.0
  C  C1019  1  0.276100  0.504800  0.065700  1.0
  C  C1020  1  0.710400  0.276100  0.771300  1.0
  C  C1021  1  0.223900  0.789600  0.728700  1.0
  C  C1022  1  0.995200  0.223900  0.434300  1.0
  C  C1023  1  0.060900  0.995200  0.771300  1.0
  C  C1024  1  0.789600  0.060900  0.065700  1.0
  C  C1025  1  0.430880  0.033080  0.556000  1.0
  C  C1026  1  0.374880  0.430880  0.397800  1.0
  C  C1027  1  0.477080  0.374880  0.944000  1.0
  C  C1028  1  0.033080  0.477080  0.102200  1.0
  C  C1029  1  0.022920  0.466920  0.397800  1.0
  C  C1030  1  0.125120  0.022920  0.556000  1.0
  C  C1031  1  0.069120  0.125120  0.102200  1.0
  C  C1032  1  0.466920  0.069120  0.944000  1.0
  C  C1033  1  0.569120  0.966920  0.444000  1.0
  C  C1034  1  0.625120  0.569120  0.602200  1.0
  C  C1035  1  0.522920  0.625120  0.056000  1.0
  C  C1036  1  0.966920  0.522920  0.897800  1.0
  C  C1037  1  0.977080  0.533080  0.602200  1.0
  C  C1038  1  0.874880  0.977080  0.444000  1.0
  C  C1039  1  0.930880  0.874880  0.897800  1.0
  C  C1040  1  0.533080  0.930880  0.056000  1.0
  C  C1041  1  0.432000  0.010800  0.581200  1.0
  C  C1042  1  0.350800  0.432000  0.421200  1.0
  C  C1043  1  0.429600  0.350800  0.918800  1.0
  C  C1044  1  0.010800  0.429600  0.078800  1.0
  C  C1045  1  0.070400  0.489200  0.421200  1.0
  C  C1046  1  0.149200  0.070400  0.581200  1.0
  C  C1047  1  0.068000  0.149200  0.078800  1.0
  C  C1048  1  0.489200  0.068000  0.918800  1.0
  C  C1049  1  0.568000  0.989200  0.418800  1.0
  C  C1050  1  0.649200  0.568000  0.578800  1.0
  C  C1051  1  0.570400  0.649200  0.081200  1.0
  C  C1052  1  0.989200  0.570400  0.921200  1.0
  C  C1053  1  0.929600  0.510800  0.578800  1.0
  C  C1054  1  0.850800  0.929600  0.418800  1.0
  C  C1055  1  0.932000  0.850800  0.921200  1.0
  C  C1056  1  0.510800  0.932000  0.081200  1.0
  C  C1057  1  0.397600  0.995300  0.593100  1.0
  C  C1058  1  0.304500  0.397600  0.402300  1.0
  C  C1059  1  0.402200  0.304500  0.906900  1.0
  C  C1060  1  0.995300  0.402200  0.097700  1.0
  C  C1061  1  0.097800  0.504700  0.402300  1.0
  C  C1062  1  0.195500  0.097800  0.593100  1.0
  C  C1063  1  0.102400  0.195500  0.097700  1.0
  C  C1064  1  0.504700  0.102400  0.906900  1.0
  C  C1065  1  0.602400  0.004700  0.406900  1.0
  C  C1066  1  0.695500  0.602400  0.597700  1.0
  C  C1067  1  0.597800  0.695500  0.093100  1.0
  C  C1068  1  0.004700  0.597800  0.902300  1.0
  C  C1069  1  0.902200  0.495300  0.597700  1.0
  C  C1070  1  0.804500  0.902200  0.406900  1.0
  C  C1071  1  0.897600  0.804500  0.902300  1.0
  C  C1072  1  0.495300  0.897600  0.093100  1.0
  C  C1073  1  0.361990  0.001890  0.579700  1.0
  C  C1074  1  0.282290  0.361990  0.360100  1.0
  C  C1075  1  0.422190  0.282290  0.920300  1.0
  C  C1076  1  0.001890  0.422190  0.139900  1.0
  C  C1077  1  0.077810  0.498110  0.360100  1.0
  C  C1078  1  0.217710  0.077810  0.579700  1.0
  C  C1079  1  0.138010  0.217710  0.139900  1.0
  C  C1080  1  0.498110  0.138010  0.920300  1.0
  C  C1081  1  0.638010  0.998110  0.420300  1.0
  C  C1082  1  0.717710  0.638010  0.639900  1.0
  C  C1083  1  0.577810  0.717710  0.079700  1.0
  C  C1084  1  0.998110  0.577810  0.860100  1.0
  C  C1085  1  0.922190  0.501890  0.639900  1.0
  C  C1086  1  0.782290  0.922190  0.420300  1.0
  C  C1087  1  0.861990  0.782290  0.860100  1.0
  C  C1088  1  0.501890  0.861990  0.079700  1.0
  C  C1089  1  0.360900  0.024200  0.554500  1.0
  C  C1090  1  0.306400  0.360900  0.336700  1.0
  C  C1091  1  0.469700  0.306400  0.945500  1.0
  C  C1092  1  0.024200  0.469700  0.163300  1.0
  C  C1093  1  0.030300  0.475800  0.336700  1.0
  C  C1094  1  0.193600  0.030300  0.554500  1.0
  C  C1095  1  0.139100  0.193600  0.163300  1.0
  C  C1096  1  0.475800  0.139100  0.945500  1.0
  C  C1097  1  0.639100  0.975800  0.445500  1.0
  C  C1098  1  0.693600  0.639100  0.663300  1.0
  C  C1099  1  0.530300  0.693600  0.054500  1.0
  C  C1100  1  0.975800  0.530300  0.836700  1.0
  C  C1101  1  0.969700  0.524200  0.663300  1.0
  C  C1102  1  0.806400  0.969700  0.445500  1.0
  C  C1103  1  0.860900  0.806400  0.836700  1.0
  C  C1104  1  0.524200  0.860900  0.054500  1.0
  C  C1105  1  0.463780  0.051880  0.545500  1.0
  C  C1106  1  0.418280  0.463780  0.411900  1.0
  C  C1107  1  0.506380  0.418280  0.954500  1.0
  C  C1108  1  0.051880  0.506380  0.088100  1.0
  C  C1109  1  0.993620  0.448120  0.411900  1.0
  C  C1110  1  0.081720  0.993620  0.545500  1.0
  C  C1111  1  0.036220  0.081720  0.088100  1.0
  C  C1112  1  0.448120  0.036220  0.954500  1.0
  C  C1113  1  0.536220  0.948120  0.454500  1.0
  C  C1114  1  0.581720  0.536220  0.588100  1.0
  C  C1115  1  0.493620  0.581720  0.045500  1.0
  C  C1116  1  0.948120  0.493620  0.911900  1.0
  C  C1117  1  0.006380  0.551880  0.588100  1.0
  C  C1118  1  0.918280  0.006380  0.454500  1.0
  C  C1119  1  0.963780  0.918280  0.911900  1.0
  C  C1120  1  0.551880  0.963780  0.045500  1.0
  C  C1121  1  0.497800  0.043000  0.542800  1.0
  C  C1122  1  0.455000  0.497800  0.454800  1.0
  C  C1123  1  0.500200  0.455000  0.957200  1.0
  C  C1124  1  0.043000  0.500200  0.045200  1.0
  C  C1125  1  0.999800  0.457000  0.454800  1.0
  C  C1126  1  0.045000  0.999800  0.542800  1.0
  C  C1127  1  0.002200  0.045000  0.045200  1.0
  C  C1128  1  0.457000  0.002200  0.957200  1.0
  C  C1129  1  0.502200  0.957000  0.457200  1.0
  C  C1130  1  0.545000  0.502200  0.545200  1.0
  C  C1131  1  0.499800  0.545000  0.042800  1.0
  C  C1132  1  0.957000  0.499800  0.954800  1.0
  C  C1133  1  0.000200  0.543000  0.545200  1.0
  C  C1134  1  0.955000  0.000200  0.457200  1.0
  C  C1135  1  0.997800  0.955000  0.954800  1.0
  C  C1136  1  0.543000  0.997800  0.042800  1.0
  C  C1137  1  0.519800  0.068200  0.524000  1.0
  C  C1138  1  0.495800  0.519800  0.451600  1.0
  C  C1139  1  0.544200  0.495800  0.976000  1.0
  C  C1140  1  0.068200  0.544200  0.048400  1.0
  C  C1141  1  0.955800  0.431800  0.451600  1.0
  C  C1142  1  0.004200  0.955800  0.524000  1.0
  C  C1143  1  0.980200  0.004200  0.048400  1.0
  C  C1144  1  0.431800  0.980200  0.976000  1.0
  C  C1145  1  0.480200  0.931800  0.476000  1.0
  C  C1146  1  0.504200  0.480200  0.548400  1.0
  C  C1147  1  0.455800  0.504200  0.024000  1.0
  C  C1148  1  0.931800  0.455800  0.951600  1.0
  C  C1149  1  0.044200  0.568200  0.548400  1.0
  C  C1150  1  0.995800  0.044200  0.476000  1.0
  C  C1151  1  0.019800  0.995800  0.951600  1.0
  C  C1152  1  0.568200  0.019800  0.024000  1.0
  C  C1153  1  0.516100  0.125900  0.503200  1.0
  C  C1154  1  0.512900  0.516100  0.390200  1.0
  C  C1155  1  0.622700  0.512900  0.996800  1.0
  C  C1156  1  0.125900  0.622700  0.109800  1.0
  C  C1157  1  0.877300  0.374100  0.390200  1.0
  C  C1158  1  0.987100  0.877300  0.503200  1.0
  C  C1159  1  0.983900  0.987100  0.109800  1.0
  C  C1160  1  0.374100  0.983900  0.996800  1.0
  C  C1161  1  0.483900  0.874100  0.496800  1.0
  C  C1162  1  0.487100  0.483900  0.609800  1.0
  C  C1163  1  0.377300  0.487100  0.003200  1.0
  C  C1164  1  0.874100  0.377300  0.890200  1.0
  C  C1165  1  0.122700  0.625900  0.609800  1.0
  C  C1166  1  0.012900  0.122700  0.496800  1.0
  C  C1167  1  0.016100  0.012900  0.890200  1.0
  C  C1168  1  0.625900  0.016100  0.003200  1.0
  C  C1169  1  0.612200  0.231600  0.611800  1.0
  C  C1170  1  0.500400  0.612200  0.380600  1.0
  C  C1171  1  0.619800  0.500400  0.888200  1.0
  C  C1172  1  0.231600  0.619800  0.119400  1.0
  C  C1173  1  0.880200  0.268400  0.380600  1.0
  C  C1174  1  0.999600  0.880200  0.611800  1.0
  C  C1175  1  0.887800  0.999600  0.119400  1.0
  C  C1176  1  0.268400  0.887800  0.888200  1.0
  C  C1177  1  0.387800  0.768400  0.388200  1.0
  C  C1178  1  0.499600  0.387800  0.619400  1.0
  C  C1179  1  0.380200  0.499600  0.111800  1.0
  C  C1180  1  0.768400  0.380200  0.880600  1.0
  C  C1181  1  0.119800  0.731600  0.619400  1.0
  C  C1182  1  0.000400  0.119800  0.388200  1.0
  C  C1183  1  0.112200  0.000400  0.880600  1.0
  C  C1184  1  0.731600  0.112200  0.111800  1.0
  C  C1185  1  0.606200  0.265900  0.607900  1.0
  C  C1186  1  0.498300  0.606200  0.340300  1.0
  C  C1187  1  0.658000  0.498300  0.892100  1.0
  C  C1188  1  0.265900  0.658000  0.159700  1.0
  C  C1189  1  0.842000  0.234100  0.340300  1.0
  C  C1190  1  0.001700  0.842000  0.607900  1.0
  C  C1191  1  0.893800  0.001700  0.159700  1.0
  C  C1192  1  0.234100  0.893800  0.892100  1.0
  C  C1193  1  0.393800  0.734100  0.392100  1.0
  C  C1194  1  0.501700  0.393800  0.659700  1.0
  C  C1195  1  0.342000  0.501700  0.107900  1.0
  C  C1196  1  0.734100  0.342000  0.840300  1.0
  C  C1197  1  0.158000  0.765900  0.659700  1.0
  C  C1198  1  0.998300  0.158000  0.392100  1.0
  C  C1199  1  0.106200  0.998300  0.840300  1.0
  C  C1200  1  0.765900  0.106200  0.107900  1.0
  C  C1201  1  0.570200  0.255100  0.570700  1.0
  C  C1202  1  0.499500  0.570200  0.315100  1.0
  C  C1203  1  0.684400  0.499500  0.929300  1.0
  C  C1204  1  0.255100  0.684400  0.184900  1.0
  C  C1205  1  0.815600  0.244900  0.315100  1.0
  C  C1206  1  0.000500  0.815600  0.570700  1.0
  C  C1207  1  0.929800  0.000500  0.184900  1.0
  C  C1208  1  0.244900  0.929800  0.929300  1.0
  C  C1209  1  0.429800  0.744900  0.429300  1.0
  C  C1210  1  0.500500  0.429800  0.684900  1.0
  C  C1211  1  0.315600  0.500500  0.070700  1.0
  C  C1212  1  0.744900  0.315600  0.815100  1.0
  C  C1213  1  0.184400  0.755100  0.684900  1.0
  C  C1214  1  0.999500  0.184400  0.429300  1.0
  C  C1215  1  0.070200  0.999500  0.815100  1.0
  C  C1216  1  0.755100  0.070200  0.070700  1.0
  C  C1217  1  0.539900  0.209700  0.537200  1.0
  C  C1218  1  0.502700  0.539900  0.330200  1.0
  C  C1219  1  0.672500  0.502700  0.962800  1.0
  C  C1220  1  0.209700  0.672500  0.169800  1.0
  C  C1221  1  0.827500  0.290300  0.330200  1.0
  C  C1222  1  0.997300  0.827500  0.537200  1.0
  C  C1223  1  0.960100  0.997300  0.169800  1.0
  C  C1224  1  0.290300  0.960100  0.962800  1.0
  C  C1225  1  0.460100  0.790300  0.462800  1.0
  C  C1226  1  0.497300  0.460100  0.669800  1.0
  C  C1227  1  0.327500  0.497300  0.037200  1.0
  C  C1228  1  0.790300  0.327500  0.830200  1.0
  C  C1229  1  0.172500  0.709700  0.669800  1.0
  C  C1230  1  0.002700  0.172500  0.462800  1.0
  C  C1231  1  0.039900  0.002700  0.830200  1.0
  C  C1232  1  0.709700  0.039900  0.037200  1.0
  C  C1233  1  0.545900  0.175440  0.541140  1.0
  C  C1234  1  0.504760  0.545900  0.370460  1.0
  C  C1235  1  0.634300  0.504760  0.958860  1.0
  C  C1236  1  0.175440  0.634300  0.129540  1.0
  C  C1237  1  0.865700  0.324560  0.370460  1.0
  C  C1238  1  0.995240  0.865700  0.541140  1.0
  C  C1239  1  0.954100  0.995240  0.129540  1.0
  C  C1240  1  0.324560  0.954100  0.958860  1.0
  C  C1241  1  0.454100  0.824560  0.458860  1.0
  C  C1242  1  0.495240  0.454100  0.629540  1.0
  C  C1243  1  0.365700  0.495240  0.041140  1.0
  C  C1244  1  0.824560  0.365700  0.870460  1.0
  C  C1245  1  0.134300  0.675440  0.629540  1.0
  C  C1246  1  0.004760  0.134300  0.458860  1.0
  C  C1247  1  0.045900  0.004760  0.870460  1.0
  C  C1248  1  0.675440  0.045900  0.041140  1.0
  C  C1249  1  0.582000  0.186300  0.578300  1.0
  C  C1250  1  0.503700  0.582000  0.395700  1.0
  C  C1251  1  0.608000  0.503700  0.921700  1.0
  C  C1252  1  0.186300  0.608000  0.104300  1.0
  C  C1253  1  0.892000  0.313700  0.395700  1.0
  C  C1254  1  0.996300  0.892000  0.578300  1.0
  C  C1255  1  0.918000  0.996300  0.104300  1.0
  C  C1256  1  0.313700  0.918000  0.921700  1.0
  C  C1257  1  0.418000  0.813700  0.421700  1.0
  C  C1258  1  0.496300  0.418000  0.604300  1.0
  C  C1259  1  0.392000  0.496300  0.078300  1.0
  C  C1260  1  0.813700  0.392000  0.895700  1.0
  C  C1261  1  0.108000  0.686300  0.604300  1.0
  C  C1262  1  0.003700  0.108000  0.421700  1.0
  C  C1263  1  0.082000  0.003700  0.895700  1.0
  C  C1264  1  0.686300  0.082000  0.078300  1.0
  Co  Co1265  1  0.651410  0.342480  0.533610  1.0
  Co  Co1266  1  0.617800  0.651410  0.308930  1.0
  Co  Co1267  1  0.808870  0.617800  0.966390  1.0
  Co  Co1268  1  0.342480  0.808870  0.191070  1.0
  Co  Co1269  1  0.691130  0.157520  0.308930  1.0
  Co  Co1270  1  0.882200  0.691130  0.533610  1.0
  Co  Co1271  1  0.848590  0.882200  0.191070  1.0
  Co  Co1272  1  0.157520  0.848590  0.966390  1.0
  Co  Co1273  1  0.348590  0.657520  0.466390  1.0
  Co  Co1274  1  0.382200  0.348590  0.691070  1.0
  Co  Co1275  1  0.191130  0.382200  0.033610  1.0
  Co  Co1276  1  0.657520  0.191130  0.808930  1.0
  Co  Co1277  1  0.308870  0.842480  0.691070  1.0
  Co  Co1278  1  0.117800  0.308870  0.466390  1.0
  Co  Co1279  1  0.151410  0.117800  0.808930  1.0
  Co  Co1280  1  0.842480  0.151410  0.033610  1.0
  Co  Co1281  1  0.607780  0.599300  0.678260  1.0
  Co  Co1282  1  0.429520  0.607780  0.008480  1.0
  Co  Co1283  1  0.921040  0.429520  0.821740  1.0
  Co  Co1284  1  0.599300  0.921040  0.491520  1.0
  Co  Co1285  1  0.578960  0.900700  0.008480  1.0
  Co  Co1286  1  0.070480  0.578960  0.678260  1.0
  Co  Co1287  1  0.892220  0.070480  0.491520  1.0
  Co  Co1288  1  0.900700  0.892220  0.821740  1.0
  Co  Co1289  1  0.392220  0.400700  0.321740  1.0
  Co  Co1290  1  0.570480  0.392220  0.991520  1.0
  Co  Co1291  1  0.078960  0.570480  0.178260  1.0
  Co  Co1292  1  0.400700  0.078960  0.508480  1.0
  Co  Co1293  1  0.421040  0.099300  0.991520  1.0
  Co  Co1294  1  0.929520  0.421040  0.321740  1.0
  Co  Co1295  1  0.107780  0.929520  0.508480  1.0
  Co  Co1296  1  0.099300  0.107780  0.178260  1.0
  F  F1297  1  0.613400  0.555200  0.456000  1
  F  F1298  1  0.657400  0.613400  0.058200  1
  F  F1299  1  0.099200  0.657400  0.044000  1
  F  F1300  1  0.555200  0.099200  0.441800  1
  F  F1301  1  0.400800  0.944800  0.058200  1
  F  F1302  1  0.842600  0.400800  0.456000  1
  F  F1303  1  0.886600  0.842600  0.441800  1
  F  F1304  1  0.944800  0.886600  0.044000  1
  F  F1305  1  0.386600  0.444800  0.544000  1
  F  F1306  1  0.342600  0.386600  0.941800  1
  F  F1307  1  0.900800  0.342600  0.956000  1
  F  F1308  1  0.444800  0.900800  0.558200  1
  F  F1309  1  0.599200  0.055200  0.941800  1
  F  F1310  1  0.157400  0.599200  0.544000  1
  F  F1311  1  0.113400  0.157400  0.558200  1
  F  F1312  1  0.055200  0.113400  0.956000  1
  F  F1313  1  0.658200  0.534900  0.486700  1
  F  F1314  1  0.671500  0.658200  0.123300  1
  F  F1315  1  0.048200  0.671500  0.013300  1
  F  F1316  1  0.534900  0.048200  0.376700  1
  F  F1317  1  0.451800  0.965100  0.123300  1
  F  F1318  1  0.828500  0.451800  0.486700  1
  F  F1319  1  0.841800  0.828500  0.376700  1
  F  F1320  1  0.965100  0.841800  0.013300  1
  F  F1321  1  0.341800  0.465100  0.513300  1
  F  F1322  1  0.328500  0.341800  0.876700  1
  F  F1323  1  0.951800  0.328500  0.986700  1
  F  F1324  1  0.465100  0.951800  0.623300  1
  F  F1325  1  0.548200  0.034900  0.876700  1
  F  F1326  1  0.171500  0.548200  0.513300  1
  F  F1327  1  0.158200  0.171500  0.623300  1
  F  F1328  1  0.034900  0.158200  0.986700  1
  F  F1329  1  0.583100  0.494100  0.466200  1
  F  F1330  1  0.616900  0.583100  0.089000  1
  F  F1331  1  0.027900  0.616900  0.033800  1
  F  F1332  1  0.494100  0.027900  0.411000  1
  F  F1333  1  0.472100  0.005900  0.089000  1
  F  F1334  1  0.883100  0.472100  0.466200  1
  F  F1335  1  0.916900  0.883100  0.411000  1
  F  F1336  1  0.005900  0.916900  0.033800  1
  F  F1337  1  0.416900  0.505900  0.533800  1
  F  F1338  1  0.383100  0.416900  0.911000  1
  F  F1339  1  0.972100  0.383100  0.966200  1
  F  F1340  1  0.505900  0.972100  0.589000  1
  F  F1341  1  0.527900  0.994100  0.911000  1
  F  F1342  1  0.116900  0.527900  0.533800  1
  F  F1343  1  0.083100  0.116900  0.589000  1
  F  F1344  1  0.994100  0.083100  0.966200  1
  F  F1345  1  0.605600  0.490000  0.415000  1
  F  F1346  1  0.690600  0.605600  0.115600  1
  F  F1347  1  0.075000  0.690600  0.085000  1
  F  F1348  1  0.490000  0.075000  0.384400  1
  F  F1349  1  0.425000  0.010000  0.115600  1
  F  F1350  1  0.809400  0.425000  0.415000  1
  F  F1351  1  0.894400  0.809400  0.384400  1
  F  F1352  1  0.010000  0.894400  0.085000  1
  F  F1353  1  0.394400  0.510000  0.585000  1
  F  F1354  1  0.309400  0.394400  0.884400  1
  F  F1355  1  0.925000  0.309400  0.915000  1
  F  F1356  1  0.510000  0.925000  0.615600  1
  F  F1357  1  0.575000  0.990000  0.884400  1
  F  F1358  1  0.190600  0.575000  0.585000  1
  F  F1359  1  0.105600  0.190600  0.615600  1
  F  F1360  1  0.990000  0.105600  0.915000  1
  F  F1361  1  0.672200  0.163200  0.635600  1
  F  F1362  1  0.536600  0.672200  0.509000  1
  F  F1363  1  0.527600  0.536600  0.864400  1
  F  F1364  1  0.163200  0.527600  0.991000  1
  F  F1365  1  0.972400  0.336800  0.509000  1
  F  F1366  1  0.963400  0.972400  0.635600  1
  F  F1367  1  0.827800  0.963400  0.991000  1
  F  F1368  1  0.336800  0.827800  0.864400  1
  F  F1369  1  0.327800  0.836800  0.364400  1
  F  F1370  1  0.463400  0.327800  0.491000  1
  F  F1371  1  0.472400  0.463400  0.135600  1
  F  F1372  1  0.836800  0.472400  0.009000  1
  F  F1373  1  0.027600  0.663200  0.491000  1
  F  F1374  1  0.036600  0.027600  0.364400  1
  F  F1375  1  0.172200  0.036600  0.009000  1
  F  F1376  1  0.663200  0.172200  0.135600  1
  F  F1377  1  0.682400  0.139800  0.684600  1
  F  F1378  1  0.497800  0.682400  0.542600  1
  F  F1379  1  0.455200  0.497800  0.815400  1
  F  F1380  1  0.139800  0.455200  0.957400  1
  F  F1381  1  0.044800  0.360200  0.542600  1
  F  F1382  1  0.002200  0.044800  0.684600  1
  F  F1383  1  0.817600  0.002200  0.957400  1
  F  F1384  1  0.360200  0.817600  0.815400  1
  F  F1385  1  0.317600  0.860200  0.315400  1
  F  F1386  1  0.502200  0.317600  0.457400  1
  F  F1387  1  0.544800  0.502200  0.184600  1
  F  F1388  1  0.860200  0.544800  0.042600  1
  F  F1389  1  0.955200  0.639800  0.457400  1
  F  F1390  1  0.997800  0.955200  0.315400  1
  F  F1391  1  0.182400  0.997800  0.042600  1
  F  F1392  1  0.639800  0.182400  0.184600  1
  F  F1393  1  0.740300  0.176600  0.673300  1
  F  F1394  1  0.567000  0.740300  0.563700  1
  F  F1395  1  0.503300  0.567000  0.826700  1
  F  F1396  1  0.176600  0.503300  0.936300  1
  F  F1397  1  0.996700  0.323400  0.563700  1
  F  F1398  1  0.933000  0.996700  0.673300  1
  F  F1399  1  0.759700  0.933000  0.936300  1
  F  F1400  1  0.323400  0.759700  0.826700  1
  F  F1401  1  0.259700  0.823400  0.326700  1
  F  F1402  1  0.433000  0.259700  0.436300  1
  F  F1403  1  0.496700  0.433000  0.173300  1
  F  F1404  1  0.823400  0.496700  0.063700  1
  F  F1405  1  0.003300  0.676600  0.436300  1
  F  F1406  1  0.067000  0.003300  0.326700  1
  F  F1407  1  0.240300  0.067000  0.063700  1
  F  F1408  1  0.676600  0.240300  0.173300  1
  F  F1409  1  0.715500  0.213800  0.705100  1
  F  F1410  1  0.510400  0.715500  0.501700  1
  F  F1411  1  0.508700  0.510400  0.794900  1
  F  F1412  1  0.213800  0.508700  0.998300  1
  F  F1413  1  0.991300  0.286200  0.501700  1
  F  F1414  1  0.989600  0.991300  0.705100  1
  F  F1415  1  0.784500  0.989600  0.998300  1
  F  F1416  1  0.286200  0.784500  0.794900  1
  F  F1417  1  0.284500  0.786200  0.294900  1
  F  F1418  1  0.489600  0.284500  0.498300  1
  F  F1419  1  0.491300  0.489600  0.205100  1
  F  F1420  1  0.786200  0.491300  0.001700  1
  F  F1421  1  0.008700  0.713800  0.498300  1
  F  F1422  1  0.010400  0.008700  0.294900  1
  F  F1423  1  0.215500  0.010400  0.001700  1
  F  F1424  1  0.713800  0.215500  0.205100  1
  F  F1425  1  0.356700  0.068700  0.657600  1
  F  F1426  1  0.199100  0.356700  0.288000  1
  F  F1427  1  0.411100  0.199100  0.842400  1
  F  F1428  1  0.068700  0.411100  0.212000  1
  F  F1429  1  0.088900  0.431300  0.288000  1
  F  F1430  1  0.300900  0.088900  0.657600  1
  F  F1431  1  0.143300  0.300900  0.212000  1
  F  F1432  1  0.431300  0.143300  0.842400  1
  F  F1433  1  0.643300  0.931300  0.342400  1
  F  F1434  1  0.800900  0.643300  0.712000  1
  F  F1435  1  0.588900  0.800900  0.157600  1
  F  F1436  1  0.931300  0.588900  0.788000  1
  F  F1437  1  0.911100  0.568700  0.712000  1
  F  F1438  1  0.699100  0.911100  0.342400  1
  F  F1439  1  0.856700  0.699100  0.788000  1
  F  F1440  1  0.568700  0.856700  0.157600  1
  F  F1441  1  0.296700  0.046700  0.593400  1
  F  F1442  1  0.203300  0.296700  0.250000  1
  F  F1443  1  0.453300  0.203300  0.906600  1
  F  F1444  1  0.046700  0.453300  0.250000  1
  F  F1445  1  0.703300  0.953300  0.406600  1
  F  F1446  1  0.796700  0.703300  0.750000  1
  F  F1447  1  0.546700  0.796700  0.093400  1
  F  F1448  1  0.953300  0.546700  0.750000  1
  F  F1449  1  0.365200  0.103200  0.656000  1
  F  F1450  1  0.209200  0.365200  0.262000  1
  F  F1451  1  0.447200  0.209200  0.844000  1
  F  F1452  1  0.103200  0.447200  0.238000  1
  F  F1453  1  0.052800  0.396800  0.262000  1
  F  F1454  1  0.290800  0.052800  0.656000  1
  F  F1455  1  0.134800  0.290800  0.238000  1
  F  F1456  1  0.396800  0.134800  0.844000  1
  F  F1457  1  0.634800  0.896800  0.344000  1
  F  F1458  1  0.790800  0.634800  0.738000  1
  F  F1459  1  0.552800  0.790800  0.156000  1
  F  F1460  1  0.896800  0.552800  0.762000  1
  F  F1461  1  0.947200  0.603200  0.738000  1
  F  F1462  1  0.709200  0.947200  0.344000  1
  F  F1463  1  0.865200  0.709200  0.762000  1
  F  F1464  1  0.603200  0.865200  0.156000  1
  F  F1465  1  0.329500  0.039000  0.649700  1
  F  F1466  1  0.179800  0.329500  0.290500  1
  F  F1467  1  0.389300  0.179800  0.850300  1
  F  F1468  1  0.039000  0.389300  0.209500  1
  F  F1469  1  0.110700  0.461000  0.290500  1
  F  F1470  1  0.320200  0.110700  0.649700  1
  F  F1471  1  0.170500  0.320200  0.209500  1
  F  F1472  1  0.461000  0.170500  0.850300  1
  F  F1473  1  0.670500  0.961000  0.350300  1
  F  F1474  1  0.820200  0.670500  0.709500  1
  F  F1475  1  0.610700  0.820200  0.149700  1
  F  F1476  1  0.961000  0.610700  0.790500  1
  F  F1477  1  0.889300  0.539000  0.709500  1
  F  F1478  1  0.679800  0.889300  0.350300  1
  F  F1479  1  0.829500  0.679800  0.790500  1
  F  F1480  1  0.539000  0.829500  0.149700  1
  F  F1481  1  0.744000  0.278900  0.516700  1.0
  F  F1482  1  0.727300  0.744000  0.465100  1.0
  F  F1483  1  0.762200  0.727300  0.983300  1.0
  F  F1484  1  0.278900  0.762200  0.034900  1.0
  F  F1485  1  0.737800  0.221100  0.465100  1.0
  F  F1486  1  0.772700  0.737800  0.516700  1.0
  F  F1487  1  0.756000  0.772700  0.034900  1.0
  F  F1488  1  0.221100  0.756000  0.983300  1.0
  F  F1489  1  0.256000  0.721100  0.483300  1.0
  F  F1490  1  0.272700  0.256000  0.534900  1.0
  F  F1491  1  0.237800  0.272700  0.016700  1.0
  F  F1492  1  0.721100  0.237800  0.965100  1.0
  F  F1493  1  0.262200  0.778900  0.534900  1.0
  F  F1494  1  0.227300  0.262200  0.483300  1.0
  F  F1495  1  0.244000  0.227300  0.965100  1.0
  F  F1496  1  0.778900  0.244000  0.016700  1.0
  F  F1497  1  0.805800  0.276600  0.525600  1.0
  F  F1498  1  0.780200  0.805800  0.529200  1.0
  F  F1499  1  0.751000  0.780200  0.974400  1.0
  F  F1500  1  0.276600  0.751000  0.970800  1.0
  F  F1501  1  0.749000  0.223400  0.529200  1.0
  F  F1502  1  0.719800  0.749000  0.525600  1.0
  F  F1503  1  0.694200  0.719800  0.970800  1.0
  F  F1504  1  0.223400  0.694200  0.974400  1.0
  F  F1505  1  0.194200  0.723400  0.474400  1.0
  F  F1506  1  0.219800  0.194200  0.470800  1.0
  F  F1507  1  0.249000  0.219800  0.025600  1.0
  F  F1508  1  0.723400  0.249000  0.029200  1.0
  F  F1509  1  0.251000  0.776600  0.470800  1.0
  F  F1510  1  0.280200  0.251000  0.474400  1.0
  F  F1511  1  0.305800  0.280200  0.029200  1.0
  F  F1512  1  0.776600  0.305800  0.025600  1.0
  F  F1513  1  0.610500  0.481300  0.758200  1.0
  F  F1514  1  0.352300  0.610500  0.129200  1.0
  F  F1515  1  0.723100  0.352300  0.741800  1.0
  F  F1516  1  0.481300  0.723100  0.370800  1.0
  F  F1517  1  0.776900  0.018700  0.129200  1.0
  F  F1518  1  0.147700  0.776900  0.758200  1.0
  F  F1519  1  0.889500  0.147700  0.370800  1.0
  F  F1520  1  0.018700  0.889500  0.741800  1.0
  F  F1521  1  0.389500  0.518700  0.241800  1.0
  F  F1522  1  0.647700  0.389500  0.870800  1.0
  F  F1523  1  0.276900  0.647700  0.258200  1.0
  F  F1524  1  0.518700  0.276900  0.629200  1.0
  F  F1525  1  0.223100  0.981300  0.870800  1.0
  F  F1526  1  0.852300  0.223100  0.241800  1.0
  F  F1527  1  0.110500  0.852300  0.629200  1.0
  F  F1528  1  0.981300  0.110500  0.258200  1.0
  F  F1529  1  0.633700  0.442200  0.788100  1.0
  F  F1530  1  0.345600  0.633700  0.191500  1.0
  F  F1531  1  0.654100  0.345600  0.711900  1.0
  F  F1532  1  0.442200  0.654100  0.308500  1.0
  F  F1533  1  0.845900  0.057800  0.191500  1.0
  F  F1534  1  0.154400  0.845900  0.788100  1.0
  F  F1535  1  0.866300  0.154400  0.308500  1.0
  F  F1536  1  0.057800  0.866300  0.711900  1.0
  F  F1537  1  0.366300  0.557800  0.211900  1.0
  F  F1538  1  0.654400  0.366300  0.808500  1.0
  F  F1539  1  0.345900  0.654400  0.288100  1.0
  F  F1540  1  0.557800  0.345900  0.691500  1.0
  F  F1541  1  0.154100  0.942200  0.808500  1.0
  F  F1542  1  0.845600  0.154100  0.211900  1.0
  F  F1543  1  0.133700  0.845600  0.691500  1.0
  F  F1544  1  0.942200  0.133700  0.288100  1.0
  F  F1545  1  0.662600  0.468600  0.748400  1.0
  F  F1546  1  0.414200  0.662600  0.194000  1.0
  F  F1547  1  0.720200  0.414200  0.751600  1.0
  F  F1548  1  0.468600  0.720200  0.306000  1.0
  F  F1549  1  0.779800  0.031400  0.194000  1.0
  F  F1550  1  0.085800  0.779800  0.748400  1.0
  F  F1551  1  0.837400  0.085800  0.306000  1.0
  F  F1552  1  0.031400  0.837400  0.751600  1.0
  F  F1553  1  0.337400  0.531400  0.251600  1.0
  F  F1554  1  0.585800  0.337400  0.806000  1.0
  F  F1555  1  0.279800  0.585800  0.248400  1.0
  F  F1556  1  0.531400  0.279800  0.694000  1.0
  F  F1557  1  0.220200  0.968600  0.806000  1.0
  F  F1558  1  0.914200  0.220200  0.251600  1.0
  F  F1559  1  0.162600  0.914200  0.694000  1.0
  F  F1560  1  0.968600  0.162600  0.248400  1.0
  F  F1561  1  0.679500  0.518700  0.811800  1.0
  F  F1562  1  0.367700  0.679500  0.160800  1.0
  F  F1563  1  0.706900  0.367700  0.688200  1.0
  F  F1564  1  0.518700  0.706900  0.339200  1.0
  F  F1565  1  0.793100  0.981300  0.160800  1.0
  F  F1566  1  0.132300  0.793100  0.811800  1.0
  F  F1567  1  0.820500  0.132300  0.339200  1.0
  F  F1568  1  0.981300  0.820500  0.688200  1.0
  F  F1569  1  0.320500  0.481300  0.188200  1.0
  F  F1570  1  0.632300  0.320500  0.839200  1.0
  F  F1571  1  0.293100  0.632300  0.311800  1.0
  F  F1572  1  0.481300  0.293100  0.660800  1.0
  F  F1573  1  0.206900  0.018700  0.839200  1.0
  F  F1574  1  0.867700  0.206900  0.188200  1.0
  F  F1575  1  0.179500  0.867700  0.660800  1.0
  F  F1576  1  0.018700  0.179500  0.311800  1.0
  H  H1577  1  0.367000  0.877300  0.567900  1
  H  H1578  1  0.299100  0.367000  0.489700  1
  H  H1579  1  0.309400  0.299100  0.932100  1
  H  H1580  1  0.877300  0.309400  0.010300  1
  H  H1581  1  0.190600  0.622700  0.489700  1
  H  H1582  1  0.200900  0.190600  0.567900  1
  H  H1583  1  0.133000  0.200900  0.010300  1
  H  H1584  1  0.622700  0.133000  0.932100  1
  H  H1585  1  0.633000  0.122700  0.432100  1
  H  H1586  1  0.700900  0.633000  0.510300  1
  H  H1587  1  0.690600  0.700900  0.067900  1
  H  H1588  1  0.122700  0.690600  0.989700  1
  H  H1589  1  0.809400  0.377300  0.510300  1
  H  H1590  1  0.799100  0.809400  0.432100  1
  H  H1591  1  0.867000  0.799100  0.989700  1
  H  H1592  1  0.377300  0.867000  0.067900  1
  H  H1593  1  0.333000  0.843300  0.516700  1
  H  H1594  1  0.316300  0.333000  0.489700  1
  H  H1595  1  0.326600  0.316300  0.983300  1
  H  H1596  1  0.843300  0.326600  0.010300  1
  H  H1597  1  0.173400  0.656700  0.489700  1
  H  H1598  1  0.183700  0.173400  0.516700  1
  H  H1599  1  0.167000  0.183700  0.010300  1
  H  H1600  1  0.656700  0.167000  0.983300  1
  H  H1601  1  0.667000  0.156700  0.483300  1
  H  H1602  1  0.683700  0.667000  0.510300  1
  H  H1603  1  0.673400  0.683700  0.016700  1
  H  H1604  1  0.156700  0.673400  0.989700  1
  H  H1605  1  0.826600  0.343300  0.510300  1
  H  H1606  1  0.816300  0.826600  0.483300  1
  H  H1607  1  0.833000  0.816300  0.989700  1
  H  H1608  1  0.343300  0.833000  0.016700  1
  H  H1609  1  0.370100  0.896300  0.533600  1
  H  H1610  1  0.336500  0.370100  0.473800  1
  H  H1611  1  0.362700  0.336500  0.966400  1
  H  H1612  1  0.896300  0.362700  0.026200  1
  H  H1613  1  0.137300  0.603700  0.473800  1
  H  H1614  1  0.163500  0.137300  0.533600  1
  H  H1615  1  0.129900  0.163500  0.026200  1
  H  H1616  1  0.603700  0.129900  0.966400  1
  H  H1617  1  0.629900  0.103700  0.466400  1
  H  H1618  1  0.663500  0.629900  0.526200  1
  H  H1619  1  0.637300  0.663500  0.033600  1
  H  H1620  1  0.103700  0.637300  0.973800  1
  H  H1621  1  0.862700  0.396300  0.526200  1
  H  H1622  1  0.836500  0.862700  0.466400  1
  H  H1623  1  0.870100  0.836500  0.973800  1
  H  H1624  1  0.396300  0.870100  0.033600  1
  H  H1625  1  0.780300  0.473500  0.540600  1.0
  H  H1626  1  0.739700  0.780300  0.306800  1.0
  H  H1627  1  0.932900  0.739700  0.959400  1.0
  H  H1628  1  0.473500  0.932900  0.193200  1.0
  H  H1629  1  0.567100  0.026500  0.306800  1.0
  H  H1630  1  0.760300  0.567100  0.540600  1.0
  H  H1631  1  0.719700  0.760300  0.193200  1.0
  H  H1632  1  0.026500  0.719700  0.959400  1.0
  H  H1633  1  0.219700  0.526500  0.459400  1.0
  H  H1634  1  0.260300  0.219700  0.693200  1.0
  H  H1635  1  0.067100  0.260300  0.040600  1.0
  H  H1636  1  0.526500  0.067100  0.806800  1.0
  H  H1637  1  0.432900  0.973500  0.693200  1.0
  H  H1638  1  0.239700  0.432900  0.459400  1.0
  H  H1639  1  0.280300  0.239700  0.806800  1.0
  H  H1640  1  0.973500  0.280300  0.040600  1.0
  H  H1641  1  0.818500  0.514900  0.538600  1.0
  H  H1642  1  0.779900  0.818500  0.303600  1.0
  H  H1643  1  0.976300  0.779900  0.961400  1.0
  H  H1644  1  0.514900  0.976300  0.196400  1.0
  H  H1645  1  0.523700  0.985100  0.303600  1.0
  H  H1646  1  0.720100  0.523700  0.538600  1.0
  H  H1647  1  0.681500  0.720100  0.196400  1.0
  H  H1648  1  0.985100  0.681500  0.961400  1.0
  H  H1649  1  0.181500  0.485100  0.461400  1.0
  H  H1650  1  0.220100  0.181500  0.696400  1.0
  H  H1651  1  0.023700  0.220100  0.038600  1.0
  H  H1652  1  0.485100  0.023700  0.803600  1.0
  H  H1653  1  0.476300  0.014900  0.696400  1.0
  H  H1654  1  0.279900  0.476300  0.461400  1.0
  H  H1655  1  0.318500  0.279900  0.803600  1.0
  H  H1656  1  0.014900  0.318500  0.038600  1.0
  H  H1657  1  0.770500  0.484100  0.469000  1.0
  H  H1658  1  0.801500  0.770500  0.286400  1.0
  H  H1659  1  0.015100  0.801500  0.031000  1.0
  H  H1660  1  0.484100  0.015100  0.213600  1.0
  H  H1661  1  0.484900  0.015900  0.286400  1.0
  H  H1662  1  0.698500  0.484900  0.469000  1.0
  H  H1663  1  0.729500  0.698500  0.213600  1.0
  H  H1664  1  0.015900  0.729500  0.031000  1.0
  H  H1665  1  0.229500  0.515900  0.531000  1.0
  H  H1666  1  0.198500  0.229500  0.713600  1.0
  H  H1667  1  0.984900  0.198500  0.969000  1.0
  H  H1668  1  0.515900  0.984900  0.786400  1.0
  H  H1669  1  0.515100  0.984100  0.713600  1.0
  H  H1670  1  0.301500  0.515100  0.531000  1.0
  H  H1671  1  0.270500  0.301500  0.786400  1.0
  H  H1672  1  0.984100  0.270500  0.969000  1.0
  H  H1673  1  0.729800  0.446900  0.472900  1.0
  H  H1674  1  0.756900  0.729800  0.282900  1.0
  H  H1675  1  0.974000  0.756900  0.027100  1.0
  H  H1676  1  0.446900  0.974000  0.217100  1.0
  H  H1677  1  0.526000  0.053100  0.282900  1.0
  H  H1678  1  0.743100  0.526000  0.472900  1.0
  H  H1679  1  0.770200  0.743100  0.217100  1.0
  H  H1680  1  0.053100  0.770200  0.027100  1.0
  H  H1681  1  0.270200  0.553100  0.527100  1.0
  H  H1682  1  0.243100  0.270200  0.717100  1.0
  H  H1683  1  0.026000  0.243100  0.972900  1.0
  H  H1684  1  0.553100  0.026000  0.782900  1.0
  H  H1685  1  0.474000  0.946900  0.717100  1.0
  H  H1686  1  0.256900  0.474000  0.527100  1.0
  H  H1687  1  0.229800  0.256900  0.782900  1.0
  H  H1688  1  0.946900  0.229800  0.972900  1.0
  H  H1689  1  0.670000  0.374000  0.410600  1.0
  H  H1690  1  0.759400  0.670000  0.296000  1.0
  H  H1691  1  0.963400  0.759400  0.089400  1.0
  H  H1692  1  0.374000  0.963400  0.204000  1.0
  H  H1693  1  0.536600  0.126000  0.296000  1.0
  H  H1694  1  0.740600  0.536600  0.410600  1.0
  H  H1695  1  0.830000  0.740600  0.204000  1.0
  H  H1696  1  0.126000  0.830000  0.089400  1.0
  H  H1697  1  0.330000  0.626000  0.589400  1.0
  H  H1698  1  0.240600  0.330000  0.704000  1.0
  H  H1699  1  0.036600  0.240600  0.910600  1.0
  H  H1700  1  0.626000  0.036600  0.796000  1.0
  H  H1701  1  0.463400  0.874000  0.704000  1.0
  H  H1702  1  0.259400  0.463400  0.589400  1.0
  H  H1703  1  0.170000  0.259400  0.796000  1.0
  H  H1704  1  0.874000  0.170000  0.910600  1.0
  H  H1705  1  0.708100  0.337400  0.397300  1.0
  H  H1706  1  0.810800  0.708100  0.370700  1.0
  H  H1707  1  0.940100  0.810800  0.102700  1.0
  H  H1708  1  0.337400  0.940100  0.129300  1.0
  H  H1709  1  0.559900  0.162600  0.370700  1.0
  H  H1710  1  0.689200  0.559900  0.397300  1.0
  H  H1711  1  0.791900  0.689200  0.129300  1.0
  H  H1712  1  0.162600  0.791900  0.102700  1.0
  H  H1713  1  0.291900  0.662600  0.602700  1.0
  H  H1714  1  0.189200  0.291900  0.629300  1.0
  H  H1715  1  0.059900  0.189200  0.897300  1.0
  H  H1716  1  0.662600  0.059900  0.870700  1.0
  H  H1717  1  0.440100  0.837400  0.629300  1.0
  H  H1718  1  0.310800  0.440100  0.602700  1.0
  H  H1719  1  0.208100  0.310800  0.870700  1.0
  H  H1720  1  0.837400  0.208100  0.897300  1.0
  H  H1721  1  0.725200  0.302900  0.439100  1.0
  H  H1722  1  0.786100  0.725200  0.422300  1.0
  H  H1723  1  0.863800  0.786100  0.060900  1.0
  H  H1724  1  0.302900  0.863800  0.077700  1.0
  H  H1725  1  0.636200  0.197100  0.422300  1.0
  H  H1726  1  0.713900  0.636200  0.439100  1.0
  H  H1727  1  0.774800  0.713900  0.077700  1.0
  H  H1728  1  0.197100  0.774800  0.060900  1.0
  H  H1729  1  0.274800  0.697100  0.560900  1.0
  H  H1730  1  0.213900  0.274800  0.577700  1.0
  H  H1731  1  0.136200  0.213900  0.939100  1.0
  H  H1732  1  0.697100  0.136200  0.922300  1.0
  H  H1733  1  0.363800  0.802900  0.577700  1.0
  H  H1734  1  0.286100  0.363800  0.560900  1.0
  H  H1735  1  0.225200  0.286100  0.922300  1.0
  H  H1736  1  0.802900  0.225200  0.939100  1.0
  H  H1737  1  0.704300  0.305200  0.494500  1.0
  H  H1738  1  0.709800  0.704300  0.399100  1.0
  H  H1739  1  0.810700  0.709800  0.005500  1.0
  H  H1740  1  0.305200  0.810700  0.100900  1.0
  H  H1741  1  0.689300  0.194800  0.399100  1.0
  H  H1742  1  0.790200  0.689300  0.494500  1.0
  H  H1743  1  0.795700  0.790200  0.100900  1.0
  H  H1744  1  0.194800  0.795700  0.005500  1.0
  H  H1745  1  0.295700  0.694800  0.505500  1.0
  H  H1746  1  0.290200  0.295700  0.600900  1.0
  H  H1747  1  0.189300  0.290200  0.994500  1.0
  H  H1748  1  0.694800  0.189300  0.899100  1.0
  H  H1749  1  0.310700  0.805200  0.600900  1.0
  H  H1750  1  0.209800  0.310700  0.505500  1.0
  H  H1751  1  0.204300  0.209800  0.899100  1.0
  H  H1752  1  0.805200  0.204300  0.994500  1.0
  H  H1753  1  0.625500  0.408100  0.428200  1.0
  H  H1754  1  0.697300  0.625500  0.217400  1.0
  H  H1755  1  0.979900  0.697300  0.071800  1.0
  H  H1756  1  0.408100  0.979900  0.282600  1.0
  H  H1757  1  0.520100  0.091900  0.217400  1.0
  H  H1758  1  0.802700  0.520100  0.428200  1.0
  H  H1759  1  0.874500  0.802700  0.282600  1.0
  H  H1760  1  0.091900  0.874500  0.071800  1.0
  H  H1761  1  0.374500  0.591900  0.571800  1.0
  H  H1762  1  0.302700  0.374500  0.782600  1.0
  H  H1763  1  0.020100  0.302700  0.928200  1.0
  H  H1764  1  0.591900  0.020100  0.717400  1.0
  H  H1765  1  0.479900  0.908100  0.782600  1.0
  H  H1766  1  0.197300  0.479900  0.571800  1.0
  H  H1767  1  0.125500  0.197300  0.717400  1.0
  H  H1768  1  0.908100  0.125500  0.928200  1.0
  H  H1769  1  0.587200  0.431900  0.469700  1.0
  H  H1770  1  0.617500  0.587200  0.155300  1.0
  H  H1771  1  0.962200  0.617500  0.030300  1.0
  H  H1772  1  0.431900  0.962200  0.344700  1.0
  H  H1773  1  0.537800  0.068100  0.155300  1.0
  H  H1774  1  0.882500  0.537800  0.469700  1.0
  H  H1775  1  0.912800  0.882500  0.344700  1.0
  H  H1776  1  0.068100  0.912800  0.030300  1.0
  H  H1777  1  0.412800  0.568100  0.530300  1.0
  H  H1778  1  0.382500  0.412800  0.844700  1.0
  H  H1779  1  0.037800  0.382500  0.969700  1.0
  H  H1780  1  0.568100  0.037800  0.655300  1.0
  H  H1781  1  0.462200  0.931900  0.844700  1.0
  H  H1782  1  0.117500  0.462200  0.530300  1.0
  H  H1783  1  0.087200  0.117500  0.655300  1.0
  H  H1784  1  0.931900  0.087200  0.969700  1.0
  H  H1785  1  0.585500  0.381300  0.546400  1.0
  H  H1786  1  0.539100  0.585500  0.204200  1.0
  H  H1787  1  0.834900  0.539100  0.953600  1.0
  H  H1788  1  0.381300  0.834900  0.295800  1.0
  H  H1789  1  0.665100  0.118700  0.204200  1.0
  H  H1790  1  0.960900  0.665100  0.546400  1.0
  H  H1791  1  0.914500  0.960900  0.295800  1.0
  H  H1792  1  0.118700  0.914500  0.953600  1.0
  H  H1793  1  0.414500  0.618700  0.453600  1.0
  H  H1794  1  0.460900  0.414500  0.795800  1.0
  H  H1795  1  0.165100  0.460900  0.046400  1.0
  H  H1796  1  0.618700  0.165100  0.704200  1.0
  H  H1797  1  0.334900  0.881300  0.795800  1.0
  H  H1798  1  0.039100  0.334900  0.453600  1.0
  H  H1799  1  0.085500  0.039100  0.704200  1.0
  H  H1800  1  0.881300  0.085500  0.046400  1.0
  H  H1801  1  0.561500  0.404400  0.526900  1.0
  H  H1802  1  0.534600  0.561500  0.157100  1.0
  H  H1803  1  0.877500  0.534600  0.973100  1.0
  H  H1804  1  0.404400  0.877500  0.342900  1.0
  H  H1805  1  0.622500  0.095600  0.157100  1.0
  H  H1806  1  0.965400  0.622500  0.526900  1.0
  H  H1807  1  0.938500  0.965400  0.342900  1.0
  H  H1808  1  0.095600  0.938500  0.973100  1.0
  H  H1809  1  0.438500  0.595600  0.473100  1.0
  H  H1810  1  0.465400  0.438500  0.842900  1.0
  H  H1811  1  0.122500  0.465400  0.026900  1.0
  H  H1812  1  0.595600  0.122500  0.657100  1.0
  H  H1813  1  0.377500  0.904400  0.842900  1.0
  H  H1814  1  0.034600  0.377500  0.473100  1.0
  H  H1815  1  0.061500  0.034600  0.657100  1.0
  H  H1816  1  0.904400  0.061500  0.026900  1.0
  H  H1817  1  0.751400  0.716700  0.822900  1.0
  H  H1818  1  0.428500  0.751400  0.034700  1.0
  H  H1819  1  0.893800  0.428500  0.677100  1.0
  H  H1820  1  0.716700  0.893800  0.465300  1.0
  H  H1821  1  0.606200  0.783300  0.034700  1.0
  H  H1822  1  0.071500  0.606200  0.822900  1.0
  H  H1823  1  0.748600  0.071500  0.465300  1.0
  H  H1824  1  0.783300  0.748600  0.677100  1.0
  H  H1825  1  0.248600  0.283300  0.177100  1.0
  H  H1826  1  0.571500  0.248600  0.965300  1.0
  H  H1827  1  0.106200  0.571500  0.322900  1.0
  H  H1828  1  0.283300  0.106200  0.534700  1.0
  H  H1829  1  0.393800  0.216700  0.965300  1.0
  H  H1830  1  0.928500  0.393800  0.177100  1.0
  H  H1831  1  0.251400  0.928500  0.534700  1.0
  H  H1832  1  0.216700  0.251400  0.322900  1.0
  H  H1833  1  0.749100  0.781700  0.830400  1.0
  H  H1834  1  0.418700  0.749100  0.967400  1.0
  H  H1835  1  0.951300  0.418700  0.669600  1.0
  H  H1836  1  0.781700  0.951300  0.532600  1.0
  H  H1837  1  0.548700  0.718300  0.967400  1.0
  H  H1838  1  0.081300  0.548700  0.830400  1.0
  H  H1839  1  0.750900  0.081300  0.532600  1.0
  H  H1840  1  0.718300  0.750900  0.669600  1.0
  H  H1841  1  0.250900  0.218300  0.169600  1.0
  H  H1842  1  0.581300  0.250900  0.032600  1.0
  H  H1843  1  0.048700  0.581300  0.330400  1.0
  H  H1844  1  0.218300  0.048700  0.467400  1.0
  H  H1845  1  0.451300  0.281700  0.032600  1.0
  H  H1846  1  0.918700  0.451300  0.169600  1.0
  H  H1847  1  0.249100  0.918700  0.467400  1.0
  H  H1848  1  0.281700  0.249100  0.330400  1.0
  H  H1849  1  0.689500  0.775400  0.776100  1.0
  H  H1850  1  0.413400  0.689500  0.914100  1.0
  H  H1851  1  0.999300  0.413400  0.723900  1.0
  H  H1852  1  0.775400  0.999300  0.585900  1.0
  H  H1853  1  0.500700  0.724600  0.914100  1.0
  H  H1854  1  0.086600  0.500700  0.776100  1.0
  H  H1855  1  0.810500  0.086600  0.585900  1.0
  H  H1856  1  0.724600  0.810500  0.723900  1.0
  H  H1857  1  0.310500  0.224600  0.223900  1.0
  H  H1858  1  0.586600  0.310500  0.085900  1.0
  H  H1859  1  0.000700  0.586600  0.276100  1.0
  H  H1860  1  0.224600  0.000700  0.414100  1.0
  H  H1861  1  0.499300  0.275400  0.085900  1.0
  H  H1862  1  0.913400  0.499300  0.223900  1.0
  H  H1863  1  0.189500  0.913400  0.414100  1.0
  H  H1864  1  0.275400  0.189500  0.276100  1.0
  H  H1865  1  0.632100  0.704000  0.714300  1.0
  H  H1866  1  0.417800  0.632100  0.928100  1.0
  H  H1867  1  0.989700  0.417800  0.785700  1.0
  H  H1868  1  0.704000  0.989700  0.571900  1.0
  H  H1869  1  0.510300  0.796000  0.928100  1.0
  H  H1870  1  0.082200  0.510300  0.714300  1.0
  H  H1871  1  0.867900  0.082200  0.571900  1.0
  H  H1872  1  0.796000  0.867900  0.785700  1.0
  H  H1873  1  0.367900  0.296000  0.285700  1.0
  H  H1874  1  0.582200  0.367900  0.071900  1.0
  H  H1875  1  0.010300  0.582200  0.214300  1.0
  H  H1876  1  0.296000  0.010300  0.428100  1.0
  H  H1877  1  0.489700  0.204000  0.071900  1.0
  H  H1878  1  0.917800  0.489700  0.285700  1.0
  H  H1879  1  0.132100  0.917800  0.428100  1.0
  H  H1880  1  0.204000  0.132100  0.214300  1.0
  H  H1881  1  0.749300  0.642900  0.806800  1.0
  H  H1882  1  0.442500  0.749300  0.106400  1.0
  H  H1883  1  0.836100  0.442500  0.693200  1.0
  H  H1884  1  0.642900  0.836100  0.393600  1.0
  H  H1885  1  0.663900  0.857100  0.106400  1.0
  H  H1886  1  0.057500  0.663900  0.806800  1.0
  H  H1887  1  0.750700  0.057500  0.393600  1.0
  H  H1888  1  0.857100  0.750700  0.693200  1.0
  H  H1889  1  0.250700  0.357100  0.193200  1.0
  H  H1890  1  0.557500  0.250700  0.893600  1.0
  H  H1891  1  0.163900  0.557500  0.306800  1.0
  H  H1892  1  0.357100  0.163900  0.606400  1.0
  H  H1893  1  0.336100  0.142900  0.893600  1.0
  H  H1894  1  0.942500  0.336100  0.193200  1.0
  H  H1895  1  0.249300  0.942500  0.606400  1.0
  H  H1896  1  0.142900  0.249300  0.306800  1.0
  H  H1897  1  0.712100  0.556700  0.765600  1.0
  H  H1898  1  0.446500  0.712100  0.155400  1.0
  H  H1899  1  0.791100  0.446500  0.734400  1.0
  H  H1900  1  0.556700  0.791100  0.344600  1.0
  H  H1901  1  0.708900  0.943300  0.155400  1.0
  H  H1902  1  0.053500  0.708900  0.765600  1.0
  H  H1903  1  0.787900  0.053500  0.344600  1.0
  H  H1904  1  0.943300  0.787900  0.734400  1.0
  H  H1905  1  0.287900  0.443300  0.234400  1.0
  H  H1906  1  0.553500  0.287900  0.844600  1.0
  H  H1907  1  0.208900  0.553500  0.265600  1.0
  H  H1908  1  0.443300  0.208900  0.655400  1.0
  H  H1909  1  0.291100  0.056700  0.844600  1.0
  H  H1910  1  0.946500  0.291100  0.234400  1.0
  H  H1911  1  0.212100  0.946500  0.655400  1.0
  H  H1912  1  0.056700  0.212100  0.265600  1.0
  H  H1913  1  0.597100  0.501800  0.671900  1.0
  H  H1914  1  0.425200  0.597100  0.095300  1.0
  H  H1915  1  0.829900  0.425200  0.828100  1.0
  H  H1916  1  0.501800  0.829900  0.404700  1.0
  H  H1917  1  0.670100  0.998200  0.095300  1.0
  H  H1918  1  0.074800  0.670100  0.671900  1.0
  H  H1919  1  0.902900  0.074800  0.404700  1.0
  H  H1920  1  0.998200  0.902900  0.828100  1.0
  H  H1921  1  0.402900  0.498200  0.328100  1.0
  H  H1922  1  0.574800  0.402900  0.904700  1.0
  H  H1923  1  0.170100  0.574800  0.171900  1.0
  H  H1924  1  0.498200  0.170100  0.595300  1.0
  H  H1925  1  0.329900  0.001800  0.904700  1.0
  H  H1926  1  0.925200  0.329900  0.328100  1.0
  H  H1927  1  0.097100  0.925200  0.595300  1.0
  H  H1928  1  0.001800  0.097100  0.171900  1.0
  H  H1929  1  0.628400  0.487500  0.696900  1.0
  H  H1930  1  0.431500  0.628400  0.140900  1.0
  H  H1931  1  0.790600  0.431500  0.803100  1.0
  H  H1932  1  0.487500  0.790600  0.359100  1.0
  H  H1933  1  0.709400  0.012500  0.140900  1.0
  H  H1934  1  0.068500  0.709400  0.696900  1.0
  H  H1935  1  0.871600  0.068500  0.359100  1.0
  H  H1936  1  0.012500  0.871600  0.803100  1.0
  H  H1937  1  0.371600  0.512500  0.303100  1.0
  H  H1938  1  0.568500  0.371600  0.859100  1.0
  H  H1939  1  0.209400  0.568500  0.196900  1.0
  H  H1940  1  0.512500  0.209400  0.640900  1.0
  H  H1941  1  0.290600  0.987500  0.859100  1.0
  H  H1942  1  0.931500  0.290600  0.303100  1.0
  H  H1943  1  0.128400  0.931500  0.640900  1.0
  H  H1944  1  0.987500  0.128400  0.196900  1.0
  H  H1945  1  0.679400  0.475700  0.565900  1.0
  H  H1946  1  0.613500  0.679400  0.203700  1.0
  H  H1947  1  0.909800  0.613500  0.934100  1.0
  H  H1948  1  0.475700  0.909800  0.296300  1.0
  H  H1949  1  0.590200  0.024300  0.203700  1.0
  H  H1950  1  0.886500  0.590200  0.565900  1.0
  H  H1951  1  0.820600  0.886500  0.296300  1.0
  H  H1952  1  0.024300  0.820600  0.934100  1.0
  H  H1953  1  0.320600  0.524300  0.434100  1.0
  H  H1954  1  0.386500  0.320600  0.796300  1.0
  H  H1955  1  0.090200  0.386500  0.065900  1.0
  H  H1956  1  0.524300  0.090200  0.703700  1.0
  H  H1957  1  0.409800  0.975700  0.796300  1.0
  H  H1958  1  0.113500  0.409800  0.434100  1.0
  H  H1959  1  0.179400  0.113500  0.703700  1.0
  H  H1960  1  0.975700  0.179400  0.065900  1.0
  H  H1961  1  0.583400  0.442600  0.607200  1.0
  H  H1962  1  0.476200  0.583400  0.140800  1.0
  H  H1963  1  0.835400  0.476200  0.892800  1.0
  H  H1964  1  0.442600  0.835400  0.359200  1.0
  H  H1965  1  0.664600  0.057400  0.140800  1.0
  H  H1966  1  0.023800  0.664600  0.607200  1.0
  H  H1967  1  0.916600  0.023800  0.359200  1.0
  H  H1968  1  0.057400  0.916600  0.892800  1.0
  H  H1969  1  0.416600  0.557400  0.392800  1.0
  H  H1970  1  0.523800  0.416600  0.859200  1.0
  H  H1971  1  0.164600  0.523800  0.107200  1.0
  H  H1972  1  0.557400  0.164600  0.640800  1.0
  H  H1973  1  0.335400  0.942600  0.859200  1.0
  H  H1974  1  0.976200  0.335400  0.392800  1.0
  H  H1975  1  0.083400  0.976200  0.640800  1.0
  H  H1976  1  0.942600  0.083400  0.107200  1.0
  H  H1977  1  0.709700  0.560900  0.686400  1.0
  H  H1978  1  0.523300  0.709700  0.148800  1.0
  H  H1979  1  0.874500  0.523300  0.813600  1.0
  H  H1980  1  0.560900  0.874500  0.351200  1.0
  H  H1981  1  0.625500  0.939100  0.148800  1.0
  H  H1982  1  0.976700  0.625500  0.686400  1.0
  H  H1983  1  0.790300  0.976700  0.351200  1.0
  H  H1984  1  0.939100  0.790300  0.813600  1.0
  H  H1985  1  0.290300  0.439100  0.313600  1.0
  H  H1986  1  0.476700  0.290300  0.851200  1.0
  H  H1987  1  0.125500  0.476700  0.186400  1.0
  H  H1988  1  0.439100  0.125500  0.648800  1.0
  H  H1989  1  0.374500  0.060900  0.851200  1.0
  H  H1990  1  0.023300  0.374500  0.313600  1.0
  H  H1991  1  0.209700  0.023300  0.648800  1.0
  H  H1992  1  0.060900  0.209700  0.186400  1.0
  H  H1993  1  0.753100  0.545900  0.613800  1.0
  H  H1994  1  0.639300  0.753100  0.207200  1.0
  H  H1995  1  0.932100  0.639300  0.886200  1.0
  H  H1996  1  0.545900  0.932100  0.292800  1.0
  H  H1997  1  0.567900  0.954100  0.207200  1.0
  H  H1998  1  0.860700  0.567900  0.613800  1.0
  H  H1999  1  0.746900  0.860700  0.292800  1.0
  H  H2000  1  0.954100  0.746900  0.886200  1.0
  H  H2001  1  0.246900  0.454100  0.386200  1.0
  H  H2002  1  0.360700  0.246900  0.792800  1.0
  H  H2003  1  0.067900  0.360700  0.113800  1.0
  H  H2004  1  0.454100  0.067900  0.707200  1.0
  H  H2005  1  0.432100  0.045900  0.792800  1.0
  H  H2006  1  0.139300  0.432100  0.386200  1.0
  H  H2007  1  0.253100  0.139300  0.707200  1.0
  H  H2008  1  0.045900  0.253100  0.113800  1.0
  H  H2009  1  0.765000  0.578300  0.659300  1.0
  H  H2010  1  0.605700  0.765000  0.186700  1.0
  H  H2011  1  0.919000  0.605700  0.840700  1.0
  H  H2012  1  0.578300  0.919000  0.313300  1.0
  H  H2013  1  0.581000  0.921700  0.186700  1.0
  H  H2014  1  0.894300  0.581000  0.659300  1.0
  H  H2015  1  0.735000  0.894300  0.313300  1.0
  H  H2016  1  0.921700  0.735000  0.840700  1.0
  H  H2017  1  0.235000  0.421700  0.340700  1.0
  H  H2018  1  0.394300  0.235000  0.813300  1.0
  H  H2019  1  0.081000  0.394300  0.159300  1.0
  H  H2020  1  0.421700  0.081000  0.686700  1.0
  H  H2021  1  0.419000  0.078300  0.813300  1.0
  H  H2022  1  0.105700  0.419000  0.340700  1.0
  H  H2023  1  0.265000  0.105700  0.686700  1.0
  H  H2024  1  0.078300  0.265000  0.159300  1.0
  H  H2025  1  0.557800  0.169100  0.445700  1.0
  H  H2026  1  0.612100  0.557800  0.388700  1.0
  H  H2027  1  0.723400  0.612100  0.054300  1.0
  H  H2028  1  0.169100  0.723400  0.111300  1.0
  H  H2029  1  0.776600  0.330900  0.388700  1.0
  H  H2030  1  0.887900  0.776600  0.445700  1.0
  H  H2031  1  0.942200  0.887900  0.111300  1.0
  H  H2032  1  0.330900  0.942200  0.054300  1.0
  H  H2033  1  0.442200  0.830900  0.554300  1.0
  H  H2034  1  0.387900  0.442200  0.611300  1.0
  H  H2035  1  0.276600  0.387900  0.945700  1.0
  H  H2036  1  0.830900  0.276600  0.888700  1.0
  H  H2037  1  0.223400  0.669100  0.611300  1.0
  H  H2038  1  0.112100  0.223400  0.554300  1.0
  H  H2039  1  0.057800  0.112100  0.888700  1.0
  H  H2040  1  0.669100  0.057800  0.945700  1.0
  H  H2041  1  0.494000  0.158400  0.392200  1.0
  H  H2042  1  0.601800  0.494000  0.335600  1.0
  H  H2043  1  0.766200  0.601800  0.107800  1.0
  H  H2044  1  0.158400  0.766200  0.164400  1.0
  H  H2045  1  0.733800  0.341600  0.335600  1.0
  H  H2046  1  0.898200  0.733800  0.392200  1.0
  H  H2047  1  0.006000  0.898200  0.164400  1.0
  H  H2048  1  0.341600  0.006000  0.107800  1.0
  H  H2049  1  0.506000  0.841600  0.607800  1.0
  H  H2050  1  0.398200  0.506000  0.664400  1.0
  H  H2051  1  0.233800  0.398200  0.892200  1.0
  H  H2052  1  0.841600  0.233800  0.835600  1.0
  H  H2053  1  0.266200  0.658400  0.664400  1.0
  H  H2054  1  0.101800  0.266200  0.607800  1.0
  H  H2055  1  0.994000  0.101800  0.835600  1.0
  H  H2056  1  0.658400  0.994000  0.892200  1.0
  H  H2057  1  0.490100  0.221900  0.395400  1.0
  H  H2058  1  0.594700  0.490100  0.268200  1.0
  H  H2059  1  0.826500  0.594700  0.104600  1.0
  H  H2060  1  0.221900  0.826500  0.231800  1.0
  H  H2061  1  0.673500  0.278100  0.268200  1.0
  H  H2062  1  0.905300  0.673500  0.395400  1.0
  H  H2063  1  0.009900  0.905300  0.231800  1.0
  H  H2064  1  0.278100  0.009900  0.104600  1.0
  H  H2065  1  0.509900  0.778100  0.604600  1.0
  H  H2066  1  0.405300  0.509900  0.731800  1.0
  H  H2067  1  0.173500  0.405300  0.895400  1.0
  H  H2068  1  0.778100  0.173500  0.768200  1.0
  H  H2069  1  0.326500  0.721900  0.731800  1.0
  H  H2070  1  0.094700  0.326500  0.604600  1.0
  H  H2071  1  0.990100  0.094700  0.768200  1.0
  H  H2072  1  0.721900  0.990100  0.895400  1.0
  H  H2073  1  0.549800  0.295900  0.451900  1.0
  H  H2074  1  0.597900  0.549800  0.253900  1.0
  H  H2075  1  0.844000  0.597900  0.048100  1.0
  H  H2076  1  0.295900  0.844000  0.246100  1.0
  H  H2077  1  0.656000  0.204100  0.253900  1.0
  H  H2078  1  0.902100  0.656000  0.451900  1.0
  H  H2079  1  0.950200  0.902100  0.246100  1.0
  H  H2080  1  0.204100  0.950200  0.048100  1.0
  H  H2081  1  0.450200  0.704100  0.548100  1.0
  H  H2082  1  0.402100  0.450200  0.746100  1.0
  H  H2083  1  0.156000  0.402100  0.951900  1.0
  H  H2084  1  0.704100  0.156000  0.753900  1.0
  H  H2085  1  0.344000  0.795900  0.746100  1.0
  H  H2086  1  0.097900  0.344000  0.548100  1.0
  H  H2087  1  0.049800  0.097900  0.753900  1.0
  H  H2088  1  0.795900  0.049800  0.951900  1.0
  H  H2089  1  0.623700  0.186400  0.510100  1.0
  H  H2090  1  0.613600  0.623700  0.437300  1.0
  H  H2091  1  0.676300  0.613600  0.989900  1.0
  H  H2092  1  0.186400  0.676300  0.062700  1.0
  H  H2093  1  0.823700  0.313600  0.437300  1.0
  H  H2094  1  0.886400  0.823700  0.510100  1.0
  H  H2095  1  0.876300  0.886400  0.062700  1.0
  H  H2096  1  0.313600  0.876300  0.989900  1.0
  H  H2097  1  0.376300  0.813600  0.489900  1.0
  H  H2098  1  0.386400  0.376300  0.562700  1.0
  H  H2099  1  0.323700  0.386400  0.010100  1.0
  H  H2100  1  0.813600  0.323700  0.937300  1.0
  H  H2101  1  0.176300  0.686400  0.562700  1.0
  H  H2102  1  0.113600  0.176300  0.489900  1.0
  H  H2103  1  0.123700  0.113600  0.937300  1.0
  H  H2104  1  0.686400  0.123700  0.010100  1.0
  H  H2105  1  0.700100  0.237600  0.579900  1.0
  H  H2106  1  0.620200  0.700100  0.462500  1.0
  H  H2107  1  0.657700  0.620200  0.920100  1.0
  H  H2108  1  0.237600  0.657700  0.037500  1.0
  H  H2109  1  0.842300  0.262400  0.462500  1.0
  H  H2110  1  0.879800  0.842300  0.579900  1.0
  H  H2111  1  0.799900  0.879800  0.037500  1.0
  H  H2112  1  0.262400  0.799900  0.920100  1.0
  H  H2113  1  0.299900  0.762400  0.420100  1.0
  H  H2114  1  0.379800  0.299900  0.537500  1.0
  H  H2115  1  0.342300  0.379800  0.079900  1.0
  H  H2116  1  0.762400  0.342300  0.962500  1.0
  H  H2117  1  0.157700  0.737600  0.537500  1.0
  H  H2118  1  0.120200  0.157700  0.420100  1.0
  H  H2119  1  0.200100  0.120200  0.962500  1.0
  H  H2120  1  0.737600  0.200100  0.079900  1.0
  H  H2121  1  0.729900  0.352600  0.631100  1.0
  H  H2122  1  0.598800  0.729900  0.377300  1.0
  H  H2123  1  0.721500  0.598800  0.868900  1.0
  H  H2124  1  0.352600  0.721500  0.122700  1.0
  H  H2125  1  0.778500  0.147400  0.377300  1.0
  H  H2126  1  0.901200  0.778500  0.631100  1.0
  H  H2127  1  0.770100  0.901200  0.122700  1.0
  H  H2128  1  0.147400  0.770100  0.868900  1.0
  H  H2129  1  0.270100  0.647400  0.368900  1.0
  H  H2130  1  0.401200  0.270100  0.622700  1.0
  H  H2131  1  0.278500  0.401200  0.131100  1.0
  H  H2132  1  0.647400  0.278500  0.877300  1.0
  H  H2133  1  0.221500  0.852600  0.622700  1.0
  H  H2134  1  0.098800  0.221500  0.368900  1.0
  H  H2135  1  0.229900  0.098800  0.877300  1.0
  H  H2136  1  0.852600  0.229900  0.131100  1.0
  H  H2137  1  0.754000  0.356600  0.600400  1.0
  H  H2138  1  0.653600  0.754000  0.397400  1.0
  H  H2139  1  0.756200  0.653600  0.899600  1.0
  H  H2140  1  0.356600  0.756200  0.102600  1.0
  H  H2141  1  0.743800  0.143400  0.397400  1.0
  H  H2142  1  0.846400  0.743800  0.600400  1.0
  H  H2143  1  0.746000  0.846400  0.102600  1.0
  H  H2144  1  0.143400  0.746000  0.899600  1.0
  H  H2145  1  0.246000  0.643400  0.399600  1.0
  H  H2146  1  0.346400  0.246000  0.602600  1.0
  H  H2147  1  0.243800  0.346400  0.100400  1.0
  H  H2148  1  0.643400  0.243800  0.897400  1.0
  H  H2149  1  0.256200  0.856600  0.602600  1.0
  H  H2150  1  0.153600  0.256200  0.399600  1.0
  H  H2151  1  0.254000  0.153600  0.897400  1.0
  H  H2152  1  0.856600  0.254000  0.100400  1.0
  H  H2153  1  0.983900  0.335000  0.852700  1.0
  H  H2154  1  0.631200  0.983900  0.648900  1.0
  H  H2155  1  0.482300  0.631200  0.647300  1.0
  H  H2156  1  0.335000  0.482300  0.851100  1.0
  H  H2157  1  0.017700  0.165000  0.648900  1.0
  H  H2158  1  0.868800  0.017700  0.852700  1.0
  H  H2159  1  0.516100  0.868800  0.851100  1.0
  H  H2160  1  0.165000  0.516100  0.647300  1.0
  H  H2161  1  0.016100  0.665000  0.147300  1.0
  H  H2162  1  0.368800  0.016100  0.351100  1.0
  H  H2163  1  0.517700  0.368800  0.352700  1.0
  H  H2164  1  0.665000  0.517700  0.148900  1.0
  H  H2165  1  0.982300  0.835000  0.351100  1.0
  H  H2166  1  0.131200  0.982300  0.147300  1.0
  H  H2167  1  0.483900  0.131200  0.148900  1.0
  H  H2168  1  0.835000  0.483900  0.352700  1.0
  H  H2169  1  0.058900  0.395900  0.906400  1.0
  H  H2170  1  0.652500  0.058900  0.663000  1.0
  H  H2171  1  0.489500  0.652500  0.593600  1.0
  H  H2172  1  0.395900  0.489500  0.837000  1.0
  H  H2173  1  0.010500  0.104100  0.663000  1.0
  H  H2174  1  0.847500  0.010500  0.906400  1.0
  H  H2175  1  0.441100  0.847500  0.837000  1.0
  H  H2176  1  0.104100  0.441100  0.593600  1.0
  H  H2177  1  0.941100  0.604100  0.093600  1.0
  H  H2178  1  0.347500  0.941100  0.337000  1.0
  H  H2179  1  0.510500  0.347500  0.406400  1.0
  H  H2180  1  0.604100  0.510500  0.163000  1.0
  H  H2181  1  0.989500  0.895900  0.337000  1.0
  H  H2182  1  0.152500  0.989500  0.093600  1.0
  H  H2183  1  0.558900  0.152500  0.163000  1.0
  H  H2184  1  0.895900  0.558900  0.406400  1.0
  H  H2185  1  0.080400  0.472100  0.927300  1.0
  H  H2186  1  0.653100  0.080400  0.608300  1.0
  H  H2187  1  0.544800  0.653100  0.572700  1.0
  H  H2188  1  0.472100  0.544800  0.891700  1.0
  H  H2189  1  0.955200  0.027900  0.608300  1.0
  H  H2190  1  0.846900  0.955200  0.927300  1.0
  H  H2191  1  0.419600  0.846900  0.891700  1.0
  H  H2192  1  0.027900  0.419600  0.572700  1.0
  H  H2193  1  0.919600  0.527900  0.072700  1.0
  H  H2194  1  0.346900  0.919600  0.391700  1.0
  H  H2195  1  0.455200  0.346900  0.427300  1.0
  H  H2196  1  0.527900  0.455200  0.108300  1.0
  H  H2197  1  0.044800  0.972100  0.391700  1.0
  H  H2198  1  0.153100  0.044800  0.072700  1.0
  H  H2199  1  0.580400  0.153100  0.108300  1.0
  H  H2200  1  0.972100  0.580400  0.427300  1.0
  H  H2201  1  0.026800  0.487400  0.894400  1.0
  H  H2202  1  0.632400  0.026800  0.539400  1.0
  H  H2203  1  0.593000  0.632400  0.605600  1.0
  H  H2204  1  0.487400  0.593000  0.960600  1.0
  H  H2205  1  0.907000  0.012600  0.539400  1.0
  H  H2206  1  0.867600  0.907000  0.894400  1.0
  H  H2207  1  0.473200  0.867600  0.960600  1.0
  H  H2208  1  0.012600  0.473200  0.605600  1.0
  H  H2209  1  0.973200  0.512600  0.105600  1.0
  H  H2210  1  0.367600  0.973200  0.460600  1.0
  H  H2211  1  0.407000  0.367600  0.394400  1.0
  H  H2212  1  0.512600  0.407000  0.039400  1.0
  H  H2213  1  0.093000  0.987400  0.460600  1.0
  H  H2214  1  0.132400  0.093000  0.105600  1.0
  H  H2215  1  0.526800  0.132400  0.039400  1.0
  H  H2216  1  0.987400  0.526800  0.394400  1.0
  H  H2217  1  0.899800  0.273000  0.792200  1.0
  H  H2218  1  0.607600  0.899800  0.626800  1.0
  H  H2219  1  0.480800  0.607600  0.707800  1.0
  H  H2220  1  0.273000  0.480800  0.873200  1.0
  H  H2221  1  0.019200  0.227000  0.626800  1.0
  H  H2222  1  0.892400  0.019200  0.792200  1.0
  H  H2223  1  0.600200  0.892400  0.873200  1.0
  H  H2224  1  0.227000  0.600200  0.707800  1.0
  H  H2225  1  0.100200  0.727000  0.207800  1.0
  H  H2226  1  0.392400  0.100200  0.373200  1.0
  H  H2227  1  0.519200  0.392400  0.292200  1.0
  H  H2228  1  0.727000  0.519200  0.126800  1.0
  H  H2229  1  0.980800  0.773000  0.373200  1.0
  H  H2230  1  0.107600  0.980800  0.207800  1.0
  H  H2231  1  0.399800  0.107600  0.126800  1.0
  H  H2232  1  0.773000  0.399800  0.292200  1.0
  H  H2233  1  0.818600  0.245700  0.740900  1.0
  H  H2234  1  0.577700  0.818600  0.572900  1.0
  H  H2235  1  0.504800  0.577700  0.759100  1.0
  H  H2236  1  0.245700  0.504800  0.927100  1.0
  H  H2237  1  0.995200  0.254300  0.572900  1.0
  H  H2238  1  0.922300  0.995200  0.740900  1.0
  H  H2239  1  0.681400  0.922300  0.927100  1.0
  H  H2240  1  0.254300  0.681400  0.759100  1.0
  H  H2241  1  0.181400  0.754300  0.259100  1.0
  H  H2242  1  0.422300  0.181400  0.427100  1.0
  H  H2243  1  0.495200  0.422300  0.240900  1.0
  H  H2244  1  0.754300  0.495200  0.072900  1.0
  H  H2245  1  0.004800  0.745700  0.427100  1.0
  H  H2246  1  0.077700  0.004800  0.259100  1.0
  H  H2247  1  0.318600  0.077700  0.072900  1.0
  H  H2248  1  0.745700  0.318600  0.240900  1.0
  H  H2249  1  0.810500  0.347300  0.759000  1.0
  H  H2250  1  0.551500  0.810500  0.463200  1.0
  H  H2251  1  0.588300  0.551500  0.741000  1.0
  H  H2252  1  0.347300  0.588300  0.036800  1.0
  H  H2253  1  0.911700  0.152700  0.463200  1.0
  H  H2254  1  0.948500  0.911700  0.759000  1.0
  H  H2255  1  0.689500  0.948500  0.036800  1.0
  H  H2256  1  0.152700  0.689500  0.741000  1.0
  H  H2257  1  0.189500  0.652700  0.241000  1.0
  H  H2258  1  0.448500  0.189500  0.536800  1.0
  H  H2259  1  0.411700  0.448500  0.259000  1.0
  H  H2260  1  0.652700  0.411700  0.963200  1.0
  H  H2261  1  0.088300  0.847300  0.536800  1.0
  H  H2262  1  0.051500  0.088300  0.241000  1.0
  H  H2263  1  0.310500  0.051500  0.963200  1.0
  H  H2264  1  0.847300  0.310500  0.259000  1.0
  H  H2265  1  0.777600  0.292400  0.734400  1.0
  H  H2266  1  0.543200  0.777600  0.485200  1.0
  H  H2267  1  0.558000  0.543200  0.765600  1.0
  H  H2268  1  0.292400  0.558000  0.014800  1.0
  H  H2269  1  0.942000  0.207600  0.485200  1.0
  H  H2270  1  0.956800  0.942000  0.734400  1.0
  H  H2271  1  0.722400  0.956800  0.014800  1.0
  H  H2272  1  0.207600  0.722400  0.765600  1.0
  H  H2273  1  0.222400  0.707600  0.265600  1.0
  H  H2274  1  0.456800  0.222400  0.514800  1.0
  H  H2275  1  0.442000  0.456800  0.234400  1.0
  H  H2276  1  0.707600  0.442000  0.985200  1.0
  H  H2277  1  0.058000  0.792400  0.514800  1.0
  H  H2278  1  0.043200  0.058000  0.265600  1.0
  H  H2279  1  0.277600  0.043200  0.985200  1.0
  H  H2280  1  0.792400  0.277600  0.234400  1.0
  H  H2281  1  0.797200  0.318900  0.594900  1.0
  H  H2282  1  0.702300  0.797200  0.478300  1.0
  H  H2283  1  0.724000  0.702300  0.905100  1.0
  H  H2284  1  0.318900  0.724000  0.021700  1.0
  H  H2285  1  0.776000  0.181100  0.478300  1.0
  H  H2286  1  0.797700  0.776000  0.594900  1.0
  H  H2287  1  0.702800  0.797700  0.021700  1.0
  H  H2288  1  0.181100  0.702800  0.905100  1.0
  H  H2289  1  0.202800  0.681100  0.405100  1.0
  H  H2290  1  0.297700  0.202800  0.521700  1.0
  H  H2291  1  0.276000  0.297700  0.094900  1.0
  H  H2292  1  0.681100  0.276000  0.978300  1.0
  H  H2293  1  0.224000  0.818900  0.521700  1.0
  H  H2294  1  0.202300  0.224000  0.405100  1.0
  H  H2295  1  0.297200  0.202300  0.978300  1.0
  H  H2296  1  0.818900  0.297200  0.094900  1.0
  H  H2297  1  0.754700  0.330900  0.686800  1.0
  H  H2298  1  0.567900  0.754700  0.423800  1.0
  H  H2299  1  0.644100  0.567900  0.813200  1.0
  H  H2300  1  0.330900  0.644100  0.076200  1.0
  H  H2301  1  0.855900  0.169100  0.423800  1.0
  H  H2302  1  0.932100  0.855900  0.686800  1.0
  H  H2303  1  0.745300  0.932100  0.076200  1.0
  H  H2304  1  0.169100  0.745300  0.813200  1.0
  H  H2305  1  0.245300  0.669100  0.313200  1.0
  H  H2306  1  0.432100  0.245300  0.576200  1.0
  H  H2307  1  0.355900  0.432100  0.186800  1.0
  H  H2308  1  0.669100  0.355900  0.923800  1.0
  H  H2309  1  0.144100  0.830900  0.576200  1.0
  H  H2310  1  0.067900  0.144100  0.313200  1.0
  H  H2311  1  0.254700  0.067900  0.923800  1.0
  H  H2312  1  0.830900  0.254700  0.186800  1.0
  H  H2313  1  0.854300  0.304500  0.699200  1.0
  H  H2314  1  0.655100  0.854300  0.549800  1.0
  H  H2315  1  0.605300  0.655100  0.800800  1.0
  H  H2316  1  0.304500  0.605300  0.950200  1.0
  H  H2317  1  0.894700  0.195500  0.549800  1.0
  H  H2318  1  0.844900  0.894700  0.699200  1.0
  H  H2319  1  0.645700  0.844900  0.950200  1.0
  H  H2320  1  0.195500  0.645700  0.800800  1.0
  H  H2321  1  0.145700  0.695500  0.300800  1.0
  H  H2322  1  0.344900  0.145700  0.450200  1.0
  H  H2323  1  0.394700  0.344900  0.199200  1.0
  H  H2324  1  0.695500  0.394700  0.049800  1.0
  H  H2325  1  0.105300  0.804500  0.450200  1.0
  H  H2326  1  0.155100  0.105300  0.300800  1.0
  H  H2327  1  0.354300  0.155100  0.049800  1.0
  H  H2328  1  0.804500  0.354300  0.199200  1.0
  H  H2329  1  0.854500  0.302400  0.601900  1.0
  H  H2330  1  0.752600  0.854500  0.552100  1.0
  H  H2331  1  0.700500  0.752600  0.898100  1.0
  H  H2332  1  0.302400  0.700500  0.947900  1.0
  H  H2333  1  0.799500  0.197600  0.552100  1.0
  H  H2334  1  0.747400  0.799500  0.601900  1.0
  H  H2335  1  0.645500  0.747400  0.947900  1.0
  H  H2336  1  0.197600  0.645500  0.898100  1.0
  H  H2337  1  0.145500  0.697600  0.398100  1.0
  H  H2338  1  0.247400  0.145500  0.447900  1.0
  H  H2339  1  0.299500  0.247400  0.101900  1.0
  H  H2340  1  0.697600  0.299500  0.052100  1.0
  H  H2341  1  0.200500  0.802400  0.447900  1.0
  H  H2342  1  0.252600  0.200500  0.398100  1.0
  H  H2343  1  0.354500  0.252600  0.052100  1.0
  H  H2344  1  0.802400  0.354500  0.101900  1.0
  H  H2345  1  0.877400  0.297000  0.640600  1.0
  H  H2346  1  0.736800  0.877400  0.580400  1.0
  H  H2347  1  0.656400  0.736800  0.859400  1.0
  H  H2348  1  0.297000  0.656400  0.919600  1.0
  H  H2349  1  0.843600  0.203000  0.580400  1.0
  H  H2350  1  0.763200  0.843600  0.640600  1.0
  H  H2351  1  0.622600  0.763200  0.919600  1.0
  H  H2352  1  0.203000  0.622600  0.859400  1.0
  H  H2353  1  0.122600  0.703000  0.359400  1.0
  H  H2354  1  0.263200  0.122600  0.419600  1.0
  H  H2355  1  0.343600  0.263200  0.140600  1.0
  H  H2356  1  0.703000  0.343600  0.080400  1.0
  H  H2357  1  0.156400  0.797000  0.419600  1.0
  H  H2358  1  0.236800  0.156400  0.359400  1.0
  H  H2359  1  0.377400  0.236800  0.080400  1.0
  H  H2360  1  0.797000  0.377400  0.140600  1.0
  H  H2361  1  0.747300  0.476900  0.685600  1.0
  H  H2362  1  0.561700  0.747300  0.270400  1.0
  H  H2363  1  0.791300  0.561700  0.814400  1.0
  H  H2364  1  0.476900  0.791300  0.229600  1.0
  H  H2365  1  0.708700  0.023100  0.270400  1.0
  H  H2366  1  0.938300  0.708700  0.685600  1.0
  H  H2367  1  0.752700  0.938300  0.229600  1.0
  H  H2368  1  0.023100  0.752700  0.814400  1.0
  H  H2369  1  0.252700  0.523100  0.314400  1.0
  H  H2370  1  0.438300  0.252700  0.729600  1.0
  H  H2371  1  0.208700  0.438300  0.185600  1.0
  H  H2372  1  0.523100  0.208700  0.770400  1.0
  H  H2373  1  0.291300  0.976900  0.729600  1.0
  H  H2374  1  0.061700  0.291300  0.314400  1.0
  H  H2375  1  0.247300  0.061700  0.770400  1.0
  H  H2376  1  0.976900  0.247300  0.185600  1.0
  H  H2377  1  0.815800  0.515300  0.682700  1.0
  H  H2378  1  0.633100  0.815800  0.300500  1.0
  H  H2379  1  0.832600  0.633100  0.817300  1.0
  H  H2380  1  0.515300  0.832600  0.199500  1.0
  H  H2381  1  0.667400  0.984700  0.300500  1.0
  H  H2382  1  0.866900  0.667400  0.682700  1.0
  H  H2383  1  0.684200  0.866900  0.199500  1.0
  H  H2384  1  0.984700  0.684200  0.817300  1.0
  H  H2385  1  0.184200  0.484700  0.317300  1.0
  H  H2386  1  0.366900  0.184200  0.699500  1.0
  H  H2387  1  0.167400  0.366900  0.182700  1.0
  H  H2388  1  0.484700  0.167400  0.800500  1.0
  H  H2389  1  0.332600  0.015300  0.699500  1.0
  H  H2390  1  0.133100  0.332600  0.317300  1.0
  H  H2391  1  0.315800  0.133100  0.800500  1.0
  H  H2392  1  0.015300  0.315800  0.182700  1.0
  H  H2393  1  0.819900  0.485800  0.618700  1.0
  H  H2394  1  0.701200  0.819900  0.334100  1.0
  H  H2395  1  0.867100  0.701200  0.881300  1.0
  H  H2396  1  0.485800  0.867100  0.165900  1.0
  H  H2397  1  0.632900  0.014200  0.334100  1.0
  H  H2398  1  0.798800  0.632900  0.618700  1.0
  H  H2399  1  0.680100  0.798800  0.165900  1.0
  H  H2400  1  0.014200  0.680100  0.881300  1.0
  H  H2401  1  0.180100  0.514200  0.381300  1.0
  H  H2402  1  0.298800  0.180100  0.665900  1.0
  H  H2403  1  0.132900  0.298800  0.118700  1.0
  H  H2404  1  0.514200  0.132900  0.834100  1.0
  H  H2405  1  0.367100  0.985800  0.665900  1.0
  H  H2406  1  0.201200  0.367100  0.381300  1.0
  H  H2407  1  0.319900  0.201200  0.834100  1.0
  H  H2408  1  0.985800  0.319900  0.118700  1.0
  H  H2409  1  0.755400  0.417600  0.557400  1.0
  H  H2410  1  0.698000  0.755400  0.337800  1.0
  H  H2411  1  0.860200  0.698000  0.942600  1.0
  H  H2412  1  0.417600  0.860200  0.162200  1.0
  H  H2413  1  0.639800  0.082400  0.337800  1.0
  H  H2414  1  0.802000  0.639800  0.557400  1.0
  H  H2415  1  0.744600  0.802000  0.162200  1.0
  H  H2416  1  0.082400  0.744600  0.942600  1.0
  H  H2417  1  0.244600  0.582400  0.442600  1.0
  H  H2418  1  0.302000  0.244600  0.662200  1.0
  H  H2419  1  0.139800  0.302000  0.057400  1.0
  H  H2420  1  0.582400  0.139800  0.837800  1.0
  H  H2421  1  0.360200  0.917600  0.662200  1.0
  H  H2422  1  0.198000  0.360200  0.442600  1.0
  H  H2423  1  0.255400  0.198000  0.837800  1.0
  H  H2424  1  0.917600  0.255400  0.057400  1.0
  H  H2425  1  0.669400  0.432300  0.681300  1.0
  H  H2426  1  0.488100  0.669400  0.237100  1.0
  H  H2427  1  0.751000  0.488100  0.818700  1.0
  H  H2428  1  0.432300  0.751000  0.262900  1.0
  H  H2429  1  0.749000  0.067700  0.237100  1.0
  H  H2430  1  0.011900  0.749000  0.681300  1.0
  H  H2431  1  0.830600  0.011900  0.262900  1.0
  H  H2432  1  0.067700  0.830600  0.818700  1.0
  H  H2433  1  0.330600  0.567700  0.318700  1.0
  H  H2434  1  0.511900  0.330600  0.762900  1.0
  H  H2435  1  0.249000  0.511900  0.181300  1.0
  H  H2436  1  0.567700  0.249000  0.737100  1.0
  H  H2437  1  0.251000  0.932300  0.762900  1.0
  H  H2438  1  0.988100  0.251000  0.318700  1.0
  H  H2439  1  0.169400  0.988100  0.737100  1.0
  H  H2440  1  0.932300  0.169400  0.181300  1.0
  H  H2441  1  0.588500  0.362200  0.647100  1.0
  H  H2442  1  0.441400  0.588500  0.226300  1.0
  H  H2443  1  0.715100  0.441400  0.852900  1.0
  H  H2444  1  0.362200  0.715100  0.273700  1.0
  H  H2445  1  0.784900  0.137800  0.226300  1.0
  H  H2446  1  0.058600  0.784900  0.647100  1.0
  H  H2447  1  0.911500  0.058600  0.273700  1.0
  H  H2448  1  0.137800  0.911500  0.852900  1.0
  H  H2449  1  0.411500  0.637800  0.352900  1.0
  H  H2450  1  0.558600  0.411500  0.773700  1.0
  H  H2451  1  0.284900  0.558600  0.147100  1.0
  H  H2452  1  0.637800  0.284900  0.726300  1.0
  H  H2453  1  0.215100  0.862200  0.773700  1.0
  H  H2454  1  0.941400  0.215100  0.352900  1.0
  H  H2455  1  0.088500  0.941400  0.726300  1.0
  H  H2456  1  0.862200  0.088500  0.147100  1.0
  H  H2457  1  0.550700  0.283000  0.534900  1.0
  H  H2458  1  0.515800  0.550700  0.267700  1.0
  H  H2459  1  0.748100  0.515800  0.965100  1.0
  H  H2460  1  0.283000  0.748100  0.232300  1.0
  H  H2461  1  0.751900  0.217000  0.267700  1.0
  H  H2462  1  0.984200  0.751900  0.534900  1.0
  H  H2463  1  0.949300  0.984200  0.232300  1.0
  H  H2464  1  0.217000  0.949300  0.965100  1.0
  H  H2465  1  0.449300  0.717000  0.465100  1.0
  H  H2466  1  0.484200  0.449300  0.732300  1.0
  H  H2467  1  0.251900  0.484200  0.034900  1.0
  H  H2468  1  0.717000  0.251900  0.767700  1.0
  H  H2469  1  0.248100  0.783000  0.732300  1.0
  H  H2470  1  0.015800  0.248100  0.465100  1.0
  H  H2471  1  0.050700  0.015800  0.767700  1.0
  H  H2472  1  0.783000  0.050700  0.034900  1.0
  H  H2473  1  0.534900  0.285500  0.571600  1.0
  H  H2474  1  0.463300  0.534900  0.249400  1.0
  H  H2475  1  0.713900  0.463300  0.928400  1.0
  H  H2476  1  0.285500  0.713900  0.250600  1.0
  H  H2477  1  0.786100  0.214500  0.249400  1.0
  H  H2478  1  0.036700  0.786100  0.571600  1.0
  H  H2479  1  0.965100  0.036700  0.250600  1.0
  H  H2480  1  0.214500  0.965100  0.928400  1.0
  H  H2481  1  0.465100  0.714500  0.428400  1.0
  H  H2482  1  0.536700  0.465100  0.750600  1.0
  H  H2483  1  0.286100  0.536700  0.071600  1.0
  H  H2484  1  0.714500  0.286100  0.749400  1.0
  H  H2485  1  0.213900  0.785500  0.750600  1.0
  H  H2486  1  0.963300  0.213900  0.428400  1.0
  H  H2487  1  0.034900  0.963300  0.749400  1.0
  H  H2488  1  0.785500  0.034900  0.071600  1.0
  H  H2489  1  0.456400  0.006200  0.590400  1.0
  H  H2490  1  0.366000  0.456400  0.450200  1.0
  H  H2491  1  0.415800  0.366000  0.909600  1.0
  H  H2492  1  0.006200  0.415800  0.049800  1.0
  H  H2493  1  0.084200  0.493800  0.450200  1.0
  H  H2494  1  0.134000  0.084200  0.590400  1.0
  H  H2495  1  0.043600  0.134000  0.049800  1.0
  H  H2496  1  0.493800  0.043600  0.909600  1.0
  H  H2497  1  0.543600  0.993800  0.409600  1.0
  H  H2498  1  0.634000  0.543600  0.549800  1.0
  H  H2499  1  0.584200  0.634000  0.090400  1.0
  H  H2500  1  0.993800  0.584200  0.950200  1.0
  H  H2501  1  0.915800  0.506200  0.549800  1.0
  H  H2502  1  0.866000  0.915800  0.409600  1.0
  H  H2503  1  0.956400  0.866000  0.950200  1.0
  H  H2504  1  0.506200  0.956400  0.090400  1.0
  H  H2505  1  0.398400  0.980000  0.610400  1.0
  H  H2506  1  0.288000  0.398400  0.418400  1.0
  H  H2507  1  0.369600  0.288000  0.889600  1.0
  H  H2508  1  0.980000  0.369600  0.081600  1.0
  H  H2509  1  0.130400  0.520000  0.418400  1.0
  H  H2510  1  0.212000  0.130400  0.610400  1.0
  H  H2511  1  0.101600  0.212000  0.081600  1.0
  H  H2512  1  0.520000  0.101600  0.889600  1.0
  H  H2513  1  0.601600  0.020000  0.389600  1.0
  H  H2514  1  0.712000  0.601600  0.581600  1.0
  H  H2515  1  0.630400  0.712000  0.110400  1.0
  H  H2516  1  0.020000  0.630400  0.918400  1.0
  H  H2517  1  0.869600  0.480000  0.581600  1.0
  H  H2518  1  0.788000  0.869600  0.389600  1.0
  H  H2519  1  0.898400  0.788000  0.918400  1.0
  H  H2520  1  0.480000  0.898400  0.110400  1.0
  H  H2521  1  0.338400  0.991200  0.587800  1.0
  H  H2522  1  0.250600  0.338400  0.347200  1.0
  H  H2523  1  0.403400  0.250600  0.912200  1.0
  H  H2524  1  0.991200  0.403400  0.152800  1.0
  H  H2525  1  0.096600  0.508800  0.347200  1.0
  H  H2526  1  0.249400  0.096600  0.587800  1.0
  H  H2527  1  0.161600  0.249400  0.152800  1.0
  H  H2528  1  0.508800  0.161600  0.912200  1.0
  H  H2529  1  0.661600  0.008800  0.412200  1.0
  H  H2530  1  0.749400  0.661600  0.652800  1.0
  H  H2531  1  0.596600  0.749400  0.087800  1.0
  H  H2532  1  0.008800  0.596600  0.847200  1.0
  H  H2533  1  0.903400  0.491200  0.652800  1.0
  H  H2534  1  0.750600  0.903400  0.412200  1.0
  H  H2535  1  0.838400  0.750600  0.847200  1.0
  H  H2536  1  0.491200  0.838400  0.087800  1.0
  H  H2537  1  0.336600  0.028700  0.545300  1.0
  H  H2538  1  0.291300  0.336600  0.307900  1.0
  H  H2539  1  0.483400  0.291300  0.954700  1.0
  H  H2540  1  0.028700  0.483400  0.192100  1.0
  H  H2541  1  0.016600  0.471300  0.307900  1.0
  H  H2542  1  0.208700  0.016600  0.545300  1.0
  H  H2543  1  0.163400  0.208700  0.192100  1.0
  H  H2544  1  0.471300  0.163400  0.954700  1.0
  H  H2545  1  0.663400  0.971300  0.454700  1.0
  H  H2546  1  0.708700  0.663400  0.692100  1.0
  H  H2547  1  0.516600  0.708700  0.045300  1.0
  H  H2548  1  0.971300  0.516600  0.807900  1.0
  H  H2549  1  0.983400  0.528700  0.692100  1.0
  H  H2550  1  0.791300  0.983400  0.454700  1.0
  H  H2551  1  0.836600  0.791300  0.807900  1.0
  H  H2552  1  0.528700  0.836600  0.045300  1.0
  H  H2553  1  0.504400  0.023500  0.551900  1.0
  H  H2554  1  0.452500  0.504400  0.480900  1.0
  H  H2555  1  0.471600  0.452500  0.948100  1.0
  H  H2556  1  0.023500  0.471600  0.019100  1.0
  H  H2557  1  0.028400  0.476500  0.480900  1.0
  H  H2558  1  0.047500  0.028400  0.551900  1.0
  H  H2559  1  0.995600  0.047500  0.019100  1.0
  H  H2560  1  0.476500  0.995600  0.948100  1.0
  H  H2561  1  0.495600  0.976500  0.448100  1.0
  H  H2562  1  0.547500  0.495600  0.519100  1.0
  H  H2563  1  0.528400  0.547500  0.051900  1.0
  H  H2564  1  0.976500  0.528400  0.980900  1.0
  H  H2565  1  0.971600  0.523500  0.519100  1.0
  H  H2566  1  0.952500  0.971600  0.448100  1.0
  H  H2567  1  0.004400  0.952500  0.980900  1.0
  H  H2568  1  0.523500  0.004400  0.051900  1.0
  H  H2569  1  0.543900  0.068700  0.518400  1.0
  H  H2570  1  0.525500  0.543900  0.475200  1.0
  H  H2571  1  0.550300  0.525500  0.981600  1.0
  H  H2572  1  0.068700  0.550300  0.024800  1.0
  H  H2573  1  0.949700  0.431300  0.475200  1.0
  H  H2574  1  0.974500  0.949700  0.518400  1.0
  H  H2575  1  0.956100  0.974500  0.024800  1.0
  H  H2576  1  0.431300  0.956100  0.981600  1.0
  H  H2577  1  0.456100  0.931300  0.481600  1.0
  H  H2578  1  0.474500  0.456100  0.524800  1.0
  H  H2579  1  0.449700  0.474500  0.018400  1.0
  H  H2580  1  0.931300  0.449700  0.975200  1.0
  H  H2581  1  0.050300  0.568700  0.524800  1.0
  H  H2582  1  0.025500  0.050300  0.481600  1.0
  H  H2583  1  0.043900  0.025500  0.975200  1.0
  H  H2584  1  0.568700  0.043900  0.018400  1.0
  H  H2585  1  0.489700  0.122400  0.480900  1.0
  H  H2586  1  0.508800  0.489700  0.367300  1.0
  H  H2587  1  0.641500  0.508800  0.019100  1.0
  H  H2588  1  0.122400  0.641500  0.132700  1.0
  H  H2589  1  0.858500  0.377600  0.367300  1.0
  H  H2590  1  0.991200  0.858500  0.480900  1.0
  H  H2591  1  0.010300  0.991200  0.132700  1.0
  H  H2592  1  0.377600  0.010300  0.019100  1.0
  H  H2593  1  0.510300  0.877600  0.519100  1.0
  H  H2594  1  0.491200  0.510300  0.632700  1.0
  H  H2595  1  0.358500  0.491200  0.980900  1.0
  H  H2596  1  0.877600  0.358500  0.867300  1.0
  H  H2597  1  0.141500  0.622400  0.632700  1.0
  H  H2598  1  0.008800  0.141500  0.519100  1.0
  H  H2599  1  0.989700  0.008800  0.867300  1.0
  H  H2600  1  0.622400  0.989700  0.980900  1.0
  H  H2601  1  0.534600  0.120900  0.489500  1.0
  H  H2602  1  0.545100  0.534600  0.413700  1.0
  H  H2603  1  0.631400  0.545100  0.010500  1.0
  H  H2604  1  0.120900  0.631400  0.086300  1.0
  H  H2605  1  0.868600  0.379100  0.413700  1.0
  H  H2606  1  0.954900  0.868600  0.489500  1.0
  H  H2607  1  0.965400  0.954900  0.086300  1.0
  H  H2608  1  0.379100  0.965400  0.010500  1.0
  H  H2609  1  0.465400  0.879100  0.510500  1.0
  H  H2610  1  0.454900  0.465400  0.586300  1.0
  H  H2611  1  0.368600  0.454900  0.989500  1.0
  H  H2612  1  0.879100  0.368600  0.913700  1.0
  H  H2613  1  0.131400  0.620900  0.586300  1.0
  H  H2614  1  0.045100  0.131400  0.510500  1.0
  H  H2615  1  0.034600  0.045100  0.913700  1.0
  H  H2616  1  0.620900  0.034600  0.989500  1.0
  H  H2617  1  0.626900  0.296800  0.630700  1.0
  H  H2618  1  0.496200  0.626900  0.330100  1.0
  H  H2619  1  0.666100  0.496200  0.869300  1.0
  H  H2620  1  0.296800  0.666100  0.169900  1.0
  H  H2621  1  0.833900  0.203200  0.330100  1.0
  H  H2622  1  0.003800  0.833900  0.630700  1.0
  H  H2623  1  0.873100  0.003800  0.169900  1.0
  H  H2624  1  0.203200  0.873100  0.869300  1.0
  H  H2625  1  0.373100  0.703200  0.369300  1.0
  H  H2626  1  0.503800  0.373100  0.669900  1.0
  H  H2627  1  0.333900  0.503800  0.130700  1.0
  H  H2628  1  0.703200  0.333900  0.830100  1.0
  H  H2629  1  0.166100  0.796800  0.669900  1.0
  H  H2630  1  0.996200  0.166100  0.369300  1.0
  H  H2631  1  0.126900  0.996200  0.830100  1.0
  H  H2632  1  0.796800  0.126900  0.130700  1.0
  H  H2633  1  0.515300  0.202300  0.511800  1.0
  H  H2634  1  0.503500  0.515300  0.313000  1.0
  H  H2635  1  0.690500  0.503500  0.988200  1.0
  H  H2636  1  0.202300  0.690500  0.187000  1.0
  H  H2637  1  0.809500  0.297700  0.313000  1.0
  H  H2638  1  0.996500  0.809500  0.511800  1.0
  H  H2639  1  0.984700  0.996500  0.187000  1.0
  H  H2640  1  0.297700  0.984700  0.988200  1.0
  H  H2641  1  0.484700  0.797700  0.488200  1.0
  H  H2642  1  0.496500  0.484700  0.687000  1.0
  H  H2643  1  0.309500  0.496500  0.011800  1.0
  H  H2644  1  0.797700  0.309500  0.813000  1.0
  H  H2645  1  0.190500  0.702300  0.687000  1.0
  H  H2646  1  0.003500  0.190500  0.488200  1.0
  H  H2647  1  0.015300  0.003500  0.813000  1.0
  H  H2648  1  0.702300  0.015300  0.011800  1.0
  H  H2649  1  0.586000  0.162800  0.581000  1.0
  H  H2650  1  0.505000  0.586000  0.423200  1.0
  H  H2651  1  0.581800  0.505000  0.919000  1.0
  H  H2652  1  0.162800  0.581800  0.076800  1.0
  H  H2653  1  0.918200  0.337200  0.423200  1.0
  H  H2654  1  0.995000  0.918200  0.581000  1.0
  H  H2655  1  0.914000  0.995000  0.076800  1.0
  H  H2656  1  0.337200  0.914000  0.919000  1.0
  H  H2657  1  0.414000  0.837200  0.419000  1.0
  H  H2658  1  0.495000  0.414000  0.576800  1.0
  H  H2659  1  0.418200  0.495000  0.081000  1.0
  H  H2660  1  0.837200  0.418200  0.923200  1.0
  H  H2661  1  0.081800  0.662800  0.576800  1.0
  H  H2662  1  0.005000  0.081800  0.419000  1.0
  H  H2663  1  0.086000  0.005000  0.923200  1.0
  H  H2664  1  0.662800  0.086000  0.081000  1.0
  H  H2665  1  0.669600  0.272300  0.670900  1.0
  H  H2666  1  0.498700  0.669600  0.397300  1.0
  H  H2667  1  0.601400  0.498700  0.829100  1.0
  H  H2668  1  0.272300  0.601400  0.102700  1.0
  H  H2669  1  0.898600  0.227700  0.397300  1.0
  H  H2670  1  0.001300  0.898600  0.670900  1.0
  H  H2671  1  0.830400  0.001300  0.102700  1.0
  H  H2672  1  0.227700  0.830400  0.829100  1.0
  H  H2673  1  0.330400  0.727700  0.329100  1.0
  H  H2674  1  0.501300  0.330400  0.602700  1.0
  H  H2675  1  0.398600  0.501300  0.170900  1.0
  H  H2676  1  0.727700  0.398600  0.897300  1.0
  H  H2677  1  0.101400  0.772300  0.602700  1.0
  H  H2678  1  0.998700  0.101400  0.329100  1.0
  H  H2679  1  0.169600  0.998700  0.897300  1.0
  H  H2680  1  0.772300  0.169600  0.170900  1.0
  H  H2681  1  0.654300  0.222000  0.652900  1.0
  H  H2682  1  0.501400  0.654300  0.432300  1.0
  H  H2683  1  0.569100  0.501400  0.847100  1.0
  H  H2684  1  0.222000  0.569100  0.067700  1.0
  H  H2685  1  0.930900  0.278000  0.432300  1.0
  H  H2686  1  0.998600  0.930900  0.652900  1.0
  H  H2687  1  0.845700  0.998600  0.067700  1.0
  H  H2688  1  0.278000  0.845700  0.847100  1.0
  H  H2689  1  0.345700  0.778000  0.347100  1.0
  H  H2690  1  0.498600  0.345700  0.567700  1.0
  H  H2691  1  0.430900  0.498600  0.152900  1.0
  H  H2692  1  0.778000  0.430900  0.932300  1.0
  H  H2693  1  0.069100  0.722000  0.567700  1.0
  H  H2694  1  0.001400  0.069100  0.347100  1.0
  H  H2695  1  0.154300  0.001400  0.932300  1.0
  H  H2696  1  0.722000  0.154300  0.152900  1.0
  N  N2697  1  0.315800  0.886000  0.543600  1
  N  N2698  1  0.272200  0.315800  0.429800  1
  N  N2699  1  0.342400  0.272200  0.956400  1
  N  N2700  1  0.886000  0.342400  0.070200  1
  N  N2701  1  0.157600  0.614000  0.429800  1
  N  N2702  1  0.227800  0.157600  0.543600  1
  N  N2703  1  0.184200  0.227800  0.070200  1
  N  N2704  1  0.614000  0.184200  0.956400  1
  N  N2705  1  0.684200  0.114000  0.456400  1
  N  N2706  1  0.727800  0.684200  0.570200  1
  N  N2707  1  0.657600  0.727800  0.043600  1
  N  N2708  1  0.114000  0.657600  0.929800  1
  N  N2709  1  0.842400  0.386000  0.570200  1
  N  N2710  1  0.772200  0.842400  0.456400  1
  N  N2711  1  0.815800  0.772200  0.929800  1
  N  N2712  1  0.386000  0.815800  0.043600  1
  N  N2713  1  0.674700  0.340900  0.485400  1.0
  N  N2714  1  0.689300  0.674700  0.333800  1.0
  N  N2715  1  0.855500  0.689300  0.014600  1.0
  N  N2716  1  0.340900  0.855500  0.166200  1.0
  N  N2717  1  0.644500  0.159100  0.333800  1.0
  N  N2718  1  0.810700  0.644500  0.485400  1.0
  N  N2719  1  0.825300  0.810700  0.166200  1.0
  N  N2720  1  0.159100  0.825300  0.014600  1.0
  N  N2721  1  0.325300  0.659100  0.514600  1.0
  N  N2722  1  0.310700  0.325300  0.666200  1.0
  N  N2723  1  0.144500  0.310700  0.985400  1.0
  N  N2724  1  0.659100  0.144500  0.833800  1.0
  N  N2725  1  0.355500  0.840900  0.666200  1.0
  N  N2726  1  0.189300  0.355500  0.514600  1.0
  N  N2727  1  0.174700  0.189300  0.833800  1.0
  N  N2728  1  0.840900  0.174700  0.985400  1.0
  N  N2729  1  0.605300  0.401300  0.507200  1.0
  N  N2730  1  0.598100  0.605300  0.204000  1.0
  N  N2731  1  0.894100  0.598100  0.992800  1.0
  N  N2732  1  0.401300  0.894100  0.296000  1.0
  N  N2733  1  0.605900  0.098700  0.204000  1.0
  N  N2734  1  0.901900  0.605900  0.507200  1.0
  N  N2735  1  0.894700  0.901900  0.296000  1.0
  N  N2736  1  0.098700  0.894700  0.992800  1.0
  N  N2737  1  0.394700  0.598700  0.492800  1.0
  N  N2738  1  0.401900  0.394700  0.796000  1.0
  N  N2739  1  0.105900  0.401900  0.007200  1.0
  N  N2740  1  0.598700  0.105900  0.704000  1.0
  N  N2741  1  0.394100  0.901300  0.796000  1.0
  N  N2742  1  0.098100  0.394100  0.492800  1.0
  N  N2743  1  0.105300  0.098100  0.704000  1.0
  N  N2744  1  0.901300  0.105300  0.007200  1.0
  N  N2745  1  0.629100  0.378900  0.504000  1.0
  N  N2746  1  0.625100  0.629100  0.250200  1.0
  N  N2747  1  0.874900  0.625100  0.996000  1.0
  N  N2748  1  0.378900  0.874900  0.249800  1.0
  N  N2749  1  0.625100  0.121100  0.250200  1.0
  N  N2750  1  0.874900  0.625100  0.504000  1.0
  N  N2751  1  0.870900  0.874900  0.249800  1.0
  N  N2752  1  0.121100  0.870900  0.996000  1.0
  N  N2753  1  0.370900  0.621100  0.496000  1.0
  N  N2754  1  0.374900  0.370900  0.749800  1.0
  N  N2755  1  0.125100  0.374900  0.004000  1.0
  N  N2756  1  0.621100  0.125100  0.750200  1.0
  N  N2757  1  0.374900  0.878900  0.749800  1.0
  N  N2758  1  0.125100  0.374900  0.496000  1.0
  N  N2759  1  0.129100  0.125100  0.750200  1.0
  N  N2760  1  0.878900  0.129100  0.004000  1.0
  N  N2761  1  0.657800  0.667900  0.731900  1.0
  N  N2762  1  0.425900  0.657800  0.989900  1.0
  N  N2763  1  0.936000  0.425900  0.768100  1.0
  N  N2764  1  0.667900  0.936000  0.510100  1.0
  N  N2765  1  0.564000  0.832100  0.989900  1.0
  N  N2766  1  0.074100  0.564000  0.731900  1.0
  N  N2767  1  0.842200  0.074100  0.510100  1.0
  N  N2768  1  0.832100  0.842200  0.768100  1.0
  N  N2769  1  0.342200  0.332100  0.268100  1.0
  N  N2770  1  0.574100  0.342200  0.010100  1.0
  N  N2771  1  0.064000  0.574100  0.231900  1.0
  N  N2772  1  0.332100  0.064000  0.489900  1.0
  N  N2773  1  0.436000  0.167900  0.010100  1.0
  N  N2774  1  0.925900  0.436000  0.268100  1.0
  N  N2775  1  0.157800  0.925900  0.489900  1.0
  N  N2776  1  0.167900  0.157800  0.231900  1.0
  N  N2777  1  0.657900  0.554600  0.720500  1.0
  N  N2778  1  0.437400  0.657900  0.103300  1.0
  N  N2779  1  0.834100  0.437400  0.779500  1.0
  N  N2780  1  0.554600  0.834100  0.396700  1.0
  N  N2781  1  0.665900  0.945400  0.103300  1.0
  N  N2782  1  0.062600  0.665900  0.720500  1.0
  N  N2783  1  0.842100  0.062600  0.396700  1.0
  N  N2784  1  0.945400  0.842100  0.779500  1.0
  N  N2785  1  0.342100  0.445400  0.279500  1.0
  N  N2786  1  0.562600  0.342100  0.896700  1.0
  N  N2787  1  0.165900  0.562600  0.220500  1.0
  N  N2788  1  0.445400  0.165900  0.603300  1.0
  N  N2789  1  0.334100  0.054600  0.896700  1.0
  N  N2790  1  0.937400  0.334100  0.279500  1.0
  N  N2791  1  0.157900  0.937400  0.603300  1.0
  N  N2792  1  0.054600  0.157900  0.220500  1.0
  N  N2793  1  0.652680  0.591200  0.720480  1.0
  N  N2794  1  0.432200  0.652680  0.061480  1.0
  N  N2795  1  0.870720  0.432200  0.779520  1.0
  N  N2796  1  0.591200  0.870720  0.438520  1.0
  N  N2797  1  0.629280  0.908800  0.061480  1.0
  N  N2798  1  0.067800  0.629280  0.720480  1.0
  N  N2799  1  0.847320  0.067800  0.438520  1.0
  N  N2800  1  0.908800  0.847320  0.779520  1.0
  N  N2801  1  0.347320  0.408800  0.279520  1.0
  N  N2802  1  0.567800  0.347320  0.938520  1.0
  N  N2803  1  0.129280  0.567800  0.220480  1.0
  N  N2804  1  0.408800  0.129280  0.561480  1.0
  N  N2805  1  0.370720  0.091200  0.938520  1.0
  N  N2806  1  0.932200  0.370720  0.279520  1.0
  N  N2807  1  0.152680  0.932200  0.561480  1.0
  N  N2808  1  0.091200  0.152680  0.220480  1.0
  N  N2809  1  0.745100  0.552600  0.634300  1.0
  N  N2810  1  0.610800  0.745100  0.192500  1.0
  N  N2811  1  0.918300  0.610800  0.865700  1.0
  N  N2812  1  0.552600  0.918300  0.307500  1.0
  N  N2813  1  0.581700  0.947400  0.192500  1.0
  N  N2814  1  0.889200  0.581700  0.634300  1.0
  N  N2815  1  0.754900  0.889200  0.307500  1.0
  N  N2816  1  0.947400  0.754900  0.865700  1.0
  N  N2817  1  0.254900  0.447400  0.365700  1.0
  N  N2818  1  0.389200  0.254900  0.807500  1.0
  N  N2819  1  0.081700  0.389200  0.134300  1.0
  N  N2820  1  0.447400  0.081700  0.692500  1.0
  N  N2821  1  0.418300  0.052600  0.807500  1.0
  N  N2822  1  0.110800  0.418300  0.365700  1.0
  N  N2823  1  0.245100  0.110800  0.692500  1.0
  N  N2824  1  0.052600  0.245100  0.134300  1.0
  N  N2825  1  0.589310  0.276510  0.482400  1.0
  N  N2826  1  0.606910  0.589310  0.312800  1.0
  N  N2827  1  0.794110  0.606910  0.017600  1.0
  N  N2828  1  0.276510  0.794110  0.187200  1.0
  N  N2829  1  0.705890  0.223490  0.312800  1.0
  N  N2830  1  0.893090  0.705890  0.482400  1.0
  N  N2831  1  0.910690  0.893090  0.187200  1.0
  N  N2832  1  0.223490  0.910690  0.017600  1.0
  N  N2833  1  0.410690  0.723490  0.517600  1.0
  N  N2834  1  0.393090  0.410690  0.687200  1.0
  N  N2835  1  0.205890  0.393090  0.982400  1.0
  N  N2836  1  0.723490  0.205890  0.812800  1.0
  N  N2837  1  0.294110  0.776510  0.687200  1.0
  N  N2838  1  0.106910  0.294110  0.517600  1.0
  N  N2839  1  0.089310  0.106910  0.812800  1.0
  N  N2840  1  0.776510  0.089310  0.982400  1.0
  N  N2841  1  0.698400  0.294200  0.576200  1.0
  N  N2842  1  0.622200  0.698400  0.404200  1.0
  N  N2843  1  0.718000  0.622200  0.923800  1.0
  N  N2844  1  0.294200  0.718000  0.095800  1.0
  N  N2845  1  0.782000  0.205800  0.404200  1.0
  N  N2846  1  0.877800  0.782000  0.576200  1.0
  N  N2847  1  0.801600  0.877800  0.095800  1.0
  N  N2848  1  0.205800  0.801600  0.923800  1.0
  N  N2849  1  0.301600  0.705800  0.423800  1.0
  N  N2850  1  0.377800  0.301600  0.595800  1.0
  N  N2851  1  0.282000  0.377800  0.076200  1.0
  N  N2852  1  0.705800  0.282000  0.904200  1.0
  N  N2853  1  0.218000  0.794200  0.595800  1.0
  N  N2854  1  0.122200  0.218000  0.423800  1.0
  N  N2855  1  0.198400  0.122200  0.904200  1.0
  N  N2856  1  0.794200  0.198400  0.076200  1.0
  N  N2857  1  0.664600  0.294200  0.544600  1.0
  N  N2858  1  0.620000  0.664600  0.370400  1.0
  N  N2859  1  0.749600  0.620000  0.955400  1.0
  N  N2860  1  0.294200  0.749600  0.129600  1.0
  N  N2861  1  0.750400  0.205800  0.370400  1.0
  N  N2862  1  0.880000  0.750400  0.544600  1.0
  N  N2863  1  0.835400  0.880000  0.129600  1.0
  N  N2864  1  0.205800  0.835400  0.955400  1.0
  N  N2865  1  0.335400  0.705800  0.455400  1.0
  N  N2866  1  0.380000  0.335400  0.629600  1.0
  N  N2867  1  0.250400  0.380000  0.044600  1.0
  N  N2868  1  0.705800  0.250400  0.870400  1.0
  N  N2869  1  0.249600  0.794200  0.629600  1.0
  N  N2870  1  0.120000  0.249600  0.455400  1.0
  N  N2871  1  0.164600  0.120000  0.870400  1.0
  N  N2872  1  0.794200  0.164600  0.044600  1.0
  N  N2873  1  0.973500  0.420300  0.854000  1.0
  N  N2874  1  0.619500  0.973500  0.553200  1.0
  N  N2875  1  0.566300  0.619500  0.646000  1.0
  N  N2876  1  0.420300  0.566300  0.946800  1.0
  N  N2877  1  0.933700  0.079700  0.553200  1.0
  N  N2878  1  0.880500  0.933700  0.854000  1.0
  N  N2879  1  0.526500  0.880500  0.946800  1.0
  N  N2880  1  0.079700  0.526500  0.646000  1.0
  N  N2881  1  0.026500  0.579700  0.146000  1.0
  N  N2882  1  0.380500  0.026500  0.446800  1.0
  N  N2883  1  0.433700  0.380500  0.354000  1.0
  N  N2884  1  0.579700  0.433700  0.053200  1.0
  N  N2885  1  0.066300  0.920300  0.446800  1.0
  N  N2886  1  0.119500  0.066300  0.146000  1.0
  N  N2887  1  0.473500  0.119500  0.053200  1.0
  N  N2888  1  0.920300  0.473500  0.354000  1.0
  N  N2889  1  0.842300  0.316400  0.764100  1.0
  N  N2890  1  0.578200  0.842300  0.525900  1.0
  N  N2891  1  0.552300  0.578200  0.735900  1.0
  N  N2892  1  0.316400  0.552300  0.974100  1.0
  N  N2893  1  0.947700  0.183600  0.525900  1.0
  N  N2894  1  0.921800  0.947700  0.764100  1.0
  N  N2895  1  0.657700  0.921800  0.974100  1.0
  N  N2896  1  0.183600  0.657700  0.735900  1.0
  N  N2897  1  0.157700  0.683600  0.235900  1.0
  N  N2898  1  0.421800  0.157700  0.474100  1.0
  N  N2899  1  0.447700  0.421800  0.264100  1.0
  N  N2900  1  0.683600  0.447700  0.025900  1.0
  N  N2901  1  0.052300  0.816400  0.474100  1.0
  N  N2902  1  0.078200  0.052300  0.235900  1.0
  N  N2903  1  0.342300  0.078200  0.025900  1.0
  N  N2904  1  0.816400  0.342300  0.264100  1.0
  N  N2905  1  0.886900  0.356000  0.795500  1.0
  N  N2906  1  0.591400  0.886900  0.530900  1.0
  N  N2907  1  0.560500  0.591400  0.704500  1.0
  N  N2908  1  0.356000  0.560500  0.969100  1.0
  N  N2909  1  0.939500  0.144000  0.530900  1.0
  N  N2910  1  0.908600  0.939500  0.795500  1.0
  N  N2911  1  0.613100  0.908600  0.969100  1.0
  N  N2912  1  0.144000  0.613100  0.704500  1.0
  N  N2913  1  0.113100  0.644000  0.204500  1.0
  N  N2914  1  0.408600  0.113100  0.469100  1.0
  N  N2915  1  0.439500  0.408600  0.295500  1.0
  N  N2916  1  0.644000  0.439500  0.030900  1.0
  N  N2917  1  0.060500  0.856000  0.469100  1.0
  N  N2918  1  0.091400  0.060500  0.204500  1.0
  N  N2919  1  0.386900  0.091400  0.030900  1.0
  N  N2920  1  0.856000  0.386900  0.295500  1.0
  N  N2921  1  0.857500  0.302300  0.626800  1.0
  N  N2922  1  0.730700  0.857500  0.555200  1.0
  N  N2923  1  0.675500  0.730700  0.873200  1.0
  N  N2924  1  0.302300  0.675500  0.944800  1.0
  N  N2925  1  0.824500  0.197700  0.555200  1.0
  N  N2926  1  0.769300  0.824500  0.626800  1.0
  N  N2927  1  0.642500  0.769300  0.944800  1.0
  N  N2928  1  0.197700  0.642500  0.873200  1.0
  N  N2929  1  0.142500  0.697700  0.373200  1.0
  N  N2930  1  0.269300  0.142500  0.444800  1.0
  N  N2931  1  0.324500  0.269300  0.126800  1.0
  N  N2932  1  0.697700  0.324500  0.055200  1.0
  N  N2933  1  0.175500  0.802300  0.444800  1.0
  N  N2934  1  0.230700  0.175500  0.373200  1.0
  N  N2935  1  0.357500  0.230700  0.055200  1.0
  N  N2936  1  0.802300  0.357500  0.126800  1.0
  N  N2937  1  0.713100  0.406800  0.585100  1.0
  N  N2938  1  0.628000  0.713100  0.306300  1.0
  N  N2939  1  0.821700  0.628000  0.914900  1.0
  N  N2940  1  0.406800  0.821700  0.193700  1.0
  N  N2941  1  0.678300  0.093200  0.306300  1.0
  N  N2942  1  0.872000  0.678300  0.585100  1.0
  N  N2943  1  0.786900  0.872000  0.193700  1.0
  N  N2944  1  0.093200  0.786900  0.914900  1.0
  N  N2945  1  0.286900  0.593200  0.414900  1.0
  N  N2946  1  0.372000  0.286900  0.693700  1.0
  N  N2947  1  0.178300  0.372000  0.085100  1.0
  N  N2948  1  0.593200  0.178300  0.806300  1.0
  N  N2949  1  0.321700  0.906800  0.693700  1.0
  N  N2950  1  0.128000  0.321700  0.414900  1.0
  N  N2951  1  0.213100  0.128000  0.806300  1.0
  N  N2952  1  0.906800  0.213100  0.085100  1.0
  N  N2953  1  0.597690  0.336290  0.592400  1.0
  N  N2954  1  0.505290  0.597690  0.261400  1.0
  N  N2955  1  0.743890  0.505290  0.907600  1.0
  N  N2956  1  0.336290  0.743890  0.238600  1.0
  N  N2957  1  0.756110  0.163710  0.261400  1.0
  N  N2958  1  0.994710  0.756110  0.592400  1.0
  N  N2959  1  0.902310  0.994710  0.238600  1.0
  N  N2960  1  0.163710  0.902310  0.907600  1.0
  N  N2961  1  0.402310  0.663710  0.407600  1.0
  N  N2962  1  0.494710  0.402310  0.738600  1.0
  N  N2963  1  0.256110  0.494710  0.092400  1.0
  N  N2964  1  0.663710  0.256110  0.761400  1.0
  N  N2965  1  0.243890  0.836290  0.738600  1.0
  N  N2966  1  0.005290  0.243890  0.407600  1.0
  N  N2967  1  0.097690  0.005290  0.761400  1.0
  N  N2968  1  0.836290  0.097690  0.092400  1.0
  N  N2969  1  0.636400  0.356530  0.585730  1.0
  N  N2970  1  0.550670  0.636400  0.279870  1.0
  N  N2971  1  0.770800  0.550670  0.914270  1.0
  N  N2972  1  0.356530  0.770800  0.220130  1.0
  N  N2973  1  0.729200  0.143470  0.279870  1.0
  N  N2974  1  0.949330  0.729200  0.585730  1.0
  N  N2975  1  0.863600  0.949330  0.220130  1.0
  N  N2976  1  0.143470  0.863600  0.914270  1.0
  N  N2977  1  0.363600  0.643470  0.414270  1.0
  N  N2978  1  0.449330  0.363600  0.720130  1.0
  N  N2979  1  0.229200  0.449330  0.085730  1.0
  N  N2980  1  0.643470  0.229200  0.779870  1.0
  N  N2981  1  0.270800  0.856530  0.720130  1.0
  N  N2982  1  0.050670  0.270800  0.414270  1.0
  N  N2983  1  0.136400  0.050670  0.779870  1.0
  N  N2984  1  0.856530  0.136400  0.085730  1.0
  N  N2985  1  0.395300  0.039700  0.542600  1.0
  N  N2986  1  0.352700  0.395300  0.355600  1.0
  N  N2987  1  0.497100  0.352700  0.957400  1.0
  N  N2988  1  0.039700  0.497100  0.144400  1.0
  N  N2989  1  0.002900  0.460300  0.355600  1.0
  N  N2990  1  0.147300  0.002900  0.542600  1.0
  N  N2991  1  0.104700  0.147300  0.144400  1.0
  N  N2992  1  0.460300  0.104700  0.957400  1.0
  N  N2993  1  0.604700  0.960300  0.457400  1.0
  N  N2994  1  0.647300  0.604700  0.644400  1.0
  N  N2995  1  0.502900  0.647300  0.042600  1.0
  N  N2996  1  0.960300  0.502900  0.855600  1.0
  N  N2997  1  0.997100  0.539700  0.644400  1.0
  N  N2998  1  0.852700  0.997100  0.457400  1.0
  N  N2999  1  0.895300  0.852700  0.855600  1.0
  N  N3000  1  0.539700  0.895300  0.042600  1.0
  N  N3001  1  0.499630  0.092830  0.515200  1.0
  N  N3002  1  0.484430  0.499630  0.406800  1.0
  N  N3003  1  0.577630  0.484430  0.984800  1.0
  N  N3004  1  0.092830  0.577630  0.093200  1.0
  N  N3005  1  0.922370  0.407170  0.406800  1.0
  N  N3006  1  0.015570  0.922370  0.515200  1.0
  N  N3007  1  0.000370  0.015570  0.093200  1.0
  N  N3008  1  0.407170  0.000370  0.984800  1.0
  N  N3009  1  0.500370  0.907170  0.484800  1.0
  N  N3010  1  0.515570  0.500370  0.593200  1.0
  N  N3011  1  0.422370  0.515570  0.015200  1.0
  N  N3012  1  0.907170  0.422370  0.906800  1.0
  N  N3013  1  0.077630  0.592830  0.593200  1.0
  N  N3014  1  0.984430  0.077630  0.484800  1.0
  N  N3015  1  0.999630  0.984430  0.906800  1.0
  N  N3016  1  0.592830  0.999630  0.015200  1.0
  N  N3017  1  0.465000  0.082700  0.528500  1.0
  N  N3018  1  0.436500  0.465000  0.382300  1.0
  N  N3019  1  0.554200  0.436500  0.971500  1.0
  N  N3020  1  0.082700  0.554200  0.117700  1.0
  N  N3021  1  0.945800  0.417300  0.382300  1.0
  N  N3022  1  0.063500  0.945800  0.528500  1.0
  N  N3023  1  0.035000  0.063500  0.117700  1.0
  N  N3024  1  0.417300  0.035000  0.971500  1.0
  N  N3025  1  0.535000  0.917300  0.471500  1.0
  N  N3026  1  0.563500  0.535000  0.617700  1.0
  N  N3027  1  0.445800  0.563500  0.028500  1.0
  N  N3028  1  0.917300  0.445800  0.882300  1.0
  N  N3029  1  0.054200  0.582700  0.617700  1.0
  N  N3030  1  0.936500  0.054200  0.471500  1.0
  N  N3031  1  0.965000  0.936500  0.882300  1.0
  N  N3032  1  0.582700  0.965000  0.028500  1.0
  N  N3033  1  0.650300  0.243500  0.650200  1.0
  N  N3034  1  0.500100  0.650300  0.406800  1.0
  N  N3035  1  0.593300  0.500100  0.849800  1.0
  N  N3036  1  0.243500  0.593300  0.093200  1.0
  N  N3037  1  0.906700  0.256500  0.406800  1.0
  N  N3038  1  0.999900  0.906700  0.650200  1.0
  N  N3039  1  0.849700  0.999900  0.093200  1.0
  N  N3040  1  0.256500  0.849700  0.849800  1.0
  N  N3041  1  0.349700  0.756500  0.349800  1.0
  N  N3042  1  0.499900  0.349700  0.593200  1.0
  N  N3043  1  0.406700  0.499900  0.150200  1.0
  N  N3044  1  0.756500  0.406700  0.906800  1.0
  N  N3045  1  0.093300  0.743500  0.593200  1.0
  N  N3046  1  0.000100  0.093300  0.349800  1.0
  N  N3047  1  0.150300  0.000100  0.906800  1.0
  N  N3048  1  0.743500  0.150300  0.150200  1.0
  Na  Na3049  1  0.625000  0.375000  0.750000  1
  Na  Na3050  1  0.375000  0.625000  0.250000  1
  Na  Na3051  1  0.875000  0.125000  0.250000  1
  Na  Na3052  1  0.125000  0.875000  0.750000  1
  O  O3053  1  0.290400  0.885000  0.512600  1
  O  O3054  1  0.277800  0.290400  0.405400  1
  O  O3055  1  0.372400  0.277800  0.987400  1
  O  O3056  1  0.885000  0.372400  0.094600  1
  O  O3057  1  0.127600  0.615000  0.405400  1
  O  O3058  1  0.222200  0.127600  0.512600  1
  O  O3059  1  0.209600  0.222200  0.094600  1
  O  O3060  1  0.615000  0.209600  0.987400  1
  O  O3061  1  0.709600  0.115000  0.487400  1
  O  O3062  1  0.722200  0.709600  0.594600  1
  O  O3063  1  0.627600  0.722200  0.012600  1
  O  O3064  1  0.115000  0.627600  0.905400  1
  O  O3065  1  0.872400  0.385000  0.594600  1
  O  O3066  1  0.777800  0.872400  0.487400  1
  O  O3067  1  0.790400  0.777800  0.905400  1
  O  O3068  1  0.385000  0.790400  0.012600  1
  O  O3069  1  0.315100  0.896600  0.578900  1
  O  O3070  1  0.236200  0.315100  0.418500  1
  O  O3071  1  0.317700  0.236200  0.921100  1
  O  O3072  1  0.896600  0.317700  0.081500  1
  O  O3073  1  0.182300  0.603400  0.418500  1
  O  O3074  1  0.263800  0.182300  0.578900  1
  O  O3075  1  0.184900  0.263800  0.081500  1
  O  O3076  1  0.603400  0.184900  0.921100  1
  O  O3077  1  0.684900  0.103400  0.421100  1
  O  O3078  1  0.763800  0.684900  0.581500  1
  O  O3079  1  0.682300  0.763800  0.078900  1
  O  O3080  1  0.103400  0.682300  0.918500  1
  O  O3081  1  0.817700  0.396600  0.581500  1
  O  O3082  1  0.736200  0.817700  0.421100  1
  O  O3083  1  0.815100  0.736200  0.918500  1
  O  O3084  1  0.396600  0.815100  0.078900  1
  O  O3085  1  0.780900  0.530900  0.561800  1
  O  O3086  1  0.719100  0.780900  0.250000  1
  O  O3087  1  0.969100  0.719100  0.938200  1
  O  O3088  1  0.530900  0.969100  0.250000  1
  O  O3089  1  0.219100  0.469100  0.438200  1
  O  O3090  1  0.280900  0.219100  0.750000  1
  O  O3091  1  0.030900  0.280900  0.061800  1
  O  O3092  1  0.469100  0.030900  0.750000  1
  O  O3093  1  0.339300  0.870600  0.450300  1
  O  O3094  1  0.389000  0.339300  0.468700  1
  O  O3095  1  0.420300  0.389000  0.049700  1
  O  O3096  1  0.870600  0.420300  0.031300  1
  O  O3097  1  0.079700  0.629400  0.468700  1
  O  O3098  1  0.111000  0.079700  0.450300  1
  O  O3099  1  0.160700  0.111000  0.031300  1
  O  O3100  1  0.629400  0.160700  0.049700  1
  O  O3101  1  0.660700  0.129400  0.549700  1
  O  O3102  1  0.611000  0.660700  0.531300  1
  O  O3103  1  0.579700  0.611000  0.950300  1
  O  O3104  1  0.129400  0.579700  0.968700  1
  O  O3105  1  0.920300  0.370600  0.531300  1
  O  O3106  1  0.889000  0.920300  0.549700  1
  O  O3107  1  0.839300  0.889000  0.968700  1
  O  O3108  1  0.370600  0.839300  0.950300  1
  O  O3109  1  0.302200  0.878100  0.436300  1
  O  O3110  1  0.365900  0.302200  0.424100  1
  O  O3111  1  0.441800  0.365900  0.063700  1
  O  O3112  1  0.878100  0.441800  0.075900  1
  O  O3113  1  0.058200  0.621900  0.424100  1
  O  O3114  1  0.134100  0.058200  0.436300  1
  O  O3115  1  0.197800  0.134100  0.075900  1
  O  O3116  1  0.621900  0.197800  0.063700  1
  O  O3117  1  0.697800  0.121900  0.563700  1
  O  O3118  1  0.634100  0.697800  0.575900  1
  O  O3119  1  0.558200  0.634100  0.936300  1
  O  O3120  1  0.121900  0.558200  0.924100  1
  O  O3121  1  0.941800  0.378100  0.575900  1
  O  O3122  1  0.865900  0.941800  0.563700  1
  O  O3123  1  0.802200  0.865900  0.924100  1
  O  O3124  1  0.378100  0.802200  0.936300  1
