# generated using pymatgen
data_B16H200Pd4C288N16Cl3(OF6)16
_symmetry_space_group_name_H-M   'P 1'
_cell_length_a   39.03000000
_cell_length_b   39.03000000
_cell_length_c   39.03000000
_cell_angle_alpha   90.00000000
_cell_angle_beta   90.00000000
_cell_angle_gamma   90.00000000
_symmetry_Int_Tables_number   1
_chemical_formula_structural   B16H200Pd4C288N16Cl3(OF6)16
_chemical_formula_sum   'B96 H1200 Pd24 C1728 N96 Cl18 O96 F576'
_cell_volume   59455.99532700
_cell_formula_units_Z   6
loop_
 _symmetry_equiv_pos_site_id
 _symmetry_equiv_pos_as_xyz
  1  'x, y, z'
loop_
 _atom_site_type_symbol
 _atom_site_label
 _atom_site_symmetry_multiplicity
 _atom_site_fract_x
 _atom_site_fract_y
 _atom_site_fract_z
 _atom_site_occupancy
  B  B1  1  0.283200  0.562200  0.325800  1
  B  B2  1  0.216800  0.937800  0.325800  1
  B  B3  1  0.216800  0.562200  0.174200  1
  B  B4  1  0.283200  0.937800  0.174200  1
  B  B5  1  0.325800  0.283200  0.562200  1
  B  B6  1  0.325800  0.216800  0.937800  1
  B  B7  1  0.174200  0.216800  0.562200  1
  B  B8  1  0.174200  0.283200  0.937800  1
  B  B9  1  0.562200  0.325800  0.283200  1
  B  B10  1  0.937800  0.325800  0.216800  1
  B  B11  1  0.562200  0.174200  0.216800  1
  B  B12  1  0.937800  0.174200  0.283200  1
  B  B13  1  0.562200  0.283200  0.174200  1
  B  B14  1  0.937800  0.216800  0.174200  1
  B  B15  1  0.562200  0.216800  0.325800  1
  B  B16  1  0.937800  0.283200  0.325800  1
  B  B17  1  0.283200  0.325800  0.937800  1
  B  B18  1  0.216800  0.325800  0.562200  1
  B  B19  1  0.216800  0.174200  0.937800  1
  B  B20  1  0.283200  0.174200  0.562200  1
  B  B21  1  0.325800  0.562200  0.216800  1
  B  B22  1  0.325800  0.937800  0.283200  1
  B  B23  1  0.174200  0.562200  0.283200  1
  B  B24  1  0.174200  0.937800  0.216800  1
  B  B25  1  0.716800  0.437800  0.674200  1
  B  B26  1  0.783200  0.062200  0.674200  1
  B  B27  1  0.783200  0.437800  0.825800  1
  B  B28  1  0.716800  0.062200  0.825800  1
  B  B29  1  0.674200  0.716800  0.437800  1
  B  B30  1  0.674200  0.783200  0.062200  1
  B  B31  1  0.825800  0.783200  0.437800  1
  B  B32  1  0.825800  0.716800  0.062200  1
  B  B33  1  0.437800  0.674200  0.716800  1
  B  B34  1  0.062200  0.674200  0.783200  1
  B  B35  1  0.437800  0.825800  0.783200  1
  B  B36  1  0.062200  0.825800  0.716800  1
  B  B37  1  0.437800  0.716800  0.825800  1
  B  B38  1  0.062200  0.783200  0.825800  1
  B  B39  1  0.437800  0.783200  0.674200  1
  B  B40  1  0.062200  0.716800  0.674200  1
  B  B41  1  0.716800  0.674200  0.062200  1
  B  B42  1  0.783200  0.674200  0.437800  1
  B  B43  1  0.783200  0.825800  0.062200  1
  B  B44  1  0.716800  0.825800  0.437800  1
  B  B45  1  0.674200  0.437800  0.783200  1
  B  B46  1  0.674200  0.062200  0.716800  1
  B  B47  1  0.825800  0.437800  0.716800  1
  B  B48  1  0.825800  0.062200  0.783200  1
  B  B49  1  0.395600  0.388000  0.403800  1
  B  B50  1  0.104400  0.112000  0.403800  1
  B  B51  1  0.104400  0.388000  0.096200  1
  B  B52  1  0.395600  0.112000  0.096200  1
  B  B53  1  0.403800  0.395600  0.388000  1
  B  B54  1  0.403800  0.104400  0.112000  1
  B  B55  1  0.096200  0.104400  0.388000  1
  B  B56  1  0.096200  0.395600  0.112000  1
  B  B57  1  0.388000  0.403800  0.395600  1
  B  B58  1  0.112000  0.403800  0.104400  1
  B  B59  1  0.388000  0.096200  0.104400  1
  B  B60  1  0.112000  0.096200  0.395600  1
  B  B61  1  0.388000  0.395600  0.096200  1
  B  B62  1  0.112000  0.104400  0.096200  1
  B  B63  1  0.388000  0.104400  0.403800  1
  B  B64  1  0.112000  0.395600  0.403800  1
  B  B65  1  0.395600  0.403800  0.112000  1
  B  B66  1  0.104400  0.403800  0.388000  1
  B  B67  1  0.104400  0.096200  0.112000  1
  B  B68  1  0.395600  0.096200  0.388000  1
  B  B69  1  0.403800  0.388000  0.104400  1
  B  B70  1  0.403800  0.112000  0.395600  1
  B  B71  1  0.096200  0.388000  0.395600  1
  B  B72  1  0.096200  0.112000  0.104400  1
  B  B73  1  0.604400  0.612000  0.596200  1
  B  B74  1  0.895600  0.888000  0.596200  1
  B  B75  1  0.895600  0.612000  0.903800  1
  B  B76  1  0.604400  0.888000  0.903800  1
  B  B77  1  0.596200  0.604400  0.612000  1
  B  B78  1  0.596200  0.895600  0.888000  1
  B  B79  1  0.903800  0.895600  0.612000  1
  B  B80  1  0.903800  0.604400  0.888000  1
  B  B81  1  0.612000  0.596200  0.604400  1
  B  B82  1  0.888000  0.596200  0.895600  1
  B  B83  1  0.612000  0.903800  0.895600  1
  B  B84  1  0.888000  0.903800  0.604400  1
  B  B85  1  0.612000  0.604400  0.903800  1
  B  B86  1  0.888000  0.895600  0.903800  1
  B  B87  1  0.612000  0.895600  0.596200  1
  B  B88  1  0.888000  0.604400  0.596200  1
  B  B89  1  0.604400  0.596200  0.888000  1
  B  B90  1  0.895600  0.596200  0.612000  1
  B  B91  1  0.895600  0.903800  0.888000  1
  B  B92  1  0.604400  0.903800  0.612000  1
  B  B93  1  0.596200  0.612000  0.895600  1
  B  B94  1  0.596200  0.888000  0.604400  1
  B  B95  1  0.903800  0.612000  0.604400  1
  B  B96  1  0.903800  0.888000  0.895600  1
  H  H97  1  0.281200  0.396700  0.301100  1.0
  H  H98  1  0.218800  0.103300  0.301100  1.0
  H  H99  1  0.218800  0.396700  0.198900  1.0
  H  H100  1  0.281200  0.103300  0.198900  1.0
  H  H101  1  0.301100  0.281200  0.396700  1.0
  H  H102  1  0.301100  0.218800  0.103300  1.0
  H  H103  1  0.198900  0.218800  0.396700  1.0
  H  H104  1  0.198900  0.281200  0.103300  1.0
  H  H105  1  0.396700  0.301100  0.281200  1.0
  H  H106  1  0.103300  0.301100  0.218800  1.0
  H  H107  1  0.396700  0.198900  0.218800  1.0
  H  H108  1  0.103300  0.198900  0.281200  1.0
  H  H109  1  0.396700  0.281200  0.198900  1.0
  H  H110  1  0.103300  0.218800  0.198900  1.0
  H  H111  1  0.396700  0.218800  0.301100  1.0
  H  H112  1  0.103300  0.281200  0.301100  1.0
  H  H113  1  0.281200  0.301100  0.103300  1.0
  H  H114  1  0.218800  0.301100  0.396700  1.0
  H  H115  1  0.218800  0.198900  0.103300  1.0
  H  H116  1  0.281200  0.198900  0.396700  1.0
  H  H117  1  0.301100  0.396700  0.218800  1.0
  H  H118  1  0.301100  0.103300  0.281200  1.0
  H  H119  1  0.198900  0.396700  0.281200  1.0
  H  H120  1  0.198900  0.103300  0.218800  1.0
  H  H121  1  0.718800  0.603300  0.698900  1.0
  H  H122  1  0.781200  0.896700  0.698900  1.0
  H  H123  1  0.781200  0.603300  0.801100  1.0
  H  H124  1  0.718800  0.896700  0.801100  1.0
  H  H125  1  0.698900  0.718800  0.603300  1.0
  H  H126  1  0.698900  0.781200  0.896700  1.0
  H  H127  1  0.801100  0.781200  0.603300  1.0
  H  H128  1  0.801100  0.718800  0.896700  1.0
  H  H129  1  0.603300  0.698900  0.718800  1.0
  H  H130  1  0.896700  0.698900  0.781200  1.0
  H  H131  1  0.603300  0.801100  0.781200  1.0
  H  H132  1  0.896700  0.801100  0.718800  1.0
  H  H133  1  0.603300  0.718800  0.801100  1.0
  H  H134  1  0.896700  0.781200  0.801100  1.0
  H  H135  1  0.603300  0.781200  0.698900  1.0
  H  H136  1  0.896700  0.718800  0.698900  1.0
  H  H137  1  0.718800  0.698900  0.896700  1.0
  H  H138  1  0.781200  0.698900  0.603300  1.0
  H  H139  1  0.781200  0.801100  0.896700  1.0
  H  H140  1  0.718800  0.801100  0.603300  1.0
  H  H141  1  0.698900  0.603300  0.781200  1.0
  H  H142  1  0.698900  0.896700  0.718800  1.0
  H  H143  1  0.801100  0.603300  0.718800  1.0
  H  H144  1  0.801100  0.896700  0.781200  1.0
  H  H145  1  0.329400  0.393800  0.336000  1.0
  H  H146  1  0.170600  0.106200  0.336000  1.0
  H  H147  1  0.170600  0.393800  0.164000  1.0
  H  H148  1  0.329400  0.106200  0.164000  1.0
  H  H149  1  0.336000  0.329400  0.393800  1.0
  H  H150  1  0.336000  0.170600  0.106200  1.0
  H  H151  1  0.164000  0.170600  0.393800  1.0
  H  H152  1  0.164000  0.329400  0.106200  1.0
  H  H153  1  0.393800  0.336000  0.329400  1.0
  H  H154  1  0.106200  0.336000  0.170600  1.0
  H  H155  1  0.393800  0.164000  0.170600  1.0
  H  H156  1  0.106200  0.164000  0.329400  1.0
  H  H157  1  0.393800  0.329400  0.164000  1.0
  H  H158  1  0.106200  0.170600  0.164000  1.0
  H  H159  1  0.393800  0.170600  0.336000  1.0
  H  H160  1  0.106200  0.329400  0.336000  1.0
  H  H161  1  0.329400  0.336000  0.106200  1.0
  H  H162  1  0.170600  0.336000  0.393800  1.0
  H  H163  1  0.170600  0.164000  0.106200  1.0
  H  H164  1  0.329400  0.164000  0.393800  1.0
  H  H165  1  0.336000  0.393800  0.170600  1.0
  H  H166  1  0.336000  0.106200  0.329400  1.0
  H  H167  1  0.164000  0.393800  0.329400  1.0
  H  H168  1  0.164000  0.106200  0.170600  1.0
  H  H169  1  0.670600  0.606200  0.664000  1.0
  H  H170  1  0.829400  0.893800  0.664000  1.0
  H  H171  1  0.829400  0.606200  0.836000  1.0
  H  H172  1  0.670600  0.893800  0.836000  1.0
  H  H173  1  0.664000  0.670600  0.606200  1.0
  H  H174  1  0.664000  0.829400  0.893800  1.0
  H  H175  1  0.836000  0.829400  0.606200  1.0
  H  H176  1  0.836000  0.670600  0.893800  1.0
  H  H177  1  0.606200  0.664000  0.670600  1.0
  H  H178  1  0.893800  0.664000  0.829400  1.0
  H  H179  1  0.606200  0.836000  0.829400  1.0
  H  H180  1  0.893800  0.836000  0.670600  1.0
  H  H181  1  0.606200  0.670600  0.836000  1.0
  H  H182  1  0.893800  0.829400  0.836000  1.0
  H  H183  1  0.606200  0.829400  0.664000  1.0
  H  H184  1  0.893800  0.670600  0.664000  1.0
  H  H185  1  0.670600  0.664000  0.893800  1.0
  H  H186  1  0.829400  0.664000  0.606200  1.0
  H  H187  1  0.829400  0.836000  0.893800  1.0
  H  H188  1  0.670600  0.836000  0.606200  1.0
  H  H189  1  0.664000  0.606200  0.829400  1.0
  H  H190  1  0.664000  0.893800  0.670600  1.0
  H  H191  1  0.836000  0.606200  0.670600  1.0
  H  H192  1  0.836000  0.893800  0.829400  1.0
  H  H193  1  0.367500  0.439600  0.336500  1.0
  H  H194  1  0.132500  0.060400  0.336500  1.0
  H  H195  1  0.132500  0.439600  0.163500  1.0
  H  H196  1  0.367500  0.060400  0.163500  1.0
  H  H197  1  0.336500  0.367500  0.439600  1.0
  H  H198  1  0.336500  0.132500  0.060400  1.0
  H  H199  1  0.163500  0.132500  0.439600  1.0
  H  H200  1  0.163500  0.367500  0.060400  1.0
  H  H201  1  0.439600  0.336500  0.367500  1.0
  H  H202  1  0.060400  0.336500  0.132500  1.0
  H  H203  1  0.439600  0.163500  0.132500  1.0
  H  H204  1  0.060400  0.163500  0.367500  1.0
  H  H205  1  0.439600  0.367500  0.163500  1.0
  H  H206  1  0.060400  0.132500  0.163500  1.0
  H  H207  1  0.439600  0.132500  0.336500  1.0
  H  H208  1  0.060400  0.367500  0.336500  1.0
  H  H209  1  0.367500  0.336500  0.060400  1.0
  H  H210  1  0.132500  0.336500  0.439600  1.0
  H  H211  1  0.132500  0.163500  0.060400  1.0
  H  H212  1  0.367500  0.163500  0.439600  1.0
  H  H213  1  0.336500  0.439600  0.132500  1.0
  H  H214  1  0.336500  0.060400  0.367500  1.0
  H  H215  1  0.163500  0.439600  0.367500  1.0
  H  H216  1  0.163500  0.060400  0.132500  1.0
  H  H217  1  0.632500  0.560400  0.663500  1.0
  H  H218  1  0.867500  0.939600  0.663500  1.0
  H  H219  1  0.867500  0.560400  0.836500  1.0
  H  H220  1  0.632500  0.939600  0.836500  1.0
  H  H221  1  0.663500  0.632500  0.560400  1.0
  H  H222  1  0.663500  0.867500  0.939600  1.0
  H  H223  1  0.836500  0.867500  0.560400  1.0
  H  H224  1  0.836500  0.632500  0.939600  1.0
  H  H225  1  0.560400  0.663500  0.632500  1.0
  H  H226  1  0.939600  0.663500  0.867500  1.0
  H  H227  1  0.560400  0.836500  0.867500  1.0
  H  H228  1  0.939600  0.836500  0.632500  1.0
  H  H229  1  0.560400  0.632500  0.836500  1.0
  H  H230  1  0.939600  0.867500  0.836500  1.0
  H  H231  1  0.560400  0.867500  0.663500  1.0
  H  H232  1  0.939600  0.632500  0.663500  1.0
  H  H233  1  0.632500  0.663500  0.939600  1.0
  H  H234  1  0.867500  0.663500  0.560400  1.0
  H  H235  1  0.867500  0.836500  0.939600  1.0
  H  H236  1  0.632500  0.836500  0.560400  1.0
  H  H237  1  0.663500  0.560400  0.867500  1.0
  H  H238  1  0.663500  0.939600  0.632500  1.0
  H  H239  1  0.836500  0.560400  0.632500  1.0
  H  H240  1  0.836500  0.939600  0.867500  1.0
  H  H241  1  0.309200  0.490100  0.268200  1.0
  H  H242  1  0.190800  0.009900  0.268200  1.0
  H  H243  1  0.190800  0.490100  0.231800  1.0
  H  H244  1  0.309200  0.009900  0.231800  1.0
  H  H245  1  0.268200  0.309200  0.490100  1.0
  H  H246  1  0.268200  0.190800  0.009900  1.0
  H  H247  1  0.231800  0.190800  0.490100  1.0
  H  H248  1  0.231800  0.309200  0.009900  1.0
  H  H249  1  0.490100  0.268200  0.309200  1.0
  H  H250  1  0.009900  0.268200  0.190800  1.0
  H  H251  1  0.490100  0.231800  0.190800  1.0
  H  H252  1  0.009900  0.231800  0.309200  1.0
  H  H253  1  0.490100  0.309200  0.231800  1.0
  H  H254  1  0.009900  0.190800  0.231800  1.0
  H  H255  1  0.490100  0.190800  0.268200  1.0
  H  H256  1  0.009900  0.309200  0.268200  1.0
  H  H257  1  0.309200  0.268200  0.009900  1.0
  H  H258  1  0.190800  0.268200  0.490100  1.0
  H  H259  1  0.190800  0.231800  0.009900  1.0
  H  H260  1  0.309200  0.231800  0.490100  1.0
  H  H261  1  0.268200  0.490100  0.190800  1.0
  H  H262  1  0.268200  0.009900  0.309200  1.0
  H  H263  1  0.231800  0.490100  0.309200  1.0
  H  H264  1  0.231800  0.009900  0.190800  1.0
  H  H265  1  0.690800  0.509900  0.731800  1.0
  H  H266  1  0.809200  0.990100  0.731800  1.0
  H  H267  1  0.809200  0.509900  0.768200  1.0
  H  H268  1  0.690800  0.990100  0.768200  1.0
  H  H269  1  0.731800  0.690800  0.509900  1.0
  H  H270  1  0.731800  0.809200  0.990100  1.0
  H  H271  1  0.768200  0.809200  0.509900  1.0
  H  H272  1  0.768200  0.690800  0.990100  1.0
  H  H273  1  0.509900  0.731800  0.690800  1.0
  H  H274  1  0.990100  0.731800  0.809200  1.0
  H  H275  1  0.509900  0.768200  0.809200  1.0
  H  H276  1  0.990100  0.768200  0.690800  1.0
  H  H277  1  0.509900  0.690800  0.768200  1.0
  H  H278  1  0.990100  0.809200  0.768200  1.0
  H  H279  1  0.509900  0.809200  0.731800  1.0
  H  H280  1  0.990100  0.690800  0.731800  1.0
  H  H281  1  0.690800  0.731800  0.990100  1.0
  H  H282  1  0.809200  0.731800  0.509900  1.0
  H  H283  1  0.809200  0.768200  0.990100  1.0
  H  H284  1  0.690800  0.768200  0.509900  1.0
  H  H285  1  0.731800  0.509900  0.809200  1.0
  H  H286  1  0.731800  0.990100  0.690800  1.0
  H  H287  1  0.768200  0.509900  0.690800  1.0
  H  H288  1  0.768200  0.990100  0.809200  1.0
  H  H289  1  0.382200  0.577700  0.269200  1.0
  H  H290  1  0.117800  0.922300  0.269200  1.0
  H  H291  1  0.117800  0.577700  0.230800  1.0
  H  H292  1  0.382200  0.922300  0.230800  1.0
  H  H293  1  0.269200  0.382200  0.577700  1.0
  H  H294  1  0.269200  0.117800  0.922300  1.0
  H  H295  1  0.230800  0.117800  0.577700  1.0
  H  H296  1  0.230800  0.382200  0.922300  1.0
  H  H297  1  0.577700  0.269200  0.382200  1.0
  H  H298  1  0.922300  0.269200  0.117800  1.0
  H  H299  1  0.577700  0.230800  0.117800  1.0
  H  H300  1  0.922300  0.230800  0.382200  1.0
  H  H301  1  0.577700  0.382200  0.230800  1.0
  H  H302  1  0.922300  0.117800  0.230800  1.0
  H  H303  1  0.577700  0.117800  0.269200  1.0
  H  H304  1  0.922300  0.382200  0.269200  1.0
  H  H305  1  0.382200  0.269200  0.922300  1.0
  H  H306  1  0.117800  0.269200  0.577700  1.0
  H  H307  1  0.117800  0.230800  0.922300  1.0
  H  H308  1  0.382200  0.230800  0.577700  1.0
  H  H309  1  0.269200  0.577700  0.117800  1.0
  H  H310  1  0.269200  0.922300  0.382200  1.0
  H  H311  1  0.230800  0.577700  0.382200  1.0
  H  H312  1  0.230800  0.922300  0.117800  1.0
  H  H313  1  0.617800  0.422300  0.730800  1.0
  H  H314  1  0.882200  0.077700  0.730800  1.0
  H  H315  1  0.882200  0.422300  0.769200  1.0
  H  H316  1  0.617800  0.077700  0.769200  1.0
  H  H317  1  0.730800  0.617800  0.422300  1.0
  H  H318  1  0.730800  0.882200  0.077700  1.0
  H  H319  1  0.769200  0.882200  0.422300  1.0
  H  H320  1  0.769200  0.617800  0.077700  1.0
  H  H321  1  0.422300  0.730800  0.617800  1.0
  H  H322  1  0.077700  0.730800  0.882200  1.0
  H  H323  1  0.422300  0.769200  0.882200  1.0
  H  H324  1  0.077700  0.769200  0.617800  1.0
  H  H325  1  0.422300  0.617800  0.769200  1.0
  H  H326  1  0.077700  0.882200  0.769200  1.0
  H  H327  1  0.422300  0.882200  0.730800  1.0
  H  H328  1  0.077700  0.617800  0.730800  1.0
  H  H329  1  0.617800  0.730800  0.077700  1.0
  H  H330  1  0.882200  0.730800  0.422300  1.0
  H  H331  1  0.882200  0.769200  0.077700  1.0
  H  H332  1  0.617800  0.769200  0.422300  1.0
  H  H333  1  0.730800  0.422300  0.882200  1.0
  H  H334  1  0.730800  0.077700  0.617800  1.0
  H  H335  1  0.769200  0.422300  0.617800  1.0
  H  H336  1  0.769200  0.077700  0.882200  1.0
  H  H337  1  0.487300  0.567300  0.322500  1.0
  H  H338  1  0.012700  0.932700  0.322500  1.0
  H  H339  1  0.012700  0.567300  0.177500  1.0
  H  H340  1  0.487300  0.932700  0.177500  1.0
  H  H341  1  0.322500  0.487300  0.567300  1.0
  H  H342  1  0.322500  0.012700  0.932700  1.0
  H  H343  1  0.177500  0.012700  0.567300  1.0
  H  H344  1  0.177500  0.487300  0.932700  1.0
  H  H345  1  0.567300  0.322500  0.487300  1.0
  H  H346  1  0.932700  0.322500  0.012700  1.0
  H  H347  1  0.567300  0.177500  0.012700  1.0
  H  H348  1  0.932700  0.177500  0.487300  1.0
  H  H349  1  0.567300  0.487300  0.177500  1.0
  H  H350  1  0.932700  0.012700  0.177500  1.0
  H  H351  1  0.567300  0.012700  0.322500  1.0
  H  H352  1  0.932700  0.487300  0.322500  1.0
  H  H353  1  0.487300  0.322500  0.932700  1.0
  H  H354  1  0.012700  0.322500  0.567300  1.0
  H  H355  1  0.012700  0.177500  0.932700  1.0
  H  H356  1  0.487300  0.177500  0.567300  1.0
  H  H357  1  0.322500  0.567300  0.012700  1.0
  H  H358  1  0.322500  0.932700  0.487300  1.0
  H  H359  1  0.177500  0.567300  0.487300  1.0
  H  H360  1  0.177500  0.932700  0.012700  1.0
  H  H361  1  0.512700  0.432700  0.677500  1.0
  H  H362  1  0.987300  0.067300  0.677500  1.0
  H  H363  1  0.987300  0.432700  0.822500  1.0
  H  H364  1  0.512700  0.067300  0.822500  1.0
  H  H365  1  0.677500  0.512700  0.432700  1.0
  H  H366  1  0.677500  0.987300  0.067300  1.0
  H  H367  1  0.822500  0.987300  0.432700  1.0
  H  H368  1  0.822500  0.512700  0.067300  1.0
  H  H369  1  0.432700  0.677500  0.512700  1.0
  H  H370  1  0.067300  0.677500  0.987300  1.0
  H  H371  1  0.432700  0.822500  0.987300  1.0
  H  H372  1  0.067300  0.822500  0.512700  1.0
  H  H373  1  0.432700  0.512700  0.822500  1.0
  H  H374  1  0.067300  0.987300  0.822500  1.0
  H  H375  1  0.432700  0.987300  0.677500  1.0
  H  H376  1  0.067300  0.512700  0.677500  1.0
  H  H377  1  0.512700  0.677500  0.067300  1.0
  H  H378  1  0.987300  0.677500  0.432700  1.0
  H  H379  1  0.987300  0.822500  0.067300  1.0
  H  H380  1  0.512700  0.822500  0.432700  1.0
  H  H381  1  0.677500  0.432700  0.987300  1.0
  H  H382  1  0.677500  0.067300  0.512700  1.0
  H  H383  1  0.822500  0.432700  0.512700  1.0
  H  H384  1  0.822500  0.067300  0.987300  1.0
  H  H385  1  0.448100  0.522500  0.325900  1.0
  H  H386  1  0.051900  0.977500  0.325900  1.0
  H  H387  1  0.051900  0.522500  0.174100  1.0
  H  H388  1  0.448100  0.977500  0.174100  1.0
  H  H389  1  0.325900  0.448100  0.522500  1.0
  H  H390  1  0.325900  0.051900  0.977500  1.0
  H  H391  1  0.174100  0.051900  0.522500  1.0
  H  H392  1  0.174100  0.448100  0.977500  1.0
  H  H393  1  0.522500  0.325900  0.448100  1.0
  H  H394  1  0.977500  0.325900  0.051900  1.0
  H  H395  1  0.522500  0.174100  0.051900  1.0
  H  H396  1  0.977500  0.174100  0.448100  1.0
  H  H397  1  0.522500  0.448100  0.174100  1.0
  H  H398  1  0.977500  0.051900  0.174100  1.0
  H  H399  1  0.522500  0.051900  0.325900  1.0
  H  H400  1  0.977500  0.448100  0.325900  1.0
  H  H401  1  0.448100  0.325900  0.977500  1.0
  H  H402  1  0.051900  0.325900  0.522500  1.0
  H  H403  1  0.051900  0.174100  0.977500  1.0
  H  H404  1  0.448100  0.174100  0.522500  1.0
  H  H405  1  0.325900  0.522500  0.051900  1.0
  H  H406  1  0.325900  0.977500  0.448100  1.0
  H  H407  1  0.174100  0.522500  0.448100  1.0
  H  H408  1  0.174100  0.977500  0.051900  1.0
  H  H409  1  0.551900  0.477500  0.674100  1.0
  H  H410  1  0.948100  0.022500  0.674100  1.0
  H  H411  1  0.948100  0.477500  0.825900  1.0
  H  H412  1  0.551900  0.022500  0.825900  1.0
  H  H413  1  0.674100  0.551900  0.477500  1.0
  H  H414  1  0.674100  0.948100  0.022500  1.0
  H  H415  1  0.825900  0.948100  0.477500  1.0
  H  H416  1  0.825900  0.551900  0.022500  1.0
  H  H417  1  0.477500  0.674100  0.551900  1.0
  H  H418  1  0.022500  0.674100  0.948100  1.0
  H  H419  1  0.477500  0.825900  0.948100  1.0
  H  H420  1  0.022500  0.825900  0.551900  1.0
  H  H421  1  0.477500  0.551900  0.825900  1.0
  H  H422  1  0.022500  0.948100  0.825900  1.0
  H  H423  1  0.477500  0.948100  0.674100  1.0
  H  H424  1  0.022500  0.551900  0.674100  1.0
  H  H425  1  0.551900  0.674100  0.022500  1.0
  H  H426  1  0.948100  0.674100  0.477500  1.0
  H  H427  1  0.948100  0.825900  0.022500  1.0
  H  H428  1  0.551900  0.825900  0.477500  1.0
  H  H429  1  0.674100  0.477500  0.948100  1.0
  H  H430  1  0.674100  0.022500  0.551900  1.0
  H  H431  1  0.825900  0.477500  0.551900  1.0
  H  H432  1  0.825900  0.022500  0.948100  1.0
  H  H433  1  0.488900  0.635700  0.316700  1.0
  H  H434  1  0.011100  0.864300  0.316700  1.0
  H  H435  1  0.011100  0.635700  0.183300  1.0
  H  H436  1  0.488900  0.864300  0.183300  1.0
  H  H437  1  0.316700  0.488900  0.635700  1.0
  H  H438  1  0.316700  0.011100  0.864300  1.0
  H  H439  1  0.183300  0.011100  0.635700  1.0
  H  H440  1  0.183300  0.488900  0.864300  1.0
  H  H441  1  0.635700  0.316700  0.488900  1.0
  H  H442  1  0.864300  0.316700  0.011100  1.0
  H  H443  1  0.635700  0.183300  0.011100  1.0
  H  H444  1  0.864300  0.183300  0.488900  1.0
  H  H445  1  0.635700  0.488900  0.183300  1.0
  H  H446  1  0.864300  0.011100  0.183300  1.0
  H  H447  1  0.635700  0.011100  0.316700  1.0
  H  H448  1  0.864300  0.488900  0.316700  1.0
  H  H449  1  0.488900  0.316700  0.864300  1.0
  H  H450  1  0.011100  0.316700  0.635700  1.0
  H  H451  1  0.011100  0.183300  0.864300  1.0
  H  H452  1  0.488900  0.183300  0.635700  1.0
  H  H453  1  0.316700  0.635700  0.011100  1.0
  H  H454  1  0.316700  0.864300  0.488900  1.0
  H  H455  1  0.183300  0.635700  0.488900  1.0
  H  H456  1  0.183300  0.864300  0.011100  1.0
  H  H457  1  0.511100  0.364300  0.683300  1.0
  H  H458  1  0.988900  0.135700  0.683300  1.0
  H  H459  1  0.988900  0.364300  0.816700  1.0
  H  H460  1  0.511100  0.135700  0.816700  1.0
  H  H461  1  0.683300  0.511100  0.364300  1.0
  H  H462  1  0.683300  0.988900  0.135700  1.0
  H  H463  1  0.816700  0.988900  0.364300  1.0
  H  H464  1  0.816700  0.511100  0.135700  1.0
  H  H465  1  0.364300  0.683300  0.511100  1.0
  H  H466  1  0.135700  0.683300  0.988900  1.0
  H  H467  1  0.364300  0.816700  0.988900  1.0
  H  H468  1  0.135700  0.816700  0.511100  1.0
  H  H469  1  0.364300  0.511100  0.816700  1.0
  H  H470  1  0.135700  0.988900  0.816700  1.0
  H  H471  1  0.364300  0.988900  0.683300  1.0
  H  H472  1  0.135700  0.511100  0.683300  1.0
  H  H473  1  0.511100  0.683300  0.135700  1.0
  H  H474  1  0.988900  0.683300  0.364300  1.0
  H  H475  1  0.988900  0.816700  0.135700  1.0
  H  H476  1  0.511100  0.816700  0.364300  1.0
  H  H477  1  0.683300  0.364300  0.988900  1.0
  H  H478  1  0.683300  0.135700  0.511100  1.0
  H  H479  1  0.816700  0.364300  0.511100  1.0
  H  H480  1  0.816700  0.135700  0.988900  1.0
  H  H481  1  0.509700  0.611600  0.291300  1.0
  H  H482  1  0.990300  0.888400  0.291300  1.0
  H  H483  1  0.990300  0.611600  0.208700  1.0
  H  H484  1  0.509700  0.888400  0.208700  1.0
  H  H485  1  0.291300  0.509700  0.611600  1.0
  H  H486  1  0.291300  0.990300  0.888400  1.0
  H  H487  1  0.208700  0.990300  0.611600  1.0
  H  H488  1  0.208700  0.509700  0.888400  1.0
  H  H489  1  0.611600  0.291300  0.509700  1.0
  H  H490  1  0.888400  0.291300  0.990300  1.0
  H  H491  1  0.611600  0.208700  0.990300  1.0
  H  H492  1  0.888400  0.208700  0.509700  1.0
  H  H493  1  0.611600  0.509700  0.208700  1.0
  H  H494  1  0.888400  0.990300  0.208700  1.0
  H  H495  1  0.611600  0.990300  0.291300  1.0
  H  H496  1  0.888400  0.509700  0.291300  1.0
  H  H497  1  0.509700  0.291300  0.888400  1.0
  H  H498  1  0.990300  0.291300  0.611600  1.0
  H  H499  1  0.990300  0.208700  0.888400  1.0
  H  H500  1  0.509700  0.208700  0.611600  1.0
  H  H501  1  0.291300  0.611600  0.990300  1.0
  H  H502  1  0.291300  0.888400  0.509700  1.0
  H  H503  1  0.208700  0.611600  0.509700  1.0
  H  H504  1  0.208700  0.888400  0.990300  1.0
  H  H505  1  0.490300  0.388400  0.708700  1.0
  H  H506  1  0.009700  0.111600  0.708700  1.0
  H  H507  1  0.009700  0.388400  0.791300  1.0
  H  H508  1  0.490300  0.111600  0.791300  1.0
  H  H509  1  0.708700  0.490300  0.388400  1.0
  H  H510  1  0.708700  0.009700  0.111600  1.0
  H  H511  1  0.791300  0.009700  0.388400  1.0
  H  H512  1  0.791300  0.490300  0.111600  1.0
  H  H513  1  0.388400  0.708700  0.490300  1.0
  H  H514  1  0.111600  0.708700  0.009700  1.0
  H  H515  1  0.388400  0.791300  0.009700  1.0
  H  H516  1  0.111600  0.791300  0.490300  1.0
  H  H517  1  0.388400  0.490300  0.791300  1.0
  H  H518  1  0.111600  0.009700  0.791300  1.0
  H  H519  1  0.388400  0.009700  0.708700  1.0
  H  H520  1  0.111600  0.490300  0.708700  1.0
  H  H521  1  0.490300  0.708700  0.111600  1.0
  H  H522  1  0.009700  0.708700  0.388400  1.0
  H  H523  1  0.009700  0.791300  0.111600  1.0
  H  H524  1  0.490300  0.791300  0.388400  1.0
  H  H525  1  0.708700  0.388400  0.009700  1.0
  H  H526  1  0.708700  0.111600  0.490300  1.0
  H  H527  1  0.791300  0.388400  0.490300  1.0
  H  H528  1  0.791300  0.111600  0.009700  1.0
  H  H529  1  0.487400  0.642000  0.245200  1.0
  H  H530  1  0.012600  0.858000  0.245200  1.0
  H  H531  1  0.012600  0.642000  0.254800  1.0
  H  H532  1  0.487400  0.858000  0.254800  1.0
  H  H533  1  0.245200  0.487400  0.642000  1.0
  H  H534  1  0.245200  0.012600  0.858000  1.0
  H  H535  1  0.254800  0.012600  0.642000  1.0
  H  H536  1  0.254800  0.487400  0.858000  1.0
  H  H537  1  0.642000  0.245200  0.487400  1.0
  H  H538  1  0.858000  0.245200  0.012600  1.0
  H  H539  1  0.642000  0.254800  0.012600  1.0
  H  H540  1  0.858000  0.254800  0.487400  1.0
  H  H541  1  0.642000  0.487400  0.254800  1.0
  H  H542  1  0.858000  0.012600  0.254800  1.0
  H  H543  1  0.642000  0.012600  0.245200  1.0
  H  H544  1  0.858000  0.487400  0.245200  1.0
  H  H545  1  0.487400  0.245200  0.858000  1.0
  H  H546  1  0.012600  0.245200  0.642000  1.0
  H  H547  1  0.012600  0.254800  0.858000  1.0
  H  H548  1  0.487400  0.254800  0.642000  1.0
  H  H549  1  0.245200  0.642000  0.012600  1.0
  H  H550  1  0.245200  0.858000  0.487400  1.0
  H  H551  1  0.254800  0.642000  0.487400  1.0
  H  H552  1  0.254800  0.858000  0.012600  1.0
  H  H553  1  0.512600  0.358000  0.754800  1.0
  H  H554  1  0.987400  0.142000  0.754800  1.0
  H  H555  1  0.987400  0.358000  0.745200  1.0
  H  H556  1  0.512600  0.142000  0.745200  1.0
  H  H557  1  0.754800  0.512600  0.358000  1.0
  H  H558  1  0.754800  0.987400  0.142000  1.0
  H  H559  1  0.745200  0.987400  0.358000  1.0
  H  H560  1  0.745200  0.512600  0.142000  1.0
  H  H561  1  0.358000  0.754800  0.512600  1.0
  H  H562  1  0.142000  0.754800  0.987400  1.0
  H  H563  1  0.358000  0.745200  0.987400  1.0
  H  H564  1  0.142000  0.745200  0.512600  1.0
  H  H565  1  0.358000  0.512600  0.745200  1.0
  H  H566  1  0.142000  0.987400  0.745200  1.0
  H  H567  1  0.358000  0.987400  0.754800  1.0
  H  H568  1  0.142000  0.512600  0.754800  1.0
  H  H569  1  0.512600  0.754800  0.142000  1.0
  H  H570  1  0.987400  0.754800  0.358000  1.0
  H  H571  1  0.987400  0.745200  0.142000  1.0
  H  H572  1  0.512600  0.745200  0.358000  1.0
  H  H573  1  0.754800  0.358000  0.987400  1.0
  H  H574  1  0.754800  0.142000  0.512600  1.0
  H  H575  1  0.745200  0.358000  0.512600  1.0
  H  H576  1  0.745200  0.142000  0.987400  1.0
  H  H577  1  0.511200  0.664400  0.270100  1.0
  H  H578  1  0.988800  0.835600  0.270100  1.0
  H  H579  1  0.988800  0.664400  0.229900  1.0
  H  H580  1  0.511200  0.835600  0.229900  1.0
  H  H581  1  0.270100  0.511200  0.664400  1.0
  H  H582  1  0.270100  0.988800  0.835600  1.0
  H  H583  1  0.229900  0.988800  0.664400  1.0
  H  H584  1  0.229900  0.511200  0.835600  1.0
  H  H585  1  0.664400  0.270100  0.511200  1.0
  H  H586  1  0.835600  0.270100  0.988800  1.0
  H  H587  1  0.664400  0.229900  0.988800  1.0
  H  H588  1  0.835600  0.229900  0.511200  1.0
  H  H589  1  0.664400  0.511200  0.229900  1.0
  H  H590  1  0.835600  0.988800  0.229900  1.0
  H  H591  1  0.664400  0.988800  0.270100  1.0
  H  H592  1  0.835600  0.511200  0.270100  1.0
  H  H593  1  0.511200  0.270100  0.835600  1.0
  H  H594  1  0.988800  0.270100  0.664400  1.0
  H  H595  1  0.988800  0.229900  0.835600  1.0
  H  H596  1  0.511200  0.229900  0.664400  1.0
  H  H597  1  0.270100  0.664400  0.988800  1.0
  H  H598  1  0.270100  0.835600  0.511200  1.0
  H  H599  1  0.229900  0.664400  0.511200  1.0
  H  H600  1  0.229900  0.835600  0.988800  1.0
  H  H601  1  0.488800  0.335600  0.729900  1.0
  H  H602  1  0.011200  0.164400  0.729900  1.0
  H  H603  1  0.011200  0.335600  0.770100  1.0
  H  H604  1  0.488800  0.164400  0.770100  1.0
  H  H605  1  0.729900  0.488800  0.335600  1.0
  H  H606  1  0.729900  0.011200  0.164400  1.0
  H  H607  1  0.770100  0.011200  0.335600  1.0
  H  H608  1  0.770100  0.488800  0.164400  1.0
  H  H609  1  0.335600  0.729900  0.488800  1.0
  H  H610  1  0.164400  0.729900  0.011200  1.0
  H  H611  1  0.335600  0.770100  0.011200  1.0
  H  H612  1  0.164400  0.770100  0.488800  1.0
  H  H613  1  0.335600  0.488800  0.770100  1.0
  H  H614  1  0.164400  0.011200  0.770100  1.0
  H  H615  1  0.335600  0.011200  0.729900  1.0
  H  H616  1  0.164400  0.488800  0.729900  1.0
  H  H617  1  0.488800  0.729900  0.164400  1.0
  H  H618  1  0.011200  0.729900  0.335600  1.0
  H  H619  1  0.011200  0.770100  0.164400  1.0
  H  H620  1  0.488800  0.770100  0.335600  1.0
  H  H621  1  0.729900  0.335600  0.011200  1.0
  H  H622  1  0.729900  0.164400  0.488800  1.0
  H  H623  1  0.770100  0.335600  0.488800  1.0
  H  H624  1  0.770100  0.164400  0.011200  1.0
  H  H625  1  0.446800  0.754700  0.302200  1.0
  H  H626  1  0.053200  0.745300  0.302200  1.0
  H  H627  1  0.053200  0.754700  0.197800  1.0
  H  H628  1  0.446800  0.745300  0.197800  1.0
  H  H629  1  0.302200  0.446800  0.754700  1.0
  H  H630  1  0.302200  0.053200  0.745300  1.0
  H  H631  1  0.197800  0.053200  0.754700  1.0
  H  H632  1  0.197800  0.446800  0.745300  1.0
  H  H633  1  0.754700  0.302200  0.446800  1.0
  H  H634  1  0.745300  0.302200  0.053200  1.0
  H  H635  1  0.754700  0.197800  0.053200  1.0
  H  H636  1  0.745300  0.197800  0.446800  1.0
  H  H637  1  0.754700  0.446800  0.197800  1.0
  H  H638  1  0.745300  0.053200  0.197800  1.0
  H  H639  1  0.754700  0.053200  0.302200  1.0
  H  H640  1  0.745300  0.446800  0.302200  1.0
  H  H641  1  0.446800  0.302200  0.745300  1.0
  H  H642  1  0.053200  0.302200  0.754700  1.0
  H  H643  1  0.053200  0.197800  0.745300  1.0
  H  H644  1  0.446800  0.197800  0.754700  1.0
  H  H645  1  0.302200  0.754700  0.053200  1.0
  H  H646  1  0.302200  0.745300  0.446800  1.0
  H  H647  1  0.197800  0.754700  0.446800  1.0
  H  H648  1  0.197800  0.745300  0.053200  1.0
  H  H649  1  0.553200  0.245300  0.697800  1.0
  H  H650  1  0.946800  0.254700  0.697800  1.0
  H  H651  1  0.946800  0.245300  0.802200  1.0
  H  H652  1  0.553200  0.254700  0.802200  1.0
  H  H653  1  0.697800  0.553200  0.245300  1.0
  H  H654  1  0.697800  0.946800  0.254700  1.0
  H  H655  1  0.802200  0.946800  0.245300  1.0
  H  H656  1  0.802200  0.553200  0.254700  1.0
  H  H657  1  0.245300  0.697800  0.553200  1.0
  H  H658  1  0.254700  0.697800  0.946800  1.0
  H  H659  1  0.245300  0.802200  0.946800  1.0
  H  H660  1  0.254700  0.802200  0.553200  1.0
  H  H661  1  0.245300  0.553200  0.802200  1.0
  H  H662  1  0.254700  0.946800  0.802200  1.0
  H  H663  1  0.245300  0.946800  0.697800  1.0
  H  H664  1  0.254700  0.553200  0.697800  1.0
  H  H665  1  0.553200  0.697800  0.254700  1.0
  H  H666  1  0.946800  0.697800  0.245300  1.0
  H  H667  1  0.946800  0.802200  0.254700  1.0
  H  H668  1  0.553200  0.802200  0.245300  1.0
  H  H669  1  0.697800  0.245300  0.946800  1.0
  H  H670  1  0.697800  0.254700  0.553200  1.0
  H  H671  1  0.802200  0.245300  0.553200  1.0
  H  H672  1  0.802200  0.254700  0.946800  1.0
  H  H673  1  0.490200  0.715800  0.290200  1.0
  H  H674  1  0.009800  0.784200  0.290200  1.0
  H  H675  1  0.009800  0.715800  0.209800  1.0
  H  H676  1  0.490200  0.784200  0.209800  1.0
  H  H677  1  0.290200  0.490200  0.715800  1.0
  H  H678  1  0.290200  0.009800  0.784200  1.0
  H  H679  1  0.209800  0.009800  0.715800  1.0
  H  H680  1  0.209800  0.490200  0.784200  1.0
  H  H681  1  0.715800  0.290200  0.490200  1.0
  H  H682  1  0.784200  0.290200  0.009800  1.0
  H  H683  1  0.715800  0.209800  0.009800  1.0
  H  H684  1  0.784200  0.209800  0.490200  1.0
  H  H685  1  0.715800  0.490200  0.209800  1.0
  H  H686  1  0.784200  0.009800  0.209800  1.0
  H  H687  1  0.715800  0.009800  0.290200  1.0
  H  H688  1  0.784200  0.490200  0.290200  1.0
  H  H689  1  0.490200  0.290200  0.784200  1.0
  H  H690  1  0.009800  0.290200  0.715800  1.0
  H  H691  1  0.009800  0.209800  0.784200  1.0
  H  H692  1  0.490200  0.209800  0.715800  1.0
  H  H693  1  0.290200  0.715800  0.009800  1.0
  H  H694  1  0.290200  0.784200  0.490200  1.0
  H  H695  1  0.209800  0.715800  0.490200  1.0
  H  H696  1  0.209800  0.784200  0.009800  1.0
  H  H697  1  0.509800  0.284200  0.709800  1.0
  H  H698  1  0.990200  0.215800  0.709800  1.0
  H  H699  1  0.990200  0.284200  0.790200  1.0
  H  H700  1  0.509800  0.215800  0.790200  1.0
  H  H701  1  0.709800  0.509800  0.284200  1.0
  H  H702  1  0.709800  0.990200  0.215800  1.0
  H  H703  1  0.790200  0.990200  0.284200  1.0
  H  H704  1  0.790200  0.509800  0.215800  1.0
  H  H705  1  0.284200  0.709800  0.509800  1.0
  H  H706  1  0.215800  0.709800  0.990200  1.0
  H  H707  1  0.284200  0.790200  0.990200  1.0
  H  H708  1  0.215800  0.790200  0.509800  1.0
  H  H709  1  0.284200  0.509800  0.790200  1.0
  H  H710  1  0.215800  0.990200  0.790200  1.0
  H  H711  1  0.284200  0.990200  0.709800  1.0
  H  H712  1  0.215800  0.509800  0.709800  1.0
  H  H713  1  0.509800  0.709800  0.215800  1.0
  H  H714  1  0.990200  0.709800  0.284200  1.0
  H  H715  1  0.990200  0.790200  0.215800  1.0
  H  H716  1  0.509800  0.790200  0.284200  1.0
  H  H717  1  0.709800  0.284200  0.990200  1.0
  H  H718  1  0.709800  0.215800  0.509800  1.0
  H  H719  1  0.790200  0.284200  0.509800  1.0
  H  H720  1  0.790200  0.215800  0.990200  1.0
  H  H721  1  0.376500  0.685400  0.271600  1.0
  H  H722  1  0.123500  0.814600  0.271600  1.0
  H  H723  1  0.123500  0.685400  0.228400  1.0
  H  H724  1  0.376500  0.814600  0.228400  1.0
  H  H725  1  0.271600  0.376500  0.685400  1.0
  H  H726  1  0.271600  0.123500  0.814600  1.0
  H  H727  1  0.228400  0.123500  0.685400  1.0
  H  H728  1  0.228400  0.376500  0.814600  1.0
  H  H729  1  0.685400  0.271600  0.376500  1.0
  H  H730  1  0.814600  0.271600  0.123500  1.0
  H  H731  1  0.685400  0.228400  0.123500  1.0
  H  H732  1  0.814600  0.228400  0.376500  1.0
  H  H733  1  0.685400  0.376500  0.228400  1.0
  H  H734  1  0.814600  0.123500  0.228400  1.0
  H  H735  1  0.685400  0.123500  0.271600  1.0
  H  H736  1  0.814600  0.376500  0.271600  1.0
  H  H737  1  0.376500  0.271600  0.814600  1.0
  H  H738  1  0.123500  0.271600  0.685400  1.0
  H  H739  1  0.123500  0.228400  0.814600  1.0
  H  H740  1  0.376500  0.228400  0.685400  1.0
  H  H741  1  0.271600  0.685400  0.123500  1.0
  H  H742  1  0.271600  0.814600  0.376500  1.0
  H  H743  1  0.228400  0.685400  0.376500  1.0
  H  H744  1  0.228400  0.814600  0.123500  1.0
  H  H745  1  0.623500  0.314600  0.728400  1.0
  H  H746  1  0.876500  0.185400  0.728400  1.0
  H  H747  1  0.876500  0.314600  0.771600  1.0
  H  H748  1  0.623500  0.185400  0.771600  1.0
  H  H749  1  0.728400  0.623500  0.314600  1.0
  H  H750  1  0.728400  0.876500  0.185400  1.0
  H  H751  1  0.771600  0.876500  0.314600  1.0
  H  H752  1  0.771600  0.623500  0.185400  1.0
  H  H753  1  0.314600  0.728400  0.623500  1.0
  H  H754  1  0.185400  0.728400  0.876500  1.0
  H  H755  1  0.314600  0.771600  0.876500  1.0
  H  H756  1  0.185400  0.771600  0.623500  1.0
  H  H757  1  0.314600  0.623500  0.771600  1.0
  H  H758  1  0.185400  0.876500  0.771600  1.0
  H  H759  1  0.314600  0.876500  0.728400  1.0
  H  H760  1  0.185400  0.623500  0.728400  1.0
  H  H761  1  0.623500  0.728400  0.185400  1.0
  H  H762  1  0.876500  0.728400  0.314600  1.0
  H  H763  1  0.876500  0.771600  0.185400  1.0
  H  H764  1  0.623500  0.771600  0.314600  1.0
  H  H765  1  0.728400  0.314600  0.876500  1.0
  H  H766  1  0.728400  0.185400  0.623500  1.0
  H  H767  1  0.771600  0.314600  0.623500  1.0
  H  H768  1  0.771600  0.185400  0.876500  1.0
  H  H769  1  0.308900  0.785700  0.265000  1.0
  H  H770  1  0.191100  0.714300  0.265000  1.0
  H  H771  1  0.191100  0.785700  0.235000  1.0
  H  H772  1  0.308900  0.714300  0.235000  1.0
  H  H773  1  0.265000  0.308900  0.785700  1.0
  H  H774  1  0.265000  0.191100  0.714300  1.0
  H  H775  1  0.235000  0.191100  0.785700  1.0
  H  H776  1  0.235000  0.308900  0.714300  1.0
  H  H777  1  0.785700  0.265000  0.308900  1.0
  H  H778  1  0.714300  0.265000  0.191100  1.0
  H  H779  1  0.785700  0.235000  0.191100  1.0
  H  H780  1  0.714300  0.235000  0.308900  1.0
  H  H781  1  0.785700  0.308900  0.235000  1.0
  H  H782  1  0.714300  0.191100  0.235000  1.0
  H  H783  1  0.785700  0.191100  0.265000  1.0
  H  H784  1  0.714300  0.308900  0.265000  1.0
  H  H785  1  0.308900  0.265000  0.714300  1.0
  H  H786  1  0.191100  0.265000  0.785700  1.0
  H  H787  1  0.191100  0.235000  0.714300  1.0
  H  H788  1  0.308900  0.235000  0.785700  1.0
  H  H789  1  0.265000  0.785700  0.191100  1.0
  H  H790  1  0.265000  0.714300  0.308900  1.0
  H  H791  1  0.235000  0.785700  0.308900  1.0
  H  H792  1  0.235000  0.714300  0.191100  1.0
  H  H793  1  0.691100  0.214300  0.735000  1.0
  H  H794  1  0.808900  0.285700  0.735000  1.0
  H  H795  1  0.808900  0.214300  0.765000  1.0
  H  H796  1  0.691100  0.285700  0.765000  1.0
  H  H797  1  0.735000  0.691100  0.214300  1.0
  H  H798  1  0.735000  0.808900  0.285700  1.0
  H  H799  1  0.765000  0.808900  0.214300  1.0
  H  H800  1  0.765000  0.691100  0.285700  1.0
  H  H801  1  0.214300  0.735000  0.691100  1.0
  H  H802  1  0.285700  0.735000  0.808900  1.0
  H  H803  1  0.214300  0.765000  0.808900  1.0
  H  H804  1  0.285700  0.765000  0.691100  1.0
  H  H805  1  0.214300  0.691100  0.765000  1.0
  H  H806  1  0.285700  0.808900  0.765000  1.0
  H  H807  1  0.214300  0.808900  0.735000  1.0
  H  H808  1  0.285700  0.691100  0.735000  1.0
  H  H809  1  0.691100  0.735000  0.285700  1.0
  H  H810  1  0.808900  0.735000  0.214300  1.0
  H  H811  1  0.808900  0.765000  0.285700  1.0
  H  H812  1  0.691100  0.765000  0.214300  1.0
  H  H813  1  0.735000  0.214300  0.808900  1.0
  H  H814  1  0.735000  0.285700  0.691100  1.0
  H  H815  1  0.765000  0.214300  0.691100  1.0
  H  H816  1  0.765000  0.285700  0.808900  1.0
  H  H817  1  0.360300  0.822300  0.346700  1.0
  H  H818  1  0.139700  0.677700  0.346700  1.0
  H  H819  1  0.139700  0.822300  0.153300  1.0
  H  H820  1  0.360300  0.677700  0.153300  1.0
  H  H821  1  0.346700  0.360300  0.822300  1.0
  H  H822  1  0.346700  0.139700  0.677700  1.0
  H  H823  1  0.153300  0.139700  0.822300  1.0
  H  H824  1  0.153300  0.360300  0.677700  1.0
  H  H825  1  0.822300  0.346700  0.360300  1.0
  H  H826  1  0.677700  0.346700  0.139700  1.0
  H  H827  1  0.822300  0.153300  0.139700  1.0
  H  H828  1  0.677700  0.153300  0.360300  1.0
  H  H829  1  0.822300  0.360300  0.153300  1.0
  H  H830  1  0.677700  0.139700  0.153300  1.0
  H  H831  1  0.822300  0.139700  0.346700  1.0
  H  H832  1  0.677700  0.360300  0.346700  1.0
  H  H833  1  0.360300  0.346700  0.677700  1.0
  H  H834  1  0.139700  0.346700  0.822300  1.0
  H  H835  1  0.139700  0.153300  0.677700  1.0
  H  H836  1  0.360300  0.153300  0.822300  1.0
  H  H837  1  0.346700  0.822300  0.139700  1.0
  H  H838  1  0.346700  0.677700  0.360300  1.0
  H  H839  1  0.153300  0.822300  0.360300  1.0
  H  H840  1  0.153300  0.677700  0.139700  1.0
  H  H841  1  0.639700  0.177700  0.653300  1.0
  H  H842  1  0.860300  0.322300  0.653300  1.0
  H  H843  1  0.860300  0.177700  0.846700  1.0
  H  H844  1  0.639700  0.322300  0.846700  1.0
  H  H845  1  0.653300  0.639700  0.177700  1.0
  H  H846  1  0.653300  0.860300  0.322300  1.0
  H  H847  1  0.846700  0.860300  0.177700  1.0
  H  H848  1  0.846700  0.639700  0.322300  1.0
  H  H849  1  0.177700  0.653300  0.639700  1.0
  H  H850  1  0.322300  0.653300  0.860300  1.0
  H  H851  1  0.177700  0.846700  0.860300  1.0
  H  H852  1  0.322300  0.846700  0.639700  1.0
  H  H853  1  0.177700  0.639700  0.846700  1.0
  H  H854  1  0.322300  0.860300  0.846700  1.0
  H  H855  1  0.177700  0.860300  0.653300  1.0
  H  H856  1  0.322300  0.639700  0.653300  1.0
  H  H857  1  0.639700  0.653300  0.322300  1.0
  H  H858  1  0.860300  0.653300  0.177700  1.0
  H  H859  1  0.860300  0.846700  0.322300  1.0
  H  H860  1  0.639700  0.846700  0.177700  1.0
  H  H861  1  0.653300  0.177700  0.860300  1.0
  H  H862  1  0.653300  0.322300  0.639700  1.0
  H  H863  1  0.846700  0.177700  0.639700  1.0
  H  H864  1  0.846700  0.322300  0.860300  1.0
  H  H865  1  0.321800  0.867700  0.349400  1.0
  H  H866  1  0.178200  0.632300  0.349400  1.0
  H  H867  1  0.178200  0.867700  0.150600  1.0
  H  H868  1  0.321800  0.632300  0.150600  1.0
  H  H869  1  0.349400  0.321800  0.867700  1.0
  H  H870  1  0.349400  0.178200  0.632300  1.0
  H  H871  1  0.150600  0.178200  0.867700  1.0
  H  H872  1  0.150600  0.321800  0.632300  1.0
  H  H873  1  0.867700  0.349400  0.321800  1.0
  H  H874  1  0.632300  0.349400  0.178200  1.0
  H  H875  1  0.867700  0.150600  0.178200  1.0
  H  H876  1  0.632300  0.150600  0.321800  1.0
  H  H877  1  0.867700  0.321800  0.150600  1.0
  H  H878  1  0.632300  0.178200  0.150600  1.0
  H  H879  1  0.867700  0.178200  0.349400  1.0
  H  H880  1  0.632300  0.321800  0.349400  1.0
  H  H881  1  0.321800  0.349400  0.632300  1.0
  H  H882  1  0.178200  0.349400  0.867700  1.0
  H  H883  1  0.178200  0.150600  0.632300  1.0
  H  H884  1  0.321800  0.150600  0.867700  1.0
  H  H885  1  0.349400  0.867700  0.178200  1.0
  H  H886  1  0.349400  0.632300  0.321800  1.0
  H  H887  1  0.150600  0.867700  0.321800  1.0
  H  H888  1  0.150600  0.632300  0.178200  1.0
  H  H889  1  0.678200  0.132300  0.650600  1.0
  H  H890  1  0.821800  0.367700  0.650600  1.0
  H  H891  1  0.821800  0.132300  0.849400  1.0
  H  H892  1  0.678200  0.367700  0.849400  1.0
  H  H893  1  0.650600  0.678200  0.132300  1.0
  H  H894  1  0.650600  0.821800  0.367700  1.0
  H  H895  1  0.849400  0.821800  0.132300  1.0
  H  H896  1  0.849400  0.678200  0.367700  1.0
  H  H897  1  0.132300  0.650600  0.678200  1.0
  H  H898  1  0.367700  0.650600  0.821800  1.0
  H  H899  1  0.132300  0.849400  0.821800  1.0
  H  H900  1  0.367700  0.849400  0.678200  1.0
  H  H901  1  0.132300  0.678200  0.849400  1.0
  H  H902  1  0.367700  0.821800  0.849400  1.0
  H  H903  1  0.132300  0.821800  0.650600  1.0
  H  H904  1  0.367700  0.678200  0.650600  1.0
  H  H905  1  0.678200  0.650600  0.367700  1.0
  H  H906  1  0.821800  0.650600  0.132300  1.0
  H  H907  1  0.821800  0.849400  0.367700  1.0
  H  H908  1  0.678200  0.849400  0.132300  1.0
  H  H909  1  0.650600  0.132300  0.821800  1.0
  H  H910  1  0.650600  0.367700  0.678200  1.0
  H  H911  1  0.849400  0.132300  0.678200  1.0
  H  H912  1  0.849400  0.367700  0.821800  1.0
  H  H913  1  0.277200  0.871600  0.310400  1.0
  H  H914  1  0.222800  0.628400  0.310400  1.0
  H  H915  1  0.222800  0.871600  0.189600  1.0
  H  H916  1  0.277200  0.628400  0.189600  1.0
  H  H917  1  0.310400  0.277200  0.871600  1.0
  H  H918  1  0.310400  0.222800  0.628400  1.0
  H  H919  1  0.189600  0.222800  0.871600  1.0
  H  H920  1  0.189600  0.277200  0.628400  1.0
  H  H921  1  0.871600  0.310400  0.277200  1.0
  H  H922  1  0.628400  0.310400  0.222800  1.0
  H  H923  1  0.871600  0.189600  0.222800  1.0
  H  H924  1  0.628400  0.189600  0.277200  1.0
  H  H925  1  0.871600  0.277200  0.189600  1.0
  H  H926  1  0.628400  0.222800  0.189600  1.0
  H  H927  1  0.871600  0.222800  0.310400  1.0
  H  H928  1  0.628400  0.277200  0.310400  1.0
  H  H929  1  0.277200  0.310400  0.628400  1.0
  H  H930  1  0.222800  0.310400  0.871600  1.0
  H  H931  1  0.222800  0.189600  0.628400  1.0
  H  H932  1  0.277200  0.189600  0.871600  1.0
  H  H933  1  0.310400  0.871600  0.222800  1.0
  H  H934  1  0.310400  0.628400  0.277200  1.0
  H  H935  1  0.189600  0.871600  0.277200  1.0
  H  H936  1  0.189600  0.628400  0.222800  1.0
  H  H937  1  0.722800  0.128400  0.689600  1.0
  H  H938  1  0.777200  0.371600  0.689600  1.0
  H  H939  1  0.777200  0.128400  0.810400  1.0
  H  H940  1  0.722800  0.371600  0.810400  1.0
  H  H941  1  0.689600  0.722800  0.128400  1.0
  H  H942  1  0.689600  0.777200  0.371600  1.0
  H  H943  1  0.810400  0.777200  0.128400  1.0
  H  H944  1  0.810400  0.722800  0.371600  1.0
  H  H945  1  0.128400  0.689600  0.722800  1.0
  H  H946  1  0.371600  0.689600  0.777200  1.0
  H  H947  1  0.128400  0.810400  0.777200  1.0
  H  H948  1  0.371600  0.810400  0.722800  1.0
  H  H949  1  0.128400  0.722800  0.810400  1.0
  H  H950  1  0.371600  0.777200  0.810400  1.0
  H  H951  1  0.128400  0.777200  0.689600  1.0
  H  H952  1  0.371600  0.722800  0.689600  1.0
  H  H953  1  0.722800  0.689600  0.371600  1.0
  H  H954  1  0.777200  0.689600  0.128400  1.0
  H  H955  1  0.777200  0.810400  0.371600  1.0
  H  H956  1  0.722800  0.810400  0.128400  1.0
  H  H957  1  0.689600  0.128400  0.777200  1.0
  H  H958  1  0.689600  0.371600  0.722800  1.0
  H  H959  1  0.810400  0.128400  0.722800  1.0
  H  H960  1  0.810400  0.371600  0.777200  1.0
  H  H961  1  0.449200  0.581100  0.218800  1.0
  H  H962  1  0.050800  0.918900  0.218800  1.0
  H  H963  1  0.050800  0.581100  0.281200  1.0
  H  H964  1  0.449200  0.918900  0.281200  1.0
  H  H965  1  0.218800  0.449200  0.581100  1.0
  H  H966  1  0.218800  0.050800  0.918900  1.0
  H  H967  1  0.281200  0.050800  0.581100  1.0
  H  H968  1  0.281200  0.449200  0.918900  1.0
  H  H969  1  0.581100  0.218800  0.449200  1.0
  H  H970  1  0.918900  0.218800  0.050800  1.0
  H  H971  1  0.581100  0.281200  0.050800  1.0
  H  H972  1  0.918900  0.281200  0.449200  1.0
  H  H973  1  0.581100  0.449200  0.281200  1.0
  H  H974  1  0.918900  0.050800  0.281200  1.0
  H  H975  1  0.581100  0.050800  0.218800  1.0
  H  H976  1  0.918900  0.449200  0.218800  1.0
  H  H977  1  0.449200  0.218800  0.918900  1.0
  H  H978  1  0.050800  0.218800  0.581100  1.0
  H  H979  1  0.050800  0.281200  0.918900  1.0
  H  H980  1  0.449200  0.281200  0.581100  1.0
  H  H981  1  0.218800  0.581100  0.050800  1.0
  H  H982  1  0.218800  0.918900  0.449200  1.0
  H  H983  1  0.281200  0.581100  0.449200  1.0
  H  H984  1  0.281200  0.918900  0.050800  1.0
  H  H985  1  0.550800  0.418900  0.781200  1.0
  H  H986  1  0.949200  0.081100  0.781200  1.0
  H  H987  1  0.949200  0.418900  0.718800  1.0
  H  H988  1  0.550800  0.081100  0.718800  1.0
  H  H989  1  0.781200  0.550800  0.418900  1.0
  H  H990  1  0.781200  0.949200  0.081100  1.0
  H  H991  1  0.718800  0.949200  0.418900  1.0
  H  H992  1  0.718800  0.550800  0.081100  1.0
  H  H993  1  0.418900  0.781200  0.550800  1.0
  H  H994  1  0.081100  0.781200  0.949200  1.0
  H  H995  1  0.418900  0.718800  0.949200  1.0
  H  H996  1  0.081100  0.718800  0.550800  1.0
  H  H997  1  0.418900  0.550800  0.718800  1.0
  H  H998  1  0.081100  0.949200  0.718800  1.0
  H  H999  1  0.418900  0.949200  0.781200  1.0
  H  H1000  1  0.081100  0.550800  0.781200  1.0
  H  H1001  1  0.550800  0.781200  0.081100  1.0
  H  H1002  1  0.949200  0.781200  0.418900  1.0
  H  H1003  1  0.949200  0.718800  0.081100  1.0
  H  H1004  1  0.550800  0.718800  0.418900  1.0
  H  H1005  1  0.781200  0.418900  0.949200  1.0
  H  H1006  1  0.781200  0.081100  0.550800  1.0
  H  H1007  1  0.718800  0.418900  0.550800  1.0
  H  H1008  1  0.718800  0.081100  0.949200  1.0
  H  H1009  1  0.471400  0.579100  0.163900  1.0
  H  H1010  1  0.028600  0.920900  0.163900  1.0
  H  H1011  1  0.028600  0.579100  0.336100  1.0
  H  H1012  1  0.471400  0.920900  0.336100  1.0
  H  H1013  1  0.163900  0.471400  0.579100  1.0
  H  H1014  1  0.163900  0.028600  0.920900  1.0
  H  H1015  1  0.336100  0.028600  0.579100  1.0
  H  H1016  1  0.336100  0.471400  0.920900  1.0
  H  H1017  1  0.579100  0.163900  0.471400  1.0
  H  H1018  1  0.920900  0.163900  0.028600  1.0
  H  H1019  1  0.579100  0.336100  0.028600  1.0
  H  H1020  1  0.920900  0.336100  0.471400  1.0
  H  H1021  1  0.579100  0.471400  0.336100  1.0
  H  H1022  1  0.920900  0.028600  0.336100  1.0
  H  H1023  1  0.579100  0.028600  0.163900  1.0
  H  H1024  1  0.920900  0.471400  0.163900  1.0
  H  H1025  1  0.471400  0.163900  0.920900  1.0
  H  H1026  1  0.028600  0.163900  0.579100  1.0
  H  H1027  1  0.028600  0.336100  0.920900  1.0
  H  H1028  1  0.471400  0.336100  0.579100  1.0
  H  H1029  1  0.163900  0.579100  0.028600  1.0
  H  H1030  1  0.163900  0.920900  0.471400  1.0
  H  H1031  1  0.336100  0.579100  0.471400  1.0
  H  H1032  1  0.336100  0.920900  0.028600  1.0
  H  H1033  1  0.528600  0.420900  0.836100  1.0
  H  H1034  1  0.971400  0.079100  0.836100  1.0
  H  H1035  1  0.971400  0.420900  0.663900  1.0
  H  H1036  1  0.528600  0.079100  0.663900  1.0
  H  H1037  1  0.836100  0.528600  0.420900  1.0
  H  H1038  1  0.836100  0.971400  0.079100  1.0
  H  H1039  1  0.663900  0.971400  0.420900  1.0
  H  H1040  1  0.663900  0.528600  0.079100  1.0
  H  H1041  1  0.420900  0.836100  0.528600  1.0
  H  H1042  1  0.079100  0.836100  0.971400  1.0
  H  H1043  1  0.420900  0.663900  0.971400  1.0
  H  H1044  1  0.079100  0.663900  0.528600  1.0
  H  H1045  1  0.420900  0.528600  0.663900  1.0
  H  H1046  1  0.079100  0.971400  0.663900  1.0
  H  H1047  1  0.420900  0.971400  0.836100  1.0
  H  H1048  1  0.079100  0.528600  0.836100  1.0
  H  H1049  1  0.528600  0.836100  0.079100  1.0
  H  H1050  1  0.971400  0.836100  0.420900  1.0
  H  H1051  1  0.971400  0.663900  0.079100  1.0
  H  H1052  1  0.528600  0.663900  0.420900  1.0
  H  H1053  1  0.836100  0.420900  0.971400  1.0
  H  H1054  1  0.836100  0.079100  0.528600  1.0
  H  H1055  1  0.663900  0.420900  0.528600  1.0
  H  H1056  1  0.663900  0.079100  0.971400  1.0
  H  H1057  1  0.438100  0.675500  0.147200  1.0
  H  H1058  1  0.061900  0.824500  0.147200  1.0
  H  H1059  1  0.061900  0.675500  0.352800  1.0
  H  H1060  1  0.438100  0.824500  0.352800  1.0
  H  H1061  1  0.147200  0.438100  0.675500  1.0
  H  H1062  1  0.147200  0.061900  0.824500  1.0
  H  H1063  1  0.352800  0.061900  0.675500  1.0
  H  H1064  1  0.352800  0.438100  0.824500  1.0
  H  H1065  1  0.675500  0.147200  0.438100  1.0
  H  H1066  1  0.824500  0.147200  0.061900  1.0
  H  H1067  1  0.675500  0.352800  0.061900  1.0
  H  H1068  1  0.824500  0.352800  0.438100  1.0
  H  H1069  1  0.675500  0.438100  0.352800  1.0
  H  H1070  1  0.824500  0.061900  0.352800  1.0
  H  H1071  1  0.675500  0.061900  0.147200  1.0
  H  H1072  1  0.824500  0.438100  0.147200  1.0
  H  H1073  1  0.438100  0.147200  0.824500  1.0
  H  H1074  1  0.061900  0.147200  0.675500  1.0
  H  H1075  1  0.061900  0.352800  0.824500  1.0
  H  H1076  1  0.438100  0.352800  0.675500  1.0
  H  H1077  1  0.147200  0.675500  0.061900  1.0
  H  H1078  1  0.147200  0.824500  0.438100  1.0
  H  H1079  1  0.352800  0.675500  0.438100  1.0
  H  H1080  1  0.352800  0.824500  0.061900  1.0
  H  H1081  1  0.561900  0.324500  0.852800  1.0
  H  H1082  1  0.938100  0.175500  0.852800  1.0
  H  H1083  1  0.938100  0.324500  0.647200  1.0
  H  H1084  1  0.561900  0.175500  0.647200  1.0
  H  H1085  1  0.852800  0.561900  0.324500  1.0
  H  H1086  1  0.852800  0.938100  0.175500  1.0
  H  H1087  1  0.647200  0.938100  0.324500  1.0
  H  H1088  1  0.647200  0.561900  0.175500  1.0
  H  H1089  1  0.324500  0.852800  0.561900  1.0
  H  H1090  1  0.175500  0.852800  0.938100  1.0
  H  H1091  1  0.324500  0.647200  0.938100  1.0
  H  H1092  1  0.175500  0.647200  0.561900  1.0
  H  H1093  1  0.324500  0.561900  0.647200  1.0
  H  H1094  1  0.175500  0.938100  0.647200  1.0
  H  H1095  1  0.324500  0.938100  0.852800  1.0
  H  H1096  1  0.175500  0.561900  0.852800  1.0
  H  H1097  1  0.561900  0.852800  0.175500  1.0
  H  H1098  1  0.938100  0.852800  0.324500  1.0
  H  H1099  1  0.938100  0.647200  0.175500  1.0
  H  H1100  1  0.561900  0.647200  0.324500  1.0
  H  H1101  1  0.852800  0.324500  0.938100  1.0
  H  H1102  1  0.852800  0.175500  0.561900  1.0
  H  H1103  1  0.647200  0.324500  0.561900  1.0
  H  H1104  1  0.647200  0.175500  0.938100  1.0
  H  H1105  1  0.420300  0.677500  0.203400  1.0
  H  H1106  1  0.079700  0.822500  0.203400  1.0
  H  H1107  1  0.079700  0.677500  0.296600  1.0
  H  H1108  1  0.420300  0.822500  0.296600  1.0
  H  H1109  1  0.203400  0.420300  0.677500  1.0
  H  H1110  1  0.203400  0.079700  0.822500  1.0
  H  H1111  1  0.296600  0.079700  0.677500  1.0
  H  H1112  1  0.296600  0.420300  0.822500  1.0
  H  H1113  1  0.677500  0.203400  0.420300  1.0
  H  H1114  1  0.822500  0.203400  0.079700  1.0
  H  H1115  1  0.677500  0.296600  0.079700  1.0
  H  H1116  1  0.822500  0.296600  0.420300  1.0
  H  H1117  1  0.677500  0.420300  0.296600  1.0
  H  H1118  1  0.822500  0.079700  0.296600  1.0
  H  H1119  1  0.677500  0.079700  0.203400  1.0
  H  H1120  1  0.822500  0.420300  0.203400  1.0
  H  H1121  1  0.420300  0.203400  0.822500  1.0
  H  H1122  1  0.079700  0.203400  0.677500  1.0
  H  H1123  1  0.079700  0.296600  0.822500  1.0
  H  H1124  1  0.420300  0.296600  0.677500  1.0
  H  H1125  1  0.203400  0.677500  0.079700  1.0
  H  H1126  1  0.203400  0.822500  0.420300  1.0
  H  H1127  1  0.296600  0.677500  0.420300  1.0
  H  H1128  1  0.296600  0.822500  0.079700  1.0
  H  H1129  1  0.579700  0.322500  0.796600  1.0
  H  H1130  1  0.920300  0.177500  0.796600  1.0
  H  H1131  1  0.920300  0.322500  0.703400  1.0
  H  H1132  1  0.579700  0.177500  0.703400  1.0
  H  H1133  1  0.796600  0.579700  0.322500  1.0
  H  H1134  1  0.796600  0.920300  0.177500  1.0
  H  H1135  1  0.703400  0.920300  0.322500  1.0
  H  H1136  1  0.703400  0.579700  0.177500  1.0
  H  H1137  1  0.322500  0.796600  0.579700  1.0
  H  H1138  1  0.177500  0.796600  0.920300  1.0
  H  H1139  1  0.322500  0.703400  0.920300  1.0
  H  H1140  1  0.177500  0.703400  0.579700  1.0
  H  H1141  1  0.322500  0.579700  0.703400  1.0
  H  H1142  1  0.177500  0.920300  0.703400  1.0
  H  H1143  1  0.322500  0.920300  0.796600  1.0
  H  H1144  1  0.177500  0.579700  0.796600  1.0
  H  H1145  1  0.579700  0.796600  0.177500  1.0
  H  H1146  1  0.920300  0.796600  0.322500  1.0
  H  H1147  1  0.920300  0.703400  0.177500  1.0
  H  H1148  1  0.579700  0.703400  0.322500  1.0
  H  H1149  1  0.796600  0.322500  0.920300  1.0
  H  H1150  1  0.796600  0.177500  0.579700  1.0
  H  H1151  1  0.703400  0.322500  0.579700  1.0
  H  H1152  1  0.703400  0.177500  0.920300  1.0
  H  H1153  1  0.471300  0.576800  0.101800  1.0
  H  H1154  1  0.028700  0.923200  0.101800  1.0
  H  H1155  1  0.028700  0.576800  0.398200  1.0
  H  H1156  1  0.471300  0.923200  0.398200  1.0
  H  H1157  1  0.101800  0.471300  0.576800  1.0
  H  H1158  1  0.101800  0.028700  0.923200  1.0
  H  H1159  1  0.398200  0.028700  0.576800  1.0
  H  H1160  1  0.398200  0.471300  0.923200  1.0
  H  H1161  1  0.576800  0.101800  0.471300  1.0
  H  H1162  1  0.923200  0.101800  0.028700  1.0
  H  H1163  1  0.576800  0.398200  0.028700  1.0
  H  H1164  1  0.923200  0.398200  0.471300  1.0
  H  H1165  1  0.576800  0.471300  0.398200  1.0
  H  H1166  1  0.923200  0.028700  0.398200  1.0
  H  H1167  1  0.576800  0.028700  0.101800  1.0
  H  H1168  1  0.923200  0.471300  0.101800  1.0
  H  H1169  1  0.471300  0.101800  0.923200  1.0
  H  H1170  1  0.028700  0.101800  0.576800  1.0
  H  H1171  1  0.028700  0.398200  0.923200  1.0
  H  H1172  1  0.471300  0.398200  0.576800  1.0
  H  H1173  1  0.101800  0.576800  0.028700  1.0
  H  H1174  1  0.101800  0.923200  0.471300  1.0
  H  H1175  1  0.398200  0.576800  0.471300  1.0
  H  H1176  1  0.398200  0.923200  0.028700  1.0
  H  H1177  1  0.528700  0.423200  0.898200  1.0
  H  H1178  1  0.971300  0.076800  0.898200  1.0
  H  H1179  1  0.971300  0.423200  0.601800  1.0
  H  H1180  1  0.528700  0.076800  0.601800  1.0
  H  H1181  1  0.898200  0.528700  0.423200  1.0
  H  H1182  1  0.898200  0.971300  0.076800  1.0
  H  H1183  1  0.601800  0.971300  0.423200  1.0
  H  H1184  1  0.601800  0.528700  0.076800  1.0
  H  H1185  1  0.423200  0.898200  0.528700  1.0
  H  H1186  1  0.076800  0.898200  0.971300  1.0
  H  H1187  1  0.423200  0.601800  0.971300  1.0
  H  H1188  1  0.076800  0.601800  0.528700  1.0
  H  H1189  1  0.423200  0.528700  0.601800  1.0
  H  H1190  1  0.076800  0.971300  0.601800  1.0
  H  H1191  1  0.423200  0.971300  0.898200  1.0
  H  H1192  1  0.076800  0.528700  0.898200  1.0
  H  H1193  1  0.528700  0.898200  0.076800  1.0
  H  H1194  1  0.971300  0.898200  0.423200  1.0
  H  H1195  1  0.971300  0.601800  0.076800  1.0
  H  H1196  1  0.528700  0.601800  0.423200  1.0
  H  H1197  1  0.898200  0.423200  0.971300  1.0
  H  H1198  1  0.898200  0.076800  0.528700  1.0
  H  H1199  1  0.601800  0.423200  0.528700  1.0
  H  H1200  1  0.601800  0.076800  0.971300  1.0
  H  H1201  1  0.506600  0.590800  0.117300  1.0
  H  H1202  1  0.993400  0.909200  0.117300  1.0
  H  H1203  1  0.993400  0.590800  0.382700  1.0
  H  H1204  1  0.506600  0.909200  0.382700  1.0
  H  H1205  1  0.117300  0.506600  0.590800  1.0
  H  H1206  1  0.117300  0.993400  0.909200  1.0
  H  H1207  1  0.382700  0.993400  0.590800  1.0
  H  H1208  1  0.382700  0.506600  0.909200  1.0
  H  H1209  1  0.590800  0.117300  0.506600  1.0
  H  H1210  1  0.909200  0.117300  0.993400  1.0
  H  H1211  1  0.590800  0.382700  0.993400  1.0
  H  H1212  1  0.909200  0.382700  0.506600  1.0
  H  H1213  1  0.590800  0.506600  0.382700  1.0
  H  H1214  1  0.909200  0.993400  0.382700  1.0
  H  H1215  1  0.590800  0.993400  0.117300  1.0
  H  H1216  1  0.909200  0.506600  0.117300  1.0
  H  H1217  1  0.506600  0.117300  0.909200  1.0
  H  H1218  1  0.993400  0.117300  0.590800  1.0
  H  H1219  1  0.993400  0.382700  0.909200  1.0
  H  H1220  1  0.506600  0.382700  0.590800  1.0
  H  H1221  1  0.117300  0.590800  0.993400  1.0
  H  H1222  1  0.117300  0.909200  0.506600  1.0
  H  H1223  1  0.382700  0.590800  0.506600  1.0
  H  H1224  1  0.382700  0.909200  0.993400  1.0
  H  H1225  1  0.493400  0.409200  0.882700  1.0
  H  H1226  1  0.006600  0.090800  0.882700  1.0
  H  H1227  1  0.006600  0.409200  0.617300  1.0
  H  H1228  1  0.493400  0.090800  0.617300  1.0
  H  H1229  1  0.882700  0.493400  0.409200  1.0
  H  H1230  1  0.882700  0.006600  0.090800  1.0
  H  H1231  1  0.617300  0.006600  0.409200  1.0
  H  H1232  1  0.617300  0.493400  0.090800  1.0
  H  H1233  1  0.409200  0.882700  0.493400  1.0
  H  H1234  1  0.090800  0.882700  0.006600  1.0
  H  H1235  1  0.409200  0.617300  0.006600  1.0
  H  H1236  1  0.090800  0.617300  0.493400  1.0
  H  H1237  1  0.409200  0.493400  0.617300  1.0
  H  H1238  1  0.090800  0.006600  0.617300  1.0
  H  H1239  1  0.409200  0.006600  0.882700  1.0
  H  H1240  1  0.090800  0.493400  0.882700  1.0
  H  H1241  1  0.493400  0.882700  0.090800  1.0
  H  H1242  1  0.006600  0.882700  0.409200  1.0
  H  H1243  1  0.006600  0.617300  0.090800  1.0
  H  H1244  1  0.493400  0.617300  0.409200  1.0
  H  H1245  1  0.882700  0.409200  0.006600  1.0
  H  H1246  1  0.882700  0.090800  0.493400  1.0
  H  H1247  1  0.617300  0.409200  0.493400  1.0
  H  H1248  1  0.617300  0.090800  0.006600  1.0
  H  H1249  1  0.495400  0.601100  0.079200  1.0
  H  H1250  1  0.004600  0.898900  0.079200  1.0
  H  H1251  1  0.004600  0.601100  0.420800  1.0
  H  H1252  1  0.495400  0.898900  0.420800  1.0
  H  H1253  1  0.079200  0.495400  0.601100  1.0
  H  H1254  1  0.079200  0.004600  0.898900  1.0
  H  H1255  1  0.420800  0.004600  0.601100  1.0
  H  H1256  1  0.420800  0.495400  0.898900  1.0
  H  H1257  1  0.601100  0.079200  0.495400  1.0
  H  H1258  1  0.898900  0.079200  0.004600  1.0
  H  H1259  1  0.601100  0.420800  0.004600  1.0
  H  H1260  1  0.898900  0.420800  0.495400  1.0
  H  H1261  1  0.601100  0.495400  0.420800  1.0
  H  H1262  1  0.898900  0.004600  0.420800  1.0
  H  H1263  1  0.601100  0.004600  0.079200  1.0
  H  H1264  1  0.898900  0.495400  0.079200  1.0
  H  H1265  1  0.495400  0.079200  0.898900  1.0
  H  H1266  1  0.004600  0.079200  0.601100  1.0
  H  H1267  1  0.004600  0.420800  0.898900  1.0
  H  H1268  1  0.495400  0.420800  0.601100  1.0
  H  H1269  1  0.079200  0.601100  0.004600  1.0
  H  H1270  1  0.079200  0.898900  0.495400  1.0
  H  H1271  1  0.420800  0.601100  0.495400  1.0
  H  H1272  1  0.420800  0.898900  0.004600  1.0
  H  H1273  1  0.504600  0.398900  0.920800  1.0
  H  H1274  1  0.995400  0.101100  0.920800  1.0
  H  H1275  1  0.995400  0.398900  0.579200  1.0
  H  H1276  1  0.504600  0.101100  0.579200  1.0
  H  H1277  1  0.920800  0.504600  0.398900  1.0
  H  H1278  1  0.920800  0.995400  0.101100  1.0
  H  H1279  1  0.579200  0.995400  0.398900  1.0
  H  H1280  1  0.579200  0.504600  0.101100  1.0
  H  H1281  1  0.398900  0.920800  0.504600  1.0
  H  H1282  1  0.101100  0.920800  0.995400  1.0
  H  H1283  1  0.398900  0.579200  0.995400  1.0
  H  H1284  1  0.101100  0.579200  0.504600  1.0
  H  H1285  1  0.398900  0.504600  0.579200  1.0
  H  H1286  1  0.101100  0.995400  0.579200  1.0
  H  H1287  1  0.398900  0.995400  0.920800  1.0
  H  H1288  1  0.101100  0.504600  0.920800  1.0
  H  H1289  1  0.504600  0.920800  0.101100  1.0
  H  H1290  1  0.995400  0.920800  0.398900  1.0
  H  H1291  1  0.995400  0.579200  0.101100  1.0
  H  H1292  1  0.504600  0.579200  0.398900  1.0
  H  H1293  1  0.920800  0.398900  0.995400  1.0
  H  H1294  1  0.920800  0.101100  0.504600  1.0
  H  H1295  1  0.579200  0.398900  0.504600  1.0
  H  H1296  1  0.579200  0.101100  0.995400  1.0
  Pd  Pd1297  1  0.250000  0.444700  0.250000  1
  Pd  Pd1298  1  0.250000  0.055300  0.250000  1
  Pd  Pd1299  1  0.250000  0.250000  0.444700  1
  Pd  Pd1300  1  0.250000  0.250000  0.055300  1
  Pd  Pd1301  1  0.444700  0.250000  0.250000  1
  Pd  Pd1302  1  0.055300  0.250000  0.250000  1
  Pd  Pd1303  1  0.750000  0.555300  0.750000  1
  Pd  Pd1304  1  0.750000  0.944700  0.750000  1
  Pd  Pd1305  1  0.750000  0.750000  0.555300  1
  Pd  Pd1306  1  0.750000  0.750000  0.944700  1
  Pd  Pd1307  1  0.555300  0.750000  0.750000  1
  Pd  Pd1308  1  0.944700  0.750000  0.750000  1
  Pd  Pd1309  1  0.250000  0.830030  0.250000  1
  Pd  Pd1310  1  0.250000  0.669970  0.250000  1
  Pd  Pd1311  1  0.250000  0.250000  0.830030  1
  Pd  Pd1312  1  0.250000  0.250000  0.669970  1
  Pd  Pd1313  1  0.830030  0.250000  0.250000  1
  Pd  Pd1314  1  0.669970  0.250000  0.250000  1
  Pd  Pd1315  1  0.750000  0.169970  0.750000  1
  Pd  Pd1316  1  0.750000  0.330030  0.750000  1
  Pd  Pd1317  1  0.750000  0.750000  0.169970  1
  Pd  Pd1318  1  0.750000  0.750000  0.330030  1
  Pd  Pd1319  1  0.169970  0.750000  0.750000  1
  Pd  Pd1320  1  0.330030  0.750000  0.750000  1
  C  C1321  1  0.296800  0.415300  0.301700  1.0
  C  C1322  1  0.203200  0.084700  0.301700  1.0
  C  C1323  1  0.203200  0.415300  0.198300  1.0
  C  C1324  1  0.296800  0.084700  0.198300  1.0
  C  C1325  1  0.301700  0.296800  0.415300  1.0
  C  C1326  1  0.301700  0.203200  0.084700  1.0
  C  C1327  1  0.198300  0.203200  0.415300  1.0
  C  C1328  1  0.198300  0.296800  0.084700  1.0
  C  C1329  1  0.415300  0.301700  0.296800  1.0
  C  C1330  1  0.084700  0.301700  0.203200  1.0
  C  C1331  1  0.415300  0.198300  0.203200  1.0
  C  C1332  1  0.084700  0.198300  0.296800  1.0
  C  C1333  1  0.415300  0.296800  0.198300  1.0
  C  C1334  1  0.084700  0.203200  0.198300  1.0
  C  C1335  1  0.415300  0.203200  0.301700  1.0
  C  C1336  1  0.084700  0.296800  0.301700  1.0
  C  C1337  1  0.296800  0.301700  0.084700  1.0
  C  C1338  1  0.203200  0.301700  0.415300  1.0
  C  C1339  1  0.203200  0.198300  0.084700  1.0
  C  C1340  1  0.296800  0.198300  0.415300  1.0
  C  C1341  1  0.301700  0.415300  0.203200  1.0
  C  C1342  1  0.301700  0.084700  0.296800  1.0
  C  C1343  1  0.198300  0.415300  0.296800  1.0
  C  C1344  1  0.198300  0.084700  0.203200  1.0
  C  C1345  1  0.703200  0.584700  0.698300  1.0
  C  C1346  1  0.796800  0.915300  0.698300  1.0
  C  C1347  1  0.796800  0.584700  0.801700  1.0
  C  C1348  1  0.703200  0.915300  0.801700  1.0
  C  C1349  1  0.698300  0.703200  0.584700  1.0
  C  C1350  1  0.698300  0.796800  0.915300  1.0
  C  C1351  1  0.801700  0.796800  0.584700  1.0
  C  C1352  1  0.801700  0.703200  0.915300  1.0
  C  C1353  1  0.584700  0.698300  0.703200  1.0
  C  C1354  1  0.915300  0.698300  0.796800  1.0
  C  C1355  1  0.584700  0.801700  0.796800  1.0
  C  C1356  1  0.915300  0.801700  0.703200  1.0
  C  C1357  1  0.584700  0.703200  0.801700  1.0
  C  C1358  1  0.915300  0.796800  0.801700  1.0
  C  C1359  1  0.584700  0.796800  0.698300  1.0
  C  C1360  1  0.915300  0.703200  0.698300  1.0
  C  C1361  1  0.703200  0.698300  0.915300  1.0
  C  C1362  1  0.796800  0.698300  0.584700  1.0
  C  C1363  1  0.796800  0.801700  0.915300  1.0
  C  C1364  1  0.703200  0.801700  0.584700  1.0
  C  C1365  1  0.698300  0.584700  0.796800  1.0
  C  C1366  1  0.698300  0.915300  0.703200  1.0
  C  C1367  1  0.801700  0.584700  0.703200  1.0
  C  C1368  1  0.801700  0.915300  0.796800  1.0
  C  C1369  1  0.325400  0.413400  0.322100  1.0
  C  C1370  1  0.174600  0.086600  0.322100  1.0
  C  C1371  1  0.174600  0.413400  0.177900  1.0
  C  C1372  1  0.325400  0.086600  0.177900  1.0
  C  C1373  1  0.322100  0.325400  0.413400  1.0
  C  C1374  1  0.322100  0.174600  0.086600  1.0
  C  C1375  1  0.177900  0.174600  0.413400  1.0
  C  C1376  1  0.177900  0.325400  0.086600  1.0
  C  C1377  1  0.413400  0.322100  0.325400  1.0
  C  C1378  1  0.086600  0.322100  0.174600  1.0
  C  C1379  1  0.413400  0.177900  0.174600  1.0
  C  C1380  1  0.086600  0.177900  0.325400  1.0
  C  C1381  1  0.413400  0.325400  0.177900  1.0
  C  C1382  1  0.086600  0.174600  0.177900  1.0
  C  C1383  1  0.413400  0.174600  0.322100  1.0
  C  C1384  1  0.086600  0.325400  0.322100  1.0
  C  C1385  1  0.325400  0.322100  0.086600  1.0
  C  C1386  1  0.174600  0.322100  0.413400  1.0
  C  C1387  1  0.174600  0.177900  0.086600  1.0
  C  C1388  1  0.325400  0.177900  0.413400  1.0
  C  C1389  1  0.322100  0.413400  0.174600  1.0
  C  C1390  1  0.322100  0.086600  0.325400  1.0
  C  C1391  1  0.177900  0.413400  0.325400  1.0
  C  C1392  1  0.177900  0.086600  0.174600  1.0
  C  C1393  1  0.674600  0.586600  0.677900  1.0
  C  C1394  1  0.825400  0.913400  0.677900  1.0
  C  C1395  1  0.825400  0.586600  0.822100  1.0
  C  C1396  1  0.674600  0.913400  0.822100  1.0
  C  C1397  1  0.677900  0.674600  0.586600  1.0
  C  C1398  1  0.677900  0.825400  0.913400  1.0
  C  C1399  1  0.822100  0.825400  0.586600  1.0
  C  C1400  1  0.822100  0.674600  0.913400  1.0
  C  C1401  1  0.586600  0.677900  0.674600  1.0
  C  C1402  1  0.913400  0.677900  0.825400  1.0
  C  C1403  1  0.586600  0.822100  0.825400  1.0
  C  C1404  1  0.913400  0.822100  0.674600  1.0
  C  C1405  1  0.586600  0.674600  0.822100  1.0
  C  C1406  1  0.913400  0.825400  0.822100  1.0
  C  C1407  1  0.586600  0.825400  0.677900  1.0
  C  C1408  1  0.913400  0.674600  0.677900  1.0
  C  C1409  1  0.674600  0.677900  0.913400  1.0
  C  C1410  1  0.825400  0.677900  0.586600  1.0
  C  C1411  1  0.825400  0.822100  0.913400  1.0
  C  C1412  1  0.674600  0.822100  0.586600  1.0
  C  C1413  1  0.677900  0.586600  0.825400  1.0
  C  C1414  1  0.677900  0.913400  0.674600  1.0
  C  C1415  1  0.822100  0.586600  0.674600  1.0
  C  C1416  1  0.822100  0.913400  0.825400  1.0
  C  C1417  1  0.347900  0.440300  0.322100  1.0
  C  C1418  1  0.152100  0.059700  0.322100  1.0
  C  C1419  1  0.152100  0.440300  0.177900  1.0
  C  C1420  1  0.347900  0.059700  0.177900  1.0
  C  C1421  1  0.322100  0.347900  0.440300  1.0
  C  C1422  1  0.322100  0.152100  0.059700  1.0
  C  C1423  1  0.177900  0.152100  0.440300  1.0
  C  C1424  1  0.177900  0.347900  0.059700  1.0
  C  C1425  1  0.440300  0.322100  0.347900  1.0
  C  C1426  1  0.059700  0.322100  0.152100  1.0
  C  C1427  1  0.440300  0.177900  0.152100  1.0
  C  C1428  1  0.059700  0.177900  0.347900  1.0
  C  C1429  1  0.440300  0.347900  0.177900  1.0
  C  C1430  1  0.059700  0.152100  0.177900  1.0
  C  C1431  1  0.440300  0.152100  0.322100  1.0
  C  C1432  1  0.059700  0.347900  0.322100  1.0
  C  C1433  1  0.347900  0.322100  0.059700  1.0
  C  C1434  1  0.152100  0.322100  0.440300  1.0
  C  C1435  1  0.152100  0.177900  0.059700  1.0
  C  C1436  1  0.347900  0.177900  0.440300  1.0
  C  C1437  1  0.322100  0.440300  0.152100  1.0
  C  C1438  1  0.322100  0.059700  0.347900  1.0
  C  C1439  1  0.177900  0.440300  0.347900  1.0
  C  C1440  1  0.177900  0.059700  0.152100  1.0
  C  C1441  1  0.652100  0.559700  0.677900  1.0
  C  C1442  1  0.847900  0.940300  0.677900  1.0
  C  C1443  1  0.847900  0.559700  0.822100  1.0
  C  C1444  1  0.652100  0.940300  0.822100  1.0
  C  C1445  1  0.677900  0.652100  0.559700  1.0
  C  C1446  1  0.677900  0.847900  0.940300  1.0
  C  C1447  1  0.822100  0.847900  0.559700  1.0
  C  C1448  1  0.822100  0.652100  0.940300  1.0
  C  C1449  1  0.559700  0.677900  0.652100  1.0
  C  C1450  1  0.940300  0.677900  0.847900  1.0
  C  C1451  1  0.559700  0.822100  0.847900  1.0
  C  C1452  1  0.940300  0.822100  0.652100  1.0
  C  C1453  1  0.559700  0.652100  0.822100  1.0
  C  C1454  1  0.940300  0.847900  0.822100  1.0
  C  C1455  1  0.559700  0.847900  0.677900  1.0
  C  C1456  1  0.940300  0.652100  0.677900  1.0
  C  C1457  1  0.652100  0.677900  0.940300  1.0
  C  C1458  1  0.847900  0.677900  0.559700  1.0
  C  C1459  1  0.847900  0.822100  0.940300  1.0
  C  C1460  1  0.652100  0.822100  0.559700  1.0
  C  C1461  1  0.677900  0.559700  0.847900  1.0
  C  C1462  1  0.677900  0.940300  0.652100  1.0
  C  C1463  1  0.822100  0.559700  0.652100  1.0
  C  C1464  1  0.822100  0.940300  0.847900  1.0
  C  C1465  1  0.342600  0.468400  0.301400  1.0
  C  C1466  1  0.157400  0.031600  0.301400  1.0
  C  C1467  1  0.157400  0.468400  0.198600  1.0
  C  C1468  1  0.342600  0.031600  0.198600  1.0
  C  C1469  1  0.301400  0.342600  0.468400  1.0
  C  C1470  1  0.301400  0.157400  0.031600  1.0
  C  C1471  1  0.198600  0.157400  0.468400  1.0
  C  C1472  1  0.198600  0.342600  0.031600  1.0
  C  C1473  1  0.468400  0.301400  0.342600  1.0
  C  C1474  1  0.031600  0.301400  0.157400  1.0
  C  C1475  1  0.468400  0.198600  0.157400  1.0
  C  C1476  1  0.031600  0.198600  0.342600  1.0
  C  C1477  1  0.468400  0.342600  0.198600  1.0
  C  C1478  1  0.031600  0.157400  0.198600  1.0
  C  C1479  1  0.468400  0.157400  0.301400  1.0
  C  C1480  1  0.031600  0.342600  0.301400  1.0
  C  C1481  1  0.342600  0.301400  0.031600  1.0
  C  C1482  1  0.157400  0.301400  0.468400  1.0
  C  C1483  1  0.157400  0.198600  0.031600  1.0
  C  C1484  1  0.342600  0.198600  0.468400  1.0
  C  C1485  1  0.301400  0.468400  0.157400  1.0
  C  C1486  1  0.301400  0.031600  0.342600  1.0
  C  C1487  1  0.198600  0.468400  0.342600  1.0
  C  C1488  1  0.198600  0.031600  0.157400  1.0
  C  C1489  1  0.657400  0.531600  0.698600  1.0
  C  C1490  1  0.842600  0.968400  0.698600  1.0
  C  C1491  1  0.842600  0.531600  0.801400  1.0
  C  C1492  1  0.657400  0.968400  0.801400  1.0
  C  C1493  1  0.698600  0.657400  0.531600  1.0
  C  C1494  1  0.698600  0.842600  0.968400  1.0
  C  C1495  1  0.801400  0.842600  0.531600  1.0
  C  C1496  1  0.801400  0.657400  0.968400  1.0
  C  C1497  1  0.531600  0.698600  0.657400  1.0
  C  C1498  1  0.968400  0.698600  0.842600  1.0
  C  C1499  1  0.531600  0.801400  0.842600  1.0
  C  C1500  1  0.968400  0.801400  0.657400  1.0
  C  C1501  1  0.531600  0.657400  0.801400  1.0
  C  C1502  1  0.968400  0.842600  0.801400  1.0
  C  C1503  1  0.531600  0.842600  0.698600  1.0
  C  C1504  1  0.968400  0.657400  0.698600  1.0
  C  C1505  1  0.657400  0.698600  0.968400  1.0
  C  C1506  1  0.842600  0.698600  0.531600  1.0
  C  C1507  1  0.842600  0.801400  0.968400  1.0
  C  C1508  1  0.657400  0.801400  0.531600  1.0
  C  C1509  1  0.698600  0.531600  0.842600  1.0
  C  C1510  1  0.698600  0.968400  0.657400  1.0
  C  C1511  1  0.801400  0.531600  0.657400  1.0
  C  C1512  1  0.801400  0.968400  0.842600  1.0
  C  C1513  1  0.313500  0.470400  0.281900  1.0
  C  C1514  1  0.186500  0.029600  0.281900  1.0
  C  C1515  1  0.186500  0.470400  0.218100  1.0
  C  C1516  1  0.313500  0.029600  0.218100  1.0
  C  C1517  1  0.281900  0.313500  0.470400  1.0
  C  C1518  1  0.281900  0.186500  0.029600  1.0
  C  C1519  1  0.218100  0.186500  0.470400  1.0
  C  C1520  1  0.218100  0.313500  0.029600  1.0
  C  C1521  1  0.470400  0.281900  0.313500  1.0
  C  C1522  1  0.029600  0.281900  0.186500  1.0
  C  C1523  1  0.470400  0.218100  0.186500  1.0
  C  C1524  1  0.029600  0.218100  0.313500  1.0
  C  C1525  1  0.470400  0.313500  0.218100  1.0
  C  C1526  1  0.029600  0.186500  0.218100  1.0
  C  C1527  1  0.470400  0.186500  0.281900  1.0
  C  C1528  1  0.029600  0.313500  0.281900  1.0
  C  C1529  1  0.313500  0.281900  0.029600  1.0
  C  C1530  1  0.186500  0.281900  0.470400  1.0
  C  C1531  1  0.186500  0.218100  0.029600  1.0
  C  C1532  1  0.313500  0.218100  0.470400  1.0
  C  C1533  1  0.281900  0.470400  0.186500  1.0
  C  C1534  1  0.281900  0.029600  0.313500  1.0
  C  C1535  1  0.218100  0.470400  0.313500  1.0
  C  C1536  1  0.218100  0.029600  0.186500  1.0
  C  C1537  1  0.686500  0.529600  0.718100  1.0
  C  C1538  1  0.813500  0.970400  0.718100  1.0
  C  C1539  1  0.813500  0.529600  0.781900  1.0
  C  C1540  1  0.686500  0.970400  0.781900  1.0
  C  C1541  1  0.718100  0.686500  0.529600  1.0
  C  C1542  1  0.718100  0.813500  0.970400  1.0
  C  C1543  1  0.781900  0.813500  0.529600  1.0
  C  C1544  1  0.781900  0.686500  0.970400  1.0
  C  C1545  1  0.529600  0.718100  0.686500  1.0
  C  C1546  1  0.970400  0.718100  0.813500  1.0
  C  C1547  1  0.529600  0.781900  0.813500  1.0
  C  C1548  1  0.970400  0.781900  0.686500  1.0
  C  C1549  1  0.529600  0.686500  0.781900  1.0
  C  C1550  1  0.970400  0.813500  0.781900  1.0
  C  C1551  1  0.529600  0.813500  0.718100  1.0
  C  C1552  1  0.970400  0.686500  0.718100  1.0
  C  C1553  1  0.686500  0.718100  0.970400  1.0
  C  C1554  1  0.813500  0.718100  0.529600  1.0
  C  C1555  1  0.813500  0.781900  0.970400  1.0
  C  C1556  1  0.686500  0.781900  0.529600  1.0
  C  C1557  1  0.718100  0.529600  0.813500  1.0
  C  C1558  1  0.718100  0.970400  0.686500  1.0
  C  C1559  1  0.781900  0.529600  0.686500  1.0
  C  C1560  1  0.781900  0.970400  0.813500  1.0
  C  C1561  1  0.367000  0.496700  0.302800  1.0
  C  C1562  1  0.133000  0.003300  0.302800  1.0
  C  C1563  1  0.133000  0.496700  0.197200  1.0
  C  C1564  1  0.367000  0.003300  0.197200  1.0
  C  C1565  1  0.302800  0.367000  0.496700  1.0
  C  C1566  1  0.302800  0.133000  0.003300  1.0
  C  C1567  1  0.197200  0.133000  0.496700  1.0
  C  C1568  1  0.197200  0.367000  0.003300  1.0
  C  C1569  1  0.496700  0.302800  0.367000  1.0
  C  C1570  1  0.003300  0.302800  0.133000  1.0
  C  C1571  1  0.496700  0.197200  0.133000  1.0
  C  C1572  1  0.003300  0.197200  0.367000  1.0
  C  C1573  1  0.496700  0.367000  0.197200  1.0
  C  C1574  1  0.003300  0.133000  0.197200  1.0
  C  C1575  1  0.496700  0.133000  0.302800  1.0
  C  C1576  1  0.003300  0.367000  0.302800  1.0
  C  C1577  1  0.367000  0.302800  0.003300  1.0
  C  C1578  1  0.133000  0.302800  0.496700  1.0
  C  C1579  1  0.133000  0.197200  0.003300  1.0
  C  C1580  1  0.367000  0.197200  0.496700  1.0
  C  C1581  1  0.302800  0.496700  0.133000  1.0
  C  C1582  1  0.302800  0.003300  0.367000  1.0
  C  C1583  1  0.197200  0.496700  0.367000  1.0
  C  C1584  1  0.197200  0.003300  0.133000  1.0
  C  C1585  1  0.633000  0.503300  0.697200  1.0
  C  C1586  1  0.867000  0.996700  0.697200  1.0
  C  C1587  1  0.867000  0.503300  0.802800  1.0
  C  C1588  1  0.633000  0.996700  0.802800  1.0
  C  C1589  1  0.697200  0.633000  0.503300  1.0
  C  C1590  1  0.697200  0.867000  0.996700  1.0
  C  C1591  1  0.802800  0.867000  0.503300  1.0
  C  C1592  1  0.802800  0.633000  0.996700  1.0
  C  C1593  1  0.503300  0.697200  0.633000  1.0
  C  C1594  1  0.996700  0.697200  0.867000  1.0
  C  C1595  1  0.503300  0.802800  0.867000  1.0
  C  C1596  1  0.996700  0.802800  0.633000  1.0
  C  C1597  1  0.503300  0.633000  0.802800  1.0
  C  C1598  1  0.996700  0.867000  0.802800  1.0
  C  C1599  1  0.503300  0.867000  0.697200  1.0
  C  C1600  1  0.996700  0.633000  0.697200  1.0
  C  C1601  1  0.633000  0.697200  0.996700  1.0
  C  C1602  1  0.867000  0.697200  0.503300  1.0
  C  C1603  1  0.867000  0.802800  0.996700  1.0
  C  C1604  1  0.633000  0.802800  0.503300  1.0
  C  C1605  1  0.697200  0.503300  0.867000  1.0
  C  C1606  1  0.697200  0.996700  0.633000  1.0
  C  C1607  1  0.802800  0.503300  0.633000  1.0
  C  C1608  1  0.802800  0.996700  0.867000  1.0
  C  C1609  1  0.385800  0.520300  0.298900  1.0
  C  C1610  1  0.114200  0.979700  0.298900  1.0
  C  C1611  1  0.114200  0.520300  0.201100  1.0
  C  C1612  1  0.385800  0.979700  0.201100  1.0
  C  C1613  1  0.298900  0.385800  0.520300  1.0
  C  C1614  1  0.298900  0.114200  0.979700  1.0
  C  C1615  1  0.201100  0.114200  0.520300  1.0
  C  C1616  1  0.201100  0.385800  0.979700  1.0
  C  C1617  1  0.520300  0.298900  0.385800  1.0
  C  C1618  1  0.979700  0.298900  0.114200  1.0
  C  C1619  1  0.520300  0.201100  0.114200  1.0
  C  C1620  1  0.979700  0.201100  0.385800  1.0
  C  C1621  1  0.520300  0.385800  0.201100  1.0
  C  C1622  1  0.979700  0.114200  0.201100  1.0
  C  C1623  1  0.520300  0.114200  0.298900  1.0
  C  C1624  1  0.979700  0.385800  0.298900  1.0
  C  C1625  1  0.385800  0.298900  0.979700  1.0
  C  C1626  1  0.114200  0.298900  0.520300  1.0
  C  C1627  1  0.114200  0.201100  0.979700  1.0
  C  C1628  1  0.385800  0.201100  0.520300  1.0
  C  C1629  1  0.298900  0.520300  0.114200  1.0
  C  C1630  1  0.298900  0.979700  0.385800  1.0
  C  C1631  1  0.201100  0.520300  0.385800  1.0
  C  C1632  1  0.201100  0.979700  0.114200  1.0
  C  C1633  1  0.614200  0.479700  0.701100  1.0
  C  C1634  1  0.885800  0.020300  0.701100  1.0
  C  C1635  1  0.885800  0.479700  0.798900  1.0
  C  C1636  1  0.614200  0.020300  0.798900  1.0
  C  C1637  1  0.701100  0.614200  0.479700  1.0
  C  C1638  1  0.701100  0.885800  0.020300  1.0
  C  C1639  1  0.798900  0.885800  0.479700  1.0
  C  C1640  1  0.798900  0.614200  0.020300  1.0
  C  C1641  1  0.479700  0.701100  0.614200  1.0
  C  C1642  1  0.020300  0.701100  0.885800  1.0
  C  C1643  1  0.479700  0.798900  0.885800  1.0
  C  C1644  1  0.020300  0.798900  0.614200  1.0
  C  C1645  1  0.479700  0.614200  0.798900  1.0
  C  C1646  1  0.020300  0.885800  0.798900  1.0
  C  C1647  1  0.479700  0.885800  0.701100  1.0
  C  C1648  1  0.020300  0.614200  0.701100  1.0
  C  C1649  1  0.614200  0.701100  0.020300  1.0
  C  C1650  1  0.885800  0.701100  0.479700  1.0
  C  C1651  1  0.885800  0.798900  0.020300  1.0
  C  C1652  1  0.614200  0.798900  0.479700  1.0
  C  C1653  1  0.701100  0.479700  0.885800  1.0
  C  C1654  1  0.701100  0.020300  0.614200  1.0
  C  C1655  1  0.798900  0.479700  0.614200  1.0
  C  C1656  1  0.798900  0.020300  0.885800  1.0
  C  C1657  1  0.410700  0.547100  0.299200  1.0
  C  C1658  1  0.089300  0.952900  0.299200  1.0
  C  C1659  1  0.089300  0.547100  0.200800  1.0
  C  C1660  1  0.410700  0.952900  0.200800  1.0
  C  C1661  1  0.299200  0.410700  0.547100  1.0
  C  C1662  1  0.299200  0.089300  0.952900  1.0
  C  C1663  1  0.200800  0.089300  0.547100  1.0
  C  C1664  1  0.200800  0.410700  0.952900  1.0
  C  C1665  1  0.547100  0.299200  0.410700  1.0
  C  C1666  1  0.952900  0.299200  0.089300  1.0
  C  C1667  1  0.547100  0.200800  0.089300  1.0
  C  C1668  1  0.952900  0.200800  0.410700  1.0
  C  C1669  1  0.547100  0.410700  0.200800  1.0
  C  C1670  1  0.952900  0.089300  0.200800  1.0
  C  C1671  1  0.547100  0.089300  0.299200  1.0
  C  C1672  1  0.952900  0.410700  0.299200  1.0
  C  C1673  1  0.410700  0.299200  0.952900  1.0
  C  C1674  1  0.089300  0.299200  0.547100  1.0
  C  C1675  1  0.089300  0.200800  0.952900  1.0
  C  C1676  1  0.410700  0.200800  0.547100  1.0
  C  C1677  1  0.299200  0.547100  0.089300  1.0
  C  C1678  1  0.299200  0.952900  0.410700  1.0
  C  C1679  1  0.200800  0.547100  0.410700  1.0
  C  C1680  1  0.200800  0.952900  0.089300  1.0
  C  C1681  1  0.589300  0.452900  0.700800  1.0
  C  C1682  1  0.910700  0.047100  0.700800  1.0
  C  C1683  1  0.910700  0.452900  0.799200  1.0
  C  C1684  1  0.589300  0.047100  0.799200  1.0
  C  C1685  1  0.700800  0.589300  0.452900  1.0
  C  C1686  1  0.700800  0.910700  0.047100  1.0
  C  C1687  1  0.799200  0.910700  0.452900  1.0
  C  C1688  1  0.799200  0.589300  0.047100  1.0
  C  C1689  1  0.452900  0.700800  0.589300  1.0
  C  C1690  1  0.047100  0.700800  0.910700  1.0
  C  C1691  1  0.452900  0.799200  0.910700  1.0
  C  C1692  1  0.047100  0.799200  0.589300  1.0
  C  C1693  1  0.452900  0.589300  0.799200  1.0
  C  C1694  1  0.047100  0.910700  0.799200  1.0
  C  C1695  1  0.452900  0.910700  0.700800  1.0
  C  C1696  1  0.047100  0.589300  0.700800  1.0
  C  C1697  1  0.589300  0.700800  0.047100  1.0
  C  C1698  1  0.910700  0.700800  0.452900  1.0
  C  C1699  1  0.910700  0.799200  0.047100  1.0
  C  C1700  1  0.589300  0.799200  0.452900  1.0
  C  C1701  1  0.700800  0.452900  0.910700  1.0
  C  C1702  1  0.700800  0.047100  0.589300  1.0
  C  C1703  1  0.799200  0.452900  0.589300  1.0
  C  C1704  1  0.799200  0.047100  0.910700  1.0
  C  C1705  1  0.403800  0.575700  0.280200  1.0
  C  C1706  1  0.096200  0.924300  0.280200  1.0
  C  C1707  1  0.096200  0.575700  0.219800  1.0
  C  C1708  1  0.403800  0.924300  0.219800  1.0
  C  C1709  1  0.280200  0.403800  0.575700  1.0
  C  C1710  1  0.280200  0.096200  0.924300  1.0
  C  C1711  1  0.219800  0.096200  0.575700  1.0
  C  C1712  1  0.219800  0.403800  0.924300  1.0
  C  C1713  1  0.575700  0.280200  0.403800  1.0
  C  C1714  1  0.924300  0.280200  0.096200  1.0
  C  C1715  1  0.575700  0.219800  0.096200  1.0
  C  C1716  1  0.924300  0.219800  0.403800  1.0
  C  C1717  1  0.575700  0.403800  0.219800  1.0
  C  C1718  1  0.924300  0.096200  0.219800  1.0
  C  C1719  1  0.575700  0.096200  0.280200  1.0
  C  C1720  1  0.924300  0.403800  0.280200  1.0
  C  C1721  1  0.403800  0.280200  0.924300  1.0
  C  C1722  1  0.096200  0.280200  0.575700  1.0
  C  C1723  1  0.096200  0.219800  0.924300  1.0
  C  C1724  1  0.403800  0.219800  0.575700  1.0
  C  C1725  1  0.280200  0.575700  0.096200  1.0
  C  C1726  1  0.280200  0.924300  0.403800  1.0
  C  C1727  1  0.219800  0.575700  0.403800  1.0
  C  C1728  1  0.219800  0.924300  0.096200  1.0
  C  C1729  1  0.596200  0.424300  0.719800  1.0
  C  C1730  1  0.903800  0.075700  0.719800  1.0
  C  C1731  1  0.903800  0.424300  0.780200  1.0
  C  C1732  1  0.596200  0.075700  0.780200  1.0
  C  C1733  1  0.719800  0.596200  0.424300  1.0
  C  C1734  1  0.719800  0.903800  0.075700  1.0
  C  C1735  1  0.780200  0.903800  0.424300  1.0
  C  C1736  1  0.780200  0.596200  0.075700  1.0
  C  C1737  1  0.424300  0.719800  0.596200  1.0
  C  C1738  1  0.075700  0.719800  0.903800  1.0
  C  C1739  1  0.424300  0.780200  0.903800  1.0
  C  C1740  1  0.075700  0.780200  0.596200  1.0
  C  C1741  1  0.424300  0.596200  0.780200  1.0
  C  C1742  1  0.075700  0.903800  0.780200  1.0
  C  C1743  1  0.424300  0.903800  0.719800  1.0
  C  C1744  1  0.075700  0.596200  0.719800  1.0
  C  C1745  1  0.596200  0.719800  0.075700  1.0
  C  C1746  1  0.903800  0.719800  0.424300  1.0
  C  C1747  1  0.903800  0.780200  0.075700  1.0
  C  C1748  1  0.596200  0.780200  0.424300  1.0
  C  C1749  1  0.719800  0.424300  0.903800  1.0
  C  C1750  1  0.719800  0.075700  0.596200  1.0
  C  C1751  1  0.780200  0.424300  0.596200  1.0
  C  C1752  1  0.780200  0.075700  0.903800  1.0
  C  C1753  1  0.427400  0.601900  0.276400  1.0
  C  C1754  1  0.072600  0.898100  0.276400  1.0
  C  C1755  1  0.072600  0.601900  0.223600  1.0
  C  C1756  1  0.427400  0.898100  0.223600  1.0
  C  C1757  1  0.276400  0.427400  0.601900  1.0
  C  C1758  1  0.276400  0.072600  0.898100  1.0
  C  C1759  1  0.223600  0.072600  0.601900  1.0
  C  C1760  1  0.223600  0.427400  0.898100  1.0
  C  C1761  1  0.601900  0.276400  0.427400  1.0
  C  C1762  1  0.898100  0.276400  0.072600  1.0
  C  C1763  1  0.601900  0.223600  0.072600  1.0
  C  C1764  1  0.898100  0.223600  0.427400  1.0
  C  C1765  1  0.601900  0.427400  0.223600  1.0
  C  C1766  1  0.898100  0.072600  0.223600  1.0
  C  C1767  1  0.601900  0.072600  0.276400  1.0
  C  C1768  1  0.898100  0.427400  0.276400  1.0
  C  C1769  1  0.427400  0.276400  0.898100  1.0
  C  C1770  1  0.072600  0.276400  0.601900  1.0
  C  C1771  1  0.072600  0.223600  0.898100  1.0
  C  C1772  1  0.427400  0.223600  0.601900  1.0
  C  C1773  1  0.276400  0.601900  0.072600  1.0
  C  C1774  1  0.276400  0.898100  0.427400  1.0
  C  C1775  1  0.223600  0.601900  0.427400  1.0
  C  C1776  1  0.223600  0.898100  0.072600  1.0
  C  C1777  1  0.572600  0.398100  0.723600  1.0
  C  C1778  1  0.927400  0.101900  0.723600  1.0
  C  C1779  1  0.927400  0.398100  0.776400  1.0
  C  C1780  1  0.572600  0.101900  0.776400  1.0
  C  C1781  1  0.723600  0.572600  0.398100  1.0
  C  C1782  1  0.723600  0.927400  0.101900  1.0
  C  C1783  1  0.776400  0.927400  0.398100  1.0
  C  C1784  1  0.776400  0.572600  0.101900  1.0
  C  C1785  1  0.398100  0.723600  0.572600  1.0
  C  C1786  1  0.101900  0.723600  0.927400  1.0
  C  C1787  1  0.398100  0.776400  0.927400  1.0
  C  C1788  1  0.101900  0.776400  0.572600  1.0
  C  C1789  1  0.398100  0.572600  0.776400  1.0
  C  C1790  1  0.101900  0.927400  0.776400  1.0
  C  C1791  1  0.398100  0.927400  0.723600  1.0
  C  C1792  1  0.101900  0.572600  0.723600  1.0
  C  C1793  1  0.572600  0.723600  0.101900  1.0
  C  C1794  1  0.927400  0.723600  0.398100  1.0
  C  C1795  1  0.927400  0.776400  0.101900  1.0
  C  C1796  1  0.572600  0.776400  0.398100  1.0
  C  C1797  1  0.723600  0.398100  0.927400  1.0
  C  C1798  1  0.723600  0.101900  0.572600  1.0
  C  C1799  1  0.776400  0.398100  0.572600  1.0
  C  C1800  1  0.776400  0.101900  0.927400  1.0
  C  C1801  1  0.458200  0.599200  0.293600  1.0
  C  C1802  1  0.041800  0.900800  0.293600  1.0
  C  C1803  1  0.041800  0.599200  0.206400  1.0
  C  C1804  1  0.458200  0.900800  0.206400  1.0
  C  C1805  1  0.293600  0.458200  0.599200  1.0
  C  C1806  1  0.293600  0.041800  0.900800  1.0
  C  C1807  1  0.206400  0.041800  0.599200  1.0
  C  C1808  1  0.206400  0.458200  0.900800  1.0
  C  C1809  1  0.599200  0.293600  0.458200  1.0
  C  C1810  1  0.900800  0.293600  0.041800  1.0
  C  C1811  1  0.599200  0.206400  0.041800  1.0
  C  C1812  1  0.900800  0.206400  0.458200  1.0
  C  C1813  1  0.599200  0.458200  0.206400  1.0
  C  C1814  1  0.900800  0.041800  0.206400  1.0
  C  C1815  1  0.599200  0.041800  0.293600  1.0
  C  C1816  1  0.900800  0.458200  0.293600  1.0
  C  C1817  1  0.458200  0.293600  0.900800  1.0
  C  C1818  1  0.041800  0.293600  0.599200  1.0
  C  C1819  1  0.041800  0.206400  0.900800  1.0
  C  C1820  1  0.458200  0.206400  0.599200  1.0
  C  C1821  1  0.293600  0.599200  0.041800  1.0
  C  C1822  1  0.293600  0.900800  0.458200  1.0
  C  C1823  1  0.206400  0.599200  0.458200  1.0
  C  C1824  1  0.206400  0.900800  0.041800  1.0
  C  C1825  1  0.541800  0.400800  0.706400  1.0
  C  C1826  1  0.958200  0.099200  0.706400  1.0
  C  C1827  1  0.958200  0.400800  0.793600  1.0
  C  C1828  1  0.541800  0.099200  0.793600  1.0
  C  C1829  1  0.706400  0.541800  0.400800  1.0
  C  C1830  1  0.706400  0.958200  0.099200  1.0
  C  C1831  1  0.793600  0.958200  0.400800  1.0
  C  C1832  1  0.793600  0.541800  0.099200  1.0
  C  C1833  1  0.400800  0.706400  0.541800  1.0
  C  C1834  1  0.099200  0.706400  0.958200  1.0
  C  C1835  1  0.400800  0.793600  0.958200  1.0
  C  C1836  1  0.099200  0.793600  0.541800  1.0
  C  C1837  1  0.400800  0.541800  0.793600  1.0
  C  C1838  1  0.099200  0.958200  0.793600  1.0
  C  C1839  1  0.400800  0.958200  0.706400  1.0
  C  C1840  1  0.099200  0.541800  0.706400  1.0
  C  C1841  1  0.541800  0.706400  0.099200  1.0
  C  C1842  1  0.958200  0.706400  0.400800  1.0
  C  C1843  1  0.958200  0.793600  0.099200  1.0
  C  C1844  1  0.541800  0.793600  0.400800  1.0
  C  C1845  1  0.706400  0.400800  0.958200  1.0
  C  C1846  1  0.706400  0.099200  0.541800  1.0
  C  C1847  1  0.793600  0.400800  0.541800  1.0
  C  C1848  1  0.793600  0.099200  0.958200  1.0
  C  C1849  1  0.465600  0.569500  0.311600  1.0
  C  C1850  1  0.034400  0.930500  0.311600  1.0
  C  C1851  1  0.034400  0.569500  0.188400  1.0
  C  C1852  1  0.465600  0.930500  0.188400  1.0
  C  C1853  1  0.311600  0.465600  0.569500  1.0
  C  C1854  1  0.311600  0.034400  0.930500  1.0
  C  C1855  1  0.188400  0.034400  0.569500  1.0
  C  C1856  1  0.188400  0.465600  0.930500  1.0
  C  C1857  1  0.569500  0.311600  0.465600  1.0
  C  C1858  1  0.930500  0.311600  0.034400  1.0
  C  C1859  1  0.569500  0.188400  0.034400  1.0
  C  C1860  1  0.930500  0.188400  0.465600  1.0
  C  C1861  1  0.569500  0.465600  0.188400  1.0
  C  C1862  1  0.930500  0.034400  0.188400  1.0
  C  C1863  1  0.569500  0.034400  0.311600  1.0
  C  C1864  1  0.930500  0.465600  0.311600  1.0
  C  C1865  1  0.465600  0.311600  0.930500  1.0
  C  C1866  1  0.034400  0.311600  0.569500  1.0
  C  C1867  1  0.034400  0.188400  0.930500  1.0
  C  C1868  1  0.465600  0.188400  0.569500  1.0
  C  C1869  1  0.311600  0.569500  0.034400  1.0
  C  C1870  1  0.311600  0.930500  0.465600  1.0
  C  C1871  1  0.188400  0.569500  0.465600  1.0
  C  C1872  1  0.188400  0.930500  0.034400  1.0
  C  C1873  1  0.534400  0.430500  0.688400  1.0
  C  C1874  1  0.965600  0.069500  0.688400  1.0
  C  C1875  1  0.965600  0.430500  0.811600  1.0
  C  C1876  1  0.534400  0.069500  0.811600  1.0
  C  C1877  1  0.688400  0.534400  0.430500  1.0
  C  C1878  1  0.688400  0.965600  0.069500  1.0
  C  C1879  1  0.811600  0.965600  0.430500  1.0
  C  C1880  1  0.811600  0.534400  0.069500  1.0
  C  C1881  1  0.430500  0.688400  0.534400  1.0
  C  C1882  1  0.069500  0.688400  0.965600  1.0
  C  C1883  1  0.430500  0.811600  0.965600  1.0
  C  C1884  1  0.069500  0.811600  0.534400  1.0
  C  C1885  1  0.430500  0.534400  0.811600  1.0
  C  C1886  1  0.069500  0.965600  0.811600  1.0
  C  C1887  1  0.430500  0.965600  0.688400  1.0
  C  C1888  1  0.069500  0.534400  0.688400  1.0
  C  C1889  1  0.534400  0.688400  0.069500  1.0
  C  C1890  1  0.965600  0.688400  0.430500  1.0
  C  C1891  1  0.965600  0.811600  0.069500  1.0
  C  C1892  1  0.534400  0.811600  0.430500  1.0
  C  C1893  1  0.688400  0.430500  0.965600  1.0
  C  C1894  1  0.688400  0.069500  0.534400  1.0
  C  C1895  1  0.811600  0.430500  0.534400  1.0
  C  C1896  1  0.811600  0.069500  0.965600  1.0
  C  C1897  1  0.442400  0.543000  0.314200  1.0
  C  C1898  1  0.057600  0.957000  0.314200  1.0
  C  C1899  1  0.057600  0.543000  0.185800  1.0
  C  C1900  1  0.442400  0.957000  0.185800  1.0
  C  C1901  1  0.314200  0.442400  0.543000  1.0
  C  C1902  1  0.314200  0.057600  0.957000  1.0
  C  C1903  1  0.185800  0.057600  0.543000  1.0
  C  C1904  1  0.185800  0.442400  0.957000  1.0
  C  C1905  1  0.543000  0.314200  0.442400  1.0
  C  C1906  1  0.957000  0.314200  0.057600  1.0
  C  C1907  1  0.543000  0.185800  0.057600  1.0
  C  C1908  1  0.957000  0.185800  0.442400  1.0
  C  C1909  1  0.543000  0.442400  0.185800  1.0
  C  C1910  1  0.957000  0.057600  0.185800  1.0
  C  C1911  1  0.543000  0.057600  0.314200  1.0
  C  C1912  1  0.957000  0.442400  0.314200  1.0
  C  C1913  1  0.442400  0.314200  0.957000  1.0
  C  C1914  1  0.057600  0.314200  0.543000  1.0
  C  C1915  1  0.057600  0.185800  0.957000  1.0
  C  C1916  1  0.442400  0.185800  0.543000  1.0
  C  C1917  1  0.314200  0.543000  0.057600  1.0
  C  C1918  1  0.314200  0.957000  0.442400  1.0
  C  C1919  1  0.185800  0.543000  0.442400  1.0
  C  C1920  1  0.185800  0.957000  0.057600  1.0
  C  C1921  1  0.557600  0.457000  0.685800  1.0
  C  C1922  1  0.942400  0.043000  0.685800  1.0
  C  C1923  1  0.942400  0.457000  0.814200  1.0
  C  C1924  1  0.557600  0.043000  0.814200  1.0
  C  C1925  1  0.685800  0.557600  0.457000  1.0
  C  C1926  1  0.685800  0.942400  0.043000  1.0
  C  C1927  1  0.814200  0.942400  0.457000  1.0
  C  C1928  1  0.814200  0.557600  0.043000  1.0
  C  C1929  1  0.457000  0.685800  0.557600  1.0
  C  C1930  1  0.043000  0.685800  0.942400  1.0
  C  C1931  1  0.457000  0.814200  0.942400  1.0
  C  C1932  1  0.043000  0.814200  0.557600  1.0
  C  C1933  1  0.457000  0.557600  0.814200  1.0
  C  C1934  1  0.043000  0.942400  0.814200  1.0
  C  C1935  1  0.457000  0.942400  0.685800  1.0
  C  C1936  1  0.043000  0.557600  0.685800  1.0
  C  C1937  1  0.557600  0.685800  0.043000  1.0
  C  C1938  1  0.942400  0.685800  0.457000  1.0
  C  C1939  1  0.942400  0.814200  0.043000  1.0
  C  C1940  1  0.557600  0.814200  0.457000  1.0
  C  C1941  1  0.685800  0.457000  0.942400  1.0
  C  C1942  1  0.685800  0.043000  0.557600  1.0
  C  C1943  1  0.814200  0.457000  0.557600  1.0
  C  C1944  1  0.814200  0.043000  0.942400  1.0
  C  C1945  1  0.488300  0.624900  0.293700  1.0
  C  C1946  1  0.011700  0.875100  0.293700  1.0
  C  C1947  1  0.011700  0.624900  0.206300  1.0
  C  C1948  1  0.488300  0.875100  0.206300  1.0
  C  C1949  1  0.293700  0.488300  0.624900  1.0
  C  C1950  1  0.293700  0.011700  0.875100  1.0
  C  C1951  1  0.206300  0.011700  0.624900  1.0
  C  C1952  1  0.206300  0.488300  0.875100  1.0
  C  C1953  1  0.624900  0.293700  0.488300  1.0
  C  C1954  1  0.875100  0.293700  0.011700  1.0
  C  C1955  1  0.624900  0.206300  0.011700  1.0
  C  C1956  1  0.875100  0.206300  0.488300  1.0
  C  C1957  1  0.624900  0.488300  0.206300  1.0
  C  C1958  1  0.875100  0.011700  0.206300  1.0
  C  C1959  1  0.624900  0.011700  0.293700  1.0
  C  C1960  1  0.875100  0.488300  0.293700  1.0
  C  C1961  1  0.488300  0.293700  0.875100  1.0
  C  C1962  1  0.011700  0.293700  0.624900  1.0
  C  C1963  1  0.011700  0.206300  0.875100  1.0
  C  C1964  1  0.488300  0.206300  0.624900  1.0
  C  C1965  1  0.293700  0.624900  0.011700  1.0
  C  C1966  1  0.293700  0.875100  0.488300  1.0
  C  C1967  1  0.206300  0.624900  0.488300  1.0
  C  C1968  1  0.206300  0.875100  0.011700  1.0
  C  C1969  1  0.511700  0.375100  0.706300  1.0
  C  C1970  1  0.988300  0.124900  0.706300  1.0
  C  C1971  1  0.988300  0.375100  0.793700  1.0
  C  C1972  1  0.511700  0.124900  0.793700  1.0
  C  C1973  1  0.706300  0.511700  0.375100  1.0
  C  C1974  1  0.706300  0.988300  0.124900  1.0
  C  C1975  1  0.793700  0.988300  0.375100  1.0
  C  C1976  1  0.793700  0.511700  0.124900  1.0
  C  C1977  1  0.375100  0.706300  0.511700  1.0
  C  C1978  1  0.124900  0.706300  0.988300  1.0
  C  C1979  1  0.375100  0.793700  0.988300  1.0
  C  C1980  1  0.124900  0.793700  0.511700  1.0
  C  C1981  1  0.375100  0.511700  0.793700  1.0
  C  C1982  1  0.124900  0.988300  0.793700  1.0
  C  C1983  1  0.375100  0.988300  0.706300  1.0
  C  C1984  1  0.124900  0.511700  0.706300  1.0
  C  C1985  1  0.511700  0.706300  0.124900  1.0
  C  C1986  1  0.988300  0.706300  0.375100  1.0
  C  C1987  1  0.988300  0.793700  0.124900  1.0
  C  C1988  1  0.511700  0.793700  0.375100  1.0
  C  C1989  1  0.706300  0.375100  0.988300  1.0
  C  C1990  1  0.706300  0.124900  0.511700  1.0
  C  C1991  1  0.793700  0.375100  0.511700  1.0
  C  C1992  1  0.793700  0.124900  0.988300  1.0
  C  C1993  1  0.489100  0.652100  0.268500  1.0
  C  C1994  1  0.010900  0.847900  0.268500  1.0
  C  C1995  1  0.010900  0.652100  0.231500  1.0
  C  C1996  1  0.489100  0.847900  0.231500  1.0
  C  C1997  1  0.268500  0.489100  0.652100  1.0
  C  C1998  1  0.268500  0.010900  0.847900  1.0
  C  C1999  1  0.231500  0.010900  0.652100  1.0
  C  C2000  1  0.231500  0.489100  0.847900  1.0
  C  C2001  1  0.652100  0.268500  0.489100  1.0
  C  C2002  1  0.847900  0.268500  0.010900  1.0
  C  C2003  1  0.652100  0.231500  0.010900  1.0
  C  C2004  1  0.847900  0.231500  0.489100  1.0
  C  C2005  1  0.652100  0.489100  0.231500  1.0
  C  C2006  1  0.847900  0.010900  0.231500  1.0
  C  C2007  1  0.652100  0.010900  0.268500  1.0
  C  C2008  1  0.847900  0.489100  0.268500  1.0
  C  C2009  1  0.489100  0.268500  0.847900  1.0
  C  C2010  1  0.010900  0.268500  0.652100  1.0
  C  C2011  1  0.010900  0.231500  0.847900  1.0
  C  C2012  1  0.489100  0.231500  0.652100  1.0
  C  C2013  1  0.268500  0.652100  0.010900  1.0
  C  C2014  1  0.268500  0.847900  0.489100  1.0
  C  C2015  1  0.231500  0.652100  0.489100  1.0
  C  C2016  1  0.231500  0.847900  0.010900  1.0
  C  C2017  1  0.510900  0.347900  0.731500  1.0
  C  C2018  1  0.989100  0.152100  0.731500  1.0
  C  C2019  1  0.989100  0.347900  0.768500  1.0
  C  C2020  1  0.510900  0.152100  0.768500  1.0
  C  C2021  1  0.731500  0.510900  0.347900  1.0
  C  C2022  1  0.731500  0.989100  0.152100  1.0
  C  C2023  1  0.768500  0.989100  0.347900  1.0
  C  C2024  1  0.768500  0.510900  0.152100  1.0
  C  C2025  1  0.347900  0.731500  0.510900  1.0
  C  C2026  1  0.152100  0.731500  0.989100  1.0
  C  C2027  1  0.347900  0.768500  0.989100  1.0
  C  C2028  1  0.152100  0.768500  0.510900  1.0
  C  C2029  1  0.347900  0.510900  0.768500  1.0
  C  C2030  1  0.152100  0.989100  0.768500  1.0
  C  C2031  1  0.347900  0.989100  0.731500  1.0
  C  C2032  1  0.152100  0.510900  0.731500  1.0
  C  C2033  1  0.510900  0.731500  0.152100  1.0
  C  C2034  1  0.989100  0.731500  0.347900  1.0
  C  C2035  1  0.989100  0.768500  0.152100  1.0
  C  C2036  1  0.510900  0.768500  0.347900  1.0
  C  C2037  1  0.731500  0.347900  0.989100  1.0
  C  C2038  1  0.731500  0.152100  0.510900  1.0
  C  C2039  1  0.768500  0.347900  0.510900  1.0
  C  C2040  1  0.768500  0.152100  0.989100  1.0
  C  C2041  1  0.441200  0.732700  0.293400  1.0
  C  C2042  1  0.058800  0.767300  0.293400  1.0
  C  C2043  1  0.058800  0.732700  0.206600  1.0
  C  C2044  1  0.441200  0.767300  0.206600  1.0
  C  C2045  1  0.293400  0.441200  0.732700  1.0
  C  C2046  1  0.293400  0.058800  0.767300  1.0
  C  C2047  1  0.206600  0.058800  0.732700  1.0
  C  C2048  1  0.206600  0.441200  0.767300  1.0
  C  C2049  1  0.732700  0.293400  0.441200  1.0
  C  C2050  1  0.767300  0.293400  0.058800  1.0
  C  C2051  1  0.732700  0.206600  0.058800  1.0
  C  C2052  1  0.767300  0.206600  0.441200  1.0
  C  C2053  1  0.732700  0.441200  0.206600  1.0
  C  C2054  1  0.767300  0.058800  0.206600  1.0
  C  C2055  1  0.732700  0.058800  0.293400  1.0
  C  C2056  1  0.767300  0.441200  0.293400  1.0
  C  C2057  1  0.441200  0.293400  0.767300  1.0
  C  C2058  1  0.058800  0.293400  0.732700  1.0
  C  C2059  1  0.058800  0.206600  0.767300  1.0
  C  C2060  1  0.441200  0.206600  0.732700  1.0
  C  C2061  1  0.293400  0.732700  0.058800  1.0
  C  C2062  1  0.293400  0.767300  0.441200  1.0
  C  C2063  1  0.206600  0.732700  0.441200  1.0
  C  C2064  1  0.206600  0.767300  0.058800  1.0
  C  C2065  1  0.558800  0.267300  0.706600  1.0
  C  C2066  1  0.941200  0.232700  0.706600  1.0
  C  C2067  1  0.941200  0.267300  0.793400  1.0
  C  C2068  1  0.558800  0.232700  0.793400  1.0
  C  C2069  1  0.706600  0.558800  0.267300  1.0
  C  C2070  1  0.706600  0.941200  0.232700  1.0
  C  C2071  1  0.793400  0.941200  0.267300  1.0
  C  C2072  1  0.793400  0.558800  0.232700  1.0
  C  C2073  1  0.267300  0.706600  0.558800  1.0
  C  C2074  1  0.232700  0.706600  0.941200  1.0
  C  C2075  1  0.267300  0.793400  0.941200  1.0
  C  C2076  1  0.232700  0.793400  0.558800  1.0
  C  C2077  1  0.267300  0.558800  0.793400  1.0
  C  C2078  1  0.232700  0.941200  0.793400  1.0
  C  C2079  1  0.267300  0.941200  0.706600  1.0
  C  C2080  1  0.232700  0.558800  0.706600  1.0
  C  C2081  1  0.558800  0.706600  0.232700  1.0
  C  C2082  1  0.941200  0.706600  0.267300  1.0
  C  C2083  1  0.941200  0.793400  0.232700  1.0
  C  C2084  1  0.558800  0.793400  0.267300  1.0
  C  C2085  1  0.706600  0.267300  0.941200  1.0
  C  C2086  1  0.706600  0.232700  0.558800  1.0
  C  C2087  1  0.793400  0.267300  0.558800  1.0
  C  C2088  1  0.793400  0.232700  0.941200  1.0
  C  C2089  1  0.467000  0.709500  0.286300  1.0
  C  C2090  1  0.033000  0.790500  0.286300  1.0
  C  C2091  1  0.033000  0.709500  0.213700  1.0
  C  C2092  1  0.467000  0.790500  0.213700  1.0
  C  C2093  1  0.286300  0.467000  0.709500  1.0
  C  C2094  1  0.286300  0.033000  0.790500  1.0
  C  C2095  1  0.213700  0.033000  0.709500  1.0
  C  C2096  1  0.213700  0.467000  0.790500  1.0
  C  C2097  1  0.709500  0.286300  0.467000  1.0
  C  C2098  1  0.790500  0.286300  0.033000  1.0
  C  C2099  1  0.709500  0.213700  0.033000  1.0
  C  C2100  1  0.790500  0.213700  0.467000  1.0
  C  C2101  1  0.709500  0.467000  0.213700  1.0
  C  C2102  1  0.790500  0.033000  0.213700  1.0
  C  C2103  1  0.709500  0.033000  0.286300  1.0
  C  C2104  1  0.790500  0.467000  0.286300  1.0
  C  C2105  1  0.467000  0.286300  0.790500  1.0
  C  C2106  1  0.033000  0.286300  0.709500  1.0
  C  C2107  1  0.033000  0.213700  0.790500  1.0
  C  C2108  1  0.467000  0.213700  0.709500  1.0
  C  C2109  1  0.286300  0.709500  0.033000  1.0
  C  C2110  1  0.286300  0.790500  0.467000  1.0
  C  C2111  1  0.213700  0.709500  0.467000  1.0
  C  C2112  1  0.213700  0.790500  0.033000  1.0
  C  C2113  1  0.533000  0.290500  0.713700  1.0
  C  C2114  1  0.967000  0.209500  0.713700  1.0
  C  C2115  1  0.967000  0.290500  0.786300  1.0
  C  C2116  1  0.533000  0.209500  0.786300  1.0
  C  C2117  1  0.713700  0.533000  0.290500  1.0
  C  C2118  1  0.713700  0.967000  0.209500  1.0
  C  C2119  1  0.786300  0.967000  0.290500  1.0
  C  C2120  1  0.786300  0.533000  0.209500  1.0
  C  C2121  1  0.290500  0.713700  0.533000  1.0
  C  C2122  1  0.209500  0.713700  0.967000  1.0
  C  C2123  1  0.290500  0.786300  0.967000  1.0
  C  C2124  1  0.209500  0.786300  0.533000  1.0
  C  C2125  1  0.290500  0.533000  0.786300  1.0
  C  C2126  1  0.209500  0.967000  0.786300  1.0
  C  C2127  1  0.290500  0.967000  0.713700  1.0
  C  C2128  1  0.209500  0.533000  0.713700  1.0
  C  C2129  1  0.533000  0.713700  0.209500  1.0
  C  C2130  1  0.967000  0.713700  0.290500  1.0
  C  C2131  1  0.967000  0.786300  0.209500  1.0
  C  C2132  1  0.533000  0.786300  0.290500  1.0
  C  C2133  1  0.713700  0.290500  0.967000  1.0
  C  C2134  1  0.713700  0.209500  0.533000  1.0
  C  C2135  1  0.786300  0.290500  0.533000  1.0
  C  C2136  1  0.786300  0.209500  0.967000  1.0
  C  C2137  1  0.459600  0.677800  0.273700  1.0
  C  C2138  1  0.040400  0.822200  0.273700  1.0
  C  C2139  1  0.040400  0.677800  0.226300  1.0
  C  C2140  1  0.459600  0.822200  0.226300  1.0
  C  C2141  1  0.273700  0.459600  0.677800  1.0
  C  C2142  1  0.273700  0.040400  0.822200  1.0
  C  C2143  1  0.226300  0.040400  0.677800  1.0
  C  C2144  1  0.226300  0.459600  0.822200  1.0
  C  C2145  1  0.677800  0.273700  0.459600  1.0
  C  C2146  1  0.822200  0.273700  0.040400  1.0
  C  C2147  1  0.677800  0.226300  0.040400  1.0
  C  C2148  1  0.822200  0.226300  0.459600  1.0
  C  C2149  1  0.677800  0.459600  0.226300  1.0
  C  C2150  1  0.822200  0.040400  0.226300  1.0
  C  C2151  1  0.677800  0.040400  0.273700  1.0
  C  C2152  1  0.822200  0.459600  0.273700  1.0
  C  C2153  1  0.459600  0.273700  0.822200  1.0
  C  C2154  1  0.040400  0.273700  0.677800  1.0
  C  C2155  1  0.040400  0.226300  0.822200  1.0
  C  C2156  1  0.459600  0.226300  0.677800  1.0
  C  C2157  1  0.273700  0.677800  0.040400  1.0
  C  C2158  1  0.273700  0.822200  0.459600  1.0
  C  C2159  1  0.226300  0.677800  0.459600  1.0
  C  C2160  1  0.226300  0.822200  0.040400  1.0
  C  C2161  1  0.540400  0.322200  0.726300  1.0
  C  C2162  1  0.959600  0.177800  0.726300  1.0
  C  C2163  1  0.959600  0.322200  0.773700  1.0
  C  C2164  1  0.540400  0.177800  0.773700  1.0
  C  C2165  1  0.726300  0.540400  0.322200  1.0
  C  C2166  1  0.726300  0.959600  0.177800  1.0
  C  C2167  1  0.773700  0.959600  0.322200  1.0
  C  C2168  1  0.773700  0.540400  0.177800  1.0
  C  C2169  1  0.322200  0.726300  0.540400  1.0
  C  C2170  1  0.177800  0.726300  0.959600  1.0
  C  C2171  1  0.322200  0.773700  0.959600  1.0
  C  C2172  1  0.177800  0.773700  0.540400  1.0
  C  C2173  1  0.322200  0.540400  0.773700  1.0
  C  C2174  1  0.177800  0.959600  0.773700  1.0
  C  C2175  1  0.322200  0.959600  0.726300  1.0
  C  C2176  1  0.177800  0.540400  0.726300  1.0
  C  C2177  1  0.540400  0.726300  0.177800  1.0
  C  C2178  1  0.959600  0.726300  0.322200  1.0
  C  C2179  1  0.959600  0.773700  0.177800  1.0
  C  C2180  1  0.540400  0.773700  0.322200  1.0
  C  C2181  1  0.726300  0.322200  0.959600  1.0
  C  C2182  1  0.726300  0.177800  0.540400  1.0
  C  C2183  1  0.773700  0.322200  0.540400  1.0
  C  C2184  1  0.773700  0.177800  0.959600  1.0
  C  C2185  1  0.425500  0.668800  0.268200  1.0
  C  C2186  1  0.074500  0.831200  0.268200  1.0
  C  C2187  1  0.074500  0.668800  0.231800  1.0
  C  C2188  1  0.425500  0.831200  0.231800  1.0
  C  C2189  1  0.268200  0.425500  0.668800  1.0
  C  C2190  1  0.268200  0.074500  0.831200  1.0
  C  C2191  1  0.231800  0.074500  0.668800  1.0
  C  C2192  1  0.231800  0.425500  0.831200  1.0
  C  C2193  1  0.668800  0.268200  0.425500  1.0
  C  C2194  1  0.831200  0.268200  0.074500  1.0
  C  C2195  1  0.668800  0.231800  0.074500  1.0
  C  C2196  1  0.831200  0.231800  0.425500  1.0
  C  C2197  1  0.668800  0.425500  0.231800  1.0
  C  C2198  1  0.831200  0.074500  0.231800  1.0
  C  C2199  1  0.668800  0.074500  0.268200  1.0
  C  C2200  1  0.831200  0.425500  0.268200  1.0
  C  C2201  1  0.425500  0.268200  0.831200  1.0
  C  C2202  1  0.074500  0.268200  0.668800  1.0
  C  C2203  1  0.074500  0.231800  0.831200  1.0
  C  C2204  1  0.425500  0.231800  0.668800  1.0
  C  C2205  1  0.268200  0.668800  0.074500  1.0
  C  C2206  1  0.268200  0.831200  0.425500  1.0
  C  C2207  1  0.231800  0.668800  0.425500  1.0
  C  C2208  1  0.231800  0.831200  0.074500  1.0
  C  C2209  1  0.574500  0.331200  0.731800  1.0
  C  C2210  1  0.925500  0.168800  0.731800  1.0
  C  C2211  1  0.925500  0.331200  0.768200  1.0
  C  C2212  1  0.574500  0.168800  0.768200  1.0
  C  C2213  1  0.731800  0.574500  0.331200  1.0
  C  C2214  1  0.731800  0.925500  0.168800  1.0
  C  C2215  1  0.768200  0.925500  0.331200  1.0
  C  C2216  1  0.768200  0.574500  0.168800  1.0
  C  C2217  1  0.331200  0.731800  0.574500  1.0
  C  C2218  1  0.168800  0.731800  0.925500  1.0
  C  C2219  1  0.331200  0.768200  0.925500  1.0
  C  C2220  1  0.168800  0.768200  0.574500  1.0
  C  C2221  1  0.331200  0.574500  0.768200  1.0
  C  C2222  1  0.168800  0.925500  0.768200  1.0
  C  C2223  1  0.331200  0.925500  0.731800  1.0
  C  C2224  1  0.168800  0.574500  0.731800  1.0
  C  C2225  1  0.574500  0.731800  0.168800  1.0
  C  C2226  1  0.925500  0.731800  0.331200  1.0
  C  C2227  1  0.925500  0.768200  0.168800  1.0
  C  C2228  1  0.574500  0.768200  0.331200  1.0
  C  C2229  1  0.731800  0.331200  0.925500  1.0
  C  C2230  1  0.731800  0.168800  0.574500  1.0
  C  C2231  1  0.768200  0.331200  0.574500  1.0
  C  C2232  1  0.768200  0.168800  0.925500  1.0
  C  C2233  1  0.399700  0.691700  0.275300  1.0
  C  C2234  1  0.100300  0.808300  0.275300  1.0
  C  C2235  1  0.100300  0.691700  0.224700  1.0
  C  C2236  1  0.399700  0.808300  0.224700  1.0
  C  C2237  1  0.275300  0.399700  0.691700  1.0
  C  C2238  1  0.275300  0.100300  0.808300  1.0
  C  C2239  1  0.224700  0.100300  0.691700  1.0
  C  C2240  1  0.224700  0.399700  0.808300  1.0
  C  C2241  1  0.691700  0.275300  0.399700  1.0
  C  C2242  1  0.808300  0.275300  0.100300  1.0
  C  C2243  1  0.691700  0.224700  0.100300  1.0
  C  C2244  1  0.808300  0.224700  0.399700  1.0
  C  C2245  1  0.691700  0.399700  0.224700  1.0
  C  C2246  1  0.808300  0.100300  0.224700  1.0
  C  C2247  1  0.691700  0.100300  0.275300  1.0
  C  C2248  1  0.808300  0.399700  0.275300  1.0
  C  C2249  1  0.399700  0.275300  0.808300  1.0
  C  C2250  1  0.100300  0.275300  0.691700  1.0
  C  C2251  1  0.100300  0.224700  0.808300  1.0
  C  C2252  1  0.399700  0.224700  0.691700  1.0
  C  C2253  1  0.275300  0.691700  0.100300  1.0
  C  C2254  1  0.275300  0.808300  0.399700  1.0
  C  C2255  1  0.224700  0.691700  0.399700  1.0
  C  C2256  1  0.224700  0.808300  0.100300  1.0
  C  C2257  1  0.600300  0.308300  0.724700  1.0
  C  C2258  1  0.899700  0.191700  0.724700  1.0
  C  C2259  1  0.899700  0.308300  0.775300  1.0
  C  C2260  1  0.600300  0.191700  0.775300  1.0
  C  C2261  1  0.724700  0.600300  0.308300  1.0
  C  C2262  1  0.724700  0.899700  0.191700  1.0
  C  C2263  1  0.775300  0.899700  0.308300  1.0
  C  C2264  1  0.775300  0.600300  0.191700  1.0
  C  C2265  1  0.308300  0.724700  0.600300  1.0
  C  C2266  1  0.191700  0.724700  0.899700  1.0
  C  C2267  1  0.308300  0.775300  0.899700  1.0
  C  C2268  1  0.191700  0.775300  0.600300  1.0
  C  C2269  1  0.308300  0.600300  0.775300  1.0
  C  C2270  1  0.191700  0.899700  0.775300  1.0
  C  C2271  1  0.308300  0.899700  0.724700  1.0
  C  C2272  1  0.191700  0.600300  0.724700  1.0
  C  C2273  1  0.600300  0.724700  0.191700  1.0
  C  C2274  1  0.899700  0.724700  0.308300  1.0
  C  C2275  1  0.899700  0.775300  0.191700  1.0
  C  C2276  1  0.600300  0.775300  0.308300  1.0
  C  C2277  1  0.724700  0.308300  0.899700  1.0
  C  C2278  1  0.724700  0.191700  0.600300  1.0
  C  C2279  1  0.775300  0.308300  0.600300  1.0
  C  C2280  1  0.775300  0.191700  0.899700  1.0
  C  C2281  1  0.407500  0.724100  0.287700  1.0
  C  C2282  1  0.092500  0.775900  0.287700  1.0
  C  C2283  1  0.092500  0.724100  0.212300  1.0
  C  C2284  1  0.407500  0.775900  0.212300  1.0
  C  C2285  1  0.287700  0.407500  0.724100  1.0
  C  C2286  1  0.287700  0.092500  0.775900  1.0
  C  C2287  1  0.212300  0.092500  0.724100  1.0
  C  C2288  1  0.212300  0.407500  0.775900  1.0
  C  C2289  1  0.724100  0.287700  0.407500  1.0
  C  C2290  1  0.775900  0.287700  0.092500  1.0
  C  C2291  1  0.724100  0.212300  0.092500  1.0
  C  C2292  1  0.775900  0.212300  0.407500  1.0
  C  C2293  1  0.724100  0.407500  0.212300  1.0
  C  C2294  1  0.775900  0.092500  0.212300  1.0
  C  C2295  1  0.724100  0.092500  0.287700  1.0
  C  C2296  1  0.775900  0.407500  0.287700  1.0
  C  C2297  1  0.407500  0.287700  0.775900  1.0
  C  C2298  1  0.092500  0.287700  0.724100  1.0
  C  C2299  1  0.092500  0.212300  0.775900  1.0
  C  C2300  1  0.407500  0.212300  0.724100  1.0
  C  C2301  1  0.287700  0.724100  0.092500  1.0
  C  C2302  1  0.287700  0.775900  0.407500  1.0
  C  C2303  1  0.212300  0.724100  0.407500  1.0
  C  C2304  1  0.212300  0.775900  0.092500  1.0
  C  C2305  1  0.592500  0.275900  0.712300  1.0
  C  C2306  1  0.907500  0.224100  0.712300  1.0
  C  C2307  1  0.907500  0.275900  0.787700  1.0
  C  C2308  1  0.592500  0.224100  0.787700  1.0
  C  C2309  1  0.712300  0.592500  0.275900  1.0
  C  C2310  1  0.712300  0.907500  0.224100  1.0
  C  C2311  1  0.787700  0.907500  0.275900  1.0
  C  C2312  1  0.787700  0.592500  0.224100  1.0
  C  C2313  1  0.275900  0.712300  0.592500  1.0
  C  C2314  1  0.224100  0.712300  0.907500  1.0
  C  C2315  1  0.275900  0.787700  0.907500  1.0
  C  C2316  1  0.224100  0.787700  0.592500  1.0
  C  C2317  1  0.275900  0.592500  0.787700  1.0
  C  C2318  1  0.224100  0.907500  0.787700  1.0
  C  C2319  1  0.275900  0.907500  0.712300  1.0
  C  C2320  1  0.224100  0.592500  0.712300  1.0
  C  C2321  1  0.592500  0.712300  0.224100  1.0
  C  C2322  1  0.907500  0.712300  0.275900  1.0
  C  C2323  1  0.907500  0.787700  0.224100  1.0
  C  C2324  1  0.592500  0.787700  0.275900  1.0
  C  C2325  1  0.712300  0.275900  0.907500  1.0
  C  C2326  1  0.712300  0.224100  0.592500  1.0
  C  C2327  1  0.787700  0.275900  0.592500  1.0
  C  C2328  1  0.787700  0.224100  0.907500  1.0
  C  C2329  1  0.381700  0.749100  0.293500  1.0
  C  C2330  1  0.118300  0.750900  0.293500  1.0
  C  C2331  1  0.118300  0.749100  0.206500  1.0
  C  C2332  1  0.381700  0.750900  0.206500  1.0
  C  C2333  1  0.293500  0.381700  0.749100  1.0
  C  C2334  1  0.293500  0.118300  0.750900  1.0
  C  C2335  1  0.206500  0.118300  0.749100  1.0
  C  C2336  1  0.206500  0.381700  0.750900  1.0
  C  C2337  1  0.749100  0.293500  0.381700  1.0
  C  C2338  1  0.750900  0.293500  0.118300  1.0
  C  C2339  1  0.749100  0.206500  0.118300  1.0
  C  C2340  1  0.750900  0.206500  0.381700  1.0
  C  C2341  1  0.749100  0.381700  0.206500  1.0
  C  C2342  1  0.750900  0.118300  0.206500  1.0
  C  C2343  1  0.749100  0.118300  0.293500  1.0
  C  C2344  1  0.750900  0.381700  0.293500  1.0
  C  C2345  1  0.381700  0.293500  0.750900  1.0
  C  C2346  1  0.118300  0.293500  0.749100  1.0
  C  C2347  1  0.118300  0.206500  0.750900  1.0
  C  C2348  1  0.381700  0.206500  0.749100  1.0
  C  C2349  1  0.293500  0.749100  0.118300  1.0
  C  C2350  1  0.293500  0.750900  0.381700  1.0
  C  C2351  1  0.206500  0.749100  0.381700  1.0
  C  C2352  1  0.206500  0.750900  0.118300  1.0
  C  C2353  1  0.618300  0.250900  0.706500  1.0
  C  C2354  1  0.881700  0.249100  0.706500  1.0
  C  C2355  1  0.881700  0.250900  0.793500  1.0
  C  C2356  1  0.618300  0.249100  0.793500  1.0
  C  C2357  1  0.706500  0.618300  0.250900  1.0
  C  C2358  1  0.706500  0.881700  0.249100  1.0
  C  C2359  1  0.793500  0.881700  0.250900  1.0
  C  C2360  1  0.793500  0.618300  0.249100  1.0
  C  C2361  1  0.250900  0.706500  0.618300  1.0
  C  C2362  1  0.249100  0.706500  0.881700  1.0
  C  C2363  1  0.250900  0.793500  0.881700  1.0
  C  C2364  1  0.249100  0.793500  0.618300  1.0
  C  C2365  1  0.250900  0.618300  0.793500  1.0
  C  C2366  1  0.249100  0.881700  0.793500  1.0
  C  C2367  1  0.250900  0.881700  0.706500  1.0
  C  C2368  1  0.249100  0.618300  0.706500  1.0
  C  C2369  1  0.618300  0.706500  0.249100  1.0
  C  C2370  1  0.881700  0.706500  0.250900  1.0
  C  C2371  1  0.881700  0.793500  0.249100  1.0
  C  C2372  1  0.618300  0.793500  0.250900  1.0
  C  C2373  1  0.706500  0.250900  0.881700  1.0
  C  C2374  1  0.706500  0.249100  0.618300  1.0
  C  C2375  1  0.793500  0.250900  0.618300  1.0
  C  C2376  1  0.793500  0.249100  0.881700  1.0
  C  C2377  1  0.361900  0.771100  0.301100  1.0
  C  C2378  1  0.138100  0.728900  0.301100  1.0
  C  C2379  1  0.138100  0.771100  0.198900  1.0
  C  C2380  1  0.361900  0.728900  0.198900  1.0
  C  C2381  1  0.301100  0.361900  0.771100  1.0
  C  C2382  1  0.301100  0.138100  0.728900  1.0
  C  C2383  1  0.198900  0.138100  0.771100  1.0
  C  C2384  1  0.198900  0.361900  0.728900  1.0
  C  C2385  1  0.771100  0.301100  0.361900  1.0
  C  C2386  1  0.728900  0.301100  0.138100  1.0
  C  C2387  1  0.771100  0.198900  0.138100  1.0
  C  C2388  1  0.728900  0.198900  0.361900  1.0
  C  C2389  1  0.771100  0.361900  0.198900  1.0
  C  C2390  1  0.728900  0.138100  0.198900  1.0
  C  C2391  1  0.771100  0.138100  0.301100  1.0
  C  C2392  1  0.728900  0.361900  0.301100  1.0
  C  C2393  1  0.361900  0.301100  0.728900  1.0
  C  C2394  1  0.138100  0.301100  0.771100  1.0
  C  C2395  1  0.138100  0.198900  0.728900  1.0
  C  C2396  1  0.361900  0.198900  0.771100  1.0
  C  C2397  1  0.301100  0.771100  0.138100  1.0
  C  C2398  1  0.301100  0.728900  0.361900  1.0
  C  C2399  1  0.198900  0.771100  0.361900  1.0
  C  C2400  1  0.198900  0.728900  0.138100  1.0
  C  C2401  1  0.638100  0.228900  0.698900  1.0
  C  C2402  1  0.861900  0.271100  0.698900  1.0
  C  C2403  1  0.861900  0.228900  0.801100  1.0
  C  C2404  1  0.638100  0.271100  0.801100  1.0
  C  C2405  1  0.698900  0.638100  0.228900  1.0
  C  C2406  1  0.698900  0.861900  0.271100  1.0
  C  C2407  1  0.801100  0.861900  0.228900  1.0
  C  C2408  1  0.801100  0.638100  0.271100  1.0
  C  C2409  1  0.228900  0.698900  0.638100  1.0
  C  C2410  1  0.271100  0.698900  0.861900  1.0
  C  C2411  1  0.228900  0.801100  0.861900  1.0
  C  C2412  1  0.271100  0.801100  0.638100  1.0
  C  C2413  1  0.228900  0.638100  0.801100  1.0
  C  C2414  1  0.271100  0.861900  0.801100  1.0
  C  C2415  1  0.228900  0.861900  0.698900  1.0
  C  C2416  1  0.271100  0.638100  0.698900  1.0
  C  C2417  1  0.638100  0.698900  0.271100  1.0
  C  C2418  1  0.861900  0.698900  0.228900  1.0
  C  C2419  1  0.861900  0.801100  0.271100  1.0
  C  C2420  1  0.638100  0.801100  0.228900  1.0
  C  C2421  1  0.698900  0.228900  0.861900  1.0
  C  C2422  1  0.698900  0.271100  0.638100  1.0
  C  C2423  1  0.801100  0.228900  0.638100  1.0
  C  C2424  1  0.801100  0.271100  0.861900  1.0
  C  C2425  1  0.311500  0.802600  0.282400  1.0
  C  C2426  1  0.188500  0.697400  0.282400  1.0
  C  C2427  1  0.188500  0.802600  0.217600  1.0
  C  C2428  1  0.311500  0.697400  0.217600  1.0
  C  C2429  1  0.282400  0.311500  0.802600  1.0
  C  C2430  1  0.282400  0.188500  0.697400  1.0
  C  C2431  1  0.217600  0.188500  0.802600  1.0
  C  C2432  1  0.217600  0.311500  0.697400  1.0
  C  C2433  1  0.802600  0.282400  0.311500  1.0
  C  C2434  1  0.697400  0.282400  0.188500  1.0
  C  C2435  1  0.802600  0.217600  0.188500  1.0
  C  C2436  1  0.697400  0.217600  0.311500  1.0
  C  C2437  1  0.802600  0.311500  0.217600  1.0
  C  C2438  1  0.697400  0.188500  0.217600  1.0
  C  C2439  1  0.802600  0.188500  0.282400  1.0
  C  C2440  1  0.697400  0.311500  0.282400  1.0
  C  C2441  1  0.311500  0.282400  0.697400  1.0
  C  C2442  1  0.188500  0.282400  0.802600  1.0
  C  C2443  1  0.188500  0.217600  0.697400  1.0
  C  C2444  1  0.311500  0.217600  0.802600  1.0
  C  C2445  1  0.282400  0.802600  0.188500  1.0
  C  C2446  1  0.282400  0.697400  0.311500  1.0
  C  C2447  1  0.217600  0.802600  0.311500  1.0
  C  C2448  1  0.217600  0.697400  0.188500  1.0
  C  C2449  1  0.688500  0.197400  0.717600  1.0
  C  C2450  1  0.811500  0.302600  0.717600  1.0
  C  C2451  1  0.811500  0.197400  0.782400  1.0
  C  C2452  1  0.688500  0.302600  0.782400  1.0
  C  C2453  1  0.717600  0.688500  0.197400  1.0
  C  C2454  1  0.717600  0.811500  0.302600  1.0
  C  C2455  1  0.782400  0.811500  0.197400  1.0
  C  C2456  1  0.782400  0.688500  0.302600  1.0
  C  C2457  1  0.197400  0.717600  0.688500  1.0
  C  C2458  1  0.302600  0.717600  0.811500  1.0
  C  C2459  1  0.197400  0.782400  0.811500  1.0
  C  C2460  1  0.302600  0.782400  0.688500  1.0
  C  C2461  1  0.197400  0.688500  0.782400  1.0
  C  C2462  1  0.302600  0.811500  0.782400  1.0
  C  C2463  1  0.197400  0.811500  0.717600  1.0
  C  C2464  1  0.302600  0.688500  0.717600  1.0
  C  C2465  1  0.688500  0.717600  0.302600  1.0
  C  C2466  1  0.811500  0.717600  0.197400  1.0
  C  C2467  1  0.811500  0.782400  0.302600  1.0
  C  C2468  1  0.688500  0.782400  0.197400  1.0
  C  C2469  1  0.717600  0.197400  0.811500  1.0
  C  C2470  1  0.717600  0.302600  0.688500  1.0
  C  C2471  1  0.782400  0.197400  0.688500  1.0
  C  C2472  1  0.782400  0.302600  0.811500  1.0
  C  C2473  1  0.338100  0.799800  0.305200  1.0
  C  C2474  1  0.161900  0.700200  0.305200  1.0
  C  C2475  1  0.161900  0.799800  0.194800  1.0
  C  C2476  1  0.338100  0.700200  0.194800  1.0
  C  C2477  1  0.305200  0.338100  0.799800  1.0
  C  C2478  1  0.305200  0.161900  0.700200  1.0
  C  C2479  1  0.194800  0.161900  0.799800  1.0
  C  C2480  1  0.194800  0.338100  0.700200  1.0
  C  C2481  1  0.799800  0.305200  0.338100  1.0
  C  C2482  1  0.700200  0.305200  0.161900  1.0
  C  C2483  1  0.799800  0.194800  0.161900  1.0
  C  C2484  1  0.700200  0.194800  0.338100  1.0
  C  C2485  1  0.799800  0.338100  0.194800  1.0
  C  C2486  1  0.700200  0.161900  0.194800  1.0
  C  C2487  1  0.799800  0.161900  0.305200  1.0
  C  C2488  1  0.700200  0.338100  0.305200  1.0
  C  C2489  1  0.338100  0.305200  0.700200  1.0
  C  C2490  1  0.161900  0.305200  0.799800  1.0
  C  C2491  1  0.161900  0.194800  0.700200  1.0
  C  C2492  1  0.338100  0.194800  0.799800  1.0
  C  C2493  1  0.305200  0.799800  0.161900  1.0
  C  C2494  1  0.305200  0.700200  0.338100  1.0
  C  C2495  1  0.194800  0.799800  0.338100  1.0
  C  C2496  1  0.194800  0.700200  0.161900  1.0
  C  C2497  1  0.661900  0.200200  0.694800  1.0
  C  C2498  1  0.838100  0.299800  0.694800  1.0
  C  C2499  1  0.838100  0.200200  0.805200  1.0
  C  C2500  1  0.661900  0.299800  0.805200  1.0
  C  C2501  1  0.694800  0.661900  0.200200  1.0
  C  C2502  1  0.694800  0.838100  0.299800  1.0
  C  C2503  1  0.805200  0.838100  0.200200  1.0
  C  C2504  1  0.805200  0.661900  0.299800  1.0
  C  C2505  1  0.200200  0.694800  0.661900  1.0
  C  C2506  1  0.299800  0.694800  0.838100  1.0
  C  C2507  1  0.200200  0.805200  0.838100  1.0
  C  C2508  1  0.299800  0.805200  0.661900  1.0
  C  C2509  1  0.200200  0.661900  0.805200  1.0
  C  C2510  1  0.299800  0.838100  0.805200  1.0
  C  C2511  1  0.200200  0.838100  0.694800  1.0
  C  C2512  1  0.299800  0.661900  0.694800  1.0
  C  C2513  1  0.661900  0.694800  0.299800  1.0
  C  C2514  1  0.838100  0.694800  0.200200  1.0
  C  C2515  1  0.838100  0.805200  0.299800  1.0
  C  C2516  1  0.661900  0.805200  0.200200  1.0
  C  C2517  1  0.694800  0.200200  0.838100  1.0
  C  C2518  1  0.694800  0.299800  0.661900  1.0
  C  C2519  1  0.805200  0.200200  0.661900  1.0
  C  C2520  1  0.805200  0.299800  0.838100  1.0
  C  C2521  1  0.342100  0.824000  0.330600  1.0
  C  C2522  1  0.157900  0.676000  0.330600  1.0
  C  C2523  1  0.157900  0.824000  0.169400  1.0
  C  C2524  1  0.342100  0.676000  0.169400  1.0
  C  C2525  1  0.330600  0.342100  0.824000  1.0
  C  C2526  1  0.330600  0.157900  0.676000  1.0
  C  C2527  1  0.169400  0.157900  0.824000  1.0
  C  C2528  1  0.169400  0.342100  0.676000  1.0
  C  C2529  1  0.824000  0.330600  0.342100  1.0
  C  C2530  1  0.676000  0.330600  0.157900  1.0
  C  C2531  1  0.824000  0.169400  0.157900  1.0
  C  C2532  1  0.676000  0.169400  0.342100  1.0
  C  C2533  1  0.824000  0.342100  0.169400  1.0
  C  C2534  1  0.676000  0.157900  0.169400  1.0
  C  C2535  1  0.824000  0.157900  0.330600  1.0
  C  C2536  1  0.676000  0.342100  0.330600  1.0
  C  C2537  1  0.342100  0.330600  0.676000  1.0
  C  C2538  1  0.157900  0.330600  0.824000  1.0
  C  C2539  1  0.157900  0.169400  0.676000  1.0
  C  C2540  1  0.342100  0.169400  0.824000  1.0
  C  C2541  1  0.330600  0.824000  0.157900  1.0
  C  C2542  1  0.330600  0.676000  0.342100  1.0
  C  C2543  1  0.169400  0.824000  0.342100  1.0
  C  C2544  1  0.169400  0.676000  0.157900  1.0
  C  C2545  1  0.657900  0.176000  0.669400  1.0
  C  C2546  1  0.842100  0.324000  0.669400  1.0
  C  C2547  1  0.842100  0.176000  0.830600  1.0
  C  C2548  1  0.657900  0.324000  0.830600  1.0
  C  C2549  1  0.669400  0.657900  0.176000  1.0
  C  C2550  1  0.669400  0.842100  0.324000  1.0
  C  C2551  1  0.830600  0.842100  0.176000  1.0
  C  C2552  1  0.830600  0.657900  0.324000  1.0
  C  C2553  1  0.176000  0.669400  0.657900  1.0
  C  C2554  1  0.324000  0.669400  0.842100  1.0
  C  C2555  1  0.176000  0.830600  0.842100  1.0
  C  C2556  1  0.324000  0.830600  0.657900  1.0
  C  C2557  1  0.176000  0.657900  0.830600  1.0
  C  C2558  1  0.324000  0.842100  0.830600  1.0
  C  C2559  1  0.176000  0.842100  0.669400  1.0
  C  C2560  1  0.324000  0.657900  0.669400  1.0
  C  C2561  1  0.657900  0.669400  0.324000  1.0
  C  C2562  1  0.842100  0.669400  0.176000  1.0
  C  C2563  1  0.842100  0.830600  0.324000  1.0
  C  C2564  1  0.657900  0.830600  0.176000  1.0
  C  C2565  1  0.669400  0.176000  0.842100  1.0
  C  C2566  1  0.669400  0.324000  0.657900  1.0
  C  C2567  1  0.830600  0.176000  0.657900  1.0
  C  C2568  1  0.830600  0.324000  0.842100  1.0
  C  C2569  1  0.319300  0.850700  0.332200  1.0
  C  C2570  1  0.180700  0.649300  0.332200  1.0
  C  C2571  1  0.180700  0.850700  0.167800  1.0
  C  C2572  1  0.319300  0.649300  0.167800  1.0
  C  C2573  1  0.332200  0.319300  0.850700  1.0
  C  C2574  1  0.332200  0.180700  0.649300  1.0
  C  C2575  1  0.167800  0.180700  0.850700  1.0
  C  C2576  1  0.167800  0.319300  0.649300  1.0
  C  C2577  1  0.850700  0.332200  0.319300  1.0
  C  C2578  1  0.649300  0.332200  0.180700  1.0
  C  C2579  1  0.850700  0.167800  0.180700  1.0
  C  C2580  1  0.649300  0.167800  0.319300  1.0
  C  C2581  1  0.850700  0.319300  0.167800  1.0
  C  C2582  1  0.649300  0.180700  0.167800  1.0
  C  C2583  1  0.850700  0.180700  0.332200  1.0
  C  C2584  1  0.649300  0.319300  0.332200  1.0
  C  C2585  1  0.319300  0.332200  0.649300  1.0
  C  C2586  1  0.180700  0.332200  0.850700  1.0
  C  C2587  1  0.180700  0.167800  0.649300  1.0
  C  C2588  1  0.319300  0.167800  0.850700  1.0
  C  C2589  1  0.332200  0.850700  0.180700  1.0
  C  C2590  1  0.332200  0.649300  0.319300  1.0
  C  C2591  1  0.167800  0.850700  0.319300  1.0
  C  C2592  1  0.167800  0.649300  0.180700  1.0
  C  C2593  1  0.680700  0.149300  0.667800  1.0
  C  C2594  1  0.819300  0.350700  0.667800  1.0
  C  C2595  1  0.819300  0.149300  0.832200  1.0
  C  C2596  1  0.680700  0.350700  0.832200  1.0
  C  C2597  1  0.667800  0.680700  0.149300  1.0
  C  C2598  1  0.667800  0.819300  0.350700  1.0
  C  C2599  1  0.832200  0.819300  0.149300  1.0
  C  C2600  1  0.832200  0.680700  0.350700  1.0
  C  C2601  1  0.149300  0.667800  0.680700  1.0
  C  C2602  1  0.350700  0.667800  0.819300  1.0
  C  C2603  1  0.149300  0.832200  0.819300  1.0
  C  C2604  1  0.350700  0.832200  0.680700  1.0
  C  C2605  1  0.149300  0.680700  0.832200  1.0
  C  C2606  1  0.350700  0.819300  0.832200  1.0
  C  C2607  1  0.149300  0.819300  0.667800  1.0
  C  C2608  1  0.350700  0.680700  0.667800  1.0
  C  C2609  1  0.680700  0.667800  0.350700  1.0
  C  C2610  1  0.819300  0.667800  0.149300  1.0
  C  C2611  1  0.819300  0.832200  0.350700  1.0
  C  C2612  1  0.680700  0.832200  0.149300  1.0
  C  C2613  1  0.667800  0.149300  0.819300  1.0
  C  C2614  1  0.667800  0.350700  0.680700  1.0
  C  C2615  1  0.832200  0.149300  0.680700  1.0
  C  C2616  1  0.832200  0.350700  0.819300  1.0
  C  C2617  1  0.292900  0.853000  0.309000  1.0
  C  C2618  1  0.207100  0.647000  0.309000  1.0
  C  C2619  1  0.207100  0.853000  0.191000  1.0
  C  C2620  1  0.292900  0.647000  0.191000  1.0
  C  C2621  1  0.309000  0.292900  0.853000  1.0
  C  C2622  1  0.309000  0.207100  0.647000  1.0
  C  C2623  1  0.191000  0.207100  0.853000  1.0
  C  C2624  1  0.191000  0.292900  0.647000  1.0
  C  C2625  1  0.853000  0.309000  0.292900  1.0
  C  C2626  1  0.647000  0.309000  0.207100  1.0
  C  C2627  1  0.853000  0.191000  0.207100  1.0
  C  C2628  1  0.647000  0.191000  0.292900  1.0
  C  C2629  1  0.853000  0.292900  0.191000  1.0
  C  C2630  1  0.647000  0.207100  0.191000  1.0
  C  C2631  1  0.853000  0.207100  0.309000  1.0
  C  C2632  1  0.647000  0.292900  0.309000  1.0
  C  C2633  1  0.292900  0.309000  0.647000  1.0
  C  C2634  1  0.207100  0.309000  0.853000  1.0
  C  C2635  1  0.207100  0.191000  0.647000  1.0
  C  C2636  1  0.292900  0.191000  0.853000  1.0
  C  C2637  1  0.309000  0.853000  0.207100  1.0
  C  C2638  1  0.309000  0.647000  0.292900  1.0
  C  C2639  1  0.191000  0.853000  0.292900  1.0
  C  C2640  1  0.191000  0.647000  0.207100  1.0
  C  C2641  1  0.707100  0.147000  0.691000  1.0
  C  C2642  1  0.792900  0.353000  0.691000  1.0
  C  C2643  1  0.792900  0.147000  0.809000  1.0
  C  C2644  1  0.707100  0.353000  0.809000  1.0
  C  C2645  1  0.691000  0.707100  0.147000  1.0
  C  C2646  1  0.691000  0.792900  0.353000  1.0
  C  C2647  1  0.809000  0.792900  0.147000  1.0
  C  C2648  1  0.809000  0.707100  0.353000  1.0
  C  C2649  1  0.147000  0.691000  0.707100  1.0
  C  C2650  1  0.353000  0.691000  0.792900  1.0
  C  C2651  1  0.147000  0.809000  0.792900  1.0
  C  C2652  1  0.353000  0.809000  0.707100  1.0
  C  C2653  1  0.147000  0.707100  0.809000  1.0
  C  C2654  1  0.353000  0.792900  0.809000  1.0
  C  C2655  1  0.147000  0.792900  0.691000  1.0
  C  C2656  1  0.353000  0.707100  0.691000  1.0
  C  C2657  1  0.707100  0.691000  0.353000  1.0
  C  C2658  1  0.792900  0.691000  0.147000  1.0
  C  C2659  1  0.792900  0.809000  0.353000  1.0
  C  C2660  1  0.707100  0.809000  0.147000  1.0
  C  C2661  1  0.691000  0.147000  0.792900  1.0
  C  C2662  1  0.691000  0.353000  0.707100  1.0
  C  C2663  1  0.809000  0.147000  0.707100  1.0
  C  C2664  1  0.809000  0.353000  0.792900  1.0
  C  C2665  1  0.416900  0.632600  0.251800  1.0
  C  C2666  1  0.083100  0.867400  0.251800  1.0
  C  C2667  1  0.083100  0.632600  0.248200  1.0
  C  C2668  1  0.416900  0.867400  0.248200  1.0
  C  C2669  1  0.251800  0.416900  0.632600  1.0
  C  C2670  1  0.251800  0.083100  0.867400  1.0
  C  C2671  1  0.248200  0.083100  0.632600  1.0
  C  C2672  1  0.248200  0.416900  0.867400  1.0
  C  C2673  1  0.632600  0.251800  0.416900  1.0
  C  C2674  1  0.867400  0.251800  0.083100  1.0
  C  C2675  1  0.632600  0.248200  0.083100  1.0
  C  C2676  1  0.867400  0.248200  0.416900  1.0
  C  C2677  1  0.632600  0.416900  0.248200  1.0
  C  C2678  1  0.867400  0.083100  0.248200  1.0
  C  C2679  1  0.632600  0.083100  0.251800  1.0
  C  C2680  1  0.867400  0.416900  0.251800  1.0
  C  C2681  1  0.416900  0.251800  0.867400  1.0
  C  C2682  1  0.083100  0.251800  0.632600  1.0
  C  C2683  1  0.083100  0.248200  0.867400  1.0
  C  C2684  1  0.416900  0.248200  0.632600  1.0
  C  C2685  1  0.251800  0.632600  0.083100  1.0
  C  C2686  1  0.251800  0.867400  0.416900  1.0
  C  C2687  1  0.248200  0.632600  0.416900  1.0
  C  C2688  1  0.248200  0.867400  0.083100  1.0
  C  C2689  1  0.583100  0.367400  0.748200  1.0
  C  C2690  1  0.916900  0.132600  0.748200  1.0
  C  C2691  1  0.916900  0.367400  0.751800  1.0
  C  C2692  1  0.583100  0.132600  0.751800  1.0
  C  C2693  1  0.748200  0.583100  0.367400  1.0
  C  C2694  1  0.748200  0.916900  0.132600  1.0
  C  C2695  1  0.751800  0.916900  0.367400  1.0
  C  C2696  1  0.751800  0.583100  0.132600  1.0
  C  C2697  1  0.367400  0.748200  0.583100  1.0
  C  C2698  1  0.132600  0.748200  0.916900  1.0
  C  C2699  1  0.367400  0.751800  0.916900  1.0
  C  C2700  1  0.132600  0.751800  0.583100  1.0
  C  C2701  1  0.367400  0.583100  0.751800  1.0
  C  C2702  1  0.132600  0.916900  0.751800  1.0
  C  C2703  1  0.367400  0.916900  0.748200  1.0
  C  C2704  1  0.132600  0.583100  0.748200  1.0
  C  C2705  1  0.583100  0.748200  0.132600  1.0
  C  C2706  1  0.916900  0.748200  0.367400  1.0
  C  C2707  1  0.916900  0.751800  0.132600  1.0
  C  C2708  1  0.583100  0.751800  0.367400  1.0
  C  C2709  1  0.748200  0.367400  0.916900  1.0
  C  C2710  1  0.748200  0.132600  0.583100  1.0
  C  C2711  1  0.751800  0.367400  0.583100  1.0
  C  C2712  1  0.751800  0.132600  0.916900  1.0
  C  C2713  1  0.431900  0.629400  0.216900  1.0
  C  C2714  1  0.068100  0.870600  0.216900  1.0
  C  C2715  1  0.068100  0.629400  0.283100  1.0
  C  C2716  1  0.431900  0.870600  0.283100  1.0
  C  C2717  1  0.216900  0.431900  0.629400  1.0
  C  C2718  1  0.216900  0.068100  0.870600  1.0
  C  C2719  1  0.283100  0.068100  0.629400  1.0
  C  C2720  1  0.283100  0.431900  0.870600  1.0
  C  C2721  1  0.629400  0.216900  0.431900  1.0
  C  C2722  1  0.870600  0.216900  0.068100  1.0
  C  C2723  1  0.629400  0.283100  0.068100  1.0
  C  C2724  1  0.870600  0.283100  0.431900  1.0
  C  C2725  1  0.629400  0.431900  0.283100  1.0
  C  C2726  1  0.870600  0.068100  0.283100  1.0
  C  C2727  1  0.629400  0.068100  0.216900  1.0
  C  C2728  1  0.870600  0.431900  0.216900  1.0
  C  C2729  1  0.431900  0.216900  0.870600  1.0
  C  C2730  1  0.068100  0.216900  0.629400  1.0
  C  C2731  1  0.068100  0.283100  0.870600  1.0
  C  C2732  1  0.431900  0.283100  0.629400  1.0
  C  C2733  1  0.216900  0.629400  0.068100  1.0
  C  C2734  1  0.216900  0.870600  0.431900  1.0
  C  C2735  1  0.283100  0.629400  0.431900  1.0
  C  C2736  1  0.283100  0.870600  0.068100  1.0
  C  C2737  1  0.568100  0.370600  0.783100  1.0
  C  C2738  1  0.931900  0.129400  0.783100  1.0
  C  C2739  1  0.931900  0.370600  0.716900  1.0
  C  C2740  1  0.568100  0.129400  0.716900  1.0
  C  C2741  1  0.783100  0.568100  0.370600  1.0
  C  C2742  1  0.783100  0.931900  0.129400  1.0
  C  C2743  1  0.716900  0.931900  0.370600  1.0
  C  C2744  1  0.716900  0.568100  0.129400  1.0
  C  C2745  1  0.370600  0.783100  0.568100  1.0
  C  C2746  1  0.129400  0.783100  0.931900  1.0
  C  C2747  1  0.370600  0.716900  0.931900  1.0
  C  C2748  1  0.129400  0.716900  0.568100  1.0
  C  C2749  1  0.370600  0.568100  0.716900  1.0
  C  C2750  1  0.129400  0.931900  0.716900  1.0
  C  C2751  1  0.370600  0.931900  0.783100  1.0
  C  C2752  1  0.129400  0.568100  0.783100  1.0
  C  C2753  1  0.568100  0.783100  0.129400  1.0
  C  C2754  1  0.931900  0.783100  0.370600  1.0
  C  C2755  1  0.931900  0.716900  0.129400  1.0
  C  C2756  1  0.568100  0.716900  0.370600  1.0
  C  C2757  1  0.783100  0.370600  0.931900  1.0
  C  C2758  1  0.783100  0.129400  0.568100  1.0
  C  C2759  1  0.716900  0.370600  0.568100  1.0
  C  C2760  1  0.716900  0.129400  0.931900  1.0
  C  C2761  1  0.447300  0.600700  0.204500  1.0
  C  C2762  1  0.052700  0.899300  0.204500  1.0
  C  C2763  1  0.052700  0.600700  0.295500  1.0
  C  C2764  1  0.447300  0.899300  0.295500  1.0
  C  C2765  1  0.204500  0.447300  0.600700  1.0
  C  C2766  1  0.204500  0.052700  0.899300  1.0
  C  C2767  1  0.295500  0.052700  0.600700  1.0
  C  C2768  1  0.295500  0.447300  0.899300  1.0
  C  C2769  1  0.600700  0.204500  0.447300  1.0
  C  C2770  1  0.899300  0.204500  0.052700  1.0
  C  C2771  1  0.600700  0.295500  0.052700  1.0
  C  C2772  1  0.899300  0.295500  0.447300  1.0
  C  C2773  1  0.600700  0.447300  0.295500  1.0
  C  C2774  1  0.899300  0.052700  0.295500  1.0
  C  C2775  1  0.600700  0.052700  0.204500  1.0
  C  C2776  1  0.899300  0.447300  0.204500  1.0
  C  C2777  1  0.447300  0.204500  0.899300  1.0
  C  C2778  1  0.052700  0.204500  0.600700  1.0
  C  C2779  1  0.052700  0.295500  0.899300  1.0
  C  C2780  1  0.447300  0.295500  0.600700  1.0
  C  C2781  1  0.204500  0.600700  0.052700  1.0
  C  C2782  1  0.204500  0.899300  0.447300  1.0
  C  C2783  1  0.295500  0.600700  0.447300  1.0
  C  C2784  1  0.295500  0.899300  0.052700  1.0
  C  C2785  1  0.552700  0.399300  0.795500  1.0
  C  C2786  1  0.947300  0.100700  0.795500  1.0
  C  C2787  1  0.947300  0.399300  0.704500  1.0
  C  C2788  1  0.552700  0.100700  0.704500  1.0
  C  C2789  1  0.795500  0.552700  0.399300  1.0
  C  C2790  1  0.795500  0.947300  0.100700  1.0
  C  C2791  1  0.704500  0.947300  0.399300  1.0
  C  C2792  1  0.704500  0.552700  0.100700  1.0
  C  C2793  1  0.399300  0.795500  0.552700  1.0
  C  C2794  1  0.100700  0.795500  0.947300  1.0
  C  C2795  1  0.399300  0.704500  0.947300  1.0
  C  C2796  1  0.100700  0.704500  0.552700  1.0
  C  C2797  1  0.399300  0.552700  0.704500  1.0
  C  C2798  1  0.100700  0.947300  0.704500  1.0
  C  C2799  1  0.399300  0.947300  0.795500  1.0
  C  C2800  1  0.100700  0.552700  0.795500  1.0
  C  C2801  1  0.552700  0.795500  0.100700  1.0
  C  C2802  1  0.947300  0.795500  0.399300  1.0
  C  C2803  1  0.947300  0.704500  0.100700  1.0
  C  C2804  1  0.552700  0.704500  0.399300  1.0
  C  C2805  1  0.795500  0.399300  0.947300  1.0
  C  C2806  1  0.795500  0.100700  0.552700  1.0
  C  C2807  1  0.704500  0.399300  0.552700  1.0
  C  C2808  1  0.704500  0.100700  0.947300  1.0
  C  C2809  1  0.460200  0.599300  0.171700  1.0
  C  C2810  1  0.039800  0.900700  0.171700  1.0
  C  C2811  1  0.039800  0.599300  0.328300  1.0
  C  C2812  1  0.460200  0.900700  0.328300  1.0
  C  C2813  1  0.171700  0.460200  0.599300  1.0
  C  C2814  1  0.171700  0.039800  0.900700  1.0
  C  C2815  1  0.328300  0.039800  0.599300  1.0
  C  C2816  1  0.328300  0.460200  0.900700  1.0
  C  C2817  1  0.599300  0.171700  0.460200  1.0
  C  C2818  1  0.900700  0.171700  0.039800  1.0
  C  C2819  1  0.599300  0.328300  0.039800  1.0
  C  C2820  1  0.900700  0.328300  0.460200  1.0
  C  C2821  1  0.599300  0.460200  0.328300  1.0
  C  C2822  1  0.900700  0.039800  0.328300  1.0
  C  C2823  1  0.599300  0.039800  0.171700  1.0
  C  C2824  1  0.900700  0.460200  0.171700  1.0
  C  C2825  1  0.460200  0.171700  0.900700  1.0
  C  C2826  1  0.039800  0.171700  0.599300  1.0
  C  C2827  1  0.039800  0.328300  0.900700  1.0
  C  C2828  1  0.460200  0.328300  0.599300  1.0
  C  C2829  1  0.171700  0.599300  0.039800  1.0
  C  C2830  1  0.171700  0.900700  0.460200  1.0
  C  C2831  1  0.328300  0.599300  0.460200  1.0
  C  C2832  1  0.328300  0.900700  0.039800  1.0
  C  C2833  1  0.539800  0.400700  0.828300  1.0
  C  C2834  1  0.960200  0.099300  0.828300  1.0
  C  C2835  1  0.960200  0.400700  0.671700  1.0
  C  C2836  1  0.539800  0.099300  0.671700  1.0
  C  C2837  1  0.828300  0.539800  0.400700  1.0
  C  C2838  1  0.828300  0.960200  0.099300  1.0
  C  C2839  1  0.671700  0.960200  0.400700  1.0
  C  C2840  1  0.671700  0.539800  0.099300  1.0
  C  C2841  1  0.400700  0.828300  0.539800  1.0
  C  C2842  1  0.099300  0.828300  0.960200  1.0
  C  C2843  1  0.400700  0.671700  0.960200  1.0
  C  C2844  1  0.099300  0.671700  0.539800  1.0
  C  C2845  1  0.400700  0.539800  0.671700  1.0
  C  C2846  1  0.099300  0.960200  0.671700  1.0
  C  C2847  1  0.400700  0.960200  0.828300  1.0
  C  C2848  1  0.099300  0.539800  0.828300  1.0
  C  C2849  1  0.539800  0.828300  0.099300  1.0
  C  C2850  1  0.960200  0.828300  0.400700  1.0
  C  C2851  1  0.960200  0.671700  0.099300  1.0
  C  C2852  1  0.539800  0.671700  0.400700  1.0
  C  C2853  1  0.828300  0.400700  0.960200  1.0
  C  C2854  1  0.828300  0.099300  0.539800  1.0
  C  C2855  1  0.671700  0.400700  0.539800  1.0
  C  C2856  1  0.671700  0.099300  0.960200  1.0
  C  C2857  1  0.457000  0.626800  0.150100  1.0
  C  C2858  1  0.043000  0.873200  0.150100  1.0
  C  C2859  1  0.043000  0.626800  0.349900  1.0
  C  C2860  1  0.457000  0.873200  0.349900  1.0
  C  C2861  1  0.150100  0.457000  0.626800  1.0
  C  C2862  1  0.150100  0.043000  0.873200  1.0
  C  C2863  1  0.349900  0.043000  0.626800  1.0
  C  C2864  1  0.349900  0.457000  0.873200  1.0
  C  C2865  1  0.626800  0.150100  0.457000  1.0
  C  C2866  1  0.873200  0.150100  0.043000  1.0
  C  C2867  1  0.626800  0.349900  0.043000  1.0
  C  C2868  1  0.873200  0.349900  0.457000  1.0
  C  C2869  1  0.626800  0.457000  0.349900  1.0
  C  C2870  1  0.873200  0.043000  0.349900  1.0
  C  C2871  1  0.626800  0.043000  0.150100  1.0
  C  C2872  1  0.873200  0.457000  0.150100  1.0
  C  C2873  1  0.457000  0.150100  0.873200  1.0
  C  C2874  1  0.043000  0.150100  0.626800  1.0
  C  C2875  1  0.043000  0.349900  0.873200  1.0
  C  C2876  1  0.457000  0.349900  0.626800  1.0
  C  C2877  1  0.150100  0.626800  0.043000  1.0
  C  C2878  1  0.150100  0.873200  0.457000  1.0
  C  C2879  1  0.349900  0.626800  0.457000  1.0
  C  C2880  1  0.349900  0.873200  0.043000  1.0
  C  C2881  1  0.543000  0.373200  0.849900  1.0
  C  C2882  1  0.957000  0.126800  0.849900  1.0
  C  C2883  1  0.957000  0.373200  0.650100  1.0
  C  C2884  1  0.543000  0.126800  0.650100  1.0
  C  C2885  1  0.849900  0.543000  0.373200  1.0
  C  C2886  1  0.849900  0.957000  0.126800  1.0
  C  C2887  1  0.650100  0.957000  0.373200  1.0
  C  C2888  1  0.650100  0.543000  0.126800  1.0
  C  C2889  1  0.373200  0.849900  0.543000  1.0
  C  C2890  1  0.126800  0.849900  0.957000  1.0
  C  C2891  1  0.373200  0.650100  0.957000  1.0
  C  C2892  1  0.126800  0.650100  0.543000  1.0
  C  C2893  1  0.373200  0.543000  0.650100  1.0
  C  C2894  1  0.126800  0.957000  0.650100  1.0
  C  C2895  1  0.373200  0.957000  0.849900  1.0
  C  C2896  1  0.126800  0.543000  0.849900  1.0
  C  C2897  1  0.543000  0.849900  0.126800  1.0
  C  C2898  1  0.957000  0.849900  0.373200  1.0
  C  C2899  1  0.957000  0.650100  0.126800  1.0
  C  C2900  1  0.543000  0.650100  0.373200  1.0
  C  C2901  1  0.849900  0.373200  0.957000  1.0
  C  C2902  1  0.849900  0.126800  0.543000  1.0
  C  C2903  1  0.650100  0.373200  0.543000  1.0
  C  C2904  1  0.650100  0.126800  0.957000  1.0
  C  C2905  1  0.441200  0.656200  0.161800  1.0
  C  C2906  1  0.058800  0.843800  0.161800  1.0
  C  C2907  1  0.058800  0.656200  0.338200  1.0
  C  C2908  1  0.441200  0.843800  0.338200  1.0
  C  C2909  1  0.161800  0.441200  0.656200  1.0
  C  C2910  1  0.161800  0.058800  0.843800  1.0
  C  C2911  1  0.338200  0.058800  0.656200  1.0
  C  C2912  1  0.338200  0.441200  0.843800  1.0
  C  C2913  1  0.656200  0.161800  0.441200  1.0
  C  C2914  1  0.843800  0.161800  0.058800  1.0
  C  C2915  1  0.656200  0.338200  0.058800  1.0
  C  C2916  1  0.843800  0.338200  0.441200  1.0
  C  C2917  1  0.656200  0.441200  0.338200  1.0
  C  C2918  1  0.843800  0.058800  0.338200  1.0
  C  C2919  1  0.656200  0.058800  0.161800  1.0
  C  C2920  1  0.843800  0.441200  0.161800  1.0
  C  C2921  1  0.441200  0.161800  0.843800  1.0
  C  C2922  1  0.058800  0.161800  0.656200  1.0
  C  C2923  1  0.058800  0.338200  0.843800  1.0
  C  C2924  1  0.441200  0.338200  0.656200  1.0
  C  C2925  1  0.161800  0.656200  0.058800  1.0
  C  C2926  1  0.161800  0.843800  0.441200  1.0
  C  C2927  1  0.338200  0.656200  0.441200  1.0
  C  C2928  1  0.338200  0.843800  0.058800  1.0
  C  C2929  1  0.558800  0.343800  0.838200  1.0
  C  C2930  1  0.941200  0.156200  0.838200  1.0
  C  C2931  1  0.941200  0.343800  0.661800  1.0
  C  C2932  1  0.558800  0.156200  0.661800  1.0
  C  C2933  1  0.838200  0.558800  0.343800  1.0
  C  C2934  1  0.838200  0.941200  0.156200  1.0
  C  C2935  1  0.661800  0.941200  0.343800  1.0
  C  C2936  1  0.661800  0.558800  0.156200  1.0
  C  C2937  1  0.343800  0.838200  0.558800  1.0
  C  C2938  1  0.156200  0.838200  0.941200  1.0
  C  C2939  1  0.343800  0.661800  0.941200  1.0
  C  C2940  1  0.156200  0.661800  0.558800  1.0
  C  C2941  1  0.343800  0.558800  0.661800  1.0
  C  C2942  1  0.156200  0.941200  0.661800  1.0
  C  C2943  1  0.343800  0.941200  0.838200  1.0
  C  C2944  1  0.156200  0.558800  0.838200  1.0
  C  C2945  1  0.558800  0.838200  0.156200  1.0
  C  C2946  1  0.941200  0.838200  0.343800  1.0
  C  C2947  1  0.941200  0.661800  0.156200  1.0
  C  C2948  1  0.558800  0.661800  0.343800  1.0
  C  C2949  1  0.838200  0.343800  0.941200  1.0
  C  C2950  1  0.838200  0.156200  0.558800  1.0
  C  C2951  1  0.661800  0.343800  0.558800  1.0
  C  C2952  1  0.661800  0.156200  0.941200  1.0
  C  C2953  1  0.430000  0.656900  0.195000  1.0
  C  C2954  1  0.070000  0.843100  0.195000  1.0
  C  C2955  1  0.070000  0.656900  0.305000  1.0
  C  C2956  1  0.430000  0.843100  0.305000  1.0
  C  C2957  1  0.195000  0.430000  0.656900  1.0
  C  C2958  1  0.195000  0.070000  0.843100  1.0
  C  C2959  1  0.305000  0.070000  0.656900  1.0
  C  C2960  1  0.305000  0.430000  0.843100  1.0
  C  C2961  1  0.656900  0.195000  0.430000  1.0
  C  C2962  1  0.843100  0.195000  0.070000  1.0
  C  C2963  1  0.656900  0.305000  0.070000  1.0
  C  C2964  1  0.843100  0.305000  0.430000  1.0
  C  C2965  1  0.656900  0.430000  0.305000  1.0
  C  C2966  1  0.843100  0.070000  0.305000  1.0
  C  C2967  1  0.656900  0.070000  0.195000  1.0
  C  C2968  1  0.843100  0.430000  0.195000  1.0
  C  C2969  1  0.430000  0.195000  0.843100  1.0
  C  C2970  1  0.070000  0.195000  0.656900  1.0
  C  C2971  1  0.070000  0.305000  0.843100  1.0
  C  C2972  1  0.430000  0.305000  0.656900  1.0
  C  C2973  1  0.195000  0.656900  0.070000  1.0
  C  C2974  1  0.195000  0.843100  0.430000  1.0
  C  C2975  1  0.305000  0.656900  0.430000  1.0
  C  C2976  1  0.305000  0.843100  0.070000  1.0
  C  C2977  1  0.570000  0.343100  0.805000  1.0
  C  C2978  1  0.930000  0.156900  0.805000  1.0
  C  C2979  1  0.930000  0.343100  0.695000  1.0
  C  C2980  1  0.570000  0.156900  0.695000  1.0
  C  C2981  1  0.805000  0.570000  0.343100  1.0
  C  C2982  1  0.805000  0.930000  0.156900  1.0
  C  C2983  1  0.695000  0.930000  0.343100  1.0
  C  C2984  1  0.695000  0.570000  0.156900  1.0
  C  C2985  1  0.343100  0.805000  0.570000  1.0
  C  C2986  1  0.156900  0.805000  0.930000  1.0
  C  C2987  1  0.343100  0.695000  0.930000  1.0
  C  C2988  1  0.156900  0.695000  0.570000  1.0
  C  C2989  1  0.343100  0.570000  0.695000  1.0
  C  C2990  1  0.156900  0.930000  0.695000  1.0
  C  C2991  1  0.343100  0.930000  0.805000  1.0
  C  C2992  1  0.156900  0.570000  0.805000  1.0
  C  C2993  1  0.570000  0.805000  0.156900  1.0
  C  C2994  1  0.930000  0.805000  0.343100  1.0
  C  C2995  1  0.930000  0.695000  0.156900  1.0
  C  C2996  1  0.570000  0.695000  0.343100  1.0
  C  C2997  1  0.805000  0.343100  0.930000  1.0
  C  C2998  1  0.805000  0.156900  0.570000  1.0
  C  C2999  1  0.695000  0.343100  0.570000  1.0
  C  C3000  1  0.695000  0.156900  0.930000  1.0
  C  C3001  1  0.487100  0.596300  0.102400  1.0
  C  C3002  1  0.012900  0.903700  0.102400  1.0
  C  C3003  1  0.012900  0.596300  0.397600  1.0
  C  C3004  1  0.487100  0.903700  0.397600  1.0
  C  C3005  1  0.102400  0.487100  0.596300  1.0
  C  C3006  1  0.102400  0.012900  0.903700  1.0
  C  C3007  1  0.397600  0.012900  0.596300  1.0
  C  C3008  1  0.397600  0.487100  0.903700  1.0
  C  C3009  1  0.596300  0.102400  0.487100  1.0
  C  C3010  1  0.903700  0.102400  0.012900  1.0
  C  C3011  1  0.596300  0.397600  0.012900  1.0
  C  C3012  1  0.903700  0.397600  0.487100  1.0
  C  C3013  1  0.596300  0.487100  0.397600  1.0
  C  C3014  1  0.903700  0.012900  0.397600  1.0
  C  C3015  1  0.596300  0.012900  0.102400  1.0
  C  C3016  1  0.903700  0.487100  0.102400  1.0
  C  C3017  1  0.487100  0.102400  0.903700  1.0
  C  C3018  1  0.012900  0.102400  0.596300  1.0
  C  C3019  1  0.012900  0.397600  0.903700  1.0
  C  C3020  1  0.487100  0.397600  0.596300  1.0
  C  C3021  1  0.102400  0.596300  0.012900  1.0
  C  C3022  1  0.102400  0.903700  0.487100  1.0
  C  C3023  1  0.397600  0.596300  0.487100  1.0
  C  C3024  1  0.397600  0.903700  0.012900  1.0
  C  C3025  1  0.512900  0.403700  0.897600  1.0
  C  C3026  1  0.987100  0.096300  0.897600  1.0
  C  C3027  1  0.987100  0.403700  0.602400  1.0
  C  C3028  1  0.512900  0.096300  0.602400  1.0
  C  C3029  1  0.897600  0.512900  0.403700  1.0
  C  C3030  1  0.897600  0.987100  0.096300  1.0
  C  C3031  1  0.602400  0.987100  0.403700  1.0
  C  C3032  1  0.602400  0.512900  0.096300  1.0
  C  C3033  1  0.403700  0.897600  0.512900  1.0
  C  C3034  1  0.096300  0.897600  0.987100  1.0
  C  C3035  1  0.403700  0.602400  0.987100  1.0
  C  C3036  1  0.096300  0.602400  0.512900  1.0
  C  C3037  1  0.403700  0.512900  0.602400  1.0
  C  C3038  1  0.096300  0.987100  0.602400  1.0
  C  C3039  1  0.403700  0.987100  0.897600  1.0
  C  C3040  1  0.096300  0.512900  0.897600  1.0
  C  C3041  1  0.512900  0.897600  0.096300  1.0
  C  C3042  1  0.987100  0.897600  0.403700  1.0
  C  C3043  1  0.987100  0.602400  0.096300  1.0
  C  C3044  1  0.512900  0.602400  0.403700  1.0
  C  C3045  1  0.897600  0.403700  0.987100  1.0
  C  C3046  1  0.897600  0.096300  0.512900  1.0
  C  C3047  1  0.602400  0.403700  0.512900  1.0
  C  C3048  1  0.602400  0.096300  0.987100  1.0
  N  N3049  1  0.288800  0.828900  0.283900  1.0
  N  N3050  1  0.211200  0.671100  0.283900  1.0
  N  N3051  1  0.211200  0.828900  0.216100  1.0
  N  N3052  1  0.288800  0.671100  0.216100  1.0
  N  N3053  1  0.283900  0.288800  0.828900  1.0
  N  N3054  1  0.283900  0.211200  0.671100  1.0
  N  N3055  1  0.216100  0.211200  0.828900  1.0
  N  N3056  1  0.216100  0.288800  0.671100  1.0
  N  N3057  1  0.828900  0.283900  0.288800  1.0
  N  N3058  1  0.671100  0.283900  0.211200  1.0
  N  N3059  1  0.828900  0.216100  0.211200  1.0
  N  N3060  1  0.671100  0.216100  0.288800  1.0
  N  N3061  1  0.828900  0.288800  0.216100  1.0
  N  N3062  1  0.671100  0.211200  0.216100  1.0
  N  N3063  1  0.828900  0.211200  0.283900  1.0
  N  N3064  1  0.671100  0.288800  0.283900  1.0
  N  N3065  1  0.288800  0.283900  0.671100  1.0
  N  N3066  1  0.211200  0.283900  0.828900  1.0
  N  N3067  1  0.211200  0.216100  0.671100  1.0
  N  N3068  1  0.288800  0.216100  0.828900  1.0
  N  N3069  1  0.283900  0.828900  0.211200  1.0
  N  N3070  1  0.283900  0.671100  0.288800  1.0
  N  N3071  1  0.216100  0.828900  0.288800  1.0
  N  N3072  1  0.216100  0.671100  0.211200  1.0
  N  N3073  1  0.711200  0.171100  0.716100  1.0
  N  N3074  1  0.788800  0.328900  0.716100  1.0
  N  N3075  1  0.788800  0.171100  0.783900  1.0
  N  N3076  1  0.711200  0.328900  0.783900  1.0
  N  N3077  1  0.716100  0.711200  0.171100  1.0
  N  N3078  1  0.716100  0.788800  0.328900  1.0
  N  N3079  1  0.783900  0.788800  0.171100  1.0
  N  N3080  1  0.783900  0.711200  0.328900  1.0
  N  N3081  1  0.171100  0.716100  0.711200  1.0
  N  N3082  1  0.328900  0.716100  0.788800  1.0
  N  N3083  1  0.171100  0.783900  0.788800  1.0
  N  N3084  1  0.328900  0.783900  0.711200  1.0
  N  N3085  1  0.171100  0.711200  0.783900  1.0
  N  N3086  1  0.328900  0.788800  0.783900  1.0
  N  N3087  1  0.171100  0.788800  0.716100  1.0
  N  N3088  1  0.328900  0.711200  0.716100  1.0
  N  N3089  1  0.711200  0.716100  0.328900  1.0
  N  N3090  1  0.788800  0.716100  0.171100  1.0
  N  N3091  1  0.788800  0.783900  0.328900  1.0
  N  N3092  1  0.711200  0.783900  0.171100  1.0
  N  N3093  1  0.716100  0.171100  0.788800  1.0
  N  N3094  1  0.716100  0.328900  0.711200  1.0
  N  N3095  1  0.783900  0.171100  0.711200  1.0
  N  N3096  1  0.783900  0.328900  0.788800  1.0
  N  N3097  1  0.290600  0.443900  0.282000  1.0
  N  N3098  1  0.209400  0.056100  0.282000  1.0
  N  N3099  1  0.209400  0.443900  0.218000  1.0
  N  N3100  1  0.290600  0.056100  0.218000  1.0
  N  N3101  1  0.282000  0.290600  0.443900  1.0
  N  N3102  1  0.282000  0.209400  0.056100  1.0
  N  N3103  1  0.218000  0.209400  0.443900  1.0
  N  N3104  1  0.218000  0.290600  0.056100  1.0
  N  N3105  1  0.443900  0.282000  0.290600  1.0
  N  N3106  1  0.056100  0.282000  0.209400  1.0
  N  N3107  1  0.443900  0.218000  0.209400  1.0
  N  N3108  1  0.056100  0.218000  0.290600  1.0
  N  N3109  1  0.443900  0.290600  0.218000  1.0
  N  N3110  1  0.056100  0.209400  0.218000  1.0
  N  N3111  1  0.443900  0.209400  0.282000  1.0
  N  N3112  1  0.056100  0.290600  0.282000  1.0
  N  N3113  1  0.290600  0.282000  0.056100  1.0
  N  N3114  1  0.209400  0.282000  0.443900  1.0
  N  N3115  1  0.209400  0.218000  0.056100  1.0
  N  N3116  1  0.290600  0.218000  0.443900  1.0
  N  N3117  1  0.282000  0.443900  0.209400  1.0
  N  N3118  1  0.282000  0.056100  0.290600  1.0
  N  N3119  1  0.218000  0.443900  0.290600  1.0
  N  N3120  1  0.218000  0.056100  0.209400  1.0
  N  N3121  1  0.709400  0.556100  0.718000  1.0
  N  N3122  1  0.790600  0.943900  0.718000  1.0
  N  N3123  1  0.790600  0.556100  0.782000  1.0
  N  N3124  1  0.709400  0.943900  0.782000  1.0
  N  N3125  1  0.718000  0.709400  0.556100  1.0
  N  N3126  1  0.718000  0.790600  0.943900  1.0
  N  N3127  1  0.782000  0.790600  0.556100  1.0
  N  N3128  1  0.782000  0.709400  0.943900  1.0
  N  N3129  1  0.556100  0.718000  0.709400  1.0
  N  N3130  1  0.943900  0.718000  0.790600  1.0
  N  N3131  1  0.556100  0.782000  0.790600  1.0
  N  N3132  1  0.943900  0.782000  0.709400  1.0
  N  N3133  1  0.556100  0.709400  0.782000  1.0
  N  N3134  1  0.943900  0.790600  0.782000  1.0
  N  N3135  1  0.556100  0.790600  0.718000  1.0
  N  N3136  1  0.943900  0.709400  0.718000  1.0
  N  N3137  1  0.709400  0.718000  0.943900  1.0
  N  N3138  1  0.790600  0.718000  0.556100  1.0
  N  N3139  1  0.790600  0.782000  0.943900  1.0
  N  N3140  1  0.709400  0.782000  0.556100  1.0
  N  N3141  1  0.718000  0.556100  0.790600  1.0
  N  N3142  1  0.718000  0.943900  0.709400  1.0
  N  N3143  1  0.782000  0.556100  0.709400  1.0
  N  N3144  1  0.782000  0.943900  0.790600  1.0
  Cl  Cl3145  1  0.250000  0.750000  0.250000  1
  Cl  Cl3146  1  0.250000  0.250000  0.750000  1
  Cl  Cl3147  1  0.750000  0.250000  0.250000  1
  Cl  Cl3148  1  0.750000  0.250000  0.750000  1
  Cl  Cl3149  1  0.750000  0.750000  0.250000  1
  Cl  Cl3150  1  0.250000  0.750000  0.750000  1
  Cl  Cl3151  1  0.250000  0.355000  0.250000  1
  Cl  Cl3152  1  0.250000  0.145000  0.250000  1
  Cl  Cl3153  1  0.250000  0.250000  0.355000  1
  Cl  Cl3154  1  0.250000  0.250000  0.145000  1
  Cl  Cl3155  1  0.355000  0.250000  0.250000  1
  Cl  Cl3156  1  0.145000  0.250000  0.250000  1
  Cl  Cl3157  1  0.750000  0.645000  0.750000  1
  Cl  Cl3158  1  0.750000  0.855000  0.750000  1
  Cl  Cl3159  1  0.750000  0.750000  0.645000  1
  Cl  Cl3160  1  0.750000  0.750000  0.855000  1
  Cl  Cl3161  1  0.645000  0.750000  0.750000  1
  Cl  Cl3162  1  0.855000  0.750000  0.750000  1
  O  O3163  1  0.379900  0.632600  0.247600  1.0
  O  O3164  1  0.120100  0.867400  0.247600  1.0
  O  O3165  1  0.120100  0.632600  0.252400  1.0
  O  O3166  1  0.379900  0.867400  0.252400  1.0
  O  O3167  1  0.247600  0.379900  0.632600  1.0
  O  O3168  1  0.247600  0.120100  0.867400  1.0
  O  O3169  1  0.252400  0.120100  0.632600  1.0
  O  O3170  1  0.252400  0.379900  0.867400  1.0
  O  O3171  1  0.632600  0.247600  0.379900  1.0
  O  O3172  1  0.867400  0.247600  0.120100  1.0
  O  O3173  1  0.632600  0.252400  0.120100  1.0
  O  O3174  1  0.867400  0.252400  0.379900  1.0
  O  O3175  1  0.632600  0.379900  0.252400  1.0
  O  O3176  1  0.867400  0.120100  0.252400  1.0
  O  O3177  1  0.632600  0.120100  0.247600  1.0
  O  O3178  1  0.867400  0.379900  0.247600  1.0
  O  O3179  1  0.379900  0.247600  0.867400  1.0
  O  O3180  1  0.120100  0.247600  0.632600  1.0
  O  O3181  1  0.120100  0.252400  0.867400  1.0
  O  O3182  1  0.379900  0.252400  0.632600  1.0
  O  O3183  1  0.247600  0.632600  0.120100  1.0
  O  O3184  1  0.247600  0.867400  0.379900  1.0
  O  O3185  1  0.252400  0.632600  0.379900  1.0
  O  O3186  1  0.252400  0.867400  0.120100  1.0
  O  O3187  1  0.620100  0.367400  0.752400  1.0
  O  O3188  1  0.879900  0.132600  0.752400  1.0
  O  O3189  1  0.879900  0.367400  0.747600  1.0
  O  O3190  1  0.620100  0.132600  0.747600  1.0
  O  O3191  1  0.752400  0.620100  0.367400  1.0
  O  O3192  1  0.752400  0.879900  0.132600  1.0
  O  O3193  1  0.747600  0.879900  0.367400  1.0
  O  O3194  1  0.747600  0.620100  0.132600  1.0
  O  O3195  1  0.367400  0.752400  0.620100  1.0
  O  O3196  1  0.132600  0.752400  0.879900  1.0
  O  O3197  1  0.367400  0.747600  0.879900  1.0
  O  O3198  1  0.132600  0.747600  0.620100  1.0
  O  O3199  1  0.367400  0.620100  0.747600  1.0
  O  O3200  1  0.132600  0.879900  0.747600  1.0
  O  O3201  1  0.367400  0.879900  0.752400  1.0
  O  O3202  1  0.132600  0.620100  0.752400  1.0
  O  O3203  1  0.620100  0.752400  0.132600  1.0
  O  O3204  1  0.879900  0.752400  0.367400  1.0
  O  O3205  1  0.879900  0.747600  0.132600  1.0
  O  O3206  1  0.620100  0.747600  0.367400  1.0
  O  O3207  1  0.752400  0.367400  0.879900  1.0
  O  O3208  1  0.752400  0.132600  0.620100  1.0
  O  O3209  1  0.747600  0.367400  0.620100  1.0
  O  O3210  1  0.747600  0.132600  0.879900  1.0
  O  O3211  1  0.469000  0.626700  0.116000  1.0
  O  O3212  1  0.031000  0.873300  0.116000  1.0
  O  O3213  1  0.031000  0.626700  0.384000  1.0
  O  O3214  1  0.469000  0.873300  0.384000  1.0
  O  O3215  1  0.116000  0.469000  0.626700  1.0
  O  O3216  1  0.116000  0.031000  0.873300  1.0
  O  O3217  1  0.384000  0.031000  0.626700  1.0
  O  O3218  1  0.384000  0.469000  0.873300  1.0
  O  O3219  1  0.626700  0.116000  0.469000  1.0
  O  O3220  1  0.873300  0.116000  0.031000  1.0
  O  O3221  1  0.626700  0.384000  0.031000  1.0
  O  O3222  1  0.873300  0.384000  0.469000  1.0
  O  O3223  1  0.626700  0.469000  0.384000  1.0
  O  O3224  1  0.873300  0.031000  0.384000  1.0
  O  O3225  1  0.626700  0.031000  0.116000  1.0
  O  O3226  1  0.873300  0.469000  0.116000  1.0
  O  O3227  1  0.469000  0.116000  0.873300  1.0
  O  O3228  1  0.031000  0.116000  0.626700  1.0
  O  O3229  1  0.031000  0.384000  0.873300  1.0
  O  O3230  1  0.469000  0.384000  0.626700  1.0
  O  O3231  1  0.116000  0.626700  0.031000  1.0
  O  O3232  1  0.116000  0.873300  0.469000  1.0
  O  O3233  1  0.384000  0.626700  0.469000  1.0
  O  O3234  1  0.384000  0.873300  0.031000  1.0
  O  O3235  1  0.531000  0.373300  0.884000  1.0
  O  O3236  1  0.969000  0.126700  0.884000  1.0
  O  O3237  1  0.969000  0.373300  0.616000  1.0
  O  O3238  1  0.531000  0.126700  0.616000  1.0
  O  O3239  1  0.884000  0.531000  0.373300  1.0
  O  O3240  1  0.884000  0.969000  0.126700  1.0
  O  O3241  1  0.616000  0.969000  0.373300  1.0
  O  O3242  1  0.616000  0.531000  0.126700  1.0
  O  O3243  1  0.373300  0.884000  0.531000  1.0
  O  O3244  1  0.126700  0.884000  0.969000  1.0
  O  O3245  1  0.373300  0.616000  0.969000  1.0
  O  O3246  1  0.126700  0.616000  0.531000  1.0
  O  O3247  1  0.373300  0.531000  0.616000  1.0
  O  O3248  1  0.126700  0.969000  0.616000  1.0
  O  O3249  1  0.373300  0.969000  0.884000  1.0
  O  O3250  1  0.126700  0.531000  0.884000  1.0
  O  O3251  1  0.531000  0.884000  0.126700  1.0
  O  O3252  1  0.969000  0.884000  0.373300  1.0
  O  O3253  1  0.969000  0.616000  0.126700  1.0
  O  O3254  1  0.531000  0.616000  0.373300  1.0
  O  O3255  1  0.884000  0.373300  0.969000  1.0
  O  O3256  1  0.884000  0.126700  0.531000  1.0
  O  O3257  1  0.616000  0.373300  0.531000  1.0
  O  O3258  1  0.616000  0.126700  0.969000  1.0
  F  F3259  1  0.293700  0.580600  0.352300  1
  F  F3260  1  0.206300  0.919400  0.352300  1
  F  F3261  1  0.206300  0.580600  0.147700  1
  F  F3262  1  0.293700  0.919400  0.147700  1
  F  F3263  1  0.352300  0.293700  0.580600  1
  F  F3264  1  0.352300  0.206300  0.919400  1
  F  F3265  1  0.147700  0.206300  0.580600  1
  F  F3266  1  0.147700  0.293700  0.919400  1
  F  F3267  1  0.580600  0.352300  0.293700  1
  F  F3268  1  0.919400  0.352300  0.206300  1
  F  F3269  1  0.580600  0.147700  0.206300  1
  F  F3270  1  0.919400  0.147700  0.293700  1
  F  F3271  1  0.580600  0.293700  0.147700  1
  F  F3272  1  0.919400  0.206300  0.147700  1
  F  F3273  1  0.580600  0.206300  0.352300  1
  F  F3274  1  0.919400  0.293700  0.352300  1
  F  F3275  1  0.293700  0.352300  0.919400  1
  F  F3276  1  0.206300  0.352300  0.580600  1
  F  F3277  1  0.206300  0.147700  0.919400  1
  F  F3278  1  0.293700  0.147700  0.580600  1
  F  F3279  1  0.352300  0.580600  0.206300  1
  F  F3280  1  0.352300  0.919400  0.293700  1
  F  F3281  1  0.147700  0.580600  0.293700  1
  F  F3282  1  0.147700  0.919400  0.206300  1
  F  F3283  1  0.706300  0.419400  0.647700  1
  F  F3284  1  0.793700  0.080600  0.647700  1
  F  F3285  1  0.793700  0.419400  0.852300  1
  F  F3286  1  0.706300  0.080600  0.852300  1
  F  F3287  1  0.647700  0.706300  0.419400  1
  F  F3288  1  0.647700  0.793700  0.080600  1
  F  F3289  1  0.852300  0.793700  0.419400  1
  F  F3290  1  0.852300  0.706300  0.080600  1
  F  F3291  1  0.419400  0.647700  0.706300  1
  F  F3292  1  0.080600  0.647700  0.793700  1
  F  F3293  1  0.419400  0.852300  0.793700  1
  F  F3294  1  0.080600  0.852300  0.706300  1
  F  F3295  1  0.419400  0.706300  0.852300  1
  F  F3296  1  0.080600  0.793700  0.852300  1
  F  F3297  1  0.419400  0.793700  0.647700  1
  F  F3298  1  0.080600  0.706300  0.647700  1
  F  F3299  1  0.706300  0.647700  0.080600  1
  F  F3300  1  0.793700  0.647700  0.419400  1
  F  F3301  1  0.793700  0.852300  0.080600  1
  F  F3302  1  0.706300  0.852300  0.419400  1
  F  F3303  1  0.647700  0.419400  0.793700  1
  F  F3304  1  0.647700  0.080600  0.706300  1
  F  F3305  1  0.852300  0.419400  0.706300  1
  F  F3306  1  0.852300  0.080600  0.793700  1
  F  F3307  1  0.252900  0.577300  0.313300  1
  F  F3308  1  0.247100  0.922700  0.313300  1
  F  F3309  1  0.247100  0.577300  0.186700  1
  F  F3310  1  0.252900  0.922700  0.186700  1
  F  F3311  1  0.313300  0.252900  0.577300  1
  F  F3312  1  0.313300  0.247100  0.922700  1
  F  F3313  1  0.186700  0.247100  0.577300  1
  F  F3314  1  0.186700  0.252900  0.922700  1
  F  F3315  1  0.577300  0.313300  0.252900  1
  F  F3316  1  0.922700  0.313300  0.247100  1
  F  F3317  1  0.577300  0.186700  0.247100  1
  F  F3318  1  0.922700  0.186700  0.252900  1
  F  F3319  1  0.577300  0.252900  0.186700  1
  F  F3320  1  0.922700  0.247100  0.186700  1
  F  F3321  1  0.577300  0.247100  0.313300  1
  F  F3322  1  0.922700  0.252900  0.313300  1
  F  F3323  1  0.252900  0.313300  0.922700  1
  F  F3324  1  0.247100  0.313300  0.577300  1
  F  F3325  1  0.247100  0.186700  0.922700  1
  F  F3326  1  0.252900  0.186700  0.577300  1
  F  F3327  1  0.313300  0.577300  0.247100  1
  F  F3328  1  0.313300  0.922700  0.252900  1
  F  F3329  1  0.186700  0.577300  0.252900  1
  F  F3330  1  0.186700  0.922700  0.247100  1
  F  F3331  1  0.747100  0.422700  0.686700  1
  F  F3332  1  0.752900  0.077300  0.686700  1
  F  F3333  1  0.752900  0.422700  0.813300  1
  F  F3334  1  0.747100  0.077300  0.813300  1
  F  F3335  1  0.686700  0.747100  0.422700  1
  F  F3336  1  0.686700  0.752900  0.077300  1
  F  F3337  1  0.813300  0.752900  0.422700  1
  F  F3338  1  0.813300  0.747100  0.077300  1
  F  F3339  1  0.422700  0.686700  0.747100  1
  F  F3340  1  0.077300  0.686700  0.752900  1
  F  F3341  1  0.422700  0.813300  0.752900  1
  F  F3342  1  0.077300  0.813300  0.747100  1
  F  F3343  1  0.422700  0.747100  0.813300  1
  F  F3344  1  0.077300  0.752900  0.813300  1
  F  F3345  1  0.422700  0.752900  0.686700  1
  F  F3346  1  0.077300  0.747100  0.686700  1
  F  F3347  1  0.747100  0.686700  0.077300  1
  F  F3348  1  0.752900  0.686700  0.422700  1
  F  F3349  1  0.752900  0.813300  0.077300  1
  F  F3350  1  0.747100  0.813300  0.422700  1
  F  F3351  1  0.686700  0.422700  0.752900  1
  F  F3352  1  0.686700  0.077300  0.747100  1
  F  F3353  1  0.813300  0.422700  0.747100  1
  F  F3354  1  0.813300  0.077300  0.752900  1
  F  F3355  1  0.303200  0.558500  0.298600  1
  F  F3356  1  0.196800  0.941500  0.298600  1
  F  F3357  1  0.196800  0.558500  0.201400  1
  F  F3358  1  0.303200  0.941500  0.201400  1
  F  F3359  1  0.298600  0.303200  0.558500  1
  F  F3360  1  0.298600  0.196800  0.941500  1
  F  F3361  1  0.201400  0.196800  0.558500  1
  F  F3362  1  0.201400  0.303200  0.941500  1
  F  F3363  1  0.558500  0.298600  0.303200  1
  F  F3364  1  0.941500  0.298600  0.196800  1
  F  F3365  1  0.558500  0.201400  0.196800  1
  F  F3366  1  0.941500  0.201400  0.303200  1
  F  F3367  1  0.558500  0.303200  0.201400  1
  F  F3368  1  0.941500  0.196800  0.201400  1
  F  F3369  1  0.558500  0.196800  0.298600  1
  F  F3370  1  0.941500  0.303200  0.298600  1
  F  F3371  1  0.303200  0.298600  0.941500  1
  F  F3372  1  0.196800  0.298600  0.558500  1
  F  F3373  1  0.196800  0.201400  0.941500  1
  F  F3374  1  0.303200  0.201400  0.558500  1
  F  F3375  1  0.298600  0.558500  0.196800  1
  F  F3376  1  0.298600  0.941500  0.303200  1
  F  F3377  1  0.201400  0.558500  0.303200  1
  F  F3378  1  0.201400  0.941500  0.196800  1
  F  F3379  1  0.696800  0.441500  0.701400  1
  F  F3380  1  0.803200  0.058500  0.701400  1
  F  F3381  1  0.803200  0.441500  0.798600  1
  F  F3382  1  0.696800  0.058500  0.798600  1
  F  F3383  1  0.701400  0.696800  0.441500  1
  F  F3384  1  0.701400  0.803200  0.058500  1
  F  F3385  1  0.798600  0.803200  0.441500  1
  F  F3386  1  0.798600  0.696800  0.058500  1
  F  F3387  1  0.441500  0.701400  0.696800  1
  F  F3388  1  0.058500  0.701400  0.803200  1
  F  F3389  1  0.441500  0.798600  0.803200  1
  F  F3390  1  0.058500  0.798600  0.696800  1
  F  F3391  1  0.441500  0.696800  0.798600  1
  F  F3392  1  0.058500  0.803200  0.798600  1
  F  F3393  1  0.441500  0.803200  0.701400  1
  F  F3394  1  0.058500  0.696800  0.701400  1
  F  F3395  1  0.696800  0.701400  0.058500  1
  F  F3396  1  0.803200  0.701400  0.441500  1
  F  F3397  1  0.803200  0.798600  0.058500  1
  F  F3398  1  0.696800  0.798600  0.441500  1
  F  F3399  1  0.701400  0.441500  0.803200  1
  F  F3400  1  0.701400  0.058500  0.696800  1
  F  F3401  1  0.798600  0.441500  0.696800  1
  F  F3402  1  0.798600  0.058500  0.803200  1
  F  F3403  1  0.279900  0.528300  0.327800  1
  F  F3404  1  0.220100  0.971700  0.327800  1
  F  F3405  1  0.220100  0.528300  0.172200  1
  F  F3406  1  0.279900  0.971700  0.172200  1
  F  F3407  1  0.327800  0.279900  0.528300  1
  F  F3408  1  0.327800  0.220100  0.971700  1
  F  F3409  1  0.172200  0.220100  0.528300  1
  F  F3410  1  0.172200  0.279900  0.971700  1
  F  F3411  1  0.528300  0.327800  0.279900  1
  F  F3412  1  0.971700  0.327800  0.220100  1
  F  F3413  1  0.528300  0.172200  0.220100  1
  F  F3414  1  0.971700  0.172200  0.279900  1
  F  F3415  1  0.528300  0.279900  0.172200  1
  F  F3416  1  0.971700  0.220100  0.172200  1
  F  F3417  1  0.528300  0.220100  0.327800  1
  F  F3418  1  0.971700  0.279900  0.327800  1
  F  F3419  1  0.279900  0.327800  0.971700  1
  F  F3420  1  0.220100  0.327800  0.528300  1
  F  F3421  1  0.220100  0.172200  0.971700  1
  F  F3422  1  0.279900  0.172200  0.528300  1
  F  F3423  1  0.327800  0.528300  0.220100  1
  F  F3424  1  0.327800  0.971700  0.279900  1
  F  F3425  1  0.172200  0.528300  0.279900  1
  F  F3426  1  0.172200  0.971700  0.220100  1
  F  F3427  1  0.720100  0.471700  0.672200  1
  F  F3428  1  0.779900  0.028300  0.672200  1
  F  F3429  1  0.779900  0.471700  0.827800  1
  F  F3430  1  0.720100  0.028300  0.827800  1
  F  F3431  1  0.672200  0.720100  0.471700  1
  F  F3432  1  0.672200  0.779900  0.028300  1
  F  F3433  1  0.827800  0.779900  0.471700  1
  F  F3434  1  0.827800  0.720100  0.028300  1
  F  F3435  1  0.471700  0.672200  0.720100  1
  F  F3436  1  0.028300  0.672200  0.779900  1
  F  F3437  1  0.471700  0.827800  0.779900  1
  F  F3438  1  0.028300  0.827800  0.720100  1
  F  F3439  1  0.471700  0.720100  0.827800  1
  F  F3440  1  0.028300  0.779900  0.827800  1
  F  F3441  1  0.471700  0.779900  0.672200  1
  F  F3442  1  0.028300  0.720100  0.672200  1
  F  F3443  1  0.720100  0.672200  0.028300  1
  F  F3444  1  0.779900  0.672200  0.471700  1
  F  F3445  1  0.779900  0.827800  0.028300  1
  F  F3446  1  0.720100  0.827800  0.471700  1
  F  F3447  1  0.672200  0.471700  0.779900  1
  F  F3448  1  0.672200  0.028300  0.720100  1
  F  F3449  1  0.827800  0.471700  0.720100  1
  F  F3450  1  0.827800  0.028300  0.779900  1
  F  F3451  1  0.269000  0.590500  0.339000  1
  F  F3452  1  0.231000  0.909500  0.339000  1
  F  F3453  1  0.231000  0.590500  0.161000  1
  F  F3454  1  0.269000  0.909500  0.161000  1
  F  F3455  1  0.339000  0.269000  0.590500  1
  F  F3456  1  0.339000  0.231000  0.909500  1
  F  F3457  1  0.161000  0.231000  0.590500  1
  F  F3458  1  0.161000  0.269000  0.909500  1
  F  F3459  1  0.590500  0.339000  0.269000  1
  F  F3460  1  0.909500  0.339000  0.231000  1
  F  F3461  1  0.590500  0.161000  0.231000  1
  F  F3462  1  0.909500  0.161000  0.269000  1
  F  F3463  1  0.590500  0.269000  0.161000  1
  F  F3464  1  0.909500  0.231000  0.161000  1
  F  F3465  1  0.590500  0.231000  0.339000  1
  F  F3466  1  0.909500  0.269000  0.339000  1
  F  F3467  1  0.269000  0.339000  0.909500  1
  F  F3468  1  0.231000  0.339000  0.590500  1
  F  F3469  1  0.231000  0.161000  0.909500  1
  F  F3470  1  0.269000  0.161000  0.590500  1
  F  F3471  1  0.339000  0.590500  0.231000  1
  F  F3472  1  0.339000  0.909500  0.269000  1
  F  F3473  1  0.161000  0.590500  0.269000  1
  F  F3474  1  0.161000  0.909500  0.231000  1
  F  F3475  1  0.731000  0.409500  0.661000  1
  F  F3476  1  0.769000  0.090500  0.661000  1
  F  F3477  1  0.769000  0.409500  0.839000  1
  F  F3478  1  0.731000  0.090500  0.839000  1
  F  F3479  1  0.661000  0.731000  0.409500  1
  F  F3480  1  0.661000  0.769000  0.090500  1
  F  F3481  1  0.839000  0.769000  0.409500  1
  F  F3482  1  0.839000  0.731000  0.090500  1
  F  F3483  1  0.409500  0.661000  0.731000  1
  F  F3484  1  0.090500  0.661000  0.769000  1
  F  F3485  1  0.409500  0.839000  0.769000  1
  F  F3486  1  0.090500  0.839000  0.731000  1
  F  F3487  1  0.409500  0.731000  0.839000  1
  F  F3488  1  0.090500  0.769000  0.839000  1
  F  F3489  1  0.409500  0.769000  0.661000  1
  F  F3490  1  0.090500  0.731000  0.661000  1
  F  F3491  1  0.731000  0.661000  0.090500  1
  F  F3492  1  0.769000  0.661000  0.409500  1
  F  F3493  1  0.769000  0.839000  0.090500  1
  F  F3494  1  0.731000  0.839000  0.409500  1
  F  F3495  1  0.661000  0.409500  0.769000  1
  F  F3496  1  0.661000  0.090500  0.731000  1
  F  F3497  1  0.839000  0.409500  0.731000  1
  F  F3498  1  0.839000  0.090500  0.769000  1
  F  F3499  1  0.265000  0.549000  0.298600  1
  F  F3500  1  0.235000  0.951000  0.298600  1
  F  F3501  1  0.235000  0.549000  0.201400  1
  F  F3502  1  0.265000  0.951000  0.201400  1
  F  F3503  1  0.298600  0.265000  0.549000  1
  F  F3504  1  0.298600  0.235000  0.951000  1
  F  F3505  1  0.201400  0.235000  0.549000  1
  F  F3506  1  0.201400  0.265000  0.951000  1
  F  F3507  1  0.549000  0.298600  0.265000  1
  F  F3508  1  0.951000  0.298600  0.235000  1
  F  F3509  1  0.549000  0.201400  0.235000  1
  F  F3510  1  0.951000  0.201400  0.265000  1
  F  F3511  1  0.549000  0.265000  0.201400  1
  F  F3512  1  0.951000  0.235000  0.201400  1
  F  F3513  1  0.549000  0.235000  0.298600  1
  F  F3514  1  0.951000  0.265000  0.298600  1
  F  F3515  1  0.265000  0.298600  0.951000  1
  F  F3516  1  0.235000  0.298600  0.549000  1
  F  F3517  1  0.235000  0.201400  0.951000  1
  F  F3518  1  0.265000  0.201400  0.549000  1
  F  F3519  1  0.298600  0.549000  0.235000  1
  F  F3520  1  0.298600  0.951000  0.265000  1
  F  F3521  1  0.201400  0.549000  0.265000  1
  F  F3522  1  0.201400  0.951000  0.235000  1
  F  F3523  1  0.735000  0.451000  0.701400  1
  F  F3524  1  0.765000  0.049000  0.701400  1
  F  F3525  1  0.765000  0.451000  0.798600  1
  F  F3526  1  0.735000  0.049000  0.798600  1
  F  F3527  1  0.701400  0.735000  0.451000  1
  F  F3528  1  0.701400  0.765000  0.049000  1
  F  F3529  1  0.798600  0.765000  0.451000  1
  F  F3530  1  0.798600  0.735000  0.049000  1
  F  F3531  1  0.451000  0.701400  0.735000  1
  F  F3532  1  0.049000  0.701400  0.765000  1
  F  F3533  1  0.451000  0.798600  0.765000  1
  F  F3534  1  0.049000  0.798600  0.735000  1
  F  F3535  1  0.451000  0.735000  0.798600  1
  F  F3536  1  0.049000  0.765000  0.798600  1
  F  F3537  1  0.451000  0.765000  0.701400  1
  F  F3538  1  0.049000  0.735000  0.701400  1
  F  F3539  1  0.735000  0.701400  0.049000  1
  F  F3540  1  0.765000  0.701400  0.451000  1
  F  F3541  1  0.765000  0.798600  0.049000  1
  F  F3542  1  0.735000  0.798600  0.451000  1
  F  F3543  1  0.701400  0.451000  0.765000  1
  F  F3544  1  0.701400  0.049000  0.735000  1
  F  F3545  1  0.798600  0.451000  0.735000  1
  F  F3546  1  0.798600  0.049000  0.765000  1
  F  F3547  1  0.316800  0.564000  0.319000  1
  F  F3548  1  0.183200  0.936000  0.319000  1
  F  F3549  1  0.183200  0.564000  0.181000  1
  F  F3550  1  0.316800  0.936000  0.181000  1
  F  F3551  1  0.319000  0.316800  0.564000  1
  F  F3552  1  0.319000  0.183200  0.936000  1
  F  F3553  1  0.181000  0.183200  0.564000  1
  F  F3554  1  0.181000  0.316800  0.936000  1
  F  F3555  1  0.564000  0.319000  0.316800  1
  F  F3556  1  0.936000  0.319000  0.183200  1
  F  F3557  1  0.564000  0.181000  0.183200  1
  F  F3558  1  0.936000  0.181000  0.316800  1
  F  F3559  1  0.564000  0.316800  0.181000  1
  F  F3560  1  0.936000  0.183200  0.181000  1
  F  F3561  1  0.564000  0.183200  0.319000  1
  F  F3562  1  0.936000  0.316800  0.319000  1
  F  F3563  1  0.316800  0.319000  0.936000  1
  F  F3564  1  0.183200  0.319000  0.564000  1
  F  F3565  1  0.183200  0.181000  0.936000  1
  F  F3566  1  0.316800  0.181000  0.564000  1
  F  F3567  1  0.319000  0.564000  0.183200  1
  F  F3568  1  0.319000  0.936000  0.316800  1
  F  F3569  1  0.181000  0.564000  0.316800  1
  F  F3570  1  0.181000  0.936000  0.183200  1
  F  F3571  1  0.683200  0.436000  0.681000  1
  F  F3572  1  0.816800  0.064000  0.681000  1
  F  F3573  1  0.816800  0.436000  0.819000  1
  F  F3574  1  0.683200  0.064000  0.819000  1
  F  F3575  1  0.681000  0.683200  0.436000  1
  F  F3576  1  0.681000  0.816800  0.064000  1
  F  F3577  1  0.819000  0.816800  0.436000  1
  F  F3578  1  0.819000  0.683200  0.064000  1
  F  F3579  1  0.436000  0.681000  0.683200  1
  F  F3580  1  0.064000  0.681000  0.816800  1
  F  F3581  1  0.436000  0.819000  0.816800  1
  F  F3582  1  0.064000  0.819000  0.683200  1
  F  F3583  1  0.436000  0.683200  0.819000  1
  F  F3584  1  0.064000  0.816800  0.819000  1
  F  F3585  1  0.436000  0.816800  0.681000  1
  F  F3586  1  0.064000  0.683200  0.681000  1
  F  F3587  1  0.683200  0.681000  0.064000  1
  F  F3588  1  0.816800  0.681000  0.436000  1
  F  F3589  1  0.816800  0.819000  0.064000  1
  F  F3590  1  0.683200  0.819000  0.436000  1
  F  F3591  1  0.681000  0.436000  0.816800  1
  F  F3592  1  0.681000  0.064000  0.683200  1
  F  F3593  1  0.819000  0.436000  0.683200  1
  F  F3594  1  0.819000  0.064000  0.816800  1
  F  F3595  1  0.291000  0.537500  0.348900  1
  F  F3596  1  0.209000  0.962500  0.348900  1
  F  F3597  1  0.209000  0.537500  0.151100  1
  F  F3598  1  0.291000  0.962500  0.151100  1
  F  F3599  1  0.348900  0.291000  0.537500  1
  F  F3600  1  0.348900  0.209000  0.962500  1
  F  F3601  1  0.151100  0.209000  0.537500  1
  F  F3602  1  0.151100  0.291000  0.962500  1
  F  F3603  1  0.537500  0.348900  0.291000  1
  F  F3604  1  0.962500  0.348900  0.209000  1
  F  F3605  1  0.537500  0.151100  0.209000  1
  F  F3606  1  0.962500  0.151100  0.291000  1
  F  F3607  1  0.537500  0.291000  0.151100  1
  F  F3608  1  0.962500  0.209000  0.151100  1
  F  F3609  1  0.537500  0.209000  0.348900  1
  F  F3610  1  0.962500  0.291000  0.348900  1
  F  F3611  1  0.291000  0.348900  0.962500  1
  F  F3612  1  0.209000  0.348900  0.537500  1
  F  F3613  1  0.209000  0.151100  0.962500  1
  F  F3614  1  0.291000  0.151100  0.537500  1
  F  F3615  1  0.348900  0.537500  0.209000  1
  F  F3616  1  0.348900  0.962500  0.291000  1
  F  F3617  1  0.151100  0.537500  0.291000  1
  F  F3618  1  0.151100  0.962500  0.209000  1
  F  F3619  1  0.709000  0.462500  0.651100  1
  F  F3620  1  0.791000  0.037500  0.651100  1
  F  F3621  1  0.791000  0.462500  0.848900  1
  F  F3622  1  0.709000  0.037500  0.848900  1
  F  F3623  1  0.651100  0.709000  0.462500  1
  F  F3624  1  0.651100  0.791000  0.037500  1
  F  F3625  1  0.848900  0.791000  0.462500  1
  F  F3626  1  0.848900  0.709000  0.037500  1
  F  F3627  1  0.462500  0.651100  0.709000  1
  F  F3628  1  0.037500  0.651100  0.791000  1
  F  F3629  1  0.462500  0.848900  0.791000  1
  F  F3630  1  0.037500  0.848900  0.709000  1
  F  F3631  1  0.462500  0.709000  0.848900  1
  F  F3632  1  0.037500  0.791000  0.848900  1
  F  F3633  1  0.462500  0.791000  0.651100  1
  F  F3634  1  0.037500  0.709000  0.651100  1
  F  F3635  1  0.709000  0.651100  0.037500  1
  F  F3636  1  0.791000  0.651100  0.462500  1
  F  F3637  1  0.791000  0.848900  0.037500  1
  F  F3638  1  0.709000  0.848900  0.462500  1
  F  F3639  1  0.651100  0.462500  0.791000  1
  F  F3640  1  0.651100  0.037500  0.709000  1
  F  F3641  1  0.848900  0.462500  0.709000  1
  F  F3642  1  0.848900  0.037500  0.791000  1
  F  F3643  1  0.389000  0.403500  0.433300  1
  F  F3644  1  0.111000  0.096500  0.433300  1
  F  F3645  1  0.111000  0.403500  0.066700  1
  F  F3646  1  0.389000  0.096500  0.066700  1
  F  F3647  1  0.433300  0.389000  0.403500  1
  F  F3648  1  0.433300  0.111000  0.096500  1
  F  F3649  1  0.066700  0.111000  0.403500  1
  F  F3650  1  0.066700  0.389000  0.096500  1
  F  F3651  1  0.403500  0.433300  0.389000  1
  F  F3652  1  0.096500  0.433300  0.111000  1
  F  F3653  1  0.403500  0.066700  0.111000  1
  F  F3654  1  0.096500  0.066700  0.389000  1
  F  F3655  1  0.403500  0.389000  0.066700  1
  F  F3656  1  0.096500  0.111000  0.066700  1
  F  F3657  1  0.403500  0.111000  0.433300  1
  F  F3658  1  0.096500  0.389000  0.433300  1
  F  F3659  1  0.389000  0.433300  0.096500  1
  F  F3660  1  0.111000  0.433300  0.403500  1
  F  F3661  1  0.111000  0.066700  0.096500  1
  F  F3662  1  0.389000  0.066700  0.403500  1
  F  F3663  1  0.433300  0.403500  0.111000  1
  F  F3664  1  0.433300  0.096500  0.389000  1
  F  F3665  1  0.066700  0.403500  0.389000  1
  F  F3666  1  0.066700  0.096500  0.111000  1
  F  F3667  1  0.611000  0.596500  0.566700  1
  F  F3668  1  0.889000  0.903500  0.566700  1
  F  F3669  1  0.889000  0.596500  0.933300  1
  F  F3670  1  0.611000  0.903500  0.933300  1
  F  F3671  1  0.566700  0.611000  0.596500  1
  F  F3672  1  0.566700  0.889000  0.903500  1
  F  F3673  1  0.933300  0.889000  0.596500  1
  F  F3674  1  0.933300  0.611000  0.903500  1
  F  F3675  1  0.596500  0.566700  0.611000  1
  F  F3676  1  0.903500  0.566700  0.889000  1
  F  F3677  1  0.596500  0.933300  0.889000  1
  F  F3678  1  0.903500  0.933300  0.611000  1
  F  F3679  1  0.596500  0.611000  0.933300  1
  F  F3680  1  0.903500  0.889000  0.933300  1
  F  F3681  1  0.596500  0.889000  0.566700  1
  F  F3682  1  0.903500  0.611000  0.566700  1
  F  F3683  1  0.611000  0.566700  0.903500  1
  F  F3684  1  0.889000  0.566700  0.596500  1
  F  F3685  1  0.889000  0.933300  0.903500  1
  F  F3686  1  0.611000  0.933300  0.596500  1
  F  F3687  1  0.566700  0.596500  0.889000  1
  F  F3688  1  0.566700  0.903500  0.611000  1
  F  F3689  1  0.933300  0.596500  0.611000  1
  F  F3690  1  0.933300  0.903500  0.889000  1
  F  F3691  1  0.404100  0.353900  0.409400  1
  F  F3692  1  0.095900  0.146100  0.409400  1
  F  F3693  1  0.095900  0.353900  0.090600  1
  F  F3694  1  0.404100  0.146100  0.090600  1
  F  F3695  1  0.409400  0.404100  0.353900  1
  F  F3696  1  0.409400  0.095900  0.146100  1
  F  F3697  1  0.090600  0.095900  0.353900  1
  F  F3698  1  0.090600  0.404100  0.146100  1
  F  F3699  1  0.353900  0.409400  0.404100  1
  F  F3700  1  0.146100  0.409400  0.095900  1
  F  F3701  1  0.353900  0.090600  0.095900  1
  F  F3702  1  0.146100  0.090600  0.404100  1
  F  F3703  1  0.353900  0.404100  0.090600  1
  F  F3704  1  0.146100  0.095900  0.090600  1
  F  F3705  1  0.353900  0.095900  0.409400  1
  F  F3706  1  0.146100  0.404100  0.409400  1
  F  F3707  1  0.404100  0.409400  0.146100  1
  F  F3708  1  0.095900  0.409400  0.353900  1
  F  F3709  1  0.095900  0.090600  0.146100  1
  F  F3710  1  0.404100  0.090600  0.353900  1
  F  F3711  1  0.409400  0.353900  0.095900  1
  F  F3712  1  0.409400  0.146100  0.404100  1
  F  F3713  1  0.090600  0.353900  0.404100  1
  F  F3714  1  0.090600  0.146100  0.095900  1
  F  F3715  1  0.595900  0.646100  0.590600  1
  F  F3716  1  0.904100  0.853900  0.590600  1
  F  F3717  1  0.904100  0.646100  0.909400  1
  F  F3718  1  0.595900  0.853900  0.909400  1
  F  F3719  1  0.590600  0.595900  0.646100  1
  F  F3720  1  0.590600  0.904100  0.853900  1
  F  F3721  1  0.909400  0.904100  0.646100  1
  F  F3722  1  0.909400  0.595900  0.853900  1
  F  F3723  1  0.646100  0.590600  0.595900  1
  F  F3724  1  0.853900  0.590600  0.904100  1
  F  F3725  1  0.646100  0.909400  0.904100  1
  F  F3726  1  0.853900  0.909400  0.595900  1
  F  F3727  1  0.646100  0.595900  0.909400  1
  F  F3728  1  0.853900  0.904100  0.909400  1
  F  F3729  1  0.646100  0.904100  0.590600  1
  F  F3730  1  0.853900  0.595900  0.590600  1
  F  F3731  1  0.595900  0.590600  0.853900  1
  F  F3732  1  0.904100  0.590600  0.646100  1
  F  F3733  1  0.904100  0.909400  0.853900  1
  F  F3734  1  0.595900  0.909400  0.646100  1
  F  F3735  1  0.590600  0.646100  0.904100  1
  F  F3736  1  0.590600  0.853900  0.595900  1
  F  F3737  1  0.909400  0.646100  0.595900  1
  F  F3738  1  0.909400  0.853900  0.904100  1
  F  F3739  1  0.371500  0.387600  0.380000  1
  F  F3740  1  0.128500  0.112400  0.380000  1
  F  F3741  1  0.128500  0.387600  0.120000  1
  F  F3742  1  0.371500  0.112400  0.120000  1
  F  F3743  1  0.380000  0.371500  0.387600  1
  F  F3744  1  0.380000  0.128500  0.112400  1
  F  F3745  1  0.120000  0.128500  0.387600  1
  F  F3746  1  0.120000  0.371500  0.112400  1
  F  F3747  1  0.387600  0.380000  0.371500  1
  F  F3748  1  0.112400  0.380000  0.128500  1
  F  F3749  1  0.387600  0.120000  0.128500  1
  F  F3750  1  0.112400  0.120000  0.371500  1
  F  F3751  1  0.387600  0.371500  0.120000  1
  F  F3752  1  0.112400  0.128500  0.120000  1
  F  F3753  1  0.387600  0.128500  0.380000  1
  F  F3754  1  0.112400  0.371500  0.380000  1
  F  F3755  1  0.371500  0.380000  0.112400  1
  F  F3756  1  0.128500  0.380000  0.387600  1
  F  F3757  1  0.128500  0.120000  0.112400  1
  F  F3758  1  0.371500  0.120000  0.387600  1
  F  F3759  1  0.380000  0.387600  0.128500  1
  F  F3760  1  0.380000  0.112400  0.371500  1
  F  F3761  1  0.120000  0.387600  0.371500  1
  F  F3762  1  0.120000  0.112400  0.128500  1
  F  F3763  1  0.628500  0.612400  0.620000  1
  F  F3764  1  0.871500  0.887600  0.620000  1
  F  F3765  1  0.871500  0.612400  0.880000  1
  F  F3766  1  0.628500  0.887600  0.880000  1
  F  F3767  1  0.620000  0.628500  0.612400  1
  F  F3768  1  0.620000  0.871500  0.887600  1
  F  F3769  1  0.880000  0.871500  0.612400  1
  F  F3770  1  0.880000  0.628500  0.887600  1
  F  F3771  1  0.612400  0.620000  0.628500  1
  F  F3772  1  0.887600  0.620000  0.871500  1
  F  F3773  1  0.612400  0.880000  0.871500  1
  F  F3774  1  0.887600  0.880000  0.628500  1
  F  F3775  1  0.612400  0.628500  0.880000  1
  F  F3776  1  0.887600  0.871500  0.880000  1
  F  F3777  1  0.612400  0.871500  0.620000  1
  F  F3778  1  0.887600  0.628500  0.620000  1
  F  F3779  1  0.628500  0.620000  0.887600  1
  F  F3780  1  0.871500  0.620000  0.612400  1
  F  F3781  1  0.871500  0.880000  0.887600  1
  F  F3782  1  0.628500  0.880000  0.612400  1
  F  F3783  1  0.620000  0.612400  0.871500  1
  F  F3784  1  0.620000  0.887600  0.628500  1
  F  F3785  1  0.880000  0.612400  0.628500  1
  F  F3786  1  0.880000  0.887600  0.871500  1
  F  F3787  1  0.416000  0.403800  0.381100  1
  F  F3788  1  0.084000  0.096200  0.381100  1
  F  F3789  1  0.084000  0.403800  0.118900  1
  F  F3790  1  0.416000  0.096200  0.118900  1
  F  F3791  1  0.381100  0.416000  0.403800  1
  F  F3792  1  0.381100  0.084000  0.096200  1
  F  F3793  1  0.118900  0.084000  0.403800  1
  F  F3794  1  0.118900  0.416000  0.096200  1
  F  F3795  1  0.403800  0.381100  0.416000  1
  F  F3796  1  0.096200  0.381100  0.084000  1
  F  F3797  1  0.403800  0.118900  0.084000  1
  F  F3798  1  0.096200  0.118900  0.416000  1
  F  F3799  1  0.403800  0.416000  0.118900  1
  F  F3800  1  0.096200  0.084000  0.118900  1
  F  F3801  1  0.403800  0.084000  0.381100  1
  F  F3802  1  0.096200  0.416000  0.381100  1
  F  F3803  1  0.416000  0.381100  0.096200  1
  F  F3804  1  0.084000  0.381100  0.403800  1
  F  F3805  1  0.084000  0.118900  0.096200  1
  F  F3806  1  0.416000  0.118900  0.403800  1
  F  F3807  1  0.381100  0.403800  0.084000  1
  F  F3808  1  0.381100  0.096200  0.416000  1
  F  F3809  1  0.118900  0.403800  0.416000  1
  F  F3810  1  0.118900  0.096200  0.084000  1
  F  F3811  1  0.584000  0.596200  0.618900  1
  F  F3812  1  0.916000  0.903800  0.618900  1
  F  F3813  1  0.916000  0.596200  0.881100  1
  F  F3814  1  0.584000  0.903800  0.881100  1
  F  F3815  1  0.618900  0.584000  0.596200  1
  F  F3816  1  0.618900  0.916000  0.903800  1
  F  F3817  1  0.881100  0.916000  0.596200  1
  F  F3818  1  0.881100  0.584000  0.903800  1
  F  F3819  1  0.596200  0.618900  0.584000  1
  F  F3820  1  0.903800  0.618900  0.916000  1
  F  F3821  1  0.596200  0.881100  0.916000  1
  F  F3822  1  0.903800  0.881100  0.584000  1
  F  F3823  1  0.596200  0.584000  0.881100  1
  F  F3824  1  0.903800  0.916000  0.881100  1
  F  F3825  1  0.596200  0.916000  0.618900  1
  F  F3826  1  0.903800  0.584000  0.618900  1
  F  F3827  1  0.584000  0.618900  0.903800  1
  F  F3828  1  0.916000  0.618900  0.596200  1
  F  F3829  1  0.916000  0.881100  0.903800  1
  F  F3830  1  0.584000  0.881100  0.596200  1
  F  F3831  1  0.618900  0.596200  0.916000  1
  F  F3832  1  0.618900  0.903800  0.584000  1
  F  F3833  1  0.881100  0.596200  0.584000  1
  F  F3834  1  0.881100  0.903800  0.916000  1
