
#######################################################################
#
#                 Cambridge Crystallographic Data Centre
#                                CCDC 
#
#######################################################################
#
# If this CIF has been generated from an entry in the Cambridge 
# Structural Database, then it will include bibliographic, chemical, 
# crystal, experimental, refinement or atomic coordinate data resulting 
# from the CCDC's data processing and validation procedures.
#
#######################################################################

data_IFAQUD
_chemical_formula_moiety         
'2(C144 H104 N8 O8 Pd2 4+),6.67(B1 F4 1-),1.33(Cl1 1-)'
_chemical_name_systematic        
'bis(tetrakis(\m~2~-5-(4-Methoxyphenyl)-3,7-bis(pyridin-3-ylethynyl)-10,11-dihydro-5H-dibenzo[a,d][7]annulen-5-ol)-di-palladium(ii)) chloride heptakis(tetrafluoroborate) unknown solvate'
_symmetry_cell_setting           cubic
_symmetry_space_group_name_H-M   'P n 3 n'
_symmetry_Int_Tables_number      222
_space_group_name_Hall           '-P 4a 2bc 3'
loop_
_symmetry_equiv_pos_site_id
_symmetry_equiv_pos_as_xyz
1 x,y,z
2 1/2-x,1/2-y,z
3 1/2-x,y,1/2-z
4 x,1/2-y,1/2-z
5 z,x,y
6 z,1/2-x,1/2-y
7 1/2-z,1/2-x,y
8 1/2-z,x,1/2-y
9 y,z,x
10 1/2-y,z,1/2-x
11 y,1/2-z,1/2-x
12 1/2-y,1/2-z,x
13 y,x,1/2-z
14 1/2-y,1/2-x,1/2-z
15 y,1/2-x,z
16 1/2-y,x,z
17 x,z,1/2-y
18 1/2-x,z,y
19 1/2-x,1/2-z,1/2-y
20 x,1/2-z,y
21 z,y,1/2-x
22 z,1/2-y,x
23 1/2-z,y,x
24 1/2-z,1/2-y,1/2-x
25 -x,-y,-z
26 1/2+x,1/2+y,-z
27 1/2+x,-y,1/2+z
28 -x,1/2+y,1/2+z
29 -z,-x,-y
30 -z,1/2+x,1/2+y
31 1/2+z,1/2+x,-y
32 1/2+z,-x,1/2+y
33 -y,-z,-x
34 1/2+y,-z,1/2+x
35 -y,1/2+z,1/2+x
36 1/2+y,1/2+z,-x
37 -y,-x,1/2+z
38 1/2+y,1/2+x,1/2+z
39 -y,1/2+x,-z
40 1/2+y,-x,-z
41 -x,-z,1/2+y
42 1/2+x,-z,-y
43 1/2+x,1/2+z,1/2+y
44 -x,1/2+z,-y
45 -z,-y,1/2+x
46 -z,1/2+y,-x
47 1/2+z,-y,-x
48 1/2+z,1/2+y,1/2+x
_cell_length_a                   39.030(2)
_cell_length_b                   39.030(2)
_cell_length_c                   39.030(2)
_cell_angle_alpha                90
_cell_angle_beta                 90
_cell_angle_gamma                90
_cell_volume                     59456
_cell_formula_units_Z            6
loop_
_atom_site_label
_atom_site_type_symbol
_atom_site_fract_x
_atom_site_fract_y
_atom_site_fract_z
Cl1 Cl 0.2500 0.7500 0.2500
Cl2 Cl 0.2500 0.355(5) 0.2500
Pd1 Pd 0.2500 0.44470(12) 0.2500
Pd2 Pd 0.2500 0.83003(8) 0.2500
N1 N 0.2888(3) 0.8289(3) 0.2839(3)
O1 O 0.3799(3) 0.6326(3) 0.2476(3)
O2 O 0.4690(5) 0.6267(5) 0.1160(5)
N2 N 0.2906(4) 0.4439(5) 0.2820(5)
C1 C 0.2968(6) 0.4153(6) 0.3017(6)
H1 H 0.2812 0.3967 0.3011
C2 C 0.3254(5) 0.4134(6) 0.3221(6)
H2 H 0.3294 0.3938 0.3360
C3 C 0.3479(6) 0.4403(5) 0.3221(6)
H3 H 0.3675 0.4396 0.3365
C4 C 0.3426(5) 0.4684(5) 0.3014(6)
C5 C 0.3135(5) 0.4704(5) 0.2819(6)
H4 H 0.3092 0.4901 0.2682
C6 C 0.3670(6) 0.4967(6) 0.3028(7)
C7 C 0.3858(6) 0.5203(6) 0.2989(7)
C8 C 0.4107(4) 0.5471(4) 0.2992(5)
C9 C 0.4038(4) 0.5757(4) 0.2802(4)
H5 H 0.3822 0.5777 0.2692
C10 C 0.4274(4) 0.6019(4) 0.2764(4)
C11 C 0.4582(4) 0.5992(4) 0.2936(5)
C12 C 0.4656(5) 0.5695(5) 0.3116(6)
H6 H 0.4873 0.5673 0.3225
C13 C 0.4424(4) 0.5430(5) 0.3142(6)
H7 H 0.4481 0.5225 0.3259
C14 C 0.4883(4) 0.6249(5) 0.2937(6)
H8 H 0.4889 0.6357 0.3167
H9 H 0.5097 0.6116 0.2913
C15 C 0.4891(4) 0.6521(5) 0.2685(6)
H10 H 0.4874 0.6420 0.2452
H11 H 0.5112 0.6644 0.2701
C16 C 0.4412(3) 0.7327(4) 0.2934(4)
H12 H 0.4468 0.7547 0.3022
C17 C 0.4670(4) 0.7095(4) 0.2863(4)
H13 H 0.4902 0.7158 0.2902
C18 C 0.4596(3) 0.6778(4) 0.2737(5)
C19 C 0.4255(4) 0.6688(4) 0.2682(5)
C20 C 0.3997(4) 0.6917(4) 0.2753(4)
H14 H 0.3765 0.6854 0.2716
C21 C 0.4075(3) 0.7241(4) 0.2877(4)
C22 C 0.3817(4) 0.7491(4) 0.2935(5)
C23 C 0.3619(4) 0.7711(4) 0.3011(4)
C24 C 0.3115(3) 0.8026(3) 0.2824(3)
H15 H 0.3089 0.7857 0.2650
C25 C 0.3381(3) 0.7998(4) 0.3052(3)
C26 C 0.3421(4) 0.8240(4) 0.3306(4)
H16 H 0.3603 0.8223 0.3467
C27 C 0.3193(4) 0.8507(4) 0.3322(4)
H17 H 0.3218 0.8677 0.3494
C28 C 0.2929(4) 0.8530(4) 0.3090(4)
H18 H 0.2772 0.8716 0.3104
C29 C 0.4169(5) 0.6326(3) 0.2518(5)
C30 C 0.4319(4) 0.6294(4) 0.2169(5)
C31 C 0.4473(4) 0.6007(5) 0.2045(4)
H19 H 0.4492 0.5811 0.2188
C32 C 0.4602(5) 0.5993(5) 0.1717(5)
H20 H 0.4714 0.5791 0.1639
C33 C 0.4570(6) 0.6268(5) 0.1501(5)
C34 C 0.4412(5) 0.6562(5) 0.1618(4)
H21 H 0.4381 0.6755 0.1472
C35 C 0.4300(5) 0.6569(5) 0.1950(4)
H22 H 0.4203 0.6775 0.2034
C36 C 0.4871(9) 0.5963(9) 0.1024(8)
H23 H 0.4713 0.5768 0.1018
H24 H 0.5066 0.5908 0.1173
H25 H 0.4954 0.6011 0.0792
N1B N 0.2112(3) 0.8289(3) 0.2161(3)
O1B O 0.1201(3) 0.6326(3) 0.2524(3)
O2B O 0.0310(5) 0.6267(5) 0.3840(5)
N2B N 0.2094(4) 0.4439(5) 0.2180(5)
C1B C 0.2032(6) 0.4153(6) 0.1983(6)
H1B H 0.2188 0.3967 0.1989
C2B C 0.1746(5) 0.4134(6) 0.1779(6)
H2B H 0.1706 0.3938 0.1640
C3B C 0.1521(6) 0.4403(5) 0.1779(6)
H3B H 0.1325 0.4396 0.1635
C4B C 0.1574(5) 0.4684(5) 0.1986(6)
C5B C 0.1865(5) 0.4704(5) 0.2181(6)
H4B H 0.1908 0.4901 0.2318
C6B C 0.1330(6) 0.4967(6) 0.1972(7)
C7B C 0.1142(6) 0.5203(6) 0.2011(7)
C8B C 0.0893(4) 0.5471(4) 0.2008(5)
C9B C 0.0962(4) 0.5757(4) 0.2198(4)
H5B H 0.1178 0.5777 0.2308
C10B C 0.0726(4) 0.6019(4) 0.2236(4)
C11B C 0.0418(4) 0.5992(4) 0.2064(5)
C12B C 0.0344(5) 0.5695(5) 0.1884(6)
H6B H 0.0127 0.5673 0.1775
C13B C 0.0576(4) 0.5430(5) 0.1858(6)
H7B H 0.0519 0.5225 0.1741
C14B C 0.0117(4) 0.6249(5) 0.2063(6)
H8B H 0.0111 0.6357 0.1833
H9B H -0.0097 0.6116 0.2087
C15B C 0.0109(4) 0.6521(5) 0.2315(6)
H10B H 0.0126 0.6420 0.2548
H11B H -0.0112 0.6644 0.2299
C16B C 0.0588(3) 0.7327(4) 0.2066(4)
H12B H 0.0532 0.7547 0.1978
C17B C 0.0330(4) 0.7095(4) 0.2137(4)
H13B H 0.0098 0.7158 0.2098
C18B C 0.0404(3) 0.6778(4) 0.2263(5)
C19B C 0.0745(4) 0.6688(4) 0.2318(5)
C20B C 0.1003(4) 0.6917(4) 0.2247(4)
H14B H 0.1235 0.6854 0.2284
C21B C 0.0925(3) 0.7241(4) 0.2123(4)
C22B C 0.1183(4) 0.7491(4) 0.2065(5)
C23B C 0.1381(4) 0.7711(4) 0.1989(4)
C24B C 0.1885(3) 0.8026(3) 0.2176(3)
H15B H 0.1911 0.7857 0.2350
C25B C 0.1619(3) 0.7998(4) 0.1948(3)
C26B C 0.1579(4) 0.8240(4) 0.1694(4)
H16B H 0.1397 0.8223 0.1533
C27B C 0.1807(4) 0.8507(4) 0.1678(4)
H17B H 0.1782 0.8677 0.1506
C28B C 0.2071(4) 0.8530(4) 0.1910(4)
H18B H 0.2228 0.8716 0.1896
C29B C 0.0831(5) 0.6326(3) 0.2482(5)
C30B C 0.0681(4) 0.6294(4) 0.2831(5)
C31B C 0.0527(4) 0.6007(5) 0.2955(4)
H19B H 0.0508 0.5811 0.2812
C32B C 0.0398(5) 0.5993(5) 0.3283(5)
H20B H 0.0286 0.5791 0.3361
C33B C 0.0430(6) 0.6268(5) 0.3499(5)
C34B C 0.0588(5) 0.6562(5) 0.3382(4)
H21B H 0.0619 0.6755 0.3528
C35B C 0.0700(5) 0.6569(5) 0.3050(4)
H22B H 0.0797 0.6775 0.2966
C36B C 0.0129(9) 0.5963(9) 0.3976(8)
H23B H 0.0287 0.5768 0.3982
H24B H -0.0066 0.5908 0.3827
H25B H 0.0046 0.6011 0.4208
N1T N 0.2839(3) 0.8289(3) 0.2112(3)
O1T O 0.2476(3) 0.6326(3) 0.1201(3)
O2T O 0.1160(5) 0.6267(5) 0.0310(5)
N2T N 0.2820(5) 0.4439(5) 0.2094(4)
C1T C 0.3017(6) 0.4153(6) 0.2032(6)
H1T H 0.3011 0.3967 0.2188
C2T C 0.3221(6) 0.4134(6) 0.1746(5)
H2T H 0.3360 0.3938 0.1706
C3T C 0.3221(6) 0.4403(5) 0.1521(6)
H3T H 0.3365 0.4396 0.1325
C4T C 0.3014(6) 0.4684(5) 0.1574(5)
C5T C 0.2819(6) 0.4704(5) 0.1865(5)
H4T H 0.2682 0.4901 0.1908
C6T C 0.3028(7) 0.4967(6) 0.1330(6)
C7T C 0.2989(7) 0.5203(6) 0.1142(6)
C8T C 0.2992(5) 0.5471(4) 0.0893(4)
C9T C 0.2802(4) 0.5757(4) 0.0962(4)
H5T H 0.2692 0.5777 0.1178
C10T C 0.2764(4) 0.6019(4) 0.0726(4)
C11T C 0.2936(5) 0.5992(4) 0.0418(4)
C12T C 0.3116(6) 0.5695(5) 0.0344(5)
H6T H 0.3225 0.5673 0.0127
C13T C 0.3142(6) 0.5430(5) 0.0576(4)
H7T H 0.3259 0.5225 0.0519
C14T C 0.2937(6) 0.6249(5) 0.0117(4)
H8T H 0.3167 0.6357 0.0111
H9T H 0.2913 0.6116 -0.0097
C15T C 0.2685(6) 0.6521(5) 0.0109(4)
H10T H 0.2452 0.6420 0.0126
H11T H 0.2701 0.6644 -0.0112
C16T C 0.2934(4) 0.7327(4) 0.0588(3)
H12T H 0.3022 0.7547 0.0532
C17T C 0.2863(4) 0.7095(4) 0.0330(4)
H13T H 0.2902 0.7158 0.0098
C18T C 0.2737(5) 0.6778(4) 0.0404(3)
C19T C 0.2682(5) 0.6688(4) 0.0745(4)
C20T C 0.2753(4) 0.6917(4) 0.1003(4)
H14T H 0.2716 0.6854 0.1235
C21T C 0.2877(4) 0.7241(4) 0.0925(3)
C22T C 0.2935(5) 0.7491(4) 0.1183(4)
C23T C 0.3011(4) 0.7711(4) 0.1381(4)
C24T C 0.2824(3) 0.8026(3) 0.1885(3)
H15T H 0.2650 0.7857 0.1911
C25T C 0.3052(3) 0.7998(4) 0.1619(3)
C26T C 0.3306(4) 0.8240(4) 0.1579(4)
H16T H 0.3467 0.8223 0.1397
C27T C 0.3322(4) 0.8507(4) 0.1807(4)
H17T H 0.3494 0.8677 0.1782
C28T C 0.3090(4) 0.8530(4) 0.2071(4)
H18T H 0.3104 0.8716 0.2228
C29T C 0.2518(5) 0.6326(3) 0.0831(5)
C30T C 0.2169(5) 0.6294(4) 0.0681(4)
C31T C 0.2045(4) 0.6007(5) 0.0527(4)
H19T H 0.2188 0.5811 0.0508
C32T C 0.1717(5) 0.5993(5) 0.0398(5)
H20T H 0.1639 0.5791 0.0286
C33T C 0.1501(5) 0.6268(5) 0.0430(6)
C34T C 0.1618(4) 0.6562(5) 0.0588(5)
H21T H 0.1472 0.6755 0.0619
C35T C 0.1950(4) 0.6569(5) 0.0700(5)
H22T H 0.2034 0.6775 0.0797
C36T C 0.1024(8) 0.5963(9) 0.0129(9)
H23T H 0.1018 0.5768 0.0287
H24T H 0.1173 0.5908 -0.0066
H25T H 0.0792 0.6011 0.0046
N1V N 0.2161(3) 0.8289(3) 0.2888(3)
O1V O 0.2524(3) 0.6326(3) 0.3799(3)
O2V O 0.3840(5) 0.6267(5) 0.4690(5)
N2V N 0.2180(5) 0.4439(5) 0.2906(4)
C1V C 0.1983(6) 0.4153(6) 0.2968(6)
H1V H 0.1989 0.3967 0.2812
C2V C 0.1779(6) 0.4134(6) 0.3254(5)
H2V H 0.1640 0.3938 0.3294
C3V C 0.1779(6) 0.4403(5) 0.3479(6)
H3V H 0.1635 0.4396 0.3675
C4V C 0.1986(6) 0.4684(5) 0.3426(5)
C5V C 0.2181(6) 0.4704(5) 0.3135(5)
H4V H 0.2318 0.4901 0.3092
C6V C 0.1972(7) 0.4967(6) 0.3670(6)
C7V C 0.2011(7) 0.5203(6) 0.3858(6)
C8V C 0.2008(5) 0.5471(4) 0.4107(4)
C9V C 0.2198(4) 0.5757(4) 0.4038(4)
H5V H 0.2308 0.5777 0.3822
C10V C 0.2236(4) 0.6019(4) 0.4274(4)
C11V C 0.2064(5) 0.5992(4) 0.4582(4)
C12V C 0.1884(6) 0.5695(5) 0.4656(5)
H6V H 0.1775 0.5673 0.4873
C13V C 0.1858(6) 0.5430(5) 0.4424(4)
H7V H 0.1741 0.5225 0.4481
C14V C 0.2063(6) 0.6249(5) 0.4883(4)
H8V H 0.1833 0.6357 0.4889
H9V H 0.2087 0.6116 0.5097
C15V C 0.2315(6) 0.6521(5) 0.4891(4)
H10V H 0.2548 0.6420 0.4874
H11V H 0.2299 0.6644 0.5112
C16V C 0.2066(4) 0.7327(4) 0.4412(3)
H12V H 0.1978 0.7547 0.4468
C17V C 0.2137(4) 0.7095(4) 0.4670(4)
H13V H 0.2098 0.7158 0.4902
C18V C 0.2263(5) 0.6778(4) 0.4596(3)
C19V C 0.2318(5) 0.6688(4) 0.4255(4)
C20V C 0.2247(4) 0.6917(4) 0.3997(4)
H14V H 0.2284 0.6854 0.3765
C21V C 0.2123(4) 0.7241(4) 0.4075(3)
C22V C 0.2065(5) 0.7491(4) 0.3817(4)
C23V C 0.1989(4) 0.7711(4) 0.3619(4)
C24V C 0.2176(3) 0.8026(3) 0.3115(3)
H15V H 0.2350 0.7857 0.3089
C25V C 0.1948(3) 0.7998(4) 0.3381(3)
C26V C 0.1694(4) 0.8240(4) 0.3421(4)
H16V H 0.1533 0.8223 0.3603
C27V C 0.1678(4) 0.8507(4) 0.3193(4)
H17V H 0.1506 0.8677 0.3218
C28V C 0.1910(4) 0.8530(4) 0.2929(4)
H18V H 0.1896 0.8716 0.2772
C29V C 0.2482(5) 0.6326(3) 0.4169(5)
C30V C 0.2831(5) 0.6294(4) 0.4319(4)
C31V C 0.2955(4) 0.6007(5) 0.4473(4)
H19V H 0.2812 0.5811 0.4492
C32V C 0.3283(5) 0.5993(5) 0.4602(5)
H20V H 0.3361 0.5791 0.4714
C33V C 0.3499(5) 0.6268(5) 0.4570(6)
C34V C 0.3382(4) 0.6562(5) 0.4412(5)
H21V H 0.3528 0.6755 0.4381
C35V C 0.3050(4) 0.6569(5) 0.4300(5)
H22V H 0.2966 0.6775 0.4203
C36V C 0.3976(8) 0.5963(9) 0.4871(9)
H23V H 0.3982 0.5768 0.4713
H24V H 0.3827 0.5908 0.5066
H25V H 0.4208 0.6011 0.4954
B1 B 0.2832(10) 0.5622(10) 0.3258(10)
F1 F 0.2937(11) 0.5806(11) 0.3523(10)
F2 F 0.2529(9) 0.5773(12) 0.3133(12)
F3 F 0.3032(11) 0.5585(12) 0.2986(10)
F4 F 0.2799(11) 0.5283(8) 0.3278(12)
F5? F 0.269(2) 0.5905(15) 0.339(2)
F6? F 0.265(2) 0.549(2) 0.2986(17)
F7? F 0.3168(11) 0.564(2) 0.319(2)
F8? F 0.291(2) 0.5375(18) 0.3489(19)
B2? B 0.3956(13) 0.3880(12) 0.4038(14)
F9? F 0.3890(16) 0.4035(13) 0.4333(15)
F10? F 0.4041(14) 0.3539(10) 0.4094(15)
F11? F 0.3715(16) 0.3876(17) 0.380(2)
F12? F 0.4160(17) 0.4038(13) 0.3811(16)
loop_
_geom_bond_atom_site_label_1
_geom_bond_atom_site_label_2
_geom_bond_site_symmetry_1
_geom_bond_site_symmetry_2
Pd1 N2 1_555 1_555
Pd2 N1 1_555 1_555
N1 C24 1_555 1_555
O1 C29 1_555 1_555
O2 C33 1_555 1_555
N2 C1 1_555 1_555
C1 H1 1_555 1_555
C2 C1 1_555 1_555
H2 C2 1_555 1_555
C3 C2 1_555 1_555
H3 C3 1_555 1_555
C4 C3 1_555 1_555
C5 N2 1_555 1_555
H4 C5 1_555 1_555
C6 C4 1_555 1_555
C7 C6 1_555 1_555
C8 C7 1_555 1_555
C9 C8 1_555 1_555
H5 C9 1_555 1_555
C10 C9 1_555 1_555
C11 C10 1_555 1_555
C12 C11 1_555 1_555
H6 C12 1_555 1_555
C13 C8 1_555 1_555
H7 C13 1_555 1_555
C14 C11 1_555 1_555
H8 C14 1_555 1_555
H9 C14 1_555 1_555
C15 C14 1_555 1_555
H10 C15 1_555 1_555
H11 C15 1_555 1_555
C16 H12 1_555 1_555
C17 C16 1_555 1_555
H13 C17 1_555 1_555
C18 C15 1_555 1_555
C19 C18 1_555 1_555
C20 C19 1_555 1_555
H14 C20 1_555 1_555
C21 C16 1_555 1_555
C22 C21 1_555 1_555
C23 C22 1_555 1_555
C24 H15 1_555 1_555
C25 C23 1_555 1_555
C26 C25 1_555 1_555
H16 C26 1_555 1_555
C27 C26 1_555 1_555
H17 C27 1_555 1_555
C28 N1 1_555 1_555
H18 C28 1_555 1_555
C29 C10 1_555 1_555
C30 C29 1_555 1_555
C31 C30 1_555 1_555
H19 C31 1_555 1_555
C32 C31 1_555 1_555
H20 C32 1_555 1_555
C33 C32 1_555 1_555
C34 C33 1_555 1_555
H21 C34 1_555 1_555
C35 C30 1_555 1_555
H22 C35 1_555 1_555
C36 O2 1_555 1_555
H23 C36 1_555 1_555
H24 C36 1_555 1_555
H25 C36 1_555 1_555
B1 F1 1_555 1_555
F2 B1 1_555 1_555
F3 B1 1_555 1_555
F4 B1 1_555 1_555
N1B Pd2 1_555 1_555
O1B C29B 1_555 1_555
O2B C33B 1_555 1_555
N2B Pd1 1_555 1_555
C1B N2B 1_555 1_555
H1B C1B 1_555 1_555
C2B C1B 1_555 1_555
H2B C2B 1_555 1_555
C3B C2B 1_555 1_555
H3B C3B 1_555 1_555
C4B C3B 1_555 1_555
C5B N2B 1_555 1_555
H4B C5B 1_555 1_555
C6B C4B 1_555 1_555
C7B C6B 1_555 1_555
C8B C7B 1_555 1_555
C9B C8B 1_555 1_555
H5B C9B 1_555 1_555
C10B C9B 1_555 1_555
C11B C10B 1_555 1_555
C12B C11B 1_555 1_555
H6B C12B 1_555 1_555
C13B C8B 1_555 1_555
H7B C13B 1_555 1_555
C14B C11B 1_555 1_555
H8B C14B 1_555 1_555
H9B C14B 1_555 1_555
C15B C14B 1_555 1_555
H10B C15B 1_555 1_555
H11B C15B 1_555 1_555
C16B H12B 1_555 1_555
C17B C16B 1_555 1_555
H13B C17B 1_555 1_555
C18B C15B 1_555 1_555
C19B C18B 1_555 1_555
C20B C19B 1_555 1_555
H14B C20B 1_555 1_555
C21B C16B 1_555 1_555
C22B C21B 1_555 1_555
C23B C22B 1_555 1_555
C24B N1B 1_555 1_555
H15B C24B 1_555 1_555
C25B C23B 1_555 1_555
C26B C25B 1_555 1_555
H16B C26B 1_555 1_555
C27B C26B 1_555 1_555
H17B C27B 1_555 1_555
C28B N1B 1_555 1_555
H18B C28B 1_555 1_555
C29B C10B 1_555 1_555
C30B C29B 1_555 1_555
C31B C30B 1_555 1_555
H19B C31B 1_555 1_555
C32B C31B 1_555 1_555
H20B C32B 1_555 1_555
C33B C32B 1_555 1_555
C34B C33B 1_555 1_555
H21B C34B 1_555 1_555
C35B C30B 1_555 1_555
H22B C35B 1_555 1_555
C36B O2B 1_555 1_555
H23B C36B 1_555 1_555
H24B C36B 1_555 1_555
H25B C36B 1_555 1_555
N1T Pd2 1_555 1_555
O1T C29T 1_555 1_555
O2T C33T 1_555 1_555
N2T Pd1 1_555 1_555
C1T N2T 1_555 1_555
H1T C1T 1_555 1_555
C2T C1T 1_555 1_555
H2T C2T 1_555 1_555
C3T C2T 1_555 1_555
H3T C3T 1_555 1_555
C4T C3T 1_555 1_555
C5T N2T 1_555 1_555
H4T C5T 1_555 1_555
C6T C4T 1_555 1_555
C7T C6T 1_555 1_555
C8T C7T 1_555 1_555
C9T C8T 1_555 1_555
H5T C9T 1_555 1_555
C10T C9T 1_555 1_555
C11T C10T 1_555 1_555
C12T C11T 1_555 1_555
H6T C12T 1_555 1_555
C13T C8T 1_555 1_555
H7T C13T 1_555 1_555
C14T C11T 1_555 1_555
H8T C14T 1_555 1_555
H9T C14T 1_555 1_555
C15T C14T 1_555 1_555
H10T C15T 1_555 1_555
H11T C15T 1_555 1_555
C16T H12T 1_555 1_555
C17T C16T 1_555 1_555
H13T C17T 1_555 1_555
C18T C15T 1_555 1_555
C19T C18T 1_555 1_555
C20T C19T 1_555 1_555
H14T C20T 1_555 1_555
C21T C16T 1_555 1_555
C22T C21T 1_555 1_555
C23T C22T 1_555 1_555
C24T N1T 1_555 1_555
H15T C24T 1_555 1_555
C25T C23T 1_555 1_555
C26T C25T 1_555 1_555
H16T C26T 1_555 1_555
C27T C26T 1_555 1_555
H17T C27T 1_555 1_555
C28T N1T 1_555 1_555
H18T C28T 1_555 1_555
C29T C10T 1_555 1_555
C30T C29T 1_555 1_555
C31T C30T 1_555 1_555
H19T C31T 1_555 1_555
C32T C31T 1_555 1_555
H20T C32T 1_555 1_555
C33T C32T 1_555 1_555
C34T C33T 1_555 1_555
H21T C34T 1_555 1_555
C35T C30T 1_555 1_555
H22T C35T 1_555 1_555
C36T O2T 1_555 1_555
H23T C36T 1_555 1_555
H24T C36T 1_555 1_555
H25T C36T 1_555 1_555
N1V Pd2 1_555 1_555
O1V C29V 1_555 1_555
O2V C33V 1_555 1_555
N2V Pd1 1_555 1_555
C1V N2V 1_555 1_555
H1V C1V 1_555 1_555
C2V C1V 1_555 1_555
H2V C2V 1_555 1_555
C3V C2V 1_555 1_555
H3V C3V 1_555 1_555
C4V C3V 1_555 1_555
C5V N2V 1_555 1_555
H4V C5V 1_555 1_555
C6V C4V 1_555 1_555
C7V C6V 1_555 1_555
C8V C7V 1_555 1_555
C9V C8V 1_555 1_555
H5V C9V 1_555 1_555
C10V C9V 1_555 1_555
C11V C10V 1_555 1_555
C12V C11V 1_555 1_555
H6V C12V 1_555 1_555
C13V C8V 1_555 1_555
H7V C13V 1_555 1_555
C14V C11V 1_555 1_555
H8V C14V 1_555 1_555
H9V C14V 1_555 1_555
C15V C14V 1_555 1_555
H10V C15V 1_555 1_555
H11V C15V 1_555 1_555
C16V H12V 1_555 1_555
C17V C16V 1_555 1_555
H13V C17V 1_555 1_555
C18V C15V 1_555 1_555
C19V C18V 1_555 1_555
C20V C19V 1_555 1_555
H14V C20V 1_555 1_555
C21V C16V 1_555 1_555
C22V C21V 1_555 1_555
C23V C22V 1_555 1_555
C24V N1V 1_555 1_555
H15V C24V 1_555 1_555
C25V C23V 1_555 1_555
C26V C25V 1_555 1_555
H16V C26V 1_555 1_555
C27V C26V 1_555 1_555
H17V C27V 1_555 1_555
C28V N1V 1_555 1_555
H18V C28V 1_555 1_555
C29V C10V 1_555 1_555
C30V C29V 1_555 1_555
C31V C30V 1_555 1_555
H19V C31V 1_555 1_555
C32V C31V 1_555 1_555
H20V C32V 1_555 1_555
C33V C32V 1_555 1_555
C34V C33V 1_555 1_555
H21V C34V 1_555 1_555
C35V C30V 1_555 1_555
H22V C35V 1_555 1_555
C36V O2V 1_555 1_555
H23V C36V 1_555 1_555
H24V C36V 1_555 1_555
H25V C36V 1_555 1_555
C4 C5 1_555 1_555
C12 C13 1_555 1_555
C17 C18 1_555 1_555
C19 C29 1_555 1_555
C20 C21 1_555 1_555
C24 C25 1_555 1_555
C27 C28 1_555 1_555
C34 C35 1_555 1_555
C4B C5B 1_555 1_555
C12B C13B 1_555 1_555
C17B C18B 1_555 1_555
C19B C29B 1_555 1_555
C20B C21B 1_555 1_555
C24B C25B 1_555 1_555
C27B C28B 1_555 1_555
C34B C35B 1_555 1_555
C4T C5T 1_555 1_555
C12T C13T 1_555 1_555
C17T C18T 1_555 1_555
C19T C29T 1_555 1_555
C20T C21T 1_555 1_555
C24T C25T 1_555 1_555
C27T C28T 1_555 1_555
C34T C35T 1_555 1_555
C4V C5V 1_555 1_555
C12V C13V 1_555 1_555
C17V C18V 1_555 1_555
C19V C29V 1_555 1_555
C20V C21V 1_555 1_555
C24V C25V 1_555 1_555
C27V C28V 1_555 1_555
C34V C35V 1_555 1_555

#END
