# generated using pymatgen
data_P83H1728Pd48C2016N288(O19F161)3
_symmetry_space_group_name_H-M   'P 1'
_cell_length_a   44.41900000
_cell_length_b   46.04100000
_cell_length_c   75.64900000
_cell_angle_alpha   90.00000000
_cell_angle_beta   90.00000000
_cell_angle_gamma   113.05000000
_symmetry_Int_Tables_number   1
_chemical_formula_structural   P83H1728Pd48C2016N288(O19F161)3
_chemical_formula_sum   'P166 H3456 Pd96 C4032 N576 O114 F966'
_cell_volume   142357.95175344
_cell_formula_units_Z   2
loop_
 _symmetry_equiv_pos_site_id
 _symmetry_equiv_pos_as_xyz
  1  'x, y, z'
loop_
 _atom_site_type_symbol
 _atom_site_label
 _atom_site_symmetry_multiplicity
 _atom_site_fract_x
 _atom_site_fract_y
 _atom_site_fract_z
 _atom_site_occupancy
  P  P1  1  0.640520  0.202790  0.084690  1.0
  P  P2  1  0.859480  0.797210  0.584690  1.0
  P  P3  1  0.359480  0.797210  0.915310  1.0
  P  P4  1  0.140520  0.202790  0.415310  1.0
  P  P5  1  0.403120  0.033880  0.191610  1.0
  P  P6  1  0.096880  0.966120  0.691610  1.0
  P  P7  1  0.596880  0.966120  0.808390  1.0
  P  P8  1  0.903120  0.033880  0.308390  1.0
  P  P9  1  0.576730  0.010680  0.093870  1.0
  P  P10  1  0.923270  0.989320  0.593870  1.0
  P  P11  1  0.423270  0.989320  0.906130  1.0
  P  P12  1  0.076730  0.010680  0.406130  1.0
  P  P13  1  0.934130  0.603930  0.700270  1.0
  P  P14  1  0.565870  0.396070  0.200270  1.0
  P  P15  1  0.065870  0.396070  0.299730  1.0
  P  P16  1  0.434130  0.603930  0.799730  1.0
  P  P17  1  0.761150  0.045170  0.156770  1.0
  P  P18  1  0.738850  0.954830  0.656770  1.0
  P  P19  1  0.238850  0.954830  0.843230  1.0
  P  P20  1  0.261150  0.045170  0.343230  1.0
  P  P21  1  0.432990  0.194550  0.157740  1.0
  P  P22  1  0.067010  0.805450  0.657740  1.0
  P  P23  1  0.567010  0.805450  0.842260  1.0
  P  P24  1  0.932990  0.194550  0.342260  1.0
  P  P25  1  0.312390  0.233230  0.086780  1.0
  P  P26  1  0.187610  0.766770  0.586780  1.0
  P  P27  1  0.687610  0.766770  0.913220  1.0
  P  P28  1  0.812390  0.233230  0.413220  1.0
  P  P29  1  0.631170  0.172420  0.185090  1.0
  P  P30  1  0.868830  0.827580  0.685090  1.0
  P  P31  1  0.368830  0.827580  0.814910  1.0
  P  P32  1  0.131170  0.172420  0.314910  1.0
  P  P33  1  0.349900  0.127360  0.888890  1.0
  P  P34  1  0.150100  0.872640  0.388890  1.0
  P  P35  1  0.650100  0.872640  0.111110  1.0
  P  P36  1  0.849900  0.127360  0.611110  1.0
  P  P37  1  0.616470  0.400860  0.889100  1.0
  P  P38  1  0.883530  0.599140  0.389100  1.0
  P  P39  1  0.383530  0.599140  0.110900  1.0
  P  P40  1  0.116470  0.400860  0.610900  1.0
  P  P41  1  0.437460  0.074470  0.068180  1.0
  P  P42  1  0.062540  0.925530  0.568180  1.0
  P  P43  1  0.562540  0.925530  0.931820  1.0
  P  P44  1  0.937460  0.074470  0.431820  1.0
  P  P45  1  0.421280  0.007890  0.313350  1.0
  P  P46  1  0.078720  0.992110  0.813350  1.0
  P  P47  1  0.578720  0.992110  0.686650  1.0
  P  P48  1  0.921280  0.007890  0.186650  1.0
  P  P49  1  0.831290  0.269800  0.304330  1.0
  P  P50  1  0.668710  0.730200  0.804330  1.0
  P  P51  1  0.168710  0.730200  0.695670  1.0
  P  P52  1  0.331290  0.269800  0.195670  1.0
  P  P53  1  0.482530  0.224950  0.999210  1.0
  P  P54  1  0.017470  0.775050  0.499210  1.0
  P  P55  1  0.517470  0.775050  0.000790  1.0
  P  P56  1  0.982530  0.224950  0.500790  1.0
  P  P57  1  0.562510  0.366890  0.097940  1.0
  P  P58  1  0.937490  0.633110  0.597940  1.0
  P  P59  1  0.437490  0.633110  0.902060  1.0
  P  P60  1  0.062510  0.366890  0.402060  1.0
  P  P61  1  0.342900  0.360040  0.025950  1.0
  P  P62  1  0.157100  0.639960  0.525950  1.0
  P  P63  1  0.657100  0.639960  0.974050  1.0
  P  P64  1  0.842900  0.360040  0.474050  1.0
  P  P65  1  0.273150  0.478550  0.949040  1.0
  P  P66  1  0.226850  0.521450  0.449040  1.0
  P  P67  1  0.726850  0.521450  0.050960  1.0
  P  P68  1  0.773150  0.478550  0.550960  1.0
  P  P69  1  0.992300  0.063400  0.965170  1.0
  P  P70  1  0.507700  0.936600  0.465170  1.0
  P  P71  1  0.007700  0.936600  0.034830  1.0
  P  P72  1  0.492300  0.063400  0.534830  1.0
  P  P73  1  0.783980  0.534200  0.935270  1.0
  P  P74  1  0.716020  0.465800  0.435270  1.0
  P  P75  1  0.216020  0.465800  0.064730  1.0
  P  P76  1  0.283980  0.534200  0.564730  1.0
  P  P77  1  0.775080  0.350700  0.872150  1.0
  P  P78  1  0.724920  0.649300  0.372150  1.0
  P  P79  1  0.224920  0.649300  0.127850  1.0
  P  P80  1  0.275080  0.350700  0.627850  1.0
  P  P81  1  0.479140  0.905900  0.292170  1.0
  P  P82  1  0.020860  0.094100  0.792170  1.0
  P  P83  1  0.520860  0.094100  0.707830  1.0
  P  P84  1  0.979140  0.905900  0.207830  1.0
  P  P85  1  0.715920  0.137870  0.028470  1.0
  P  P86  1  0.784080  0.862130  0.528470  1.0
  P  P87  1  0.284080  0.862130  0.971530  1.0
  P  P88  1  0.215920  0.137870  0.471530  1.0
  P  P89  1  0.114190  0.924800  0.928750  1.0
  P  P90  1  0.385810  0.075200  0.428750  1.0
  P  P91  1  0.885810  0.075200  0.071250  1.0
  P  P92  1  0.614190  0.924800  0.571250  1.0
  P  P93  1  0.101620  0.724420  0.774960  1.0
  P  P94  1  0.398380  0.275580  0.274960  1.0
  P  P95  1  0.898380  0.275580  0.225040  1.0
  P  P96  1  0.601620  0.724420  0.725040  1.0
  P  P97  1  0.459530  0.870800  0.136330  1.0
  P  P98  1  0.040470  0.129200  0.636330  1.0
  P  P99  1  0.540470  0.129200  0.863670  1.0
  P  P100  1  0.959530  0.870800  0.363670  1.0
  P  P101  1  0.482380  0.735870  0.224250  1.0
  P  P102  1  0.017620  0.264130  0.724250  1.0
  P  P103  1  0.517620  0.264130  0.775750  1.0
  P  P104  1  0.982380  0.735870  0.275750  1.0
  P  P105  1  0.296780  0.616200  0.650440  1.0
  P  P106  1  0.203220  0.383800  0.150440  1.0
  P  P107  1  0.703220  0.383800  0.349560  1.0
  P  P108  1  0.796780  0.616200  0.849560  1.0
  P  P109  1  0.193290  0.392240  0.803440  1.0
  P  P110  1  0.306710  0.607760  0.303440  1.0
  P  P111  1  0.806710  0.607760  0.196560  1.0
  P  P112  1  0.693290  0.392240  0.696560  1.0
  P  P113  1  0.647500  0.227800  0.907060  1.0
  P  P114  1  0.852500  0.772200  0.407060  1.0
  P  P115  1  0.352500  0.772200  0.092940  1.0
  P  P116  1  0.147500  0.227800  0.592940  1.0
  P  P117  1  0.650900  0.824700  0.315920  1.0
  P  P118  1  0.849100  0.175300  0.815920  1.0
  P  P119  1  0.349100  0.175300  0.684080  1.0
  P  P120  1  0.150900  0.824700  0.184080  1.0
  P  P121  1  0.107100  0.785400  0.074300  1.0
  P  P122  1  0.392900  0.214600  0.574300  1.0
  P  P123  1  0.892900  0.214600  0.925700  1.0
  P  P124  1  0.607100  0.785400  0.425700  1.0
  P  P125  1  0.547900  0.240300  0.313590  1.0
  P  P126  1  0.952100  0.759700  0.813590  1.0
  P  P127  1  0.452100  0.759700  0.686410  1.0
  P  P128  1  0.047900  0.240300  0.186410  1.0
  P  P129  1  0.239600  0.947300  0.045770  1.0
  P  P130  1  0.260400  0.052700  0.545770  1.0
  P  P131  1  0.760400  0.052700  0.954230  1.0
  P  P132  1  0.739600  0.947300  0.454230  1.0
  P  P133  1  0.936700  0.432800  0.966530  1.0
  P  P134  1  0.563300  0.567200  0.466530  1.0
  P  P135  1  0.063300  0.567200  0.033470  1.0
  P  P136  1  0.436700  0.432800  0.533470  1.0
  P  P137  1  0.978500  0.710700  0.998330  1.0
  P  P138  1  0.521500  0.289300  0.498330  1.0
  P  P139  1  0.021500  0.289300  0.001670  1.0
  P  P140  1  0.478500  0.710700  0.501670  1.0
  P  P141  1  0.500000  0.500000  0.000000  1.0
  P  P142  1  0.000000  0.500000  0.500000  1.0
  P  P143  1  0.931100  0.536100  0.822880  1.0
  P  P144  1  0.568900  0.463900  0.322880  1.0
  P  P145  1  0.068900  0.463900  0.177120  1.0
  P  P146  1  0.431100  0.536100  0.677120  1.0
  P  P147  1  0.855300  0.398600  0.743100  1.0
  P  P148  1  0.644700  0.601400  0.243100  1.0
  P  P149  1  0.144700  0.601400  0.256900  1.0
  P  P150  1  0.355300  0.398600  0.756900  1.0
  P  P151  1  0.147500  0.502500  0.712800  1.0
  P  P152  1  0.352500  0.497500  0.212800  1.0
  P  P153  1  0.852500  0.497500  0.287200  1.0
  P  P154  1  0.647500  0.502500  0.787200  1.0
  P  P155  1  0.086800  0.348000  0.904000  1.0
  P  P156  1  0.413200  0.652000  0.404000  1.0
  P  P157  1  0.913200  0.652000  0.096000  1.0
  P  P158  1  0.586800  0.348000  0.596000  1.0
  P  P159  1  0.651000  0.039600  0.369440  0.458
  P  P160  1  0.849000  0.960400  0.869440  0.458
  P  P161  1  0.349000  0.960400  0.630560  0.458
  P  P162  1  0.151000  0.039600  0.130560  0.458
  P  P163  1  0.179300  0.599700  0.858300  0.5
  P  P164  1  0.320700  0.400300  0.358300  0.5
  P  P165  1  0.820700  0.400300  0.141700  0.5
  P  P166  1  0.679300  0.599700  0.641700  0.5
  P  P167  1  0.188200  0.608000  0.873860  0.5
  P  P168  1  0.311800  0.392000  0.373860  0.5
  P  P169  1  0.811800  0.392000  0.126140  0.5
  P  P170  1  0.688200  0.608000  0.626140  0.5
  P  P171  1  0.644700  0.030500  0.353000  0.542
  P  P172  1  0.855300  0.969500  0.853000  0.542
  P  P173  1  0.355300  0.969500  0.647000  0.542
  P  P174  1  0.144700  0.030500  0.147000  0.542
  H  H175  1  0.431500  0.146600  0.931700  1.0
  H  H176  1  0.068500  0.853400  0.431700  1.0
  H  H177  1  0.568500  0.853400  0.068300  1.0
  H  H178  1  0.931500  0.146600  0.568300  1.0
  H  H179  1  0.456300  0.169500  0.945900  1.0
  H  H180  1  0.043700  0.830500  0.445900  1.0
  H  H181  1  0.543700  0.830500  0.054100  1.0
  H  H182  1  0.956300  0.169500  0.554100  1.0
  H  H183  1  0.418400  0.163600  0.946500  1.0
  H  H184  1  0.081600  0.836400  0.446500  1.0
  H  H185  1  0.581600  0.836400  0.053500  1.0
  H  H186  1  0.918400  0.163600  0.553500  1.0
  H  H187  1  0.847500  0.259800  0.916800  1.0
  H  H188  1  0.652500  0.740200  0.416800  1.0
  H  H189  1  0.152500  0.740200  0.083200  1.0
  H  H190  1  0.347500  0.259800  0.583200  1.0
  H  H191  1  0.867600  0.272800  0.898900  1.0
  H  H192  1  0.632400  0.727200  0.398900  1.0
  H  H193  1  0.132400  0.727200  0.101100  1.0
  H  H194  1  0.367600  0.272800  0.601100  1.0
  H  H195  1  0.840100  0.285100  0.905000  1.0
  H  H196  1  0.659900  0.714900  0.405000  1.0
  H  H197  1  0.159900  0.714900  0.095000  1.0
  H  H198  1  0.340100  0.285100  0.595000  1.0
  H  H199  1  0.237500  0.462500  0.678400  1.0
  H  H200  1  0.262500  0.537500  0.178400  1.0
  H  H201  1  0.762500  0.537500  0.321600  1.0
  H  H202  1  0.737500  0.462500  0.821600  1.0
  H  H203  1  0.248100  0.514400  0.688000  1.0
  H  H204  1  0.251900  0.485600  0.188000  1.0
  H  H205  1  0.751900  0.485600  0.312000  1.0
  H  H206  1  0.748100  0.514400  0.812000  1.0
  H  H207  1  0.180300  0.514000  0.652900  1.0
  H  H208  1  0.319700  0.486000  0.152900  1.0
  H  H209  1  0.819700  0.486000  0.347100  1.0
  H  H210  1  0.680300  0.514000  0.847100  1.0
  H  H211  1  0.172300  0.465000  0.644100  1.0
  H  H212  1  0.327700  0.535000  0.144100  1.0
  H  H213  1  0.827700  0.535000  0.355900  1.0
  H  H214  1  0.672300  0.465000  0.855900  1.0
  H  H215  1  0.197400  0.646700  0.683100  1.0
  H  H216  1  0.302600  0.353300  0.183100  1.0
  H  H217  1  0.802600  0.353300  0.316900  1.0
  H  H218  1  0.697400  0.646700  0.816900  1.0
  H  H219  1  0.165400  0.670000  0.669700  1.0
  H  H220  1  0.334600  0.330000  0.169700  1.0
  H  H221  1  0.834600  0.330000  0.330300  1.0
  H  H222  1  0.665400  0.670000  0.830300  1.0
  H  H223  1  0.135100  0.601700  0.634000  1.0
  H  H224  1  0.364900  0.398300  0.134000  1.0
  H  H225  1  0.864900  0.398300  0.366000  1.0
  H  H226  1  0.635100  0.601700  0.866000  1.0
  H  H227  1  0.167200  0.578900  0.646000  1.0
  H  H228  1  0.332800  0.421100  0.146000  1.0
  H  H229  1  0.832800  0.421100  0.354000  1.0
  H  H230  1  0.667200  0.578900  0.854000  1.0
  H  H231  1  0.259100  0.569100  0.724400  1.0
  H  H232  1  0.240900  0.430900  0.224400  1.0
  H  H233  1  0.740900  0.430900  0.275600  1.0
  H  H234  1  0.759100  0.569100  0.775600  1.0
  H  H235  1  0.292400  0.595400  0.748200  1.0
  H  H236  1  0.207600  0.404600  0.248200  1.0
  H  H237  1  0.707600  0.404600  0.251800  1.0
  H  H238  1  0.792400  0.595400  0.751800  1.0
  H  H239  1  0.290000  0.675400  0.732200  1.0
  H  H240  1  0.210000  0.324600  0.232200  1.0
  H  H241  1  0.710000  0.324600  0.267800  1.0
  H  H242  1  0.790000  0.675400  0.767800  1.0
  H  H243  1  0.259300  0.650700  0.706700  1.0
  H  H244  1  0.240700  0.349300  0.206700  1.0
  H  H245  1  0.740700  0.349300  0.293300  1.0
  H  H246  1  0.759300  0.650700  0.793300  1.0
  H  H247  1  0.122400  0.398300  0.656500  1.0
  H  H248  1  0.377600  0.601700  0.156500  1.0
  H  H249  1  0.877600  0.601700  0.343500  1.0
  H  H250  1  0.622400  0.398300  0.843500  1.0
  H  H251  1  0.082000  0.398400  0.676000  1.0
  H  H252  1  0.418000  0.601600  0.176000  1.0
  H  H253  1  0.918000  0.601600  0.324000  1.0
  H  H254  1  0.582000  0.398400  0.824000  1.0
  H  H255  1  0.146100  0.412100  0.716200  1.0
  H  H256  1  0.353900  0.587900  0.216200  1.0
  H  H257  1  0.853900  0.587900  0.283800  1.0
  H  H258  1  0.646100  0.412100  0.783800  1.0
  H  H259  1  0.187000  0.417400  0.694700  1.0
  H  H260  1  0.313000  0.582600  0.194700  1.0
  H  H261  1  0.813000  0.582600  0.305300  1.0
  H  H262  1  0.687000  0.417400  0.805300  1.0
  H  H263  1  0.037900  0.411200  0.768800  1.0
  H  H264  1  0.462100  0.588800  0.268800  1.0
  H  H265  1  0.962100  0.588800  0.231200  1.0
  H  H266  1  0.537900  0.411200  0.731200  1.0
  H  H267  1  0.048500  0.407100  0.797800  1.0
  H  H268  1  0.451500  0.592900  0.297800  1.0
  H  H269  1  0.951500  0.592900  0.202200  1.0
  H  H270  1  0.548500  0.407100  0.702200  1.0
  H  H271  1  0.132500  0.400800  0.784900  1.0
  H  H272  1  0.367500  0.599200  0.284900  1.0
  H  H273  1  0.867500  0.599200  0.215100  1.0
  H  H274  1  0.632500  0.400800  0.715100  1.0
  H  H275  1  0.123500  0.404200  0.756100  1.0
  H  H276  1  0.376500  0.595800  0.256100  1.0
  H  H277  1  0.876500  0.595800  0.243900  1.0
  H  H278  1  0.623500  0.404200  0.743900  1.0
  H  H279  1  0.982700  0.398100  0.738000  1.0
  H  H280  1  0.517300  0.601900  0.238000  1.0
  H  H281  1  0.017300  0.601900  0.262000  1.0
  H  H282  1  0.482700  0.398100  0.762000  1.0
  H  H283  1  0.932700  0.399300  0.728200  1.0
  H  H284  1  0.567300  0.600700  0.228200  1.0
  H  H285  1  0.067300  0.600700  0.271800  1.0
  H  H286  1  0.432700  0.399300  0.771800  1.0
  H  H287  1  0.959200  0.402200  0.678100  1.0
  H  H288  1  0.540800  0.597800  0.178100  1.0
  H  H289  1  0.040800  0.597800  0.321900  1.0
  H  H290  1  0.459200  0.402200  0.821900  1.0
  H  H291  1  0.012000  0.407700  0.686900  1.0
  H  H292  1  0.488000  0.592300  0.186900  1.0
  H  H293  1  0.988000  0.592300  0.313100  1.0
  H  H294  1  0.512000  0.407700  0.813100  1.0
  H  H295  1  0.906100  0.451100  0.722600  1.0
  H  H296  1  0.593900  0.548900  0.222600  1.0
  H  H297  1  0.093900  0.548900  0.277400  1.0
  H  H298  1  0.406100  0.451100  0.777400  1.0
  H  H299  1  0.940900  0.502300  0.730300  1.0
  H  H300  1  0.559100  0.497700  0.230300  1.0
  H  H301  1  0.059100  0.497700  0.269700  1.0
  H  H302  1  0.440900  0.502300  0.769700  1.0
  H  H303  1  0.983700  0.509300  0.682600  1.0
  H  H304  1  0.516300  0.490700  0.182600  1.0
  H  H305  1  0.016300  0.490700  0.317400  1.0
  H  H306  1  0.483700  0.509300  0.817400  1.0
  H  H307  1  0.951600  0.459200  0.676500  1.0
  H  H308  1  0.548400  0.540800  0.176500  1.0
  H  H309  1  0.048400  0.540800  0.323500  1.0
  H  H310  1  0.451600  0.459200  0.823500  1.0
  H  H311  1  0.036400  0.645900  0.744000  1.0
  H  H312  1  0.463600  0.354100  0.244000  1.0
  H  H313  1  0.963600  0.354100  0.256000  1.0
  H  H314  1  0.536400  0.645900  0.756000  1.0
  H  H315  1  0.034900  0.662100  0.772000  1.0
  H  H316  1  0.465100  0.337900  0.272000  1.0
  H  H317  1  0.965100  0.337900  0.228000  1.0
  H  H318  1  0.534900  0.662100  0.728000  1.0
  H  H319  1  0.983900  0.574200  0.788300  1.0
  H  H320  1  0.516100  0.425800  0.288300  1.0
  H  H321  1  0.016100  0.425800  0.211700  1.0
  H  H322  1  0.483900  0.574200  0.711700  1.0
  H  H323  1  0.982400  0.556400  0.758900  1.0
  H  H324  1  0.517600  0.443600  0.258900  1.0
  H  H325  1  0.017600  0.443600  0.241100  1.0
  H  H326  1  0.482400  0.556400  0.741100  1.0
  H  H327  1  0.078400  0.647700  0.700800  1.0
  H  H328  1  0.421600  0.352300  0.200800  1.0
  H  H329  1  0.921600  0.352300  0.299200  1.0
  H  H330  1  0.578400  0.647700  0.799200  1.0
  H  H331  1  0.109700  0.671400  0.676600  1.0
  H  H332  1  0.390300  0.328600  0.176600  1.0
  H  H333  1  0.890300  0.328600  0.323400  1.0
  H  H334  1  0.609700  0.671400  0.823400  1.0
  H  H335  1  0.065800  0.599300  0.646300  1.0
  H  H336  1  0.434200  0.400700  0.146300  1.0
  H  H337  1  0.934200  0.400700  0.353700  1.0
  H  H338  1  0.565800  0.599300  0.853700  1.0
  H  H339  1  0.032800  0.571600  0.669500  1.0
  H  H340  1  0.467200  0.428400  0.169500  1.0
  H  H341  1  0.967200  0.428400  0.330500  1.0
  H  H342  1  0.532800  0.571600  0.830500  1.0
  H  H343  1  0.082700  0.658700  0.795000  1.0
  H  H344  1  0.417300  0.341300  0.295000  1.0
  H  H345  1  0.917300  0.341300  0.205000  1.0
  H  H346  1  0.582700  0.658700  0.705000  1.0
  H  H347  1  0.130600  0.643700  0.795200  1.0
  H  H348  1  0.369400  0.356300  0.295200  1.0
  H  H349  1  0.869400  0.356300  0.204800  1.0
  H  H350  1  0.630600  0.643700  0.704800  1.0
  H  H351  1  0.068800  0.560100  0.815700  1.0
  H  H352  1  0.431200  0.439900  0.315700  1.0
  H  H353  1  0.931200  0.439900  0.184300  1.0
  H  H354  1  0.568800  0.560100  0.684300  1.0
  H  H355  1  0.027000  0.577000  0.816500  1.0
  H  H356  1  0.473000  0.423000  0.316500  1.0
  H  H357  1  0.973000  0.423000  0.183500  1.0
  H  H358  1  0.527000  0.577000  0.683500  1.0
  H  H359  1  0.179400  0.510000  0.806700  1.0
  H  H360  1  0.320600  0.490000  0.306700  1.0
  H  H361  1  0.820600  0.490000  0.193300  1.0
  H  H362  1  0.679400  0.510000  0.693300  1.0
  H  H363  1  0.162900  0.456000  0.813000  1.0
  H  H364  1  0.337100  0.544000  0.313000  1.0
  H  H365  1  0.837100  0.544000  0.187000  1.0
  H  H366  1  0.662900  0.456000  0.687000  1.0
  H  H367  1  0.073200  0.447300  0.822400  1.0
  H  H368  1  0.426800  0.552700  0.322400  1.0
  H  H369  1  0.926800  0.552700  0.177600  1.0
  H  H370  1  0.573200  0.447300  0.677600  1.0
  H  H371  1  0.085100  0.499200  0.816200  1.0
  H  H372  1  0.414900  0.500800  0.316200  1.0
  H  H373  1  0.914900  0.500800  0.183800  1.0
  H  H374  1  0.585100  0.499200  0.683800  1.0
  H  H375  1  0.227900  0.571600  0.791300  1.0
  H  H376  1  0.272100  0.428400  0.291300  1.0
  H  H377  1  0.772100  0.428400  0.208700  1.0
  H  H378  1  0.727900  0.571600  0.708700  1.0
  H  H379  1  0.280700  0.600300  0.779600  1.0
  H  H380  1  0.219300  0.399700  0.279600  1.0
  H  H381  1  0.719300  0.399700  0.220400  1.0
  H  H382  1  0.780700  0.600300  0.720400  1.0
  H  H383  1  0.261900  0.676000  0.773500  1.0
  H  H384  1  0.238100  0.324000  0.273500  1.0
  H  H385  1  0.738100  0.324000  0.226500  1.0
  H  H386  1  0.761900  0.676000  0.726500  1.0
  H  H387  1  0.209500  0.650700  0.785600  1.0
  H  H388  1  0.290500  0.349300  0.285600  1.0
  H  H389  1  0.790500  0.349300  0.214400  1.0
  H  H390  1  0.709500  0.650700  0.714400  1.0
  H  H391  1  0.433700  0.842000  0.174900  1.0
  H  H392  1  0.066300  0.158000  0.674900  1.0
  H  H393  1  0.566300  0.158000  0.825100  1.0
  H  H394  1  0.933700  0.842000  0.325100  1.0
  H  H395  1  0.481600  0.839800  0.186200  1.0
  H  H396  1  0.018400  0.160200  0.686200  1.0
  H  H397  1  0.518400  0.160200  0.813800  1.0
  H  H398  1  0.981600  0.839800  0.313800  1.0
  H  H399  1  0.440900  0.828400  0.235000  1.0
  H  H400  1  0.059100  0.171600  0.735000  1.0
  H  H401  1  0.559100  0.171600  0.765000  1.0
  H  H402  1  0.940900  0.828400  0.265000  1.0
  H  H403  1  0.395100  0.826700  0.223300  1.0
  H  H404  1  0.104900  0.173300  0.723300  1.0
  H  H405  1  0.604900  0.173300  0.776700  1.0
  H  H406  1  0.895100  0.826700  0.276700  1.0
  H  H407  1  0.496000  0.845200  0.271100  1.0
  H  H408  1  0.004000  0.154800  0.771100  1.0
  H  H409  1  0.504000  0.154800  0.728900  1.0
  H  H410  1  0.996000  0.845200  0.228900  1.0
  H  H411  1  0.507400  0.844400  0.300200  1.0
  H  H412  1  0.992600  0.155600  0.800200  1.0
  H  H413  1  0.492600  0.155600  0.699800  1.0
  H  H414  1  0.007400  0.844400  0.199800  1.0
  H  H415  1  0.585100  0.827500  0.291500  1.0
  H  H416  1  0.914900  0.172500  0.791500  1.0
  H  H417  1  0.414900  0.172500  0.708500  1.0
  H  H418  1  0.085100  0.827500  0.208500  1.0
  H  H419  1  0.577200  0.826600  0.260200  1.0
  H  H420  1  0.922800  0.173400  0.760200  1.0
  H  H421  1  0.422800  0.173400  0.739800  1.0
  H  H422  1  0.077200  0.826600  0.239800  1.0
  H  H423  1  0.608900  0.840600  0.224200  1.0
  H  H424  1  0.891100  0.159400  0.724200  1.0
  H  H425  1  0.391100  0.159400  0.775800  1.0
  H  H426  1  0.108900  0.840600  0.275800  1.0
  H  H427  1  0.650700  0.842200  0.206900  1.0
  H  H428  1  0.849300  0.157800  0.706900  1.0
  H  H429  1  0.349300  0.157800  0.793100  1.0
  H  H430  1  0.150700  0.842200  0.293100  1.0
  H  H431  1  0.599700  0.838200  0.163300  1.0
  H  H432  1  0.900300  0.161800  0.663300  1.0
  H  H433  1  0.400300  0.161800  0.836700  1.0
  H  H434  1  0.099700  0.838200  0.336700  1.0
  H  H435  1  0.554600  0.832100  0.180300  1.0
  H  H436  1  0.945400  0.167900  0.680300  1.0
  H  H437  1  0.445400  0.167900  0.819700  1.0
  H  H438  1  0.054600  0.832100  0.319700  1.0
  H  H439  1  0.658600  0.898300  0.152200  1.0
  H  H440  1  0.841400  0.101700  0.652200  1.0
  H  H441  1  0.341400  0.101700  0.847800  1.0
  H  H442  1  0.158600  0.898300  0.347800  1.0
  H  H443  1  0.660100  0.947300  0.158000  1.0
  H  H444  1  0.839900  0.052700  0.658000  1.0
  H  H445  1  0.339900  0.052700  0.842000  1.0
  H  H446  1  0.160100  0.947300  0.342000  1.0
  H  H447  1  0.695200  0.943000  0.206600  1.0
  H  H448  1  0.804800  0.057000  0.706600  1.0
  H  H449  1  0.304800  0.057000  0.793400  1.0
  H  H450  1  0.195200  0.943000  0.293400  1.0
  H  H451  1  0.696800  0.894200  0.198900  1.0
  H  H452  1  0.803200  0.105800  0.698900  1.0
  H  H453  1  0.303200  0.105800  0.801100  1.0
  H  H454  1  0.196800  0.894200  0.301100  1.0
  H  H455  1  0.721500  0.089300  0.212900  1.0
  H  H456  1  0.778500  0.910700  0.712900  1.0
  H  H457  1  0.278500  0.910700  0.787100  1.0
  H  H458  1  0.221500  0.089300  0.287100  1.0
  H  H459  1  0.756600  0.116500  0.236400  1.0
  H  H460  1  0.743400  0.883500  0.736400  1.0
  H  H461  1  0.243400  0.883500  0.763600  1.0
  H  H462  1  0.256600  0.116500  0.263600  1.0
  H  H463  1  0.776800  0.042400  0.246700  1.0
  H  H464  1  0.723200  0.957600  0.746700  1.0
  H  H465  1  0.223200  0.957600  0.753300  1.0
  H  H466  1  0.276800  0.042400  0.253300  1.0
  H  H467  1  0.744700  0.014300  0.223300  1.0
  H  H468  1  0.755300  0.985700  0.723300  1.0
  H  H469  1  0.255300  0.985700  0.776700  1.0
  H  H470  1  0.244700  0.014300  0.276700  1.0
  H  H471  1  0.633700  0.007700  0.151100  1.0
  H  H472  1  0.866300  0.992300  0.651100  1.0
  H  H473  1  0.366300  0.992300  0.848900  1.0
  H  H474  1  0.133700  0.007700  0.348900  1.0
  H  H475  1  0.613700  0.035700  0.132600  1.0
  H  H476  1  0.886300  0.964300  0.632600  1.0
  H  H477  1  0.386300  0.964300  0.867400  1.0
  H  H478  1  0.113700  0.035700  0.367400  1.0
  H  H479  1  0.646700  0.110300  0.162800  1.0
  H  H480  1  0.853300  0.889700  0.662800  1.0
  H  H481  1  0.353300  0.889700  0.837200  1.0
  H  H482  1  0.146700  0.110300  0.337200  1.0
  H  H483  1  0.670700  0.084500  0.182100  1.0
  H  H484  1  0.829300  0.915500  0.682100  1.0
  H  H485  1  0.329300  0.915500  0.817900  1.0
  H  H486  1  0.170700  0.084500  0.317900  1.0
  H  H487  1  0.420800  0.890100  0.169200  1.0
  H  H488  1  0.079200  0.109900  0.669200  1.0
  H  H489  1  0.579200  0.109900  0.830800  1.0
  H  H490  1  0.920800  0.890100  0.330800  1.0
  H  H491  1  0.455800  0.941500  0.172400  1.0
  H  H492  1  0.044200  0.058500  0.672400  1.0
  H  H493  1  0.544200  0.058500  0.827600  1.0
  H  H494  1  0.955800  0.941500  0.327600  1.0
  H  H495  1  0.412000  0.941500  0.219500  1.0
  H  H496  1  0.088000  0.058500  0.719500  1.0
  H  H497  1  0.588000  0.058500  0.780500  1.0
  H  H498  1  0.912000  0.941500  0.280500  1.0
  H  H499  1  0.376200  0.890700  0.214000  1.0
  H  H500  1  0.123800  0.109300  0.714000  1.0
  H  H501  1  0.623800  0.109300  0.786000  1.0
  H  H502  1  0.876200  0.890700  0.286000  1.0
  H  H503  1  0.537100  0.071400  0.230800  1.0
  H  H504  1  0.962900  0.928600  0.730800  1.0
  H  H505  1  0.462900  0.928600  0.769200  1.0
  H  H506  1  0.037100  0.071400  0.269200  1.0
  H  H507  1  0.541800  0.096500  0.258200  1.0
  H  H508  1  0.958200  0.903500  0.758200  1.0
  H  H509  1  0.458200  0.903500  0.741800  1.0
  H  H510  1  0.041800  0.096500  0.241800  1.0
  H  H511  1  0.454500  0.037100  0.272300  1.0
  H  H512  1  0.045500  0.962900  0.772300  1.0
  H  H513  1  0.545500  0.962900  0.727700  1.0
  H  H514  1  0.954500  0.037100  0.227700  1.0
  H  H515  1  0.448900  0.008700  0.246500  1.0
  H  H516  1  0.051100  0.991300  0.746500  1.0
  H  H517  1  0.551100  0.991300  0.753500  1.0
  H  H518  1  0.948900  0.008700  0.253500  1.0
  H  H519  1  0.510800  0.004300  0.156900  1.0
  H  H520  1  0.989200  0.995700  0.656900  1.0
  H  H521  1  0.489200  0.995700  0.843100  1.0
  H  H522  1  0.010800  0.004300  0.343100  1.0
  H  H523  1  0.547800  0.032200  0.134900  1.0
  H  H524  1  0.952200  0.967800  0.634900  1.0
  H  H525  1  0.452200  0.967800  0.865100  1.0
  H  H526  1  0.047800  0.032200  0.365100  1.0
  H  H527  1  0.581000  0.108600  0.164300  1.0
  H  H528  1  0.919000  0.891400  0.664300  1.0
  H  H529  1  0.419000  0.891400  0.835700  1.0
  H  H530  1  0.081000  0.108600  0.335700  1.0
  H  H531  1  0.546000  0.083600  0.186900  1.0
  H  H532  1  0.954000  0.916400  0.686900  1.0
  H  H533  1  0.454000  0.916400  0.813100  1.0
  H  H534  1  0.046000  0.083600  0.313100  1.0
  H  H535  1  0.573100  0.104600  0.288800  1.0
  H  H536  1  0.926900  0.895400  0.788800  1.0
  H  H537  1  0.426900  0.895400  0.711200  1.0
  H  H538  1  0.073100  0.104600  0.211200  1.0
  H  H539  1  0.610000  0.080500  0.291000  1.0
  H  H540  1  0.890000  0.919500  0.791000  1.0
  H  H541  1  0.390000  0.919500  0.709000  1.0
  H  H542  1  0.110000  0.080500  0.209000  1.0
  H  H543  1  0.535300  0.998600  0.305800  1.0
  H  H544  1  0.964700  0.001400  0.805800  1.0
  H  H545  1  0.464700  0.001400  0.694200  1.0
  H  H546  1  0.035300  0.998600  0.194200  1.0
  H  H547  1  0.500300  0.025700  0.303500  1.0
  H  H548  1  0.999700  0.974300  0.803500  1.0
  H  H549  1  0.499700  0.974300  0.696500  1.0
  H  H550  1  0.000300  0.025700  0.196500  1.0
  H  H551  1  0.643000  0.939800  0.306700  1.0
  H  H552  1  0.857000  0.060200  0.806700  1.0
  H  H553  1  0.357000  0.060200  0.693300  1.0
  H  H554  1  0.143000  0.939800  0.193300  1.0
  H  H555  1  0.621900  0.886000  0.316100  1.0
  H  H556  1  0.878100  0.114000  0.816100  1.0
  H  H557  1  0.378100  0.114000  0.683900  1.0
  H  H558  1  0.121900  0.886000  0.183900  1.0
  H  H559  1  0.534000  0.887800  0.322200  1.0
  H  H560  1  0.966000  0.112200  0.822200  1.0
  H  H561  1  0.466000  0.112200  0.677800  1.0
  H  H562  1  0.034000  0.887800  0.177800  1.0
  H  H563  1  0.551200  0.940300  0.315200  1.0
  H  H564  1  0.948800  0.059700  0.815200  1.0
  H  H565  1  0.448800  0.059700  0.684800  1.0
  H  H566  1  0.051200  0.940300  0.184800  1.0
  H  H567  1  0.678500  0.083100  0.285500  1.0
  H  H568  1  0.821500  0.916900  0.785500  1.0
  H  H569  1  0.321500  0.916900  0.714500  1.0
  H  H570  1  0.178500  0.083100  0.214500  1.0
  H  H571  1  0.735900  0.113300  0.277000  1.0
  H  H572  1  0.764100  0.886700  0.777000  1.0
  H  H573  1  0.264100  0.886700  0.723000  1.0
  H  H574  1  0.235900  0.113300  0.223000  1.0
  H  H575  1  0.753400  0.035700  0.278300  1.0
  H  H576  1  0.746600  0.964300  0.778300  1.0
  H  H577  1  0.246600  0.964300  0.721700  1.0
  H  H578  1  0.253400  0.035700  0.221700  1.0
  H  H579  1  0.699500  0.005100  0.288300  1.0
  H  H580  1  0.800500  0.994900  0.788300  1.0
  H  H581  1  0.300500  0.994900  0.711700  1.0
  H  H582  1  0.199500  0.005100  0.211700  1.0
  H  H583  1  0.141400  0.176400  0.083400  1.0
  H  H584  1  0.358600  0.823600  0.583400  1.0
  H  H585  1  0.858600  0.823600  0.916600  1.0
  H  H586  1  0.641400  0.176400  0.416600  1.0
  H  H587  1  0.171300  0.146300  0.083300  1.0
  H  H588  1  0.328700  0.853700  0.583300  1.0
  H  H589  1  0.828700  0.853700  0.916700  1.0
  H  H590  1  0.671300  0.146300  0.416700  1.0
  H  H591  1  0.089900  0.072400  0.067200  1.0
  H  H592  1  0.410100  0.927600  0.567200  1.0
  H  H593  1  0.910100  0.927600  0.932800  1.0
  H  H594  1  0.589900  0.072400  0.432800  1.0
  H  H595  1  0.063200  0.106000  0.067000  1.0
  H  H596  1  0.436800  0.894000  0.567000  1.0
  H  H597  1  0.936800  0.894000  0.933000  1.0
  H  H598  1  0.563200  0.106000  0.433000  1.0
  H  H599  1  0.187400  0.000200  0.065200  1.0
  H  H600  1  0.312600  0.999800  0.565200  1.0
  H  H601  1  0.812600  0.999800  0.934800  1.0
  H  H602  1  0.687400  0.000200  0.434800  1.0
  H  H603  1  0.165800  0.947800  0.054000  1.0
  H  H604  1  0.334200  0.052200  0.554000  1.0
  H  H605  1  0.834200  0.052200  0.946000  1.0
  H  H606  1  0.665800  0.947800  0.446000  1.0
  H  H607  1  0.078100  0.949700  0.050100  1.0
  H  H608  1  0.421900  0.050300  0.550100  1.0
  H  H609  1  0.921900  0.050300  0.949900  1.0
  H  H610  1  0.578100  0.949700  0.449900  1.0
  H  H611  1  0.096400  0.003300  0.058800  1.0
  H  H612  1  0.403600  0.996700  0.558800  1.0
  H  H613  1  0.903600  0.996700  0.941200  1.0
  H  H614  1  0.596400  0.003300  0.441200  1.0
  H  H615  1  0.240500  0.139100  0.087900  1.0
  H  H616  1  0.259500  0.860900  0.587900  1.0
  H  H617  1  0.759500  0.860900  0.912100  1.0
  H  H618  1  0.740500  0.139100  0.412100  1.0
  H  H619  1  0.295400  0.159700  0.096000  1.0
  H  H620  1  0.204600  0.840300  0.596000  1.0
  H  H621  1  0.704600  0.840300  0.904000  1.0
  H  H622  1  0.795400  0.159700  0.404000  1.0
  H  H623  1  0.298500  0.075000  0.090300  1.0
  H  H624  1  0.201500  0.925000  0.590300  1.0
  H  H625  1  0.701500  0.925000  0.909700  1.0
  H  H626  1  0.798500  0.075000  0.409700  1.0
  H  H627  1  0.243300  0.053600  0.082700  1.0
  H  H628  1  0.256700  0.946400  0.582700  1.0
  H  H629  1  0.756700  0.946400  0.917300  1.0
  H  H630  1  0.743300  0.053600  0.417300  1.0
  H  H631  1  0.061100  0.140100  0.037800  1.0
  H  H632  1  0.438900  0.859900  0.537800  1.0
  H  H633  1  0.938900  0.859900  0.962200  1.0
  H  H634  1  0.561100  0.140100  0.462200  1.0
  H  H635  1  0.088300  0.145300  0.009400  1.0
  H  H636  1  0.411700  0.854700  0.509400  1.0
  H  H637  1  0.911700  0.854700  0.990600  1.0
  H  H638  1  0.588300  0.145300  0.490600  1.0
  H  H639  1  0.157300  0.228300  0.026900  1.0
  H  H640  1  0.342700  0.771700  0.526900  1.0
  H  H641  1  0.842700  0.771700  0.973100  1.0
  H  H642  1  0.657300  0.228300  0.473100  1.0
  H  H643  1  0.127800  0.220200  0.054300  1.0
  H  H644  1  0.372200  0.779800  0.554300  1.0
  H  H645  1  0.872200  0.779800  0.945700  1.0
  H  H646  1  0.627800  0.220200  0.445700  1.0
  H  H647  1  0.227700  0.233600  0.954000  1.0
  H  H648  1  0.272300  0.766400  0.454000  1.0
  H  H649  1  0.772300  0.766400  0.046000  1.0
  H  H650  1  0.727700  0.233600  0.546000  1.0
  H  H651  1  0.278100  0.273900  0.950400  1.0
  H  H652  1  0.221900  0.726100  0.450400  1.0
  H  H653  1  0.721900  0.726100  0.049600  1.0
  H  H654  1  0.778100  0.273900  0.549600  1.0
  H  H655  1  0.274500  0.305100  0.999100  1.0
  H  H656  1  0.225500  0.694900  0.499100  1.0
  H  H657  1  0.725500  0.694900  0.000900  1.0
  H  H658  1  0.774500  0.305100  0.500900  1.0
  H  H659  1  0.226400  0.260400  0.004100  1.0
  H  H660  1  0.273600  0.739600  0.504100  1.0
  H  H661  1  0.773600  0.739600  0.995900  1.0
  H  H662  1  0.726400  0.260400  0.495900  1.0
  H  H663  1  0.086700  0.131900  0.967600  1.0
  H  H664  1  0.413300  0.868100  0.467600  1.0
  H  H665  1  0.913300  0.868100  0.032400  1.0
  H  H666  1  0.586700  0.131900  0.532400  1.0
  H  H667  1  0.060900  0.099100  0.943800  1.0
  H  H668  1  0.439100  0.900900  0.443800  1.0
  H  H669  1  0.939100  0.900900  0.056200  1.0
  H  H670  1  0.560900  0.099100  0.556200  1.0
  H  H671  1  0.143300  0.138400  0.915300  1.0
  H  H672  1  0.356700  0.861600  0.415300  1.0
  H  H673  1  0.856700  0.861600  0.084700  1.0
  H  H674  1  0.643300  0.138400  0.584700  1.0
  H  H675  1  0.168000  0.167700  0.938500  1.0
  H  H676  1  0.332000  0.832300  0.438500  1.0
  H  H677  1  0.832000  0.832300  0.061500  1.0
  H  H678  1  0.668000  0.167700  0.561500  1.0
  H  H679  1  0.341600  0.186700  0.074000  1.0
  H  H680  1  0.158400  0.813300  0.574000  1.0
  H  H681  1  0.658400  0.813300  0.926000  1.0
  H  H682  1  0.841600  0.186700  0.426000  1.0
  H  H683  1  0.338700  0.196800  0.044100  1.0
  H  H684  1  0.161300  0.803200  0.544100  1.0
  H  H685  1  0.661300  0.803200  0.955900  1.0
  H  H686  1  0.838700  0.196800  0.455900  1.0
  H  H687  1  0.353700  0.117800  0.032500  1.0
  H  H688  1  0.146300  0.882200  0.532500  1.0
  H  H689  1  0.646300  0.882200  0.967500  1.0
  H  H690  1  0.853700  0.117800  0.467500  1.0
  H  H691  1  0.354300  0.108400  0.062200  1.0
  H  H692  1  0.145700  0.891600  0.562200  1.0
  H  H693  1  0.645700  0.891600  0.937800  1.0
  H  H694  1  0.854300  0.108400  0.437800  1.0
  H  H695  1  0.346300  0.249900  0.013900  1.0
  H  H696  1  0.153700  0.750100  0.513900  1.0
  H  H697  1  0.653700  0.750100  0.986100  1.0
  H  H698  1  0.846300  0.249900  0.486100  1.0
  H  H699  1  0.340500  0.294500  0.004700  1.0
  H  H700  1  0.159500  0.705500  0.504700  1.0
  H  H701  1  0.659500  0.705500  0.995300  1.0
  H  H702  1  0.840500  0.294500  0.495300  1.0
  H  H703  1  0.332200  0.267200  0.954900  1.0
  H  H704  1  0.167800  0.732800  0.454900  1.0
  H  H705  1  0.667800  0.732800  0.045100  1.0
  H  H706  1  0.832200  0.267200  0.545100  1.0
  H  H707  1  0.338700  0.221400  0.962500  1.0
  H  H708  1  0.161300  0.778600  0.462500  1.0
  H  H709  1  0.661300  0.778600  0.037500  1.0
  H  H710  1  0.838700  0.221400  0.537500  1.0
  H  H711  1  0.352800  0.157100  0.952100  1.0
  H  H712  1  0.147200  0.842900  0.452100  1.0
  H  H713  1  0.647200  0.842900  0.047900  1.0
  H  H714  1  0.852800  0.157100  0.547900  1.0
  H  H715  1  0.354300  0.119800  0.932300  1.0
  H  H716  1  0.145700  0.880200  0.432300  1.0
  H  H717  1  0.645700  0.880200  0.067700  1.0
  H  H718  1  0.854300  0.119800  0.567700  1.0
  H  H719  1  0.348900  0.059400  0.971000  1.0
  H  H720  1  0.151100  0.940600  0.471000  1.0
  H  H721  1  0.651100  0.940600  0.029000  1.0
  H  H722  1  0.848900  0.059400  0.529000  1.0
  H  H723  1  0.346900  0.094700  0.991400  1.0
  H  H724  1  0.153100  0.905300  0.491400  1.0
  H  H725  1  0.653100  0.905300  0.008600  1.0
  H  H726  1  0.846900  0.094700  0.508600  1.0
  H  H727  1  0.287600  0.065400  0.920300  1.0
  H  H728  1  0.212400  0.934600  0.420300  1.0
  H  H729  1  0.712400  0.934600  0.079700  1.0
  H  H730  1  0.787600  0.065400  0.579700  1.0
  H  H731  1  0.232500  0.051000  0.928900  1.0
  H  H732  1  0.267500  0.949000  0.428900  1.0
  H  H733  1  0.767500  0.949000  0.071100  1.0
  H  H734  1  0.732500  0.051000  0.571100  1.0
  H  H735  1  0.243200  0.990600  0.964300  1.0
  H  H736  1  0.256800  0.009400  0.464300  1.0
  H  H737  1  0.756800  0.009400  0.035700  1.0
  H  H738  1  0.743200  0.990600  0.535700  1.0
  H  H739  1  0.298600  0.006400  0.955600  1.0
  H  H740  1  0.201400  0.993600  0.455600  1.0
  H  H741  1  0.701400  0.993600  0.044400  1.0
  H  H742  1  0.798600  0.006400  0.544400  1.0
  H  H743  1  0.094200  0.957600  0.985000  1.0
  H  H744  1  0.405800  0.042400  0.485000  1.0
  H  H745  1  0.905800  0.042400  0.015000  1.0
  H  H746  1  0.594200  0.957600  0.515000  1.0
  H  H747  1  0.078700  0.922400  0.010300  1.0
  H  H748  1  0.421300  0.077600  0.510300  1.0
  H  H749  1  0.921300  0.077600  0.989700  1.0
  H  H750  1  0.578700  0.922400  0.489700  1.0
  H  H751  1  0.169800  0.938800  0.021800  1.0
  H  H752  1  0.330200  0.061200  0.521800  1.0
  H  H753  1  0.830200  0.061200  0.978200  1.0
  H  H754  1  0.669800  0.938800  0.478200  1.0
  H  H755  1  0.189700  0.972800  0.997500  1.0
  H  H756  1  0.310300  0.027200  0.497500  1.0
  H  H757  1  0.810300  0.027200  0.002500  1.0
  H  H758  1  0.689700  0.972800  0.502500  1.0
  H  H759  1  0.093000  0.020800  0.957800  1.0
  H  H760  1  0.407000  0.979200  0.457800  1.0
  H  H761  1  0.907000  0.979200  0.042200  1.0
  H  H762  1  0.593000  0.020800  0.542200  1.0
  H  H763  1  0.063300  0.043200  0.941800  1.0
  H  H764  1  0.436700  0.956800  0.441800  1.0
  H  H765  1  0.936700  0.956800  0.058200  1.0
  H  H766  1  0.563300  0.043200  0.558200  1.0
  H  H767  1  0.126400  0.058400  0.902200  1.0
  H  H768  1  0.373600  0.941600  0.402200  1.0
  H  H769  1  0.873600  0.941600  0.097800  1.0
  H  H770  1  0.626400  0.058400  0.597800  1.0
  H  H771  1  0.155500  0.036700  0.917000  1.0
  H  H772  1  0.344500  0.963300  0.417000  1.0
  H  H773  1  0.844500  0.963300  0.083000  1.0
  H  H774  1  0.655500  0.036700  0.583000  1.0
  H  H775  1  0.871600  0.487100  0.048400  1.0
  H  H776  1  0.628400  0.512900  0.548400  1.0
  H  H777  1  0.128400  0.512900  0.951600  1.0
  H  H778  1  0.371600  0.487100  0.451600  1.0
  H  H779  1  0.847800  0.434100  0.056400  1.0
  H  H780  1  0.652200  0.565900  0.556400  1.0
  H  H781  1  0.152200  0.565900  0.943600  1.0
  H  H782  1  0.347800  0.434100  0.443600  1.0
  H  H783  1  0.762200  0.444900  0.064400  1.0
  H  H784  1  0.737800  0.555100  0.564400  1.0
  H  H785  1  0.237800  0.555100  0.935600  1.0
  H  H786  1  0.262200  0.444900  0.435600  1.0
  H  H787  1  0.788300  0.496200  0.055900  1.0
  H  H788  1  0.711700  0.503800  0.555900  1.0
  H  H789  1  0.211700  0.503800  0.944100  1.0
  H  H790  1  0.288300  0.496200  0.444100  1.0
  H  H791  1  0.778300  0.296700  0.083600  1.0
  H  H792  1  0.721700  0.703300  0.583600  1.0
  H  H793  1  0.221700  0.703300  0.916400  1.0
  H  H794  1  0.278300  0.296700  0.416400  1.0
  H  H795  1  0.807200  0.264300  0.081700  1.0
  H  H796  1  0.692800  0.735700  0.581700  1.0
  H  H797  1  0.192800  0.735700  0.918300  1.0
  H  H798  1  0.307200  0.264300  0.418300  1.0
  H  H799  1  0.880500  0.332100  0.056900  1.0
  H  H800  1  0.619500  0.667900  0.556900  1.0
  H  H801  1  0.119500  0.667900  0.943100  1.0
  H  H802  1  0.380500  0.332100  0.443100  1.0
  H  H803  1  0.851000  0.365400  0.059200  1.0
  H  H804  1  0.649000  0.634600  0.559200  1.0
  H  H805  1  0.149000  0.634600  0.940800  1.0
  H  H806  1  0.351000  0.365400  0.440800  1.0
  H  H807  1  0.708700  0.297900  0.084900  1.0
  H  H808  1  0.791300  0.702100  0.584900  1.0
  H  H809  1  0.291300  0.702100  0.915100  1.0
  H  H810  1  0.208700  0.297900  0.415100  1.0
  H  H811  1  0.656700  0.275100  0.095900  1.0
  H  H812  1  0.843300  0.724900  0.595900  1.0
  H  H813  1  0.343300  0.724900  0.904100  1.0
  H  H814  1  0.156700  0.275100  0.404100  1.0
  H  H815  1  0.645600  0.356000  0.091600  1.0
  H  H816  1  0.854400  0.644000  0.591600  1.0
  H  H817  1  0.354400  0.644000  0.908400  1.0
  H  H818  1  0.145600  0.356000  0.408400  1.0
  H  H819  1  0.698400  0.382500  0.084000  1.0
  H  H820  1  0.801600  0.617500  0.584000  1.0
  H  H821  1  0.301600  0.617500  0.916000  1.0
  H  H822  1  0.198400  0.382500  0.416000  1.0
  H  H823  1  0.792700  0.534600  0.028900  1.0
  H  H824  1  0.707300  0.465400  0.528900  1.0
  H  H825  1  0.207300  0.465400  0.971100  1.0
  H  H826  1  0.292700  0.534600  0.471100  1.0
  H  H827  1  0.762300  0.506400  0.003800  1.0
  H  H828  1  0.737700  0.493600  0.503800  1.0
  H  H829  1  0.237700  0.493600  0.996200  1.0
  H  H830  1  0.262300  0.506400  0.496200  1.0
  H  H831  1  0.844500  0.490900  0.988900  1.0
  H  H832  1  0.655500  0.509100  0.488900  1.0
  H  H833  1  0.155500  0.509100  0.011100  1.0
  H  H834  1  0.344500  0.490900  0.511100  1.0
  H  H835  1  0.870900  0.521800  0.014300  1.0
  H  H836  1  0.629100  0.478200  0.514300  1.0
  H  H837  1  0.129100  0.478200  0.985700  1.0
  H  H838  1  0.370900  0.521800  0.485700  1.0
  H  H839  1  0.767000  0.409700  0.925800  1.0
  H  H840  1  0.733000  0.590300  0.425800  1.0
  H  H841  1  0.233000  0.590300  0.074200  1.0
  H  H842  1  0.267000  0.409700  0.574200  1.0
  H  H843  1  0.797700  0.393200  0.908500  1.0
  H  H844  1  0.702300  0.606800  0.408500  1.0
  H  H845  1  0.202300  0.606800  0.091500  1.0
  H  H846  1  0.297700  0.393200  0.591500  1.0
  H  H847  1  0.873800  0.432100  0.941000  1.0
  H  H848  1  0.626200  0.567900  0.441000  1.0
  H  H849  1  0.126200  0.567900  0.059000  1.0
  H  H850  1  0.373800  0.432100  0.559000  1.0
  H  H851  1  0.844700  0.449900  0.958900  1.0
  H  H852  1  0.655300  0.550100  0.458900  1.0
  H  H853  1  0.155300  0.550100  0.041100  1.0
  H  H854  1  0.344700  0.449900  0.541100  1.0
  H  H855  1  0.695100  0.471100  0.979200  1.0
  H  H856  1  0.804900  0.528900  0.479200  1.0
  H  H857  1  0.304900  0.528900  0.020800  1.0
  H  H858  1  0.195100  0.471100  0.520800  1.0
  H  H859  1  0.640700  0.461000  0.973100  1.0
  H  H860  1  0.859300  0.539000  0.473100  1.0
  H  H861  1  0.359300  0.539000  0.026900  1.0
  H  H862  1  0.140700  0.461000  0.526900  1.0
  H  H863  1  0.643600  0.410900  0.931300  1.0
  H  H864  1  0.856400  0.589100  0.431300  1.0
  H  H865  1  0.356400  0.589100  0.068700  1.0
  H  H866  1  0.143600  0.410900  0.568700  1.0
  H  H867  1  0.695500  0.418300  0.936700  1.0
  H  H868  1  0.804500  0.581700  0.436700  1.0
  H  H869  1  0.304500  0.581700  0.063300  1.0
  H  H870  1  0.195500  0.418300  0.563300  1.0
  H  H871  1  0.591800  0.398800  0.986800  1.0
  H  H872  1  0.908200  0.601200  0.486800  1.0
  H  H873  1  0.408200  0.601200  0.013200  1.0
  H  H874  1  0.091800  0.398800  0.513200  1.0
  H  H875  1  0.593800  0.357600  0.003200  1.0
  H  H876  1  0.906200  0.642400  0.503200  1.0
  H  H877  1  0.406200  0.642400  0.996800  1.0
  H  H878  1  0.093800  0.357600  0.496800  1.0
  H  H879  1  0.589400  0.309800  0.957500  1.0
  H  H880  1  0.910600  0.690200  0.457500  1.0
  H  H881  1  0.410600  0.690200  0.042500  1.0
  H  H882  1  0.089400  0.309800  0.542500  1.0
  H  H883  1  0.586600  0.352900  0.942400  1.0
  H  H884  1  0.913400  0.647100  0.442400  1.0
  H  H885  1  0.413400  0.647100  0.057600  1.0
  H  H886  1  0.086600  0.352900  0.557600  1.0
  H  H887  1  0.581000  0.319300  0.040200  1.0
  H  H888  1  0.919000  0.680700  0.540200  1.0
  H  H889  1  0.419000  0.680700  0.959800  1.0
  H  H890  1  0.081000  0.319300  0.459800  1.0
  H  H891  1  0.580600  0.321500  0.070800  1.0
  H  H892  1  0.919400  0.678500  0.570800  1.0
  H  H893  1  0.419400  0.678500  0.929200  1.0
  H  H894  1  0.080600  0.321500  0.429200  1.0
  H  H895  1  0.603600  0.245900  0.073700  1.0
  H  H896  1  0.896400  0.754100  0.573700  1.0
  H  H897  1  0.396400  0.754100  0.926300  1.0
  H  H898  1  0.103600  0.245900  0.426300  1.0
  H  H899  1  0.601500  0.240900  0.043400  1.0
  H  H900  1  0.898500  0.759100  0.543400  1.0
  H  H901  1  0.398500  0.759100  0.956600  1.0
  H  H902  1  0.101500  0.240900  0.456600  1.0
  H  H903  1  0.601100  0.243600  0.959700  1.0
  H  H904  1  0.898900  0.756400  0.459700  1.0
  H  H905  1  0.398900  0.756400  0.040300  1.0
  H  H906  1  0.101100  0.243600  0.540300  1.0
  H  H907  1  0.606100  0.200100  0.945900  1.0
  H  H908  1  0.893900  0.799900  0.445900  1.0
  H  H909  1  0.393900  0.799900  0.054100  1.0
  H  H910  1  0.106100  0.200100  0.554100  1.0
  H  H911  1  0.594000  0.155500  0.992300  1.0
  H  H912  1  0.906000  0.844500  0.492300  1.0
  H  H913  1  0.406000  0.844500  0.007700  1.0
  H  H914  1  0.094000  0.155500  0.507700  1.0
  H  H915  1  0.587400  0.197300  0.006000  1.0
  H  H916  1  0.912600  0.802700  0.506000  1.0
  H  H917  1  0.412600  0.802700  0.994000  1.0
  H  H918  1  0.087400  0.197300  0.494000  1.0
  H  H919  1  0.663900  0.153900  0.987900  1.0
  H  H920  1  0.836100  0.846100  0.487900  1.0
  H  H921  1  0.336100  0.846100  0.012100  1.0
  H  H922  1  0.163900  0.153900  0.512100  1.0
  H  H923  1  0.716700  0.194900  0.994000  1.0
  H  H924  1  0.783300  0.805100  0.494000  1.0
  H  H925  1  0.283300  0.805100  0.006000  1.0
  H  H926  1  0.216700  0.194900  0.506000  1.0
  H  H927  1  0.717700  0.235100  0.946600  1.0
  H  H928  1  0.782300  0.764900  0.446600  1.0
  H  H929  1  0.282300  0.764900  0.053400  1.0
  H  H930  1  0.217700  0.235100  0.553400  1.0
  H  H931  1  0.664100  0.196100  0.939800  1.0
  H  H932  1  0.835900  0.803900  0.439800  1.0
  H  H933  1  0.335900  0.803900  0.060200  1.0
  H  H934  1  0.164100  0.196100  0.560200  1.0
  H  H935  1  0.802700  0.228200  0.049000  1.0
  H  H936  1  0.697300  0.771800  0.549000  1.0
  H  H937  1  0.197300  0.771800  0.951000  1.0
  H  H938  1  0.302700  0.228200  0.451000  1.0
  H  H939  1  0.776500  0.227400  0.021500  1.0
  H  H940  1  0.723500  0.772600  0.521500  1.0
  H  H941  1  0.223500  0.772600  0.978500  1.0
  H  H942  1  0.276500  0.227400  0.478500  1.0
  H  H943  1  0.863100  0.295800  0.003900  1.0
  H  H944  1  0.636900  0.704200  0.503900  1.0
  H  H945  1  0.136900  0.704200  0.996100  1.0
  H  H946  1  0.363100  0.295800  0.496100  1.0
  H  H947  1  0.885900  0.291600  0.032300  1.0
  H  H948  1  0.614100  0.708400  0.532300  1.0
  H  H949  1  0.114100  0.708400  0.967700  1.0
  H  H950  1  0.385900  0.291600  0.467700  1.0
  H  H951  1  0.877700  0.376500  0.946000  1.0
  H  H952  1  0.622300  0.623500  0.446000  1.0
  H  H953  1  0.122300  0.623500  0.054000  1.0
  H  H954  1  0.377700  0.376500  0.554000  1.0
  H  H955  1  0.852100  0.337300  0.968400  1.0
  H  H956  1  0.647900  0.662700  0.468400  1.0
  H  H957  1  0.147900  0.662700  0.031600  1.0
  H  H958  1  0.352100  0.337300  0.531600  1.0
  H  H959  1  0.781600  0.290400  0.931300  1.0
  H  H960  1  0.718400  0.709600  0.431300  1.0
  H  H961  1  0.218400  0.709600  0.068700  1.0
  H  H962  1  0.281600  0.290400  0.568700  1.0
  H  H963  1  0.811300  0.331200  0.910700  1.0
  H  H964  1  0.688700  0.668800  0.410700  1.0
  H  H965  1  0.188700  0.668800  0.089300  1.0
  H  H966  1  0.311300  0.331200  0.589300  1.0
  H  H967  1  0.052400  0.644800  0.874100  1.0
  H  H968  1  0.447600  0.355200  0.374100  1.0
  H  H969  1  0.947600  0.355200  0.125900  1.0
  H  H970  1  0.552400  0.644800  0.625900  1.0
  H  H971  1  0.998900  0.630200  0.884800  1.0
  H  H972  1  0.501100  0.369800  0.384800  1.0
  H  H973  1  0.001100  0.369800  0.115200  1.0
  H  H974  1  0.498900  0.630200  0.615200  1.0
  H  H975  1  0.900900  0.632600  0.796700  1.0
  H  H976  1  0.599100  0.367400  0.296700  1.0
  H  H977  1  0.099100  0.367400  0.203300  1.0
  H  H978  1  0.400900  0.632600  0.703300  1.0
  H  H979  1  0.882900  0.617800  0.827700  1.0
  H  H980  1  0.617100  0.382200  0.327700  1.0
  H  H981  1  0.117100  0.382200  0.172300  1.0
  H  H982  1  0.382900  0.617800  0.672300  1.0
  H  H983  1  0.999900  0.719000  0.762800  1.0
  H  H984  1  0.500100  0.281000  0.262800  1.0
  H  H985  1  0.000100  0.281000  0.237200  1.0
  H  H986  1  0.499900  0.719000  0.737200  1.0
  H  H987  1  0.947900  0.634000  0.742100  1.0
  H  H988  1  0.552100  0.366000  0.242100  1.0
  H  H989  1  0.052100  0.366000  0.257900  1.0
  H  H990  1  0.447900  0.634000  0.757900  1.0
  H  H991  1  0.136200  0.714600  0.824000  1.0
  H  H992  1  0.363800  0.285400  0.324000  1.0
  H  H993  1  0.863800  0.285400  0.176000  1.0
  H  H994  1  0.636200  0.714600  0.676000  1.0
  H  H995  1  0.138200  0.634300  0.843100  1.0
  H  H996  1  0.361800  0.365700  0.343100  1.0
  H  H997  1  0.861800  0.365700  0.156900  1.0
  H  H998  1  0.638200  0.634300  0.656900  1.0
  H  H999  1  0.049700  0.695700  0.834900  1.0
  H  H1000  1  0.450300  0.304300  0.334900  1.0
  H  H1001  1  0.950300  0.304300  0.165100  1.0
  H  H1002  1  0.549700  0.695700  0.665100  1.0
  H  H1003  1  0.072100  0.711000  0.818100  1.0
  H  H1004  1  0.427900  0.289000  0.318100  1.0
  H  H1005  1  0.927900  0.289000  0.181900  1.0
  H  H1006  1  0.572100  0.711000  0.681900  1.0
  H  H1007  1  0.083000  0.726200  0.837200  1.0
  H  H1008  1  0.417000  0.273800  0.337200  1.0
  H  H1009  1  0.917000  0.273800  0.162800  1.0
  H  H1010  1  0.583000  0.726200  0.662800  1.0
  H  H1011  1  0.940000  0.619600  0.878700  1.0
  H  H1012  1  0.560000  0.380400  0.378700  1.0
  H  H1013  1  0.060000  0.380400  0.121300  1.0
  H  H1014  1  0.440000  0.619600  0.621300  1.0
  H  H1015  1  0.899500  0.610600  0.858400  1.0
  H  H1016  1  0.600500  0.389400  0.358400  1.0
  H  H1017  1  0.100500  0.389400  0.141600  1.0
  H  H1018  1  0.399500  0.610600  0.641600  1.0
  H  H1019  1  0.919900  0.590000  0.759900  1.0
  H  H1020  1  0.580100  0.410000  0.259900  1.0
  H  H1021  1  0.080100  0.410000  0.240100  1.0
  H  H1022  1  0.419900  0.590000  0.740100  1.0
  H  H1023  1  0.908500  0.598700  0.778500  1.0
  H  H1024  1  0.591500  0.401300  0.278500  1.0
  H  H1025  1  0.091500  0.401300  0.221500  1.0
  H  H1026  1  0.408500  0.598700  0.721500  1.0
  H  H1027  1  0.940400  0.590600  0.777400  1.0
  H  H1028  1  0.559600  0.409400  0.277400  1.0
  H  H1029  1  0.059600  0.409400  0.222600  1.0
  H  H1030  1  0.440400  0.590600  0.722600  1.0
  H  H1031  1  0.010900  0.724300  0.794300  1.0
  H  H1032  1  0.489100  0.275700  0.294300  1.0
  H  H1033  1  0.989100  0.275700  0.205700  1.0
  H  H1034  1  0.510900  0.724300  0.705700  1.0
  H  H1035  1  0.007000  0.692800  0.804700  1.0
  H  H1036  1  0.493000  0.307200  0.304700  1.0
  H  H1037  1  0.993000  0.307200  0.195300  1.0
  H  H1038  1  0.507000  0.692800  0.695300  1.0
  H  H1039  1  0.978000  0.705300  0.805100  1.0
  H  H1040  1  0.522000  0.294700  0.305100  1.0
  H  H1041  1  0.022000  0.294700  0.194900  1.0
  H  H1042  1  0.478000  0.705300  0.694900  1.0
  H  H1043  1  0.094500  0.594300  0.855100  1.0
  H  H1044  1  0.405500  0.405700  0.355100  1.0
  H  H1045  1  0.905500  0.405700  0.144900  1.0
  H  H1046  1  0.594500  0.594300  0.644900  1.0
  H  H1047  1  0.059400  0.590700  0.847800  1.0
  H  H1048  1  0.440600  0.409300  0.347800  1.0
  H  H1049  1  0.940600  0.409300  0.152200  1.0
  H  H1050  1  0.559400  0.590700  0.652200  1.0
  H  H1051  1  0.072200  0.607700  0.866300  1.0
  H  H1052  1  0.427800  0.392300  0.366300  1.0
  H  H1053  1  0.927800  0.392300  0.133700  1.0
  H  H1054  1  0.572200  0.607700  0.633700  1.0
  H  H1055  1  0.185400  0.707000  0.822800  1.0
  H  H1056  1  0.314600  0.293000  0.322800  1.0
  H  H1057  1  0.814600  0.293000  0.177200  1.0
  H  H1058  1  0.685400  0.707000  0.677200  1.0
  H  H1059  1  0.178700  0.670800  0.818900  1.0
  H  H1060  1  0.321300  0.329200  0.318900  1.0
  H  H1061  1  0.821300  0.329200  0.181100  1.0
  H  H1062  1  0.678700  0.670800  0.681100  1.0
  H  H1063  1  0.189900  0.685200  0.838200  1.0
  H  H1064  1  0.310100  0.314800  0.338200  1.0
  H  H1065  1  0.810100  0.314800  0.161800  1.0
  H  H1066  1  0.689900  0.685200  0.661800  1.0
  H  H1067  1  0.345900  0.713500  0.824900  1.0
  H  H1068  1  0.154100  0.286500  0.324900  1.0
  H  H1069  1  0.654100  0.286500  0.175100  1.0
  H  H1070  1  0.845900  0.713500  0.675100  1.0
  H  H1071  1  0.383900  0.760300  0.812300  1.0
  H  H1072  1  0.116100  0.239700  0.312300  1.0
  H  H1073  1  0.616100  0.239700  0.187700  1.0
  H  H1074  1  0.883900  0.760300  0.687700  1.0
  H  H1075  1  0.411300  0.694300  0.718200  1.0
  H  H1076  1  0.088700  0.305700  0.218200  1.0
  H  H1077  1  0.588700  0.305700  0.281800  1.0
  H  H1078  1  0.911300  0.694300  0.781800  1.0
  H  H1079  1  0.441400  0.744500  0.734000  1.0
  H  H1080  1  0.058600  0.255500  0.234000  1.0
  H  H1081  1  0.558600  0.255500  0.266000  1.0
  H  H1082  1  0.941400  0.744500  0.766000  1.0
  H  H1083  1  0.345100  0.572100  0.733200  1.0
  H  H1084  1  0.154900  0.427900  0.233200  1.0
  H  H1085  1  0.654900  0.427900  0.266800  1.0
  H  H1086  1  0.845100  0.572100  0.766800  1.0
  H  H1087  1  0.327500  0.615400  0.690900  1.0
  H  H1088  1  0.172500  0.384600  0.190900  1.0
  H  H1089  1  0.672500  0.384600  0.309100  1.0
  H  H1090  1  0.827500  0.615400  0.809100  1.0
  H  H1091  1  0.305300  0.585000  0.817900  1.0
  H  H1092  1  0.194700  0.415000  0.317900  1.0
  H  H1093  1  0.694700  0.415000  0.182100  1.0
  H  H1094  1  0.805300  0.585000  0.682100  1.0
  H  H1095  1  0.243200  0.624300  0.832300  1.0
  H  H1096  1  0.256800  0.375700  0.332300  1.0
  H  H1097  1  0.756800  0.375700  0.167700  1.0
  H  H1098  1  0.743200  0.624300  0.667700  1.0
  H  H1099  1  0.363500  0.651700  0.796600  1.0
  H  H1100  1  0.136500  0.348300  0.296600  1.0
  H  H1101  1  0.636500  0.348300  0.203400  1.0
  H  H1102  1  0.863500  0.651700  0.703400  1.0
  H  H1103  1  0.344700  0.614900  0.792400  1.0
  H  H1104  1  0.155300  0.385100  0.292400  1.0
  H  H1105  1  0.655300  0.385100  0.207600  1.0
  H  H1106  1  0.844700  0.614900  0.707600  1.0
  H  H1107  1  0.364400  0.625900  0.810500  1.0
  H  H1108  1  0.135600  0.374100  0.310500  1.0
  H  H1109  1  0.635600  0.374100  0.189500  1.0
  H  H1110  1  0.864400  0.625900  0.689500  1.0
  H  H1111  1  0.425300  0.783500  0.787600  1.0
  H  H1112  1  0.074700  0.216500  0.287600  1.0
  H  H1113  1  0.574700  0.216500  0.212400  1.0
  H  H1114  1  0.925300  0.783500  0.712400  1.0
  H  H1115  1  0.444200  0.777600  0.760400  1.0
  H  H1116  1  0.055800  0.222400  0.260400  1.0
  H  H1117  1  0.555800  0.222400  0.239600  1.0
  H  H1118  1  0.944200  0.777600  0.739600  1.0
  H  H1119  1  0.340200  0.670300  0.689200  1.0
  H  H1120  1  0.159800  0.329700  0.189200  1.0
  H  H1121  1  0.659800  0.329700  0.310800  1.0
  H  H1122  1  0.840200  0.670300  0.810800  1.0
  H  H1123  1  0.370500  0.690900  0.701300  1.0
  H  H1124  1  0.129500  0.309100  0.201300  1.0
  H  H1125  1  0.629500  0.309100  0.298700  1.0
  H  H1126  1  0.870500  0.690900  0.798700  1.0
  H  H1127  1  0.333900  0.682900  0.708000  1.0
  H  H1128  1  0.166100  0.317100  0.208000  1.0
  H  H1129  1  0.666100  0.317100  0.292000  1.0
  H  H1130  1  0.833900  0.682900  0.792000  1.0
  H  H1131  1  0.379600  0.642000  0.758600  1.0
  H  H1132  1  0.120400  0.358000  0.258600  1.0
  H  H1133  1  0.620400  0.358000  0.241400  1.0
  H  H1134  1  0.879600  0.642000  0.741400  1.0
  H  H1135  1  0.385700  0.610400  0.755400  1.0
  H  H1136  1  0.114300  0.389600  0.255400  1.0
  H  H1137  1  0.614300  0.389600  0.244600  1.0
  H  H1138  1  0.885700  0.610400  0.744600  1.0
  H  H1139  1  0.350900  0.608400  0.762400  1.0
  H  H1140  1  0.149100  0.391600  0.262400  1.0
  H  H1141  1  0.649100  0.391600  0.237600  1.0
  H  H1142  1  0.850900  0.608400  0.737600  1.0
  H  H1143  1  0.317900  0.539200  0.708700  1.0
  H  H1144  1  0.182100  0.460800  0.208700  1.0
  H  H1145  1  0.682100  0.460800  0.291300  1.0
  H  H1146  1  0.817900  0.539200  0.791300  1.0
  H  H1147  1  0.327400  0.556200  0.689900  1.0
  H  H1148  1  0.172600  0.443800  0.189900  1.0
  H  H1149  1  0.672600  0.443800  0.310100  1.0
  H  H1150  1  0.827400  0.556200  0.810100  1.0
  H  H1151  1  0.293600  0.552200  0.699100  1.0
  H  H1152  1  0.206400  0.447800  0.199100  1.0
  H  H1153  1  0.706400  0.447800  0.300900  1.0
  H  H1154  1  0.793600  0.552200  0.800900  1.0
  H  H1155  1  0.287000  0.701100  0.813900  1.0
  H  H1156  1  0.213000  0.298900  0.313900  1.0
  H  H1157  1  0.713000  0.298900  0.186100  1.0
  H  H1158  1  0.787000  0.701100  0.686100  1.0
  H  H1159  1  0.269200  0.688000  0.832300  1.0
  H  H1160  1  0.230800  0.312000  0.332300  1.0
  H  H1161  1  0.730800  0.312000  0.167700  1.0
  H  H1162  1  0.769200  0.688000  0.667700  1.0
  H  H1163  1  0.249900  0.676100  0.814100  1.0
  H  H1164  1  0.250100  0.323900  0.314100  1.0
  H  H1165  1  0.750100  0.323900  0.185900  1.0
  H  H1166  1  0.749900  0.676100  0.685900  1.0
  H  H1167  1  0.256200  0.552800  0.833500  1.0
  H  H1168  1  0.243800  0.447200  0.333500  1.0
  H  H1169  1  0.743800  0.447200  0.166500  1.0
  H  H1170  1  0.756200  0.552800  0.666500  1.0
  H  H1171  1  0.226000  0.562400  0.829300  1.0
  H  H1172  1  0.274000  0.437600  0.329300  1.0
  H  H1173  1  0.774000  0.437600  0.170700  1.0
  H  H1174  1  0.726000  0.562400  0.670700  1.0
  H  H1175  1  0.245200  0.572600  0.847600  1.0
  H  H1176  1  0.254800  0.427400  0.347600  1.0
  H  H1177  1  0.754800  0.427400  0.152400  1.0
  H  H1178  1  0.745200  0.572600  0.652400  1.0
  H  H1179  1  0.160800  0.436300  0.879400  1.0
  H  H1180  1  0.339200  0.563700  0.379400  1.0
  H  H1181  1  0.839200  0.563700  0.120600  1.0
  H  H1182  1  0.660800  0.436300  0.620600  1.0
  H  H1183  1  0.178200  0.394200  0.879700  1.0
  H  H1184  1  0.321800  0.605800  0.379700  1.0
  H  H1185  1  0.821800  0.605800  0.120300  1.0
  H  H1186  1  0.678200  0.394200  0.620300  1.0
  H  H1187  1  0.066800  0.284300  0.802900  1.0
  H  H1188  1  0.433200  0.715700  0.302900  1.0
  H  H1189  1  0.933200  0.715700  0.197100  1.0
  H  H1190  1  0.566800  0.284300  0.697100  1.0
  H  H1191  1  0.105800  0.276700  0.824200  1.0
  H  H1192  1  0.394200  0.723300  0.324200  1.0
  H  H1193  1  0.894200  0.723300  0.175800  1.0
  H  H1194  1  0.605800  0.276700  0.675800  1.0
  H  H1195  1  0.980800  0.341800  0.797500  1.0
  H  H1196  1  0.519200  0.658200  0.297500  1.0
  H  H1197  1  0.019200  0.658200  0.202500  1.0
  H  H1198  1  0.480800  0.341800  0.702500  1.0
  H  H1199  1  0.031000  0.325500  0.757400  1.0
  H  H1200  1  0.469000  0.674500  0.257400  1.0
  H  H1201  1  0.969000  0.674500  0.242600  1.0
  H  H1202  1  0.531000  0.325500  0.742600  1.0
  H  H1203  1  0.052900  0.461300  0.861500  1.0
  H  H1204  1  0.447100  0.538700  0.361500  1.0
  H  H1205  1  0.947100  0.538700  0.138500  1.0
  H  H1206  1  0.552900  0.461300  0.638500  1.0
  H  H1207  1  0.144700  0.524900  0.856100  1.0
  H  H1208  1  0.355300  0.475100  0.356100  1.0
  H  H1209  1  0.855300  0.475100  0.143900  1.0
  H  H1210  1  0.644700  0.524900  0.643900  1.0
  H  H1211  1  0.040700  0.405500  0.863600  1.0
  H  H1212  1  0.459300  0.594500  0.363600  1.0
  H  H1213  1  0.959300  0.594500  0.136400  1.0
  H  H1214  1  0.540700  0.405500  0.636400  1.0
  H  H1215  1  0.069200  0.397500  0.872600  1.0
  H  H1216  1  0.430800  0.602500  0.372600  1.0
  H  H1217  1  0.930800  0.602500  0.127400  1.0
  H  H1218  1  0.569200  0.397500  0.627400  1.0
  H  H1219  1  0.063700  0.394000  0.851600  1.0
  H  H1220  1  0.436300  0.606000  0.351600  1.0
  H  H1221  1  0.936300  0.606000  0.148400  1.0
  H  H1222  1  0.563700  0.394000  0.648400  1.0
  H  H1223  1  0.172000  0.340600  0.867300  1.0
  H  H1224  1  0.328000  0.659400  0.367300  1.0
  H  H1225  1  0.828000  0.659400  0.132700  1.0
  H  H1226  1  0.672000  0.340600  0.632700  1.0
  H  H1227  1  0.141700  0.298100  0.850500  1.0
  H  H1228  1  0.358300  0.701900  0.350500  1.0
  H  H1229  1  0.858300  0.701900  0.149500  1.0
  H  H1230  1  0.641700  0.298100  0.649500  1.0
  H  H1231  1  0.080000  0.318300  0.760000  1.0
  H  H1232  1  0.420000  0.681700  0.260000  1.0
  H  H1233  1  0.920000  0.681700  0.240000  1.0
  H  H1234  1  0.580000  0.318300  0.740000  1.0
  H  H1235  1  0.084000  0.302900  0.778400  1.0
  H  H1236  1  0.416000  0.697100  0.278400  1.0
  H  H1237  1  0.916000  0.697100  0.221600  1.0
  H  H1238  1  0.584000  0.302900  0.721600  1.0
  H  H1239  1  0.102900  0.340000  0.775200  1.0
  H  H1240  1  0.397100  0.660000  0.275200  1.0
  H  H1241  1  0.897100  0.660000  0.224800  1.0
  H  H1242  1  0.602900  0.340000  0.724800  1.0
  H  H1243  1  0.041100  0.343700  0.831100  1.0
  H  H1244  1  0.458900  0.656300  0.331100  1.0
  H  H1245  1  0.958900  0.656300  0.168900  1.0
  H  H1246  1  0.541100  0.343700  0.668900  1.0
  H  H1247  1  0.002100  0.331100  0.829900  1.0
  H  H1248  1  0.497900  0.668900  0.329900  1.0
  H  H1249  1  0.997900  0.668900  0.170100  1.0
  H  H1250  1  0.502100  0.331100  0.670100  1.0
  H  H1251  1  0.024000  0.367600  0.826400  1.0
  H  H1252  1  0.476000  0.632400  0.326400  1.0
  H  H1253  1  0.976000  0.632400  0.173600  1.0
  H  H1254  1  0.524000  0.367600  0.673600  1.0
  H  H1255  1  0.984400  0.330400  0.751000  1.0
  H  H1256  1  0.515600  0.669600  0.251000  1.0
  H  H1257  1  0.015600  0.669600  0.249000  1.0
  H  H1258  1  0.484400  0.330400  0.749000  1.0
  H  H1259  1  0.977400  0.356000  0.762700  1.0
  H  H1260  1  0.522600  0.644000  0.262700  1.0
  H  H1261  1  0.022600  0.644000  0.237300  1.0
  H  H1262  1  0.477400  0.356000  0.737300  1.0
  H  H1263  1  0.956700  0.319200  0.766000  1.0
  H  H1264  1  0.543300  0.680800  0.266000  1.0
  H  H1265  1  0.043300  0.680800  0.234000  1.0
  H  H1266  1  0.456700  0.319200  0.734000  1.0
  H  H1267  1  0.183700  0.469300  0.853600  1.0
  H  H1268  1  0.316300  0.530700  0.353600  1.0
  H  H1269  1  0.816300  0.530700  0.146400  1.0
  H  H1270  1  0.683700  0.469300  0.646400  1.0
  H  H1271  1  0.192700  0.502400  0.863500  1.0
  H  H1272  1  0.307300  0.497600  0.363500  1.0
  H  H1273  1  0.807300  0.497600  0.136500  1.0
  H  H1274  1  0.692700  0.502400  0.636500  1.0
  H  H1275  1  0.186900  0.500000  0.842500  1.0
  H  H1276  1  0.313100  0.500000  0.342500  1.0
  H  H1277  1  0.813100  0.500000  0.157500  1.0
  H  H1278  1  0.686900  0.500000  0.657500  1.0
  H  H1279  1  0.103800  0.544300  0.857500  1.0
  H  H1280  1  0.396200  0.455700  0.357500  1.0
  H  H1281  1  0.896200  0.455700  0.142500  1.0
  H  H1282  1  0.603800  0.544300  0.642500  1.0
  H  H1283  1  0.073700  0.524200  0.869900  1.0
  H  H1284  1  0.426300  0.475800  0.369900  1.0
  H  H1285  1  0.926300  0.475800  0.130100  1.0
  H  H1286  1  0.573700  0.524200  0.630100  1.0
  H  H1287  1  0.069700  0.521600  0.848900  1.0
  H  H1288  1  0.430300  0.478400  0.348900  1.0
  H  H1289  1  0.930300  0.478400  0.151100  1.0
  H  H1290  1  0.569700  0.521600  0.651100  1.0
  H  H1291  1  0.810200  0.443700  0.679100  1.0
  H  H1292  1  0.689800  0.556300  0.179100  1.0
  H  H1293  1  0.189800  0.556300  0.320900  1.0
  H  H1294  1  0.310200  0.443700  0.820900  1.0
  H  H1295  1  0.771000  0.403600  0.696200  1.0
  H  H1296  1  0.729000  0.596400  0.196200  1.0
  H  H1297  1  0.229000  0.596400  0.303800  1.0
  H  H1298  1  0.271000  0.403600  0.803800  1.0
  H  H1299  1  0.858400  0.281800  0.702100  1.0
  H  H1300  1  0.641600  0.718200  0.202100  1.0
  H  H1301  1  0.141600  0.718200  0.297900  1.0
  H  H1302  1  0.358400  0.281800  0.797900  1.0
  H  H1303  1  0.801800  0.276300  0.707600  1.0
  H  H1304  1  0.698200  0.723700  0.207600  1.0
  H  H1305  1  0.198200  0.723700  0.292400  1.0
  H  H1306  1  0.301800  0.276300  0.792400  1.0
  H  H1307  1  0.958800  0.338100  0.658400  1.0
  H  H1308  1  0.541200  0.661900  0.158400  1.0
  H  H1309  1  0.041200  0.661900  0.341600  1.0
  H  H1310  1  0.458800  0.338100  0.841600  1.0
  H  H1311  1  0.971400  0.322200  0.709400  1.0
  H  H1312  1  0.528600  0.677800  0.209400  1.0
  H  H1313  1  0.028600  0.677800  0.290600  1.0
  H  H1314  1  0.471400  0.322200  0.790600  1.0
  H  H1315  1  0.920900  0.477300  0.640600  1.0
  H  H1316  1  0.579100  0.522700  0.140600  1.0
  H  H1317  1  0.079100  0.522700  0.359400  1.0
  H  H1318  1  0.420900  0.477300  0.859400  1.0
  H  H1319  1  0.913900  0.534000  0.679200  1.0
  H  H1320  1  0.586100  0.466000  0.179200  1.0
  H  H1321  1  0.086100  0.466000  0.320800  1.0
  H  H1322  1  0.413900  0.534000  0.820800  1.0
  H  H1323  1  0.861200  0.405900  0.658000  1.0
  H  H1324  1  0.638800  0.594100  0.158000  1.0
  H  H1325  1  0.138800  0.594100  0.342000  1.0
  H  H1326  1  0.361200  0.405900  0.842000  1.0
  H  H1327  1  0.897000  0.417100  0.649600  1.0
  H  H1328  1  0.603000  0.582900  0.149600  1.0
  H  H1329  1  0.103000  0.582900  0.350400  1.0
  H  H1330  1  0.397000  0.417100  0.850400  1.0
  H  H1331  1  0.868700  0.423200  0.639200  1.0
  H  H1332  1  0.631300  0.576800  0.139200  1.0
  H  H1333  1  0.131300  0.576800  0.360800  1.0
  H  H1334  1  0.368700  0.423200  0.860800  1.0
  H  H1335  1  0.750900  0.346000  0.704700  1.0
  H  H1336  1  0.749100  0.654000  0.204700  1.0
  H  H1337  1  0.249100  0.654000  0.295300  1.0
  H  H1338  1  0.250900  0.346000  0.795300  1.0
  H  H1339  1  0.762800  0.302800  0.710000  1.0
  H  H1340  1  0.737200  0.697200  0.210000  1.0
  H  H1341  1  0.237200  0.697200  0.290000  1.0
  H  H1342  1  0.262800  0.302800  0.790000  1.0
  H  H1343  1  0.928500  0.315300  0.733300  1.0
  H  H1344  1  0.571500  0.684700  0.233300  1.0
  H  H1345  1  0.071500  0.684700  0.266700  1.0
  H  H1346  1  0.428500  0.315300  0.766700  1.0
  H  H1347  1  0.892400  0.300300  0.725100  1.0
  H  H1348  1  0.607600  0.699700  0.225100  1.0
  H  H1349  1  0.107600  0.699700  0.274900  1.0
  H  H1350  1  0.392400  0.300300  0.774900  1.0
  H  H1351  1  0.909100  0.337400  0.729200  1.0
  H  H1352  1  0.590900  0.662600  0.229200  1.0
  H  H1353  1  0.090900  0.662600  0.270800  1.0
  H  H1354  1  0.409100  0.337400  0.770800  1.0
  H  H1355  1  0.908700  0.345300  0.648700  1.0
  H  H1356  1  0.591300  0.654700  0.148700  1.0
  H  H1357  1  0.091300  0.654700  0.351300  1.0
  H  H1358  1  0.408700  0.345300  0.851300  1.0
  H  H1359  1  0.894300  0.361300  0.663400  1.0
  H  H1360  1  0.605700  0.638700  0.163400  1.0
  H  H1361  1  0.105700  0.638700  0.336600  1.0
  H  H1362  1  0.394300  0.361300  0.836600  1.0
  H  H1363  1  0.877200  0.324100  0.659900  1.0
  H  H1364  1  0.622800  0.675900  0.159900  1.0
  H  H1365  1  0.122800  0.675900  0.340100  1.0
  H  H1366  1  0.377200  0.324100  0.840100  1.0
  H  H1367  1  0.003100  0.329100  0.662700  1.0
  H  H1368  1  0.496900  0.670900  0.162700  1.0
  H  H1369  1  0.996900  0.670900  0.337300  1.0
  H  H1370  1  0.503100  0.329100  0.837300  1.0
  H  H1371  1  0.002500  0.305900  0.678600  1.0
  H  H1372  1  0.497500  0.694100  0.178600  1.0
  H  H1373  1  0.997500  0.694100  0.321400  1.0
  H  H1374  1  0.502500  0.305900  0.821400  1.0
  H  H1375  1  0.020900  0.343200  0.681000  1.0
  H  H1376  1  0.479100  0.656800  0.181000  1.0
  H  H1377  1  0.979100  0.656800  0.319000  1.0
  H  H1378  1  0.520900  0.343200  0.819000  1.0
  H  H1379  1  0.876400  0.517500  0.702500  1.0
  H  H1380  1  0.623600  0.482500  0.202500  1.0
  H  H1381  1  0.123600  0.482500  0.297500  1.0
  H  H1382  1  0.376400  0.517500  0.797500  1.0
  H  H1383  1  0.874800  0.484000  0.709300  1.0
  H  H1384  1  0.625200  0.516000  0.209300  1.0
  H  H1385  1  0.125200  0.516000  0.290700  1.0
  H  H1386  1  0.374800  0.484000  0.790700  1.0
  H  H1387  1  0.844200  0.486300  0.699200  1.0
  H  H1388  1  0.655800  0.513700  0.199200  1.0
  H  H1389  1  0.155800  0.513700  0.300800  1.0
  H  H1390  1  0.344200  0.486300  0.800800  1.0
  H  H1391  1  0.951500  0.557300  0.656400  1.0
  H  H1392  1  0.548500  0.442700  0.156400  1.0
  H  H1393  1  0.048500  0.442700  0.343600  1.0
  H  H1394  1  0.451500  0.557300  0.843600  1.0
  H  H1395  1  0.939800  0.541300  0.637500  1.0
  H  H1396  1  0.560200  0.458700  0.137500  1.0
  H  H1397  1  0.060200  0.458700  0.362500  1.0
  H  H1398  1  0.439800  0.541300  0.862500  1.0
  H  H1399  1  0.967600  0.534700  0.648200  1.0
  H  H1400  1  0.532400  0.465300  0.148200  1.0
  H  H1401  1  0.032400  0.465300  0.351800  1.0
  H  H1402  1  0.467600  0.534700  0.851800  1.0
  H  H1403  1  0.015600  0.673700  0.617400  1.0
  H  H1404  1  0.484400  0.326300  0.117400  1.0
  H  H1405  1  0.984400  0.326300  0.382600  1.0
  H  H1406  1  0.515600  0.673700  0.882600  1.0
  H  H1407  1  0.026500  0.665700  0.588600  1.0
  H  H1408  1  0.473500  0.334300  0.088600  1.0
  H  H1409  1  0.973500  0.334300  0.411400  1.0
  H  H1410  1  0.526500  0.665700  0.911400  1.0
  H  H1411  1  0.210500  0.681900  0.592700  1.0
  H  H1412  1  0.289500  0.318100  0.092700  1.0
  H  H1413  1  0.789500  0.318100  0.407300  1.0
  H  H1414  1  0.710500  0.681900  0.907300  1.0
  H  H1415  1  0.172900  0.674700  0.569500  1.0
  H  H1416  1  0.327100  0.325300  0.069500  1.0
  H  H1417  1  0.827100  0.325300  0.430500  1.0
  H  H1418  1  0.672900  0.674700  0.930500  1.0
  H  H1419  1  0.235300  0.733100  0.660300  1.0
  H  H1420  1  0.264700  0.266900  0.160300  1.0
  H  H1421  1  0.764700  0.266900  0.339700  1.0
  H  H1422  1  0.735300  0.733100  0.839700  1.0
  H  H1423  1  0.252100  0.657300  0.645500  1.0
  H  H1424  1  0.247900  0.342700  0.145500  1.0
  H  H1425  1  0.747900  0.342700  0.354500  1.0
  H  H1426  1  0.752100  0.657300  0.854500  1.0
  H  H1427  1  0.083200  0.733200  0.676300  1.0
  H  H1428  1  0.416800  0.266800  0.176300  1.0
  H  H1429  1  0.916800  0.266800  0.323700  1.0
  H  H1430  1  0.583200  0.733200  0.823700  1.0
  H  H1431  1  0.004700  0.650900  0.679900  1.0
  H  H1432  1  0.495300  0.349100  0.179900  1.0
  H  H1433  1  0.995300  0.349100  0.320100  1.0
  H  H1434  1  0.504700  0.650900  0.820100  1.0
  H  H1435  1  0.115000  0.747600  0.650800  1.0
  H  H1436  1  0.385000  0.252400  0.150800  1.0
  H  H1437  1  0.885000  0.252400  0.349200  1.0
  H  H1438  1  0.615000  0.747600  0.849200  1.0
  H  H1439  1  0.093500  0.736500  0.633200  1.0
  H  H1440  1  0.406500  0.263500  0.133200  1.0
  H  H1441  1  0.906500  0.263500  0.366800  1.0
  H  H1442  1  0.593500  0.736500  0.866800  1.0
  H  H1443  1  0.117200  0.719500  0.639200  1.0
  H  H1444  1  0.382800  0.280500  0.139200  1.0
  H  H1445  1  0.882800  0.280500  0.360800  1.0
  H  H1446  1  0.617200  0.719500  0.860800  1.0
  H  H1447  1  0.070300  0.668200  0.565600  1.0
  H  H1448  1  0.429700  0.331800  0.065600  1.0
  H  H1449  1  0.929700  0.331800  0.434400  1.0
  H  H1450  1  0.570300  0.668200  0.934400  1.0
  H  H1451  1  0.119500  0.671800  0.558200  1.0
  H  H1452  1  0.380500  0.328200  0.058200  1.0
  H  H1453  1  0.880500  0.328200  0.441800  1.0
  H  H1454  1  0.619500  0.671800  0.941800  1.0
  H  H1455  1  0.230100  0.627300  0.621900  1.0
  H  H1456  1  0.269900  0.372700  0.121900  1.0
  H  H1457  1  0.769900  0.372700  0.378100  1.0
  H  H1458  1  0.730100  0.627300  0.878100  1.0
  H  H1459  1  0.220200  0.644300  0.605700  1.0
  H  H1460  1  0.279800  0.355700  0.105700  1.0
  H  H1461  1  0.779800  0.355700  0.394300  1.0
  H  H1462  1  0.720200  0.644300  0.894300  1.0
  H  H1463  1  0.192700  0.622600  0.619200  1.0
  H  H1464  1  0.307300  0.377400  0.119200  1.0
  H  H1465  1  0.807300  0.377400  0.380800  1.0
  H  H1466  1  0.692700  0.622600  0.880800  1.0
  H  H1467  1  0.197000  0.747800  0.646400  1.0
  H  H1468  1  0.303000  0.252200  0.146400  1.0
  H  H1469  1  0.803000  0.252200  0.353600  1.0
  H  H1470  1  0.697000  0.747800  0.853600  1.0
  H  H1471  1  0.166800  0.720400  0.637100  1.0
  H  H1472  1  0.333200  0.279600  0.137100  1.0
  H  H1473  1  0.833200  0.279600  0.362900  1.0
  H  H1474  1  0.666800  0.720400  0.862900  1.0
  H  H1475  1  0.196400  0.743500  0.625400  1.0
  H  H1476  1  0.303600  0.256500  0.125400  1.0
  H  H1477  1  0.803600  0.256500  0.374600  1.0
  H  H1478  1  0.696400  0.743500  0.874600  1.0
  H  H1479  1  0.270400  0.719700  0.677900  1.0
  H  H1480  1  0.229600  0.280300  0.177900  1.0
  H  H1481  1  0.729600  0.280300  0.322100  1.0
  H  H1482  1  0.770400  0.719700  0.822100  1.0
  H  H1483  1  0.292900  0.707100  0.666300  1.0
  H  H1484  1  0.207100  0.292900  0.166300  1.0
  H  H1485  1  0.707100  0.292900  0.333700  1.0
  H  H1486  1  0.792900  0.707100  0.833700  1.0
  H  H1487  1  0.264200  0.683100  0.678200  1.0
  H  H1488  1  0.235800  0.316900  0.178200  1.0
  H  H1489  1  0.735800  0.316900  0.321800  1.0
  H  H1490  1  0.764200  0.683100  0.821800  1.0
  H  H1491  1  0.985500  0.615400  0.656300  1.0
  H  H1492  1  0.514500  0.384600  0.156300  1.0
  H  H1493  1  0.014500  0.384600  0.343700  1.0
  H  H1494  1  0.485500  0.615400  0.843700  1.0
  H  H1495  1  0.014500  0.613900  0.644300  1.0
  H  H1496  1  0.485500  0.386100  0.144300  1.0
  H  H1497  1  0.985500  0.386100  0.355700  1.0
  H  H1498  1  0.514500  0.613900  0.855700  1.0
  H  H1499  1  0.992700  0.632200  0.637400  1.0
  H  H1500  1  0.507300  0.367800  0.137400  1.0
  H  H1501  1  0.007300  0.367800  0.362600  1.0
  H  H1502  1  0.492700  0.632200  0.862600  1.0
  H  H1503  1  0.016500  0.681800  0.704800  1.0
  H  H1504  1  0.483500  0.318200  0.204800  1.0
  H  H1505  1  0.983500  0.318200  0.295200  1.0
  H  H1506  1  0.516500  0.681800  0.795200  1.0
  H  H1507  1  0.032100  0.718900  0.700600  1.0
  H  H1508  1  0.467900  0.281100  0.200600  1.0
  H  H1509  1  0.967900  0.281100  0.299400  1.0
  H  H1510  1  0.532100  0.718900  0.799400  1.0
  H  H1511  1  0.054800  0.701600  0.707700  1.0
  H  H1512  1  0.445200  0.298400  0.207700  1.0
  H  H1513  1  0.945200  0.298400  0.292300  1.0
  H  H1514  1  0.554800  0.701600  0.792300  1.0
  H  H1515  1  0.258500  0.466700  0.601300  1.0
  H  H1516  1  0.241500  0.533300  0.101300  1.0
  H  H1517  1  0.741500  0.533300  0.398700  1.0
  H  H1518  1  0.758500  0.466700  0.898700  1.0
  H  H1519  1  0.229900  0.422200  0.583600  1.0
  H  H1520  1  0.270100  0.577800  0.083600  1.0
  H  H1521  1  0.770100  0.577800  0.416400  1.0
  H  H1522  1  0.729900  0.422200  0.916400  1.0
  H  H1523  1  0.136400  0.291000  0.656200  1.0
  H  H1524  1  0.363600  0.709000  0.156200  1.0
  H  H1525  1  0.863600  0.709000  0.343800  1.0
  H  H1526  1  0.636400  0.291000  0.843800  1.0
  H  H1527  1  0.139300  0.289700  0.623400  1.0
  H  H1528  1  0.360700  0.710300  0.123400  1.0
  H  H1529  1  0.860700  0.710300  0.376600  1.0
  H  H1530  1  0.639300  0.289700  0.876600  1.0
  H  H1531  1  0.198100  0.355800  0.714800  1.0
  H  H1532  1  0.301900  0.644200  0.214800  1.0
  H  H1533  1  0.801900  0.644200  0.285200  1.0
  H  H1534  1  0.698100  0.355800  0.785200  1.0
  H  H1535  1  0.101300  0.325800  0.707600  1.0
  H  H1536  1  0.398700  0.674200  0.207600  1.0
  H  H1537  1  0.898700  0.674200  0.292400  1.0
  H  H1538  1  0.601300  0.325800  0.792400  1.0
  H  H1539  1  0.326400  0.488500  0.661900  1.0
  H  H1540  1  0.173600  0.511500  0.161900  1.0
  H  H1541  1  0.673600  0.511500  0.338100  1.0
  H  H1542  1  0.826400  0.488500  0.838100  1.0
  H  H1543  1  0.293600  0.548500  0.638600  1.0
  H  H1544  1  0.206400  0.451500  0.138600  1.0
  H  H1545  1  0.706400  0.451500  0.361400  1.0
  H  H1546  1  0.793600  0.548500  0.861400  1.0
  H  H1547  1  0.262400  0.417000  0.645100  1.0
  H  H1548  1  0.237600  0.583000  0.145100  1.0
  H  H1549  1  0.737600  0.583000  0.354900  1.0
  H  H1550  1  0.762400  0.417000  0.854900  1.0
  H  H1551  1  0.278300  0.428200  0.664100  1.0
  H  H1552  1  0.221700  0.571800  0.164100  1.0
  H  H1553  1  0.721700  0.571800  0.335900  1.0
  H  H1554  1  0.778300  0.428200  0.835900  1.0
  H  H1555  1  0.301200  0.429600  0.647600  1.0
  H  H1556  1  0.198800  0.570400  0.147600  1.0
  H  H1557  1  0.698800  0.570400  0.352400  1.0
  H  H1558  1  0.801200  0.429600  0.852400  1.0
  H  H1559  1  0.357000  0.542900  0.666300  1.0
  H  H1560  1  0.143000  0.457100  0.166300  1.0
  H  H1561  1  0.643000  0.457100  0.333700  1.0
  H  H1562  1  0.857000  0.542900  0.833700  1.0
  H  H1563  1  0.336100  0.564300  0.665500  1.0
  H  H1564  1  0.163900  0.435700  0.165500  1.0
  H  H1565  1  0.663900  0.435700  0.334500  1.0
  H  H1566  1  0.836100  0.564300  0.834500  1.0
  H  H1567  1  0.357600  0.562700  0.648800  1.0
  H  H1568  1  0.142400  0.437300  0.148800  1.0
  H  H1569  1  0.642400  0.437300  0.351200  1.0
  H  H1570  1  0.857600  0.562700  0.851200  1.0
  H  H1571  1  0.247000  0.531300  0.618600  1.0
  H  H1572  1  0.253000  0.468700  0.118600  1.0
  H  H1573  1  0.753000  0.468700  0.381400  1.0
  H  H1574  1  0.747000  0.531300  0.881400  1.0
  H  H1575  1  0.219600  0.500300  0.626900  1.0
  H  H1576  1  0.280400  0.499700  0.126900  1.0
  H  H1577  1  0.780400  0.499700  0.373100  1.0
  H  H1578  1  0.719600  0.500300  0.873100  1.0
  H  H1579  1  0.238900  0.497600  0.609600  1.0
  H  H1580  1  0.261100  0.502400  0.109600  1.0
  H  H1581  1  0.761100  0.502400  0.390400  1.0
  H  H1582  1  0.738900  0.497600  0.890400  1.0
  H  H1583  1  0.194200  0.364500  0.581800  1.0
  H  H1584  1  0.305800  0.635500  0.081800  1.0
  H  H1585  1  0.805800  0.635500  0.418200  1.0
  H  H1586  1  0.694200  0.364500  0.918200  1.0
  H  H1587  1  0.164300  0.318400  0.595900  1.0
  H  H1588  1  0.335700  0.681600  0.095900  1.0
  H  H1589  1  0.835700  0.681600  0.404100  1.0
  H  H1590  1  0.664300  0.318400  0.904100  1.0
  H  H1591  1  0.097600  0.321400  0.661000  1.0
  H  H1592  1  0.402400  0.678600  0.161000  1.0
  H  H1593  1  0.902400  0.678600  0.339000  1.0
  H  H1594  1  0.597600  0.321400  0.839000  1.0
  H  H1595  1  0.083800  0.339000  0.675000  1.0
  H  H1596  1  0.416200  0.661000  0.175000  1.0
  H  H1597  1  0.916200  0.661000  0.325000  1.0
  H  H1598  1  0.583800  0.339000  0.825000  1.0
  H  H1599  1  0.076500  0.302300  0.677500  1.0
  H  H1600  1  0.423500  0.697700  0.177500  1.0
  H  H1601  1  0.923500  0.697700  0.322500  1.0
  H  H1602  1  0.576500  0.302300  0.822500  1.0
  H  H1603  1  0.216700  0.358200  0.668700  1.0
  H  H1604  1  0.283300  0.641800  0.168700  1.0
  H  H1605  1  0.783300  0.641800  0.331300  1.0
  H  H1606  1  0.716700  0.358200  0.831300  1.0
  H  H1607  1  0.226900  0.344400  0.686100  1.0
  H  H1608  1  0.273100  0.655600  0.186100  1.0
  H  H1609  1  0.773100  0.655600  0.313900  1.0
  H  H1610  1  0.726900  0.344400  0.813900  1.0
  H  H1611  1  0.230800  0.380500  0.685500  1.0
  H  H1612  1  0.269200  0.619500  0.185500  1.0
  H  H1613  1  0.769200  0.619500  0.314500  1.0
  H  H1614  1  0.730800  0.380500  0.814500  1.0
  H  H1615  1  0.166700  0.347100  0.740600  1.0
  H  H1616  1  0.333300  0.652900  0.240600  1.0
  H  H1617  1  0.833300  0.652900  0.259400  1.0
  H  H1618  1  0.666700  0.347100  0.759400  1.0
  H  H1619  1  0.129500  0.322500  0.739200  1.0
  H  H1620  1  0.370500  0.677500  0.239200  1.0
  H  H1621  1  0.870500  0.677500  0.260800  1.0
  H  H1622  1  0.629500  0.322500  0.760800  1.0
  H  H1623  1  0.138200  0.359600  0.737700  1.0
  H  H1624  1  0.361800  0.640400  0.237700  1.0
  H  H1625  1  0.861800  0.640400  0.262300  1.0
  H  H1626  1  0.638200  0.359600  0.762300  1.0
  H  H1627  1  0.810000  0.142400  0.329500  1.0
  H  H1628  1  0.690000  0.857600  0.829500  1.0
  H  H1629  1  0.190000  0.857600  0.670500  1.0
  H  H1630  1  0.310000  0.142400  0.170500  1.0
  H  H1631  1  0.851700  0.190900  0.322100  1.0
  H  H1632  1  0.648300  0.809100  0.822100  1.0
  H  H1633  1  0.148300  0.809100  0.677900  1.0
  H  H1634  1  0.351700  0.190900  0.177900  1.0
  H  H1635  1  0.877700  0.163400  0.220200  1.0
  H  H1636  1  0.622300  0.836600  0.720200  1.0
  H  H1637  1  0.122300  0.836600  0.779800  1.0
  H  H1638  1  0.377700  0.163400  0.279800  1.0
  H  H1639  1  0.894100  0.208500  0.236500  1.0
  H  H1640  1  0.605900  0.791500  0.736500  1.0
  H  H1641  1  0.105900  0.791500  0.763500  1.0
  H  H1642  1  0.394100  0.208500  0.263500  1.0
  H  H1643  1  0.848900  0.041500  0.226200  1.0
  H  H1644  1  0.651100  0.958500  0.726200  1.0
  H  H1645  1  0.151100  0.958500  0.773800  1.0
  H  H1646  1  0.348900  0.041500  0.273800  1.0
  H  H1647  1  0.817900  0.083200  0.186700  1.0
  H  H1648  1  0.682100  0.916800  0.686700  1.0
  H  H1649  1  0.182100  0.916800  0.813300  1.0
  H  H1650  1  0.317900  0.083200  0.313300  1.0
  H  H1651  1  0.777800  0.017500  0.316600  1.0
  H  H1652  1  0.722200  0.982500  0.816600  1.0
  H  H1653  1  0.222200  0.982500  0.683400  1.0
  H  H1654  1  0.277800  0.017500  0.183400  1.0
  H  H1655  1  0.713300  0.054100  0.331000  1.0
  H  H1656  1  0.786700  0.945900  0.831000  1.0
  H  H1657  1  0.286700  0.945900  0.669000  1.0
  H  H1658  1  0.213300  0.054100  0.169000  1.0
  H  H1659  1  0.836700  0.090100  0.298300  1.0
  H  H1660  1  0.663300  0.909900  0.798300  1.0
  H  H1661  1  0.163300  0.909900  0.701700  1.0
  H  H1662  1  0.336700  0.090100  0.201700  1.0
  H  H1663  1  0.822000  0.053700  0.292700  1.0
  H  H1664  1  0.678000  0.946300  0.792700  1.0
  H  H1665  1  0.178000  0.946300  0.707300  1.0
  H  H1666  1  0.322000  0.053700  0.207300  1.0
  H  H1667  1  0.838500  0.064000  0.311700  1.0
  H  H1668  1  0.661500  0.936000  0.811700  1.0
  H  H1669  1  0.161500  0.936000  0.688300  1.0
  H  H1670  1  0.338500  0.064000  0.188300  1.0
  H  H1671  1  0.884300  0.227900  0.296900  1.0
  H  H1672  1  0.615700  0.772100  0.796900  1.0
  H  H1673  1  0.115700  0.772100  0.703100  1.0
  H  H1674  1  0.384300  0.227900  0.203100  1.0
  H  H1675  1  0.899400  0.233400  0.268400  1.0
  H  H1676  1  0.600600  0.766600  0.768400  1.0
  H  H1677  1  0.100600  0.766600  0.731600  1.0
  H  H1678  1  0.399400  0.233400  0.231600  1.0
  H  H1679  1  0.808700  0.127400  0.190100  1.0
  H  H1680  1  0.691300  0.872600  0.690100  1.0
  H  H1681  1  0.191300  0.872600  0.809900  1.0
  H  H1682  1  0.308700  0.127400  0.309900  1.0
  H  H1683  1  0.831600  0.152400  0.204200  1.0
  H  H1684  1  0.668400  0.847600  0.704200  1.0
  H  H1685  1  0.168400  0.847600  0.795800  1.0
  H  H1686  1  0.331600  0.152400  0.295800  1.0
  H  H1687  1  0.795000  0.129600  0.209400  1.0
  H  H1688  1  0.705000  0.870400  0.709400  1.0
  H  H1689  1  0.205000  0.870400  0.790600  1.0
  H  H1690  1  0.295000  0.129600  0.290600  1.0
  H  H1691  1  0.851700  0.098900  0.258200  1.0
  H  H1692  1  0.648300  0.901100  0.758200  1.0
  H  H1693  1  0.148300  0.901100  0.741800  1.0
  H  H1694  1  0.351700  0.098900  0.241800  1.0
  H  H1695  1  0.874600  0.080500  0.253300  1.0
  H  H1696  1  0.625400  0.919500  0.753300  1.0
  H  H1697  1  0.125400  0.919500  0.746700  1.0
  H  H1698  1  0.374600  0.080500  0.246700  1.0
  H  H1699  1  0.836600  0.061200  0.257400  1.0
  H  H1700  1  0.663400  0.938800  0.757400  1.0
  H  H1701  1  0.163400  0.938800  0.742600  1.0
  H  H1702  1  0.336600  0.061200  0.242600  1.0
  H  H1703  1  0.831800  0.039600  0.178900  1.0
  H  H1704  1  0.668200  0.960400  0.678900  1.0
  H  H1705  1  0.168200  0.960400  0.821100  1.0
  H  H1706  1  0.331800  0.039600  0.321100  1.0
  H  H1707  1  0.824900  0.014100  0.194300  1.0
  H  H1708  1  0.675100  0.985900  0.694300  1.0
  H  H1709  1  0.175100  0.985900  0.805700  1.0
  H  H1710  1  0.324900  0.014100  0.305700  1.0
  H  H1711  1  0.861600  0.037600  0.189900  1.0
  H  H1712  1  0.638400  0.962400  0.689900  1.0
  H  H1713  1  0.138400  0.962400  0.810100  1.0
  H  H1714  1  0.361600  0.037600  0.310100  1.0
  H  H1715  1  0.758100  0.132300  0.316200  1.0
  H  H1716  1  0.741900  0.867700  0.816200  1.0
  H  H1717  1  0.241900  0.867700  0.683800  1.0
  H  H1718  1  0.258100  0.132300  0.183800  1.0
  H  H1719  1  0.737700  0.116700  0.333600  1.0
  H  H1720  1  0.762300  0.883300  0.833600  1.0
  H  H1721  1  0.262300  0.883300  0.666400  1.0
  H  H1722  1  0.237700  0.116700  0.166400  1.0
  H  H1723  1  0.721000  0.107500  0.314500  1.0
  H  H1724  1  0.779000  0.892500  0.814500  1.0
  H  H1725  1  0.279000  0.892500  0.685500  1.0
  H  H1726  1  0.221000  0.107500  0.185500  1.0
  H  H1727  1  0.728800  0.982300  0.329600  1.0
  H  H1728  1  0.771200  0.017700  0.829600  1.0
  H  H1729  1  0.271200  0.017700  0.670400  1.0
  H  H1730  1  0.228800  0.982300  0.170400  1.0
  H  H1731  1  0.698100  0.990800  0.324700  1.0
  H  H1732  1  0.801900  0.009200  0.824700  1.0
  H  H1733  1  0.301900  0.009200  0.675300  1.0
  H  H1734  1  0.198100  0.990800  0.175300  1.0
  H  H1735  1  0.714100  0.998700  0.344000  1.0
  H  H1736  1  0.785900  0.001300  0.844000  1.0
  H  H1737  1  0.285900  0.001300  0.656000  1.0
  H  H1738  1  0.214100  0.998700  0.156000  1.0
  H  H1739  1  0.606800  0.727400  0.161400  1.0
  H  H1740  1  0.893200  0.272600  0.661400  1.0
  H  H1741  1  0.393200  0.272600  0.838600  1.0
  H  H1742  1  0.106800  0.727400  0.338600  1.0
  H  H1743  1  0.633400  0.728300  0.132300  1.0
  H  H1744  1  0.866600  0.271700  0.632300  1.0
  H  H1745  1  0.366600  0.271700  0.867700  1.0
  H  H1746  1  0.133400  0.728300  0.367700  1.0
  H  H1747  1  0.778500  0.897900  0.136100  1.0
  H  H1748  1  0.721500  0.102100  0.636100  1.0
  H  H1749  1  0.221500  0.102100  0.863900  1.0
  H  H1750  1  0.278500  0.897900  0.363900  1.0
  H  H1751  1  0.762700  0.857600  0.114800  1.0
  H  H1752  1  0.737300  0.142400  0.614800  1.0
  H  H1753  1  0.237300  0.142400  0.885200  1.0
  H  H1754  1  0.262700  0.857600  0.385200  1.0
  H  H1755  1  0.554300  0.752800  0.207400  1.0
  H  H1756  1  0.945700  0.247200  0.707400  1.0
  H  H1757  1  0.445700  0.247200  0.792600  1.0
  H  H1758  1  0.054300  0.752800  0.292600  1.0
  H  H1759  1  0.646900  0.778300  0.226500  1.0
  H  H1760  1  0.853100  0.221700  0.726500  1.0
  H  H1761  1  0.353100  0.221700  0.773500  1.0
  H  H1762  1  0.146900  0.778300  0.273500  1.0
  H  H1763  1  0.762200  0.977400  0.173600  1.0
  H  H1764  1  0.737800  0.022600  0.673600  1.0
  H  H1765  1  0.237800  0.022600  0.826400  1.0
  H  H1766  1  0.262200  0.977400  0.326400  1.0
  H  H1767  1  0.774200  0.910800  0.206700  1.0
  H  H1768  1  0.725800  0.089200  0.706700  1.0
  H  H1769  1  0.225800  0.089200  0.793300  1.0
  H  H1770  1  0.274200  0.910800  0.293300  1.0
  H  H1771  1  0.738300  0.924200  0.135700  1.0
  H  H1772  1  0.761700  0.075800  0.635700  1.0
  H  H1773  1  0.261700  0.075800  0.864300  1.0
  H  H1774  1  0.238300  0.924200  0.364300  1.0
  H  H1775  1  0.763200  0.960100  0.138400  1.0
  H  H1776  1  0.736800  0.039900  0.638400  1.0
  H  H1777  1  0.236800  0.039900  0.861600  1.0
  H  H1778  1  0.263200  0.960100  0.361600  1.0
  H  H1779  1  0.725700  0.949300  0.144100  1.0
  H  H1780  1  0.774300  0.050700  0.644100  1.0
  H  H1781  1  0.274300  0.050700  0.855900  1.0
  H  H1782  1  0.225700  0.949300  0.355900  1.0
  H  H1783  1  0.778600  0.991800  0.203800  1.0
  H  H1784  1  0.721400  0.008200  0.703800  1.0
  H  H1785  1  0.221400  0.008200  0.796200  1.0
  H  H1786  1  0.278600  0.991800  0.296200  1.0
  H  H1787  1  0.799800  0.974500  0.212700  1.0
  H  H1788  1  0.700200  0.025500  0.712700  1.0
  H  H1789  1  0.200200  0.025500  0.787300  1.0
  H  H1790  1  0.299800  0.974500  0.287300  1.0
  H  H1791  1  0.761900  0.963700  0.217600  1.0
  H  H1792  1  0.738100  0.036300  0.717600  1.0
  H  H1793  1  0.238100  0.036300  0.782400  1.0
  H  H1794  1  0.261900  0.963700  0.282400  1.0
  H  H1795  1  0.760700  0.859500  0.198500  1.0
  H  H1796  1  0.739300  0.140500  0.698500  1.0
  H  H1797  1  0.239300  0.140500  0.801500  1.0
  H  H1798  1  0.260700  0.859500  0.301500  1.0
  H  H1799  1  0.769500  0.857100  0.178200  1.0
  H  H1800  1  0.730500  0.142900  0.678200  1.0
  H  H1801  1  0.230500  0.142900  0.821800  1.0
  H  H1802  1  0.269500  0.857100  0.321800  1.0
  H  H1803  1  0.732100  0.846300  0.184100  1.0
  H  H1804  1  0.767900  0.153700  0.684100  1.0
  H  H1805  1  0.267900  0.153700  0.815900  1.0
  H  H1806  1  0.232100  0.846300  0.315900  1.0
  H  H1807  1  0.579900  0.759400  0.162200  1.0
  H  H1808  1  0.920100  0.240600  0.662200  1.0
  H  H1809  1  0.420100  0.240600  0.837800  1.0
  H  H1810  1  0.079900  0.759400  0.337800  1.0
  H  H1811  1  0.554900  0.769900  0.173100  1.0
  H  H1812  1  0.945100  0.230100  0.673100  1.0
  H  H1813  1  0.445100  0.230100  0.826900  1.0
  H  H1814  1  0.054900  0.769900  0.326900  1.0
  H  H1815  1  0.550600  0.733800  0.173100  1.0
  H  H1816  1  0.949400  0.266200  0.673100  1.0
  H  H1817  1  0.449400  0.266200  0.826900  1.0
  H  H1818  1  0.050600  0.733800  0.326900  1.0
  H  H1819  1  0.685600  0.787100  0.184500  1.0
  H  H1820  1  0.814400  0.212900  0.684500  1.0
  H  H1821  1  0.314400  0.212900  0.815500  1.0
  H  H1822  1  0.185600  0.787100  0.315500  1.0
  H  H1823  1  0.687300  0.769000  0.202300  1.0
  H  H1824  1  0.812700  0.231000  0.702300  1.0
  H  H1825  1  0.312700  0.231000  0.797700  1.0
  H  H1826  1  0.187300  0.769000  0.297700  1.0
  H  H1827  1  0.693700  0.805700  0.203000  1.0
  H  H1828  1  0.806300  0.194300  0.703000  1.0
  H  H1829  1  0.306300  0.194300  0.797000  1.0
  H  H1830  1  0.193700  0.805700  0.297000  1.0
  H  H1831  1  0.561200  0.754200  0.238700  1.0
  H  H1832  1  0.938800  0.245800  0.738700  1.0
  H  H1833  1  0.438800  0.245800  0.761300  1.0
  H  H1834  1  0.061200  0.754200  0.261300  1.0
  H  H1835  1  0.595400  0.779700  0.245600  1.0
  H  H1836  1  0.904600  0.220300  0.745600  1.0
  H  H1837  1  0.404600  0.220300  0.754400  1.0
  H  H1838  1  0.095400  0.779700  0.254400  1.0
  H  H1839  1  0.589500  0.743200  0.244900  1.0
  H  H1840  1  0.910500  0.256800  0.744900  1.0
  H  H1841  1  0.410500  0.256800  0.755100  1.0
  H  H1842  1  0.089500  0.743200  0.255100  1.0
  H  H1843  1  0.720300  0.805300  0.103800  1.0
  H  H1844  1  0.779700  0.194700  0.603800  1.0
  H  H1845  1  0.279700  0.194700  0.896200  1.0
  H  H1846  1  0.220300  0.805300  0.396200  1.0
  H  H1847  1  0.677500  0.759600  0.111100  1.0
  H  H1848  1  0.822500  0.240400  0.611100  1.0
  H  H1849  1  0.322500  0.240400  0.888900  1.0
  H  H1850  1  0.177500  0.759600  0.388900  1.0
  H  H1851  1  0.463300  0.096400  0.363500  1.0
  H  H1852  1  0.036700  0.903600  0.863500  1.0
  H  H1853  1  0.536700  0.903600  0.636500  1.0
  H  H1854  1  0.963300  0.096400  0.136500  1.0
  H  H1855  1  0.513900  0.094300  0.358900  1.0
  H  H1856  1  0.986100  0.905700  0.858900  1.0
  H  H1857  1  0.486100  0.905700  0.641100  1.0
  H  H1858  1  0.013900  0.094300  0.141100  1.0
  H  H1859  1  0.426100  0.133800  0.265100  1.0
  H  H1860  1  0.073900  0.866200  0.765100  1.0
  H  H1861  1  0.573900  0.866200  0.734900  1.0
  H  H1862  1  0.926100  0.133800  0.234900  1.0
  H  H1863  1  0.392500  0.119000  0.289100  1.0
  H  H1864  1  0.107500  0.881000  0.789100  1.0
  H  H1865  1  0.607500  0.881000  0.710900  1.0
  H  H1866  1  0.892500  0.119000  0.210900  1.0
  H  H1867  1  0.621600  0.154700  0.319000  1.0
  H  H1868  1  0.878400  0.845300  0.819000  1.0
  H  H1869  1  0.378400  0.845300  0.681000  1.0
  H  H1870  1  0.121600  0.154700  0.181000  1.0
  H  H1871  1  0.599200  0.067000  0.339700  1.0
  H  H1872  1  0.900800  0.933000  0.839700  1.0
  H  H1873  1  0.400800  0.933000  0.660300  1.0
  H  H1874  1  0.099200  0.067000  0.160300  1.0
  H  H1875  1  0.480400  0.105200  0.217100  1.0
  H  H1876  1  0.019600  0.894800  0.717100  1.0
  H  H1877  1  0.519600  0.894800  0.782900  1.0
  H  H1878  1  0.980400  0.105200  0.282900  1.0
  H  H1879  1  0.553200  0.169800  0.244700  1.0
  H  H1880  1  0.946800  0.830200  0.744700  1.0
  H  H1881  1  0.446800  0.830200  0.755300  1.0
  H  H1882  1  0.053200  0.169800  0.255300  1.0
  H  H1883  1  0.530500  0.131400  0.202600  1.0
  H  H1884  1  0.969500  0.868600  0.702600  1.0
  H  H1885  1  0.469500  0.868600  0.797400  1.0
  H  H1886  1  0.030500  0.131400  0.297400  1.0
  H  H1887  1  0.561700  0.140800  0.215300  1.0
  H  H1888  1  0.938300  0.859200  0.715300  1.0
  H  H1889  1  0.438300  0.859200  0.784700  1.0
  H  H1890  1  0.061700  0.140800  0.284700  1.0
  H  H1891  1  0.548500  0.167100  0.209300  1.0
  H  H1892  1  0.951500  0.832900  0.709300  1.0
  H  H1893  1  0.451500  0.832900  0.790700  1.0
  H  H1894  1  0.048500  0.167100  0.290700  1.0
  H  H1895  1  0.435500  0.077500  0.228700  1.0
  H  H1896  1  0.064500  0.922500  0.728700  1.0
  H  H1897  1  0.564500  0.922500  0.771300  1.0
  H  H1898  1  0.935500  0.077500  0.271300  1.0
  H  H1899  1  0.421400  0.090900  0.244800  1.0
  H  H1900  1  0.078600  0.909100  0.744800  1.0
  H  H1901  1  0.578600  0.909100  0.755200  1.0
  H  H1902  1  0.921400  0.090900  0.255200  1.0
  H  H1903  1  0.439200  0.067200  0.248500  1.0
  H  H1904  1  0.060800  0.932800  0.748500  1.0
  H  H1905  1  0.560800  0.932800  0.751500  1.0
  H  H1906  1  0.939200  0.067200  0.251500  1.0
  H  H1907  1  0.512100  0.162800  0.284800  1.0
  H  H1908  1  0.987900  0.837200  0.784800  1.0
  H  H1909  1  0.487900  0.837200  0.715200  1.0
  H  H1910  1  0.012100  0.162800  0.215200  1.0
  H  H1911  1  0.532200  0.190600  0.271400  1.0
  H  H1912  1  0.967800  0.809400  0.771400  1.0
  H  H1913  1  0.467800  0.809400  0.728600  1.0
  H  H1914  1  0.032200  0.190600  0.228600  1.0
  H  H1915  1  0.547800  0.166700  0.278300  1.0
  H  H1916  1  0.952200  0.833300  0.778300  1.0
  H  H1917  1  0.452200  0.833300  0.721700  1.0
  H  H1918  1  0.047800  0.166700  0.221700  1.0
  H  H1919  1  0.585400  0.175700  0.313900  1.0
  H  H1920  1  0.914600  0.824300  0.813900  1.0
  H  H1921  1  0.414600  0.824300  0.686100  1.0
  H  H1922  1  0.085400  0.175700  0.186100  1.0
  H  H1923  1  0.556100  0.165800  0.327900  1.0
  H  H1924  1  0.943900  0.834200  0.827900  1.0
  H  H1925  1  0.443900  0.834200  0.672100  1.0
  H  H1926  1  0.056100  0.165800  0.172100  1.0
  H  H1927  1  0.549800  0.151000  0.308400  1.0
  H  H1928  1  0.950200  0.849000  0.808400  1.0
  H  H1929  1  0.450200  0.849000  0.691600  1.0
  H  H1930  1  0.049800  0.151000  0.191600  1.0
  H  H1931  1  0.665400  0.136400  0.323600  1.0
  H  H1932  1  0.834600  0.863600  0.823600  1.0
  H  H1933  1  0.334600  0.863600  0.676400  1.0
  H  H1934  1  0.165400  0.136400  0.176400  1.0
  H  H1935  1  0.653800  0.099300  0.320300  1.0
  H  H1936  1  0.846200  0.900700  0.820300  1.0
  H  H1937  1  0.346200  0.900700  0.679700  1.0
  H  H1938  1  0.153800  0.099300  0.179700  1.0
  H  H1939  1  0.659700  0.112900  0.340000  1.0
  H  H1940  1  0.840300  0.887100  0.840000  1.0
  H  H1941  1  0.340300  0.887100  0.660000  1.0
  H  H1942  1  0.159700  0.112900  0.160000  1.0
  H  H1943  1  0.545800  0.033700  0.348400  1.0
  H  H1944  1  0.954200  0.966300  0.848400  1.0
  H  H1945  1  0.454200  0.966300  0.651600  1.0
  H  H1946  1  0.045800  0.033700  0.151600  1.0
  H  H1947  1  0.518500  0.037000  0.335700  1.0
  H  H1948  1  0.981500  0.963000  0.835700  1.0
  H  H1949  1  0.481500  0.963000  0.664300  1.0
  H  H1950  1  0.018500  0.037000  0.164300  1.0
  H  H1951  1  0.524500  0.052800  0.354900  1.0
  H  H1952  1  0.975500  0.947200  0.854900  1.0
  H  H1953  1  0.475500  0.947200  0.645100  1.0
  H  H1954  1  0.024500  0.052800  0.145100  1.0
  H  H1955  1  0.412100  0.099900  0.348500  1.0
  H  H1956  1  0.087900  0.900100  0.848500  1.0
  H  H1957  1  0.587900  0.900100  0.651500  1.0
  H  H1958  1  0.912100  0.099900  0.151500  1.0
  H  H1959  1  0.391300  0.115100  0.323700  1.0
  H  H1960  1  0.108700  0.884900  0.823700  1.0
  H  H1961  1  0.608700  0.884900  0.676300  1.0
  H  H1962  1  0.891300  0.115100  0.176300  1.0
  H  H1963  1  0.710700  0.129100  0.094900  1.0
  H  H1964  1  0.789300  0.870900  0.594900  1.0
  H  H1965  1  0.289300  0.870900  0.905100  1.0
  H  H1966  1  0.210700  0.129100  0.405100  1.0
  H  H1967  1  0.685300  0.124600  0.067800  1.0
  H  H1968  1  0.814700  0.875400  0.567800  1.0
  H  H1969  1  0.314700  0.875400  0.932200  1.0
  H  H1970  1  0.185300  0.124600  0.432200  1.0
  H  H1971  1  0.505000  0.100800  0.097400  1.0
  H  H1972  1  0.995000  0.899200  0.597400  1.0
  H  H1973  1  0.495000  0.899200  0.902600  1.0
  H  H1974  1  0.005000  0.100800  0.402600  1.0
  H  H1975  1  0.526900  0.098100  0.070000  1.0
  H  H1976  1  0.973100  0.901900  0.570000  1.0
  H  H1977  1  0.473100  0.901900  0.930000  1.0
  H  H1978  1  0.026900  0.098100  0.430000  1.0
  H  H1979  1  0.710200  0.177300  0.160300  1.0
  H  H1980  1  0.789800  0.822700  0.660300  1.0
  H  H1981  1  0.289800  0.822700  0.839700  1.0
  H  H1982  1  0.210200  0.177300  0.339700  1.0
  H  H1983  1  0.737400  0.104800  0.150700  1.0
  H  H1984  1  0.762600  0.895200  0.650700  1.0
  H  H1985  1  0.262600  0.895200  0.849300  1.0
  H  H1986  1  0.237400  0.104800  0.349300  1.0
  H  H1987  1  0.470100  0.066900  0.155400  1.0
  H  H1988  1  0.029900  0.933100  0.655400  1.0
  H  H1989  1  0.529900  0.933100  0.844600  1.0
  H  H1990  1  0.970100  0.066900  0.344600  1.0
  H  H1991  1  0.537500  0.155000  0.161000  1.0
  H  H1992  1  0.962500  0.845000  0.661000  1.0
  H  H1993  1  0.462500  0.845000  0.839000  1.0
  H  H1994  1  0.037500  0.155000  0.339000  1.0
  H  H1995  1  0.661100  0.165000  0.120900  1.0
  H  H1996  1  0.838900  0.835000  0.620900  1.0
  H  H1997  1  0.338900  0.835000  0.879100  1.0
  H  H1998  1  0.161100  0.165000  0.379100  1.0
  H  H1999  1  0.689600  0.194800  0.129500  1.0
  H  H2000  1  0.810400  0.805200  0.629500  1.0
  H  H2001  1  0.310400  0.805200  0.870500  1.0
  H  H2002  1  0.189600  0.194800  0.370500  1.0
  H  H2003  1  0.658100  0.174400  0.141000  1.0
  H  H2004  1  0.841900  0.825600  0.641000  1.0
  H  H2005  1  0.341900  0.825600  0.859000  1.0
  H  H2006  1  0.158100  0.174400  0.359000  1.0
  H  H2007  1  0.753100  0.130900  0.177400  1.0
  H  H2008  1  0.746900  0.869100  0.677400  1.0
  H  H2009  1  0.246900  0.869100  0.822600  1.0
  H  H2010  1  0.253100  0.130900  0.322600  1.0
  H  H2011  1  0.727500  0.144200  0.185200  1.0
  H  H2012  1  0.772500  0.855800  0.685200  1.0
  H  H2013  1  0.272500  0.855800  0.814800  1.0
  H  H2014  1  0.227500  0.144200  0.314800  1.0
  H  H2015  1  0.760600  0.167800  0.176100  1.0
  H  H2016  1  0.739400  0.832200  0.676100  1.0
  H  H2017  1  0.239400  0.832200  0.823900  1.0
  H  H2018  1  0.260600  0.167800  0.323900  1.0
  H  H2019  1  0.719800  0.071900  0.125200  1.0
  H  H2020  1  0.780200  0.928100  0.625200  1.0
  H  H2021  1  0.280200  0.928100  0.874800  1.0
  H  H2022  1  0.219800  0.071900  0.374800  1.0
  H  H2023  1  0.712100  0.088700  0.108200  1.0
  H  H2024  1  0.787900  0.911300  0.608200  1.0
  H  H2025  1  0.287900  0.911300  0.891800  1.0
  H  H2026  1  0.212100  0.088700  0.391800  1.0
  H  H2027  1  0.682800  0.065300  0.120000  1.0
  H  H2028  1  0.817200  0.934700  0.620000  1.0
  H  H2029  1  0.317200  0.934700  0.880000  1.0
  H  H2030  1  0.182800  0.065300  0.380000  1.0
  H  H2031  1  0.582100  0.176700  0.142200  1.0
  H  H2032  1  0.917900  0.823300  0.642200  1.0
  H  H2033  1  0.417900  0.823300  0.857800  1.0
  H  H2034  1  0.082100  0.176700  0.357800  1.0
  H  H2035  1  0.574300  0.166800  0.121900  1.0
  H  H2036  1  0.925700  0.833200  0.621900  1.0
  H  H2037  1  0.425700  0.833200  0.878100  1.0
  H  H2038  1  0.074300  0.166800  0.378100  1.0
  H  H2039  1  0.594600  0.151600  0.133500  1.0
  H  H2040  1  0.905400  0.848400  0.633500  1.0
  H  H2041  1  0.405400  0.848400  0.866500  1.0
  H  H2042  1  0.094600  0.151600  0.366500  1.0
  H  H2043  1  0.465700  0.036200  0.130500  1.0
  H  H2044  1  0.034300  0.963800  0.630500  1.0
  H  H2045  1  0.534300  0.963800  0.869500  1.0
  H  H2046  1  0.965700  0.036200  0.369500  1.0
  H  H2047  1  0.500900  0.039800  0.123300  1.0
  H  H2048  1  0.999100  0.960200  0.623300  1.0
  H  H2049  1  0.499100  0.960200  0.876700  1.0
  H  H2050  1  0.000900  0.039800  0.376700  1.0
  H  H2051  1  0.480300  0.056000  0.112900  1.0
  H  H2052  1  0.019700  0.944000  0.612900  1.0
  H  H2053  1  0.519700  0.944000  0.887100  1.0
  H  H2054  1  0.980300  0.056000  0.387100  1.0
  H  H2055  1  0.495200  0.136600  0.182700  1.0
  H  H2056  1  0.004800  0.863400  0.682700  1.0
  H  H2057  1  0.504800  0.863400  0.817300  1.0
  H  H2058  1  0.995200  0.136600  0.317300  1.0
  H  H2059  1  0.482800  0.099400  0.186200  1.0
  H  H2060  1  0.017200  0.900600  0.686200  1.0
  H  H2061  1  0.517200  0.900600  0.813800  1.0
  H  H2062  1  0.982800  0.099400  0.313800  1.0
  H  H2063  1  0.461100  0.113100  0.174600  1.0
  H  H2064  1  0.038900  0.886900  0.674600  1.0
  H  H2065  1  0.538900  0.886900  0.825400  1.0
  H  H2066  1  0.961100  0.113100  0.325400  1.0
  H  H2067  1  0.631300  0.113300  0.050500  1.0
  H  H2068  1  0.868700  0.886700  0.550500  1.0
  H  H2069  1  0.368700  0.886700  0.949500  1.0
  H  H2070  1  0.131300  0.113300  0.449500  1.0
  H  H2071  1  0.577400  0.102900  0.051800  1.0
  H  H2072  1  0.922600  0.897100  0.551800  1.0
  H  H2073  1  0.422600  0.897100  0.948200  1.0
  H  H2074  1  0.077400  0.102900  0.448200  1.0
  H  H2075  1  0.614800  0.875200  0.383300  1.0
  H  H2076  1  0.885200  0.124800  0.883300  1.0
  H  H2077  1  0.385200  0.124800  0.616700  1.0
  H  H2078  1  0.114800  0.875200  0.116700  1.0
  H  H2079  1  0.627300  0.830100  0.386300  1.0
  H  H2080  1  0.872700  0.169900  0.886300  1.0
  H  H2081  1  0.372700  0.169900  0.613700  1.0
  H  H2082  1  0.127300  0.830100  0.113700  1.0
  H  H2083  1  0.584200  0.731100  0.360700  1.0
  H  H2084  1  0.915800  0.268900  0.860700  1.0
  H  H2085  1  0.415800  0.268900  0.639300  1.0
  H  H2086  1  0.084200  0.731100  0.139300  1.0
  H  H2087  1  0.613800  0.773200  0.377800  1.0
  H  H2088  1  0.886200  0.226800  0.877800  1.0
  H  H2089  1  0.386200  0.226800  0.622200  1.0
  H  H2090  1  0.113800  0.773200  0.122200  1.0
  H  H2091  1  0.513900  0.717900  0.311000  1.0
  H  H2092  1  0.986100  0.282100  0.811000  1.0
  H  H2093  1  0.486100  0.282100  0.689000  1.0
  H  H2094  1  0.013900  0.717900  0.189000  1.0
  H  H2095  1  0.549500  0.709100  0.334000  1.0
  H  H2096  1  0.950500  0.290900  0.834000  1.0
  H  H2097  1  0.450500  0.290900  0.666000  1.0
  H  H2098  1  0.049500  0.709100  0.166000  1.0
  H  H2099  1  0.434300  0.783400  0.303400  1.0
  H  H2100  1  0.065700  0.216600  0.803400  1.0
  H  H2101  1  0.565700  0.216600  0.696600  1.0
  H  H2102  1  0.934300  0.783400  0.196600  1.0
  H  H2103  1  0.480300  0.755300  0.264400  1.0
  H  H2104  1  0.019700  0.244700  0.764400  1.0
  H  H2105  1  0.519700  0.244700  0.735600  1.0
  H  H2106  1  0.980300  0.755300  0.235600  1.0
  H  H2107  1  0.509000  0.901700  0.361300  1.0
  H  H2108  1  0.991000  0.098300  0.861300  1.0
  H  H2109  1  0.491000  0.098300  0.638700  1.0
  H  H2110  1  0.009000  0.901700  0.138700  1.0
  H  H2111  1  0.601700  0.962600  0.354800  1.0
  H  H2112  1  0.898300  0.037400  0.854800  1.0
  H  H2113  1  0.398300  0.037400  0.645200  1.0
  H  H2114  1  0.101700  0.962600  0.145200  1.0
  H  H2115  1  0.526900  0.832500  0.365700  1.0
  H  H2116  1  0.973100  0.167500  0.865700  1.0
  H  H2117  1  0.473100  0.167500  0.634300  1.0
  H  H2118  1  0.026900  0.832500  0.134300  1.0
  H  H2119  1  0.500300  0.841700  0.355500  1.0
  H  H2120  1  0.999700  0.158300  0.855500  1.0
  H  H2121  1  0.499700  0.158300  0.644500  1.0
  H  H2122  1  0.000300  0.841700  0.144500  1.0
  H  H2123  1  0.505200  0.847400  0.376300  1.0
  H  H2124  1  0.994800  0.152600  0.876300  1.0
  H  H2125  1  0.494800  0.152600  0.623700  1.0
  H  H2126  1  0.005200  0.847400  0.123700  1.0
  H  H2127  1  0.527500  0.743100  0.269900  1.0
  H  H2128  1  0.972500  0.256900  0.769900  1.0
  H  H2129  1  0.472500  0.256900  0.730100  1.0
  H  H2130  1  0.027500  0.743100  0.230100  1.0
  H  H2131  1  0.525700  0.727700  0.289100  1.0
  H  H2132  1  0.974300  0.272300  0.789100  1.0
  H  H2133  1  0.474300  0.272300  0.710900  1.0
  H  H2134  1  0.025700  0.727700  0.210900  1.0
  H  H2135  1  0.549900  0.763600  0.285600  1.0
  H  H2136  1  0.950100  0.236400  0.785600  1.0
  H  H2137  1  0.450100  0.236400  0.714400  1.0
  H  H2138  1  0.049900  0.763600  0.214400  1.0
  H  H2139  1  0.488200  0.782800  0.336900  1.0
  H  H2140  1  0.011800  0.217200  0.836900  1.0
  H  H2141  1  0.511800  0.217200  0.663100  1.0
  H  H2142  1  0.988200  0.782800  0.163100  1.0
  H  H2143  1  0.449500  0.771700  0.334500  1.0
  H  H2144  1  0.050500  0.228300  0.834500  1.0
  H  H2145  1  0.550500  0.228300  0.665500  1.0
  H  H2146  1  0.949500  0.771700  0.165500  1.0
  H  H2147  1  0.473300  0.807400  0.330200  1.0
  H  H2148  1  0.026700  0.192600  0.830200  1.0
  H  H2149  1  0.526700  0.192600  0.669800  1.0
  H  H2150  1  0.973300  0.807400  0.169800  1.0
  H  H2151  1  0.412600  0.777300  0.272700  1.0
  H  H2152  1  0.087400  0.222700  0.772700  1.0
  H  H2153  1  0.587400  0.222700  0.727300  1.0
  H  H2154  1  0.912600  0.777300  0.227300  1.0
  H  H2155  1  0.417800  0.748800  0.263000  1.0
  H  H2156  1  0.082200  0.251200  0.763000  1.0
  H  H2157  1  0.582200  0.251200  0.737000  1.0
  H  H2158  1  0.917800  0.748800  0.237000  1.0
  H  H2159  1  0.439900  0.784400  0.257700  1.0
  H  H2160  1  0.060100  0.215600  0.757700  1.0
  H  H2161  1  0.560100  0.215600  0.742300  1.0
  H  H2162  1  0.939900  0.784400  0.242300  1.0
  H  H2163  1  0.647300  0.947600  0.354400  1.0
  H  H2164  1  0.852700  0.052400  0.854400  1.0
  H  H2165  1  0.352700  0.052400  0.645600  1.0
  H  H2166  1  0.147300  0.947600  0.145600  1.0
  H  H2167  1  0.638300  0.913000  0.346500  1.0
  H  H2168  1  0.861700  0.087000  0.846500  1.0
  H  H2169  1  0.361700  0.087000  0.653500  1.0
  H  H2170  1  0.138300  0.913000  0.153500  1.0
  H  H2171  1  0.642200  0.918500  0.367400  1.0
  H  H2172  1  0.857800  0.081500  0.867400  1.0
  H  H2173  1  0.357800  0.081500  0.632600  1.0
  H  H2174  1  0.142200  0.918500  0.132600  1.0
  H  H2175  1  0.519600  0.956900  0.357900  1.0
  H  H2176  1  0.980400  0.043100  0.857900  1.0
  H  H2177  1  0.480400  0.043100  0.642100  1.0
  H  H2178  1  0.019600  0.956900  0.142100  1.0
  H  H2179  1  0.549500  0.973200  0.344500  1.0
  H  H2180  1  0.950500  0.026800  0.844500  1.0
  H  H2181  1  0.450500  0.026800  0.655500  1.0
  H  H2182  1  0.049500  0.973200  0.155500  1.0
  H  H2183  1  0.554500  0.980100  0.365200  1.0
  H  H2184  1  0.945500  0.019900  0.865200  1.0
  H  H2185  1  0.445500  0.019900  0.634800  1.0
  H  H2186  1  0.054500  0.980100  0.134800  1.0
  H  H2187  1  0.281600  0.881200  0.170600  1.0
  H  H2188  1  0.218400  0.118800  0.670600  1.0
  H  H2189  1  0.718400  0.118800  0.829400  1.0
  H  H2190  1  0.781600  0.881200  0.329400  1.0
  H  H2191  1  0.239000  0.836700  0.182500  1.0
  H  H2192  1  0.261000  0.163300  0.682500  1.0
  H  H2193  1  0.761000  0.163300  0.817500  1.0
  H  H2194  1  0.739000  0.836700  0.317500  1.0
  H  H2195  1  0.230700  0.736600  0.198000  1.0
  H  H2196  1  0.269300  0.263400  0.698000  1.0
  H  H2197  1  0.769300  0.263400  0.802000  1.0
  H  H2198  1  0.730700  0.736600  0.302000  1.0
  H  H2199  1  0.327600  0.716500  0.192000  1.0
  H  H2200  1  0.172400  0.283500  0.692000  1.0
  H  H2201  1  0.672400  0.283500  0.808000  1.0
  H  H2202  1  0.827600  0.716500  0.308000  1.0
  H  H2203  1  0.271000  0.711100  0.199200  1.0
  H  H2204  1  0.229000  0.288900  0.699200  1.0
  H  H2205  1  0.729000  0.288900  0.800800  1.0
  H  H2206  1  0.771000  0.711100  0.300800  1.0
  H  H2207  1  0.427000  0.780900  0.148400  1.0
  H  H2208  1  0.073000  0.219100  0.648400  1.0
  H  H2209  1  0.573000  0.219100  0.851600  1.0
  H  H2210  1  0.927000  0.780900  0.351600  1.0
  H  H2211  1  0.438700  0.751800  0.198000  1.0
  H  H2212  1  0.061300  0.248200  0.698000  1.0
  H  H2213  1  0.561300  0.248200  0.802000  1.0
  H  H2214  1  0.938700  0.751800  0.302000  1.0
  H  H2215  1  0.393900  0.910000  0.131600  1.0
  H  H2216  1  0.106100  0.090000  0.631600  1.0
  H  H2217  1  0.606100  0.090000  0.868400  1.0
  H  H2218  1  0.893900  0.910000  0.368400  1.0
  H  H2219  1  0.384900  0.969300  0.170900  1.0
  H  H2220  1  0.115100  0.030700  0.670900  1.0
  H  H2221  1  0.615100  0.030700  0.829100  1.0
  H  H2222  1  0.884900  0.969300  0.329100  1.0
  H  H2223  1  0.360000  0.854800  0.131300  1.0
  H  H2224  1  0.140000  0.145200  0.631300  1.0
  H  H2225  1  0.640000  0.145200  0.868700  1.0
  H  H2226  1  0.860000  0.854800  0.368700  1.0
  H  H2227  1  0.324500  0.846800  0.139600  1.0
  H  H2228  1  0.175500  0.153200  0.639600  1.0
  H  H2229  1  0.675500  0.153200  0.860400  1.0
  H  H2230  1  0.824500  0.846800  0.360400  1.0
  H  H2231  1  0.351800  0.840100  0.150700  1.0
  H  H2232  1  0.148200  0.159900  0.650700  1.0
  H  H2233  1  0.648200  0.159900  0.849300  1.0
  H  H2234  1  0.851800  0.840100  0.349300  1.0
  H  H2235  1  0.360600  0.747900  0.214300  1.0
  H  H2236  1  0.139400  0.252100  0.714300  1.0
  H  H2237  1  0.639400  0.252100  0.785700  1.0
  H  H2238  1  0.860600  0.747900  0.285700  1.0
  H  H2239  1  0.396800  0.763500  0.222400  1.0
  H  H2240  1  0.103200  0.236500  0.722400  1.0
  H  H2241  1  0.603200  0.236500  0.777600  1.0
  H  H2242  1  0.896800  0.763500  0.277600  1.0
  H  H2243  1  0.382000  0.727100  0.216700  1.0
  H  H2244  1  0.118000  0.272900  0.716700  1.0
  H  H2245  1  0.618000  0.272900  0.783300  1.0
  H  H2246  1  0.882000  0.727100  0.283300  1.0
  H  H2247  1  0.349200  0.780400  0.157700  1.0
  H  H2248  1  0.150800  0.219600  0.657700  1.0
  H  H2249  1  0.650800  0.219600  0.842300  1.0
  H  H2250  1  0.849200  0.780400  0.342300  1.0
  H  H2251  1  0.364100  0.765800  0.142500  1.0
  H  H2252  1  0.135900  0.234200  0.642500  1.0
  H  H2253  1  0.635900  0.234200  0.857500  1.0
  H  H2254  1  0.864100  0.765800  0.357500  1.0
  H  H2255  1  0.381000  0.802700  0.147000  1.0
  H  H2256  1  0.119000  0.197300  0.647000  1.0
  H  H2257  1  0.619000  0.197300  0.853000  1.0
  H  H2258  1  0.881000  0.802700  0.353000  1.0
  H  H2259  1  0.478200  0.775200  0.155400  1.0
  H  H2260  1  0.021800  0.224800  0.655400  1.0
  H  H2261  1  0.521800  0.224800  0.844600  1.0
  H  H2262  1  0.978200  0.775200  0.344600  1.0
  H  H2263  1  0.474800  0.748800  0.169900  1.0
  H  H2264  1  0.025200  0.251200  0.669900  1.0
  H  H2265  1  0.525200  0.251200  0.830100  1.0
  H  H2266  1  0.974800  0.748800  0.330100  1.0
  H  H2267  1  0.489400  0.785300  0.175300  1.0
  H  H2268  1  0.010600  0.214700  0.675300  1.0
  H  H2269  1  0.510600  0.214700  0.824700  1.0
  H  H2270  1  0.989400  0.785300  0.324700  1.0
  H  H2271  1  0.345800  0.950300  0.191200  1.0
  H  H2272  1  0.154200  0.049700  0.691200  1.0
  H  H2273  1  0.654200  0.049700  0.808800  1.0
  H  H2274  1  0.845800  0.950300  0.308800  1.0
  H  H2275  1  0.344200  0.917300  0.198800  1.0
  H  H2276  1  0.155800  0.082700  0.698800  1.0
  H  H2277  1  0.655800  0.082700  0.801200  1.0
  H  H2278  1  0.844200  0.917300  0.301200  1.0
  H  H2279  1  0.313800  0.918800  0.188100  1.0
  H  H2280  1  0.186200  0.081200  0.688100  1.0
  H  H2281  1  0.686200  0.081200  0.811900  1.0
  H  H2282  1  0.813800  0.918800  0.311900  1.0
  H  H2283  1  0.427100  0.963900  0.131300  1.0
  H  H2284  1  0.072900  0.036100  0.631300  1.0
  H  H2285  1  0.572900  0.036100  0.868700  1.0
  H  H2286  1  0.927100  0.963900  0.368700  1.0
  H  H2287  1  0.436300  0.977800  0.150800  1.0
  H  H2288  1  0.063700  0.022200  0.650800  1.0
  H  H2289  1  0.563700  0.022200  0.849200  1.0
  H  H2290  1  0.936300  0.977800  0.349200  1.0
  H  H2291  1  0.410100  0.985800  0.139400  1.0
  H  H2292  1  0.089900  0.014200  0.639400  1.0
  H  H2293  1  0.589900  0.014200  0.860600  1.0
  H  H2294  1  0.910100  0.985800  0.360600  1.0
  H  H2295  1  0.271000  0.399900  0.959700  1.0
  H  H2296  1  0.229000  0.600100  0.459700  1.0
  H  H2297  1  0.729000  0.600100  0.040300  1.0
  H  H2298  1  0.771000  0.399900  0.540300  1.0
  H  H2299  1  0.315100  0.444200  0.974400  1.0
  H  H2300  1  0.184900  0.555800  0.474400  1.0
  H  H2301  1  0.684900  0.555800  0.025600  1.0
  H  H2302  1  0.815100  0.444200  0.525600  1.0
  H  H2303  1  0.453400  0.375100  0.977300  1.0
  H  H2304  1  0.046600  0.624900  0.477300  1.0
  H  H2305  1  0.546600  0.624900  0.022700  1.0
  H  H2306  1  0.953400  0.375100  0.522700  1.0
  H  H2307  1  0.451800  0.423200  0.986500  1.0
  H  H2308  1  0.048200  0.576800  0.486500  1.0
  H  H2309  1  0.548200  0.576800  0.013500  1.0
  H  H2310  1  0.951800  0.423200  0.513500  1.0
  H  H2311  1  0.241000  0.301000  0.919500  1.0
  H  H2312  1  0.259000  0.699000  0.419500  1.0
  H  H2313  1  0.759000  0.699000  0.080500  1.0
  H  H2314  1  0.741000  0.301000  0.580500  1.0
  H  H2315  1  0.186200  0.302100  0.962400  1.0
  H  H2316  1  0.313800  0.697900  0.462400  1.0
  H  H2317  1  0.813800  0.697900  0.037600  1.0
  H  H2318  1  0.686200  0.302100  0.537600  1.0
  H  H2319  1  0.402300  0.277600  0.932700  1.0
  H  H2320  1  0.097700  0.722400  0.432700  1.0
  H  H2321  1  0.597700  0.722400  0.067300  1.0
  H  H2322  1  0.902300  0.277600  0.567300  1.0
  H  H2323  1  0.424400  0.265200  0.982700  1.0
  H  H2324  1  0.075600  0.734800  0.482700  1.0
  H  H2325  1  0.575600  0.734800  0.017300  1.0
  H  H2326  1  0.924400  0.265200  0.517300  1.0
  H  H2327  1  0.415400  0.234800  0.938300  1.0
  H  H2328  1  0.084600  0.765200  0.438300  1.0
  H  H2329  1  0.584600  0.765200  0.061700  1.0
  H  H2330  1  0.915400  0.234800  0.561700  1.0
  H  H2331  1  0.402900  0.220800  0.957600  1.0
  H  H2332  1  0.097100  0.779200  0.457600  1.0
  H  H2333  1  0.597100  0.779200  0.042400  1.0
  H  H2334  1  0.902900  0.220800  0.542400  1.0
  H  H2335  1  0.441200  0.238900  0.953800  1.0
  H  H2336  1  0.058800  0.761100  0.453800  1.0
  H  H2337  1  0.558800  0.761100  0.046200  1.0
  H  H2338  1  0.941200  0.238900  0.546200  1.0
  H  H2339  1  0.388100  0.349700  0.942300  1.0
  H  H2340  1  0.111900  0.650300  0.442300  1.0
  H  H2341  1  0.611900  0.650300  0.057700  1.0
  H  H2342  1  0.888100  0.349700  0.557700  1.0
  H  H2343  1  0.368100  0.318000  0.931700  1.0
  H  H2344  1  0.131900  0.682000  0.431700  1.0
  H  H2345  1  0.631900  0.682000  0.068300  1.0
  H  H2346  1  0.868100  0.318000  0.568300  1.0
  H  H2347  1  0.405300  0.338800  0.926600  1.0
  H  H2348  1  0.094700  0.661200  0.426600  1.0
  H  H2349  1  0.594700  0.661200  0.073400  1.0
  H  H2350  1  0.905300  0.338800  0.573400  1.0
  H  H2351  1  0.419100  0.334700  0.000300  1.0
  H  H2352  1  0.080900  0.665300  0.500300  1.0
  H  H2353  1  0.580900  0.665300  0.999700  1.0
  H  H2354  1  0.919100  0.334700  0.499700  1.0
  H  H2355  1  0.446600  0.320500  0.002000  1.0
  H  H2356  1  0.053400  0.679500  0.502000  1.0
  H  H2357  1  0.553400  0.679500  0.998000  1.0
  H  H2358  1  0.946600  0.320500  0.498000  1.0
  H  H2359  1  0.409200  0.298800  0.006200  1.0
  H  H2360  1  0.090800  0.701200  0.506200  1.0
  H  H2361  1  0.590800  0.701200  0.993800  1.0
  H  H2362  1  0.909200  0.298800  0.493800  1.0
  H  H2363  1  0.209500  0.328500  0.988400  1.0
  H  H2364  1  0.290500  0.671500  0.488400  1.0
  H  H2365  1  0.790500  0.671500  0.011600  1.0
  H  H2366  1  0.709500  0.328500  0.511600  1.0
  H  H2367  1  0.237700  0.362100  0.983900  1.0
  H  H2368  1  0.262300  0.637900  0.483900  1.0
  H  H2369  1  0.762300  0.637900  0.016100  1.0
  H  H2370  1  0.737700  0.362100  0.516100  1.0
  H  H2371  1  0.247100  0.334300  0.991400  1.0
  H  H2372  1  0.252900  0.665700  0.491400  1.0
  H  H2373  1  0.752900  0.665700  0.008600  1.0
  H  H2374  1  0.747100  0.334300  0.508600  1.0
  H  H2375  1  0.314200  0.361500  0.936300  1.0
  H  H2376  1  0.185800  0.638500  0.436300  1.0
  H  H2377  1  0.685800  0.638500  0.063700  1.0
  H  H2378  1  0.814200  0.361500  0.563700  1.0
  H  H2379  1  0.295300  0.355500  0.917800  1.0
  H  H2380  1  0.204700  0.644500  0.417800  1.0
  H  H2381  1  0.704700  0.644500  0.082200  1.0
  H  H2382  1  0.795300  0.355500  0.582200  1.0
  H  H2383  1  0.306300  0.329100  0.925900  1.0
  H  H2384  1  0.193700  0.670900  0.425900  1.0
  H  H2385  1  0.693700  0.670900  0.074100  1.0
  H  H2386  1  0.806300  0.329100  0.574100  1.0
  H  H2387  1  0.374400  0.466400  0.980700  1.0
  H  H2388  1  0.125600  0.533600  0.480700  1.0
  H  H2389  1  0.625600  0.533600  0.019300  1.0
  H  H2390  1  0.874400  0.466400  0.519300  1.0
  H  H2391  1  0.422200  0.459900  0.985600  1.0
  H  H2392  1  0.077800  0.540100  0.485600  1.0
  H  H2393  1  0.577800  0.540100  0.014400  1.0
  H  H2394  1  0.922200  0.459900  0.514400  1.0
  H  H2395  1  0.162300  0.262300  0.941800  1.0
  H  H2396  1  0.337700  0.737700  0.441800  1.0
  H  H2397  1  0.837700  0.737700  0.058200  1.0
  H  H2398  1  0.662300  0.262300  0.558200  1.0
  H  H2399  1  0.185600  0.249800  0.930800  1.0
  H  H2400  1  0.314400  0.750200  0.430800  1.0
  H  H2401  1  0.814400  0.750200  0.069200  1.0
  H  H2402  1  0.685600  0.249800  0.569200  1.0
  H  H2403  1  0.173400  0.275000  0.922200  1.0
  H  H2404  1  0.326600  0.725000  0.422200  1.0
  H  H2405  1  0.826600  0.725000  0.077800  1.0
  H  H2406  1  0.673400  0.275000  0.577800  1.0
  H  H2407  1  0.468500  0.118200  0.926400  1.0
  H  H2408  1  0.031500  0.881800  0.426400  1.0
  H  H2409  1  0.531500  0.881800  0.073600  1.0
  H  H2410  1  0.968500  0.118200  0.573600  1.0
  H  H2411  1  0.468700  0.109200  0.896000  1.0
  H  H2412  1  0.031300  0.890800  0.396000  1.0
  H  H2413  1  0.531300  0.890800  0.104000  1.0
  H  H2414  1  0.968700  0.109200  0.604000  1.0
  H  H2415  1  0.287800  0.984000  0.877600  1.0
  H  H2416  1  0.212200  0.016000  0.377600  1.0
  H  H2417  1  0.712200  0.016000  0.122400  1.0
  H  H2418  1  0.787800  0.984000  0.622400  1.0
  H  H2419  1  0.331000  0.012700  0.859300  1.0
  H  H2420  1  0.169000  0.987300  0.359300  1.0
  H  H2421  1  0.669000  0.987300  0.140700  1.0
  H  H2422  1  0.831000  0.012700  0.640700  1.0
  H  H2423  1  0.412700  0.060500  0.988500  1.0
  H  H2424  1  0.087300  0.939500  0.488500  1.0
  H  H2425  1  0.587300  0.939500  0.011500  1.0
  H  H2426  1  0.912700  0.060500  0.511500  1.0
  H  H2427  1  0.434300  0.150700  0.979200  1.0
  H  H2428  1  0.065700  0.849300  0.479200  1.0
  H  H2429  1  0.565700  0.849300  0.020800  1.0
  H  H2430  1  0.934300  0.150700  0.520800  1.0
  H  H2431  1  0.203800  0.950400  0.914600  1.0
  H  H2432  1  0.296200  0.049600  0.414600  1.0
  H  H2433  1  0.796200  0.049600  0.085400  1.0
  H  H2434  1  0.703800  0.950400  0.585400  1.0
  H  H2435  1  0.269000  0.923800  0.939200  1.0
  H  H2436  1  0.231000  0.076200  0.439200  1.0
  H  H2437  1  0.731000  0.076200  0.060800  1.0
  H  H2438  1  0.769000  0.923800  0.560800  1.0
  H  H2439  1  0.341000  0.983700  0.920800  1.0
  H  H2440  1  0.159000  0.016300  0.420800  1.0
  H  H2441  1  0.659000  0.016300  0.079200  1.0
  H  H2442  1  0.841000  0.983700  0.579200  1.0
  H  H2443  1  0.329200  0.946400  0.923400  1.0
  H  H2444  1  0.170800  0.053600  0.423400  1.0
  H  H2445  1  0.670800  0.053600  0.076600  1.0
  H  H2446  1  0.829200  0.946400  0.576600  1.0
  H  H2447  1  0.330900  0.968500  0.940000  1.0
  H  H2448  1  0.169100  0.031500  0.440000  1.0
  H  H2449  1  0.669100  0.031500  0.060000  1.0
  H  H2450  1  0.830900  0.968500  0.560000  1.0
  H  H2451  1  0.221000  0.995400  0.894500  1.0
  H  H2452  1  0.279000  0.004600  0.394500  1.0
  H  H2453  1  0.779000  0.004600  0.105500  1.0
  H  H2454  1  0.721000  0.995400  0.605500  1.0
  H  H2455  1  0.254100  0.000600  0.884100  1.0
  H  H2456  1  0.245900  0.999400  0.384100  1.0
  H  H2457  1  0.745900  0.999400  0.115900  1.0
  H  H2458  1  0.754100  0.000600  0.615900  1.0
  H  H2459  1  0.254600  0.023200  0.900300  1.0
  H  H2460  1  0.245400  0.976800  0.400300  1.0
  H  H2461  1  0.745400  0.976800  0.099700  1.0
  H  H2462  1  0.754600  0.023200  0.599700  1.0
  H  H2463  1  0.407500  0.038000  0.942500  1.0
  H  H2464  1  0.092500  0.962000  0.442500  1.0
  H  H2465  1  0.592500  0.962000  0.057500  1.0
  H  H2466  1  0.907500  0.038000  0.557500  1.0
  H  H2467  1  0.385900  0.025100  0.959900  1.0
  H  H2468  1  0.114100  0.974900  0.459900  1.0
  H  H2469  1  0.614100  0.974900  0.040100  1.0
  H  H2470  1  0.885900  0.025100  0.540100  1.0
  H  H2471  1  0.423700  0.030300  0.959800  1.0
  H  H2472  1  0.076300  0.969700  0.459800  1.0
  H  H2473  1  0.576300  0.969700  0.040200  1.0
  H  H2474  1  0.923700  0.030300  0.540200  1.0
  H  H2475  1  0.438900  0.082800  0.868700  1.0
  H  H2476  1  0.061100  0.917200  0.368700  1.0
  H  H2477  1  0.561100  0.917200  0.131300  1.0
  H  H2478  1  0.938900  0.082800  0.631300  1.0
  H  H2479  1  0.388400  0.049700  0.855700  1.0
  H  H2480  1  0.111600  0.950300  0.355700  1.0
  H  H2481  1  0.611600  0.950300  0.144300  1.0
  H  H2482  1  0.888400  0.049700  0.644300  1.0
  H  H2483  1  0.430900  0.133000  0.008400  1.0
  H  H2484  1  0.069100  0.867000  0.508400  1.0
  H  H2485  1  0.569100  0.867000  0.991600  1.0
  H  H2486  1  0.930900  0.133000  0.491600  1.0
  H  H2487  1  0.444300  0.105700  0.010900  1.0
  H  H2488  1  0.055700  0.894300  0.510900  1.0
  H  H2489  1  0.555700  0.894300  0.989100  1.0
  H  H2490  1  0.944300  0.105700  0.489100  1.0
  H  H2491  1  0.405800  0.097400  0.011500  1.0
  H  H2492  1  0.094200  0.902600  0.511500  1.0
  H  H2493  1  0.594200  0.902600  0.988500  1.0
  H  H2494  1  0.905800  0.097400  0.488500  1.0
  H  H2495  1  0.213400  0.890300  0.942200  1.0
  H  H2496  1  0.286600  0.109700  0.442200  1.0
  H  H2497  1  0.786600  0.109700  0.057800  1.0
  H  H2498  1  0.713400  0.890300  0.557800  1.0
  H  H2499  1  0.192300  0.889500  0.924900  1.0
  H  H2500  1  0.307700  0.110500  0.424900  1.0
  H  H2501  1  0.807700  0.110500  0.075100  1.0
  H  H2502  1  0.692300  0.889500  0.575100  1.0
  H  H2503  1  0.188900  0.908200  0.942100  1.0
  H  H2504  1  0.311100  0.091800  0.442100  1.0
  H  H2505  1  0.811100  0.091800  0.057900  1.0
  H  H2506  1  0.688900  0.908200  0.557900  1.0
  H  H2507  1  0.471800  0.177400  0.080400  1.0
  H  H2508  1  0.028200  0.822600  0.580400  1.0
  H  H2509  1  0.528200  0.822600  0.919600  1.0
  H  H2510  1  0.971800  0.177400  0.419600  1.0
  H  H2511  1  0.482600  0.147700  0.102200  1.0
  H  H2512  1  0.017400  0.852300  0.602200  1.0
  H  H2513  1  0.517400  0.852300  0.897800  1.0
  H  H2514  1  0.982600  0.147700  0.397800  1.0
  H  H2515  1  0.318500  0.086600  0.157800  1.0
  H  H2516  1  0.181500  0.913400  0.657800  1.0
  H  H2517  1  0.681500  0.913400  0.842200  1.0
  H  H2518  1  0.818500  0.086600  0.342200  1.0
  H  H2519  1  0.365200  0.077800  0.160400  1.0
  H  H2520  1  0.134800  0.922200  0.660400  1.0
  H  H2521  1  0.634800  0.922200  0.839600  1.0
  H  H2522  1  0.865200  0.077800  0.339600  1.0
  H  H2523  1  0.406800  0.256800  0.075000  1.0
  H  H2524  1  0.093200  0.743200  0.575000  1.0
  H  H2525  1  0.593200  0.743200  0.925000  1.0
  H  H2526  1  0.906800  0.256800  0.425000  1.0
  H  H2527  1  0.425700  0.212000  0.033700  1.0
  H  H2528  1  0.074300  0.788000  0.533700  1.0
  H  H2529  1  0.574300  0.788000  0.966300  1.0
  H  H2530  1  0.925700  0.212000  0.466300  1.0
  H  H2531  1  0.222200  0.086200  0.130900  1.0
  H  H2532  1  0.277800  0.913800  0.630900  1.0
  H  H2533  1  0.777800  0.913800  0.869100  1.0
  H  H2534  1  0.722200  0.086200  0.369100  1.0
  H  H2535  1  0.277000  0.178700  0.134500  1.0
  H  H2536  1  0.223000  0.821300  0.634500  1.0
  H  H2537  1  0.723000  0.821300  0.865500  1.0
  H  H2538  1  0.777000  0.178700  0.365500  1.0
  H  H2539  1  0.334100  0.198400  0.137100  1.0
  H  H2540  1  0.165900  0.801600  0.637100  1.0
  H  H2541  1  0.665900  0.801600  0.862900  1.0
  H  H2542  1  0.834100  0.198400  0.362900  1.0
  H  H2543  1  0.351400  0.178500  0.127000  1.0
  H  H2544  1  0.148600  0.821500  0.627000  1.0
  H  H2545  1  0.648600  0.821500  0.873000  1.0
  H  H2546  1  0.851400  0.178500  0.373000  1.0
  H  H2547  1  0.346900  0.175700  0.148000  1.0
  H  H2548  1  0.153100  0.824300  0.648000  1.0
  H  H2549  1  0.653100  0.824300  0.852000  1.0
  H  H2550  1  0.846900  0.175700  0.352000  1.0
  H  H2551  1  0.221100  0.162800  0.131200  1.0
  H  H2552  1  0.278900  0.837200  0.631200  1.0
  H  H2553  1  0.778900  0.837200  0.868800  1.0
  H  H2554  1  0.721100  0.162800  0.368800  1.0
  H  H2555  1  0.199900  0.129700  0.140300  1.0
  H  H2556  1  0.300100  0.870300  0.640300  1.0
  H  H2557  1  0.800100  0.870300  0.859700  1.0
  H  H2558  1  0.699900  0.129700  0.359700  1.0
  H  H2559  1  0.203700  0.132100  0.119200  1.0
  H  H2560  1  0.296300  0.867900  0.619200  1.0
  H  H2561  1  0.796300  0.867900  0.880800  1.0
  H  H2562  1  0.703700  0.132100  0.380800  1.0
  H  H2563  1  0.285300  0.059200  0.131800  1.0
  H  H2564  1  0.214700  0.940800  0.631800  1.0
  H  H2565  1  0.714700  0.940800  0.868200  1.0
  H  H2566  1  0.785300  0.059200  0.368200  1.0
  H  H2567  1  0.254000  0.052400  0.119400  1.0
  H  H2568  1  0.246000  0.947600  0.619400  1.0
  H  H2569  1  0.746000  0.947600  0.880600  1.0
  H  H2570  1  0.754000  0.052400  0.380600  1.0
  H  H2571  1  0.249700  0.049200  0.140400  1.0
  H  H2572  1  0.250300  0.950800  0.640400  1.0
  H  H2573  1  0.750300  0.950800  0.859600  1.0
  H  H2574  1  0.749700  0.049200  0.359600  1.0
  H  H2575  1  0.407000  0.202100  0.107900  1.0
  H  H2576  1  0.093000  0.797900  0.607900  1.0
  H  H2577  1  0.593000  0.797900  0.892100  1.0
  H  H2578  1  0.907000  0.202100  0.392100  1.0
  H  H2579  1  0.383300  0.219300  0.102600  1.0
  H  H2580  1  0.116700  0.780700  0.602600  1.0
  H  H2581  1  0.616700  0.780700  0.897400  1.0
  H  H2582  1  0.883300  0.219300  0.397400  1.0
  H  H2583  1  0.421400  0.239600  0.105800  1.0
  H  H2584  1  0.078600  0.760400  0.605800  1.0
  H  H2585  1  0.578600  0.760400  0.894200  1.0
  H  H2586  1  0.921400  0.239600  0.394200  1.0
  H  H2587  1  0.409500  0.278400  0.046500  1.0
  H  H2588  1  0.090500  0.721600  0.546500  1.0
  H  H2589  1  0.590500  0.721600  0.953500  1.0
  H  H2590  1  0.909500  0.278400  0.453500  1.0
  H  H2591  1  0.397200  0.252100  0.031400  1.0
  H  H2592  1  0.102800  0.747900  0.531400  1.0
  H  H2593  1  0.602800  0.747900  0.968600  1.0
  H  H2594  1  0.897200  0.252100  0.468600  1.0
  H  H2595  1  0.435500  0.272400  0.034000  1.0
  H  H2596  1  0.064500  0.727600  0.534000  1.0
  H  H2597  1  0.564500  0.727600  0.966000  1.0
  H  H2598  1  0.935500  0.272400  0.466000  1.0
  H  H2599  1  0.436000  0.166900  0.036300  1.0
  H  H2600  1  0.064000  0.833100  0.536300  1.0
  H  H2601  1  0.564000  0.833100  0.963700  1.0
  H  H2602  1  0.936000  0.166900  0.463700  1.0
  H  H2603  1  0.414900  0.143400  0.051400  1.0
  H  H2604  1  0.085100  0.856600  0.551400  1.0
  H  H2605  1  0.585100  0.856600  0.948600  1.0
  H  H2606  1  0.914900  0.143400  0.448600  1.0
  H  H2607  1  0.453300  0.163000  0.054200  1.0
  H  H2608  1  0.046700  0.837000  0.554200  1.0
  H  H2609  1  0.546700  0.837000  0.945800  1.0
  H  H2610  1  0.953300  0.163000  0.445800  1.0
  H  H2611  1  0.461700  0.112300  0.129900  1.0
  H  H2612  1  0.038300  0.887700  0.629900  1.0
  H  H2613  1  0.538300  0.887700  0.870100  1.0
  H  H2614  1  0.961700  0.112300  0.370100  1.0
  H  H2615  1  0.422500  0.087000  0.148500  1.0
  H  H2616  1  0.077500  0.913000  0.648500  1.0
  H  H2617  1  0.577500  0.913000  0.851500  1.0
  H  H2618  1  0.922500  0.087000  0.351500  1.0
  H  H2619  1  0.031600  0.253300  0.050200  1.0
  H  H2620  1  0.468400  0.746700  0.550200  1.0
  H  H2621  1  0.968400  0.746700  0.949800  1.0
  H  H2622  1  0.531600  0.253300  0.449800  1.0
  H  H2623  1  0.049700  0.284900  0.075800  1.0
  H  H2624  1  0.450300  0.715100  0.575800  1.0
  H  H2625  1  0.950300  0.715100  0.924200  1.0
  H  H2626  1  0.549700  0.284900  0.424200  1.0
  H  H2627  1  0.071300  0.158500  0.141900  1.0
  H  H2628  1  0.428700  0.841500  0.641900  1.0
  H  H2629  1  0.928700  0.841500  0.858100  1.0
  H  H2630  1  0.571300  0.158500  0.358100  1.0
  H  H2631  1  0.070600  0.211400  0.146700  1.0
  H  H2632  1  0.429400  0.788600  0.646700  1.0
  H  H2633  1  0.929400  0.788600  0.853300  1.0
  H  H2634  1  0.570600  0.211400  0.353300  1.0
  H  H2635  1  0.017900  0.058200  0.100600  1.0
  H  H2636  1  0.482100  0.941800  0.600600  1.0
  H  H2637  1  0.982100  0.941800  0.899400  1.0
  H  H2638  1  0.517900  0.058200  0.399400  1.0
  H  H2639  1  0.114000  0.089200  0.118200  1.0
  H  H2640  1  0.386000  0.910800  0.618200  1.0
  H  H2641  1  0.886000  0.910800  0.881800  1.0
  H  H2642  1  0.614000  0.089200  0.381800  1.0
  H  H2643  1  0.982000  0.129700  0.028300  1.0
  H  H2644  1  0.518000  0.870300  0.528300  1.0
  H  H2645  1  0.018000  0.870300  0.971700  1.0
  H  H2646  1  0.482000  0.129700  0.471700  1.0
  H  H2647  1  0.044000  0.201000  0.999400  1.0
  H  H2648  1  0.456000  0.799000  0.499400  1.0
  H  H2649  1  0.956000  0.799000  0.000600  1.0
  H  H2650  1  0.544000  0.201000  0.500600  1.0
  H  H2651  1  0.999500  0.163800  0.069800  1.0
  H  H2652  1  0.500500  0.836200  0.569800  1.0
  H  H2653  1  0.000500  0.836200  0.930200  1.0
  H  H2654  1  0.499500  0.163800  0.430200  1.0
  H  H2655  1  0.995100  0.131100  0.060500  1.0
  H  H2656  1  0.504900  0.868900  0.560500  1.0
  H  H2657  1  0.004900  0.868900  0.939500  1.0
  H  H2658  1  0.495100  0.131100  0.439500  1.0
  H  H2659  1  0.968000  0.145600  0.057900  1.0
  H  H2660  1  0.532000  0.854400  0.557900  1.0
  H  H2661  1  0.032000  0.854400  0.942100  1.0
  H  H2662  1  0.468000  0.145600  0.442100  1.0
  H  H2663  1  0.068400  0.259800  0.133000  1.0
  H  H2664  1  0.431600  0.740200  0.633000  1.0
  H  H2665  1  0.931600  0.740200  0.867000  1.0
  H  H2666  1  0.568400  0.259800  0.367000  1.0
  H  H2667  1  0.123400  0.168000  0.126000  1.0
  H  H2668  1  0.376600  0.832000  0.626000  1.0
  H  H2669  1  0.876600  0.832000  0.874000  1.0
  H  H2670  1  0.623400  0.168000  0.374000  1.0
  H  H2671  1  0.143900  0.150000  0.117100  1.0
  H  H2672  1  0.356100  0.850000  0.617100  1.0
  H  H2673  1  0.856100  0.850000  0.882900  1.0
  H  H2674  1  0.643900  0.150000  0.382900  1.0
  H  H2675  1  0.130600  0.141700  0.136900  1.0
  H  H2676  1  0.369400  0.858300  0.636900  1.0
  H  H2677  1  0.869400  0.858300  0.863100  1.0
  H  H2678  1  0.630600  0.141700  0.363100  1.0
  H  H2679  1  0.992600  0.090900  0.096000  1.0
  H  H2680  1  0.507400  0.909100  0.596000  1.0
  H  H2681  1  0.007400  0.909100  0.904000  1.0
  H  H2682  1  0.492600  0.090900  0.404000  1.0
  H  H2683  1  0.015900  0.126000  0.090400  1.0
  H  H2684  1  0.484100  0.874000  0.590400  1.0
  H  H2685  1  0.984100  0.874000  0.909600  1.0
  H  H2686  1  0.515900  0.126000  0.409600  1.0
  H  H2687  1  0.001600  0.119000  0.110000  1.0
  H  H2688  1  0.498400  0.881000  0.610000  1.0
  H  H2689  1  0.998400  0.881000  0.890000  1.0
  H  H2690  1  0.501600  0.119000  0.390000  1.0
  H  H2691  1  0.085400  0.034000  0.111800  1.0
  H  H2692  1  0.414600  0.966000  0.611800  1.0
  H  H2693  1  0.914600  0.966000  0.888200  1.0
  H  H2694  1  0.585400  0.034000  0.388200  1.0
  H  H2695  1  0.061200  0.028700  0.095300  1.0
  H  H2696  1  0.438800  0.971300  0.595300  1.0
  H  H2697  1  0.938800  0.971300  0.904700  1.0
  H  H2698  1  0.561200  0.028700  0.404700  1.0
  H  H2699  1  0.046700  0.019700  0.114800  1.0
  H  H2700  1  0.453300  0.980300  0.614800  1.0
  H  H2701  1  0.953300  0.980300  0.885200  1.0
  H  H2702  1  0.546700  0.019700  0.385200  1.0
  H  H2703  1  0.085100  0.245800  0.010700  1.0
  H  H2704  1  0.414900  0.754200  0.510700  1.0
  H  H2705  1  0.914900  0.754200  0.989300  1.0
  H  H2706  1  0.585100  0.245800  0.489300  1.0
  H  H2707  1  0.097200  0.241500  0.030000  1.0
  H  H2708  1  0.402800  0.758500  0.530000  1.0
  H  H2709  1  0.902800  0.758500  0.970000  1.0
  H  H2710  1  0.597200  0.241500  0.470000  1.0
  H  H2711  1  0.073200  0.259500  0.027500  1.0
  H  H2712  1  0.426800  0.740500  0.527500  1.0
  H  H2713  1  0.926800  0.740500  0.972500  1.0
  H  H2714  1  0.573200  0.259500  0.472500  1.0
  H  H2715  1  0.984300  0.121300  0.996900  1.0
  H  H2716  1  0.515700  0.878700  0.496900  1.0
  H  H2717  1  0.015700  0.878700  0.003100  1.0
  H  H2718  1  0.484300  0.121300  0.503100  1.0
  H  H2719  1  0.022100  0.134700  0.991400  1.0
  H  H2720  1  0.477900  0.865300  0.491400  1.0
  H  H2721  1  0.977900  0.865300  0.008600  1.0
  H  H2722  1  0.522100  0.134700  0.508600  1.0
  H  H2723  1  0.999200  0.152300  0.984900  1.0
  H  H2724  1  0.500800  0.847700  0.484900  1.0
  H  H2725  1  0.000800  0.847700  0.015100  1.0
  H  H2726  1  0.499200  0.152300  0.515100  1.0
  H  H2727  1  0.079200  0.811000  0.995400  1.0
  H  H2728  1  0.420800  0.189000  0.495400  1.0
  H  H2729  1  0.920800  0.189000  0.004600  1.0
  H  H2730  1  0.579200  0.811000  0.504600  1.0
  H  H2731  1  0.032100  0.779500  0.010800  1.0
  H  H2732  1  0.467900  0.220500  0.510800  1.0
  H  H2733  1  0.967900  0.220500  0.989200  1.0
  H  H2734  1  0.532100  0.779500  0.489200  1.0
  H  H2735  1  0.057800  0.871400  0.102400  1.0
  H  H2736  1  0.442200  0.128600  0.602400  1.0
  H  H2737  1  0.942200  0.128600  0.897600  1.0
  H  H2738  1  0.557800  0.871400  0.397600  1.0
  H  H2739  1  0.014700  0.821500  0.091600  1.0
  H  H2740  1  0.485300  0.178500  0.591600  1.0
  H  H2741  1  0.985300  0.178500  0.908400  1.0
  H  H2742  1  0.514700  0.821500  0.408400  1.0
  H  H2743  1  0.188700  0.932700  0.094800  1.0
  H  H2744  1  0.311300  0.067300  0.594800  1.0
  H  H2745  1  0.811300  0.067300  0.905200  1.0
  H  H2746  1  0.688700  0.932700  0.405200  1.0
  H  H2747  1  0.131000  0.976700  0.105200  1.0
  H  H2748  1  0.369000  0.023300  0.605200  1.0
  H  H2749  1  0.869000  0.023300  0.894800  1.0
  H  H2750  1  0.631000  0.976700  0.394800  1.0
  H  H2751  1  0.992300  0.785200  0.066100  1.0
  H  H2752  1  0.507700  0.214800  0.566100  1.0
  H  H2753  1  0.007700  0.214800  0.933900  1.0
  H  H2754  1  0.492300  0.785200  0.433900  1.0
  H  H2755  1  0.076200  0.958600  0.100400  1.0
  H  H2756  1  0.423800  0.041400  0.600400  1.0
  H  H2757  1  0.923800  0.041400  0.899600  1.0
  H  H2758  1  0.576200  0.958600  0.399600  1.0
  H  H2759  1  0.056000  0.921200  0.100000  1.0
  H  H2760  1  0.444000  0.078800  0.600000  1.0
  H  H2761  1  0.944000  0.078800  0.900000  1.0
  H  H2762  1  0.556000  0.921200  0.400000  1.0
  H  H2763  1  0.065600  0.940700  0.081900  1.0
  H  H2764  1  0.434400  0.059300  0.581900  1.0
  H  H2765  1  0.934400  0.059300  0.918100  1.0
  H  H2766  1  0.565600  0.940700  0.418100  1.0
  H  H2767  1  0.167600  0.880300  0.079200  1.0
  H  H2768  1  0.332400  0.119700  0.579200  1.0
  H  H2769  1  0.832400  0.119700  0.920800  1.0
  H  H2770  1  0.667600  0.880300  0.420800  1.0
  H  H2771  1  0.140300  0.877900  0.064800  1.0
  H  H2772  1  0.359700  0.122100  0.564800  1.0
  H  H2773  1  0.859700  0.122100  0.935200  1.0
  H  H2774  1  0.640300  0.877900  0.435200  1.0
  H  H2775  1  0.129900  0.859100  0.083100  1.0
  H  H2776  1  0.370100  0.140900  0.583100  1.0
  H  H2777  1  0.870100  0.140900  0.916900  1.0
  H  H2778  1  0.629900  0.859100  0.416900  1.0
  H  H2779  1  0.185100  0.003700  0.111800  1.0
  H  H2780  1  0.314900  0.996300  0.611800  1.0
  H  H2781  1  0.814900  0.996300  0.888200  1.0
  H  H2782  1  0.685100  0.003700  0.388200  1.0
  H  H2783  1  0.208000  0.996300  0.097700  1.0
  H  H2784  1  0.292000  0.003700  0.597700  1.0
  H  H2785  1  0.792000  0.003700  0.902300  1.0
  H  H2786  1  0.708000  0.996300  0.402300  1.0
  H  H2787  1  0.202700  0.980400  0.116900  1.0
  H  H2788  1  0.297300  0.019600  0.616900  1.0
  H  H2789  1  0.797300  0.019600  0.883100  1.0
  H  H2790  1  0.702700  0.980400  0.383100  1.0
  H  H2791  1  0.023700  0.983800  0.870700  1.0
  H  H2792  1  0.476300  0.016200  0.370700  1.0
  H  H2793  1  0.976300  0.016200  0.129300  1.0
  H  H2794  1  0.523700  0.983800  0.629300  1.0
  H  H2795  1  0.036900  0.012900  0.844000  1.0
  H  H2796  1  0.463100  0.987100  0.344000  1.0
  H  H2797  1  0.963100  0.987100  0.156000  1.0
  H  H2798  1  0.536900  0.012900  0.656000  1.0
  H  H2799  1  0.071300  0.186300  0.879900  1.0
  H  H2800  1  0.428700  0.813700  0.379900  1.0
  H  H2801  1  0.928700  0.813700  0.120100  1.0
  H  H2802  1  0.571300  0.186300  0.620100  1.0
  H  H2803  1  0.076100  0.166600  0.849600  1.0
  H  H2804  1  0.423900  0.833400  0.349600  1.0
  H  H2805  1  0.923900  0.833400  0.150400  1.0
  H  H2806  1  0.576100  0.166600  0.650400  1.0
  H  H2807  1  0.020800  0.148300  0.944300  1.0
  H  H2808  1  0.479200  0.851700  0.444300  1.0
  H  H2809  1  0.979200  0.851700  0.055700  1.0
  H  H2810  1  0.520800  0.148300  0.555700  1.0
  H  H2811  1  0.992000  0.987200  0.940200  1.0
  H  H2812  1  0.508000  0.012800  0.440200  1.0
  H  H2813  1  0.008000  0.012800  0.059800  1.0
  H  H2814  1  0.492000  0.987200  0.559800  1.0
  H  H2815  1  0.056000  0.951500  0.923700  1.0
  H  H2816  1  0.444000  0.048500  0.423700  1.0
  H  H2817  1  0.944000  0.048500  0.076300  1.0
  H  H2818  1  0.556000  0.951500  0.576300  1.0
  H  H2819  1  0.002600  0.040600  0.902600  1.0
  H  H2820  1  0.497400  0.959400  0.402600  1.0
  H  H2821  1  0.997400  0.959400  0.097400  1.0
  H  H2822  1  0.502600  0.040600  0.597400  1.0
  H  H2823  1  0.999600  0.043300  0.923500  1.0
  H  H2824  1  0.500400  0.956700  0.423500  1.0
  H  H2825  1  0.000400  0.956700  0.076500  1.0
  H  H2826  1  0.499600  0.043300  0.576500  1.0
  H  H2827  1  0.971400  0.016300  0.912800  1.0
  H  H2828  1  0.528600  0.983700  0.412800  1.0
  H  H2829  1  0.028600  0.983700  0.087200  1.0
  H  H2830  1  0.471400  0.016300  0.587200  1.0
  H  H2831  1  0.063800  0.118200  0.831000  1.0
  H  H2832  1  0.436200  0.881800  0.331000  1.0
  H  H2833  1  0.936200  0.881800  0.169000  1.0
  H  H2834  1  0.563800  0.118200  0.669000  1.0
  H  H2835  1  0.015300  0.112200  0.901700  1.0
  H  H2836  1  0.484700  0.887800  0.401700  1.0
  H  H2837  1  0.984700  0.887800  0.098300  1.0
  H  H2838  1  0.515300  0.112200  0.598300  1.0
  H  H2839  1  0.991900  0.124600  0.912800  1.0
  H  H2840  1  0.508100  0.875400  0.412800  1.0
  H  H2841  1  0.008100  0.875400  0.087200  1.0
  H  H2842  1  0.491900  0.124600  0.587200  1.0
  H  H2843  1  0.004100  0.099200  0.921300  1.0
  H  H2844  1  0.495900  0.900800  0.421300  1.0
  H  H2845  1  0.995900  0.900800  0.078700  1.0
  H  H2846  1  0.504100  0.099200  0.578700  1.0
  H  H2847  1  0.085800  0.967300  0.895500  1.0
  H  H2848  1  0.414200  0.032700  0.395500  1.0
  H  H2849  1  0.914200  0.032700  0.104500  1.0
  H  H2850  1  0.585800  0.967300  0.604500  1.0
  H  H2851  1  0.094000  0.003900  0.892000  1.0
  H  H2852  1  0.406000  0.996100  0.392000  1.0
  H  H2853  1  0.906000  0.996100  0.108000  1.0
  H  H2854  1  0.594000  0.003900  0.608000  1.0
  H  H2855  1  0.065700  0.977600  0.880900  1.0
  H  H2856  1  0.434300  0.022400  0.380900  1.0
  H  H2857  1  0.934300  0.022400  0.119100  1.0
  H  H2858  1  0.565700  0.977600  0.619100  1.0
  H  H2859  1  0.997400  0.949900  0.957500  1.0
  H  H2860  1  0.502600  0.050100  0.457500  1.0
  H  H2861  1  0.002600  0.050100  0.042500  1.0
  H  H2862  1  0.497400  0.949900  0.542500  1.0
  H  H2863  1  0.033500  0.950100  0.957500  1.0
  H  H2864  1  0.466500  0.049900  0.457500  1.0
  H  H2865  1  0.966500  0.049900  0.042500  1.0
  H  H2866  1  0.533500  0.950100  0.542500  1.0
  H  H2867  1  0.004600  0.923000  0.947200  1.0
  H  H2868  1  0.495400  0.077000  0.447200  1.0
  H  H2869  1  0.995400  0.077000  0.052800  1.0
  H  H2870  1  0.504600  0.923000  0.552800  1.0
  H  H2871  1  0.467100  0.339000  0.945700  1.0
  H  H2872  1  0.032900  0.661000  0.445700  1.0
  H  H2873  1  0.532900  0.661000  0.054300  1.0
  H  H2874  1  0.967100  0.339000  0.554300  1.0
  H  H2875  1  0.464300  0.351200  0.915700  1.0
  H  H2876  1  0.035700  0.648800  0.415700  1.0
  H  H2877  1  0.535700  0.648800  0.084300  1.0
  H  H2878  1  0.964300  0.351200  0.584300  1.0
  H  H2879  1  0.615700  0.516700  0.910400  1.0
  H  H2880  1  0.884300  0.483300  0.410400  1.0
  H  H2881  1  0.384300  0.483300  0.089600  1.0
  H  H2882  1  0.115700  0.516700  0.589600  1.0
  H  H2883  1  0.575300  0.486300  0.887900  1.0
  H  H2884  1  0.924700  0.513700  0.387900  1.0
  H  H2885  1  0.424700  0.513700  0.112100  1.0
  H  H2886  1  0.075300  0.486300  0.612100  1.0
  H  H2887  1  0.624700  0.531800  0.978200  1.0
  H  H2888  1  0.875300  0.468200  0.478200  1.0
  H  H2889  1  0.375300  0.468200  0.021800  1.0
  H  H2890  1  0.124700  0.531800  0.521800  1.0
  H  H2891  1  0.704500  0.534800  0.950600  1.0
  H  H2892  1  0.795500  0.465200  0.450600  1.0
  H  H2893  1  0.295500  0.465200  0.049400  1.0
  H  H2894  1  0.204500  0.534800  0.549400  1.0
  H  H2895  1  0.521200  0.386400  0.009200  1.0
  H  H2896  1  0.978800  0.613600  0.509200  1.0
  H  H2897  1  0.478800  0.613600  0.990800  1.0
  H  H2898  1  0.021200  0.386400  0.490800  1.0
  H  H2899  1  0.507500  0.299900  0.992200  1.0
  H  H2900  1  0.992500  0.700100  0.492200  1.0
  H  H2901  1  0.492500  0.700100  0.007800  1.0
  H  H2902  1  0.007500  0.299900  0.507800  1.0
  H  H2903  1  0.524800  0.419800  0.965700  1.0
  H  H2904  1  0.975200  0.580200  0.465700  1.0
  H  H2905  1  0.475200  0.580200  0.034300  1.0
  H  H2906  1  0.024800  0.419800  0.534300  1.0
  H  H2907  1  0.546800  0.430200  0.983200  1.0
  H  H2908  1  0.953200  0.569800  0.483200  1.0
  H  H2909  1  0.453200  0.569800  0.016800  1.0
  H  H2910  1  0.046800  0.430200  0.516800  1.0
  H  H2911  1  0.508200  0.421600  0.984300  1.0
  H  H2912  1  0.991800  0.578400  0.484300  1.0
  H  H2913  1  0.491800  0.578400  0.015700  1.0
  H  H2914  1  0.008200  0.421600  0.515700  1.0
  H  H2915  1  0.524400  0.438700  0.882100  1.0
  H  H2916  1  0.975600  0.561300  0.382100  1.0
  H  H2917  1  0.475600  0.561300  0.117900  1.0
  H  H2918  1  0.024400  0.438700  0.617900  1.0
  H  H2919  1  0.701000  0.507600  0.923700  1.0
  H  H2920  1  0.799000  0.492400  0.423700  1.0
  H  H2921  1  0.299000  0.492400  0.076300  1.0
  H  H2922  1  0.201000  0.507600  0.576300  1.0
  H  H2923  1  0.669800  0.504100  0.911900  1.0
  H  H2924  1  0.830200  0.495900  0.411900  1.0
  H  H2925  1  0.330200  0.495900  0.088100  1.0
  H  H2926  1  0.169800  0.504100  0.588100  1.0
  H  H2927  1  0.669600  0.474900  0.923500  1.0
  H  H2928  1  0.830400  0.525100  0.423500  1.0
  H  H2929  1  0.330400  0.525100  0.076500  1.0
  H  H2930  1  0.169600  0.474900  0.576500  1.0
  H  H2931  1  0.574700  0.507600  0.968100  1.0
  H  H2932  1  0.925300  0.492400  0.468100  1.0
  H  H2933  1  0.425300  0.492400  0.031900  1.0
  H  H2934  1  0.074700  0.507600  0.531900  1.0
  H  H2935  1  0.567900  0.475900  0.957200  1.0
  H  H2936  1  0.932100  0.524100  0.457200  1.0
  H  H2937  1  0.432100  0.524100  0.042800  1.0
  H  H2938  1  0.067900  0.475900  0.542800  1.0
  H  H2939  1  0.572200  0.507700  0.947000  1.0
  H  H2940  1  0.927800  0.492300  0.447000  1.0
  H  H2941  1  0.427800  0.492300  0.053000  1.0
  H  H2942  1  0.072200  0.507700  0.553000  1.0
  H  H2943  1  0.506100  0.314600  0.945600  1.0
  H  H2944  1  0.993900  0.685400  0.445600  1.0
  H  H2945  1  0.493900  0.685400  0.054400  1.0
  H  H2946  1  0.006100  0.314600  0.554400  1.0
  H  H2947  1  0.485300  0.286500  0.958700  1.0
  H  H2948  1  0.014700  0.713500  0.458700  1.0
  H  H2949  1  0.514700  0.713500  0.041300  1.0
  H  H2950  1  0.985300  0.286500  0.541300  1.0
  H  H2951  1  0.524100  0.297300  0.957400  1.0
  H  H2952  1  0.975900  0.702700  0.457400  1.0
  H  H2953  1  0.475900  0.702700  0.042600  1.0
  H  H2954  1  0.024100  0.297300  0.542600  1.0
  H  H2955  1  0.515500  0.347500  0.031000  1.0
  H  H2956  1  0.984500  0.652500  0.531000  1.0
  H  H2957  1  0.484500  0.652500  0.969000  1.0
  H  H2958  1  0.015500  0.347500  0.469000  1.0
  H  H2959  1  0.532400  0.324400  0.024600  1.0
  H  H2960  1  0.967600  0.675600  0.524600  1.0
  H  H2961  1  0.467600  0.675600  0.975400  1.0
  H  H2962  1  0.032400  0.324400  0.475400  1.0
  H  H2963  1  0.493300  0.312200  0.025200  1.0
  H  H2964  1  0.006700  0.687800  0.525200  1.0
  H  H2965  1  0.506700  0.687800  0.974800  1.0
  H  H2966  1  0.993300  0.312200  0.474800  1.0
  H  H2967  1  0.646100  0.341100  0.160900  1.0
  H  H2968  1  0.853900  0.658900  0.660900  1.0
  H  H2969  1  0.353900  0.658900  0.839100  1.0
  H  H2970  1  0.146100  0.341100  0.339100  1.0
  H  H2971  1  0.597800  0.344500  0.169800  1.0
  H  H2972  1  0.902200  0.655500  0.669800  1.0
  H  H2973  1  0.402200  0.655500  0.830200  1.0
  H  H2974  1  0.097800  0.344500  0.330200  1.0
  H  H2975  1  0.473700  0.236000  0.098100  1.0
  H  H2976  1  0.026300  0.764000  0.598100  1.0
  H  H2977  1  0.526300  0.764000  0.901900  1.0
  H  H2978  1  0.973700  0.236000  0.401900  1.0
  H  H2979  1  0.466300  0.258400  0.123800  1.0
  H  H2980  1  0.033700  0.741600  0.623800  1.0
  H  H2981  1  0.533700  0.741600  0.876200  1.0
  H  H2982  1  0.966300  0.258400  0.376200  1.0
  H  H2983  1  0.737200  0.346800  0.126800  1.0
  H  H2984  1  0.762800  0.653200  0.626800  1.0
  H  H2985  1  0.262800  0.653200  0.873200  1.0
  H  H2986  1  0.237200  0.346800  0.373200  1.0
  H  H2987  1  0.686400  0.254400  0.132900  1.0
  H  H2988  1  0.813600  0.745600  0.632900  1.0
  H  H2989  1  0.313600  0.745600  0.867100  1.0
  H  H2990  1  0.186400  0.254400  0.367100  1.0
  H  H2991  1  0.510900  0.221400  0.041600  1.0
  H  H2992  1  0.989100  0.778600  0.541600  1.0
  H  H2993  1  0.489100  0.778600  0.958400  1.0
  H  H2994  1  0.010900  0.221400  0.458400  1.0
  H  H2995  1  0.544200  0.173200  0.075000  1.0
  H  H2996  1  0.955800  0.826800  0.575000  1.0
  H  H2997  1  0.455800  0.826800  0.925000  1.0
  H  H2998  1  0.044200  0.173200  0.425000  1.0
  H  H2999  1  0.522400  0.180400  0.029500  1.0
  H  H3000  1  0.977600  0.819600  0.529500  1.0
  H  H3001  1  0.477600  0.819600  0.970500  1.0
  H  H3002  1  0.022400  0.180400  0.470500  1.0
  H  H3003  1  0.516000  0.151300  0.042600  1.0
  H  H3004  1  0.984000  0.848700  0.542600  1.0
  H  H3005  1  0.484000  0.848700  0.957400  1.0
  H  H3006  1  0.016000  0.151300  0.457400  1.0
  H  H3007  1  0.552500  0.176100  0.039100  1.0
  H  H3008  1  0.947500  0.823900  0.539100  1.0
  H  H3009  1  0.447500  0.823900  0.960900  1.0
  H  H3010  1  0.052500  0.176100  0.460900  1.0
  H  H3011  1  0.553100  0.185700  0.104500  1.0
  H  H3012  1  0.946900  0.814300  0.604500  1.0
  H  H3013  1  0.446900  0.814300  0.895500  1.0
  H  H3014  1  0.053100  0.185700  0.395500  1.0
  H  H3015  1  0.528300  0.199400  0.112900  1.0
  H  H3016  1  0.971700  0.800600  0.612900  1.0
  H  H3017  1  0.471700  0.800600  0.887100  1.0
  H  H3018  1  0.028300  0.199400  0.387100  1.0
  H  H3019  1  0.565500  0.222400  0.109200  1.0
  H  H3020  1  0.934500  0.777600  0.609200  1.0
  H  H3021  1  0.434500  0.777600  0.890800  1.0
  H  H3022  1  0.065500  0.222400  0.390800  1.0
  H  H3023  1  0.505100  0.277500  0.073700  1.0
  H  H3024  1  0.994900  0.722500  0.573700  1.0
  H  H3025  1  0.494900  0.722500  0.926300  1.0
  H  H3026  1  0.005100  0.277500  0.426300  1.0
  H  H3027  1  0.481500  0.255800  0.058700  1.0
  H  H3028  1  0.018500  0.744200  0.558700  1.0
  H  H3029  1  0.518500  0.744200  0.941300  1.0
  H  H3030  1  0.981500  0.255800  0.441300  1.0
  H  H3031  1  0.518000  0.279100  0.053800  1.0
  H  H3032  1  0.982000  0.720900  0.553800  1.0
  H  H3033  1  0.482000  0.720900  0.946200  1.0
  H  H3034  1  0.018000  0.279100  0.446200  1.0
  H  H3035  1  0.669100  0.370500  0.133500  1.0
  H  H3036  1  0.830900  0.629500  0.633500  1.0
  H  H3037  1  0.330900  0.629500  0.866500  1.0
  H  H3038  1  0.169100  0.370500  0.366500  1.0
  H  H3039  1  0.698400  0.379200  0.119500  1.0
  H  H3040  1  0.801600  0.620800  0.619500  1.0
  H  H3041  1  0.301600  0.620800  0.880500  1.0
  H  H3042  1  0.198400  0.379200  0.380500  1.0
  H  H3043  1  0.706200  0.383000  0.140200  1.0
  H  H3044  1  0.793800  0.617000  0.640200  1.0
  H  H3045  1  0.293800  0.617000  0.859800  1.0
  H  H3046  1  0.206200  0.383000  0.359800  1.0
  H  H3047  1  0.608300  0.258400  0.140100  1.0
  H  H3048  1  0.891700  0.741600  0.640100  1.0
  H  H3049  1  0.391700  0.741600  0.859900  1.0
  H  H3050  1  0.108300  0.258400  0.359900  1.0
  H  H3051  1  0.629300  0.241400  0.149500  1.0
  H  H3052  1  0.870700  0.758600  0.649500  1.0
  H  H3053  1  0.370700  0.758600  0.850500  1.0
  H  H3054  1  0.129300  0.241400  0.350500  1.0
  H  H3055  1  0.621600  0.236400  0.128800  1.0
  H  H3056  1  0.878400  0.763600  0.628800  1.0
  H  H3057  1  0.378400  0.763600  0.871200  1.0
  H  H3058  1  0.121600  0.236400  0.371200  1.0
  H  H3059  1  0.765000  0.316300  0.124500  1.0
  H  H3060  1  0.735000  0.683700  0.624500  1.0
  H  H3061  1  0.235000  0.683700  0.875500  1.0
  H  H3062  1  0.265000  0.316300  0.375500  1.0
  H  H3063  1  0.744500  0.283000  0.115300  1.0
  H  H3064  1  0.755500  0.717000  0.615300  1.0
  H  H3065  1  0.255500  0.717000  0.884700  1.0
  H  H3066  1  0.244500  0.283000  0.384700  1.0
  H  H3067  1  0.751900  0.284700  0.136100  1.0
  H  H3068  1  0.748100  0.715300  0.636100  1.0
  H  H3069  1  0.248100  0.715300  0.863900  1.0
  H  H3070  1  0.251900  0.284700  0.363900  1.0
  H  H3071  1  0.535600  0.322800  0.166500  1.0
  H  H3072  1  0.964400  0.677200  0.666500  1.0
  H  H3073  1  0.464400  0.677200  0.833500  1.0
  H  H3074  1  0.035600  0.322800  0.333500  1.0
  H  H3075  1  0.490200  0.292700  0.151300  1.0
  H  H3076  1  0.009800  0.707300  0.651300  1.0
  H  H3077  1  0.509800  0.707300  0.848700  1.0
  H  H3078  1  0.990200  0.292700  0.348700  1.0
  H  H3079  1  0.877100  0.162100  0.042200  1.0
  H  H3080  1  0.622900  0.837900  0.542200  1.0
  H  H3081  1  0.122900  0.837900  0.957800  1.0
  H  H3082  1  0.377100  0.162100  0.457800  1.0
  H  H3083  1  0.881400  0.144500  0.070900  1.0
  H  H3084  1  0.618600  0.855500  0.570900  1.0
  H  H3085  1  0.118600  0.855500  0.929100  1.0
  H  H3086  1  0.381400  0.144500  0.429100  1.0
  H  H3087  1  0.899300  0.292700  0.130200  1.0
  H  H3088  1  0.600700  0.707300  0.630200  1.0
  H  H3089  1  0.100700  0.707300  0.869800  1.0
  H  H3090  1  0.399300  0.292700  0.369800  1.0
  H  H3091  1  0.887200  0.236500  0.138100  1.0
  H  H3092  1  0.612800  0.763500  0.638100  1.0
  H  H3093  1  0.112800  0.763500  0.861900  1.0
  H  H3094  1  0.387200  0.236500  0.361900  1.0
  H  H3095  1  0.943400  0.380400  0.081000  1.0
  H  H3096  1  0.556600  0.619600  0.581000  1.0
  H  H3097  1  0.056600  0.619600  0.919000  1.0
  H  H3098  1  0.443400  0.380400  0.419000  1.0
  H  H3099  1  0.862800  0.367000  0.110900  1.0
  H  H3100  1  0.637200  0.633000  0.610900  1.0
  H  H3101  1  0.137200  0.633000  0.889100  1.0
  H  H3102  1  0.362800  0.367000  0.389100  1.0
  H  H3103  1  0.929200  0.248200  0.049800  1.0
  H  H3104  1  0.570800  0.751800  0.549800  1.0
  H  H3105  1  0.070800  0.751800  0.950200  1.0
  H  H3106  1  0.429200  0.248200  0.450200  1.0
  H  H3107  1  0.939700  0.279600  0.038100  1.0
  H  H3108  1  0.560300  0.720400  0.538100  1.0
  H  H3109  1  0.060300  0.720400  0.961900  1.0
  H  H3110  1  0.439700  0.279600  0.461900  1.0
  H  H3111  1  0.954100  0.253500  0.033600  1.0
  H  H3112  1  0.545900  0.746500  0.533600  1.0
  H  H3113  1  0.045900  0.746500  0.966400  1.0
  H  H3114  1  0.454100  0.253500  0.466400  1.0
  H  H3115  1  0.840300  0.195400  0.993600  1.0
  H  H3116  1  0.659700  0.804600  0.493600  1.0
  H  H3117  1  0.159700  0.804600  0.006400  1.0
  H  H3118  1  0.340300  0.195400  0.506400  1.0
  H  H3119  1  0.883700  0.184700  0.126600  1.0
  H  H3120  1  0.616300  0.815300  0.626600  1.0
  H  H3121  1  0.116300  0.815300  0.873400  1.0
  H  H3122  1  0.383700  0.184700  0.373400  1.0
  H  H3123  1  0.828700  0.316300  0.122600  1.0
  H  H3124  1  0.671300  0.683700  0.622600  1.0
  H  H3125  1  0.171300  0.683700  0.877400  1.0
  H  H3126  1  0.328700  0.316300  0.377400  1.0
  H  H3127  1  0.852700  0.301000  0.130200  1.0
  H  H3128  1  0.647300  0.699000  0.630200  1.0
  H  H3129  1  0.147300  0.699000  0.869800  1.0
  H  H3130  1  0.352700  0.301000  0.369800  1.0
  H  H3131  1  0.831100  0.286400  0.113000  1.0
  H  H3132  1  0.668900  0.713600  0.613000  1.0
  H  H3133  1  0.168900  0.713600  0.887000  1.0
  H  H3134  1  0.331100  0.286400  0.387000  1.0
  H  H3135  1  0.958700  0.337200  0.074300  1.0
  H  H3136  1  0.541300  0.662800  0.574300  1.0
  H  H3137  1  0.041300  0.662800  0.925700  1.0
  H  H3138  1  0.458700  0.337200  0.425700  1.0
  H  H3139  1  0.928400  0.303700  0.074100  1.0
  H  H3140  1  0.571600  0.696300  0.574100  1.0
  H  H3141  1  0.071600  0.696300  0.925900  1.0
  H  H3142  1  0.428400  0.303700  0.425900  1.0
  H  H3143  1  0.952200  0.313900  0.090900  1.0
  H  H3144  1  0.547800  0.686100  0.590900  1.0
  H  H3145  1  0.047800  0.686100  0.909100  1.0
  H  H3146  1  0.452200  0.313900  0.409100  1.0
  H  H3147  1  0.894000  0.420700  0.096800  1.0
  H  H3148  1  0.606000  0.579300  0.596800  1.0
  H  H3149  1  0.106000  0.579300  0.903200  1.0
  H  H3150  1  0.394000  0.420700  0.403200  1.0
  H  H3151  1  0.909700  0.417700  0.078200  1.0
  H  H3152  1  0.590300  0.582300  0.578200  1.0
  H  H3153  1  0.090300  0.582300  0.921800  1.0
  H  H3154  1  0.409700  0.417700  0.421800  1.0
  H  H3155  1  0.932300  0.428100  0.095400  1.0
  H  H3156  1  0.567700  0.571900  0.595400  1.0
  H  H3157  1  0.067700  0.571900  0.904600  1.0
  H  H3158  1  0.432300  0.428100  0.404600  1.0
  H  H3159  1  0.802500  0.168700  0.016900  1.0
  H  H3160  1  0.697500  0.831300  0.516900  1.0
  H  H3161  1  0.197500  0.831300  0.983100  1.0
  H  H3162  1  0.302500  0.168700  0.483100  1.0
  H  H3163  1  0.809300  0.187700  0.035200  1.0
  H  H3164  1  0.690700  0.812300  0.535200  1.0
  H  H3165  1  0.190700  0.812300  0.964800  1.0
  H  H3166  1  0.309300  0.187700  0.464800  1.0
  H  H3167  1  0.822000  0.159900  0.032300  1.0
  H  H3168  1  0.678000  0.840100  0.532300  1.0
  H  H3169  1  0.178000  0.840100  0.967700  1.0
  H  H3170  1  0.322000  0.159900  0.467700  1.0
  H  H3171  1  0.490700  0.081700  0.958900  1.0
  H  H3172  1  0.009300  0.918300  0.458900  1.0
  H  H3173  1  0.509300  0.918300  0.041100  1.0
  H  H3174  1  0.990700  0.081700  0.541100  1.0
  H  H3175  1  0.494200  0.032000  0.957400  1.0
  H  H3176  1  0.005800  0.968000  0.457400  1.0
  H  H3177  1  0.505800  0.968000  0.042600  1.0
  H  H3178  1  0.994200  0.032000  0.542600  1.0
  H  H3179  1  0.686700  0.075700  0.948700  1.0
  H  H3180  1  0.813300  0.924300  0.448700  1.0
  H  H3181  1  0.313300  0.924300  0.051300  1.0
  H  H3182  1  0.186700  0.075700  0.551300  1.0
  H  H3183  1  0.638400  0.024800  0.952900  1.0
  H  H3184  1  0.861600  0.975200  0.452900  1.0
  H  H3185  1  0.361600  0.975200  0.047100  1.0
  H  H3186  1  0.138400  0.024800  0.547100  1.0
  H  H3187  1  0.528600  0.000300  0.959900  1.0
  H  H3188  1  0.971400  0.999700  0.459900  1.0
  H  H3189  1  0.471400  0.999700  0.040100  1.0
  H  H3190  1  0.028600  0.000300  0.540100  1.0
  H  H3191  1  0.579800  0.999400  0.961100  1.0
  H  H3192  1  0.920200  0.000600  0.461100  1.0
  H  H3193  1  0.420200  0.000600  0.038900  1.0
  H  H3194  1  0.079800  0.999400  0.538900  1.0
  H  H3195  1  0.710100  0.180300  0.908300  1.0
  H  H3196  1  0.789900  0.819700  0.408300  1.0
  H  H3197  1  0.289900  0.819700  0.091700  1.0
  H  H3198  1  0.210100  0.180300  0.591700  1.0
  H  H3199  1  0.760500  0.175400  0.952100  1.0
  H  H3200  1  0.739500  0.824600  0.452100  1.0
  H  H3201  1  0.239500  0.824600  0.047900  1.0
  H  H3202  1  0.260500  0.175400  0.547900  1.0
  H  H3203  1  0.738700  0.133400  0.973600  1.0
  H  H3204  1  0.761300  0.866600  0.473600  1.0
  H  H3205  1  0.261300  0.866600  0.026400  1.0
  H  H3206  1  0.238700  0.133400  0.526400  1.0
  H  H3207  1  0.715100  0.101300  0.964400  1.0
  H  H3208  1  0.784900  0.898700  0.464400  1.0
  H  H3209  1  0.284900  0.898700  0.035600  1.0
  H  H3210  1  0.215100  0.101300  0.535600  1.0
  H  H3211  1  0.699900  0.121300  0.975900  1.0
  H  H3212  1  0.800100  0.878700  0.475900  1.0
  H  H3213  1  0.300100  0.878700  0.024100  1.0
  H  H3214  1  0.199900  0.121300  0.524100  1.0
  H  H3215  1  0.637000  0.114400  0.920700  1.0
  H  H3216  1  0.863000  0.885600  0.420700  1.0
  H  H3217  1  0.363000  0.885600  0.079300  1.0
  H  H3218  1  0.137000  0.114400  0.579300  1.0
  H  H3219  1  0.657100  0.126700  0.902700  1.0
  H  H3220  1  0.842900  0.873300  0.402700  1.0
  H  H3221  1  0.342900  0.873300  0.097300  1.0
  H  H3222  1  0.157100  0.126700  0.597300  1.0
  H  H3223  1  0.643900  0.149200  0.913600  1.0
  H  H3224  1  0.856100  0.850800  0.413600  1.0
  H  H3225  1  0.356100  0.850800  0.086400  1.0
  H  H3226  1  0.143900  0.149200  0.586400  1.0
  H  H3227  1  0.789600  0.211400  0.929700  1.0
  H  H3228  1  0.710400  0.788600  0.429700  1.0
  H  H3229  1  0.210400  0.788600  0.070300  1.0
  H  H3230  1  0.289600  0.211400  0.570300  1.0
  H  H3231  1  0.766400  0.226400  0.920700  1.0
  H  H3232  1  0.733600  0.773600  0.420700  1.0
  H  H3233  1  0.233600  0.773600  0.079300  1.0
  H  H3234  1  0.266400  0.226400  0.579300  1.0
  H  H3235  1  0.777700  0.202700  0.909700  1.0
  H  H3236  1  0.722300  0.797300  0.409700  1.0
  H  H3237  1  0.222300  0.797300  0.090300  1.0
  H  H3238  1  0.277700  0.202700  0.590300  1.0
  H  H3239  1  0.540700  0.188300  0.919900  1.0
  H  H3240  1  0.959300  0.811700  0.419900  1.0
  H  H3241  1  0.459300  0.811700  0.080100  1.0
  H  H3242  1  0.040700  0.188300  0.580100  1.0
  H  H3243  1  0.512400  0.189500  0.970000  1.0
  H  H3244  1  0.987600  0.810500  0.470000  1.0
  H  H3245  1  0.487600  0.810500  0.030000  1.0
  H  H3246  1  0.012400  0.189500  0.530000  1.0
  H  H3247  1  0.561600  0.118300  0.924700  1.0
  H  H3248  1  0.938400  0.881700  0.424700  1.0
  H  H3249  1  0.438400  0.881700  0.075300  1.0
  H  H3250  1  0.061600  0.118300  0.575300  1.0
  H  H3251  1  0.579900  0.152500  0.916200  1.0
  H  H3252  1  0.920100  0.847500  0.416200  1.0
  H  H3253  1  0.420100  0.847500  0.083800  1.0
  H  H3254  1  0.079900  0.152500  0.583800  1.0
  H  H3255  1  0.543900  0.130300  0.909700  1.0
  H  H3256  1  0.956100  0.869700  0.409700  1.0
  H  H3257  1  0.456100  0.869700  0.090300  1.0
  H  H3258  1  0.043900  0.130300  0.590300  1.0
  H  H3259  1  0.505200  0.151300  0.990400  1.0
  H  H3260  1  0.994800  0.848700  0.490400  1.0
  H  H3261  1  0.494800  0.848700  0.009600  1.0
  H  H3262  1  0.005200  0.151300  0.509600  1.0
  H  H3263  1  0.533000  0.137300  0.989300  1.0
  H  H3264  1  0.967000  0.862700  0.489300  1.0
  H  H3265  1  0.467000  0.862700  0.010700  1.0
  H  H3266  1  0.033000  0.137300  0.510700  1.0
  H  H3267  1  0.496700  0.116600  0.982600  1.0
  H  H3268  1  0.003300  0.883400  0.482600  1.0
  H  H3269  1  0.503300  0.883400  0.017400  1.0
  H  H3270  1  0.996700  0.116600  0.517400  1.0
  H  H3271  1  0.527900  0.233200  0.929300  1.0
  H  H3272  1  0.972100  0.766800  0.429300  1.0
  H  H3273  1  0.472100  0.766800  0.070700  1.0
  H  H3274  1  0.027900  0.233200  0.570700  1.0
  H  H3275  1  0.537200  0.242100  0.949600  1.0
  H  H3276  1  0.962800  0.757900  0.449600  1.0
  H  H3277  1  0.462800  0.757900  0.050400  1.0
  H  H3278  1  0.037200  0.242100  0.550400  1.0
  H  H3279  1  0.499800  0.223300  0.944000  1.0
  H  H3280  1  0.000200  0.776700  0.444000  1.0
  H  H3281  1  0.500200  0.776700  0.056000  1.0
  H  H3282  1  0.999800  0.223300  0.556000  1.0
  H  H3283  1  0.920900  0.644700  0.011500  1.0
  H  H3284  1  0.579100  0.355300  0.511500  1.0
  H  H3285  1  0.079100  0.355300  0.988500  1.0
  H  H3286  1  0.420900  0.644700  0.488500  1.0
  H  H3287  1  0.965500  0.659000  0.030800  1.0
  H  H3288  1  0.534500  0.341000  0.530800  1.0
  H  H3289  1  0.034500  0.341000  0.969200  1.0
  H  H3290  1  0.465500  0.659000  0.469200  1.0
  H  H3291  1  0.898500  0.536300  0.109000  1.0
  H  H3292  1  0.601500  0.463700  0.609000  1.0
  H  H3293  1  0.101500  0.463700  0.891000  1.0
  H  H3294  1  0.398500  0.536300  0.391000  1.0
  H  H3295  1  0.953900  0.576500  0.102200  1.0
  H  H3296  1  0.546100  0.423500  0.602200  1.0
  H  H3297  1  0.046100  0.423500  0.897800  1.0
  H  H3298  1  0.453900  0.576500  0.397800  1.0
  H  H3299  1  0.771500  0.516800  0.096800  1.0
  H  H3300  1  0.728500  0.483200  0.596800  1.0
  H  H3301  1  0.228500  0.483200  0.903200  1.0
  H  H3302  1  0.271500  0.516800  0.403200  1.0
  H  H3303  1  0.807500  0.449300  0.106300  1.0
  H  H3304  1  0.692500  0.550700  0.606300  1.0
  H  H3305  1  0.192500  0.550700  0.893700  1.0
  H  H3306  1  0.307500  0.449300  0.393700  1.0
  H  H3307  1  0.787400  0.600200  0.018300  1.0
  H  H3308  1  0.712600  0.399800  0.518300  1.0
  H  H3309  1  0.212600  0.399800  0.981700  1.0
  H  H3310  1  0.287400  0.600200  0.481700  1.0
  H  H3311  1  0.830600  0.580800  0.975900  1.0
  H  H3312  1  0.669400  0.419200  0.475900  1.0
  H  H3313  1  0.169400  0.419200  0.024100  1.0
  H  H3314  1  0.330600  0.580800  0.524100  1.0
  H  H3315  1  0.854300  0.618600  0.048200  1.0
  H  H3316  1  0.645700  0.381400  0.548200  1.0
  H  H3317  1  0.145700  0.381400  0.951800  1.0
  H  H3318  1  0.354300  0.618600  0.451800  1.0
  H  H3319  1  0.815500  0.599000  0.048700  1.0
  H  H3320  1  0.684500  0.401000  0.548700  1.0
  H  H3321  1  0.184500  0.401000  0.951300  1.0
  H  H3322  1  0.315500  0.599000  0.451300  1.0
  H  H3323  1  0.830200  0.635100  0.042400  1.0
  H  H3324  1  0.669800  0.364900  0.542400  1.0
  H  H3325  1  0.169800  0.364900  0.957600  1.0
  H  H3326  1  0.330200  0.635100  0.457600  1.0
  H  H3327  1  0.989900  0.614200  0.080100  1.0
  H  H3328  1  0.510100  0.385800  0.580100  1.0
  H  H3329  1  0.010100  0.385800  0.919900  1.0
  H  H3330  1  0.489900  0.614200  0.419900  1.0
  H  H3331  1  0.859900  0.453900  0.099700  1.0
  H  H3332  1  0.640100  0.546100  0.599700  1.0
  H  H3333  1  0.140100  0.546100  0.900300  1.0
  H  H3334  1  0.359900  0.453900  0.400300  1.0
  H  H3335  1  0.886600  0.488900  0.102800  1.0
  H  H3336  1  0.613400  0.511100  0.602800  1.0
  H  H3337  1  0.113400  0.511100  0.897200  1.0
  H  H3338  1  0.386600  0.488900  0.397200  1.0
  H  H3339  1  0.875900  0.476400  0.083200  1.0
  H  H3340  1  0.624100  0.523600  0.583200  1.0
  H  H3341  1  0.124100  0.523600  0.916800  1.0
  H  H3342  1  0.375900  0.476400  0.416800  1.0
  H  H3343  1  0.802900  0.564400  0.085800  1.0
  H  H3344  1  0.697100  0.435600  0.585800  1.0
  H  H3345  1  0.197100  0.435600  0.914200  1.0
  H  H3346  1  0.302900  0.564400  0.414200  1.0
  H  H3347  1  0.831000  0.564500  0.072500  1.0
  H  H3348  1  0.669000  0.435500  0.572500  1.0
  H  H3349  1  0.169000  0.435500  0.927500  1.0
  H  H3350  1  0.331000  0.564500  0.427500  1.0
  H  H3351  1  0.840000  0.576900  0.092400  1.0
  H  H3352  1  0.660000  0.423100  0.592400  1.0
  H  H3353  1  0.160000  0.423100  0.907600  1.0
  H  H3354  1  0.340000  0.576900  0.407600  1.0
  H  H3355  1  0.735100  0.465000  0.109300  1.0
  H  H3356  1  0.764900  0.535000  0.609300  1.0
  H  H3357  1  0.264900  0.535000  0.890700  1.0
  H  H3358  1  0.235100  0.465000  0.390700  1.0
  H  H3359  1  0.754000  0.449200  0.121400  1.0
  H  H3360  1  0.746000  0.550800  0.621400  1.0
  H  H3361  1  0.246000  0.550800  0.878600  1.0
  H  H3362  1  0.254000  0.449200  0.378600  1.0
  H  H3363  1  0.744200  0.437100  0.101600  1.0
  H  H3364  1  0.755800  0.562900  0.601600  1.0
  H  H3365  1  0.255800  0.562900  0.898400  1.0
  H  H3366  1  0.244200  0.437100  0.398400  1.0
  H  H3367  1  0.877500  0.578000  0.975500  1.0
  H  H3368  1  0.622500  0.422000  0.475500  1.0
  H  H3369  1  0.122500  0.422000  0.024500  1.0
  H  H3370  1  0.377500  0.578000  0.524500  1.0
  H  H3371  1  0.892500  0.570900  0.993400  1.0
  H  H3372  1  0.607500  0.429100  0.493400  1.0
  H  H3373  1  0.107500  0.429100  0.006600  1.0
  H  H3374  1  0.392500  0.570900  0.506600  1.0
  H  H3375  1  0.902900  0.606500  0.986700  1.0
  H  H3376  1  0.597100  0.393500  0.486700  1.0
  H  H3377  1  0.097100  0.393500  0.013300  1.0
  H  H3378  1  0.402900  0.606500  0.513300  1.0
  H  H3379  1  0.876500  0.487400  0.870400  1.0
  H  H3380  1  0.623500  0.512600  0.370400  1.0
  H  H3381  1  0.123500  0.512600  0.129600  1.0
  H  H3382  1  0.376500  0.487400  0.629600  1.0
  H  H3383  1  0.882100  0.461800  0.844500  1.0
  H  H3384  1  0.617900  0.538200  0.344500  1.0
  H  H3385  1  0.117900  0.538200  0.155500  1.0
  H  H3386  1  0.382100  0.461800  0.655500  1.0
  H  H3387  1  0.896100  0.306000  0.881500  1.0
  H  H3388  1  0.603900  0.694000  0.381500  1.0
  H  H3389  1  0.103900  0.694000  0.118500  1.0
  H  H3390  1  0.396100  0.306000  0.618500  1.0
  H  H3391  1  0.948600  0.372000  0.943300  1.0
  H  H3392  1  0.551400  0.628000  0.443300  1.0
  H  H3393  1  0.051400  0.628000  0.056700  1.0
  H  H3394  1  0.448600  0.372000  0.556700  1.0
  H  H3395  1  0.876900  0.283500  0.942700  1.0
  H  H3396  1  0.623100  0.716500  0.442700  1.0
  H  H3397  1  0.123100  0.716500  0.057300  1.0
  H  H3398  1  0.376900  0.283500  0.557300  1.0
  H  H3399  1  0.929700  0.502900  0.937700  1.0
  H  H3400  1  0.570300  0.497100  0.437700  1.0
  H  H3401  1  0.070300  0.497100  0.062300  1.0
  H  H3402  1  0.429700  0.502900  0.562300  1.0
  H  H3403  1  0.845000  0.510100  0.925400  1.0
  H  H3404  1  0.655000  0.489900  0.425400  1.0
  H  H3405  1  0.155000  0.489900  0.074600  1.0
  H  H3406  1  0.345000  0.510100  0.574600  1.0
  H  H3407  1  0.929100  0.454600  0.898200  1.0
  H  H3408  1  0.570900  0.545400  0.398200  1.0
  H  H3409  1  0.070900  0.545400  0.101800  1.0
  H  H3410  1  0.429100  0.454600  0.601800  1.0
  H  H3411  1  0.942200  0.456800  0.918100  1.0
  H  H3412  1  0.557800  0.543200  0.418100  1.0
  H  H3413  1  0.057800  0.543200  0.081900  1.0
  H  H3414  1  0.442200  0.456800  0.581900  1.0
  H  H3415  1  0.956000  0.487000  0.905500  1.0
  H  H3416  1  0.544000  0.513000  0.405500  1.0
  H  H3417  1  0.044000  0.513000  0.094500  1.0
  H  H3418  1  0.456000  0.487000  0.594500  1.0
  H  H3419  1  0.880600  0.362900  0.832500  1.0
  H  H3420  1  0.619400  0.637100  0.332500  1.0
  H  H3421  1  0.119400  0.637100  0.167500  1.0
  H  H3422  1  0.380600  0.362900  0.667500  1.0
  H  H3423  1  0.812900  0.486300  0.900800  1.0
  H  H3424  1  0.687100  0.513700  0.400800  1.0
  H  H3425  1  0.187100  0.513700  0.099200  1.0
  H  H3426  1  0.312900  0.486300  0.599200  1.0
  H  H3427  1  0.814300  0.452900  0.896500  1.0
  H  H3428  1  0.685700  0.547100  0.396500  1.0
  H  H3429  1  0.185700  0.547100  0.103500  1.0
  H  H3430  1  0.314300  0.452900  0.603500  1.0
  H  H3431  1  0.833300  0.482700  0.884200  1.0
  H  H3432  1  0.666700  0.517300  0.384200  1.0
  H  H3433  1  0.166700  0.517300  0.115800  1.0
  H  H3434  1  0.333300  0.482700  0.615800  1.0
  H  H3435  1  0.882500  0.546700  0.947600  1.0
  H  H3436  1  0.617500  0.453300  0.447600  1.0
  H  H3437  1  0.117500  0.453300  0.052400  1.0
  H  H3438  1  0.382500  0.546700  0.552400  1.0
  H  H3439  1  0.913200  0.540000  0.954600  1.0
  H  H3440  1  0.586800  0.460000  0.454600  1.0
  H  H3441  1  0.086800  0.460000  0.045400  1.0
  H  H3442  1  0.413200  0.540000  0.545400  1.0
  H  H3443  1  0.876900  0.517200  0.960300  1.0
  H  H3444  1  0.623100  0.482800  0.460300  1.0
  H  H3445  1  0.123100  0.482800  0.039700  1.0
  H  H3446  1  0.376900  0.517200  0.539700  1.0
  H  H3447  1  0.110400  0.218100  0.935400  1.0
  H  H3448  1  0.389600  0.781900  0.435400  1.0
  H  H3449  1  0.889600  0.781900  0.064600  1.0
  H  H3450  1  0.610400  0.218100  0.564600  1.0
  H  H3451  1  0.959900  0.405000  0.919200  1.0
  H  H3452  1  0.540100  0.595000  0.419200  1.0
  H  H3453  1  0.040100  0.595000  0.080800  1.0
  H  H3454  1  0.459900  0.405000  0.580800  1.0
  H  H3455  1  0.930800  0.399100  0.905300  1.0
  H  H3456  1  0.569200  0.600900  0.405300  1.0
  H  H3457  1  0.069200  0.600900  0.094700  1.0
  H  H3458  1  0.430800  0.399100  0.594700  1.0
  H  H3459  1  0.957800  0.384800  0.901600  1.0
  H  H3460  1  0.542200  0.615200  0.401600  1.0
  H  H3461  1  0.042200  0.615200  0.098400  1.0
  H  H3462  1  0.457800  0.384800  0.598400  1.0
  H  H3463  1  0.087200  0.214800  0.963500  1.0
  H  H3464  1  0.412800  0.785200  0.463500  1.0
  H  H3465  1  0.912800  0.785200  0.036500  1.0
  H  H3466  1  0.587200  0.214800  0.536500  1.0
  H  H3467  1  0.065900  0.179700  0.970000  1.0
  H  H3468  1  0.434100  0.820300  0.470000  1.0
  H  H3469  1  0.934100  0.820300  0.030000  1.0
  H  H3470  1  0.565900  0.179700  0.530000  1.0
  H  H3471  1  0.048100  0.202000  0.963500  1.0
  H  H3472  1  0.451900  0.798000  0.463500  1.0
  H  H3473  1  0.951900  0.798000  0.036500  1.0
  H  H3474  1  0.548100  0.202000  0.536500  1.0
  H  H3475  1  0.927900  0.263500  0.002600  1.0
  H  H3476  1  0.572100  0.736500  0.502600  1.0
  H  H3477  1  0.072100  0.736500  0.997400  1.0
  H  H3478  1  0.427900  0.263500  0.497400  1.0
  H  H3479  1  0.881200  0.318700  0.851600  1.0
  H  H3480  1  0.618800  0.681300  0.351600  1.0
  H  H3481  1  0.118800  0.681300  0.148400  1.0
  H  H3482  1  0.381200  0.318700  0.648400  1.0
  H  H3483  1  0.963200  0.677300  0.722700  1.0
  H  H3484  1  0.536800  0.322700  0.222700  1.0
  H  H3485  1  0.036800  0.322700  0.277300  1.0
  H  H3486  1  0.463200  0.677300  0.777300  1.0
  H  H3487  1  0.998400  0.703600  0.727500  1.0
  H  H3488  1  0.501600  0.296400  0.227500  1.0
  H  H3489  1  0.001600  0.296400  0.272500  1.0
  H  H3490  1  0.498400  0.703600  0.772500  1.0
  H  H3491  1  0.966100  0.710100  0.731400  1.0
  H  H3492  1  0.533900  0.289900  0.231400  1.0
  H  H3493  1  0.033900  0.289900  0.268600  1.0
  H  H3494  1  0.466100  0.710100  0.768600  1.0
  H  H3495  1  0.678400  0.563900  0.989500  1.0
  H  H3496  1  0.821600  0.436100  0.489500  1.0
  H  H3497  1  0.321600  0.436100  0.010500  1.0
  H  H3498  1  0.178400  0.563900  0.510500  1.0
  H  H3499  1  0.705800  0.579900  0.974800  1.0
  H  H3500  1  0.794200  0.420100  0.474800  1.0
  H  H3501  1  0.294200  0.420100  0.025200  1.0
  H  H3502  1  0.205800  0.579900  0.525200  1.0
  H  H3503  1  0.704300  0.548700  0.984800  1.0
  H  H3504  1  0.795700  0.451300  0.484800  1.0
  H  H3505  1  0.295700  0.451300  0.015200  1.0
  H  H3506  1  0.204300  0.548700  0.515200  1.0
  H  H3507  1  0.218900  0.779800  0.192200  1.0
  H  H3508  1  0.281100  0.220200  0.692200  1.0
  H  H3509  1  0.781100  0.220200  0.807800  1.0
  H  H3510  1  0.718900  0.779800  0.307800  1.0
  H  H3511  1  0.044400  0.064400  0.829000  1.0
  H  H3512  1  0.455600  0.935600  0.329000  1.0
  H  H3513  1  0.955600  0.935600  0.171000  1.0
  H  H3514  1  0.544400  0.064400  0.671000  1.0
  H  H3515  1  0.052800  0.281800  0.109400  1.0
  H  H3516  1  0.447200  0.718200  0.609400  1.0
  H  H3517  1  0.947200  0.718200  0.890600  1.0
  H  H3518  1  0.552800  0.281800  0.390600  1.0
  H  H3519  1  0.995500  0.641500  0.054400  1.0
  H  H3520  1  0.504500  0.358500  0.554400  1.0
  H  H3521  1  0.004500  0.358500  0.945600  1.0
  H  H3522  1  0.495500  0.641500  0.445600  1.0
  H  H3523  1  0.876900  0.151000  0.103600  1.0
  H  H3524  1  0.623100  0.849000  0.603600  1.0
  H  H3525  1  0.123100  0.849000  0.896400  1.0
  H  H3526  1  0.376900  0.151000  0.396400  1.0
  H  H3527  1  0.483800  0.393900  0.892400  1.0
  H  H3528  1  0.016200  0.606100  0.392400  1.0
  H  H3529  1  0.516200  0.606100  0.107600  1.0
  H  H3530  1  0.983800  0.393900  0.607600  1.0
  H  H3531  1  0.878800  0.411500  0.829600  1.0
  H  H3532  1  0.621200  0.588500  0.329600  1.0
  H  H3533  1  0.121200  0.588500  0.170400  1.0
  H  H3534  1  0.378800  0.411500  0.670400  1.0
  H  H3535  1  0.994700  0.772600  0.037200  1.0
  H  H3536  1  0.505300  0.227400  0.537200  1.0
  H  H3537  1  0.005300  0.227400  0.962800  1.0
  H  H3538  1  0.494700  0.772600  0.462800  1.0
  H  H3539  1  0.754000  0.579800  0.992700  1.0
  H  H3540  1  0.746000  0.420200  0.492700  1.0
  H  H3541  1  0.246000  0.420200  0.007300  1.0
  H  H3542  1  0.254000  0.579800  0.507300  1.0
  H  H3543  1  0.763500  0.553700  0.983100  1.0
  H  H3544  1  0.736500  0.446300  0.483100  1.0
  H  H3545  1  0.236500  0.446300  0.016900  1.0
  H  H3546  1  0.263500  0.553700  0.516900  1.0
  H  H3547  1  0.773600  0.587900  0.974400  1.0
  H  H3548  1  0.726400  0.412100  0.474400  1.0
  H  H3549  1  0.226400  0.412100  0.025600  1.0
  H  H3550  1  0.273600  0.587900  0.525600  1.0
  H  H3551  1  0.940400  0.340200  0.969800  1.0
  H  H3552  1  0.559600  0.659800  0.469800  1.0
  H  H3553  1  0.059600  0.659800  0.030200  1.0
  H  H3554  1  0.440400  0.340200  0.530200  1.0
  H  H3555  1  0.932100  0.304000  0.965000  1.0
  H  H3556  1  0.567900  0.696000  0.465000  1.0
  H  H3557  1  0.067900  0.696000  0.035000  1.0
  H  H3558  1  0.432100  0.304000  0.535000  1.0
  H  H3559  1  0.904100  0.314300  0.972400  1.0
  H  H3560  1  0.595900  0.685700  0.472400  1.0
  H  H3561  1  0.095900  0.685700  0.027600  1.0
  H  H3562  1  0.404100  0.314300  0.527600  1.0
  H  H3563  1  0.905800  0.258900  0.973200  1.0
  H  H3564  1  0.594200  0.741100  0.473200  1.0
  H  H3565  1  0.094200  0.741100  0.026800  1.0
  H  H3566  1  0.405800  0.258900  0.526800  1.0
  H  H3567  1  0.866800  0.247500  0.972300  1.0
  H  H3568  1  0.633200  0.752500  0.472300  1.0
  H  H3569  1  0.133200  0.752500  0.027700  1.0
  H  H3570  1  0.366800  0.247500  0.527700  1.0
  H  H3571  1  0.883400  0.222700  0.969100  1.0
  H  H3572  1  0.616600  0.777300  0.469100  1.0
  H  H3573  1  0.116600  0.777300  0.030900  1.0
  H  H3574  1  0.383400  0.222700  0.530900  1.0
  H  H3575  1  0.204200  0.891700  0.008500  1.0
  H  H3576  1  0.295800  0.108300  0.508500  1.0
  H  H3577  1  0.795800  0.108300  0.991500  1.0
  H  H3578  1  0.704200  0.891700  0.491500  1.0
  H  H3579  1  0.132100  0.842800  0.033400  1.0
  H  H3580  1  0.367900  0.157200  0.533400  1.0
  H  H3581  1  0.867900  0.157200  0.966600  1.0
  H  H3582  1  0.632100  0.842800  0.466600  1.0
  H  H3583  1  0.167400  0.869100  0.038000  1.0
  H  H3584  1  0.332600  0.130900  0.538000  1.0
  H  H3585  1  0.832600  0.130900  0.962000  1.0
  H  H3586  1  0.667400  0.869100  0.462000  1.0
  H  H3587  1  0.164400  0.838600  0.026800  1.0
  H  H3588  1  0.335600  0.161400  0.526800  1.0
  H  H3589  1  0.835600  0.161400  0.973200  1.0
  H  H3590  1  0.664400  0.838600  0.473200  1.0
  H  H3591  1  0.097000  0.886100  0.965700  1.0
  H  H3592  1  0.403000  0.113900  0.465700  1.0
  H  H3593  1  0.903000  0.113900  0.034300  1.0
  H  H3594  1  0.597000  0.886100  0.534300  1.0
  H  H3595  1  0.079400  0.882900  0.984500  1.0
  H  H3596  1  0.420600  0.117100  0.484500  1.0
  H  H3597  1  0.920600  0.117100  0.015500  1.0
  H  H3598  1  0.579400  0.882900  0.515500  1.0
  H  H3599  1  0.081100  0.852400  0.975200  1.0
  H  H3600  1  0.418900  0.147600  0.475200  1.0
  H  H3601  1  0.918900  0.147600  0.024800  1.0
  H  H3602  1  0.581100  0.852400  0.524800  1.0
  H  H3603  1  0.154900  0.903800  0.966800  1.0
  H  H3604  1  0.345100  0.096200  0.466800  1.0
  H  H3605  1  0.845100  0.096200  0.033200  1.0
  H  H3606  1  0.654900  0.903800  0.533200  1.0
  H  H3607  1  0.235400  0.926200  0.984700  1.0
  H  H3608  1  0.264600  0.073800  0.484700  1.0
  H  H3609  1  0.764600  0.073800  0.015300  1.0
  H  H3610  1  0.735400  0.926200  0.515300  1.0
  H  H3611  1  0.216000  0.945800  0.976500  1.0
  H  H3612  1  0.284000  0.054200  0.476500  1.0
  H  H3613  1  0.784000  0.054200  0.023500  1.0
  H  H3614  1  0.716000  0.945800  0.523500  1.0
  H  H3615  1  0.217800  0.916400  0.965900  1.0
  H  H3616  1  0.282200  0.083600  0.465900  1.0
  H  H3617  1  0.782200  0.083600  0.034100  1.0
  H  H3618  1  0.717800  0.916400  0.534100  1.0
  H  H3619  1  0.143100  0.218200  0.913300  1.0
  H  H3620  1  0.356900  0.781800  0.413300  1.0
  H  H3621  1  0.856900  0.781800  0.086700  1.0
  H  H3622  1  0.643100  0.218200  0.586700  1.0
  H  H3623  1  0.122400  0.211300  0.895300  1.0
  H  H3624  1  0.377600  0.788700  0.395300  1.0
  H  H3625  1  0.877600  0.788700  0.104700  1.0
  H  H3626  1  0.622400  0.211300  0.604700  1.0
  H  H3627  1  0.135700  0.186000  0.902700  1.0
  H  H3628  1  0.364300  0.814000  0.402700  1.0
  H  H3629  1  0.864300  0.814000  0.097300  1.0
  H  H3630  1  0.635700  0.186000  0.597300  1.0
  Pd  Pd3631  1  0.014860  0.632600  0.809258  1.0
  Pd  Pd3632  1  0.485140  0.367400  0.309258  1.0
  Pd  Pd3633  1  0.985140  0.367400  0.190742  1.0
  Pd  Pd3634  1  0.514860  0.632600  0.690742  1.0
  Pd  Pd3635  1  0.318180  0.660390  0.763943  1.0
  Pd  Pd3636  1  0.181820  0.339610  0.263943  1.0
  Pd  Pd3637  1  0.681820  0.339610  0.236057  1.0
  Pd  Pd3638  1  0.818180  0.660390  0.736057  1.0
  Pd  Pd3639  1  0.103560  0.400850  0.819953  1.0
  Pd  Pd3640  1  0.396440  0.599150  0.319953  1.0
  Pd  Pd3641  1  0.896440  0.599150  0.180047  1.0
  Pd  Pd3642  1  0.603560  0.400850  0.680047  1.0
  Pd  Pd3643  1  0.898730  0.403260  0.695345  1.0
  Pd  Pd3644  1  0.601270  0.596740  0.195345  1.0
  Pd  Pd3645  1  0.101270  0.596740  0.304655  1.0
  Pd  Pd3646  1  0.398730  0.403260  0.804655  1.0
  Pd  Pd3647  1  0.119250  0.656870  0.638286  1.0
  Pd  Pd3648  1  0.380750  0.343130  0.138286  1.0
  Pd  Pd3649  1  0.880750  0.343130  0.361714  1.0
  Pd  Pd3650  1  0.619250  0.656870  0.861714  1.0
  Pd  Pd3651  1  0.190860  0.412370  0.655386  1.0
  Pd  Pd3652  1  0.309140  0.587630  0.155386  1.0
  Pd  Pd3653  1  0.809140  0.587630  0.344614  1.0
  Pd  Pd3654  1  0.690860  0.412370  0.844614  1.0
  Pd  Pd3655  1  0.791410  0.102350  0.265984  1.0
  Pd  Pd3656  1  0.708590  0.897650  0.765984  1.0
  Pd  Pd3657  1  0.208590  0.897650  0.734016  1.0
  Pd  Pd3658  1  0.291410  0.102350  0.234016  1.0
  Pd  Pd3659  1  0.670120  0.846840  0.169621  1.0
  Pd  Pd3660  1  0.829880  0.153160  0.669621  1.0
  Pd  Pd3661  1  0.329880  0.153160  0.830379  1.0
  Pd  Pd3662  1  0.170120  0.846840  0.330379  1.0
  Pd  Pd3663  1  0.502870  0.088040  0.292166  1.0
  Pd  Pd3664  1  0.997130  0.911960  0.792166  1.0
  Pd  Pd3665  1  0.497130  0.911960  0.707834  1.0
  Pd  Pd3666  1  0.002870  0.088040  0.207834  1.0
  Pd  Pd3667  1  0.603170  0.092470  0.129676  1.0
  Pd  Pd3668  1  0.896830  0.907530  0.629676  1.0
  Pd  Pd3669  1  0.396830  0.907530  0.870324  1.0
  Pd  Pd3670  1  0.103170  0.092470  0.370324  1.0
  Pd  Pd3671  1  0.557800  0.835770  0.324101  1.0
  Pd  Pd3672  1  0.942200  0.164230  0.824101  1.0
  Pd  Pd3673  1  0.442200  0.164230  0.675899  1.0
  Pd  Pd3674  1  0.057800  0.835770  0.175899  1.0
  Pd  Pd3675  1  0.368000  0.837790  0.188056  1.0
  Pd  Pd3676  1  0.132000  0.162210  0.688056  1.0
  Pd  Pd3677  1  0.632000  0.162210  0.811944  1.0
  Pd  Pd3678  1  0.868000  0.837790  0.311944  1.0
  Pd  Pd3679  1  0.328570  0.323910  0.972448  1.0
  Pd  Pd3680  1  0.171430  0.676090  0.472448  1.0
  Pd  Pd3681  1  0.671430  0.676090  0.027552  1.0
  Pd  Pd3682  1  0.828570  0.323910  0.527552  1.0
  Pd  Pd3683  1  0.344490  0.053980  0.930511  1.0
  Pd  Pd3684  1  0.155510  0.946020  0.430511  1.0
  Pd  Pd3685  1  0.655510  0.946020  0.069489  1.0
  Pd  Pd3686  1  0.844490  0.053980  0.569489  1.0
  Pd  Pd3687  1  0.350760  0.137170  0.096578  1.0
  Pd  Pd3688  1  0.149240  0.862830  0.596578  1.0
  Pd  Pd3689  1  0.649240  0.862830  0.903422  1.0
  Pd  Pd3690  1  0.850760  0.137170  0.403422  1.0
  Pd  Pd3691  1  0.076110  0.173880  0.073645  1.0
  Pd  Pd3692  1  0.423890  0.826120  0.573645  1.0
  Pd  Pd3693  1  0.923890  0.826120  0.926355  1.0
  Pd  Pd3694  1  0.576110  0.173880  0.426355  1.0
  Pd  Pd3695  1  0.104380  0.902150  0.039550  1.0
  Pd  Pd3696  1  0.395620  0.097850  0.539550  1.0
  Pd  Pd3697  1  0.895620  0.097850  0.960450  1.0
  Pd  Pd3698  1  0.604380  0.902150  0.460450  1.0
  Pd  Pd3699  1  0.076670  0.084940  0.907853  1.0
  Pd  Pd3700  1  0.423330  0.915060  0.407853  1.0
  Pd  Pd3701  1  0.923330  0.915060  0.092147  1.0
  Pd  Pd3702  1  0.576670  0.084940  0.592147  1.0
  Pd  Pd3703  1  0.587670  0.415930  0.949085  1.0
  Pd  Pd3704  1  0.912330  0.584070  0.449085  1.0
  Pd  Pd3705  1  0.412330  0.584070  0.050915  1.0
  Pd  Pd3706  1  0.087670  0.415930  0.550915  1.0
  Pd  Pd3707  1  0.598360  0.291350  0.101292  1.0
  Pd  Pd3708  1  0.901640  0.708650  0.601292  1.0
  Pd  Pd3709  1  0.401640  0.708650  0.898708  1.0
  Pd  Pd3710  1  0.098360  0.291350  0.398708  1.0
  Pd  Pd3711  1  0.864790  0.262420  0.065340  1.0
  Pd  Pd3712  1  0.635210  0.737580  0.565340  1.0
  Pd  Pd3713  1  0.135210  0.737580  0.934660  1.0
  Pd  Pd3714  1  0.364790  0.262420  0.434660  1.0
  Pd  Pd3715  1  0.613920  0.139650  0.957927  1.0
  Pd  Pd3716  1  0.886080  0.860350  0.457927  1.0
  Pd  Pd3717  1  0.386080  0.860350  0.042073  1.0
  Pd  Pd3718  1  0.113920  0.139650  0.542073  1.0
  Pd  Pd3719  1  0.856850  0.542800  0.046421  1.0
  Pd  Pd3720  1  0.643150  0.457200  0.546421  1.0
  Pd  Pd3721  1  0.143150  0.457200  0.953579  1.0
  Pd  Pd3722  1  0.356850  0.542800  0.453579  1.0
  Pd  Pd3723  1  0.862690  0.390590  0.908420  1.0
  Pd  Pd3724  1  0.637310  0.609410  0.408420  1.0
  Pd  Pd3725  1  0.137310  0.609410  0.091580  1.0
  Pd  Pd3726  1  0.362690  0.390590  0.591580  1.0
  C  C3727  1  0.313000  0.657900  0.809900  1.0
  C  C3728  1  0.187000  0.342100  0.309900  1.0
  C  C3729  1  0.687000  0.342100  0.190100  1.0
  C  C3730  1  0.813000  0.657900  0.690100  1.0
  C  C3731  1  0.207700  0.710300  0.638630  1.0
  C  C3732  1  0.292300  0.289700  0.138630  1.0
  C  C3733  1  0.792300  0.289700  0.361370  1.0
  C  C3734  1  0.707700  0.710300  0.861370  1.0
  C  C3735  1  0.060300  0.840100  0.037080  1.0
  C  C3736  1  0.439700  0.159900  0.537080  1.0
  C  C3737  1  0.939700  0.159900  0.962920  1.0
  C  C3738  1  0.560300  0.840100  0.462920  1.0
  C  C3739  1  0.434000  0.153900  0.944000  1.0
  C  C3740  1  0.066000  0.846100  0.444000  1.0
  C  C3741  1  0.566000  0.846100  0.056000  1.0
  C  C3742  1  0.934000  0.153900  0.556000  1.0
  C  C3743  1  0.857300  0.278300  0.909100  1.0
  C  C3744  1  0.642700  0.721700  0.409100  1.0
  C  C3745  1  0.142700  0.721700  0.090900  1.0
  C  C3746  1  0.357300  0.278300  0.590900  1.0
  C  C3747  1  0.225500  0.473500  0.673200  1.0
  C  C3748  1  0.274500  0.526500  0.173200  1.0
  C  C3749  1  0.774500  0.526500  0.326800  1.0
  C  C3750  1  0.725500  0.473500  0.826800  1.0
  C  C3751  1  0.232000  0.504500  0.679300  1.0
  C  C3752  1  0.268000  0.495500  0.179300  1.0
  C  C3753  1  0.768000  0.495500  0.320700  1.0
  C  C3754  1  0.732000  0.504500  0.820700  1.0
  C  C3755  1  0.213400  0.519600  0.671750  1.0
  C  C3756  1  0.286600  0.480400  0.171750  1.0
  C  C3757  1  0.786600  0.480400  0.328250  1.0
  C  C3758  1  0.713400  0.519600  0.828250  1.0
  C  C3759  1  0.192400  0.503700  0.658600  1.0
  C  C3760  1  0.307600  0.496300  0.158600  1.0
  C  C3761  1  0.807600  0.496300  0.341400  1.0
  C  C3762  1  0.692400  0.503700  0.841400  1.0
  C  C3763  1  0.187500  0.474600  0.653280  1.0
  C  C3764  1  0.312500  0.525400  0.153280  1.0
  C  C3765  1  0.812500  0.525400  0.346720  1.0
  C  C3766  1  0.687500  0.474600  0.846720  1.0
  C  C3767  1  0.217300  0.551200  0.677500  1.0
  C  C3768  1  0.282700  0.448800  0.177500  1.0
  C  C3769  1  0.782700  0.448800  0.322500  1.0
  C  C3770  1  0.717300  0.551200  0.822500  1.0
  C  C3771  1  0.235300  0.591400  0.697700  1.0
  C  C3772  1  0.264700  0.408600  0.197700  1.0
  C  C3773  1  0.764700  0.408600  0.302300  1.0
  C  C3774  1  0.735300  0.591400  0.802300  1.0
  C  C3775  1  0.203100  0.592200  0.675700  1.0
  C  C3776  1  0.296900  0.407800  0.175700  1.0
  C  C3777  1  0.796900  0.407800  0.324300  1.0
  C  C3778  1  0.703100  0.592200  0.824300  1.0
  C  C3779  1  0.183000  0.608000  0.667200  1.0
  C  C3780  1  0.317000  0.392000  0.167200  1.0
  C  C3781  1  0.817000  0.392000  0.332800  1.0
  C  C3782  1  0.683000  0.608000  0.832800  1.0
  C  C3783  1  0.184100  0.636800  0.673200  1.0
  C  C3784  1  0.315900  0.363200  0.173200  1.0
  C  C3785  1  0.815900  0.363200  0.326800  1.0
  C  C3786  1  0.684100  0.636800  0.826800  1.0
  C  C3787  1  0.166000  0.651200  0.664930  1.0
  C  C3788  1  0.334000  0.348800  0.164930  1.0
  C  C3789  1  0.834000  0.348800  0.335070  1.0
  C  C3790  1  0.666000  0.651200  0.835070  1.0
  C  C3791  1  0.148400  0.611200  0.643900  1.0
  C  C3792  1  0.351600  0.388800  0.143900  1.0
  C  C3793  1  0.851600  0.388800  0.356100  1.0
  C  C3794  1  0.648400  0.611200  0.856100  1.0
  C  C3795  1  0.166100  0.597000  0.651500  1.0
  C  C3796  1  0.333900  0.403000  0.151500  1.0
  C  C3797  1  0.833900  0.403000  0.348500  1.0
  C  C3798  1  0.666100  0.597000  0.848500  1.0
  C  C3799  1  0.256300  0.607300  0.713810  1.0
  C  C3800  1  0.243700  0.392700  0.213810  1.0
  C  C3801  1  0.743700  0.392700  0.286190  1.0
  C  C3802  1  0.756300  0.607300  0.786190  1.0
  C  C3803  1  0.265700  0.591200  0.725650  1.0
  C  C3804  1  0.234300  0.408800  0.225650  1.0
  C  C3805  1  0.734300  0.408800  0.274350  1.0
  C  C3806  1  0.765700  0.591200  0.774350  1.0
  C  C3807  1  0.285200  0.607000  0.739980  1.0
  C  C3808  1  0.214800  0.393000  0.239980  1.0
  C  C3809  1  0.714800  0.393000  0.260020  1.0
  C  C3810  1  0.785200  0.607000  0.760020  1.0
  C  C3811  1  0.284100  0.653400  0.730460  1.0
  C  C3812  1  0.215900  0.346600  0.230460  1.0
  C  C3813  1  0.715900  0.346600  0.269540  1.0
  C  C3814  1  0.784100  0.653400  0.769540  1.0
  C  C3815  1  0.265300  0.638900  0.715300  1.0
  C  C3816  1  0.234700  0.361100  0.215300  1.0
  C  C3817  1  0.734700  0.361100  0.284700  1.0
  C  C3818  1  0.765300  0.638900  0.784700  1.0
  C  C3819  1  0.127100  0.401800  0.668700  1.0
  C  C3820  1  0.372900  0.598200  0.168700  1.0
  C  C3821  1  0.872900  0.598200  0.331300  1.0
  C  C3822  1  0.627100  0.401800  0.831300  1.0
  C  C3823  1  0.103100  0.401500  0.680300  1.0
  C  C3824  1  0.396900  0.598500  0.180300  1.0
  C  C3825  1  0.896900  0.598500  0.319700  1.0
  C  C3826  1  0.603100  0.401500  0.819700  1.0
  C  C3827  1  0.110400  0.405800  0.698500  1.0
  C  C3828  1  0.389600  0.594200  0.198500  1.0
  C  C3829  1  0.889600  0.594200  0.301500  1.0
  C  C3830  1  0.610400  0.405800  0.801500  1.0
  C  C3831  1  0.140800  0.410200  0.704000  1.0
  C  C3832  1  0.359200  0.589800  0.204000  1.0
  C  C3833  1  0.859200  0.589800  0.296000  1.0
  C  C3834  1  0.640800  0.410200  0.796000  1.0
  C  C3835  1  0.164900  0.412200  0.691100  1.0
  C  C3836  1  0.335100  0.587800  0.191100  1.0
  C  C3837  1  0.835100  0.587800  0.308900  1.0
  C  C3838  1  0.664900  0.412200  0.808900  1.0
  C  C3839  1  0.084700  0.405700  0.710930  1.0
  C  C3840  1  0.415300  0.594300  0.210930  1.0
  C  C3841  1  0.915300  0.594300  0.289070  1.0
  C  C3842  1  0.584700  0.405700  0.789070  1.0
  C  C3843  1  0.034800  0.404100  0.717300  1.0
  C  C3844  1  0.465200  0.595900  0.217300  1.0
  C  C3845  1  0.965200  0.595900  0.282700  1.0
  C  C3846  1  0.534800  0.404100  0.782700  1.0
  C  C3847  1  0.070300  0.405000  0.739600  1.0
  C  C3848  1  0.429700  0.595000  0.239600  1.0
  C  C3849  1  0.929700  0.595000  0.260400  1.0
  C  C3850  1  0.570300  0.405000  0.760400  1.0
  C  C3851  1  0.077000  0.403900  0.759100  1.0
  C  C3852  1  0.423000  0.596100  0.259100  1.0
  C  C3853  1  0.923000  0.596100  0.240900  1.0
  C  C3854  1  0.577000  0.403900  0.740900  1.0
  C  C3855  1  0.056700  0.407400  0.772000  1.0
  C  C3856  1  0.443300  0.592600  0.272000  1.0
  C  C3857  1  0.943300  0.592600  0.228000  1.0
  C  C3858  1  0.556700  0.407400  0.728000  1.0
  C  C3859  1  0.063300  0.405400  0.789140  1.0
  C  C3860  1  0.436700  0.594600  0.289140  1.0
  C  C3861  1  0.936700  0.594600  0.210860  1.0
  C  C3862  1  0.563300  0.405400  0.710860  1.0
  C  C3863  1  0.112200  0.401600  0.781600  1.0
  C  C3864  1  0.387800  0.598400  0.281600  1.0
  C  C3865  1  0.887800  0.598400  0.218400  1.0
  C  C3866  1  0.612200  0.401600  0.718400  1.0
  C  C3867  1  0.107200  0.403300  0.764500  1.0
  C  C3868  1  0.392800  0.596700  0.264500  1.0
  C  C3869  1  0.892800  0.596700  0.235500  1.0
  C  C3870  1  0.607200  0.403300  0.735500  1.0
  C  C3871  1  0.003100  0.403300  0.712600  1.0
  C  C3872  1  0.496900  0.596700  0.212600  1.0
  C  C3873  1  0.996900  0.596700  0.287400  1.0
  C  C3874  1  0.503100  0.403300  0.787400  1.0
  C  C3875  1  0.978700  0.400100  0.725800  1.0
  C  C3876  1  0.521300  0.599900  0.225800  1.0
  C  C3877  1  0.021300  0.599900  0.274200  1.0
  C  C3878  1  0.478700  0.400100  0.774200  1.0
  C  C3879  1  0.948700  0.399900  0.719700  1.0
  C  C3880  1  0.551300  0.600100  0.219700  1.0
  C  C3881  1  0.051300  0.600100  0.280300  1.0
  C  C3882  1  0.448700  0.399900  0.780300  1.0
  C  C3883  1  0.964100  0.402500  0.690300  1.0
  C  C3884  1  0.535900  0.597500  0.190300  1.0
  C  C3885  1  0.035900  0.597500  0.309700  1.0
  C  C3886  1  0.464100  0.402500  0.809700  1.0
  C  C3887  1  0.995700  0.404900  0.695600  1.0
  C  C3888  1  0.504300  0.595100  0.195600  1.0
  C  C3889  1  0.004300  0.595100  0.304400  1.0
  C  C3890  1  0.495700  0.404900  0.804400  1.0
  C  C3891  1  0.922300  0.463500  0.714400  1.0
  C  C3892  1  0.577700  0.536500  0.214400  1.0
  C  C3893  1  0.077700  0.536500  0.285600  1.0
  C  C3894  1  0.422300  0.463500  0.785600  1.0
  C  C3895  1  0.942600  0.494300  0.718900  1.0
  C  C3896  1  0.557400  0.505700  0.218900  1.0
  C  C3897  1  0.057400  0.505700  0.281100  1.0
  C  C3898  1  0.442600  0.494300  0.781100  1.0
  C  C3899  1  0.964800  0.513000  0.707000  1.0
  C  C3900  1  0.535200  0.487000  0.207000  1.0
  C  C3901  1  0.035200  0.487000  0.293000  1.0
  C  C3902  1  0.464800  0.513000  0.793000  1.0
  C  C3903  1  0.967500  0.497600  0.690900  1.0
  C  C3904  1  0.532500  0.502400  0.190900  1.0
  C  C3905  1  0.032500  0.502400  0.309100  1.0
  C  C3906  1  0.467500  0.497600  0.809100  1.0
  C  C3907  1  0.948700  0.468400  0.687300  1.0
  C  C3908  1  0.551300  0.531600  0.187300  1.0
  C  C3909  1  0.051300  0.531600  0.312700  1.0
  C  C3910  1  0.448700  0.468400  0.812700  1.0
  C  C3911  1  0.986700  0.545000  0.710900  1.0
  C  C3912  1  0.513300  0.455000  0.210900  1.0
  C  C3913  1  0.013300  0.455000  0.289100  1.0
  C  C3914  1  0.486700  0.545000  0.789100  1.0
  C  C3915  1  0.027600  0.590700  0.702200  1.0
  C  C3916  1  0.472400  0.409300  0.202200  1.0
  C  C3917  1  0.972400  0.409300  0.297800  1.0
  C  C3918  1  0.527600  0.590700  0.797800  1.0
  C  C3919  1  0.008800  0.586700  0.730000  1.0
  C  C3920  1  0.491200  0.413300  0.230000  1.0
  C  C3921  1  0.991200  0.413300  0.270000  1.0
  C  C3922  1  0.508800  0.586700  0.770000  1.0
  C  C3923  1  0.008900  0.597900  0.748400  1.0
  C  C3924  1  0.491100  0.402100  0.248400  1.0
  C  C3925  1  0.991100  0.402100  0.251600  1.0
  C  C3926  1  0.508900  0.597900  0.751600  1.0
  C  C3927  1  0.025200  0.630900  0.752900  1.0
  C  C3928  1  0.474800  0.369100  0.252900  1.0
  C  C3929  1  0.974800  0.369100  0.247100  1.0
  C  C3930  1  0.525200  0.630900  0.747100  1.0
  C  C3931  1  0.024500  0.640300  0.769400  1.0
  C  C3932  1  0.475500  0.359700  0.269400  1.0
  C  C3933  1  0.975500  0.359700  0.230600  1.0
  C  C3934  1  0.524500  0.640300  0.730600  1.0
  C  C3935  1  0.994300  0.588800  0.779200  1.0
  C  C3936  1  0.505700  0.411200  0.279200  1.0
  C  C3937  1  0.005700  0.411200  0.220800  1.0
  C  C3938  1  0.494300  0.588800  0.720800  1.0
  C  C3939  1  0.993800  0.578200  0.761500  1.0
  C  C3940  1  0.506200  0.421800  0.261500  1.0
  C  C3941  1  0.006200  0.421800  0.238500  1.0
  C  C3942  1  0.493800  0.578200  0.738500  1.0
  C  C3943  1  0.049100  0.607800  0.687650  1.0
  C  C3944  1  0.450900  0.392200  0.187650  1.0
  C  C3945  1  0.950900  0.392200  0.312350  1.0
  C  C3946  1  0.549100  0.607800  0.812350  1.0
  C  C3947  1  0.074200  0.637300  0.689720  1.0
  C  C3948  1  0.425800  0.362700  0.189720  1.0
  C  C3949  1  0.925800  0.362700  0.310280  1.0
  C  C3950  1  0.574200  0.637300  0.810280  1.0
  C  C3951  1  0.093000  0.651000  0.675030  1.0
  C  C3952  1  0.407000  0.349000  0.175030  1.0
  C  C3953  1  0.907000  0.349000  0.324970  1.0
  C  C3954  1  0.593000  0.651000  0.824970  1.0
  C  C3955  1  0.067800  0.609300  0.657470  1.0
  C  C3956  1  0.432200  0.390700  0.157470  1.0
  C  C3957  1  0.932200  0.390700  0.342530  1.0
  C  C3958  1  0.567800  0.609300  0.842530  1.0
  C  C3959  1  0.047600  0.592900  0.671200  1.0
  C  C3960  1  0.452400  0.407100  0.171200  1.0
  C  C3961  1  0.952400  0.407100  0.328800  1.0
  C  C3962  1  0.547600  0.592900  0.828800  1.0
  C  C3963  1  0.080900  0.639200  0.800000  1.0
  C  C3964  1  0.419100  0.360800  0.300000  1.0
  C  C3965  1  0.919100  0.360800  0.200000  1.0
  C  C3966  1  0.580900  0.639200  0.700000  1.0
  C  C3967  1  0.109600  0.629700  0.799200  1.0
  C  C3968  1  0.390400  0.370300  0.299200  1.0
  C  C3969  1  0.890400  0.370300  0.200800  1.0
  C  C3970  1  0.609600  0.629700  0.700800  1.0
  C  C3971  1  0.103500  0.600000  0.804300  1.0
  C  C3972  1  0.396500  0.400000  0.304300  1.0
  C  C3973  1  0.896500  0.400000  0.195700  1.0
  C  C3974  1  0.603500  0.600000  0.695700  1.0
  C  C3975  1  0.072300  0.580700  0.811500  1.0
  C  C3976  1  0.427700  0.419300  0.311500  1.0
  C  C3977  1  0.927700  0.419300  0.188500  1.0
  C  C3978  1  0.572300  0.580700  0.688500  1.0
  C  C3979  1  0.048000  0.590900  0.812400  1.0
  C  C3980  1  0.452000  0.409100  0.312400  1.0
  C  C3981  1  0.952000  0.409100  0.187600  1.0
  C  C3982  1  0.548000  0.590900  0.687600  1.0
  C  C3983  1  0.128400  0.586400  0.804200  1.0
  C  C3984  1  0.371600  0.413600  0.304200  1.0
  C  C3985  1  0.871600  0.413600  0.195800  1.0
  C  C3986  1  0.628400  0.586400  0.695800  1.0
  C  C3987  1  0.179800  0.591200  0.796300  1.0
  C  C3988  1  0.320200  0.408800  0.296300  1.0
  C  C3989  1  0.820200  0.408800  0.203700  1.0
  C  C3990  1  0.679800  0.591200  0.703700  1.0
  C  C3991  1  0.143800  0.544500  0.807300  1.0
  C  C3992  1  0.356200  0.455500  0.307300  1.0
  C  C3993  1  0.856200  0.455500  0.192700  1.0
  C  C3994  1  0.643800  0.544500  0.692700  1.0
  C  C3995  1  0.133400  0.510300  0.810600  1.0
  C  C3996  1  0.366600  0.489700  0.310600  1.0
  C  C3997  1  0.866600  0.489700  0.189400  1.0
  C  C3998  1  0.633400  0.510300  0.689400  1.0
  C  C3999  1  0.157400  0.497400  0.809800  1.0
  C  C4000  1  0.342600  0.502600  0.309800  1.0
  C  C4001  1  0.842600  0.502600  0.190200  1.0
  C  C4002  1  0.657400  0.497400  0.690200  1.0
  C  C4003  1  0.147400  0.465500  0.813700  1.0
  C  C4004  1  0.352600  0.534500  0.313700  1.0
  C  C4005  1  0.852600  0.534500  0.186300  1.0
  C  C4006  1  0.647400  0.465500  0.686300  1.0
  C  C4007  1  0.095000  0.460400  0.819200  1.0
  C  C4008  1  0.405000  0.539600  0.319200  1.0
  C  C4009  1  0.905000  0.539600  0.180800  1.0
  C  C4010  1  0.595000  0.460400  0.680800  1.0
  C  C4011  1  0.101700  0.491000  0.815500  1.0
  C  C4012  1  0.398300  0.509000  0.315500  1.0
  C  C4013  1  0.898300  0.509000  0.184500  1.0
  C  C4014  1  0.601700  0.491000  0.684500  1.0
  C  C4015  1  0.212400  0.607900  0.789000  1.0
  C  C4016  1  0.287600  0.392100  0.289000  1.0
  C  C4017  1  0.787600  0.392100  0.211000  1.0
  C  C4018  1  0.712400  0.607900  0.711000  1.0
  C  C4019  1  0.234100  0.592900  0.787600  1.0
  C  C4020  1  0.265900  0.407100  0.287600  1.0
  C  C4021  1  0.765900  0.407100  0.212400  1.0
  C  C4022  1  0.734100  0.592900  0.712400  1.0
  C  C4023  1  0.265600  0.610100  0.780720  1.0
  C  C4024  1  0.234400  0.389900  0.280720  1.0
  C  C4025  1  0.734400  0.389900  0.219280  1.0
  C  C4026  1  0.765600  0.610100  0.719280  1.0
  C  C4027  1  0.254800  0.654600  0.777200  1.0
  C  C4028  1  0.245200  0.345400  0.277200  1.0
  C  C4029  1  0.745200  0.345400  0.222800  1.0
  C  C4030  1  0.754800  0.654600  0.722800  1.0
  C  C4031  1  0.223300  0.639500  0.784200  1.0
  C  C4032  1  0.276700  0.360500  0.284200  1.0
  C  C4033  1  0.776700  0.360500  0.215800  1.0
  C  C4034  1  0.723300  0.639500  0.715800  1.0
  C  C4035  1  0.435200  0.838000  0.187100  1.0
  C  C4036  1  0.064800  0.162000  0.687100  1.0
  C  C4037  1  0.564800  0.162000  0.812900  1.0
  C  C4038  1  0.935200  0.838000  0.312900  1.0
  C  C4039  1  0.463900  0.837500  0.193970  1.0
  C  C4040  1  0.036100  0.162500  0.693970  1.0
  C  C4041  1  0.536100  0.162500  0.806030  1.0
  C  C4042  1  0.963900  0.837500  0.306030  1.0
  C  C4043  1  0.467400  0.833700  0.211700  1.0
  C  C4044  1  0.032600  0.166300  0.711700  1.0
  C  C4045  1  0.532600  0.166300  0.788300  1.0
  C  C4046  1  0.967400  0.833700  0.288300  1.0
  C  C4047  1  0.439500  0.830200  0.222520  1.0
  C  C4048  1  0.060500  0.169800  0.722520  1.0
  C  C4049  1  0.560500  0.169800  0.777480  1.0
  C  C4050  1  0.939500  0.830200  0.277480  1.0
  C  C4051  1  0.413200  0.829600  0.215800  1.0
  C  C4052  1  0.086800  0.170400  0.715800  1.0
  C  C4053  1  0.586800  0.170400  0.784200  1.0
  C  C4054  1  0.913200  0.829600  0.284200  1.0
  C  C4055  1  0.498700  0.834300  0.219000  1.0
  C  C4056  1  0.001300  0.165700  0.719000  1.0
  C  C4057  1  0.501300  0.165700  0.781000  1.0
  C  C4058  1  0.998700  0.834300  0.281000  1.0
  C  C4059  1  0.529200  0.834400  0.242670  1.0
  C  C4060  1  0.970800  0.165600  0.742670  1.0
  C  C4061  1  0.470800  0.165600  0.757330  1.0
  C  C4062  1  0.029200  0.834400  0.257330  1.0
  C  C4063  1  0.547000  0.833700  0.215300  1.0
  C  C4064  1  0.953000  0.166300  0.715300  1.0
  C  C4065  1  0.453000  0.166300  0.784700  1.0
  C  C4066  1  0.047000  0.833700  0.284700  1.0
  C  C4067  1  0.533400  0.832900  0.262300  1.0
  C  C4068  1  0.966600  0.167100  0.762300  1.0
  C  C4069  1  0.466600  0.167100  0.737700  1.0
  C  C4070  1  0.033400  0.832900  0.237700  1.0
  C  C4071  1  0.513900  0.840200  0.274800  1.0
  C  C4072  1  0.986100  0.159800  0.774800  1.0
  C  C4073  1  0.486100  0.159800  0.725200  1.0
  C  C4074  1  0.013900  0.840200  0.225200  1.0
  C  C4075  1  0.521000  0.839900  0.291900  1.0
  C  C4076  1  0.979000  0.160100  0.791900  1.0
  C  C4077  1  0.479000  0.160100  0.708100  1.0
  C  C4078  1  0.021000  0.839900  0.208100  1.0
  C  C4079  1  0.566100  0.829900  0.287100  1.0
  C  C4080  1  0.933900  0.170100  0.787100  1.0
  C  C4081  1  0.433900  0.170100  0.712900  1.0
  C  C4082  1  0.066100  0.829900  0.212900  1.0
  C  C4083  1  0.561900  0.829300  0.268200  1.0
  C  C4084  1  0.938100  0.170700  0.768200  1.0
  C  C4085  1  0.438100  0.170700  0.731800  1.0
  C  C4086  1  0.061900  0.829300  0.231800  1.0
  C  C4087  1  0.575800  0.835400  0.203600  1.0
  C  C4088  1  0.924200  0.164600  0.703600  1.0
  C  C4089  1  0.424200  0.164600  0.796400  1.0
  C  C4090  1  0.075800  0.835400  0.296400  1.0
  C  C4091  1  0.606300  0.839000  0.211700  1.0
  C  C4092  1  0.893700  0.161000  0.711700  1.0
  C  C4093  1  0.393700  0.161000  0.788300  1.0
  C  C4094  1  0.106300  0.839000  0.288300  1.0
  C  C4095  1  0.630600  0.840100  0.201500  1.0
  C  C4096  1  0.869400  0.159900  0.701500  1.0
  C  C4097  1  0.369400  0.159900  0.798500  1.0
  C  C4098  1  0.130600  0.840100  0.298500  1.0
  C  C4099  1  0.600900  0.837200  0.175800  1.0
  C  C4100  1  0.899100  0.162800  0.675800  1.0
  C  C4101  1  0.399100  0.162800  0.824200  1.0
  C  C4102  1  0.100900  0.837200  0.324200  1.0
  C  C4103  1  0.574500  0.834600  0.186000  1.0
  C  C4104  1  0.925500  0.165400  0.686000  1.0
  C  C4105  1  0.425500  0.165400  0.814000  1.0
  C  C4106  1  0.074500  0.834600  0.314000  1.0
  C  C4107  1  0.667500  0.908200  0.163060  1.0
  C  C4108  1  0.832500  0.091800  0.663060  1.0
  C  C4109  1  0.332500  0.091800  0.836940  1.0
  C  C4110  1  0.167500  0.908200  0.336940  1.0
  C  C4111  1  0.668300  0.937200  0.166590  1.0
  C  C4112  1  0.831700  0.062800  0.666590  1.0
  C  C4113  1  0.331700  0.062800  0.833410  1.0
  C  C4114  1  0.168300  0.937200  0.333410  1.0
  C  C4115  1  0.680500  0.952400  0.181920  1.0
  C  C4116  1  0.819500  0.047600  0.681920  1.0
  C  C4117  1  0.319500  0.047600  0.818080  1.0
  C  C4118  1  0.180500  0.952400  0.318080  1.0
  C  C4119  1  0.689400  0.934800  0.194960  1.0
  C  C4120  1  0.810600  0.065200  0.694960  1.0
  C  C4121  1  0.310600  0.065200  0.805040  1.0
  C  C4122  1  0.189400  0.934800  0.305040  1.0
  C  C4123  1  0.689400  0.905300  0.190500  1.0
  C  C4124  1  0.810600  0.094700  0.690500  1.0
  C  C4125  1  0.310600  0.094700  0.809500  1.0
  C  C4126  1  0.189400  0.905300  0.309500  1.0
  C  C4127  1  0.682500  0.985100  0.185860  1.0
  C  C4128  1  0.817500  0.014900  0.685860  1.0
  C  C4129  1  0.317500  0.014900  0.814140  1.0
  C  C4130  1  0.182500  0.985100  0.314140  1.0
  C  C4131  1  0.672800  0.027700  0.179380  1.0
  C  C4132  1  0.827200  0.972300  0.679380  1.0
  C  C4133  1  0.327200  0.972300  0.820620  1.0
  C  C4134  1  0.172800  0.027700  0.320620  1.0
  C  C4135  1  0.706800  0.030600  0.202250  1.0
  C  C4136  1  0.793200  0.969400  0.702250  1.0
  C  C4137  1  0.293200  0.969400  0.797750  1.0
  C  C4138  1  0.206800  0.030600  0.297750  1.0
  C  C4139  1  0.728000  0.048100  0.215860  1.0
  C  C4140  1  0.772000  0.951900  0.715860  1.0
  C  C4141  1  0.272000  0.951900  0.784140  1.0
  C  C4142  1  0.228000  0.048100  0.284140  1.0
  C  C4143  1  0.732500  0.079100  0.219640  1.0
  C  C4144  1  0.767500  0.920900  0.719640  1.0
  C  C4145  1  0.267500  0.920900  0.780360  1.0
  C  C4146  1  0.232500  0.079100  0.280360  1.0
  C  C4147  1  0.753600  0.095300  0.233700  1.0
  C  C4148  1  0.746400  0.904700  0.733700  1.0
  C  C4149  1  0.246400  0.904700  0.766300  1.0
  C  C4150  1  0.253600  0.095300  0.266300  1.0
  C  C4151  1  0.765700  0.052100  0.239720  1.0
  C  C4152  1  0.734300  0.947900  0.739720  1.0
  C  C4153  1  0.234300  0.947900  0.760280  1.0
  C  C4154  1  0.265700  0.052100  0.260280  1.0
  C  C4155  1  0.746000  0.035000  0.225920  1.0
  C  C4156  1  0.754000  0.965000  0.725920  1.0
  C  C4157  1  0.254000  0.965000  0.774080  1.0
  C  C4158  1  0.246000  0.035000  0.274080  1.0
  C  C4159  1  0.655400  0.043900  0.168280  1.0
  C  C4160  1  0.844600  0.956100  0.668280  1.0
  C  C4161  1  0.344600  0.956100  0.831720  1.0
  C  C4162  1  0.155400  0.043900  0.331720  1.0
  C  C4163  1  0.637600  0.029000  0.153680  1.0
  C  C4164  1  0.862400  0.971000  0.653680  1.0
  C  C4165  1  0.362400  0.971000  0.846320  1.0
  C  C4166  1  0.137600  0.029000  0.346320  1.0
  C  C4167  1  0.625400  0.045900  0.142860  1.0
  C  C4168  1  0.874600  0.954100  0.642860  1.0
  C  C4169  1  0.374600  0.954100  0.857140  1.0
  C  C4170  1  0.125400  0.045900  0.357140  1.0
  C  C4171  1  0.644600  0.089500  0.160100  1.0
  C  C4172  1  0.855400  0.910500  0.660100  1.0
  C  C4173  1  0.355400  0.910500  0.839900  1.0
  C  C4174  1  0.144600  0.089500  0.339900  1.0
  C  C4175  1  0.659000  0.073900  0.171900  1.0
  C  C4176  1  0.841000  0.926100  0.671900  1.0
  C  C4177  1  0.341000  0.926100  0.828100  1.0
  C  C4178  1  0.159000  0.073900  0.328100  1.0
  C  C4179  1  0.418900  0.901200  0.179410  1.0
  C  C4180  1  0.081100  0.098800  0.679410  1.0
  C  C4181  1  0.581100  0.098800  0.820590  1.0
  C  C4182  1  0.918900  0.901200  0.320590  1.0
  C  C4183  1  0.439900  0.931600  0.181300  1.0
  C  C4184  1  0.060100  0.068400  0.681300  1.0
  C  C4185  1  0.560100  0.068400  0.818700  1.0
  C  C4186  1  0.939900  0.931600  0.318700  1.0
  C  C4187  1  0.438200  0.949000  0.196930  1.0
  C  C4188  1  0.061800  0.051000  0.696930  1.0
  C  C4189  1  0.561800  0.051000  0.803070  1.0
  C  C4190  1  0.938200  0.949000  0.303070  1.0
  C  C4191  1  0.414000  0.931700  0.208750  1.0
  C  C4192  1  0.086000  0.068300  0.708750  1.0
  C  C4193  1  0.586000  0.068300  0.791250  1.0
  C  C4194  1  0.914000  0.931700  0.291250  1.0
  C  C4195  1  0.392900  0.901200  0.205700  1.0
  C  C4196  1  0.107100  0.098800  0.705700  1.0
  C  C4197  1  0.607100  0.098800  0.794300  1.0
  C  C4198  1  0.892900  0.901200  0.294300  1.0
  C  C4199  1  0.462300  0.980600  0.199980  1.0
  C  C4200  1  0.037700  0.019400  0.699980  1.0
  C  C4201  1  0.537700  0.019400  0.800020  1.0
  C  C4202  1  0.962300  0.980600  0.300020  1.0
  C  C4203  1  0.502800  0.024500  0.189170  1.0
  C  C4204  1  0.997200  0.975500  0.689170  1.0
  C  C4205  1  0.497200  0.975500  0.810830  1.0
  C  C4206  1  0.002800  0.024500  0.310830  1.0
  C  C4207  1  0.487100  0.022600  0.217180  1.0
  C  C4208  1  0.012900  0.977400  0.717180  1.0
  C  C4209  1  0.512900  0.977400  0.782820  1.0
  C  C4210  1  0.987100  0.022600  0.282820  1.0
  C  C4211  1  0.490800  0.038700  0.235380  1.0
  C  C4212  1  0.009200  0.961300  0.735380  1.0
  C  C4213  1  0.509200  0.961300  0.764620  1.0
  C  C4214  1  0.990800  0.038700  0.264620  1.0
  C  C4215  1  0.519700  0.064200  0.239100  1.0
  C  C4216  1  0.980300  0.935800  0.739100  1.0
  C  C4217  1  0.480300  0.935800  0.760900  1.0
  C  C4218  1  0.019700  0.064200  0.260900  1.0
  C  C4219  1  0.522100  0.079000  0.255630  1.0
  C  C4220  1  0.977900  0.921000  0.755630  1.0
  C  C4221  1  0.477900  0.921000  0.744370  1.0
  C  C4222  1  0.022100  0.079000  0.244370  1.0
  C  C4223  1  0.471700  0.044200  0.263890  1.0
  C  C4224  1  0.028300  0.955800  0.763890  1.0
  C  C4225  1  0.528300  0.955800  0.736110  1.0
  C  C4226  1  0.971700  0.044200  0.236110  1.0
  C  C4227  1  0.467700  0.027600  0.248250  1.0
  C  C4228  1  0.032300  0.972400  0.748250  1.0
  C  C4229  1  0.532300  0.972400  0.751750  1.0
  C  C4230  1  0.967700  0.027600  0.251750  1.0
  C  C4231  1  0.524900  0.040500  0.174700  1.0
  C  C4232  1  0.975100  0.959500  0.674700  1.0
  C  C4233  1  0.475100  0.959500  0.825300  1.0
  C  C4234  1  0.024900  0.040500  0.325300  1.0
  C  C4235  1  0.525300  0.025500  0.158800  1.0
  C  C4236  1  0.974700  0.974500  0.658800  1.0
  C  C4237  1  0.474700  0.974500  0.841200  1.0
  C  C4238  1  0.025300  0.025500  0.341200  1.0
  C  C4239  1  0.547500  0.042400  0.145770  1.0
  C  C4240  1  0.952500  0.957600  0.645770  1.0
  C  C4241  1  0.452500  0.957600  0.854230  1.0
  C  C4242  1  0.047500  0.042400  0.354230  1.0
  C  C4243  1  0.566800  0.087000  0.163080  1.0
  C  C4244  1  0.933200  0.913000  0.663080  1.0
  C  C4245  1  0.433200  0.913000  0.836920  1.0
  C  C4246  1  0.066800  0.087000  0.336920  1.0
  C  C4247  1  0.546100  0.072300  0.176360  1.0
  C  C4248  1  0.953900  0.927700  0.676360  1.0
  C  C4249  1  0.453900  0.927700  0.823640  1.0
  C  C4250  1  0.046100  0.072300  0.323640  1.0
  C  C4251  1  0.565600  0.083000  0.292120  1.0
  C  C4252  1  0.934400  0.917000  0.792120  1.0
  C  C4253  1  0.434400  0.917000  0.707880  1.0
  C  C4254  1  0.065600  0.083000  0.207880  1.0
  C  C4255  1  0.587500  0.068500  0.293260  1.0
  C  C4256  1  0.912500  0.931500  0.793260  1.0
  C  C4257  1  0.412500  0.931500  0.706740  1.0
  C  C4258  1  0.087500  0.068500  0.206740  1.0
  C  C4259  1  0.576900  0.036000  0.297690  1.0
  C  C4260  1  0.923100  0.964000  0.797690  1.0
  C  C4261  1  0.423100  0.964000  0.702310  1.0
  C  C4262  1  0.076900  0.036000  0.202310  1.0
  C  C4263  1  0.543500  0.020000  0.302100  1.0
  C  C4264  1  0.956500  0.980000  0.802100  1.0
  C  C4265  1  0.456500  0.980000  0.697900  1.0
  C  C4266  1  0.043500  0.020000  0.197900  1.0
  C  C4267  1  0.522800  0.036400  0.300720  1.0
  C  C4268  1  0.977200  0.963600  0.800720  1.0
  C  C4269  1  0.477200  0.963600  0.699280  1.0
  C  C4270  1  0.022800  0.036400  0.199280  1.0
  C  C4271  1  0.600000  0.019900  0.298800  1.0
  C  C4272  1  0.900000  0.980100  0.798800  1.0
  C  C4273  1  0.400000  0.980100  0.701200  1.0
  C  C4274  1  0.100000  0.019900  0.201200  1.0
  C  C4275  1  0.651800  0.023600  0.294640  1.0
  C  C4276  1  0.848200  0.976400  0.794640  1.0
  C  C4277  1  0.348200  0.976400  0.705360  1.0
  C  C4278  1  0.151800  0.023600  0.205360  1.0
  C  C4279  1  0.611600  0.978500  0.304100  1.0
  C  C4280  1  0.888400  0.021500  0.804100  1.0
  C  C4281  1  0.388400  0.021500  0.695900  1.0
  C  C4282  1  0.111600  0.978500  0.195900  1.0
  C  C4283  1  0.599700  0.945100  0.309900  1.0
  C  C4284  1  0.900300  0.054900  0.809900  1.0
  C  C4285  1  0.400300  0.054900  0.690100  1.0
  C  C4286  1  0.099700  0.945100  0.190100  1.0
  C  C4287  1  0.620800  0.929400  0.310100  1.0
  C  C4288  1  0.879200  0.070600  0.810100  1.0
  C  C4289  1  0.379200  0.070600  0.689900  1.0
  C  C4290  1  0.120800  0.929400  0.189900  1.0
  C  C4291  1  0.608100  0.897300  0.315600  1.0
  C  C4292  1  0.891900  0.102700  0.815600  1.0
  C  C4293  1  0.391900  0.102700  0.684400  1.0
  C  C4294  1  0.108100  0.897300  0.184400  1.0
  C  C4295  1  0.556400  0.898900  0.319430  1.0
  C  C4296  1  0.943600  0.101100  0.819430  1.0
  C  C4297  1  0.443600  0.101100  0.680570  1.0
  C  C4298  1  0.056400  0.898900  0.180570  1.0
  C  C4299  1  0.565800  0.929700  0.314970  1.0
  C  C4300  1  0.934200  0.070300  0.814970  1.0
  C  C4301  1  0.434200  0.070300  0.685030  1.0
  C  C4302  1  0.065800  0.929700  0.185030  1.0
  C  C4303  1  0.685200  0.041300  0.288660  1.0
  C  C4304  1  0.814800  0.958700  0.788660  1.0
  C  C4305  1  0.314800  0.958700  0.711340  1.0
  C  C4306  1  0.185200  0.041300  0.211340  1.0
  C  C4307  1  0.693800  0.073400  0.284630  1.0
  C  C4308  1  0.806200  0.926600  0.784630  1.0
  C  C4309  1  0.306200  0.926600  0.715370  1.0
  C  C4310  1  0.193800  0.073400  0.215370  1.0
  C  C4311  1  0.728100  0.091200  0.279030  1.0
  C  C4312  1  0.771900  0.908800  0.779030  1.0
  C  C4313  1  0.271900  0.908800  0.720970  1.0
  C  C4314  1  0.228100  0.091200  0.220970  1.0
  C  C4315  1  0.738400  0.045600  0.280070  1.0
  C  C4316  1  0.761600  0.954400  0.780070  1.0
  C  C4317  1  0.261600  0.954400  0.719930  1.0
  C  C4318  1  0.238400  0.045600  0.219930  1.0
  C  C4319  1  0.706100  0.027100  0.286130  1.0
  C  C4320  1  0.793900  0.972900  0.786130  1.0
  C  C4321  1  0.293900  0.972900  0.713870  1.0
  C  C4322  1  0.206100  0.027100  0.213870  1.0
  C  C4323  1  0.130600  0.154700  0.080360  1.0
  C  C4324  1  0.369400  0.845300  0.580360  1.0
  C  C4325  1  0.869400  0.845300  0.919640  1.0
  C  C4326  1  0.630600  0.154700  0.419640  1.0
  C  C4327  1  0.148700  0.136900  0.080390  1.0
  C  C4328  1  0.351300  0.863100  0.580390  1.0
  C  C4329  1  0.851300  0.863100  0.919610  1.0
  C  C4330  1  0.648700  0.136900  0.419610  1.0
  C  C4331  1  0.134800  0.105000  0.076230  1.0
  C  C4332  1  0.365200  0.895000  0.576230  1.0
  C  C4333  1  0.865200  0.895000  0.923770  1.0
  C  C4334  1  0.634800  0.105000  0.423770  1.0
  C  C4335  1  0.101100  0.093700  0.070840  1.0
  C  C4336  1  0.398900  0.906300  0.570840  1.0
  C  C4337  1  0.898900  0.906300  0.929160  1.0
  C  C4338  1  0.601100  0.093700  0.429160  1.0
  C  C4339  1  0.085200  0.114000  0.071010  1.0
  C  C4340  1  0.414800  0.886000  0.571010  1.0
  C  C4341  1  0.914800  0.886000  0.928990  1.0
  C  C4342  1  0.585200  0.114000  0.428990  1.0
  C  C4343  1  0.153300  0.086900  0.076300  1.0
  C  C4344  1  0.346700  0.913100  0.576300  1.0
  C  C4345  1  0.846700  0.913100  0.923700  1.0
  C  C4346  1  0.653300  0.086900  0.423700  1.0
  C  C4347  1  0.200300  0.080900  0.079400  1.0
  C  C4348  1  0.299700  0.919100  0.579400  1.0
  C  C4349  1  0.799700  0.919100  0.920600  1.0
  C  C4350  1  0.700300  0.080900  0.420600  1.0
  C  C4351  1  0.156900  0.038600  0.070800  1.0
  C  C4352  1  0.343100  0.961400  0.570800  1.0
  C  C4353  1  0.843100  0.961400  0.929200  1.0
  C  C4354  1  0.656900  0.038600  0.429200  1.0
  C  C4355  1  0.144300  0.005300  0.062900  1.0
  C  C4356  1  0.355700  0.994700  0.562900  1.0
  C  C4357  1  0.855700  0.994700  0.937100  1.0
  C  C4358  1  0.644300  0.005300  0.437100  1.0
  C  C4359  1  0.165100  0.990200  0.061800  1.0
  C  C4360  1  0.334900  0.009800  0.561800  1.0
  C  C4361  1  0.834900  0.009800  0.938200  1.0
  C  C4362  1  0.665100  0.990200  0.438200  1.0
  C  C4363  1  0.151800  0.958900  0.055410  1.0
  C  C4364  1  0.348200  0.041100  0.555410  1.0
  C  C4365  1  0.848200  0.041100  0.944590  1.0
  C  C4366  1  0.651800  0.958900  0.444590  1.0
  C  C4367  1  0.100600  0.960700  0.052800  1.0
  C  C4368  1  0.399400  0.039300  0.552800  1.0
  C  C4369  1  0.899400  0.039300  0.947200  1.0
  C  C4370  1  0.600600  0.960700  0.447200  1.0
  C  C4371  1  0.110500  0.992200  0.058270  1.0
  C  C4372  1  0.389500  0.007800  0.558270  1.0
  C  C4373  1  0.889500  0.007800  0.941730  1.0
  C  C4374  1  0.610500  0.992200  0.441730  1.0
  C  C4375  1  0.237200  0.094800  0.084760  1.0
  C  C4376  1  0.262800  0.905200  0.584760  1.0
  C  C4377  1  0.762800  0.905200  0.915240  1.0
  C  C4378  1  0.737200  0.094800  0.415240  1.0
  C  C4379  1  0.252300  0.125800  0.088500  1.0
  C  C4380  1  0.247700  0.874200  0.588500  1.0
  C  C4381  1  0.747700  0.874200  0.911500  1.0
  C  C4382  1  0.752300  0.125800  0.411500  1.0
  C  C4383  1  0.284800  0.137900  0.093150  1.0
  C  C4384  1  0.215200  0.862100  0.593150  1.0
  C  C4385  1  0.715200  0.862100  0.906850  1.0
  C  C4386  1  0.784800  0.137900  0.406850  1.0
  C  C4387  1  0.286600  0.088200  0.089890  1.0
  C  C4388  1  0.213400  0.911800  0.589890  1.0
  C  C4389  1  0.713400  0.911800  0.910110  1.0
  C  C4390  1  0.786600  0.088200  0.410110  1.0
  C  C4391  1  0.254000  0.075400  0.085360  1.0
  C  C4392  1  0.246000  0.924600  0.585360  1.0
  C  C4393  1  0.746000  0.924600  0.914640  1.0
  C  C4394  1  0.754000  0.075400  0.414640  1.0
  C  C4395  1  0.080800  0.158000  0.035700  1.0
  C  C4396  1  0.419200  0.842000  0.535700  1.0
  C  C4397  1  0.919200  0.842000  0.964300  1.0
  C  C4398  1  0.580800  0.158000  0.464300  1.0
  C  C4399  1  0.096900  0.160800  0.018400  1.0
  C  C4400  1  0.403100  0.839200  0.518400  1.0
  C  C4401  1  0.903100  0.839200  0.981600  1.0
  C  C4402  1  0.596900  0.160800  0.481600  1.0
  C  C4403  1  0.125700  0.187700  0.015900  1.0
  C  C4404  1  0.374300  0.812300  0.515900  1.0
  C  C4405  1  0.874300  0.812300  0.984100  1.0
  C  C4406  1  0.625700  0.187700  0.484100  1.0
  C  C4407  1  0.137800  0.210000  0.028700  1.0
  C  C4408  1  0.362200  0.790000  0.528700  1.0
  C  C4409  1  0.862200  0.790000  0.971300  1.0
  C  C4410  1  0.637800  0.210000  0.471300  1.0
  C  C4411  1  0.119800  0.204700  0.045200  1.0
  C  C4412  1  0.380200  0.795300  0.545200  1.0
  C  C4413  1  0.880200  0.795300  0.954800  1.0
  C  C4414  1  0.619800  0.204700  0.454800  1.0
  C  C4415  1  0.143100  0.193100  0.998800  1.0
  C  C4416  1  0.356900  0.806900  0.498800  1.0
  C  C4417  1  0.856900  0.806900  0.001200  1.0
  C  C4418  1  0.643100  0.193100  0.501200  1.0
  C  C4419  1  0.146500  0.177800  0.970700  1.0
  C  C4420  1  0.353500  0.822200  0.470700  1.0
  C  C4421  1  0.853500  0.822200  0.029300  1.0
  C  C4422  1  0.646500  0.177800  0.529300  1.0
  C  C4423  1  0.186700  0.218800  0.981600  1.0
  C  C4424  1  0.313300  0.781200  0.481600  1.0
  C  C4425  1  0.813300  0.781200  0.018400  1.0
  C  C4426  1  0.686700  0.218800  0.518400  1.0
  C  C4427  1  0.220600  0.244700  0.979300  1.0
  C  C4428  1  0.279400  0.755300  0.479300  1.0
  C  C4429  1  0.779400  0.755300  0.020700  1.0
  C  C4430  1  0.720600  0.244700  0.520700  1.0
  C  C4431  1  0.237200  0.247900  0.963400  1.0
  C  C4432  1  0.262800  0.752100  0.463400  1.0
  C  C4433  1  0.762800  0.752100  0.036600  1.0
  C  C4434  1  0.737200  0.247900  0.536600  1.0
  C  C4435  1  0.267200  0.272000  0.961450  1.0
  C  C4436  1  0.232800  0.728000  0.461450  1.0
  C  C4437  1  0.732800  0.728000  0.038550  1.0
  C  C4438  1  0.767200  0.272000  0.538550  1.0
  C  C4439  1  0.265900  0.289900  0.990000  1.0
  C  C4440  1  0.234100  0.710100  0.490000  1.0
  C  C4441  1  0.734100  0.710100  0.010000  1.0
  C  C4442  1  0.765900  0.289900  0.510000  1.0
  C  C4443  1  0.235900  0.264100  0.992600  1.0
  C  C4444  1  0.264100  0.735900  0.492600  1.0
  C  C4445  1  0.764100  0.735900  0.007400  1.0
  C  C4446  1  0.735900  0.264100  0.507400  1.0
  C  C4447  1  0.129800  0.154400  0.955400  1.0
  C  C4448  1  0.370200  0.845600  0.455400  1.0
  C  C4449  1  0.870200  0.845600  0.044600  1.0
  C  C4450  1  0.629800  0.154400  0.544600  1.0
  C  C4451  1  0.098300  0.133300  0.956800  1.0
  C  C4452  1  0.401700  0.866700  0.456800  1.0
  C  C4453  1  0.901700  0.866700  0.043200  1.0
  C  C4454  1  0.598300  0.133300  0.543200  1.0
  C  C4455  1  0.083000  0.113700  0.942700  1.0
  C  C4456  1  0.417000  0.886300  0.442700  1.0
  C  C4457  1  0.917000  0.886300  0.057300  1.0
  C  C4458  1  0.583000  0.113700  0.557300  1.0
  C  C4459  1  0.131600  0.136700  0.926100  1.0
  C  C4460  1  0.368400  0.863300  0.426100  1.0
  C  C4461  1  0.868400  0.863300  0.073900  1.0
  C  C4462  1  0.631600  0.136700  0.573900  1.0
  C  C4463  1  0.145500  0.154200  0.939500  1.0
  C  C4464  1  0.354500  0.845800  0.439500  1.0
  C  C4465  1  0.854500  0.845800  0.060500  1.0
  C  C4466  1  0.645500  0.154200  0.560500  1.0
  C  C4467  1  0.344500  0.172900  0.065500  1.0
  C  C4468  1  0.155500  0.827100  0.565500  1.0
  C  C4469  1  0.655500  0.827100  0.934500  1.0
  C  C4470  1  0.844500  0.172900  0.434500  1.0
  C  C4471  1  0.342900  0.179000  0.047700  1.0
  C  C4472  1  0.157100  0.821000  0.547700  1.0
  C  C4473  1  0.657100  0.821000  0.952300  1.0
  C  C4474  1  0.842900  0.179000  0.452300  1.0
  C  C4475  1  0.347400  0.159700  0.035310  1.0
  C  C4476  1  0.152600  0.840300  0.535310  1.0
  C  C4477  1  0.652600  0.840300  0.964690  1.0
  C  C4478  1  0.847400  0.159700  0.464690  1.0
  C  C4479  1  0.351500  0.132200  0.040840  1.0
  C  C4480  1  0.148500  0.867800  0.540840  1.0
  C  C4481  1  0.648500  0.867800  0.959160  1.0
  C  C4482  1  0.851500  0.132200  0.459160  1.0
  C  C4483  1  0.352200  0.127200  0.058380  1.0
  C  C4484  1  0.147800  0.872800  0.558380  1.0
  C  C4485  1  0.647800  0.872800  0.941620  1.0
  C  C4486  1  0.852200  0.127200  0.441620  1.0
  C  C4487  1  0.347100  0.167400  0.016250  1.0
  C  C4488  1  0.152900  0.832600  0.516250  1.0
  C  C4489  1  0.652900  0.832600  0.983750  1.0
  C  C4490  1  0.847100  0.167400  0.483750  1.0
  C  C4491  1  0.345300  0.200000  0.994460  1.0
  C  C4492  1  0.154700  0.800000  0.494460  1.0
  C  C4493  1  0.654700  0.800000  0.005540  1.0
  C  C4494  1  0.845300  0.200000  0.505540  1.0
  C  C4495  1  0.348800  0.154000  0.987710  1.0
  C  C4496  1  0.151200  0.846000  0.487710  1.0
  C  C4497  1  0.651200  0.846000  0.012290  1.0
  C  C4498  1  0.848800  0.154000  0.512290  1.0
  C  C4499  1  0.344000  0.229400  0.988900  1.0
  C  C4500  1  0.156000  0.770600  0.488900  1.0
  C  C4501  1  0.656000  0.770600  0.011100  1.0
  C  C4502  1  0.844000  0.229400  0.511100  1.0
  C  C4503  1  0.343900  0.253000  0.001660  1.0
  C  C4504  1  0.156100  0.747000  0.501660  1.0
  C  C4505  1  0.656100  0.747000  0.998340  1.0
  C  C4506  1  0.843900  0.253000  0.498340  1.0
  C  C4507  1  0.340600  0.279500  0.996080  1.0
  C  C4508  1  0.159400  0.720500  0.496080  1.0
  C  C4509  1  0.659400  0.720500  0.003920  1.0
  C  C4510  1  0.840600  0.279500  0.503920  1.0
  C  C4511  1  0.335900  0.263700  0.966960  1.0
  C  C4512  1  0.164100  0.736300  0.466960  1.0
  C  C4513  1  0.664100  0.736300  0.033040  1.0
  C  C4514  1  0.835900  0.263700  0.533040  1.0
  C  C4515  1  0.339400  0.236000  0.971480  1.0
  C  C4516  1  0.160600  0.764000  0.471480  1.0
  C  C4517  1  0.660600  0.764000  0.028520  1.0
  C  C4518  1  0.839400  0.236000  0.528520  1.0
  C  C4519  1  0.348700  0.130100  0.974450  1.0
  C  C4520  1  0.151300  0.869900  0.474450  1.0
  C  C4521  1  0.651300  0.869900  0.025550  1.0
  C  C4522  1  0.848700  0.130100  0.525550  1.0
  C  C4523  1  0.351400  0.137100  0.956220  1.0
  C  C4524  1  0.148600  0.862900  0.456220  1.0
  C  C4525  1  0.648600  0.862900  0.043780  1.0
  C  C4526  1  0.851400  0.137100  0.543780  1.0
  C  C4527  1  0.352000  0.114800  0.944520  1.0
  C  C4528  1  0.148000  0.885200  0.444520  1.0
  C  C4529  1  0.648000  0.885200  0.055480  1.0
  C  C4530  1  0.852000  0.114800  0.555480  1.0
  C  C4531  1  0.348800  0.079100  0.967300  1.0
  C  C4532  1  0.151200  0.920900  0.467300  1.0
  C  C4533  1  0.651200  0.920900  0.032700  1.0
  C  C4534  1  0.848800  0.079100  0.532700  1.0
  C  C4535  1  0.348000  0.100100  0.979230  1.0
  C  C4536  1  0.152000  0.899900  0.479230  1.0
  C  C4537  1  0.652000  0.899900  0.020770  1.0
  C  C4538  1  0.848000  0.100100  0.520770  1.0
  C  C4539  1  0.278400  0.050300  0.929300  1.0
  C  C4540  1  0.221600  0.949700  0.429300  1.0
  C  C4541  1  0.721600  0.949700  0.070700  1.0
  C  C4542  1  0.778400  0.050300  0.570700  1.0
  C  C4543  1  0.246000  0.041800  0.934400  1.0
  C  C4544  1  0.254000  0.958200  0.434400  1.0
  C  C4545  1  0.754000  0.958200  0.065600  1.0
  C  C4546  1  0.746000  0.041800  0.565600  1.0
  C  C4547  1  0.233800  0.018900  0.948100  1.0
  C  C4548  1  0.266200  0.981100  0.448100  1.0
  C  C4549  1  0.766200  0.981100  0.051900  1.0
  C  C4550  1  0.733800  0.018900  0.551900  1.0
  C  C4551  1  0.252000  0.006100  0.955400  1.0
  C  C4552  1  0.248000  0.993900  0.455400  1.0
  C  C4553  1  0.748000  0.993900  0.044600  1.0
  C  C4554  1  0.752000  0.006100  0.544600  1.0
  C  C4555  1  0.285100  0.015500  0.950070  1.0
  C  C4556  1  0.214900  0.984500  0.450070  1.0
  C  C4557  1  0.714900  0.984500  0.049930  1.0
  C  C4558  1  0.785100  0.015500  0.549930  1.0
  C  C4559  1  0.197200  0.009800  0.953700  1.0
  C  C4560  1  0.302800  0.990200  0.453700  1.0
  C  C4561  1  0.802800  0.990200  0.046300  1.0
  C  C4562  1  0.697200  0.009800  0.546300  1.0
  C  C4563  1  0.148600  0.013900  0.949600  1.0
  C  C4564  1  0.351400  0.986100  0.449600  1.0
  C  C4565  1  0.851400  0.986100  0.050400  1.0
  C  C4566  1  0.648600  0.013900  0.550400  1.0
  C  C4567  1  0.155800  0.985700  0.973400  1.0
  C  C4568  1  0.344200  0.014300  0.473400  1.0
  C  C4569  1  0.844200  0.014300  0.026600  1.0
  C  C4570  1  0.655800  0.985700  0.526600  1.0
  C  C4571  1  0.144900  0.967400  0.988090  1.0
  C  C4572  1  0.355100  0.032600  0.488090  1.0
  C  C4573  1  0.855100  0.032600  0.011910  1.0
  C  C4574  1  0.644900  0.967400  0.511910  1.0
  C  C4575  1  0.109900  0.953600  0.992000  1.0
  C  C4576  1  0.390100  0.046400  0.492000  1.0
  C  C4577  1  0.890100  0.046400  0.008000  1.0
  C  C4578  1  0.609900  0.953600  0.508000  1.0
  C  C4579  1  0.101300  0.933100  0.007600  1.0
  C  C4580  1  0.398700  0.066900  0.507600  1.0
  C  C4581  1  0.898700  0.066900  0.992400  1.0
  C  C4582  1  0.601300  0.933100  0.492400  1.0
  C  C4583  1  0.154700  0.942600  0.014240  1.0
  C  C4584  1  0.345300  0.057400  0.514240  1.0
  C  C4585  1  0.845300  0.057400  0.985760  1.0
  C  C4586  1  0.654700  0.942600  0.485760  1.0
  C  C4587  1  0.166800  0.962700  0.999500  1.0
  C  C4588  1  0.333200  0.037300  0.499500  1.0
  C  C4589  1  0.833200  0.037300  0.000500  1.0
  C  C4590  1  0.666800  0.962700  0.500500  1.0
  C  C4591  1  0.128900  0.026600  0.939400  1.0
  C  C4592  1  0.371100  0.973400  0.439400  1.0
  C  C4593  1  0.871100  0.973400  0.060600  1.0
  C  C4594  1  0.628900  0.026600  0.560600  1.0
  C  C4595  1  0.100300  0.028900  0.946300  1.0
  C  C4596  1  0.399700  0.971100  0.446300  1.0
  C  C4597  1  0.899700  0.971100  0.053700  1.0
  C  C4598  1  0.600300  0.028900  0.553700  1.0
  C  C4599  1  0.082800  0.042700  0.936900  1.0
  C  C4600  1  0.417200  0.957300  0.436900  1.0
  C  C4601  1  0.917200  0.957300  0.063100  1.0
  C  C4602  1  0.582800  0.042700  0.563100  1.0
  C  C4603  1  0.119600  0.051400  0.913800  1.0
  C  C4604  1  0.380400  0.948600  0.413800  1.0
  C  C4605  1  0.880400  0.948600  0.086200  1.0
  C  C4606  1  0.619600  0.051400  0.586200  1.0
  C  C4607  1  0.137000  0.038200  0.922600  1.0
  C  C4608  1  0.363000  0.961800  0.422600  1.0
  C  C4609  1  0.863000  0.961800  0.077400  1.0
  C  C4610  1  0.637000  0.038200  0.577400  1.0
  C  C4611  1  0.849400  0.478200  0.052100  1.0
  C  C4612  1  0.650600  0.521800  0.552100  1.0
  C  C4613  1  0.150600  0.521800  0.947900  1.0
  C  C4614  1  0.349400  0.478200  0.447900  1.0
  C  C4615  1  0.835000  0.446500  0.056500  1.0
  C  C4616  1  0.665000  0.553500  0.556500  1.0
  C  C4617  1  0.165000  0.553500  0.943500  1.0
  C  C4618  1  0.335000  0.446500  0.443500  1.0
  C  C4619  1  0.802300  0.432800  0.061110  1.0
  C  C4620  1  0.697700  0.567200  0.561110  1.0
  C  C4621  1  0.197700  0.567200  0.938890  1.0
  C  C4622  1  0.302300  0.432800  0.438890  1.0
  C  C4623  1  0.784700  0.452800  0.061190  1.0
  C  C4624  1  0.715300  0.547200  0.561190  1.0
  C  C4625  1  0.215300  0.547200  0.938810  1.0
  C  C4626  1  0.284700  0.452800  0.438810  1.0
  C  C4627  1  0.800900  0.483600  0.056600  1.0
  C  C4628  1  0.699100  0.516400  0.556600  1.0
  C  C4629  1  0.199100  0.516400  0.943400  1.0
  C  C4630  1  0.300900  0.483600  0.443400  1.0
  C  C4631  1  0.786400  0.399300  0.067100  1.0
  C  C4632  1  0.713600  0.600700  0.567100  1.0
  C  C4633  1  0.213600  0.600700  0.932900  1.0
  C  C4634  1  0.286400  0.399300  0.432900  1.0
  C  C4635  1  0.792000  0.353500  0.072500  1.0
  C  C4636  1  0.708000  0.646500  0.572500  1.0
  C  C4637  1  0.208000  0.646500  0.927500  1.0
  C  C4638  1  0.292000  0.353500  0.427500  1.0
  C  C4639  1  0.745100  0.358200  0.077500  1.0
  C  C4640  1  0.754900  0.641800  0.577500  1.0
  C  C4641  1  0.254900  0.641800  0.922500  1.0
  C  C4642  1  0.245100  0.358200  0.422500  1.0
  C  C4643  1  0.812300  0.333100  0.071200  1.0
  C  C4644  1  0.687700  0.666900  0.571200  1.0
  C  C4645  1  0.187700  0.666900  0.928800  1.0
  C  C4646  1  0.312300  0.333100  0.428800  1.0
  C  C4647  1  0.799200  0.304100  0.078100  1.0
  C  C4648  1  0.700800  0.695900  0.578100  1.0
  C  C4649  1  0.200800  0.695900  0.921900  1.0
  C  C4650  1  0.299200  0.304100  0.421900  1.0
  C  C4651  1  0.816600  0.285000  0.077000  1.0
  C  C4652  1  0.683400  0.715000  0.577000  1.0
  C  C4653  1  0.183400  0.715000  0.923000  1.0
  C  C4654  1  0.316600  0.285000  0.423000  1.0
  C  C4655  1  0.859700  0.324700  0.062500  1.0
  C  C4656  1  0.640300  0.675300  0.562500  1.0
  C  C4657  1  0.140300  0.675300  0.937500  1.0
  C  C4658  1  0.359700  0.324700  0.437500  1.0
  C  C4659  1  0.842000  0.344400  0.063700  1.0
  C  C4660  1  0.658000  0.655600  0.563700  1.0
  C  C4661  1  0.158000  0.655600  0.936300  1.0
  C  C4662  1  0.342000  0.344400  0.436300  1.0
  C  C4663  1  0.709800  0.341900  0.083790  1.0
  C  C4664  1  0.790200  0.658100  0.583790  1.0
  C  C4665  1  0.290200  0.658100  0.916210  1.0
  C  C4666  1  0.209800  0.341900  0.416210  1.0
  C  C4667  1  0.696400  0.310400  0.086960  1.0
  C  C4668  1  0.803600  0.689600  0.586960  1.0
  C  C4669  1  0.303600  0.689600  0.913040  1.0
  C  C4670  1  0.196400  0.310400  0.413040  1.0
  C  C4671  1  0.665400  0.296900  0.093040  1.0
  C  C4672  1  0.834600  0.703100  0.593040  1.0
  C  C4673  1  0.334600  0.703100  0.906960  1.0
  C  C4674  1  0.165400  0.296900  0.406960  1.0
  C  C4675  1  0.659400  0.344700  0.090990  1.0
  C  C4676  1  0.840600  0.655300  0.590990  1.0
  C  C4677  1  0.340600  0.655300  0.909010  1.0
  C  C4678  1  0.159400  0.344700  0.409010  1.0
  C  C4679  1  0.689900  0.360400  0.086040  1.0
  C  C4680  1  0.810100  0.639600  0.586040  1.0
  C  C4681  1  0.310100  0.639600  0.913960  1.0
  C  C4682  1  0.189900  0.360400  0.413960  1.0
  C  C4683  1  0.802900  0.525800  0.020630  1.0
  C  C4684  1  0.697100  0.474200  0.520630  1.0
  C  C4685  1  0.197100  0.474200  0.979370  1.0
  C  C4686  1  0.302900  0.525800  0.479370  1.0
  C  C4687  1  0.784200  0.508400  0.005800  1.0
  C  C4688  1  0.715800  0.491600  0.505800  1.0
  C  C4689  1  0.215800  0.491600  0.994200  1.0
  C  C4690  1  0.284200  0.508400  0.494200  1.0
  C  C4691  1  0.799100  0.494800  0.994680  1.0
  C  C4692  1  0.700900  0.505200  0.494680  1.0
  C  C4693  1  0.200900  0.505200  0.005320  1.0
  C  C4694  1  0.299100  0.494800  0.505320  1.0
  C  C4695  1  0.833400  0.499400  0.996780  1.0
  C  C4696  1  0.666600  0.500600  0.496780  1.0
  C  C4697  1  0.166600  0.500600  0.003220  1.0
  C  C4698  1  0.333400  0.499400  0.503220  1.0
  C  C4699  1  0.848600  0.518000  0.012120  1.0
  C  C4700  1  0.651400  0.482000  0.512120  1.0
  C  C4701  1  0.151400  0.482000  0.987880  1.0
  C  C4702  1  0.348600  0.518000  0.487880  1.0
  C  C4703  1  0.802300  0.432600  0.944700  1.0
  C  C4704  1  0.697700  0.567400  0.444700  1.0
  C  C4705  1  0.197700  0.567400  0.055300  1.0
  C  C4706  1  0.302300  0.432600  0.555300  1.0
  C  C4707  1  0.789200  0.414700  0.928900  1.0
  C  C4708  1  0.710800  0.585300  0.428900  1.0
  C  C4709  1  0.210800  0.585300  0.071100  1.0
  C  C4710  1  0.289200  0.414700  0.571100  1.0
  C  C4711  1  0.807100  0.405000  0.918900  1.0
  C  C4712  1  0.692900  0.595000  0.418900  1.0
  C  C4713  1  0.192900  0.595000  0.081100  1.0
  C  C4714  1  0.307100  0.405000  0.581100  1.0
  C  C4715  1  0.851800  0.427900  0.937900  1.0
  C  C4716  1  0.648200  0.572100  0.437900  1.0
  C  C4717  1  0.148200  0.572100  0.062100  1.0
  C  C4718  1  0.351800  0.427900  0.562100  1.0
  C  C4719  1  0.834800  0.438400  0.948500  1.0
  C  C4720  1  0.665200  0.561600  0.448500  1.0
  C  C4721  1  0.165200  0.561600  0.051500  1.0
  C  C4722  1  0.334800  0.438400  0.551500  1.0
  C  C4723  1  0.702200  0.446000  0.959190  1.0
  C  C4724  1  0.797800  0.554000  0.459190  1.0
  C  C4725  1  0.297800  0.554000  0.040810  1.0
  C  C4726  1  0.202200  0.446000  0.540810  1.0
  C  C4727  1  0.684800  0.458000  0.969400  1.0
  C  C4728  1  0.815200  0.542000  0.469400  1.0
  C  C4729  1  0.315200  0.542000  0.030600  1.0
  C  C4730  1  0.184800  0.458000  0.530600  1.0
  C  C4731  1  0.651900  0.451600  0.965900  1.0
  C  C4732  1  0.848100  0.548400  0.465900  1.0
  C  C4733  1  0.348100  0.548400  0.034100  1.0
  C  C4734  1  0.151900  0.451600  0.534100  1.0
  C  C4735  1  0.654000  0.422300  0.941500  1.0
  C  C4736  1  0.846000  0.577700  0.441500  1.0
  C  C4737  1  0.346000  0.577700  0.058500  1.0
  C  C4738  1  0.154000  0.422300  0.558500  1.0
  C  C4739  1  0.684600  0.427200  0.944500  1.0
  C  C4740  1  0.815400  0.572800  0.444500  1.0
  C  C4741  1  0.315400  0.572800  0.055500  1.0
  C  C4742  1  0.184600  0.427200  0.555500  1.0
  C  C4743  1  0.590500  0.380200  0.980890  1.0
  C  C4744  1  0.909500  0.619800  0.480890  1.0
  C  C4745  1  0.409500  0.619800  0.019110  1.0
  C  C4746  1  0.090500  0.380200  0.519110  1.0
  C  C4747  1  0.591800  0.355800  0.990690  1.0
  C  C4748  1  0.908200  0.644200  0.490690  1.0
  C  C4749  1  0.408200  0.644200  0.009310  1.0
  C  C4750  1  0.091800  0.355800  0.509310  1.0
  C  C4751  1  0.590000  0.327800  0.982170  1.0
  C  C4752  1  0.910000  0.672200  0.482170  1.0
  C  C4753  1  0.410000  0.672200  0.017830  1.0
  C  C4754  1  0.090000  0.327800  0.517830  1.0
  C  C4755  1  0.589100  0.327500  0.963850  1.0
  C  C4756  1  0.910900  0.672500  0.463850  1.0
  C  C4757  1  0.410900  0.672500  0.036150  1.0
  C  C4758  1  0.089100  0.327500  0.536150  1.0
  C  C4759  1  0.587600  0.353400  0.954930  1.0
  C  C4760  1  0.912400  0.646600  0.454930  1.0
  C  C4761  1  0.412400  0.646600  0.045070  1.0
  C  C4762  1  0.087600  0.353400  0.545070  1.0
  C  C4763  1  0.589500  0.299500  0.992140  1.0
  C  C4764  1  0.910500  0.700500  0.492140  1.0
  C  C4765  1  0.410500  0.700500  0.007860  1.0
  C  C4766  1  0.089500  0.299500  0.507860  1.0
  C  C4767  1  0.589300  0.277500  0.018720  1.0
  C  C4768  1  0.910700  0.722500  0.518720  1.0
  C  C4769  1  0.410700  0.722500  0.981280  1.0
  C  C4770  1  0.089300  0.277500  0.481280  1.0
  C  C4771  1  0.591100  0.251800  0.993430  1.0
  C  C4772  1  0.908900  0.748200  0.493430  1.0
  C  C4773  1  0.408900  0.748200  0.006570  1.0
  C  C4774  1  0.091100  0.251800  0.506570  1.0
  C  C4775  1  0.591200  0.279700  0.038510  1.0
  C  C4776  1  0.908800  0.720300  0.538510  1.0
  C  C4777  1  0.408800  0.720300  0.961490  1.0
  C  C4778  1  0.091200  0.279700  0.461490  1.0
  C  C4779  1  0.585200  0.304000  0.046970  1.0
  C  C4780  1  0.914800  0.696000  0.546970  1.0
  C  C4781  1  0.414800  0.696000  0.953030  1.0
  C  C4782  1  0.085200  0.304000  0.453030  1.0
  C  C4783  1  0.585400  0.305500  0.065090  1.0
  C  C4784  1  0.914600  0.694500  0.565090  1.0
  C  C4785  1  0.414600  0.694500  0.934910  1.0
  C  C4786  1  0.085400  0.305500  0.434910  1.0
  C  C4787  1  0.598600  0.260600  0.066770  1.0
  C  C4788  1  0.901400  0.739400  0.566770  1.0
  C  C4789  1  0.401400  0.739400  0.933230  1.0
  C  C4790  1  0.098600  0.260600  0.433230  1.0
  C  C4791  1  0.597700  0.257800  0.048800  1.0
  C  C4792  1  0.902300  0.742200  0.548800  1.0
  C  C4793  1  0.402300  0.742200  0.951200  1.0
  C  C4794  1  0.097700  0.257800  0.451200  1.0
  C  C4795  1  0.594300  0.225000  0.984580  1.0
  C  C4796  1  0.905700  0.775000  0.484580  1.0
  C  C4797  1  0.405700  0.775000  0.015420  1.0
  C  C4798  1  0.094300  0.225000  0.515420  1.0
  C  C4799  1  0.599600  0.225700  0.966480  1.0
  C  C4800  1  0.900400  0.774300  0.466480  1.0
  C  C4801  1  0.400400  0.774300  0.033520  1.0
  C  C4802  1  0.099600  0.225700  0.533520  1.0
  C  C4803  1  0.602700  0.199600  0.958330  1.0
  C  C4804  1  0.897300  0.800400  0.458330  1.0
  C  C4805  1  0.397300  0.800400  0.041670  1.0
  C  C4806  1  0.102700  0.199600  0.541670  1.0
  C  C4807  1  0.595400  0.173400  0.985500  1.0
  C  C4808  1  0.904600  0.826600  0.485500  1.0
  C  C4809  1  0.404600  0.826600  0.014500  1.0
  C  C4810  1  0.095400  0.173400  0.514500  1.0
  C  C4811  1  0.591800  0.198500  0.993700  1.0
  C  C4812  1  0.908200  0.801500  0.493700  1.0
  C  C4813  1  0.408200  0.801500  0.006300  1.0
  C  C4814  1  0.091800  0.198500  0.506300  1.0
  C  C4815  1  0.674200  0.169900  0.979400  1.0
  C  C4816  1  0.825800  0.830100  0.479400  1.0
  C  C4817  1  0.325800  0.830100  0.020600  1.0
  C  C4818  1  0.174200  0.169900  0.520600  1.0
  C  C4819  1  0.706800  0.195300  0.982900  1.0
  C  C4820  1  0.793200  0.804700  0.482900  1.0
  C  C4821  1  0.293200  0.804700  0.017100  1.0
  C  C4822  1  0.206800  0.195300  0.517100  1.0
  C  C4823  1  0.723400  0.218700  0.971700  1.0
  C  C4824  1  0.776600  0.781300  0.471700  1.0
  C  C4825  1  0.276600  0.781300  0.028300  1.0
  C  C4826  1  0.223400  0.218700  0.528300  1.0
  C  C4827  1  0.707000  0.218900  0.954900  1.0
  C  C4828  1  0.793000  0.781100  0.454900  1.0
  C  C4829  1  0.293000  0.781100  0.045100  1.0
  C  C4830  1  0.207000  0.218900  0.545100  1.0
  C  C4831  1  0.674600  0.195100  0.950600  1.0
  C  C4832  1  0.825400  0.804900  0.450600  1.0
  C  C4833  1  0.325400  0.804900  0.049400  1.0
  C  C4834  1  0.174600  0.195100  0.549400  1.0
  C  C4835  1  0.815100  0.241600  0.039800  1.0
  C  C4836  1  0.684900  0.758400  0.539800  1.0
  C  C4837  1  0.184900  0.758400  0.960200  1.0
  C  C4838  1  0.315100  0.241600  0.460200  1.0
  C  C4839  1  0.798600  0.241200  0.023300  1.0
  C  C4840  1  0.701400  0.758800  0.523300  1.0
  C  C4841  1  0.201400  0.758800  0.976700  1.0
  C  C4842  1  0.298600  0.241200  0.476700  1.0
  C  C4843  1  0.816100  0.261400  0.010400  1.0
  C  C4844  1  0.683900  0.738600  0.510400  1.0
  C  C4845  1  0.183900  0.738600  0.989600  1.0
  C  C4846  1  0.316100  0.261400  0.489600  1.0
  C  C4847  1  0.850400  0.281800  0.012800  1.0
  C  C4848  1  0.649600  0.718200  0.512800  1.0
  C  C4849  1  0.149600  0.718200  0.987200  1.0
  C  C4850  1  0.350400  0.281800  0.487200  1.0
  C  C4851  1  0.863500  0.278800  0.030200  1.0
  C  C4852  1  0.636500  0.721200  0.530200  1.0
  C  C4853  1  0.136500  0.721200  0.969800  1.0
  C  C4854  1  0.363500  0.278800  0.469800  1.0
  C  C4855  1  0.755600  0.242900  0.974400  1.0
  C  C4856  1  0.744400  0.757100  0.474400  1.0
  C  C4857  1  0.244400  0.757100  0.025600  1.0
  C  C4858  1  0.255600  0.242900  0.525600  1.0
  C  C4859  1  0.799000  0.263700  0.993000  1.0
  C  C4860  1  0.701000  0.736300  0.493000  1.0
  C  C4861  1  0.201000  0.736300  0.007000  1.0
  C  C4862  1  0.299000  0.263700  0.507000  1.0
  C  C4863  1  0.800300  0.286000  0.965900  1.0
  C  C4864  1  0.699700  0.714000  0.465900  1.0
  C  C4865  1  0.199700  0.714000  0.034100  1.0
  C  C4866  1  0.300300  0.286000  0.534100  1.0
  C  C4867  1  0.858400  0.358700  0.943100  1.0
  C  C4868  1  0.641600  0.641300  0.443100  1.0
  C  C4869  1  0.141600  0.641300  0.056900  1.0
  C  C4870  1  0.358400  0.358700  0.556900  1.0
  C  C4871  1  0.843700  0.335300  0.956690  1.0
  C  C4872  1  0.656300  0.664700  0.456690  1.0
  C  C4873  1  0.156300  0.664700  0.043310  1.0
  C  C4874  1  0.343700  0.335300  0.543310  1.0
  C  C4875  1  0.814900  0.308200  0.951000  1.0
  C  C4876  1  0.685100  0.691800  0.451000  1.0
  C  C4877  1  0.185100  0.691800  0.049000  1.0
  C  C4878  1  0.314900  0.308200  0.549000  1.0
  C  C4879  1  0.801600  0.307000  0.934600  1.0
  C  C4880  1  0.698400  0.693000  0.434600  1.0
  C  C4881  1  0.198400  0.693000  0.065400  1.0
  C  C4882  1  0.301600  0.307000  0.565400  1.0
  C  C4883  1  0.819300  0.332200  0.922500  1.0
  C  C4884  1  0.680700  0.667800  0.422500  1.0
  C  C4885  1  0.180700  0.667800  0.077500  1.0
  C  C4886  1  0.319300  0.332200  0.577500  1.0
  C  C4887  1  0.042170  0.643900  0.848150  1.0
  C  C4888  1  0.457830  0.356100  0.348150  1.0
  C  C4889  1  0.957830  0.356100  0.151850  1.0
  C  C4890  1  0.542170  0.643900  0.651850  1.0
  C  C4891  1  0.035000  0.640900  0.865940  1.0
  C  C4892  1  0.465000  0.359100  0.365940  1.0
  C  C4893  1  0.965000  0.359100  0.134060  1.0
  C  C4894  1  0.535000  0.640900  0.634060  1.0
  C  C4895  1  0.002800  0.632000  0.872460  1.0
  C  C4896  1  0.497200  0.368000  0.372460  1.0
  C  C4897  1  0.997200  0.368000  0.127540  1.0
  C  C4898  1  0.502800  0.632000  0.627540  1.0
  C  C4899  1  0.977900  0.626200  0.861280  1.0
  C  C4900  1  0.522100  0.373800  0.361280  1.0
  C  C4901  1  0.022100  0.373800  0.138720  1.0
  C  C4902  1  0.477900  0.626200  0.638720  1.0
  C  C4903  1  0.986400  0.631500  0.842590  1.0
  C  C4904  1  0.513600  0.368500  0.342590  1.0
  C  C4905  1  0.013600  0.368500  0.157410  1.0
  C  C4906  1  0.486400  0.631500  0.657410  1.0
  C  C4907  1  0.962100  0.630400  0.830860  1.0
  C  C4908  1  0.537900  0.369600  0.330860  1.0
  C  C4909  1  0.037900  0.369600  0.169140  1.0
  C  C4910  1  0.462100  0.630400  0.669140  1.0
  C  C4911  1  0.949400  0.638600  0.801260  1.0
  C  C4912  1  0.550600  0.361400  0.301260  1.0
  C  C4913  1  0.050600  0.361400  0.198740  1.0
  C  C4914  1  0.449400  0.638600  0.698740  1.0
  C  C4915  1  0.915800  0.631800  0.805540  1.0
  C  C4916  1  0.584200  0.368200  0.305540  1.0
  C  C4917  1  0.084200  0.368200  0.194460  1.0
  C  C4918  1  0.415800  0.631800  0.694460  1.0
  C  C4919  1  0.904900  0.623500  0.824160  1.0
  C  C4920  1  0.595100  0.376500  0.324160  1.0
  C  C4921  1  0.095100  0.376500  0.175840  1.0
  C  C4922  1  0.404900  0.623500  0.675840  1.0
  C  C4923  1  0.930100  0.624600  0.836230  1.0
  C  C4924  1  0.569900  0.375400  0.336230  1.0
  C  C4925  1  0.069900  0.375400  0.163770  1.0
  C  C4926  1  0.430100  0.624600  0.663770  1.0
  C  C4927  1  0.961000  0.652400  0.783810  1.0
  C  C4928  1  0.539000  0.347600  0.283810  1.0
  C  C4929  1  0.039000  0.347600  0.216190  1.0
  C  C4930  1  0.461000  0.652400  0.716190  1.0
  C  C4931  1  0.980900  0.684400  0.781880  1.0
  C  C4932  1  0.519100  0.315600  0.281880  1.0
  C  C4933  1  0.019100  0.315600  0.218120  1.0
  C  C4934  1  0.480900  0.684400  0.718120  1.0
  C  C4935  1  0.986400  0.697300  0.764320  1.0
  C  C4936  1  0.513600  0.302700  0.264320  1.0
  C  C4937  1  0.013600  0.302700  0.235680  1.0
  C  C4938  1  0.486400  0.697300  0.735680  1.0
  C  C4939  1  0.973100  0.679500  0.749700  1.0
  C  C4940  1  0.526900  0.320500  0.249700  1.0
  C  C4941  1  0.026900  0.320500  0.250300  1.0
  C  C4942  1  0.473100  0.679500  0.750300  1.0
  C  C4943  1  0.955100  0.647000  0.752280  1.0
  C  C4944  1  0.544900  0.353000  0.252280  1.0
  C  C4945  1  0.044900  0.353000  0.247720  1.0
  C  C4946  1  0.455100  0.647000  0.747720  1.0
  C  C4947  1  0.947300  0.633200  0.768330  1.0
  C  C4948  1  0.552700  0.366800  0.268330  1.0
  C  C4949  1  0.052700  0.366800  0.231670  1.0
  C  C4950  1  0.447300  0.633200  0.731670  1.0
  C  C4951  1  0.075760  0.654800  0.841600  1.0
  C  C4952  1  0.424240  0.345200  0.341600  1.0
  C  C4953  1  0.924240  0.345200  0.158400  1.0
  C  C4954  1  0.575760  0.654800  0.658400  1.0
  C  C4955  1  0.091400  0.684400  0.833780  1.0
  C  C4956  1  0.408600  0.315600  0.333780  1.0
  C  C4957  1  0.908600  0.315600  0.166220  1.0
  C  C4958  1  0.591400  0.684400  0.666220  1.0
  C  C4959  1  0.125400  0.694600  0.829400  1.0
  C  C4960  1  0.374600  0.305400  0.329400  1.0
  C  C4961  1  0.874600  0.305400  0.170600  1.0
  C  C4962  1  0.625400  0.694600  0.670600  1.0
  C  C4963  1  0.142900  0.676600  0.832800  1.0
  C  C4964  1  0.357100  0.323400  0.332800  1.0
  C  C4965  1  0.857100  0.323400  0.167200  1.0
  C  C4966  1  0.642900  0.676600  0.667200  1.0
  C  C4967  1  0.126300  0.647000  0.840700  1.0
  C  C4968  1  0.373700  0.353000  0.340700  1.0
  C  C4969  1  0.873700  0.353000  0.159300  1.0
  C  C4970  1  0.626300  0.647000  0.659300  1.0
  C  C4971  1  0.094200  0.635500  0.845100  1.0
  C  C4972  1  0.405800  0.364500  0.345100  1.0
  C  C4973  1  0.905800  0.364500  0.154900  1.0
  C  C4974  1  0.594200  0.635500  0.654900  1.0
  C  C4975  1  0.072200  0.706400  0.830700  1.0
  C  C4976  1  0.427800  0.293600  0.330700  1.0
  C  C4977  1  0.927800  0.293600  0.169300  1.0
  C  C4978  1  0.572200  0.706400  0.669300  1.0
  C  C4979  1  0.945200  0.620800  0.866420  1.0
  C  C4980  1  0.554800  0.379200  0.366420  1.0
  C  C4981  1  0.054800  0.379200  0.133580  1.0
  C  C4982  1  0.445200  0.620800  0.633580  1.0
  C  C4983  1  0.921600  0.617500  0.854660  1.0
  C  C4984  1  0.578400  0.382500  0.354660  1.0
  C  C4985  1  0.078400  0.382500  0.145340  1.0
  C  C4986  1  0.421600  0.617500  0.645340  1.0
  C  C4987  1  0.927500  0.600500  0.771300  1.0
  C  C4988  1  0.572500  0.399500  0.271300  1.0
  C  C4989  1  0.072500  0.399500  0.228700  1.0
  C  C4990  1  0.427500  0.600500  0.728700  1.0
  C  C4991  1  0.995400  0.703300  0.797900  1.0
  C  C4992  1  0.504600  0.296700  0.297900  1.0
  C  C4993  1  0.004600  0.296700  0.202100  1.0
  C  C4994  1  0.495400  0.703300  0.702100  1.0
  C  C4995  1  0.078800  0.604300  0.854400  1.0
  C  C4996  1  0.421200  0.395700  0.354400  1.0
  C  C4997  1  0.921200  0.395700  0.145600  1.0
  C  C4998  1  0.578800  0.604300  0.645600  1.0
  C  C4999  1  0.177000  0.685600  0.827800  1.0
  C  C5000  1  0.323000  0.314400  0.327800  1.0
  C  C5001  1  0.823000  0.314400  0.172200  1.0
  C  C5002  1  0.677000  0.685600  0.672200  1.0
  C  C5003  1  0.333333  0.688000  0.802280  1.0
  C  C5004  1  0.166667  0.312000  0.302280  1.0
  C  C5005  1  0.666667  0.312000  0.197720  1.0
  C  C5006  1  0.833333  0.688000  0.697720  1.0
  C  C5007  1  0.350500  0.714100  0.812600  1.0
  C  C5008  1  0.149500  0.285900  0.312600  1.0
  C  C5009  1  0.649500  0.285900  0.187400  1.0
  C  C5010  1  0.850500  0.714100  0.687400  1.0
  C  C5011  1  0.374800  0.741700  0.805270  1.0
  C  C5012  1  0.125200  0.258300  0.305270  1.0
  C  C5013  1  0.625200  0.258300  0.194730  1.0
  C  C5014  1  0.874800  0.741700  0.694730  1.0
  C  C5015  1  0.385000  0.741900  0.788640  1.0
  C  C5016  1  0.115000  0.258100  0.288640  1.0
  C  C5017  1  0.615000  0.258100  0.211360  1.0
  C  C5018  1  0.885000  0.741900  0.711360  1.0
  C  C5019  1  0.367200  0.713500  0.778200  1.0
  C  C5020  1  0.132800  0.286500  0.278200  1.0
  C  C5021  1  0.632800  0.286500  0.221800  1.0
  C  C5022  1  0.867200  0.713500  0.721800  1.0
  C  C5023  1  0.377900  0.711400  0.761200  1.0
  C  C5024  1  0.122100  0.288600  0.261200  1.0
  C  C5025  1  0.622100  0.288600  0.238800  1.0
  C  C5026  1  0.877900  0.711400  0.738800  1.0
  C  C5027  1  0.373700  0.677100  0.736820  1.0
  C  C5028  1  0.126300  0.322900  0.236820  1.0
  C  C5029  1  0.626300  0.322900  0.263180  1.0
  C  C5030  1  0.873700  0.677100  0.763180  1.0
  C  C5031  1  0.403400  0.699000  0.729070  1.0
  C  C5032  1  0.096600  0.301000  0.229070  1.0
  C  C5033  1  0.596600  0.301000  0.270930  1.0
  C  C5034  1  0.903400  0.699000  0.770930  1.0
  C  C5035  1  0.421600  0.729200  0.738430  1.0
  C  C5036  1  0.078400  0.270800  0.238430  1.0
  C  C5037  1  0.578400  0.270800  0.261570  1.0
  C  C5038  1  0.921600  0.729200  0.761570  1.0
  C  C5039  1  0.407300  0.733700  0.754640  1.0
  C  C5040  1  0.092700  0.266300  0.254640  1.0
  C  C5041  1  0.592700  0.266300  0.245360  1.0
  C  C5042  1  0.907300  0.733700  0.745360  1.0
  C  C5043  1  0.358700  0.646600  0.727800  1.0
  C  C5044  1  0.141300  0.353400  0.227800  1.0
  C  C5045  1  0.641300  0.353400  0.272200  1.0
  C  C5046  1  0.858700  0.646600  0.772200  1.0
  C  C5047  1  0.358200  0.618700  0.736400  1.0
  C  C5048  1  0.141800  0.381300  0.236400  1.0
  C  C5049  1  0.641800  0.381300  0.263600  1.0
  C  C5050  1  0.858200  0.618700  0.763600  1.0
  C  C5051  1  0.345500  0.590600  0.727300  1.0
  C  C5052  1  0.154500  0.409400  0.227300  1.0
  C  C5053  1  0.654500  0.409400  0.272700  1.0
  C  C5054  1  0.845500  0.590600  0.772700  1.0
  C  C5055  1  0.333333  0.587500  0.710300  1.0
  C  C5056  1  0.166667  0.412500  0.210300  1.0
  C  C5057  1  0.666667  0.412500  0.289700  1.0
  C  C5058  1  0.833333  0.587500  0.789700  1.0
  C  C5059  1  0.335500  0.616300  0.702700  1.0
  C  C5060  1  0.164500  0.383700  0.202700  1.0
  C  C5061  1  0.664500  0.383700  0.297300  1.0
  C  C5062  1  0.835500  0.616300  0.797300  1.0
  C  C5063  1  0.347500  0.644400  0.710300  1.0
  C  C5064  1  0.152500  0.355600  0.210300  1.0
  C  C5065  1  0.652500  0.355600  0.289700  1.0
  C  C5066  1  0.847500  0.644400  0.789700  1.0
  C  C5067  1  0.322300  0.631100  0.809970  1.0
  C  C5068  1  0.177700  0.368900  0.309970  1.0
  C  C5069  1  0.677700  0.368900  0.190030  1.0
  C  C5070  1  0.822300  0.631100  0.690030  1.0
  C  C5071  1  0.299800  0.603000  0.818200  1.0
  C  C5072  1  0.200200  0.397000  0.318200  1.0
  C  C5073  1  0.700200  0.397000  0.181800  1.0
  C  C5074  1  0.799800  0.603000  0.681800  1.0
  C  C5075  1  0.270500  0.599500  0.826700  1.0
  C  C5076  1  0.229500  0.400500  0.326700  1.0
  C  C5077  1  0.729500  0.400500  0.173300  1.0
  C  C5078  1  0.770500  0.599500  0.673300  1.0
  C  C5079  1  0.263100  0.626100  0.826800  1.0
  C  C5080  1  0.236900  0.373900  0.326800  1.0
  C  C5081  1  0.736900  0.373900  0.173200  1.0
  C  C5082  1  0.763100  0.626100  0.673200  1.0
  C  C5083  1  0.283000  0.655800  0.819200  1.0
  C  C5084  1  0.217000  0.344200  0.319200  1.0
  C  C5085  1  0.717000  0.344200  0.180800  1.0
  C  C5086  1  0.783000  0.655800  0.680800  1.0
  C  C5087  1  0.350900  0.630900  0.801740  1.0
  C  C5088  1  0.149100  0.369100  0.301740  1.0
  C  C5089  1  0.649100  0.369100  0.198260  1.0
  C  C5090  1  0.850900  0.630900  0.698260  1.0
  C  C5091  1  0.413600  0.764900  0.781010  1.0
  C  C5092  1  0.086400  0.235100  0.281010  1.0
  C  C5093  1  0.586400  0.235100  0.218990  1.0
  C  C5094  1  0.913600  0.764900  0.718990  1.0
  C  C5095  1  0.424800  0.761700  0.764950  1.0
  C  C5096  1  0.075200  0.238300  0.264950  1.0
  C  C5097  1  0.575200  0.238300  0.235050  1.0
  C  C5098  1  0.924800  0.761700  0.735050  1.0
  C  C5099  1  0.348100  0.674900  0.701400  1.0
  C  C5100  1  0.151900  0.325100  0.201400  1.0
  C  C5101  1  0.651900  0.325100  0.298600  1.0
  C  C5102  1  0.848100  0.674900  0.798600  1.0
  C  C5103  1  0.369600  0.620000  0.754700  1.0
  C  C5104  1  0.130400  0.380000  0.254700  1.0
  C  C5105  1  0.630400  0.380000  0.245300  1.0
  C  C5106  1  0.869600  0.620000  0.745300  1.0
  C  C5107  1  0.316600  0.556000  0.701200  1.0
  C  C5108  1  0.183400  0.444000  0.201200  1.0
  C  C5109  1  0.683400  0.444000  0.298800  1.0
  C  C5110  1  0.816600  0.556000  0.798800  1.0
  C  C5111  1  0.271200  0.682600  0.819900  1.0
  C  C5112  1  0.228800  0.317400  0.319900  1.0
  C  C5113  1  0.728800  0.317400  0.180100  1.0
  C  C5114  1  0.771200  0.682600  0.680100  1.0
  C  C5115  1  0.247500  0.569200  0.835000  1.0
  C  C5116  1  0.252500  0.430800  0.335000  1.0
  C  C5117  1  0.752500  0.430800  0.165000  1.0
  C  C5118  1  0.747500  0.569200  0.665000  1.0
  C  C5119  1  0.133700  0.424000  0.857070  1.0
  C  C5120  1  0.366300  0.576000  0.357070  1.0
  C  C5121  1  0.866300  0.576000  0.142930  1.0
  C  C5122  1  0.633700  0.424000  0.642930  1.0
  C  C5123  1  0.153400  0.420700  0.870400  1.0
  C  C5124  1  0.346600  0.579300  0.370400  1.0
  C  C5125  1  0.846600  0.579300  0.129600  1.0
  C  C5126  1  0.653400  0.420700  0.629600  1.0
  C  C5127  1  0.162900  0.394600  0.871100  1.0
  C  C5128  1  0.337100  0.605400  0.371100  1.0
  C  C5129  1  0.837100  0.605400  0.128900  1.0
  C  C5130  1  0.662900  0.394600  0.628900  1.0
  C  C5131  1  0.150500  0.370700  0.859600  1.0
  C  C5132  1  0.349500  0.629300  0.359600  1.0
  C  C5133  1  0.849500  0.629300  0.140400  1.0
  C  C5134  1  0.650500  0.370700  0.640400  1.0
  C  C5135  1  0.129800  0.374900  0.845740  1.0
  C  C5136  1  0.370200  0.625100  0.345740  1.0
  C  C5137  1  0.870200  0.625100  0.154260  1.0
  C  C5138  1  0.629800  0.374900  0.654260  1.0
  C  C5139  1  0.115400  0.350300  0.833880  1.0
  C  C5140  1  0.384600  0.649700  0.333880  1.0
  C  C5141  1  0.884600  0.649700  0.166120  1.0
  C  C5142  1  0.615400  0.350300  0.666120  1.0
  C  C5143  1  0.075300  0.330200  0.811180  1.0
  C  C5144  1  0.424700  0.669800  0.311180  1.0
  C  C5145  1  0.924700  0.669800  0.188820  1.0
  C  C5146  1  0.575300  0.330200  0.688820  1.0
  C  C5147  1  0.078700  0.300400  0.811100  1.0
  C  C5148  1  0.421300  0.699600  0.311100  1.0
  C  C5149  1  0.921300  0.699600  0.188900  1.0
  C  C5150  1  0.578700  0.300400  0.688900  1.0
  C  C5151  1  0.101500  0.295300  0.824100  1.0
  C  C5152  1  0.398500  0.704700  0.324100  1.0
  C  C5153  1  0.898500  0.704700  0.175900  1.0
  C  C5154  1  0.601500  0.295300  0.675900  1.0
  C  C5155  1  0.116200  0.320700  0.836410  1.0
  C  C5156  1  0.383800  0.679300  0.336410  1.0
  C  C5157  1  0.883800  0.679300  0.163590  1.0
  C  C5158  1  0.616200  0.320700  0.663590  1.0
  C  C5159  1  0.051000  0.333700  0.799180  1.0
  C  C5160  1  0.449000  0.666300  0.299180  1.0
  C  C5161  1  0.949000  0.666300  0.200820  1.0
  C  C5162  1  0.551000  0.333700  0.700820  1.0
  C  C5163  1  0.024200  0.339200  0.805630  1.0
  C  C5164  1  0.475800  0.660800  0.305630  1.0
  C  C5165  1  0.975800  0.660800  0.194370  1.0
  C  C5166  1  0.524200  0.339200  0.694370  1.0
  C  C5167  1  0.999600  0.338900  0.793240  1.0
  C  C5168  1  0.500400  0.661100  0.293240  1.0
  C  C5169  1  0.000400  0.661100  0.206760  1.0
  C  C5170  1  0.499600  0.338900  0.706760  1.0
  C  C5171  1  0.002100  0.334500  0.775550  1.0
  C  C5172  1  0.497900  0.665500  0.275550  1.0
  C  C5173  1  0.997900  0.665500  0.224450  1.0
  C  C5174  1  0.502100  0.334500  0.724450  1.0
  C  C5175  1  0.029200  0.328700  0.769740  1.0
  C  C5176  1  0.470800  0.671300  0.269740  1.0
  C  C5177  1  0.970800  0.671300  0.230260  1.0
  C  C5178  1  0.529200  0.328700  0.730260  1.0
  C  C5179  1  0.052800  0.327200  0.780560  1.0
  C  C5180  1  0.447200  0.672800  0.280560  1.0
  C  C5181  1  0.947200  0.672800  0.219440  1.0
  C  C5182  1  0.552800  0.327200  0.719440  1.0
  C  C5183  1  0.120200  0.448210  0.857600  1.0
  C  C5184  1  0.379800  0.551790  0.357600  1.0
  C  C5185  1  0.879800  0.551790  0.142400  1.0
  C  C5186  1  0.620200  0.448210  0.642400  1.0
  C  C5187  1  0.086700  0.440700  0.859600  1.0
  C  C5188  1  0.413300  0.559300  0.359600  1.0
  C  C5189  1  0.913300  0.559300  0.140400  1.0
  C  C5190  1  0.586700  0.440700  0.640400  1.0
  C  C5191  1  0.075700  0.466100  0.860130  1.0
  C  C5192  1  0.424300  0.533900  0.360130  1.0
  C  C5193  1  0.924300  0.533900  0.139870  1.0
  C  C5194  1  0.575700  0.466100  0.639870  1.0
  C  C5195  1  0.096600  0.497000  0.858700  1.0
  C  C5196  1  0.403400  0.503000  0.358700  1.0
  C  C5197  1  0.903400  0.503000  0.141300  1.0
  C  C5198  1  0.596600  0.497000  0.641300  1.0
  C  C5199  1  0.130000  0.503440  0.857100  1.0
  C  C5200  1  0.370000  0.496560  0.357100  1.0
  C  C5201  1  0.870000  0.496560  0.142900  1.0
  C  C5202  1  0.630000  0.503440  0.642900  1.0
  C  C5203  1  0.142600  0.481100  0.856800  1.0
  C  C5204  1  0.357400  0.518900  0.356800  1.0
  C  C5205  1  0.857400  0.518900  0.143200  1.0
  C  C5206  1  0.642600  0.481100  0.643200  1.0
  C  C5207  1  0.062900  0.406300  0.862100  1.0
  C  C5208  1  0.437100  0.593700  0.362100  1.0
  C  C5209  1  0.937100  0.593700  0.137900  1.0
  C  C5210  1  0.562900  0.406300  0.637900  1.0
  C  C5211  1  0.155800  0.342200  0.859700  1.0
  C  C5212  1  0.344200  0.657800  0.359700  1.0
  C  C5213  1  0.844200  0.657800  0.140300  1.0
  C  C5214  1  0.655800  0.342200  0.640300  1.0
  C  C5215  1  0.138900  0.317400  0.849330  1.0
  C  C5216  1  0.361100  0.682600  0.349330  1.0
  C  C5217  1  0.861100  0.682600  0.150670  1.0
  C  C5218  1  0.638900  0.317400  0.650670  1.0
  C  C5219  1  0.082700  0.321600  0.772800  1.0
  C  C5220  1  0.417300  0.678400  0.272800  1.0
  C  C5221  1  0.917300  0.678400  0.227200  1.0
  C  C5222  1  0.582700  0.321600  0.727200  1.0
  C  C5223  1  0.022700  0.346000  0.824900  1.0
  C  C5224  1  0.477300  0.654000  0.324900  1.0
  C  C5225  1  0.977300  0.654000  0.175100  1.0
  C  C5226  1  0.522700  0.346000  0.675100  1.0
  C  C5227  1  0.978200  0.335100  0.762800  1.0
  C  C5228  1  0.521800  0.664900  0.262800  1.0
  C  C5229  1  0.021800  0.664900  0.237200  1.0
  C  C5230  1  0.478200  0.335100  0.737200  1.0
  C  C5231  1  0.180000  0.488900  0.853800  1.0
  C  C5232  1  0.320000  0.511100  0.353800  1.0
  C  C5233  1  0.820000  0.511100  0.146200  1.0
  C  C5234  1  0.680000  0.488900  0.646200  1.0
  C  C5235  1  0.084900  0.524200  0.858700  1.0
  C  C5236  1  0.415100  0.475800  0.358700  1.0
  C  C5237  1  0.915100  0.475800  0.141300  1.0
  C  C5238  1  0.584900  0.524200  0.641300  1.0
  C  C5239  1  0.848500  0.431900  0.685100  1.0
  C  C5240  1  0.651500  0.568100  0.185100  1.0
  C  C5241  1  0.151500  0.568100  0.314900  1.0
  C  C5242  1  0.348500  0.431900  0.814900  1.0
  C  C5243  1  0.816000  0.428500  0.685000  1.0
  C  C5244  1  0.684000  0.571500  0.185000  1.0
  C  C5245  1  0.184000  0.571500  0.315000  1.0
  C  C5246  1  0.316000  0.428500  0.815000  1.0
  C  C5247  1  0.791500  0.402700  0.693500  1.0
  C  C5248  1  0.708500  0.597300  0.193500  1.0
  C  C5249  1  0.208500  0.597300  0.306500  1.0
  C  C5250  1  0.291500  0.402700  0.806500  1.0
  C  C5251  1  0.797100  0.377000  0.697700  1.0
  C  C5252  1  0.702900  0.623000  0.197700  1.0
  C  C5253  1  0.202900  0.623000  0.302300  1.0
  C  C5254  1  0.297100  0.377000  0.802300  1.0
  C  C5255  1  0.830800  0.380000  0.695900  1.0
  C  C5256  1  0.669200  0.620000  0.195900  1.0
  C  C5257  1  0.169200  0.620000  0.304100  1.0
  C  C5258  1  0.330800  0.380000  0.804100  1.0
  C  C5259  1  0.837100  0.353300  0.698800  1.0
  C  C5260  1  0.662900  0.646700  0.198800  1.0
  C  C5261  1  0.162900  0.646700  0.301200  1.0
  C  C5262  1  0.337100  0.353300  0.801200  1.0
  C  C5263  1  0.876500  0.330200  0.696500  1.0
  C  C5264  1  0.623500  0.669800  0.196500  1.0
  C  C5265  1  0.123500  0.669800  0.303500  1.0
  C  C5266  1  0.376500  0.330200  0.803500  1.0
  C  C5267  1  0.852500  0.299500  0.701300  1.0
  C  C5268  1  0.647500  0.700500  0.201300  1.0
  C  C5269  1  0.147500  0.700500  0.298700  1.0
  C  C5270  1  0.352500  0.299500  0.798700  1.0
  C  C5271  1  0.818700  0.296200  0.704900  1.0
  C  C5272  1  0.681300  0.703800  0.204900  1.0
  C  C5273  1  0.181300  0.703800  0.295100  1.0
  C  C5274  1  0.318700  0.296200  0.795100  1.0
  C  C5275  1  0.812900  0.324600  0.704200  1.0
  C  C5276  1  0.687100  0.675400  0.204200  1.0
  C  C5277  1  0.187100  0.675400  0.295800  1.0
  C  C5278  1  0.312900  0.324600  0.795800  1.0
  C  C5279  1  0.909100  0.332000  0.691580  1.0
  C  C5280  1  0.590900  0.668000  0.191580  1.0
  C  C5281  1  0.090900  0.668000  0.308420  1.0
  C  C5282  1  0.409100  0.332000  0.808420  1.0
  C  C5283  1  0.920200  0.336900  0.674130  1.0
  C  C5284  1  0.579800  0.663100  0.174130  1.0
  C  C5285  1  0.079800  0.663100  0.325870  1.0
  C  C5286  1  0.420200  0.336900  0.825870  1.0
  C  C5287  1  0.950900  0.334800  0.670200  1.0
  C  C5288  1  0.549100  0.665200  0.170200  1.0
  C  C5289  1  0.049100  0.665200  0.329800  1.0
  C  C5290  1  0.450900  0.334800  0.829800  1.0
  C  C5291  1  0.969200  0.328100  0.682800  1.0
  C  C5292  1  0.530800  0.671900  0.182800  1.0
  C  C5293  1  0.030800  0.671900  0.317200  1.0
  C  C5294  1  0.469200  0.328100  0.817200  1.0
  C  C5295  1  0.957800  0.324900  0.700300  1.0
  C  C5296  1  0.542200  0.675100  0.200300  1.0
  C  C5297  1  0.042200  0.675100  0.299700  1.0
  C  C5298  1  0.457800  0.324900  0.799700  1.0
  C  C5299  1  0.928700  0.325400  0.705110  1.0
  C  C5300  1  0.571300  0.674600  0.205110  1.0
  C  C5301  1  0.071300  0.674600  0.294890  1.0
  C  C5302  1  0.428700  0.325400  0.794890  1.0
  C  C5303  1  0.873500  0.457910  0.675590  1.0
  C  C5304  1  0.626500  0.542090  0.175590  1.0
  C  C5305  1  0.126500  0.542090  0.324410  1.0
  C  C5306  1  0.373500  0.457910  0.824410  1.0
  C  C5307  1  0.887200  0.453200  0.659790  1.0
  C  C5308  1  0.612800  0.546800  0.159790  1.0
  C  C5309  1  0.112800  0.546800  0.340210  1.0
  C  C5310  1  0.387200  0.453200  0.840210  1.0
  C  C5311  1  0.911400  0.480200  0.651360  1.0
  C  C5312  1  0.588600  0.519800  0.151360  1.0
  C  C5313  1  0.088600  0.519800  0.348640  1.0
  C  C5314  1  0.411400  0.480200  0.848640  1.0
  C  C5315  1  0.921100  0.510000  0.658200  1.0
  C  C5316  1  0.578900  0.490000  0.158200  1.0
  C  C5317  1  0.078900  0.490000  0.341800  1.0
  C  C5318  1  0.421100  0.510000  0.841800  1.0
  C  C5319  1  0.906400  0.513600  0.674000  1.0
  C  C5320  1  0.593600  0.486400  0.174000  1.0
  C  C5321  1  0.093600  0.486400  0.326000  1.0
  C  C5322  1  0.406400  0.513600  0.826000  1.0
  C  C5323  1  0.882200  0.489700  0.682300  1.0
  C  C5324  1  0.617800  0.510300  0.182300  1.0
  C  C5325  1  0.117800  0.510300  0.317700  1.0
  C  C5326  1  0.382200  0.489700  0.817700  1.0
  C  C5327  1  0.877700  0.422200  0.650900  1.0
  C  C5328  1  0.622300  0.577800  0.150900  1.0
  C  C5329  1  0.122300  0.577800  0.349100  1.0
  C  C5330  1  0.377700  0.422200  0.849100  1.0
  C  C5331  1  0.772700  0.347600  0.703300  1.0
  C  C5332  1  0.727300  0.652400  0.203300  1.0
  C  C5333  1  0.227300  0.652400  0.296700  1.0
  C  C5334  1  0.272700  0.347600  0.796700  1.0
  C  C5335  1  0.779600  0.322100  0.706400  1.0
  C  C5336  1  0.720400  0.677900  0.206400  1.0
  C  C5337  1  0.220400  0.677900  0.293600  1.0
  C  C5338  1  0.279600  0.322100  0.793600  1.0
  C  C5339  1  0.913100  0.318900  0.725200  1.0
  C  C5340  1  0.586900  0.681100  0.225200  1.0
  C  C5341  1  0.086900  0.681100  0.274800  1.0
  C  C5342  1  0.413100  0.318900  0.774800  1.0
  C  C5343  1  0.898100  0.342400  0.660300  1.0
  C  C5344  1  0.601900  0.657600  0.160300  1.0
  C  C5345  1  0.101900  0.657600  0.339700  1.0
  C  C5346  1  0.398100  0.342400  0.839700  1.0
  C  C5347  1  0.002100  0.326400  0.675600  1.0
  C  C5348  1  0.497900  0.673600  0.175600  1.0
  C  C5349  1  0.997900  0.673600  0.324400  1.0
  C  C5350  1  0.502100  0.326400  0.824400  1.0
  C  C5351  1  0.868200  0.494800  0.699900  1.0
  C  C5352  1  0.631800  0.505200  0.199900  1.0
  C  C5353  1  0.131800  0.505200  0.300100  1.0
  C  C5354  1  0.368200  0.494800  0.800100  1.0
  C  C5355  1  0.947300  0.538300  0.649300  1.0
  C  C5356  1  0.552700  0.461700  0.149300  1.0
  C  C5357  1  0.052700  0.461700  0.350700  1.0
  C  C5358  1  0.447300  0.538300  0.850700  1.0
  C  C5359  1  0.059500  0.671600  0.628900  1.0
  C  C5360  1  0.440500  0.328400  0.128900  1.0
  C  C5361  1  0.940500  0.328400  0.371100  1.0
  C  C5362  1  0.559500  0.671600  0.871100  1.0
  C  C5363  1  0.035300  0.671500  0.614500  1.0
  C  C5364  1  0.464700  0.328500  0.114500  1.0
  C  C5365  1  0.964700  0.328500  0.385500  1.0
  C  C5366  1  0.535300  0.671500  0.885500  1.0
  C  C5367  1  0.042500  0.668000  0.597400  1.0
  C  C5368  1  0.457500  0.332000  0.097400  1.0
  C  C5369  1  0.957500  0.332000  0.402600  1.0
  C  C5370  1  0.542500  0.668000  0.902600  1.0
  C  C5371  1  0.073400  0.667800  0.592300  1.0
  C  C5372  1  0.426600  0.332200  0.092300  1.0
  C  C5373  1  0.926600  0.332200  0.407700  1.0
  C  C5374  1  0.573400  0.667800  0.907700  1.0
  C  C5375  1  0.093700  0.667900  0.606070  1.0
  C  C5376  1  0.406300  0.332100  0.106070  1.0
  C  C5377  1  0.906300  0.332100  0.393930  1.0
  C  C5378  1  0.593700  0.667900  0.893930  1.0
  C  C5379  1  0.125800  0.668600  0.602100  1.0
  C  C5380  1  0.374200  0.331400  0.102100  1.0
  C  C5381  1  0.874200  0.331400  0.397900  1.0
  C  C5382  1  0.625800  0.668600  0.897900  1.0
  C  C5383  1  0.178000  0.677000  0.613050  1.0
  C  C5384  1  0.322000  0.323000  0.113050  1.0
  C  C5385  1  0.822000  0.323000  0.386950  1.0
  C  C5386  1  0.678000  0.677000  0.886950  1.0
  C  C5387  1  0.188400  0.678300  0.595300  1.0
  C  C5388  1  0.311600  0.321700  0.095300  1.0
  C  C5389  1  0.811600  0.321700  0.404700  1.0
  C  C5390  1  0.688400  0.678300  0.904700  1.0
  C  C5391  1  0.165800  0.674300  0.581400  1.0
  C  C5392  1  0.334200  0.325700  0.081400  1.0
  C  C5393  1  0.834200  0.325700  0.418600  1.0
  C  C5394  1  0.665800  0.674300  0.918600  1.0
  C  C5395  1  0.135900  0.670300  0.584400  1.0
  C  C5396  1  0.364100  0.329700  0.084400  1.0
  C  C5397  1  0.864100  0.329700  0.415600  1.0
  C  C5398  1  0.635900  0.670300  0.915600  1.0
  C  C5399  1  0.202200  0.684900  0.627250  1.0
  C  C5400  1  0.297800  0.315100  0.127250  1.0
  C  C5401  1  0.797800  0.315100  0.372750  1.0
  C  C5402  1  0.702200  0.684900  0.872750  1.0
  C  C5403  1  0.231000  0.715500  0.652670  1.0
  C  C5404  1  0.269000  0.284500  0.152670  1.0
  C  C5405  1  0.769000  0.284500  0.347330  1.0
  C  C5406  1  0.731000  0.715500  0.847330  1.0
  C  C5407  1  0.247200  0.696100  0.655430  1.0
  C  C5408  1  0.252800  0.303900  0.155430  1.0
  C  C5409  1  0.752800  0.303900  0.344570  1.0
  C  C5410  1  0.747200  0.696100  0.844570  1.0
  C  C5411  1  0.241300  0.671100  0.643500  1.0
  C  C5412  1  0.258700  0.328900  0.143500  1.0
  C  C5413  1  0.758700  0.328900  0.356500  1.0
  C  C5414  1  0.741300  0.671100  0.856500  1.0
  C  C5415  1  0.221000  0.665500  0.629430  1.0
  C  C5416  1  0.279000  0.334500  0.129430  1.0
  C  C5417  1  0.779000  0.334500  0.370570  1.0
  C  C5418  1  0.721000  0.665500  0.870570  1.0
  C  C5419  1  0.053200  0.677100  0.646620  1.0
  C  C5420  1  0.446800  0.322900  0.146620  1.0
  C  C5421  1  0.946800  0.322900  0.353380  1.0
  C  C5422  1  0.553200  0.677100  0.853380  1.0
  C  C5423  1  0.075000  0.705700  0.654100  1.0
  C  C5424  1  0.425000  0.294300  0.154100  1.0
  C  C5425  1  0.925000  0.294300  0.345900  1.0
  C  C5426  1  0.575000  0.705700  0.845900  1.0
  C  C5427  1  0.069300  0.713700  0.671200  1.0
  C  C5428  1  0.430700  0.286300  0.171200  1.0
  C  C5429  1  0.930700  0.286300  0.328800  1.0
  C  C5430  1  0.569300  0.713700  0.828800  1.0
  C  C5431  1  0.042600  0.692300  0.681000  1.0
  C  C5432  1  0.457400  0.307700  0.181000  1.0
  C  C5433  1  0.957400  0.307700  0.319000  1.0
  C  C5434  1  0.542600  0.692300  0.819000  1.0
  C  C5435  1  0.022500  0.665200  0.673300  1.0
  C  C5436  1  0.477500  0.334800  0.173300  1.0
  C  C5437  1  0.977500  0.334800  0.326700  1.0
  C  C5438  1  0.522500  0.665200  0.826700  1.0
  C  C5439  1  0.026800  0.657900  0.656500  1.0
  C  C5440  1  0.473200  0.342100  0.156500  1.0
  C  C5441  1  0.973200  0.342100  0.343500  1.0
  C  C5442  1  0.526800  0.657900  0.843500  1.0
  C  C5443  1  0.102600  0.729400  0.643400  1.0
  C  C5444  1  0.397400  0.270600  0.143400  1.0
  C  C5445  1  0.897400  0.270600  0.356600  1.0
  C  C5446  1  0.602600  0.729400  0.856600  1.0
  C  C5447  1  0.084900  0.668800  0.574900  1.0
  C  C5448  1  0.415100  0.331200  0.074900  1.0
  C  C5449  1  0.915100  0.331200  0.425100  1.0
  C  C5450  1  0.584900  0.668800  0.925100  1.0
  C  C5451  1  0.113300  0.670500  0.570300  1.0
  C  C5452  1  0.386700  0.329500  0.070300  1.0
  C  C5453  1  0.886700  0.329500  0.429700  1.0
  C  C5454  1  0.613300  0.670500  0.929700  1.0
  C  C5455  1  0.215500  0.637500  0.618100  1.0
  C  C5456  1  0.284500  0.362500  0.118100  1.0
  C  C5457  1  0.784500  0.362500  0.381900  1.0
  C  C5458  1  0.715500  0.637500  0.881900  1.0
  C  C5459  1  0.190500  0.732400  0.636700  1.0
  C  C5460  1  0.309500  0.267600  0.136700  1.0
  C  C5461  1  0.809500  0.267600  0.363300  1.0
  C  C5462  1  0.690500  0.732400  0.863300  1.0
  C  C5463  1  0.270800  0.702000  0.670800  1.0
  C  C5464  1  0.229200  0.298000  0.170800  1.0
  C  C5465  1  0.729200  0.298000  0.329200  1.0
  C  C5466  1  0.770800  0.702000  0.829200  1.0
  C  C5467  1  0.002600  0.627000  0.647800  1.0
  C  C5468  1  0.497400  0.373000  0.147800  1.0
  C  C5469  1  0.997400  0.373000  0.352200  1.0
  C  C5470  1  0.502600  0.627000  0.852200  1.0
  C  C5471  1  0.035900  0.699300  0.700300  1.0
  C  C5472  1  0.464100  0.300700  0.200300  1.0
  C  C5473  1  0.964100  0.300700  0.299700  1.0
  C  C5474  1  0.535900  0.699300  0.799700  1.0
  C  C5475  1  0.239900  0.446700  0.624820  1.0
  C  C5476  1  0.260100  0.553300  0.124820  1.0
  C  C5477  1  0.760100  0.553300  0.375180  1.0
  C  C5478  1  0.739900  0.446700  0.875180  1.0
  C  C5479  1  0.244200  0.447700  0.606710  1.0
  C  C5480  1  0.255800  0.552300  0.106710  1.0
  C  C5481  1  0.755800  0.552300  0.393290  1.0
  C  C5482  1  0.744200  0.447700  0.893290  1.0
  C  C5483  1  0.227500  0.420800  0.596130  1.0
  C  C5484  1  0.272500  0.579200  0.096130  1.0
  C  C5485  1  0.772500  0.579200  0.403870  1.0
  C  C5486  1  0.727500  0.420800  0.903870  1.0
  C  C5487  1  0.208400  0.393400  0.603520  1.0
  C  C5488  1  0.291600  0.606600  0.103520  1.0
  C  C5489  1  0.791600  0.606600  0.396480  1.0
  C  C5490  1  0.708400  0.393400  0.896480  1.0
  C  C5491  1  0.202600  0.394000  0.622530  1.0
  C  C5492  1  0.297400  0.606000  0.122530  1.0
  C  C5493  1  0.797400  0.606000  0.377470  1.0
  C  C5494  1  0.702600  0.394000  0.877470  1.0
  C  C5495  1  0.183300  0.365900  0.630700  1.0
  C  C5496  1  0.316700  0.634100  0.130700  1.0
  C  C5497  1  0.816700  0.634100  0.369300  1.0
  C  C5498  1  0.683300  0.365900  0.869300  1.0
  C  C5499  1  0.160800  0.340300  0.658010  1.0
  C  C5500  1  0.339200  0.659700  0.158010  1.0
  C  C5501  1  0.839200  0.659700  0.341990  1.0
  C  C5502  1  0.660800  0.340300  0.841990  1.0
  C  C5503  1  0.147100  0.309700  0.649480  1.0
  C  C5504  1  0.352900  0.690300  0.149480  1.0
  C  C5505  1  0.852900  0.690300  0.350520  1.0
  C  C5506  1  0.647100  0.309700  0.850520  1.0
  C  C5507  1  0.150300  0.308500  0.629950  1.0
  C  C5508  1  0.349700  0.691500  0.129950  1.0
  C  C5509  1  0.849700  0.691500  0.370050  1.0
  C  C5510  1  0.650300  0.308500  0.870050  1.0
  C  C5511  1  0.170900  0.337200  0.621610  1.0
  C  C5512  1  0.329100  0.662800  0.121610  1.0
  C  C5513  1  0.829100  0.662800  0.378390  1.0
  C  C5514  1  0.670900  0.337200  0.878390  1.0
  C  C5515  1  0.157700  0.340700  0.677280  1.0
  C  C5516  1  0.342300  0.659300  0.177280  1.0
  C  C5517  1  0.842300  0.659300  0.322720  1.0
  C  C5518  1  0.657700  0.340700  0.822720  1.0
  C  C5519  1  0.185000  0.349900  0.688360  1.0
  C  C5520  1  0.315000  0.650100  0.188360  1.0
  C  C5521  1  0.815000  0.650100  0.311640  1.0
  C  C5522  1  0.685000  0.349900  0.811640  1.0
  C  C5523  1  0.179700  0.349700  0.707100  1.0
  C  C5524  1  0.320300  0.650300  0.207100  1.0
  C  C5525  1  0.820300  0.650300  0.292900  1.0
  C  C5526  1  0.679700  0.349700  0.792900  1.0
  C  C5527  1  0.149300  0.341000  0.714310  1.0
  C  C5528  1  0.350700  0.659000  0.214310  1.0
  C  C5529  1  0.850700  0.659000  0.285690  1.0
  C  C5530  1  0.649300  0.341000  0.785690  1.0
  C  C5531  1  0.122600  0.332000  0.702700  1.0
  C  C5532  1  0.377400  0.668000  0.202700  1.0
  C  C5533  1  0.877400  0.668000  0.297300  1.0
  C  C5534  1  0.622600  0.332000  0.797300  1.0
  C  C5535  1  0.125400  0.331800  0.684870  1.0
  C  C5536  1  0.374600  0.668200  0.184870  1.0
  C  C5537  1  0.874600  0.668200  0.315130  1.0
  C  C5538  1  0.625400  0.331800  0.815130  1.0
  C  C5539  1  0.262100  0.471500  0.636310  1.0
  C  C5540  1  0.237900  0.528500  0.136310  1.0
  C  C5541  1  0.737900  0.528500  0.363690  1.0
  C  C5542  1  0.762100  0.471500  0.863690  1.0
  C  C5543  1  0.284400  0.465700  0.647320  1.0
  C  C5544  1  0.215600  0.534300  0.147320  1.0
  C  C5545  1  0.715600  0.534300  0.352680  1.0
  C  C5546  1  0.784400  0.465700  0.852680  1.0
  C  C5547  1  0.311000  0.492300  0.654570  1.0
  C  C5548  1  0.189000  0.507700  0.154570  1.0
  C  C5549  1  0.689000  0.507700  0.345430  1.0
  C  C5550  1  0.811000  0.492300  0.845430  1.0
  C  C5551  1  0.314900  0.522700  0.651400  1.0
  C  C5552  1  0.185100  0.477300  0.151400  1.0
  C  C5553  1  0.685100  0.477300  0.348600  1.0
  C  C5554  1  0.814900  0.522700  0.848600  1.0
  C  C5555  1  0.291700  0.527400  0.640400  1.0
  C  C5556  1  0.208300  0.472600  0.140400  1.0
  C  C5557  1  0.708300  0.472600  0.359600  1.0
  C  C5558  1  0.791700  0.527400  0.859600  1.0
  C  C5559  1  0.266800  0.503900  0.632300  1.0
  C  C5560  1  0.233200  0.496100  0.132300  1.0
  C  C5561  1  0.733200  0.496100  0.367700  1.0
  C  C5562  1  0.766800  0.503900  0.867700  1.0
  C  C5563  1  0.281300  0.432100  0.651400  1.0
  C  C5564  1  0.218700  0.567900  0.151400  1.0
  C  C5565  1  0.718700  0.567900  0.348600  1.0
  C  C5566  1  0.781300  0.432100  0.848600  1.0
  C  C5567  1  0.344000  0.550700  0.658700  1.0
  C  C5568  1  0.156000  0.449300  0.158700  1.0
  C  C5569  1  0.656000  0.449300  0.341300  1.0
  C  C5570  1  0.844000  0.550700  0.841300  1.0
  C  C5571  1  0.240800  0.508700  0.620800  1.0
  C  C5572  1  0.259200  0.491300  0.120800  1.0
  C  C5573  1  0.759200  0.491300  0.379200  1.0
  C  C5574  1  0.740800  0.508700  0.879200  1.0
  C  C5575  1  0.192300  0.364600  0.594310  1.0
  C  C5576  1  0.307700  0.635400  0.094310  1.0
  C  C5577  1  0.807700  0.635400  0.405690  1.0
  C  C5578  1  0.692300  0.364600  0.905690  1.0
  C  C5579  1  0.174400  0.337300  0.602470  1.0
  C  C5580  1  0.325600  0.662700  0.102470  1.0
  C  C5581  1  0.825600  0.662700  0.397530  1.0
  C  C5582  1  0.674400  0.337300  0.897530  1.0
  C  C5583  1  0.092700  0.322700  0.673500  1.0
  C  C5584  1  0.407300  0.677300  0.173500  1.0
  C  C5585  1  0.907300  0.677300  0.326500  1.0
  C  C5586  1  0.592700  0.322700  0.826500  1.0
  C  C5587  1  0.217400  0.359000  0.681700  1.0
  C  C5588  1  0.282600  0.641000  0.181700  1.0
  C  C5589  1  0.782600  0.641000  0.318300  1.0
  C  C5590  1  0.717400  0.359000  0.818300  1.0
  C  C5591  1  0.145600  0.342700  0.734900  1.0
  C  C5592  1  0.354400  0.657300  0.234900  1.0
  C  C5593  1  0.854400  0.657300  0.265100  1.0
  C  C5594  1  0.645600  0.342700  0.765100  1.0
  C  C5595  1  0.805000  0.121800  0.305270  1.0
  C  C5596  1  0.695000  0.878200  0.805270  1.0
  C  C5597  1  0.195000  0.878200  0.694730  1.0
  C  C5598  1  0.305000  0.121800  0.194730  1.0
  C  C5599  1  0.817900  0.146100  0.317690  1.0
  C  C5600  1  0.682100  0.853900  0.817690  1.0
  C  C5601  1  0.182100  0.853900  0.682310  1.0
  C  C5602  1  0.317900  0.146100  0.182310  1.0
  C  C5603  1  0.841500  0.175300  0.313370  1.0
  C  C5604  1  0.658500  0.824700  0.813370  1.0
  C  C5605  1  0.158500  0.824700  0.686630  1.0
  C  C5606  1  0.341500  0.175300  0.186630  1.0
  C  C5607  1  0.849800  0.180900  0.295400  1.0
  C  C5608  1  0.650200  0.819100  0.795400  1.0
  C  C5609  1  0.150200  0.819100  0.704600  1.0
  C  C5610  1  0.349800  0.180900  0.204600  1.0
  C  C5611  1  0.835500  0.155600  0.283400  1.0
  C  C5612  1  0.664500  0.844400  0.783400  1.0
  C  C5613  1  0.164500  0.844400  0.716600  1.0
  C  C5614  1  0.335500  0.155600  0.216600  1.0
  C  C5615  1  0.845300  0.159500  0.265190  1.0
  C  C5616  1  0.654700  0.840500  0.765190  1.0
  C  C5617  1  0.154700  0.840500  0.734810  1.0
  C  C5618  1  0.345300  0.159500  0.234810  1.0
  C  C5619  1  0.844000  0.135300  0.238180  1.0
  C  C5620  1  0.656000  0.864700  0.738180  1.0
  C  C5621  1  0.156000  0.864700  0.761820  1.0
  C  C5622  1  0.344000  0.135300  0.261820  1.0
  C  C5623  1  0.868800  0.163200  0.231600  1.0
  C  C5624  1  0.631200  0.836800  0.731600  1.0
  C  C5625  1  0.131200  0.836800  0.768400  1.0
  C  C5626  1  0.368800  0.163200  0.268400  1.0
  C  C5627  1  0.879500  0.189200  0.241500  1.0
  C  C5628  1  0.620500  0.810800  0.741500  1.0
  C  C5629  1  0.120500  0.810800  0.758500  1.0
  C  C5630  1  0.379500  0.189200  0.258500  1.0
  C  C5631  1  0.869600  0.188800  0.260000  1.0
  C  C5632  1  0.630400  0.811200  0.760000  1.0
  C  C5633  1  0.130400  0.811200  0.740000  1.0
  C  C5634  1  0.369600  0.188800  0.240000  1.0
  C  C5635  1  0.836300  0.107100  0.227180  1.0
  C  C5636  1  0.663700  0.892900  0.727180  1.0
  C  C5637  1  0.163700  0.892900  0.772820  1.0
  C  C5638  1  0.336300  0.107100  0.272820  1.0
  C  C5639  1  0.844700  0.081800  0.232520  1.0
  C  C5640  1  0.655300  0.918200  0.732520  1.0
  C  C5641  1  0.155300  0.918200  0.767480  1.0
  C  C5642  1  0.344700  0.081800  0.267480  1.0
  C  C5643  1  0.844000  0.058500  0.221750  1.0
  C  C5644  1  0.656000  0.941500  0.721750  1.0
  C  C5645  1  0.156000  0.941500  0.778250  1.0
  C  C5646  1  0.344000  0.058500  0.278250  1.0
  C  C5647  1  0.836000  0.059100  0.203760  1.0
  C  C5648  1  0.664000  0.940900  0.703760  1.0
  C  C5649  1  0.164000  0.940900  0.796240  1.0
  C  C5650  1  0.336000  0.059100  0.296240  1.0
  C  C5651  1  0.825700  0.083600  0.198390  1.0
  C  C5652  1  0.674300  0.916400  0.698390  1.0
  C  C5653  1  0.174300  0.916400  0.801610  1.0
  C  C5654  1  0.325700  0.083600  0.301610  1.0
  C  C5655  1  0.826600  0.107100  0.209250  1.0
  C  C5656  1  0.673400  0.892900  0.709250  1.0
  C  C5657  1  0.173400  0.892900  0.790750  1.0
  C  C5658  1  0.326600  0.107100  0.290750  1.0
  C  C5659  1  0.783500  0.090150  0.311390  1.0
  C  C5660  1  0.716500  0.909850  0.811390  1.0
  C  C5661  1  0.216500  0.909850  0.688610  1.0
  C  C5662  1  0.283500  0.090150  0.188610  1.0
  C  C5663  1  0.793000  0.064600  0.310030  1.0
  C  C5664  1  0.707000  0.935400  0.810030  1.0
  C  C5665  1  0.207000  0.935400  0.689970  1.0
  C  C5666  1  0.293000  0.064600  0.189970  1.0
  C  C5667  1  0.771400  0.034900  0.317180  1.0
  C  C5668  1  0.728600  0.965100  0.817180  1.0
  C  C5669  1  0.228600  0.965100  0.682820  1.0
  C  C5670  1  0.271400  0.034900  0.182820  1.0
  C  C5671  1  0.742200  0.030600  0.324750  1.0
  C  C5672  1  0.757800  0.969400  0.824750  1.0
  C  C5673  1  0.257800  0.969400  0.675250  1.0
  C  C5674  1  0.242200  0.030600  0.175250  1.0
  C  C5675  1  0.733800  0.056900  0.325830  1.0
  C  C5676  1  0.766200  0.943100  0.825830  1.0
  C  C5677  1  0.266200  0.943100  0.674170  1.0
  C  C5678  1  0.233800  0.056900  0.174170  1.0
  C  C5679  1  0.753200  0.086100  0.319910  1.0
  C  C5680  1  0.746800  0.913900  0.819910  1.0
  C  C5681  1  0.246800  0.913900  0.680090  1.0
  C  C5682  1  0.253200  0.086100  0.180090  1.0
  C  C5683  1  0.825300  0.068400  0.302530  1.0
  C  C5684  1  0.674700  0.931600  0.802530  1.0
  C  C5685  1  0.174700  0.931600  0.697470  1.0
  C  C5686  1  0.325300  0.068400  0.197470  1.0
  C  C5687  1  0.874600  0.210700  0.288900  1.0
  C  C5688  1  0.625400  0.789300  0.788900  1.0
  C  C5689  1  0.125400  0.789300  0.711100  1.0
  C  C5690  1  0.374600  0.210700  0.211100  1.0
  C  C5691  1  0.883400  0.213900  0.272300  1.0
  C  C5692  1  0.616600  0.786100  0.772300  1.0
  C  C5693  1  0.116600  0.786100  0.727700  1.0
  C  C5694  1  0.383400  0.213900  0.227700  1.0
  C  C5695  1  0.814400  0.131200  0.202700  1.0
  C  C5696  1  0.685600  0.868800  0.702700  1.0
  C  C5697  1  0.185600  0.868800  0.797300  1.0
  C  C5698  1  0.314400  0.131200  0.297300  1.0
  C  C5699  1  0.852600  0.080500  0.252100  1.0
  C  C5700  1  0.647400  0.919500  0.752100  1.0
  C  C5701  1  0.147400  0.919500  0.747900  1.0
  C  C5702  1  0.352600  0.080500  0.247900  1.0
  C  C5703  1  0.838800  0.035500  0.190530  1.0
  C  C5704  1  0.661200  0.964500  0.690530  1.0
  C  C5705  1  0.161200  0.964500  0.809470  1.0
  C  C5706  1  0.338800  0.035500  0.309470  1.0
  C  C5707  1  0.741400  0.113100  0.321200  1.0
  C  C5708  1  0.758600  0.886900  0.821200  1.0
  C  C5709  1  0.258600  0.886900  0.678800  1.0
  C  C5710  1  0.241400  0.113100  0.178800  1.0
  C  C5711  1  0.718600  0.997600  0.331400  1.0
  C  C5712  1  0.781400  0.002400  0.831400  1.0
  C  C5713  1  0.281400  0.002400  0.668600  1.0
  C  C5714  1  0.218600  0.997600  0.168600  1.0
  C  C5715  1  0.636800  0.774000  0.167820  1.0
  C  C5716  1  0.863200  0.226000  0.667820  1.0
  C  C5717  1  0.363200  0.226000  0.832180  1.0
  C  C5718  1  0.136800  0.774000  0.332180  1.0
  C  C5719  1  0.624400  0.745800  0.157290  1.0
  C  C5720  1  0.875600  0.254200  0.657290  1.0
  C  C5721  1  0.375600  0.254200  0.842710  1.0
  C  C5722  1  0.124400  0.745800  0.342710  1.0
  C  C5723  1  0.640000  0.746300  0.139780  1.0
  C  C5724  1  0.860000  0.253700  0.639780  1.0
  C  C5725  1  0.360000  0.253700  0.860220  1.0
  C  C5726  1  0.140000  0.746300  0.360220  1.0
  C  C5727  1  0.665700  0.775600  0.134990  1.0
  C  C5728  1  0.834300  0.224400  0.634990  1.0
  C  C5729  1  0.334300  0.224400  0.865010  1.0
  C  C5730  1  0.165700  0.775600  0.365010  1.0
  C  C5731  1  0.674500  0.802500  0.145630  1.0
  C  C5732  1  0.825500  0.197500  0.645630  1.0
  C  C5733  1  0.325500  0.197500  0.854370  1.0
  C  C5734  1  0.174500  0.802500  0.354370  1.0
  C  C5735  1  0.701300  0.830000  0.141950  1.0
  C  C5736  1  0.798700  0.170000  0.641950  1.0
  C  C5737  1  0.298700  0.170000  0.858050  1.0
  C  C5738  1  0.201300  0.830000  0.358050  1.0
  C  C5739  1  0.738900  0.879100  0.152000  1.0
  C  C5740  1  0.761100  0.120900  0.652000  1.0
  C  C5741  1  0.261100  0.120900  0.848000  1.0
  C  C5742  1  0.238900  0.879100  0.348000  1.0
  C  C5743  1  0.758400  0.880300  0.137500  1.0
  C  C5744  1  0.741600  0.119700  0.637500  1.0
  C  C5745  1  0.241600  0.119700  0.862500  1.0
  C  C5746  1  0.258400  0.880300  0.362500  1.0
  C  C5747  1  0.749000  0.855900  0.124730  1.0
  C  C5748  1  0.751000  0.144100  0.624730  1.0
  C  C5749  1  0.251000  0.144100  0.875270  1.0
  C  C5750  1  0.249000  0.855900  0.375270  1.0
  C  C5751  1  0.721100  0.830500  0.126460  1.0
  C  C5752  1  0.778900  0.169500  0.626460  1.0
  C  C5753  1  0.278900  0.169500  0.873540  1.0
  C  C5754  1  0.221100  0.830500  0.373540  1.0
  C  C5755  1  0.622800  0.771000  0.185580  1.0
  C  C5756  1  0.877200  0.229000  0.685580  1.0
  C  C5757  1  0.377200  0.229000  0.814420  1.0
  C  C5758  1  0.122800  0.771000  0.314420  1.0
  C  C5759  1  0.589200  0.762100  0.189570  1.0
  C  C5760  1  0.910800  0.237900  0.689570  1.0
  C  C5761  1  0.410800  0.237900  0.810430  1.0
  C  C5762  1  0.089200  0.762100  0.310430  1.0
  C  C5763  1  0.577100  0.758800  0.205720  1.0
  C  C5764  1  0.922900  0.241200  0.705720  1.0
  C  C5765  1  0.422900  0.241200  0.794280  1.0
  C  C5766  1  0.077100  0.758800  0.294280  1.0
  C  C5767  1  0.598000  0.764100  0.220470  1.0
  C  C5768  1  0.902000  0.235900  0.720470  1.0
  C  C5769  1  0.402000  0.235900  0.779530  1.0
  C  C5770  1  0.098000  0.764100  0.279530  1.0
  C  C5771  1  0.632200  0.773800  0.216840  1.0
  C  C5772  1  0.867800  0.226200  0.716840  1.0
  C  C5773  1  0.367800  0.226200  0.783160  1.0
  C  C5774  1  0.132200  0.773800  0.283160  1.0
  C  C5775  1  0.644400  0.776800  0.200320  1.0
  C  C5776  1  0.855600  0.223200  0.700320  1.0
  C  C5777  1  0.355600  0.223200  0.799680  1.0
  C  C5778  1  0.144400  0.776800  0.299680  1.0
  C  C5779  1  0.748900  0.902800  0.166500  1.0
  C  C5780  1  0.751100  0.097200  0.666500  1.0
  C  C5781  1  0.251100  0.097200  0.833500  1.0
  C  C5782  1  0.248900  0.902800  0.333500  1.0
  C  C5783  1  0.752900  0.934400  0.162400  1.0
  C  C5784  1  0.747100  0.065600  0.662400  1.0
  C  C5785  1  0.247100  0.065600  0.837600  1.0
  C  C5786  1  0.252900  0.934400  0.337600  1.0
  C  C5787  1  0.761500  0.956800  0.175800  1.0
  C  C5788  1  0.738500  0.043200  0.675800  1.0
  C  C5789  1  0.238500  0.043200  0.824200  1.0
  C  C5790  1  0.261500  0.956800  0.324200  1.0
  C  C5791  1  0.769300  0.948400  0.193400  1.0
  C  C5792  1  0.730700  0.051600  0.693400  1.0
  C  C5793  1  0.230700  0.051600  0.806600  1.0
  C  C5794  1  0.269300  0.948400  0.306600  1.0
  C  C5795  1  0.767400  0.916200  0.195700  1.0
  C  C5796  1  0.732600  0.083800  0.695700  1.0
  C  C5797  1  0.232600  0.083800  0.804300  1.0
  C  C5798  1  0.267400  0.916200  0.304300  1.0
  C  C5799  1  0.756500  0.893800  0.183180  1.0
  C  C5800  1  0.743500  0.106200  0.683180  1.0
  C  C5801  1  0.243500  0.106200  0.816820  1.0
  C  C5802  1  0.256500  0.893800  0.316820  1.0
  C  C5803  1  0.744200  0.942800  0.143300  1.0
  C  C5804  1  0.755800  0.057200  0.643300  1.0
  C  C5805  1  0.255800  0.057200  0.856700  1.0
  C  C5806  1  0.244200  0.942800  0.356700  1.0
  C  C5807  1  0.778100  0.971600  0.208100  1.0
  C  C5808  1  0.721900  0.028400  0.708100  1.0
  C  C5809  1  0.221900  0.028400  0.791900  1.0
  C  C5810  1  0.278100  0.971600  0.291900  1.0
  C  C5811  1  0.754500  0.861500  0.186200  1.0
  C  C5812  1  0.745500  0.138500  0.686200  1.0
  C  C5813  1  0.245500  0.138500  0.813800  1.0
  C  C5814  1  0.254500  0.861500  0.313800  1.0
  C  C5815  1  0.566500  0.755700  0.172900  1.0
  C  C5816  1  0.933500  0.244300  0.672900  1.0
  C  C5817  1  0.433500  0.244300  0.827100  1.0
  C  C5818  1  0.066500  0.755700  0.327100  1.0
  C  C5819  1  0.681100  0.785500  0.197300  1.0
  C  C5820  1  0.818900  0.214500  0.697300  1.0
  C  C5821  1  0.318900  0.214500  0.802700  1.0
  C  C5822  1  0.181100  0.785500  0.302700  1.0
  C  C5823  1  0.584900  0.759900  0.239100  1.0
  C  C5824  1  0.915100  0.240100  0.739100  1.0
  C  C5825  1  0.415100  0.240100  0.760900  1.0
  C  C5826  1  0.084900  0.759900  0.260900  1.0
  C  C5827  1  0.709500  0.804000  0.114790  1.0
  C  C5828  1  0.790500  0.196000  0.614790  1.0
  C  C5829  1  0.290500  0.196000  0.885210  1.0
  C  C5830  1  0.209500  0.804000  0.385210  1.0
  C  C5831  1  0.683700  0.777200  0.118810  1.0
  C  C5832  1  0.816300  0.222800  0.618810  1.0
  C  C5833  1  0.316300  0.222800  0.881190  1.0
  C  C5834  1  0.183700  0.777200  0.381190  1.0
  C  C5835  1  0.470100  0.101900  0.319570  1.0
  C  C5836  1  0.029900  0.898100  0.819570  1.0
  C  C5837  1  0.529900  0.898100  0.680430  1.0
  C  C5838  1  0.970100  0.101900  0.180430  1.0
  C  C5839  1  0.453900  0.099700  0.336700  1.0
  C  C5840  1  0.046100  0.900300  0.836700  1.0
  C  C5841  1  0.546100  0.900300  0.663300  1.0
  C  C5842  1  0.953900  0.099700  0.163300  1.0
  C  C5843  1  0.471800  0.097300  0.351900  1.0
  C  C5844  1  0.028200  0.902700  0.851900  1.0
  C  C5845  1  0.528200  0.902700  0.648100  1.0
  C  C5846  1  0.971800  0.097300  0.148100  1.0
  C  C5847  1  0.501900  0.096400  0.348900  1.0
  C  C5848  1  0.998100  0.903600  0.848900  1.0
  C  C5849  1  0.498100  0.903600  0.651100  1.0
  C  C5850  1  0.001900  0.096400  0.151100  1.0
  C  C5851  1  0.516100  0.098300  0.332350  1.0
  C  C5852  1  0.983900  0.901700  0.832350  1.0
  C  C5853  1  0.483900  0.901700  0.667650  1.0
  C  C5854  1  0.016100  0.098300  0.167650  1.0
  C  C5855  1  0.454000  0.106100  0.304850  1.0
  C  C5856  1  0.046000  0.893900  0.804850  1.0
  C  C5857  1  0.546000  0.893900  0.695150  1.0
  C  C5858  1  0.954000  0.106100  0.195150  1.0
  C  C5859  1  0.460000  0.117500  0.274440  1.0
  C  C5860  1  0.040000  0.882500  0.774440  1.0
  C  C5861  1  0.540000  0.882500  0.725560  1.0
  C  C5862  1  0.960000  0.117500  0.225560  1.0
  C  C5863  1  0.432000  0.124700  0.275100  1.0
  C  C5864  1  0.068000  0.875300  0.775100  1.0
  C  C5865  1  0.568000  0.875300  0.724900  1.0
  C  C5866  1  0.932000  0.124700  0.224900  1.0
  C  C5867  1  0.413800  0.118700  0.289700  1.0
  C  C5868  1  0.086200  0.881300  0.789700  1.0
  C  C5869  1  0.586200  0.881300  0.710300  1.0
  C  C5870  1  0.913800  0.118700  0.210300  1.0
  C  C5871  1  0.425500  0.112000  0.306000  1.0
  C  C5872  1  0.074500  0.888000  0.806000  1.0
  C  C5873  1  0.574500  0.888000  0.694000  1.0
  C  C5874  1  0.925500  0.112000  0.194000  1.0
  C  C5875  1  0.550240  0.102400  0.331270  1.0
  C  C5876  1  0.949760  0.897600  0.831270  1.0
  C  C5877  1  0.449760  0.897600  0.668730  1.0
  C  C5878  1  0.050240  0.102400  0.168730  1.0
  C  C5879  1  0.574700  0.130300  0.324630  1.0
  C  C5880  1  0.925300  0.869700  0.824630  1.0
  C  C5881  1  0.425300  0.869700  0.675370  1.0
  C  C5882  1  0.074700  0.130300  0.175370  1.0
  C  C5883  1  0.606300  0.135400  0.323570  1.0
  C  C5884  1  0.893700  0.864600  0.823570  1.0
  C  C5885  1  0.393700  0.864600  0.676430  1.0
  C  C5886  1  0.106300  0.135400  0.176430  1.0
  C  C5887  1  0.616900  0.111700  0.329200  1.0
  C  C5888  1  0.883100  0.888300  0.829200  1.0
  C  C5889  1  0.383100  0.888300  0.670800  1.0
  C  C5890  1  0.116900  0.111700  0.170800  1.0
  C  C5891  1  0.592500  0.083200  0.335800  1.0
  C  C5892  1  0.907500  0.916800  0.835800  1.0
  C  C5893  1  0.407500  0.916800  0.664200  1.0
  C  C5894  1  0.092500  0.083200  0.164200  1.0
  C  C5895  1  0.560500  0.078000  0.336880  1.0
  C  C5896  1  0.939500  0.922000  0.836880  1.0
  C  C5897  1  0.439500  0.922000  0.663120  1.0
  C  C5898  1  0.060500  0.078000  0.163120  1.0
  C  C5899  1  0.481400  0.124800  0.258710  1.0
  C  C5900  1  0.018600  0.875200  0.758710  1.0
  C  C5901  1  0.518600  0.875200  0.741290  1.0
  C  C5902  1  0.981400  0.124800  0.241290  1.0
  C  C5903  1  0.470400  0.111300  0.242600  1.0
  C  C5904  1  0.029600  0.888700  0.742600  1.0
  C  C5905  1  0.529600  0.888700  0.757400  1.0
  C  C5906  1  0.970400  0.111300  0.257400  1.0
  C  C5907  1  0.489400  0.116400  0.227600  1.0
  C  C5908  1  0.010600  0.883600  0.727600  1.0
  C  C5909  1  0.510600  0.883600  0.772400  1.0
  C  C5910  1  0.989400  0.116400  0.272400  1.0
  C  C5911  1  0.520600  0.137600  0.228000  1.0
  C  C5912  1  0.979400  0.862400  0.728000  1.0
  C  C5913  1  0.479400  0.862400  0.772000  1.0
  C  C5914  1  0.020600  0.137600  0.272000  1.0
  C  C5915  1  0.531700  0.153800  0.244200  1.0
  C  C5916  1  0.968300  0.846200  0.744200  1.0
  C  C5917  1  0.468300  0.846200  0.755800  1.0
  C  C5918  1  0.031700  0.153800  0.255800  1.0
  C  C5919  1  0.512500  0.147300  0.259400  1.0
  C  C5920  1  0.987500  0.852700  0.759400  1.0
  C  C5921  1  0.487500  0.852700  0.740600  1.0
  C  C5922  1  0.012500  0.147300  0.240600  1.0
  C  C5923  1  0.542100  0.144800  0.212500  1.0
  C  C5924  1  0.957900  0.855200  0.712500  1.0
  C  C5925  1  0.457900  0.855200  0.787500  1.0
  C  C5926  1  0.042100  0.144800  0.287500  1.0
  C  C5927  1  0.439100  0.084500  0.241000  1.0
  C  C5928  1  0.060900  0.915500  0.741000  1.0
  C  C5929  1  0.560900  0.915500  0.759000  1.0
  C  C5930  1  0.939100  0.084500  0.259000  1.0
  C  C5931  1  0.527400  0.168700  0.274800  1.0
  C  C5932  1  0.972600  0.831300  0.774800  1.0
  C  C5933  1  0.472600  0.831300  0.725200  1.0
  C  C5934  1  0.027400  0.168700  0.225200  1.0
  C  C5935  1  0.565700  0.158400  0.318100  1.0
  C  C5936  1  0.934300  0.841600  0.818100  1.0
  C  C5937  1  0.434300  0.841600  0.681900  1.0
  C  C5938  1  0.065700  0.158400  0.181900  1.0
  C  C5939  1  0.652000  0.115400  0.328200  1.0
  C  C5940  1  0.848000  0.884600  0.828200  1.0
  C  C5941  1  0.348000  0.884600  0.671800  1.0
  C  C5942  1  0.152000  0.115400  0.171800  1.0
  C  C5943  1  0.535100  0.047700  0.344600  1.0
  C  C5944  1  0.964900  0.952300  0.844600  1.0
  C  C5945  1  0.464900  0.952300  0.655400  1.0
  C  C5946  1  0.035100  0.047700  0.155400  1.0
  C  C5947  1  0.423400  0.103000  0.337500  1.0
  C  C5948  1  0.076600  0.897000  0.837500  1.0
  C  C5949  1  0.576600  0.897000  0.662500  1.0
  C  C5950  1  0.923400  0.103000  0.162500  1.0
  C  C5951  1  0.410400  0.110700  0.322800  1.0
  C  C5952  1  0.089600  0.889300  0.822800  1.0
  C  C5953  1  0.589600  0.889300  0.677200  1.0
  C  C5954  1  0.910400  0.110700  0.177200  1.0
  C  C5955  1  0.621500  0.107300  0.094430  1.0
  C  C5956  1  0.878500  0.892700  0.594430  1.0
  C  C5957  1  0.378500  0.892700  0.905570  1.0
  C  C5958  1  0.121500  0.107300  0.405570  1.0
  C  C5959  1  0.669400  0.120000  0.110270  1.0
  C  C5960  1  0.830600  0.880000  0.610270  1.0
  C  C5961  1  0.330600  0.880000  0.889730  1.0
  C  C5962  1  0.169400  0.120000  0.389730  1.0
  C  C5963  1  0.687900  0.124100  0.094300  1.0
  C  C5964  1  0.812100  0.875900  0.594300  1.0
  C  C5965  1  0.312100  0.875900  0.905700  1.0
  C  C5966  1  0.187900  0.124100  0.405700  1.0
  C  C5967  1  0.673200  0.120900  0.078540  1.0
  C  C5968  1  0.826800  0.879100  0.578540  1.0
  C  C5969  1  0.326800  0.879100  0.921460  1.0
  C  C5970  1  0.173200  0.120900  0.421460  1.0
  C  C5971  1  0.639500  0.112000  0.078660  1.0
  C  C5972  1  0.860500  0.888000  0.578660  1.0
  C  C5973  1  0.360500  0.888000  0.921340  1.0
  C  C5974  1  0.139500  0.112000  0.421340  1.0
  C  C5975  1  0.588800  0.102200  0.094710  1.0
  C  C5976  1  0.911200  0.897800  0.594710  1.0
  C  C5977  1  0.411200  0.897800  0.905290  1.0
  C  C5978  1  0.088800  0.102200  0.405290  1.0
  C  C5979  1  0.544300  0.101100  0.112130  1.0
  C  C5980  1  0.955700  0.898900  0.612130  1.0
  C  C5981  1  0.455700  0.898900  0.887870  1.0
  C  C5982  1  0.044300  0.101100  0.387870  1.0
  C  C5983  1  0.526200  0.100600  0.096540  1.0
  C  C5984  1  0.973800  0.899400  0.596540  1.0
  C  C5985  1  0.473800  0.899400  0.903460  1.0
  C  C5986  1  0.026200  0.100600  0.403460  1.0
  C  C5987  1  0.539500  0.099700  0.080400  1.0
  C  C5988  1  0.960500  0.900300  0.580400  1.0
  C  C5989  1  0.460500  0.900300  0.919600  1.0
  C  C5990  1  0.039500  0.099700  0.419600  1.0
  C  C5991  1  0.571500  0.101300  0.078890  1.0
  C  C5992  1  0.928500  0.898700  0.578890  1.0
  C  C5993  1  0.428500  0.898700  0.921110  1.0
  C  C5994  1  0.071500  0.101300  0.421110  1.0
  C  C5995  1  0.689200  0.126800  0.127370  1.0
  C  C5996  1  0.810800  0.873200  0.627370  1.0
  C  C5997  1  0.310800  0.873200  0.872630  1.0
  C  C5998  1  0.189200  0.126800  0.372630  1.0
  C  C5999  1  0.689900  0.152900  0.137700  1.0
  C  C6000  1  0.810100  0.847100  0.637700  1.0
  C  C6001  1  0.310100  0.847100  0.862300  1.0
  C  C6002  1  0.189900  0.152900  0.362300  1.0
  C  C6003  1  0.709000  0.159900  0.153150  1.0
  C  C6004  1  0.791000  0.840100  0.653150  1.0
  C  C6005  1  0.291000  0.840100  0.846850  1.0
  C  C6006  1  0.209000  0.159900  0.346850  1.0
  C  C6007  1  0.726200  0.141200  0.158000  1.0
  C  C6008  1  0.773800  0.858800  0.658000  1.0
  C  C6009  1  0.273800  0.858800  0.842000  1.0
  C  C6010  1  0.226200  0.141200  0.342000  1.0
  C  C6011  1  0.725200  0.117000  0.147400  1.0
  C  C6012  1  0.774800  0.883000  0.647400  1.0
  C  C6013  1  0.274800  0.883000  0.852600  1.0
  C  C6014  1  0.225200  0.117000  0.352600  1.0
  C  C6015  1  0.706700  0.109300  0.131890  1.0
  C  C6016  1  0.793300  0.890700  0.631890  1.0
  C  C6017  1  0.293300  0.890700  0.868110  1.0
  C  C6018  1  0.206700  0.109300  0.368110  1.0
  C  C6019  1  0.531000  0.104800  0.129220  1.0
  C  C6020  1  0.969000  0.895200  0.629220  1.0
  C  C6021  1  0.469000  0.895200  0.870780  1.0
  C  C6022  1  0.031000  0.104800  0.370780  1.0
  C  C6023  1  0.501500  0.079820  0.135450  1.0
  C  C6024  1  0.998500  0.920180  0.635450  1.0
  C  C6025  1  0.498500  0.920180  0.864550  1.0
  C  C6026  1  0.001500  0.079820  0.364550  1.0
  C  C6027  1  0.488600  0.084000  0.150900  1.0
  C  C6028  1  0.011400  0.916000  0.650900  1.0
  C  C6029  1  0.511400  0.916000  0.849100  1.0
  C  C6030  1  0.988600  0.084000  0.349100  1.0
  C  C6031  1  0.501000  0.112100  0.160890  1.0
  C  C6032  1  0.999000  0.887900  0.660890  1.0
  C  C6033  1  0.499000  0.887900  0.839110  1.0
  C  C6034  1  0.001000  0.112100  0.339110  1.0
  C  C6035  1  0.528800  0.135700  0.154650  1.0
  C  C6036  1  0.971200  0.864300  0.654650  1.0
  C  C6037  1  0.471200  0.864300  0.845350  1.0
  C  C6038  1  0.028800  0.135700  0.345350  1.0
  C  C6039  1  0.545100  0.132600  0.139090  1.0
  C  C6040  1  0.954900  0.867400  0.639090  1.0
  C  C6041  1  0.454900  0.867400  0.860910  1.0
  C  C6042  1  0.045100  0.132600  0.360910  1.0
  C  C6043  1  0.673300  0.173500  0.131800  1.0
  C  C6044  1  0.826700  0.826500  0.631800  1.0
  C  C6045  1  0.326700  0.826500  0.868200  1.0
  C  C6046  1  0.173300  0.173500  0.368200  1.0
  C  C6047  1  0.743400  0.146500  0.175700  1.0
  C  C6048  1  0.756600  0.853500  0.675700  1.0
  C  C6049  1  0.256600  0.853500  0.824300  1.0
  C  C6050  1  0.243400  0.146500  0.324300  1.0
  C  C6051  1  0.705200  0.081200  0.120300  1.0
  C  C6052  1  0.794800  0.918800  0.620300  1.0
  C  C6053  1  0.294800  0.918800  0.879700  1.0
  C  C6054  1  0.205200  0.081200  0.379700  1.0
  C  C6055  1  0.576900  0.159300  0.133670  1.0
  C  C6056  1  0.923100  0.840700  0.633670  1.0
  C  C6057  1  0.423100  0.840700  0.866330  1.0
  C  C6058  1  0.076900  0.159300  0.366330  1.0
  C  C6059  1  0.485700  0.050400  0.124580  1.0
  C  C6060  1  0.014300  0.949600  0.624580  1.0
  C  C6061  1  0.514300  0.949600  0.875420  1.0
  C  C6062  1  0.985700  0.050400  0.375420  1.0
  C  C6063  1  0.483400  0.115600  0.177590  1.0
  C  C6064  1  0.016600  0.884400  0.677590  1.0
  C  C6065  1  0.516600  0.884400  0.822410  1.0
  C  C6066  1  0.983400  0.115600  0.322410  1.0
  C  C6067  1  0.620600  0.110300  0.061630  1.0
  C  C6068  1  0.879400  0.889700  0.561630  1.0
  C  C6069  1  0.379400  0.889700  0.938370  1.0
  C  C6070  1  0.120600  0.110300  0.438370  1.0
  C  C6071  1  0.589100  0.104700  0.062510  1.0
  C  C6072  1  0.910900  0.895300  0.562510  1.0
  C  C6073  1  0.410900  0.895300  0.937490  1.0
  C  C6074  1  0.089100  0.104700  0.437490  1.0
  C  C6075  1  0.587200  0.861200  0.361230  1.0
  C  C6076  1  0.912800  0.138800  0.861230  1.0
  C  C6077  1  0.412800  0.138800  0.638770  1.0
  C  C6078  1  0.087200  0.861200  0.138770  1.0
  C  C6079  1  0.606200  0.858500  0.375060  1.0
  C  C6080  1  0.893800  0.141500  0.875060  1.0
  C  C6081  1  0.393800  0.141500  0.624940  1.0
  C  C6082  1  0.106200  0.858500  0.124940  1.0
  C  C6083  1  0.612900  0.830900  0.377170  1.0
  C  C6084  1  0.887100  0.169100  0.877170  1.0
  C  C6085  1  0.387100  0.169100  0.622830  1.0
  C  C6086  1  0.112900  0.830900  0.122830  1.0
  C  C6087  1  0.599200  0.806200  0.366420  1.0
  C  C6088  1  0.900800  0.193800  0.866420  1.0
  C  C6089  1  0.400800  0.193800  0.633580  1.0
  C  C6090  1  0.099200  0.806200  0.133580  1.0
  C  C6091  1  0.579900  0.810300  0.351880  1.0
  C  C6092  1  0.920100  0.189700  0.851880  1.0
  C  C6093  1  0.420100  0.189700  0.648120  1.0
  C  C6094  1  0.079900  0.810300  0.148120  1.0
  C  C6095  1  0.563100  0.784600  0.341100  1.0
  C  C6096  1  0.936900  0.215400  0.841100  1.0
  C  C6097  1  0.436900  0.215400  0.658900  1.0
  C  C6098  1  0.063100  0.784600  0.158900  1.0
  C  C6099  1  0.563100  0.754800  0.344300  1.0
  C  C6100  1  0.936900  0.245200  0.844300  1.0
  C  C6101  1  0.436900  0.245200  0.655700  1.0
  C  C6102  1  0.063100  0.754800  0.155700  1.0
  C  C6103  1  0.583200  0.751000  0.358600  1.0
  C  C6104  1  0.916800  0.249000  0.858600  1.0
  C  C6105  1  0.416800  0.249000  0.641400  1.0
  C  C6106  1  0.083200  0.751000  0.141400  1.0
  C  C6107  1  0.600300  0.775900  0.368700  1.0
  C  C6108  1  0.899700  0.224100  0.868700  1.0
  C  C6109  1  0.399700  0.224100  0.631300  1.0
  C  C6110  1  0.100300  0.775900  0.131300  1.0
  C  C6111  1  0.522100  0.763700  0.319200  1.0
  C  C6112  1  0.977900  0.236300  0.819200  1.0
  C  C6113  1  0.477900  0.236300  0.680800  1.0
  C  C6114  1  0.022100  0.763700  0.180800  1.0
  C  C6115  1  0.525200  0.733800  0.319300  1.0
  C  C6116  1  0.974800  0.266200  0.819300  1.0
  C  C6117  1  0.474800  0.266200  0.680700  1.0
  C  C6118  1  0.025200  0.733800  0.180700  1.0
  C  C6119  1  0.546800  0.728500  0.333000  1.0
  C  C6120  1  0.953200  0.271500  0.833000  1.0
  C  C6121  1  0.453200  0.271500  0.667000  1.0
  C  C6122  1  0.046800  0.728500  0.167000  1.0
  C  C6123  1  0.499500  0.766800  0.306060  1.0
  C  C6124  1  0.000500  0.233200  0.806060  1.0
  C  C6125  1  0.500500  0.233200  0.693940  1.0
  C  C6126  1  0.999500  0.766800  0.193940  1.0
  C  C6127  1  0.473800  0.776200  0.310680  1.0
  C  C6128  1  0.026200  0.223800  0.810680  1.0
  C  C6129  1  0.526200  0.223800  0.689320  1.0
  C  C6130  1  0.973800  0.776200  0.189320  1.0
  C  C6131  1  0.451600  0.777800  0.299330  1.0
  C  C6132  1  0.048400  0.222200  0.799330  1.0
  C  C6133  1  0.548400  0.222200  0.700670  1.0
  C  C6134  1  0.951600  0.777800  0.200670  1.0
  C  C6135  1  0.453800  0.771300  0.281410  1.0
  C  C6136  1  0.046200  0.228700  0.781410  1.0
  C  C6137  1  0.546200  0.228700  0.718590  1.0
  C  C6138  1  0.953800  0.771300  0.218590  1.0
  C  C6139  1  0.479000  0.760800  0.276410  1.0
  C  C6140  1  0.021000  0.239200  0.776410  1.0
  C  C6141  1  0.521000  0.239200  0.723590  1.0
  C  C6142  1  0.979000  0.760800  0.223590  1.0
  C  C6143  1  0.500900  0.758300  0.288060  1.0
  C  C6144  1  0.999100  0.241700  0.788060  1.0
  C  C6145  1  0.499100  0.241700  0.711940  1.0
  C  C6146  1  0.000900  0.758300  0.211940  1.0
  C  C6147  1  0.575000  0.886300  0.360360  1.0
  C  C6148  1  0.925000  0.113700  0.860360  1.0
  C  C6149  1  0.425000  0.113700  0.639640  1.0
  C  C6150  1  0.075000  0.886300  0.139640  1.0
  C  C6151  1  0.541600  0.879900  0.361890  1.0
  C  C6152  1  0.958400  0.120100  0.861890  1.0
  C  C6153  1  0.458400  0.120100  0.638110  1.0
  C  C6154  1  0.041600  0.879900  0.138110  1.0
  C  C6155  1  0.531600  0.905900  0.360590  1.0
  C  C6156  1  0.968400  0.094100  0.860590  1.0
  C  C6157  1  0.468400  0.094100  0.639410  1.0
  C  C6158  1  0.031600  0.905900  0.139410  1.0
  C  C6159  1  0.553400  0.936300  0.358400  1.0
  C  C6160  1  0.946600  0.063700  0.858400  1.0
  C  C6161  1  0.446600  0.063700  0.641600  1.0
  C  C6162  1  0.053400  0.936300  0.141600  1.0
  C  C6163  1  0.586500  0.941600  0.356800  1.0
  C  C6164  1  0.913500  0.058400  0.856800  1.0
  C  C6165  1  0.413500  0.058400  0.643200  1.0
  C  C6166  1  0.086500  0.941600  0.143200  1.0
  C  C6167  1  0.598200  0.918400  0.357800  1.0
  C  C6168  1  0.901800  0.081600  0.857800  1.0
  C  C6169  1  0.401800  0.081600  0.642200  1.0
  C  C6170  1  0.098200  0.918400  0.142200  1.0
  C  C6171  1  0.516300  0.847600  0.365100  1.0
  C  C6172  1  0.983700  0.152400  0.865100  1.0
  C  C6173  1  0.483700  0.152400  0.634900  1.0
  C  C6174  1  0.016300  0.847600  0.134900  1.0
  C  C6175  1  0.528600  0.747100  0.282700  1.0
  C  C6176  1  0.971400  0.252900  0.782700  1.0
  C  C6177  1  0.471400  0.252900  0.717300  1.0
  C  C6178  1  0.028600  0.747100  0.217300  1.0
  C  C6179  1  0.470900  0.785400  0.329800  1.0
  C  C6180  1  0.029100  0.214600  0.829800  1.0
  C  C6181  1  0.529100  0.214600  0.670200  1.0
  C  C6182  1  0.970900  0.785400  0.170200  1.0
  C  C6183  1  0.428800  0.770400  0.267500  1.0
  C  C6184  1  0.071200  0.229600  0.767500  1.0
  C  C6185  1  0.571200  0.229600  0.732500  1.0
  C  C6186  1  0.928800  0.770400  0.232500  1.0
  C  C6187  1  0.634800  0.925000  0.356400  1.0
  C  C6188  1  0.865200  0.075000  0.856400  1.0
  C  C6189  1  0.365200  0.075000  0.643600  1.0
  C  C6190  1  0.134800  0.925000  0.143600  1.0
  C  C6191  1  0.543400  0.964100  0.356300  1.0
  C  C6192  1  0.956600  0.035900  0.856300  1.0
  C  C6193  1  0.456600  0.035900  0.643700  1.0
  C  C6194  1  0.043400  0.964100  0.143700  1.0
  C  C6195  1  0.317900  0.865100  0.173400  1.0
  C  C6196  1  0.182100  0.134900  0.673400  1.0
  C  C6197  1  0.682100  0.134900  0.826600  1.0
  C  C6198  1  0.817900  0.865100  0.326600  1.0
  C  C6199  1  0.286100  0.863700  0.174500  1.0
  C  C6200  1  0.213900  0.136300  0.674500  1.0
  C  C6201  1  0.713900  0.136300  0.825500  1.0
  C  C6202  1  0.786100  0.863700  0.325500  1.0
  C  C6203  1  0.260200  0.836600  0.181300  1.0
  C  C6204  1  0.239800  0.163400  0.681300  1.0
  C  C6205  1  0.739800  0.163400  0.818700  1.0
  C  C6206  1  0.760200  0.836600  0.318700  1.0
  C  C6207  1  0.265500  0.811100  0.186000  1.0
  C  C6208  1  0.234500  0.188900  0.686000  1.0
  C  C6209  1  0.734500  0.188900  0.814000  1.0
  C  C6210  1  0.765500  0.811100  0.314000  1.0
  C  C6211  1  0.299500  0.814600  0.186500  1.0
  C  C6212  1  0.200500  0.185400  0.686500  1.0
  C  C6213  1  0.700500  0.185400  0.813500  1.0
  C  C6214  1  0.799500  0.814600  0.313500  1.0
  C  C6215  1  0.305900  0.787800  0.189500  1.0
  C  C6216  1  0.194100  0.212200  0.689500  1.0
  C  C6217  1  0.694100  0.212200  0.810500  1.0
  C  C6218  1  0.805900  0.787800  0.310500  1.0
  C  C6219  1  0.281200  0.758700  0.193800  1.0
  C  C6220  1  0.218800  0.241300  0.693800  1.0
  C  C6221  1  0.718800  0.241300  0.806200  1.0
  C  C6222  1  0.781200  0.758700  0.306200  1.0
  C  C6223  1  0.247700  0.756100  0.194800  1.0
  C  C6224  1  0.252300  0.243900  0.694800  1.0
  C  C6225  1  0.752300  0.243900  0.805200  1.0
  C  C6226  1  0.747700  0.756100  0.305200  1.0
  C  C6227  1  0.346000  0.765500  0.188900  1.0
  C  C6228  1  0.154000  0.234500  0.688900  1.0
  C  C6229  1  0.654000  0.234500  0.811100  1.0
  C  C6230  1  0.846000  0.765500  0.311100  1.0
  C  C6231  1  0.321900  0.734300  0.192100  1.0
  C  C6232  1  0.178100  0.265700  0.692100  1.0
  C  C6233  1  0.678100  0.265700  0.807900  1.0
  C  C6234  1  0.821900  0.734300  0.307900  1.0
  C  C6235  1  0.287600  0.730700  0.195800  1.0
  C  C6236  1  0.212400  0.269300  0.695800  1.0
  C  C6237  1  0.712400  0.269300  0.804200  1.0
  C  C6238  1  0.787600  0.730700  0.304200  1.0
  C  C6239  1  0.377700  0.766500  0.182600  1.0
  C  C6240  1  0.122300  0.233500  0.682600  1.0
  C  C6241  1  0.622300  0.233500  0.817400  1.0
  C  C6242  1  0.877700  0.766500  0.317400  1.0
  C  C6243  1  0.390900  0.774800  0.165380  1.0
  C  C6244  1  0.109100  0.225200  0.665380  1.0
  C  C6245  1  0.609100  0.225200  0.834620  1.0
  C  C6246  1  0.890900  0.774800  0.334620  1.0
  C  C6247  1  0.419600  0.775100  0.160220  1.0
  C  C6248  1  0.080400  0.224900  0.660220  1.0
  C  C6249  1  0.580400  0.224900  0.839780  1.0
  C  C6250  1  0.919600  0.775100  0.339780  1.0
  C  C6251  1  0.439100  0.766900  0.172400  1.0
  C  C6252  1  0.060900  0.233100  0.672400  1.0
  C  C6253  1  0.560900  0.233100  0.827600  1.0
  C  C6254  1  0.939100  0.766900  0.327600  1.0
  C  C6255  1  0.426200  0.757900  0.189710  1.0
  C  C6256  1  0.073800  0.242100  0.689710  1.0
  C  C6257  1  0.573800  0.242100  0.810290  1.0
  C  C6258  1  0.926200  0.757900  0.310290  1.0
  C  C6259  1  0.397000  0.757700  0.194880  1.0
  C  C6260  1  0.103000  0.242300  0.694880  1.0
  C  C6261  1  0.603000  0.242300  0.805120  1.0
  C  C6262  1  0.897000  0.757700  0.305120  1.0
  C  C6263  1  0.343900  0.891400  0.166300  1.0
  C  C6264  1  0.156100  0.108600  0.666300  1.0
  C  C6265  1  0.656100  0.108600  0.833700  1.0
  C  C6266  1  0.843900  0.891400  0.333700  1.0
  C  C6267  1  0.359600  0.887000  0.149800  1.0
  C  C6268  1  0.140400  0.113000  0.649800  1.0
  C  C6269  1  0.640400  0.113000  0.850200  1.0
  C  C6270  1  0.859600  0.887000  0.350200  1.0
  C  C6271  1  0.383700  0.913000  0.142100  1.0
  C  C6272  1  0.116300  0.087000  0.642100  1.0
  C  C6273  1  0.616300  0.087000  0.857900  1.0
  C  C6274  1  0.883700  0.913000  0.357900  1.0
  C  C6275  1  0.393500  0.943000  0.149000  1.0
  C  C6276  1  0.106500  0.057000  0.649000  1.0
  C  C6277  1  0.606500  0.057000  0.851000  1.0
  C  C6278  1  0.893500  0.943000  0.351000  1.0
  C  C6279  1  0.377800  0.949000  0.165600  1.0
  C  C6280  1  0.122200  0.051000  0.665600  1.0
  C  C6281  1  0.622200  0.051000  0.834400  1.0
  C  C6282  1  0.877800  0.949000  0.334400  1.0
  C  C6283  1  0.351400  0.921800  0.172800  1.0
  C  C6284  1  0.148600  0.078200  0.672800  1.0
  C  C6285  1  0.648600  0.078200  0.827200  1.0
  C  C6286  1  0.851400  0.921800  0.327200  1.0
  C  C6287  1  0.348000  0.854300  0.142200  1.0
  C  C6288  1  0.152000  0.145700  0.642200  1.0
  C  C6289  1  0.652000  0.145700  0.857800  1.0
  C  C6290  1  0.848000  0.854300  0.357800  1.0
  C  C6291  1  0.382800  0.748100  0.213800  1.0
  C  C6292  1  0.117200  0.251900  0.713800  1.0
  C  C6293  1  0.617200  0.251900  0.786200  1.0
  C  C6294  1  0.882800  0.748100  0.286200  1.0
  C  C6295  1  0.369400  0.781500  0.152000  1.0
  C  C6296  1  0.130600  0.218500  0.652000  1.0
  C  C6297  1  0.630600  0.218500  0.848000  1.0
  C  C6298  1  0.869400  0.781500  0.348000  1.0
  C  C6299  1  0.473500  0.769300  0.167800  1.0
  C  C6300  1  0.026500  0.230700  0.667800  1.0
  C  C6301  1  0.526500  0.230700  0.832200  1.0
  C  C6302  1  0.973500  0.769300  0.332200  1.0
  C  C6303  1  0.337700  0.927500  0.189000  1.0
  C  C6304  1  0.162300  0.072500  0.689000  1.0
  C  C6305  1  0.662300  0.072500  0.811000  1.0
  C  C6306  1  0.837700  0.927500  0.311000  1.0
  C  C6307  1  0.418600  0.969600  0.142100  1.0
  C  C6308  1  0.081400  0.030400  0.642100  1.0
  C  C6309  1  0.581400  0.030400  0.857900  1.0
  C  C6310  1  0.918600  0.969600  0.357900  1.0
  C  C6311  1  0.291600  0.367000  0.964400  1.0
  C  C6312  1  0.208400  0.633000  0.464400  1.0
  C  C6313  1  0.708400  0.633000  0.035600  1.0
  C  C6314  1  0.791600  0.367000  0.535600  1.0
  C  C6315  1  0.289400  0.397300  0.964600  1.0
  C  C6316  1  0.210600  0.602700  0.464600  1.0
  C  C6317  1  0.710600  0.602700  0.035400  1.0
  C  C6318  1  0.789400  0.397300  0.535400  1.0
  C  C6319  1  0.316300  0.424300  0.972600  1.0
  C  C6320  1  0.183700  0.575700  0.472600  1.0
  C  C6321  1  0.683700  0.575700  0.027400  1.0
  C  C6322  1  0.816300  0.424300  0.527400  1.0
  C  C6323  1  0.344700  0.418200  0.977600  1.0
  C  C6324  1  0.155300  0.581800  0.477600  1.0
  C  C6325  1  0.655300  0.581800  0.022400  1.0
  C  C6326  1  0.844700  0.418200  0.522400  1.0
  C  C6327  1  0.346800  0.389270  0.974300  1.0
  C  C6328  1  0.153200  0.610730  0.474300  1.0
  C  C6329  1  0.653200  0.610730  0.025700  1.0
  C  C6330  1  0.846800  0.389270  0.525700  1.0
  C  C6331  1  0.375490  0.384670  0.976600  1.0
  C  C6332  1  0.124510  0.615330  0.476600  1.0
  C  C6333  1  0.624510  0.615330  0.023400  1.0
  C  C6334  1  0.875490  0.384670  0.523400  1.0
  C  C6335  1  0.404900  0.352150  0.972800  1.0
  C  C6336  1  0.095100  0.647850  0.472800  1.0
  C  C6337  1  0.595100  0.647850  0.027200  1.0
  C  C6338  1  0.904900  0.352150  0.527200  1.0
  C  C6339  1  0.433100  0.377500  0.977400  1.0
  C  C6340  1  0.066900  0.622500  0.477400  1.0
  C  C6341  1  0.566900  0.622500  0.022600  1.0
  C  C6342  1  0.933100  0.377500  0.522600  1.0
  C  C6343  1  0.432500  0.406900  0.982200  1.0
  C  C6344  1  0.067500  0.593100  0.482200  1.0
  C  C6345  1  0.567500  0.593100  0.017800  1.0
  C  C6346  1  0.932500  0.406900  0.517800  1.0
  C  C6347  1  0.405100  0.412100  0.980800  1.0
  C  C6348  1  0.094900  0.587900  0.480800  1.0
  C  C6349  1  0.594900  0.587900  0.019200  1.0
  C  C6350  1  0.905100  0.412100  0.519200  1.0
  C  C6351  1  0.263700  0.342300  0.956000  1.0
  C  C6352  1  0.236300  0.657700  0.456000  1.0
  C  C6353  1  0.736300  0.657700  0.044000  1.0
  C  C6354  1  0.763700  0.342300  0.544000  1.0
  C  C6355  1  0.264300  0.330400  0.938810  1.0
  C  C6356  1  0.235700  0.669600  0.438810  1.0
  C  C6357  1  0.735700  0.669600  0.061190  1.0
  C  C6358  1  0.764300  0.330400  0.561190  1.0
  C  C6359  1  0.239000  0.307800  0.931190  1.0
  C  C6360  1  0.261000  0.692200  0.431190  1.0
  C  C6361  1  0.761000  0.692200  0.068810  1.0
  C  C6362  1  0.739000  0.307800  0.568810  1.0
  C  C6363  1  0.209200  0.294000  0.940400  1.0
  C  C6364  1  0.290800  0.706000  0.440400  1.0
  C  C6365  1  0.790800  0.706000  0.059600  1.0
  C  C6366  1  0.709200  0.294000  0.559600  1.0
  C  C6367  1  0.207100  0.307700  0.957100  1.0
  C  C6368  1  0.292900  0.692300  0.457100  1.0
  C  C6369  1  0.792900  0.692300  0.042900  1.0
  C  C6370  1  0.707100  0.307700  0.542900  1.0
  C  C6371  1  0.233700  0.328500  0.965530  1.0
  C  C6372  1  0.266300  0.671500  0.465530  1.0
  C  C6373  1  0.766300  0.671500  0.034470  1.0
  C  C6374  1  0.733700  0.328500  0.534470  1.0
  C  C6375  1  0.406200  0.322380  0.967090  1.0
  C  C6376  1  0.093800  0.677620  0.467090  1.0
  C  C6377  1  0.593800  0.677620  0.032910  1.0
  C  C6378  1  0.906200  0.322380  0.532910  1.0
  C  C6379  1  0.401200  0.312700  0.949510  1.0
  C  C6380  1  0.098800  0.687300  0.449510  1.0
  C  C6381  1  0.598800  0.687300  0.050490  1.0
  C  C6382  1  0.901200  0.312700  0.550490  1.0
  C  C6383  1  0.406500  0.284900  0.944560  1.0
  C  C6384  1  0.093500  0.715100  0.444560  1.0
  C  C6385  1  0.593500  0.715100  0.055440  1.0
  C  C6386  1  0.906500  0.284900  0.555440  1.0
  C  C6387  1  0.417400  0.268700  0.956300  1.0
  C  C6388  1  0.082600  0.731300  0.456300  1.0
  C  C6389  1  0.582600  0.731300  0.043700  1.0
  C  C6390  1  0.917400  0.268700  0.543700  1.0
  C  C6391  1  0.420600  0.278300  0.974100  1.0
  C  C6392  1  0.079400  0.721700  0.474100  1.0
  C  C6393  1  0.579400  0.721700  0.025900  1.0
  C  C6394  1  0.920600  0.278300  0.525900  1.0
  C  C6395  1  0.418400  0.305600  0.979520  1.0
  C  C6396  1  0.081600  0.694400  0.479520  1.0
  C  C6397  1  0.581600  0.694400  0.020480  1.0
  C  C6398  1  0.918400  0.305600  0.520480  1.0
  C  C6399  1  0.419400  0.238100  0.951000  1.0
  C  C6400  1  0.080600  0.761900  0.451000  1.0
  C  C6401  1  0.580600  0.761900  0.049000  1.0
  C  C6402  1  0.919400  0.238100  0.549000  1.0
  C  C6403  1  0.389600  0.331500  0.936300  1.0
  C  C6404  1  0.110400  0.668500  0.436300  1.0
  C  C6405  1  0.610400  0.668500  0.063700  1.0
  C  C6406  1  0.889600  0.331500  0.563700  1.0
  C  C6407  1  0.423800  0.315800  0.998700  1.0
  C  C6408  1  0.076200  0.684200  0.498700  1.0
  C  C6409  1  0.576200  0.684200  0.001300  1.0
  C  C6410  1  0.923800  0.315800  0.501300  1.0
  C  C6411  1  0.231900  0.339300  0.983900  1.0
  C  C6412  1  0.268100  0.660700  0.483900  1.0
  C  C6413  1  0.768100  0.660700  0.016100  1.0
  C  C6414  1  0.731900  0.339300  0.516100  1.0
  C  C6415  1  0.298300  0.345600  0.928700  1.0
  C  C6416  1  0.201700  0.654400  0.428700  1.0
  C  C6417  1  0.701700  0.654400  0.071300  1.0
  C  C6418  1  0.798300  0.345600  0.571300  1.0
  C  C6419  1  0.374800  0.445900  0.980400  1.0
  C  C6420  1  0.125200  0.554100  0.480400  1.0
  C  C6421  1  0.625200  0.554100  0.019600  1.0
  C  C6422  1  0.874800  0.445900  0.519600  1.0
  C  C6423  1  0.403000  0.442100  0.982700  1.0
  C  C6424  1  0.097000  0.557900  0.482700  1.0
  C  C6425  1  0.597000  0.557900  0.017300  1.0
  C  C6426  1  0.903000  0.442100  0.517300  1.0
  C  C6427  1  0.180200  0.268100  0.933200  1.0
  C  C6428  1  0.319800  0.731900  0.433200  1.0
  C  C6429  1  0.819800  0.731900  0.066800  1.0
  C  C6430  1  0.680200  0.268100  0.566800  1.0
  C  C6431  1  0.420700  0.090200  0.930310  1.0
  C  C6432  1  0.079300  0.909800  0.430310  1.0
  C  C6433  1  0.579300  0.909800  0.069690  1.0
  C  C6434  1  0.920700  0.090200  0.569690  1.0
  C  C6435  1  0.449100  0.104700  0.920700  1.0
  C  C6436  1  0.050900  0.895300  0.420700  1.0
  C  C6437  1  0.550900  0.895300  0.079300  1.0
  C  C6438  1  0.949100  0.104700  0.579300  1.0
  C  C6439  1  0.449200  0.099500  0.902610  1.0
  C  C6440  1  0.050800  0.900500  0.402610  1.0
  C  C6441  1  0.550800  0.900500  0.097390  1.0
  C  C6442  1  0.949200  0.099500  0.597390  1.0
  C  C6443  1  0.420600  0.080100  0.894270  1.0
  C  C6444  1  0.079400  0.919900  0.394270  1.0
  C  C6445  1  0.579400  0.919900  0.105730  1.0
  C  C6446  1  0.920600  0.080100  0.605730  1.0
  C  C6447  1  0.392200  0.065400  0.903930  1.0
  C  C6448  1  0.107800  0.934600  0.403930  1.0
  C  C6449  1  0.607800  0.934600  0.096070  1.0
  C  C6450  1  0.892200  0.065400  0.596070  1.0
  C  C6451  1  0.363800  0.044200  0.896970  1.0
  C  C6452  1  0.136200  0.955800  0.396970  1.0
  C  C6453  1  0.636200  0.955800  0.103030  1.0
  C  C6454  1  0.863800  0.044200  0.603030  1.0
  C  C6455  1  0.311000  0.005300  0.901870  1.0
  C  C6456  1  0.189000  0.994700  0.401870  1.0
  C  C6457  1  0.689000  0.994700  0.098130  1.0
  C  C6458  1  0.811000  0.005300  0.598130  1.0
  C  C6459  1  0.307500  0.999200  0.882380  1.0
  C  C6460  1  0.192500  0.000800  0.382380  1.0
  C  C6461  1  0.692500  0.000800  0.117620  1.0
  C  C6462  1  0.807500  0.999200  0.617620  1.0
  C  C6463  1  0.333100  0.015900  0.871700  1.0
  C  C6464  1  0.166900  0.984100  0.371700  1.0
  C  C6465  1  0.666900  0.984100  0.128300  1.0
  C  C6466  1  0.833100  0.015900  0.628300  1.0
  C  C6467  1  0.361800  0.037200  0.878330  1.0
  C  C6468  1  0.138200  0.962800  0.378330  1.0
  C  C6469  1  0.638200  0.962800  0.121670  1.0
  C  C6470  1  0.861800  0.037200  0.621670  1.0
  C  C6471  1  0.421000  0.095300  0.950020  1.0
  C  C6472  1  0.079000  0.904700  0.450020  1.0
  C  C6473  1  0.579000  0.904700  0.049980  1.0
  C  C6474  1  0.921000  0.095300  0.549980  1.0
  C  C6475  1  0.416200  0.069500  0.961400  1.0
  C  C6476  1  0.083800  0.930500  0.461400  1.0
  C  C6477  1  0.583800  0.930500  0.038600  1.0
  C  C6478  1  0.916200  0.069500  0.538600  1.0
  C  C6479  1  0.417500  0.077500  0.980400  1.0
  C  C6480  1  0.082500  0.922500  0.480400  1.0
  C  C6481  1  0.582500  0.922500  0.019600  1.0
  C  C6482  1  0.917500  0.077500  0.519600  1.0
  C  C6483  1  0.424600  0.105400  0.987200  1.0
  C  C6484  1  0.075400  0.894600  0.487200  1.0
  C  C6485  1  0.575400  0.894600  0.012800  1.0
  C  C6486  1  0.924600  0.105400  0.512800  1.0
  C  C6487  1  0.429400  0.130100  0.974700  1.0
  C  C6488  1  0.070600  0.869900  0.474700  1.0
  C  C6489  1  0.570600  0.869900  0.025300  1.0
  C  C6490  1  0.929400  0.130100  0.525300  1.0
  C  C6491  1  0.427500  0.126200  0.956280  1.0
  C  C6492  1  0.072500  0.873800  0.456280  1.0
  C  C6493  1  0.572500  0.873800  0.043720  1.0
  C  C6494  1  0.927500  0.126200  0.543720  1.0
  C  C6495  1  0.284000  0.983100  0.912240  1.0
  C  C6496  1  0.216000  0.016900  0.412240  1.0
  C  C6497  1  0.716000  0.016900  0.087760  1.0
  C  C6498  1  0.784000  0.983100  0.587760  1.0
  C  C6499  1  0.251500  0.978800  0.908650  1.0
  C  C6500  1  0.248500  0.021200  0.408650  1.0
  C  C6501  1  0.748500  0.021200  0.091350  1.0
  C  C6502  1  0.751500  0.978800  0.591350  1.0
  C  C6503  1  0.225800  0.953200  0.916930  1.0
  C  C6504  1  0.274200  0.046800  0.416930  1.0
  C  C6505  1  0.774200  0.046800  0.083070  1.0
  C  C6506  1  0.725800  0.953200  0.583070  1.0
  C  C6507  1  0.231600  0.932400  0.928100  1.0
  C  C6508  1  0.268400  0.067600  0.428100  1.0
  C  C6509  1  0.768400  0.067600  0.071900  1.0
  C  C6510  1  0.731600  0.932400  0.571900  1.0
  C  C6511  1  0.264500  0.937700  0.931280  1.0
  C  C6512  1  0.235500  0.062300  0.431280  1.0
  C  C6513  1  0.735500  0.062300  0.068720  1.0
  C  C6514  1  0.764500  0.937700  0.568720  1.0
  C  C6515  1  0.290300  0.961200  0.923900  1.0
  C  C6516  1  0.209700  0.038800  0.423900  1.0
  C  C6517  1  0.709700  0.038800  0.076100  1.0
  C  C6518  1  0.790300  0.961200  0.576100  1.0
  C  C6519  1  0.326100  0.965300  0.927300  1.0
  C  C6520  1  0.173900  0.034700  0.427300  1.0
  C  C6521  1  0.673900  0.034700  0.072700  1.0
  C  C6522  1  0.826100  0.965300  0.572700  1.0
  C  C6523  1  0.244600  0.001600  0.895700  1.0
  C  C6524  1  0.255400  0.998400  0.395700  1.0
  C  C6525  1  0.755400  0.998400  0.104300  1.0
  C  C6526  1  0.744600  0.001600  0.604300  1.0
  C  C6527  1  0.407700  0.038400  0.955500  1.0
  C  C6528  1  0.092300  0.961600  0.455500  1.0
  C  C6529  1  0.592300  0.961600  0.044500  1.0
  C  C6530  1  0.907700  0.038400  0.544500  1.0
  C  C6531  1  0.419800  0.073600  0.875780  1.0
  C  C6532  1  0.080200  0.926400  0.375780  1.0
  C  C6533  1  0.580200  0.926400  0.124220  1.0
  C  C6534  1  0.919800  0.073600  0.624220  1.0
  C  C6535  1  0.389600  0.052900  0.868110  1.0
  C  C6536  1  0.110400  0.947100  0.368110  1.0
  C  C6537  1  0.610400  0.947100  0.131890  1.0
  C  C6538  1  0.889600  0.052900  0.631890  1.0
  C  C6539  1  0.426600  0.110800  0.006000  1.0
  C  C6540  1  0.073400  0.889200  0.506000  1.0
  C  C6541  1  0.573400  0.889200  0.994000  1.0
  C  C6542  1  0.926600  0.110800  0.494000  1.0
  C  C6543  1  0.204100  0.902400  0.935000  1.0
  C  C6544  1  0.295900  0.097600  0.435000  1.0
  C  C6545  1  0.795900  0.097600  0.065000  1.0
  C  C6546  1  0.704100  0.902400  0.565000  1.0
  C  C6547  1  0.406900  0.133000  0.111200  1.0
  C  C6548  1  0.093100  0.867000  0.611200  1.0
  C  C6549  1  0.593100  0.867000  0.888800  1.0
  C  C6550  1  0.906900  0.133000  0.388800  1.0
  C  C6551  1  0.423800  0.168200  0.087360  1.0
  C  C6552  1  0.076200  0.831800  0.587360  1.0
  C  C6553  1  0.576200  0.831800  0.912640  1.0
  C  C6554  1  0.923800  0.168200  0.412640  1.0
  C  C6555  1  0.455100  0.166100  0.088590  1.0
  C  C6556  1  0.044900  0.833900  0.588590  1.0
  C  C6557  1  0.544900  0.833900  0.911410  1.0
  C  C6558  1  0.955100  0.166100  0.411410  1.0
  C  C6559  1  0.461500  0.148300  0.101260  1.0
  C  C6560  1  0.038500  0.851700  0.601260  1.0
  C  C6561  1  0.538500  0.851700  0.898740  1.0
  C  C6562  1  0.961500  0.148300  0.398740  1.0
  C  C6563  1  0.436500  0.130700  0.112980  1.0
  C  C6564  1  0.063500  0.869300  0.612980  1.0
  C  C6565  1  0.563500  0.869300  0.887020  1.0
  C  C6566  1  0.936500  0.130700  0.387020  1.0
  C  C6567  1  0.381300  0.117300  0.123730  1.0
  C  C6568  1  0.118700  0.882700  0.623730  1.0
  C  C6569  1  0.618700  0.882700  0.876270  1.0
  C  C6570  1  0.881300  0.117300  0.376270  1.0
  C  C6571  1  0.329900  0.112700  0.133960  1.0
  C  C6572  1  0.170100  0.887300  0.633960  1.0
  C  C6573  1  0.670100  0.887300  0.866040  1.0
  C  C6574  1  0.829900  0.112700  0.366040  1.0
  C  C6575  1  0.335000  0.094700  0.149060  1.0
  C  C6576  1  0.165000  0.905300  0.649060  1.0
  C  C6577  1  0.665000  0.905300  0.850940  1.0
  C  C6578  1  0.835000  0.094700  0.350940  1.0
  C  C6579  1  0.362700  0.089500  0.150630  1.0
  C  C6580  1  0.137300  0.910500  0.650630  1.0
  C  C6581  1  0.637300  0.910500  0.849370  1.0
  C  C6582  1  0.862700  0.089500  0.349370  1.0
  C  C6583  1  0.387600  0.101000  0.138220  1.0
  C  C6584  1  0.112400  0.899000  0.638220  1.0
  C  C6585  1  0.612400  0.899000  0.861780  1.0
  C  C6586  1  0.887600  0.101000  0.361780  1.0
  C  C6587  1  0.420000  0.191500  0.075250  1.0
  C  C6588  1  0.080000  0.808500  0.575250  1.0
  C  C6589  1  0.580000  0.808500  0.924750  1.0
  C  C6590  1  0.920000  0.191500  0.424750  1.0
  C  C6591  1  0.412000  0.216400  0.082170  1.0
  C  C6592  1  0.088000  0.783600  0.582170  1.0
  C  C6593  1  0.588000  0.783600  0.917830  1.0
  C  C6594  1  0.912000  0.216400  0.417830  1.0
  C  C6595  1  0.411100  0.239600  0.070480  1.0
  C  C6596  1  0.088900  0.760400  0.570480  1.0
  C  C6597  1  0.588900  0.760400  0.929520  1.0
  C  C6598  1  0.911100  0.239600  0.429520  1.0
  C  C6599  1  0.416300  0.238300  0.052790  1.0
  C  C6600  1  0.083700  0.761700  0.552790  1.0
  C  C6601  1  0.583700  0.761700  0.947210  1.0
  C  C6602  1  0.916300  0.238300  0.447210  1.0
  C  C6603  1  0.423000  0.213500  0.046120  1.0
  C  C6604  1  0.077000  0.786500  0.546120  1.0
  C  C6605  1  0.577000  0.786500  0.953880  1.0
  C  C6606  1  0.923000  0.213500  0.453880  1.0
  C  C6607  1  0.426100  0.190200  0.057440  1.0
  C  C6608  1  0.073900  0.809800  0.557440  1.0
  C  C6609  1  0.573900  0.809800  0.942560  1.0
  C  C6610  1  0.926100  0.190200  0.442560  1.0
  C  C6611  1  0.300400  0.119800  0.133350  1.0
  C  C6612  1  0.199600  0.880200  0.633350  1.0
  C  C6613  1  0.699600  0.880200  0.866650  1.0
  C  C6614  1  0.800400  0.119800  0.366650  1.0
  C  C6615  1  0.269000  0.095400  0.132070  1.0
  C  C6616  1  0.231000  0.904600  0.632070  1.0
  C  C6617  1  0.731000  0.904600  0.867930  1.0
  C  C6618  1  0.769000  0.095400  0.367930  1.0
  C  C6619  1  0.243100  0.103000  0.131500  1.0
  C  C6620  1  0.256900  0.897000  0.631500  1.0
  C  C6621  1  0.756900  0.897000  0.868500  1.0
  C  C6622  1  0.743100  0.103000  0.368500  1.0
  C  C6623  1  0.244100  0.132700  0.131700  1.0
  C  C6624  1  0.255900  0.867300  0.631700  1.0
  C  C6625  1  0.755900  0.867300  0.868300  1.0
  C  C6626  1  0.744100  0.132700  0.368300  1.0
  C  C6627  1  0.275500  0.157600  0.133680  1.0
  C  C6628  1  0.224500  0.842400  0.633680  1.0
  C  C6629  1  0.724500  0.842400  0.866320  1.0
  C  C6630  1  0.775500  0.157600  0.366320  1.0
  C  C6631  1  0.304800  0.151900  0.134510  1.0
  C  C6632  1  0.195200  0.848100  0.634510  1.0
  C  C6633  1  0.695200  0.848100  0.865490  1.0
  C  C6634  1  0.804800  0.151900  0.365490  1.0
  C  C6635  1  0.337000  0.178400  0.136830  1.0
  C  C6636  1  0.163000  0.821600  0.636830  1.0
  C  C6637  1  0.663000  0.821600  0.863170  1.0
  C  C6638  1  0.837000  0.178400  0.363170  1.0
  C  C6639  1  0.214700  0.139900  0.130500  1.0
  C  C6640  1  0.285300  0.860100  0.630500  1.0
  C  C6641  1  0.785300  0.860100  0.869500  1.0
  C  C6642  1  0.714700  0.139900  0.369500  1.0
  C  C6643  1  0.264100  0.061000  0.130800  1.0
  C  C6644  1  0.235900  0.939000  0.630800  1.0
  C  C6645  1  0.735900  0.939000  0.869200  1.0
  C  C6646  1  0.764100  0.061000  0.369200  1.0
  C  C6647  1  0.405400  0.219600  0.101250  1.0
  C  C6648  1  0.094600  0.780400  0.601250  1.0
  C  C6649  1  0.594600  0.780400  0.898750  1.0
  C  C6650  1  0.905400  0.219600  0.398750  1.0
  C  C6651  1  0.414400  0.262400  0.040070  1.0
  C  C6652  1  0.085600  0.737600  0.540070  1.0
  C  C6653  1  0.585600  0.737600  0.959930  1.0
  C  C6654  1  0.914400  0.262400  0.459930  1.0
  C  C6655  1  0.433200  0.163500  0.049100  1.0
  C  C6656  1  0.066800  0.836500  0.549100  1.0
  C  C6657  1  0.566800  0.836500  0.950900  1.0
  C  C6658  1  0.933200  0.163500  0.450900  1.0
  C  C6659  1  0.440900  0.113200  0.128230  1.0
  C  C6660  1  0.059100  0.886800  0.628230  1.0
  C  C6661  1  0.559100  0.886800  0.871770  1.0
  C  C6662  1  0.940900  0.113200  0.371770  1.0
  C  C6663  1  0.418400  0.099100  0.139320  1.0
  C  C6664  1  0.081600  0.900900  0.639320  1.0
  C  C6665  1  0.581600  0.900900  0.860680  1.0
  C  C6666  1  0.918400  0.099100  0.360680  1.0
  C  C6667  1  0.045900  0.218600  0.057690  1.0
  C  C6668  1  0.454100  0.781400  0.557690  1.0
  C  C6669  1  0.954100  0.781400  0.942310  1.0
  C  C6670  1  0.545900  0.218600  0.442310  1.0
  C  C6671  1  0.040800  0.246100  0.059670  1.0
  C  C6672  1  0.459200  0.753900  0.559670  1.0
  C  C6673  1  0.959200  0.753900  0.940330  1.0
  C  C6674  1  0.540800  0.246100  0.440330  1.0
  C  C6675  1  0.048900  0.263900  0.075570  1.0
  C  C6676  1  0.451100  0.736100  0.575570  1.0
  C  C6677  1  0.951100  0.736100  0.924430  1.0
  C  C6678  1  0.548900  0.263900  0.424430  1.0
  C  C6679  1  0.055500  0.251200  0.090220  1.0
  C  C6680  1  0.444500  0.748800  0.590220  1.0
  C  C6681  1  0.944500  0.748800  0.909780  1.0
  C  C6682  1  0.555500  0.251200  0.409780  1.0
  C  C6683  1  0.060400  0.222000  0.087860  1.0
  C  C6684  1  0.439600  0.778000  0.587860  1.0
  C  C6685  1  0.939600  0.778000  0.912140  1.0
  C  C6686  1  0.560400  0.222000  0.412140  1.0
  C  C6687  1  0.065800  0.207100  0.102750  1.0
  C  C6688  1  0.434200  0.792900  0.602750  1.0
  C  C6689  1  0.934200  0.792900  0.897250  1.0
  C  C6690  1  0.565800  0.207100  0.397250  1.0
  C  C6691  1  0.066900  0.159600  0.114440  1.0
  C  C6692  1  0.433100  0.840400  0.614440  1.0
  C  C6693  1  0.933100  0.840400  0.885560  1.0
  C  C6694  1  0.566900  0.159600  0.385560  1.0
  C  C6695  1  0.069600  0.170900  0.132290  1.0
  C  C6696  1  0.430400  0.829100  0.632290  1.0
  C  C6697  1  0.930400  0.829100  0.867710  1.0
  C  C6698  1  0.569600  0.170900  0.367710  1.0
  C  C6699  1  0.069500  0.202800  0.135230  1.0
  C  C6700  1  0.430500  0.797200  0.635230  1.0
  C  C6701  1  0.930500  0.797200  0.864770  1.0
  C  C6702  1  0.569500  0.202800  0.364770  1.0
  C  C6703  1  0.067700  0.219700  0.119660  1.0
  C  C6704  1  0.432300  0.780300  0.619660  1.0
  C  C6705  1  0.932300  0.780300  0.880340  1.0
  C  C6706  1  0.567700  0.219700  0.380340  1.0
  C  C6707  1  0.067100  0.128200  0.112000  1.0
  C  C6708  1  0.432900  0.871800  0.612000  1.0
  C  C6709  1  0.932900  0.871800  0.888000  1.0
  C  C6710  1  0.567100  0.128200  0.388000  1.0
  C  C6711  1  0.040900  0.104100  0.106200  1.0
  C  C6712  1  0.459100  0.895900  0.606200  1.0
  C  C6713  1  0.959100  0.895900  0.893800  1.0
  C  C6714  1  0.540900  0.104100  0.393800  1.0
  C  C6715  1  0.037500  0.074200  0.104800  1.0
  C  C6716  1  0.462500  0.925800  0.604800  1.0
  C  C6717  1  0.962500  0.925800  0.895200  1.0
  C  C6718  1  0.537500  0.074200  0.395200  1.0
  C  C6719  1  0.065700  0.067600  0.110200  1.0
  C  C6720  1  0.434300  0.932400  0.610200  1.0
  C  C6721  1  0.934300  0.932400  0.889800  1.0
  C  C6722  1  0.565700  0.067600  0.389800  1.0
  C  C6723  1  0.094700  0.092700  0.115900  1.0
  C  C6724  1  0.405300  0.907300  0.615900  1.0
  C  C6725  1  0.905300  0.907300  0.884100  1.0
  C  C6726  1  0.594700  0.092700  0.384100  1.0
  C  C6727  1  0.094100  0.122500  0.118000  1.0
  C  C6728  1  0.405900  0.877500  0.618000  1.0
  C  C6729  1  0.905900  0.877500  0.882000  1.0
  C  C6730  1  0.594100  0.122500  0.382000  1.0
  C  C6731  1  0.034500  0.198300  0.042150  1.0
  C  C6732  1  0.465500  0.801700  0.542150  1.0
  C  C6733  1  0.965500  0.801700  0.957850  1.0
  C  C6734  1  0.534500  0.198300  0.457850  1.0
  C  C6735  1  0.009300  0.168300  0.043380  1.0
  C  C6736  1  0.490700  0.831700  0.543380  1.0
  C  C6737  1  0.990700  0.831700  0.956620  1.0
  C  C6738  1  0.509300  0.168300  0.456620  1.0
  C  C6739  1  0.999000  0.150100  0.027500  1.0
  C  C6740  1  0.501000  0.849900  0.527500  1.0
  C  C6741  1  0.001000  0.849900  0.972500  1.0
  C  C6742  1  0.499000  0.150100  0.472500  1.0
  C  C6743  1  0.012500  0.161000  0.011340  1.0
  C  C6744  1  0.487500  0.839000  0.511340  1.0
  C  C6745  1  0.987500  0.839000  0.988660  1.0
  C  C6746  1  0.512500  0.161000  0.488660  1.0
  C  C6747  1  0.036300  0.192200  0.010670  1.0
  C  C6748  1  0.463700  0.807800  0.510670  1.0
  C  C6749  1  0.963700  0.807800  0.989330  1.0
  C  C6750  1  0.536300  0.192200  0.489330  1.0
  C  C6751  1  0.048700  0.210300  0.025120  1.0
  C  C6752  1  0.451300  0.789700  0.525120  1.0
  C  C6753  1  0.951300  0.789700  0.974880  1.0
  C  C6754  1  0.548700  0.210300  0.474880  1.0
  C  C6755  1  0.991500  0.150700  0.059200  1.0
  C  C6756  1  0.508500  0.849300  0.559200  1.0
  C  C6757  1  0.008500  0.849300  0.940800  1.0
  C  C6758  1  0.491500  0.150700  0.440800  1.0
  C  C6759  1  0.064900  0.249800  0.121800  1.0
  C  C6760  1  0.435100  0.750200  0.621800  1.0
  C  C6761  1  0.935100  0.750200  0.878200  1.0
  C  C6762  1  0.564900  0.249800  0.378200  1.0
  C  C6763  1  0.125900  0.147800  0.125100  1.0
  C  C6764  1  0.374100  0.852200  0.625100  1.0
  C  C6765  1  0.874100  0.852200  0.874900  1.0
  C  C6766  1  0.625900  0.147800  0.374900  1.0
  C  C6767  1  0.009700  0.110600  0.100100  1.0
  C  C6768  1  0.490300  0.889400  0.600100  1.0
  C  C6769  1  0.990300  0.889400  0.899900  1.0
  C  C6770  1  0.509700  0.110600  0.399900  1.0
  C  C6771  1  0.064700  0.034600  0.107800  1.0
  C  C6772  1  0.435300  0.965400  0.607800  1.0
  C  C6773  1  0.935300  0.965400  0.892200  1.0
  C  C6774  1  0.564700  0.034600  0.392200  1.0
  C  C6775  1  0.078900  0.242300  0.023100  1.0
  C  C6776  1  0.421100  0.757700  0.523100  1.0
  C  C6777  1  0.921100  0.757700  0.976900  1.0
  C  C6778  1  0.578900  0.242300  0.476900  1.0
  C  C6779  1  0.003700  0.140500  0.994700  1.0
  C  C6780  1  0.496300  0.859500  0.494700  1.0
  C  C6781  1  0.996300  0.859500  0.005300  1.0
  C  C6782  1  0.503700  0.140500  0.505300  1.0
  C  C6783  1  0.095700  0.847200  0.012800  1.0
  C  C6784  1  0.404300  0.152800  0.512800  1.0
  C  C6785  1  0.904300  0.152800  0.987200  1.0
  C  C6786  1  0.595700  0.847200  0.487200  1.0
  C  C6787  1  0.074300  0.818300  0.006300  1.0
  C  C6788  1  0.425700  0.181700  0.506300  1.0
  C  C6789  1  0.925700  0.181700  0.993700  1.0
  C  C6790  1  0.574300  0.818300  0.493700  1.0
  C  C6791  1  0.045500  0.799700  0.015400  1.0
  C  C6792  1  0.454500  0.200300  0.515400  1.0
  C  C6793  1  0.954500  0.200300  0.984600  1.0
  C  C6794  1  0.545500  0.799700  0.484600  1.0
  C  C6795  1  0.036800  0.809900  0.030300  1.0
  C  C6796  1  0.463200  0.190100  0.530300  1.0
  C  C6797  1  0.963200  0.190100  0.969700  1.0
  C  C6798  1  0.536800  0.809900  0.469700  1.0
  C  C6799  1  0.057500  0.848100  0.054530  1.0
  C  C6800  1  0.442500  0.151900  0.554530  1.0
  C  C6801  1  0.942500  0.151900  0.945470  1.0
  C  C6802  1  0.557500  0.848100  0.445470  1.0
  C  C6803  1  0.082800  0.882900  0.078290  1.0
  C  C6804  1  0.417200  0.117100  0.578290  1.0
  C  C6805  1  0.917200  0.117100  0.921710  1.0
  C  C6806  1  0.582800  0.882900  0.421710  1.0
  C  C6807  1  0.057700  0.864600  0.090560  1.0
  C  C6808  1  0.442300  0.135400  0.590560  1.0
  C  C6809  1  0.942300  0.135400  0.909440  1.0
  C  C6810  1  0.557700  0.864600  0.409440  1.0
  C  C6811  1  0.031500  0.834900  0.084100  1.0
  C  C6812  1  0.468500  0.165100  0.584100  1.0
  C  C6813  1  0.968500  0.165100  0.915900  1.0
  C  C6814  1  0.531500  0.834900  0.415900  1.0
  C  C6815  1  0.033400  0.827900  0.065800  1.0
  C  C6816  1  0.466600  0.172100  0.565800  1.0
  C  C6817  1  0.966600  0.172100  0.934200  1.0
  C  C6818  1  0.533400  0.827900  0.434200  1.0
  C  C6819  1  0.110200  0.908900  0.085400  1.0
  C  C6820  1  0.389800  0.091100  0.585400  1.0
  C  C6821  1  0.889800  0.091100  0.914600  1.0
  C  C6822  1  0.610200  0.908900  0.414600  1.0
  C  C6823  1  0.141200  0.906800  0.085800  1.0
  C  C6824  1  0.358800  0.093200  0.585800  1.0
  C  C6825  1  0.858800  0.093200  0.914200  1.0
  C  C6826  1  0.641200  0.906800  0.414200  1.0
  C  C6827  1  0.167800  0.933600  0.094000  1.0
  C  C6828  1  0.332200  0.066400  0.594000  1.0
  C  C6829  1  0.832200  0.066400  0.906000  1.0
  C  C6830  1  0.667800  0.933600  0.406000  1.0
  C  C6831  1  0.164200  0.960800  0.100800  1.0
  C  C6832  1  0.335800  0.039200  0.600800  1.0
  C  C6833  1  0.835800  0.039200  0.899200  1.0
  C  C6834  1  0.664200  0.960800  0.399200  1.0
  C  C6835  1  0.134800  0.959300  0.100400  1.0
  C  C6836  1  0.365200  0.040700  0.600400  1.0
  C  C6837  1  0.865200  0.040700  0.899600  1.0
  C  C6838  1  0.634800  0.959300  0.399600  1.0
  C  C6839  1  0.107000  0.933700  0.093400  1.0
  C  C6840  1  0.393000  0.066300  0.593400  1.0
  C  C6841  1  0.893000  0.066300  0.906600  1.0
  C  C6842  1  0.607000  0.933700  0.406600  1.0
  C  C6843  1  0.009300  0.798800  0.058780  1.0
  C  C6844  1  0.490700  0.201200  0.558780  1.0
  C  C6845  1  0.990700  0.201200  0.941220  1.0
  C  C6846  1  0.509300  0.798800  0.441220  1.0
  C  C6847  1  0.072800  0.939100  0.094000  1.0
  C  C6848  1  0.427200  0.060900  0.594000  1.0
  C  C6849  1  0.927200  0.060900  0.906000  1.0
  C  C6850  1  0.572800  0.939100  0.406000  1.0
  C  C6851  1  0.145100  0.878500  0.077500  1.0
  C  C6852  1  0.354900  0.121500  0.577500  1.0
  C  C6853  1  0.854900  0.121500  0.922500  1.0
  C  C6854  1  0.645100  0.878500  0.422500  1.0
  C  C6855  1  0.192300  0.987500  0.107300  1.0
  C  C6856  1  0.307700  0.012500  0.607300  1.0
  C  C6857  1  0.807700  0.012500  0.892700  1.0
  C  C6858  1  0.692300  0.987500  0.392700  1.0
  C  C6859  1  0.041800  0.021300  0.887220  1.0
  C  C6860  1  0.458200  0.978700  0.387220  1.0
  C  C6861  1  0.958200  0.978700  0.112780  1.0
  C  C6862  1  0.541800  0.021300  0.612780  1.0
  C  C6863  1  0.033400  0.006200  0.871080  1.0
  C  C6864  1  0.466600  0.993800  0.371080  1.0
  C  C6865  1  0.966600  0.993800  0.128920  1.0
  C  C6866  1  0.533400  0.006200  0.628920  1.0
  C  C6867  1  0.039000  0.023500  0.855020  1.0
  C  C6868  1  0.461000  0.976500  0.355020  1.0
  C  C6869  1  0.961000  0.976500  0.144980  1.0
  C  C6870  1  0.539000  0.023500  0.644980  1.0
  C  C6871  1  0.047200  0.054800  0.855320  1.0
  C  C6872  1  0.452800  0.945200  0.355320  1.0
  C  C6873  1  0.952800  0.945200  0.144680  1.0
  C  C6874  1  0.547200  0.054800  0.644680  1.0
  C  C6875  1  0.055900  0.070000  0.872600  1.0
  C  C6876  1  0.444100  0.930000  0.372600  1.0
  C  C6877  1  0.944100  0.930000  0.127400  1.0
  C  C6878  1  0.555900  0.070000  0.627400  1.0
  C  C6879  1  0.063300  0.102100  0.873620  1.0
  C  C6880  1  0.436700  0.897900  0.373620  1.0
  C  C6881  1  0.936700  0.897900  0.126380  1.0
  C  C6882  1  0.563300  0.102100  0.626380  1.0
  C  C6883  1  0.069000  0.145100  0.892580  1.0
  C  C6884  1  0.431000  0.854900  0.392580  1.0
  C  C6885  1  0.931000  0.854900  0.107420  1.0
  C  C6886  1  0.569000  0.145100  0.607420  1.0
  C  C6887  1  0.070600  0.165600  0.878030  1.0
  C  C6888  1  0.429400  0.834400  0.378030  1.0
  C  C6889  1  0.929400  0.834400  0.121970  1.0
  C  C6890  1  0.570600  0.165600  0.621970  1.0
  C  C6891  1  0.071100  0.153400  0.859740  1.0
  C  C6892  1  0.428900  0.846600  0.359740  1.0
  C  C6893  1  0.928900  0.846600  0.140260  1.0
  C  C6894  1  0.571100  0.153400  0.640260  1.0
  C  C6895  1  0.063600  0.120200  0.858730  1.0
  C  C6896  1  0.436400  0.879800  0.358730  1.0
  C  C6897  1  0.936400  0.879800  0.141270  1.0
  C  C6898  1  0.563600  0.120200  0.641270  1.0
  C  C6899  1  0.069300  0.158900  0.910070  1.0
  C  C6900  1  0.430700  0.841100  0.410070  1.0
  C  C6901  1  0.930700  0.841100  0.089930  1.0
  C  C6902  1  0.569300  0.158900  0.589930  1.0
  C  C6903  1  0.042000  0.146100  0.921600  1.0
  C  C6904  1  0.458000  0.853900  0.421600  1.0
  C  C6905  1  0.958000  0.853900  0.078400  1.0
  C  C6906  1  0.542000  0.146100  0.578400  1.0
  C  C6907  1  0.039900  0.157900  0.937300  1.0
  C  C6908  1  0.460100  0.842100  0.437300  1.0
  C  C6909  1  0.960100  0.842100  0.062700  1.0
  C  C6910  1  0.539900  0.157900  0.562700  1.0
  C  C6911  1  0.035600  0.004100  0.903900  1.0
  C  C6912  1  0.464400  0.995900  0.403900  1.0
  C  C6913  1  0.964400  0.995900  0.096100  1.0
  C  C6914  1  0.535600  0.004100  0.596100  1.0
  C  C6915  1  0.013100  0.005900  0.916300  1.0
  C  C6916  1  0.486900  0.994100  0.416300  1.0
  C  C6917  1  0.986900  0.994100  0.083700  1.0
  C  C6918  1  0.513100  0.005900  0.583700  1.0
  C  C6919  1  0.007000  0.985900  0.931580  1.0
  C  C6920  1  0.493000  0.014100  0.431580  1.0
  C  C6921  1  0.993000  0.014100  0.068420  1.0
  C  C6922  1  0.507000  0.985900  0.568420  1.0
  C  C6923  1  0.021600  0.965300  0.934220  1.0
  C  C6924  1  0.478400  0.034700  0.434220  1.0
  C  C6925  1  0.978400  0.034700  0.065780  1.0
  C  C6926  1  0.521600  0.965300  0.565780  1.0
  C  C6927  1  0.044600  0.964800  0.921560  1.0
  C  C6928  1  0.455400  0.035200  0.421560  1.0
  C  C6929  1  0.955400  0.035200  0.078440  1.0
  C  C6930  1  0.544600  0.964800  0.578440  1.0
  C  C6931  1  0.051400  0.982100  0.906600  1.0
  C  C6932  1  0.448600  0.017900  0.406600  1.0
  C  C6933  1  0.948600  0.017900  0.093400  1.0
  C  C6934  1  0.551400  0.982100  0.593400  1.0
  C  C6935  1  0.995000  0.028600  0.913500  1.0
  C  C6936  1  0.505000  0.971400  0.413500  1.0
  C  C6937  1  0.005000  0.971400  0.086500  1.0
  C  C6938  1  0.495000  0.028600  0.586500  1.0
  C  C6939  1  0.059600  0.105700  0.841380  1.0
  C  C6940  1  0.440400  0.894300  0.341380  1.0
  C  C6941  1  0.940400  0.894300  0.158620  1.0
  C  C6942  1  0.559600  0.105700  0.658620  1.0
  C  C6943  1  0.010200  0.117700  0.913500  1.0
  C  C6944  1  0.489800  0.882300  0.413500  1.0
  C  C6945  1  0.989800  0.882300  0.086500  1.0
  C  C6946  1  0.510200  0.117700  0.586500  1.0
  C  C6947  1  0.076500  0.982800  0.892500  1.0
  C  C6948  1  0.423500  0.017200  0.392500  1.0
  C  C6949  1  0.923500  0.017200  0.107500  1.0
  C  C6950  1  0.576500  0.982800  0.607500  1.0
  C  C6951  1  0.013600  0.945400  0.950500  1.0
  C  C6952  1  0.486400  0.054600  0.450500  1.0
  C  C6953  1  0.986400  0.054600  0.049500  1.0
  C  C6954  1  0.513600  0.945400  0.549500  1.0
  C  C6955  1  0.513700  0.369900  0.949980  1.0
  C  C6956  1  0.986300  0.630100  0.449980  1.0
  C  C6957  1  0.486300  0.630100  0.050020  1.0
  C  C6958  1  0.013700  0.369900  0.550020  1.0
  C  C6959  1  0.485200  0.355200  0.940310  1.0
  C  C6960  1  0.014800  0.644800  0.440310  1.0
  C  C6961  1  0.514800  0.644800  0.059690  1.0
  C  C6962  1  0.985200  0.355200  0.559690  1.0
  C  C6963  1  0.482500  0.363800  0.922680  1.0
  C  C6964  1  0.017500  0.636200  0.422680  1.0
  C  C6965  1  0.517500  0.636200  0.077320  1.0
  C  C6966  1  0.982500  0.363800  0.577320  1.0
  C  C6967  1  0.505600  0.389800  0.915740  1.0
  C  C6968  1  0.994400  0.610200  0.415740  1.0
  C  C6969  1  0.494400  0.610200  0.084260  1.0
  C  C6970  1  0.005600  0.389800  0.584260  1.0
  C  C6971  1  0.534500  0.405400  0.926520  1.0
  C  C6972  1  0.965500  0.594600  0.426520  1.0
  C  C6973  1  0.465500  0.594600  0.073480  1.0
  C  C6974  1  0.034500  0.405400  0.573480  1.0
  C  C6975  1  0.557800  0.433400  0.920500  1.0
  C  C6976  1  0.942200  0.566600  0.420500  1.0
  C  C6977  1  0.442200  0.566600  0.079500  1.0
  C  C6978  1  0.057800  0.433400  0.579500  1.0
  C  C6979  1  0.604900  0.478700  0.928030  1.0
  C  C6980  1  0.895100  0.521300  0.428030  1.0
  C  C6981  1  0.395100  0.521300  0.071970  1.0
  C  C6982  1  0.104900  0.478700  0.571970  1.0
  C  C6983  1  0.602000  0.495200  0.912260  1.0
  C  C6984  1  0.898000  0.504800  0.412260  1.0
  C  C6985  1  0.398000  0.504800  0.087740  1.0
  C  C6986  1  0.102000  0.495200  0.587740  1.0
  C  C6987  1  0.577000  0.477400  0.899070  1.0
  C  C6988  1  0.923000  0.522600  0.399070  1.0
  C  C6989  1  0.423000  0.522600  0.100930  1.0
  C  C6990  1  0.077000  0.477400  0.600930  1.0
  C  C6991  1  0.555400  0.446200  0.904080  1.0
  C  C6992  1  0.944600  0.553800  0.404080  1.0
  C  C6993  1  0.444600  0.553800  0.095920  1.0
  C  C6994  1  0.055400  0.446200  0.595920  1.0
  C  C6995  1  0.627800  0.497500  0.940710  1.0
  C  C6996  1  0.872200  0.502500  0.440710  1.0
  C  C6997  1  0.372200  0.502500  0.059290  1.0
  C  C6998  1  0.127800  0.497500  0.559290  1.0
  C  C6999  1  0.615600  0.507300  0.955800  1.0
  C  C7000  1  0.884400  0.492700  0.455800  1.0
  C  C7001  1  0.384400  0.492700  0.044200  1.0
  C  C7002  1  0.115600  0.507300  0.544200  1.0
  C  C7003  1  0.634300  0.526700  0.968030  1.0
  C  C7004  1  0.865700  0.473300  0.468030  1.0
  C  C7005  1  0.365700  0.473300  0.031970  1.0
  C  C7006  1  0.134300  0.526700  0.531970  1.0
  C  C7007  1  0.681400  0.528500  0.951400  1.0
  C  C7008  1  0.818600  0.471500  0.451400  1.0
  C  C7009  1  0.318600  0.471500  0.048600  1.0
  C  C7010  1  0.181400  0.528500  0.548600  1.0
  C  C7011  1  0.662500  0.509300  0.938680  1.0
  C  C7012  1  0.837500  0.490700  0.438680  1.0
  C  C7013  1  0.337500  0.490700  0.061320  1.0
  C  C7014  1  0.162500  0.509300  0.561320  1.0
  C  C7015  1  0.515800  0.361600  0.968310  1.0
  C  C7016  1  0.984200  0.638400  0.468310  1.0
  C  C7017  1  0.484200  0.638400  0.031690  1.0
  C  C7018  1  0.015800  0.361600  0.531690  1.0
  C  C7019  1  0.519600  0.383100  0.982020  1.0
  C  C7020  1  0.980400  0.616900  0.482020  1.0
  C  C7021  1  0.480400  0.616900  0.017980  1.0
  C  C7022  1  0.019600  0.383100  0.517980  1.0
  C  C7023  1  0.518500  0.372000  0.999800  1.0
  C  C7024  1  0.981500  0.628000  0.499800  1.0
  C  C7025  1  0.481500  0.628000  0.000200  1.0
  C  C7026  1  0.018500  0.372000  0.500200  1.0
  C  C7027  1  0.513700  0.341700  0.003680  1.0
  C  C7028  1  0.986300  0.658300  0.503680  1.0
  C  C7029  1  0.486300  0.658300  0.996320  1.0
  C  C7030  1  0.013700  0.341700  0.496320  1.0
  C  C7031  1  0.510300  0.320900  0.989600  1.0
  C  C7032  1  0.989700  0.679100  0.489600  1.0
  C  C7033  1  0.489700  0.679100  0.010400  1.0
  C  C7034  1  0.010300  0.320900  0.510400  1.0
  C  C7035  1  0.510800  0.329300  0.972390  1.0
  C  C7036  1  0.989200  0.670700  0.472390  1.0
  C  C7037  1  0.489200  0.670700  0.027610  1.0
  C  C7038  1  0.010800  0.329300  0.527610  1.0
  C  C7039  1  0.525300  0.416500  0.978500  1.0
  C  C7040  1  0.974700  0.583500  0.478500  1.0
  C  C7041  1  0.474700  0.583500  0.021500  1.0
  C  C7042  1  0.025300  0.416500  0.521500  1.0
  C  C7043  1  0.526600  0.430300  0.893300  1.0
  C  C7044  1  0.973400  0.569700  0.393300  1.0
  C  C7045  1  0.473400  0.569700  0.106700  1.0
  C  C7046  1  0.026600  0.430300  0.606700  1.0
  C  C7047  1  0.677000  0.497900  0.923000  1.0
  C  C7048  1  0.823000  0.502100  0.423000  1.0
  C  C7049  1  0.323000  0.502100  0.077000  1.0
  C  C7050  1  0.177000  0.497900  0.577000  1.0
  C  C7051  1  0.579500  0.498900  0.957200  1.0
  C  C7052  1  0.920500  0.501100  0.457200  1.0
  C  C7053  1  0.420500  0.501100  0.042800  1.0
  C  C7054  1  0.079500  0.498900  0.542800  1.0
  C  C7055  1  0.506100  0.304600  0.957100  1.0
  C  C7056  1  0.993900  0.695400  0.457100  1.0
  C  C7057  1  0.493900  0.695400  0.042900  1.0
  C  C7058  1  0.006100  0.304600  0.542900  1.0
  C  C7059  1  0.513700  0.330400  0.022800  1.0
  C  C7060  1  0.986300  0.669600  0.522800  1.0
  C  C7061  1  0.486300  0.669600  0.977200  1.0
  C  C7062  1  0.013700  0.330400  0.477200  1.0
  C  C7063  1  0.628800  0.314900  0.138300  1.0
  C  C7064  1  0.871200  0.685100  0.638300  1.0
  C  C7065  1  0.371200  0.685100  0.861700  1.0
  C  C7066  1  0.128800  0.314900  0.361700  1.0
  C  C7067  1  0.626900  0.331000  0.154040  1.0
  C  C7068  1  0.873100  0.669000  0.654040  1.0
  C  C7069  1  0.373100  0.669000  0.845960  1.0
  C  C7070  1  0.126900  0.331000  0.345960  1.0
  C  C7071  1  0.598300  0.332500  0.159640  1.0
  C  C7072  1  0.901700  0.667500  0.659640  1.0
  C  C7073  1  0.401700  0.667500  0.840360  1.0
  C  C7074  1  0.098300  0.332500  0.340360  1.0
  C  C7075  1  0.569400  0.315900  0.149950  1.0
  C  C7076  1  0.930600  0.684100  0.649950  1.0
  C  C7077  1  0.430600  0.684100  0.850050  1.0
  C  C7078  1  0.069400  0.315900  0.350050  1.0
  C  C7079  1  0.573000  0.303200  0.133580  1.0
  C  C7080  1  0.927000  0.696800  0.633580  1.0
  C  C7081  1  0.427000  0.696800  0.866420  1.0
  C  C7082  1  0.073000  0.303200  0.366420  1.0
  C  C7083  1  0.544700  0.285500  0.122980  1.0
  C  C7084  1  0.955300  0.714500  0.622980  1.0
  C  C7085  1  0.455300  0.714500  0.877020  1.0
  C  C7086  1  0.044700  0.285500  0.377020  1.0
  C  C7087  1  0.523200  0.253500  0.099080  1.0
  C  C7088  1  0.976800  0.746500  0.599080  1.0
  C  C7089  1  0.476800  0.746500  0.900920  1.0
  C  C7090  1  0.023200  0.253500  0.400920  1.0
  C  C7091  1  0.492200  0.248800  0.104830  1.0
  C  C7092  1  0.007800  0.751200  0.604830  1.0
  C  C7093  1  0.507800  0.751200  0.895170  1.0
  C  C7094  1  0.992200  0.248800  0.395170  1.0
  C  C7095  1  0.487900  0.262200  0.120000  1.0
  C  C7096  1  0.012100  0.737800  0.620000  1.0
  C  C7097  1  0.512100  0.737800  0.880000  1.0
  C  C7098  1  0.987900  0.262200  0.380000  1.0
  C  C7099  1  0.513800  0.281000  0.129890  1.0
  C  C7100  1  0.986200  0.719000  0.629890  1.0
  C  C7101  1  0.486200  0.719000  0.870110  1.0
  C  C7102  1  0.013800  0.281000  0.370110  1.0
  C  C7103  1  0.658500  0.310200  0.134380  1.0
  C  C7104  1  0.841500  0.689800  0.634380  1.0
  C  C7105  1  0.341500  0.689800  0.865620  1.0
  C  C7106  1  0.158500  0.310200  0.365620  1.0
  C  C7107  1  0.688600  0.336200  0.131970  1.0
  C  C7108  1  0.811400  0.663800  0.631970  1.0
  C  C7109  1  0.311400  0.663800  0.868030  1.0
  C  C7110  1  0.188600  0.336200  0.368030  1.0
  C  C7111  1  0.717000  0.329700  0.129100  1.0
  C  C7112  1  0.783000  0.670300  0.629100  1.0
  C  C7113  1  0.283000  0.670300  0.870900  1.0
  C  C7114  1  0.217000  0.329700  0.370900  1.0
  C  C7115  1  0.716700  0.300000  0.129600  1.0
  C  C7116  1  0.783300  0.700000  0.629600  1.0
  C  C7117  1  0.283300  0.700000  0.870400  1.0
  C  C7118  1  0.216700  0.300000  0.370400  1.0
  C  C7119  1  0.687000  0.275200  0.132390  1.0
  C  C7120  1  0.813000  0.724800  0.632390  1.0
  C  C7121  1  0.313000  0.724800  0.867610  1.0
  C  C7122  1  0.187000  0.275200  0.367610  1.0
  C  C7123  1  0.657700  0.280000  0.134560  1.0
  C  C7124  1  0.842300  0.720000  0.634560  1.0
  C  C7125  1  0.342300  0.720000  0.865440  1.0
  C  C7126  1  0.157700  0.280000  0.365440  1.0
  C  C7127  1  0.527100  0.234800  0.084010  1.0
  C  C7128  1  0.972900  0.765200  0.584010  1.0
  C  C7129  1  0.472900  0.765200  0.915990  1.0
  C  C7130  1  0.027100  0.234800  0.415990  1.0
  C  C7131  1  0.515900  0.239500  0.067100  1.0
  C  C7132  1  0.984100  0.760500  0.567100  1.0
  C  C7133  1  0.484100  0.760500  0.932900  1.0
  C  C7134  1  0.015900  0.239500  0.432900  1.0
  C  C7135  1  0.517100  0.218200  0.053190  1.0
  C  C7136  1  0.982900  0.781800  0.553190  1.0
  C  C7137  1  0.482900  0.781800  0.946810  1.0
  C  C7138  1  0.017100  0.218200  0.446810  1.0
  C  C7139  1  0.526800  0.194100  0.056130  1.0
  C  C7140  1  0.973200  0.805900  0.556130  1.0
  C  C7141  1  0.473200  0.805900  0.943870  1.0
  C  C7142  1  0.026800  0.194100  0.443870  1.0
  C  C7143  1  0.537300  0.190000  0.072930  1.0
  C  C7144  1  0.962700  0.810000  0.572930  1.0
  C  C7145  1  0.462700  0.810000  0.927070  1.0
  C  C7146  1  0.037300  0.190000  0.427070  1.0
  C  C7147  1  0.537800  0.210400  0.086940  1.0
  C  C7148  1  0.962200  0.789600  0.586940  1.0
  C  C7149  1  0.462200  0.789600  0.913060  1.0
  C  C7150  1  0.037800  0.210400  0.413060  1.0
  C  C7151  1  0.529700  0.173600  0.040360  1.0
  C  C7152  1  0.970300  0.826400  0.540360  1.0
  C  C7153  1  0.470300  0.826400  0.959640  1.0
  C  C7154  1  0.029700  0.173600  0.459640  1.0
  C  C7155  1  0.546900  0.203900  0.104900  1.0
  C  C7156  1  0.953100  0.796100  0.604900  1.0
  C  C7157  1  0.453100  0.796100  0.895100  1.0
  C  C7158  1  0.046900  0.203900  0.395100  1.0
  C  C7159  1  0.504100  0.265200  0.062980  1.0
  C  C7160  1  0.995900  0.734800  0.562980  1.0
  C  C7161  1  0.495900  0.734800  0.937020  1.0
  C  C7162  1  0.004100  0.265200  0.437020  1.0
  C  C7163  1  0.690800  0.370300  0.131200  1.0
  C  C7164  1  0.809200  0.629700  0.631200  1.0
  C  C7165  1  0.309200  0.629700  0.868800  1.0
  C  C7166  1  0.190800  0.370300  0.368800  1.0
  C  C7167  1  0.626400  0.251500  0.138590  1.0
  C  C7168  1  0.873600  0.748500  0.638590  1.0
  C  C7169  1  0.373600  0.748500  0.861410  1.0
  C  C7170  1  0.126400  0.251500  0.361410  1.0
  C  C7171  1  0.747000  0.295700  0.126100  1.0
  C  C7172  1  0.753000  0.704300  0.626100  1.0
  C  C7173  1  0.253000  0.704300  0.873900  1.0
  C  C7174  1  0.247000  0.295700  0.373900  1.0
  C  C7175  1  0.537600  0.312600  0.155950  1.0
  C  C7176  1  0.962400  0.687400  0.655950  1.0
  C  C7177  1  0.462400  0.687400  0.844050  1.0
  C  C7178  1  0.037600  0.312600  0.344050  1.0
  C  C7179  1  0.511200  0.295600  0.146860  1.0
  C  C7180  1  0.988800  0.704400  0.646860  1.0
  C  C7181  1  0.488800  0.704400  0.853140  1.0
  C  C7182  1  0.011200  0.295600  0.353140  1.0
  C  C7183  1  0.874400  0.203400  0.049120  1.0
  C  C7184  1  0.625600  0.796600  0.549120  1.0
  C  C7185  1  0.125600  0.796600  0.950880  1.0
  C  C7186  1  0.374400  0.203400  0.450880  1.0
  C  C7187  1  0.876700  0.174700  0.052020  1.0
  C  C7188  1  0.623300  0.825300  0.552020  1.0
  C  C7189  1  0.123300  0.825300  0.947980  1.0
  C  C7190  1  0.376700  0.174700  0.447980  1.0
  C  C7191  1  0.878300  0.163600  0.069300  1.0
  C  C7192  1  0.621700  0.836400  0.569300  1.0
  C  C7193  1  0.121700  0.836400  0.930700  1.0
  C  C7194  1  0.378300  0.163600  0.430700  1.0
  C  C7195  1  0.875600  0.180100  0.083370  1.0
  C  C7196  1  0.624400  0.819900  0.583370  1.0
  C  C7197  1  0.124400  0.819900  0.916630  1.0
  C  C7198  1  0.375600  0.180100  0.416630  1.0
  C  C7199  1  0.876400  0.211600  0.079770  1.0
  C  C7200  1  0.623600  0.788400  0.579770  1.0
  C  C7201  1  0.123600  0.788400  0.920230  1.0
  C  C7202  1  0.376400  0.211600  0.420230  1.0
  C  C7203  1  0.880000  0.231500  0.094010  1.0
  C  C7204  1  0.620000  0.768500  0.594010  1.0
  C  C7205  1  0.120000  0.768500  0.905990  1.0
  C  C7206  1  0.380000  0.231500  0.405990  1.0
  C  C7207  1  0.887700  0.283000  0.103440  1.0
  C  C7208  1  0.612300  0.717000  0.603440  1.0
  C  C7209  1  0.112300  0.717000  0.896560  1.0
  C  C7210  1  0.387700  0.283000  0.396560  1.0
  C  C7211  1  0.892800  0.276400  0.121550  1.0
  C  C7212  1  0.607200  0.723600  0.621550  1.0
  C  C7213  1  0.107200  0.723600  0.878450  1.0
  C  C7214  1  0.392800  0.276400  0.378450  1.0
  C  C7215  1  0.887600  0.243400  0.126200  1.0
  C  C7216  1  0.612400  0.756600  0.626200  1.0
  C  C7217  1  0.112400  0.756600  0.873800  1.0
  C  C7218  1  0.387600  0.243400  0.373800  1.0
  C  C7219  1  0.883200  0.222800  0.111340  1.0
  C  C7220  1  0.616800  0.777200  0.611340  1.0
  C  C7221  1  0.116800  0.777200  0.888660  1.0
  C  C7222  1  0.383200  0.222800  0.388660  1.0
  C  C7223  1  0.892900  0.315790  0.100070  1.0
  C  C7224  1  0.607100  0.684210  0.600070  1.0
  C  C7225  1  0.107100  0.684210  0.899930  1.0
  C  C7226  1  0.392900  0.315790  0.399930  1.0
  C  C7227  1  0.919600  0.337000  0.090120  1.0
  C  C7228  1  0.580400  0.663000  0.590120  1.0
  C  C7229  1  0.080400  0.663000  0.909880  1.0
  C  C7230  1  0.419600  0.337000  0.409880  1.0
  C  C7231  1  0.925000  0.367200  0.087700  1.0
  C  C7232  1  0.575000  0.632800  0.587700  1.0
  C  C7233  1  0.075000  0.632800  0.912300  1.0
  C  C7234  1  0.425000  0.367200  0.412300  1.0
  C  C7235  1  0.903400  0.379700  0.095000  1.0
  C  C7236  1  0.596600  0.620300  0.595000  1.0
  C  C7237  1  0.096600  0.620300  0.905000  1.0
  C  C7238  1  0.403400  0.379700  0.405000  1.0
  C  C7239  1  0.877000  0.358800  0.105400  1.0
  C  C7240  1  0.623000  0.641200  0.605400  1.0
  C  C7241  1  0.123000  0.641200  0.894600  1.0
  C  C7242  1  0.377000  0.358800  0.394600  1.0
  C  C7243  1  0.871100  0.328100  0.107700  1.0
  C  C7244  1  0.628900  0.671900  0.607700  1.0
  C  C7245  1  0.128900  0.671900  0.892300  1.0
  C  C7246  1  0.371100  0.328100  0.392300  1.0
  C  C7247  1  0.877000  0.216500  0.031420  1.0
  C  C7248  1  0.623000  0.783500  0.531420  1.0
  C  C7249  1  0.123000  0.783500  0.968580  1.0
  C  C7250  1  0.377000  0.216500  0.468580  1.0
  C  C7251  1  0.905900  0.240400  0.025400  1.0
  C  C7252  1  0.594100  0.759600  0.525400  1.0
  C  C7253  1  0.094100  0.759600  0.974600  1.0
  C  C7254  1  0.405900  0.240400  0.474600  1.0
  C  C7255  1  0.934800  0.256900  0.037800  1.0
  C  C7256  1  0.565200  0.743100  0.537800  1.0
  C  C7257  1  0.065200  0.743100  0.962200  1.0
  C  C7258  1  0.434800  0.256900  0.462200  1.0
  C  C7259  1  0.882800  0.234300  0.995490  1.0
  C  C7260  1  0.617200  0.765700  0.495490  1.0
  C  C7261  1  0.117200  0.765700  0.004510  1.0
  C  C7262  1  0.382800  0.234300  0.504510  1.0
  C  C7263  1  0.855700  0.208400  0.001880  1.0
  C  C7264  1  0.644300  0.791600  0.501880  1.0
  C  C7265  1  0.144300  0.791600  0.998120  1.0
  C  C7266  1  0.355700  0.208400  0.498120  1.0
  C  C7267  1  0.850300  0.201000  0.019200  1.0
  C  C7268  1  0.649700  0.799000  0.519200  1.0
  C  C7269  1  0.149700  0.799000  0.980800  1.0
  C  C7270  1  0.350300  0.201000  0.480800  1.0
  C  C7271  1  0.881900  0.191200  0.114830  1.0
  C  C7272  1  0.618100  0.808800  0.614830  1.0
  C  C7273  1  0.118100  0.808800  0.885170  1.0
  C  C7274  1  0.381900  0.191200  0.385170  1.0
  C  C7275  1  0.843400  0.305900  0.119400  1.0
  C  C7276  1  0.656600  0.694100  0.619400  1.0
  C  C7277  1  0.156600  0.694100  0.880600  1.0
  C  C7278  1  0.343400  0.305900  0.380600  1.0
  C  C7279  1  0.941800  0.321500  0.081500  1.0
  C  C7280  1  0.558200  0.678500  0.581500  1.0
  C  C7281  1  0.058200  0.678500  0.918500  1.0
  C  C7282  1  0.441800  0.321500  0.418500  1.0
  C  C7283  1  0.910500  0.414800  0.091000  1.0
  C  C7284  1  0.589500  0.585200  0.591000  1.0
  C  C7285  1  0.089500  0.585200  0.909000  1.0
  C  C7286  1  0.410500  0.414800  0.409000  1.0
  C  C7287  1  0.818100  0.177200  0.026600  1.0
  C  C7288  1  0.681900  0.822800  0.526600  1.0
  C  C7289  1  0.181900  0.822800  0.973400  1.0
  C  C7290  1  0.318100  0.177200  0.473400  1.0
  C  C7291  1  0.538800  0.107900  0.954600  1.0
  C  C7292  1  0.961200  0.892100  0.454600  1.0
  C  C7293  1  0.461200  0.892100  0.045400  1.0
  C  C7294  1  0.038800  0.107900  0.545400  1.0
  C  C7295  1  0.511400  0.080500  0.957300  1.0
  C  C7296  1  0.988600  0.919500  0.457300  1.0
  C  C7297  1  0.488600  0.919500  0.042700  1.0
  C  C7298  1  0.011400  0.080500  0.542700  1.0
  C  C7299  1  0.513600  0.050700  0.957600  1.0
  C  C7300  1  0.986400  0.949300  0.457600  1.0
  C  C7301  1  0.486400  0.949300  0.042400  1.0
  C  C7302  1  0.013600  0.050700  0.542400  1.0
  C  C7303  1  0.542600  0.048400  0.958300  1.0
  C  C7304  1  0.957400  0.951600  0.458300  1.0
  C  C7305  1  0.457400  0.951600  0.041700  1.0
  C  C7306  1  0.042600  0.048400  0.541700  1.0
  C  C7307  1  0.571300  0.077800  0.955700  1.0
  C  C7308  1  0.928700  0.922200  0.455700  1.0
  C  C7309  1  0.428700  0.922200  0.044300  1.0
  C  C7310  1  0.071300  0.077800  0.544300  1.0
  C  C7311  1  0.601500  0.075900  0.954200  1.0
  C  C7312  1  0.898500  0.924100  0.454200  1.0
  C  C7313  1  0.398500  0.924100  0.045800  1.0
  C  C7314  1  0.101500  0.075900  0.545800  1.0
  C  C7315  1  0.658000  0.102800  0.947300  1.0
  C  C7316  1  0.842000  0.897200  0.447300  1.0
  C  C7317  1  0.342000  0.897200  0.052700  1.0
  C  C7318  1  0.158000  0.102800  0.552700  1.0
  C  C7319  1  0.665000  0.074900  0.949300  1.0
  C  C7320  1  0.835000  0.925100  0.449300  1.0
  C  C7321  1  0.335000  0.925100  0.050700  1.0
  C  C7322  1  0.165000  0.074900  0.550700  1.0
  C  C7323  1  0.636300  0.044500  0.952300  1.0
  C  C7324  1  0.863700  0.955500  0.452300  1.0
  C  C7325  1  0.363700  0.955500  0.047700  1.0
  C  C7326  1  0.136300  0.044500  0.547700  1.0
  C  C7327  1  0.605300  0.047000  0.954300  1.0
  C  C7328  1  0.894700  0.953000  0.454300  1.0
  C  C7329  1  0.394700  0.953000  0.045700  1.0
  C  C7330  1  0.105300  0.047000  0.545700  1.0
  C  C7331  1  0.547300  0.019500  0.959100  1.0
  C  C7332  1  0.952700  0.980500  0.459100  1.0
  C  C7333  1  0.452700  0.980500  0.040900  1.0
  C  C7334  1  0.047300  0.019500  0.540900  1.0
  C  C7335  1  0.577200  0.018500  0.958600  1.0
  C  C7336  1  0.922800  0.981500  0.458600  1.0
  C  C7337  1  0.422800  0.981500  0.041400  1.0
  C  C7338  1  0.077200  0.018500  0.541400  1.0
  C  C7339  1  0.685800  0.130600  0.941500  1.0
  C  C7340  1  0.814200  0.869400  0.441500  1.0
  C  C7341  1  0.314200  0.869400  0.058500  1.0
  C  C7342  1  0.185800  0.130600  0.558500  1.0
  C  C7343  1  0.685400  0.146100  0.925300  1.0
  C  C7344  1  0.814600  0.853900  0.425300  1.0
  C  C7345  1  0.314600  0.853900  0.074700  1.0
  C  C7346  1  0.185400  0.146100  0.574700  1.0
  C  C7347  1  0.711800  0.170000  0.918900  1.0
  C  C7348  1  0.788200  0.830000  0.418900  1.0
  C  C7349  1  0.288200  0.830000  0.081100  1.0
  C  C7350  1  0.211800  0.170000  0.581100  1.0
  C  C7351  1  0.741600  0.179900  0.927900  1.0
  C  C7352  1  0.758400  0.820100  0.427900  1.0
  C  C7353  1  0.258400  0.820100  0.072100  1.0
  C  C7354  1  0.241600  0.179900  0.572100  1.0
  C  C7355  1  0.741600  0.166400  0.944900  1.0
  C  C7356  1  0.758400  0.833600  0.444900  1.0
  C  C7357  1  0.258400  0.833600  0.055100  1.0
  C  C7358  1  0.241600  0.166400  0.555100  1.0
  C  C7359  1  0.715800  0.141200  0.951200  1.0
  C  C7360  1  0.784200  0.858800  0.451200  1.0
  C  C7361  1  0.284200  0.858800  0.048800  1.0
  C  C7362  1  0.215800  0.141200  0.548800  1.0
  C  C7363  1  0.717500  0.122600  0.967800  1.0
  C  C7364  1  0.782500  0.877400  0.467800  1.0
  C  C7365  1  0.282500  0.877400  0.032200  1.0
  C  C7366  1  0.217500  0.122600  0.532200  1.0
  C  C7367  1  0.652800  0.132900  0.914600  1.0
  C  C7368  1  0.847200  0.867100  0.414600  1.0
  C  C7369  1  0.347200  0.867100  0.085400  1.0
  C  C7370  1  0.152800  0.132900  0.585400  1.0
  C  C7371  1  0.771400  0.207500  0.921400  1.0
  C  C7372  1  0.728600  0.792500  0.421400  1.0
  C  C7373  1  0.228600  0.792500  0.078600  1.0
  C  C7374  1  0.271400  0.207500  0.578600  1.0
  C  C7375  1  0.536900  0.138200  0.951630  1.0
  C  C7376  1  0.963100  0.861800  0.451630  1.0
  C  C7377  1  0.463100  0.861800  0.048370  1.0
  C  C7378  1  0.036900  0.138200  0.548370  1.0
  C  C7379  1  0.543200  0.151600  0.934720  1.0
  C  C7380  1  0.956800  0.848400  0.434720  1.0
  C  C7381  1  0.456800  0.848400  0.065280  1.0
  C  C7382  1  0.043200  0.151600  0.565280  1.0
  C  C7383  1  0.537100  0.179500  0.931430  1.0
  C  C7384  1  0.962900  0.820500  0.431430  1.0
  C  C7385  1  0.462900  0.820500  0.068570  1.0
  C  C7386  1  0.037100  0.179500  0.568570  1.0
  C  C7387  1  0.526300  0.193800  0.944320  1.0
  C  C7388  1  0.973700  0.806200  0.444320  1.0
  C  C7389  1  0.473700  0.806200  0.055680  1.0
  C  C7390  1  0.026300  0.193800  0.555680  1.0
  C  C7391  1  0.519700  0.179500  0.960970  1.0
  C  C7392  1  0.980300  0.820500  0.460970  1.0
  C  C7393  1  0.480300  0.820500  0.039030  1.0
  C  C7394  1  0.019700  0.179500  0.539030  1.0
  C  C7395  1  0.522900  0.152100  0.964900  1.0
  C  C7396  1  0.977100  0.847900  0.464900  1.0
  C  C7397  1  0.477100  0.847900  0.035100  1.0
  C  C7398  1  0.022900  0.152100  0.535100  1.0
  C  C7399  1  0.558600  0.136700  0.919900  1.0
  C  C7400  1  0.941400  0.863300  0.419900  1.0
  C  C7401  1  0.441400  0.863300  0.080100  1.0
  C  C7402  1  0.058600  0.136700  0.580100  1.0
  C  C7403  1  0.513600  0.138100  0.983500  1.0
  C  C7404  1  0.986400  0.861900  0.483500  1.0
  C  C7405  1  0.486400  0.861900  0.016500  1.0
  C  C7406  1  0.013600  0.138100  0.516500  1.0
  C  C7407  1  0.522400  0.226200  0.941600  1.0
  C  C7408  1  0.977600  0.773800  0.441600  1.0
  C  C7409  1  0.477600  0.773800  0.058400  1.0
  C  C7410  1  0.022400  0.226200  0.558400  1.0
  C  C7411  1  0.891000  0.606000  0.024800  1.0
  C  C7412  1  0.609000  0.394000  0.524800  1.0
  C  C7413  1  0.109000  0.394000  0.975200  1.0
  C  C7414  1  0.391000  0.606000  0.475200  1.0
  C  C7415  1  0.919800  0.631800  0.021500  1.0
  C  C7416  1  0.580200  0.368200  0.521500  1.0
  C  C7417  1  0.080200  0.368200  0.978500  1.0
  C  C7418  1  0.419800  0.631800  0.478500  1.0
  C  C7419  1  0.947500  0.639500  0.032400  1.0
  C  C7420  1  0.552500  0.360500  0.532400  1.0
  C  C7421  1  0.052500  0.360500  0.967600  1.0
  C  C7422  1  0.447500  0.639500  0.467600  1.0
  C  C7423  1  0.948500  0.619500  0.045100  1.0
  C  C7424  1  0.551500  0.380500  0.545100  1.0
  C  C7425  1  0.051500  0.380500  0.954900  1.0
  C  C7426  1  0.448500  0.619500  0.454900  1.0
  C  C7427  1  0.917200  0.593700  0.049030  1.0
  C  C7428  1  0.582800  0.406300  0.549030  1.0
  C  C7429  1  0.082800  0.406300  0.950970  1.0
  C  C7430  1  0.417200  0.593700  0.450970  1.0
  C  C7431  1  0.914400  0.577600  0.064770  1.0
  C  C7432  1  0.585600  0.422400  0.564770  1.0
  C  C7433  1  0.085600  0.422400  0.935230  1.0
  C  C7434  1  0.414400  0.577600  0.435230  1.0
  C  C7435  1  0.878400  0.540300  0.084600  1.0
  C  C7436  1  0.621600  0.459700  0.584600  1.0
  C  C7437  1  0.121600  0.459700  0.915400  1.0
  C  C7438  1  0.378400  0.540300  0.415400  1.0
  C  C7439  1  0.903200  0.546900  0.097900  1.0
  C  C7440  1  0.596800  0.453100  0.597900  1.0
  C  C7441  1  0.096800  0.453100  0.902100  1.0
  C  C7442  1  0.403200  0.546900  0.402100  1.0
  C  C7443  1  0.936500  0.570700  0.093820  1.0
  C  C7444  1  0.563500  0.429300  0.593820  1.0
  C  C7445  1  0.063500  0.429300  0.906180  1.0
  C  C7446  1  0.436500  0.570700  0.406180  1.0
  C  C7447  1  0.940700  0.584100  0.076500  1.0
  C  C7448  1  0.559300  0.415900  0.576500  1.0
  C  C7449  1  0.059300  0.415900  0.923500  1.0
  C  C7450  1  0.440700  0.584100  0.423500  1.0
  C  C7451  1  0.845580  0.519600  0.090220  1.0
  C  C7452  1  0.654420  0.480400  0.590220  1.0
  C  C7453  1  0.154420  0.480400  0.909780  1.0
  C  C7454  1  0.345580  0.519600  0.409780  1.0
  C  C7455  1  0.818200  0.528200  0.090800  1.0
  C  C7456  1  0.681800  0.471800  0.590800  1.0
  C  C7457  1  0.181800  0.471800  0.909200  1.0
  C  C7458  1  0.318200  0.528200  0.409200  1.0
  C  C7459  1  0.788800  0.509600  0.096760  1.0
  C  C7460  1  0.711200  0.490400  0.596760  1.0
  C  C7461  1  0.211200  0.490400  0.903240  1.0
  C  C7462  1  0.288800  0.509600  0.403240  1.0
  C  C7463  1  0.783400  0.479300  0.102900  1.0
  C  C7464  1  0.716600  0.520700  0.602900  1.0
  C  C7465  1  0.216600  0.520700  0.897100  1.0
  C  C7466  1  0.283400  0.479300  0.397100  1.0
  C  C7467  1  0.810600  0.469800  0.102300  1.0
  C  C7468  1  0.689400  0.530200  0.602300  1.0
  C  C7469  1  0.189400  0.530200  0.897700  1.0
  C  C7470  1  0.310600  0.469800  0.397700  1.0
  C  C7471  1  0.840200  0.488600  0.096100  1.0
  C  C7472  1  0.659800  0.511400  0.596100  1.0
  C  C7473  1  0.159800  0.511400  0.903900  1.0
  C  C7474  1  0.340200  0.488600  0.403900  1.0
  C  C7475  1  0.860800  0.599900  0.015500  1.0
  C  C7476  1  0.639200  0.400100  0.515500  1.0
  C  C7477  1  0.139200  0.400100  0.984500  1.0
  C  C7478  1  0.360800  0.599900  0.484500  1.0
  C  C7479  1  0.834600  0.604700  0.023240  1.0
  C  C7480  1  0.665400  0.395300  0.523240  1.0
  C  C7481  1  0.165400  0.395300  0.976760  1.0
  C  C7482  1  0.334600  0.604700  0.476760  1.0
  C  C7483  1  0.805600  0.597800  0.013000  1.0
  C  C7484  1  0.694400  0.402200  0.513000  1.0
  C  C7485  1  0.194400  0.402200  0.987000  1.0
  C  C7486  1  0.305600  0.597800  0.487000  1.0
  C  C7487  1  0.803000  0.587900  0.995700  1.0
  C  C7488  1  0.697000  0.412100  0.495700  1.0
  C  C7489  1  0.197000  0.412100  0.004300  1.0
  C  C7490  1  0.303000  0.587900  0.504300  1.0
  C  C7491  1  0.830900  0.585100  0.988240  1.0
  C  C7492  1  0.669100  0.414900  0.488240  1.0
  C  C7493  1  0.169100  0.414900  0.011760  1.0
  C  C7494  1  0.330900  0.585100  0.511760  1.0
  C  C7495  1  0.857800  0.588200  0.997400  1.0
  C  C7496  1  0.642200  0.411800  0.497400  1.0
  C  C7497  1  0.142200  0.411800  0.002600  1.0
  C  C7498  1  0.357800  0.588200  0.502600  1.0
  C  C7499  1  0.833600  0.615300  0.042400  1.0
  C  C7500  1  0.666400  0.384700  0.542400  1.0
  C  C7501  1  0.166400  0.384700  0.957600  1.0
  C  C7502  1  0.333600  0.615300  0.457600  1.0
  C  C7503  1  0.971800  0.609200  0.072260  1.0
  C  C7504  1  0.528200  0.390800  0.572260  1.0
  C  C7505  1  0.028200  0.390800  0.927740  1.0
  C  C7506  1  0.471800  0.609200  0.427740  1.0
  C  C7507  1  0.868300  0.475700  0.095400  1.0
  C  C7508  1  0.631700  0.524300  0.595400  1.0
  C  C7509  1  0.131700  0.524300  0.904600  1.0
  C  C7510  1  0.368300  0.475700  0.404600  1.0
  C  C7511  1  0.823500  0.561500  0.084800  1.0
  C  C7512  1  0.676500  0.438500  0.584800  1.0
  C  C7513  1  0.176500  0.438500  0.915200  1.0
  C  C7514  1  0.323500  0.561500  0.415200  1.0
  C  C7515  1  0.751500  0.455600  0.109400  1.0
  C  C7516  1  0.748500  0.544400  0.609400  1.0
  C  C7517  1  0.248500  0.544400  0.890600  1.0
  C  C7518  1  0.251500  0.455600  0.390600  1.0
  C  C7519  1  0.884900  0.585700  0.987400  1.0
  C  C7520  1  0.615100  0.414300  0.487400  1.0
  C  C7521  1  0.115100  0.414300  0.012600  1.0
  C  C7522  1  0.384900  0.585700  0.512600  1.0
  C  C7523  1  0.877300  0.454200  0.887820  1.0
  C  C7524  1  0.622700  0.545800  0.387820  1.0
  C  C7525  1  0.122700  0.545800  0.112180  1.0
  C  C7526  1  0.377300  0.454200  0.612180  1.0
  C  C7527  1  0.877500  0.467200  0.871250  1.0
  C  C7528  1  0.622500  0.532800  0.371250  1.0
  C  C7529  1  0.122500  0.532800  0.128750  1.0
  C  C7530  1  0.377500  0.467200  0.628750  1.0
  C  C7531  1  0.879200  0.451200  0.855540  1.0
  C  C7532  1  0.620800  0.548800  0.355540  1.0
  C  C7533  1  0.120800  0.548800  0.144460  1.0
  C  C7534  1  0.379200  0.451200  0.644460  1.0
  C  C7535  1  0.876700  0.421300  0.856060  1.0
  C  C7536  1  0.623300  0.578700  0.356060  1.0
  C  C7537  1  0.123300  0.578700  0.143940  1.0
  C  C7538  1  0.376700  0.421300  0.643940  1.0
  C  C7539  1  0.875800  0.408000  0.873660  1.0
  C  C7540  1  0.624200  0.592000  0.373660  1.0
  C  C7541  1  0.124200  0.592000  0.126340  1.0
  C  C7542  1  0.375800  0.408000  0.626340  1.0
  C  C7543  1  0.876700  0.378200  0.875060  1.0
  C  C7544  1  0.623300  0.621800  0.375060  1.0
  C  C7545  1  0.123300  0.621800  0.124940  1.0
  C  C7546  1  0.376700  0.378200  0.624940  1.0
  C  C7547  1  0.886900  0.342000  0.894290  1.0
  C  C7548  1  0.613100  0.658000  0.394290  1.0
  C  C7549  1  0.113100  0.658000  0.105710  1.0
  C  C7550  1  0.386900  0.342000  0.605710  1.0
  C  C7551  1  0.889800  0.323300  0.879700  1.0
  C  C7552  1  0.610200  0.676700  0.379700  1.0
  C  C7553  1  0.110200  0.676700  0.120300  1.0
  C  C7554  1  0.389800  0.323300  0.620300  1.0
  C  C7555  1  0.878600  0.361000  0.860220  1.0
  C  C7556  1  0.621400  0.639000  0.360220  1.0
  C  C7557  1  0.121400  0.639000  0.139780  1.0
  C  C7558  1  0.378600  0.361000  0.639780  1.0
  C  C7559  1  0.899000  0.335300  0.911100  1.0
  C  C7560  1  0.601000  0.664700  0.411100  1.0
  C  C7561  1  0.101000  0.664700  0.088900  1.0
  C  C7562  1  0.399000  0.335300  0.588900  1.0
  C  C7563  1  0.923600  0.359000  0.920900  1.0
  C  C7564  1  0.576400  0.641000  0.420900  1.0
  C  C7565  1  0.076400  0.641000  0.079100  1.0
  C  C7566  1  0.423600  0.359000  0.579100  1.0
  C  C7567  1  0.931700  0.355300  0.937500  1.0
  C  C7568  1  0.568300  0.644700  0.437500  1.0
  C  C7569  1  0.068300  0.644700  0.062500  1.0
  C  C7570  1  0.431700  0.355300  0.562500  1.0
  C  C7571  1  0.915300  0.326500  0.946300  1.0
  C  C7572  1  0.584700  0.673500  0.446300  1.0
  C  C7573  1  0.084700  0.673500  0.053700  1.0
  C  C7574  1  0.415300  0.326500  0.553700  1.0
  C  C7575  1  0.889800  0.302400  0.936700  1.0
  C  C7576  1  0.610200  0.697600  0.436700  1.0
  C  C7577  1  0.110200  0.697600  0.063300  1.0
  C  C7578  1  0.389800  0.302400  0.563300  1.0
  C  C7579  1  0.883200  0.305400  0.919500  1.0
  C  C7580  1  0.616800  0.694600  0.419500  1.0
  C  C7581  1  0.116800  0.694600  0.080500  1.0
  C  C7582  1  0.383200  0.305400  0.580500  1.0
  C  C7583  1  0.881400  0.471600  0.904050  1.0
  C  C7584  1  0.618600  0.528400  0.404050  1.0
  C  C7585  1  0.118600  0.528400  0.095950  1.0
  C  C7586  1  0.381400  0.471600  0.595950  1.0
  C  C7587  1  0.908700  0.478600  0.915000  1.0
  C  C7588  1  0.591300  0.521400  0.415000  1.0
  C  C7589  1  0.091300  0.521400  0.085000  1.0
  C  C7590  1  0.408700  0.478600  0.585000  1.0
  C  C7591  1  0.911100  0.497900  0.930300  1.0
  C  C7592  1  0.588900  0.502100  0.430300  1.0
  C  C7593  1  0.088900  0.502100  0.069700  1.0
  C  C7594  1  0.411100  0.497900  0.569700  1.0
  C  C7595  1  0.887900  0.509400  0.934500  1.0
  C  C7596  1  0.612100  0.490600  0.434500  1.0
  C  C7597  1  0.112100  0.490600  0.065500  1.0
  C  C7598  1  0.387900  0.509400  0.565500  1.0
  C  C7599  1  0.861200  0.502000  0.922700  1.0
  C  C7600  1  0.638800  0.498000  0.422700  1.0
  C  C7601  1  0.138800  0.498000  0.077300  1.0
  C  C7602  1  0.361200  0.502000  0.577300  1.0
  C  C7603  1  0.857300  0.484400  0.908100  1.0
  C  C7604  1  0.642700  0.515600  0.408100  1.0
  C  C7605  1  0.142700  0.515600  0.091900  1.0
  C  C7606  1  0.357300  0.484400  0.591900  1.0
  C  C7607  1  0.936600  0.468300  0.908600  1.0
  C  C7608  1  0.563400  0.531700  0.408600  1.0
  C  C7609  1  0.063400  0.531700  0.091400  1.0
  C  C7610  1  0.436600  0.468300  0.591400  1.0
  C  C7611  1  0.879400  0.374400  0.842760  1.0
  C  C7612  1  0.620600  0.625600  0.342760  1.0
  C  C7613  1  0.120600  0.625600  0.157240  1.0
  C  C7614  1  0.379400  0.374400  0.657240  1.0
  C  C7615  1  0.826700  0.475800  0.896300  1.0
  C  C7616  1  0.673300  0.524200  0.396300  1.0
  C  C7617  1  0.173300  0.524200  0.103700  1.0
  C  C7618  1  0.326700  0.475800  0.603700  1.0
  C  C7619  1  0.890300  0.530200  0.950700  1.0
  C  C7620  1  0.609700  0.469800  0.450700  1.0
  C  C7621  1  0.109700  0.469800  0.049300  1.0
  C  C7622  1  0.390300  0.530200  0.549300  1.0
  C  C7623  1  0.784700  0.446500  0.955700  1.0
  C  C7624  1  0.715300  0.553500  0.455700  1.0
  C  C7625  1  0.215300  0.553500  0.044300  1.0
  C  C7626  1  0.284700  0.446500  0.544300  1.0
  C  C7627  1  0.782700  0.477800  0.978700  1.0
  C  C7628  1  0.717300  0.522200  0.478700  1.0
  C  C7629  1  0.217300  0.522200  0.021300  1.0
  C  C7630  1  0.282700  0.477800  0.521300  1.0
  C  C7631  1  0.737500  0.452500  0.962000  1.0
  C  C7632  1  0.762500  0.547500  0.462000  1.0
  C  C7633  1  0.262500  0.547500  0.038000  1.0
  C  C7634  1  0.237500  0.452500  0.538000  1.0
  C  C7635  1  0.066200  0.184700  0.943600  1.0
  C  C7636  1  0.433800  0.815300  0.443600  1.0
  C  C7637  1  0.933800  0.815300  0.056400  1.0
  C  C7638  1  0.566200  0.184700  0.556400  1.0
  C  C7639  1  0.093400  0.198900  0.932000  1.0
  C  C7640  1  0.406600  0.801100  0.432000  1.0
  C  C7641  1  0.906600  0.801100  0.068000  1.0
  C  C7642  1  0.593400  0.198900  0.568000  1.0
  C  C7643  1  0.096000  0.186200  0.916400  1.0
  C  C7644  1  0.404000  0.813800  0.416400  1.0
  C  C7645  1  0.904000  0.813800  0.083600  1.0
  C  C7646  1  0.596000  0.186200  0.583600  1.0
  C  C7647  1  0.945000  0.389900  0.910800  1.0
  C  C7648  1  0.555000  0.610100  0.410800  1.0
  C  C7649  1  0.055000  0.610100  0.089200  1.0
  C  C7650  1  0.445000  0.389900  0.589200  1.0
  C  C7651  1  0.668400  0.539700  0.965900  1.0
  C  C7652  1  0.831600  0.460300  0.465900  1.0
  C  C7653  1  0.331600  0.460300  0.034100  1.0
  C  C7654  1  0.168400  0.539700  0.534100  1.0
  C  C7655  1  0.066900  0.196200  0.961600  1.0
  C  C7656  1  0.433100  0.803800  0.461600  1.0
  C  C7657  1  0.933100  0.803800  0.038400  1.0
  C  C7658  1  0.566900  0.196200  0.538400  1.0
  C  C7659  1  0.908100  0.248100  0.007000  1.0
  C  C7660  1  0.591900  0.751900  0.507000  1.0
  C  C7661  1  0.091900  0.751900  0.993000  1.0
  C  C7662  1  0.408100  0.248100  0.493000  1.0
  C  C7663  1  0.882800  0.331800  0.861500  1.0
  C  C7664  1  0.617200  0.668200  0.361500  1.0
  C  C7665  1  0.117200  0.668200  0.138500  1.0
  C  C7666  1  0.382800  0.331800  0.638500  1.0
  C  C7667  1  0.975400  0.693900  0.731150  1.0
  C  C7668  1  0.524600  0.306100  0.231150  1.0
  C  C7669  1  0.024600  0.306100  0.268850  1.0
  C  C7670  1  0.475400  0.693900  0.768850  1.0
  C  C7671  1  0.691200  0.559800  0.980000  1.0
  C  C7672  1  0.808800  0.440200  0.480000  1.0
  C  C7673  1  0.308800  0.440200  0.020000  1.0
  C  C7674  1  0.191200  0.559800  0.520000  1.0
  C  C7675  1  0.240900  0.781500  0.191200  1.0
  C  C7676  1  0.259100  0.218500  0.691200  1.0
  C  C7677  1  0.759100  0.218500  0.808800  1.0
  C  C7678  1  0.740900  0.781500  0.308800  1.0
  C  C7679  1  0.049800  0.074100  0.840290  1.0
  C  C7680  1  0.450200  0.925900  0.340290  1.0
  C  C7681  1  0.950200  0.925900  0.159710  1.0
  C  C7682  1  0.549800  0.074100  0.659710  1.0
  C  C7683  1  0.057200  0.263400  0.107670  1.0
  C  C7684  1  0.442800  0.736600  0.607670  1.0
  C  C7685  1  0.942800  0.736600  0.892330  1.0
  C  C7686  1  0.557200  0.263400  0.392330  1.0
  C  C7687  1  0.974900  0.625400  0.057200  1.0
  C  C7688  1  0.525100  0.374600  0.557200  1.0
  C  C7689  1  0.025100  0.374600  0.942800  1.0
  C  C7690  1  0.474900  0.625400  0.442800  1.0
  C  C7691  1  0.878100  0.171600  0.101200  1.0
  C  C7692  1  0.621900  0.828400  0.601200  1.0
  C  C7693  1  0.121900  0.828400  0.898800  1.0
  C  C7694  1  0.378100  0.171600  0.398800  1.0
  C  C7695  1  0.503000  0.403800  0.899300  1.0
  C  C7696  1  0.997000  0.596200  0.399300  1.0
  C  C7697  1  0.497000  0.596200  0.100700  1.0
  C  C7698  1  0.003000  0.403800  0.600700  1.0
  C  C7699  1  0.878400  0.403100  0.841120  1.0
  C  C7700  1  0.621600  0.596900  0.341120  1.0
  C  C7701  1  0.121600  0.596900  0.158880  1.0
  C  C7702  1  0.378400  0.403100  0.658880  1.0
  C  C7703  1  0.011200  0.791300  0.041790  1.0
  C  C7704  1  0.488800  0.208700  0.541790  1.0
  C  C7705  1  0.988800  0.208700  0.958210  1.0
  C  C7706  1  0.511200  0.791300  0.458210  1.0
  C  C7707  1  0.770600  0.576300  0.985500  1.0
  C  C7708  1  0.729400  0.423700  0.485500  1.0
  C  C7709  1  0.229400  0.423700  0.014500  1.0
  C  C7710  1  0.270600  0.576300  0.514500  1.0
  C  C7711  1  0.923700  0.320700  0.965000  1.0
  C  C7712  1  0.576300  0.679300  0.465000  1.0
  C  C7713  1  0.076300  0.679300  0.035000  1.0
  C  C7714  1  0.423700  0.320700  0.535000  1.0
  C  C7715  1  0.884900  0.241500  0.975800  1.0
  C  C7716  1  0.615100  0.758500  0.475800  1.0
  C  C7717  1  0.115100  0.758500  0.024200  1.0
  C  C7718  1  0.384900  0.241500  0.524200  1.0
  C  C7719  1  0.125200  0.881200  0.986400  1.0
  C  C7720  1  0.374800  0.118800  0.486400  1.0
  C  C7721  1  0.874800  0.118800  0.013600  1.0
  C  C7722  1  0.625200  0.881200  0.513600  1.0
  C  C7723  1  0.154000  0.871200  0.012130  1.0
  C  C7724  1  0.346000  0.128800  0.512130  1.0
  C  C7725  1  0.846000  0.128800  0.987870  1.0
  C  C7726  1  0.654000  0.871200  0.487870  1.0
  C  C7727  1  0.184800  0.902600  0.986940  1.0
  C  C7728  1  0.315200  0.097400  0.486940  1.0
  C  C7729  1  0.815200  0.097400  0.013060  1.0
  C  C7730  1  0.684800  0.902600  0.513060  1.0
  C  C7731  1  0.124700  0.867400  0.003750  1.0
  C  C7732  1  0.375300  0.132600  0.503750  1.0
  C  C7733  1  0.875300  0.132600  0.996250  1.0
  C  C7734  1  0.624700  0.867400  0.496250  1.0
  C  C7735  1  0.184100  0.889200  0.003000  1.0
  C  C7736  1  0.315900  0.110800  0.503000  1.0
  C  C7737  1  0.815900  0.110800  0.997000  1.0
  C  C7738  1  0.684100  0.889200  0.497000  1.0
  C  C7739  1  0.154500  0.853900  0.029100  1.0
  C  C7740  1  0.345500  0.146100  0.529100  1.0
  C  C7741  1  0.845500  0.146100  0.970900  1.0
  C  C7742  1  0.654500  0.853900  0.470900  1.0
  C  C7743  1  0.092800  0.875100  0.977100  1.0
  C  C7744  1  0.407200  0.124900  0.477100  1.0
  C  C7745  1  0.907200  0.124900  0.022900  1.0
  C  C7746  1  0.592800  0.875100  0.522900  1.0
  C  C7747  1  0.154600  0.896600  0.978630  1.0
  C  C7748  1  0.345400  0.103400  0.478630  1.0
  C  C7749  1  0.845400  0.103400  0.021370  1.0
  C  C7750  1  0.654600  0.896600  0.521370  1.0
  C  C7751  1  0.216400  0.924800  0.977700  1.0
  C  C7752  1  0.283600  0.075200  0.477700  1.0
  C  C7753  1  0.783600  0.075200  0.022300  1.0
  C  C7754  1  0.716400  0.924800  0.522300  1.0
  C  C7755  1  0.127000  0.201800  0.906000  1.0
  C  C7756  1  0.373000  0.798200  0.406000  1.0
  C  C7757  1  0.873000  0.798200  0.094000  1.0
  C  C7758  1  0.627000  0.201800  0.594000  1.0
  N  N7759  1  0.081500  0.875700  0.061000  1.0
  N  N7760  1  0.418500  0.124300  0.561000  1.0
  N  N7761  1  0.918500  0.124300  0.939000  1.0
  N  N7762  1  0.581500  0.875700  0.439000  1.0
  N  N7763  1  0.204100  0.458800  0.660870  1.0
  N  N7764  1  0.295900  0.541200  0.160870  1.0
  N  N7765  1  0.795900  0.541200  0.339130  1.0
  N  N7766  1  0.704100  0.458800  0.839130  1.0
  N  N7767  1  0.234000  0.562000  0.692560  1.0
  N  N7768  1  0.266000  0.438000  0.192560  1.0
  N  N7769  1  0.766000  0.438000  0.307440  1.0
  N  N7770  1  0.734000  0.562000  0.807440  1.0
  N  N7771  1  0.219700  0.606200  0.690180  1.0
  N  N7772  1  0.280300  0.393800  0.190180  1.0
  N  N7773  1  0.780300  0.393800  0.309820  1.0
  N  N7774  1  0.719700  0.606200  0.809820  1.0
  N  N7775  1  0.201100  0.564900  0.669040  1.0
  N  N7776  1  0.298900  0.435100  0.169040  1.0
  N  N7777  1  0.798900  0.435100  0.330960  1.0
  N  N7778  1  0.701100  0.564900  0.830960  1.0
  N  N7779  1  0.149100  0.638700  0.650110  1.0
  N  N7780  1  0.350900  0.361300  0.150110  1.0
  N  N7781  1  0.850900  0.361300  0.349890  1.0
  N  N7782  1  0.649100  0.638700  0.849890  1.0
  N  N7783  1  0.293700  0.637600  0.742320  1.0
  N  N7784  1  0.206300  0.362400  0.242320  1.0
  N  N7785  1  0.706300  0.362400  0.257680  1.0
  N  N7786  1  0.793700  0.637600  0.757680  1.0
  N  N7787  1  0.156800  0.406800  0.674480  1.0
  N  N7788  1  0.343200  0.593200  0.174480  1.0
  N  N7789  1  0.843200  0.593200  0.325520  1.0
  N  N7790  1  0.656800  0.406800  0.825520  1.0
  N  N7791  1  0.056100  0.403800  0.705500  1.0
  N  N7792  1  0.443900  0.596200  0.205500  1.0
  N  N7793  1  0.943900  0.596200  0.294500  1.0
  N  N7794  1  0.556100  0.403800  0.794500  1.0
  N  N7795  1  0.039900  0.403300  0.735630  1.0
  N  N7796  1  0.460100  0.596700  0.235630  1.0
  N  N7797  1  0.960100  0.596700  0.264370  1.0
  N  N7798  1  0.539900  0.403300  0.764370  1.0
  N  N7799  1  0.093400  0.406200  0.728770  1.0
  N  N7800  1  0.406600  0.593800  0.228770  1.0
  N  N7801  1  0.906600  0.593800  0.271230  1.0
  N  N7802  1  0.593400  0.406200  0.771230  1.0
  N  N7803  1  0.091700  0.400800  0.794910  1.0
  N  N7804  1  0.408300  0.599200  0.294910  1.0
  N  N7805  1  0.908300  0.599200  0.205090  1.0
  N  N7806  1  0.591700  0.400800  0.705090  1.0
  N  N7807  1  0.941400  0.400600  0.702120  1.0
  N  N7808  1  0.558600  0.599400  0.202120  1.0
  N  N7809  1  0.058600  0.599400  0.297880  1.0
  N  N7810  1  0.441400  0.400600  0.797880  1.0
  N  N7811  1  0.924900  0.450900  0.699000  1.0
  N  N7812  1  0.575100  0.549100  0.199000  1.0
  N  N7813  1  0.075100  0.549100  0.301000  1.0
  N  N7814  1  0.424900  0.450900  0.801000  1.0
  N  N7815  1  0.006800  0.560900  0.698070  1.0
  N  N7816  1  0.493200  0.439100  0.198070  1.0
  N  N7817  1  0.993200  0.439100  0.301930  1.0
  N  N7818  1  0.506800  0.560900  0.801930  1.0
  N  N7819  1  0.029000  0.603900  0.718000  1.0
  N  N7820  1  0.471000  0.396100  0.218000  1.0
  N  N7821  1  0.971000  0.396100  0.282000  1.0
  N  N7822  1  0.529000  0.603900  0.782000  1.0
  N  N7823  1  0.986900  0.557000  0.727230  1.0
  N  N7824  1  0.513100  0.443000  0.227230  1.0
  N  N7825  1  0.013100  0.443000  0.272770  1.0
  N  N7826  1  0.486900  0.557000  0.772770  1.0
  N  N7827  1  0.009600  0.619700  0.782930  1.0
  N  N7828  1  0.490400  0.380300  0.282930  1.0
  N  N7829  1  0.990400  0.380300  0.217070  1.0
  N  N7830  1  0.509600  0.619700  0.717070  1.0
  N  N7831  1  0.090000  0.638800  0.659360  1.0
  N  N7832  1  0.410000  0.361200  0.159360  1.0
  N  N7833  1  0.910000  0.361200  0.340640  1.0
  N  N7834  1  0.590000  0.638800  0.840640  1.0
  N  N7835  1  0.052700  0.620600  0.807820  1.0
  N  N7836  1  0.447300  0.379400  0.307820  1.0
  N  N7837  1  0.947300  0.379400  0.192180  1.0
  N  N7838  1  0.552700  0.620600  0.692180  1.0
  N  N7839  1  0.158400  0.604600  0.797700  1.0
  N  N7840  1  0.341600  0.395400  0.297700  1.0
  N  N7841  1  0.841600  0.395400  0.202300  1.0
  N  N7842  1  0.658400  0.604600  0.702300  1.0
  N  N7843  1  0.173500  0.561600  0.801700  1.0
  N  N7844  1  0.326500  0.438400  0.301700  1.0
  N  N7845  1  0.826500  0.438400  0.198300  1.0
  N  N7846  1  0.673500  0.561600  0.698300  1.0
  N  N7847  1  0.119700  0.556800  0.808800  1.0
  N  N7848  1  0.380300  0.443200  0.308800  1.0
  N  N7849  1  0.880300  0.443200  0.191200  1.0
  N  N7850  1  0.619700  0.556800  0.691200  1.0
  N  N7851  1  0.116200  0.447500  0.818510  1.0
  N  N7852  1  0.383800  0.552500  0.318510  1.0
  N  N7853  1  0.883800  0.552500  0.181490  1.0
  N  N7854  1  0.616200  0.447500  0.681490  1.0
  N  N7855  1  0.274100  0.640100  0.775740  1.0
  N  N7856  1  0.225900  0.359900  0.275740  1.0
  N  N7857  1  0.725900  0.359900  0.224260  1.0
  N  N7858  1  0.774100  0.640100  0.724260  1.0
  N  N7859  1  0.409900  0.832900  0.197590  1.0
  N  N7860  1  0.090100  0.167100  0.697590  1.0
  N  N7861  1  0.590100  0.167100  0.802410  1.0
  N  N7862  1  0.909900  0.832900  0.302410  1.0
  N  N7863  1  0.500400  0.835000  0.237070  1.0
  N  N7864  1  0.999600  0.165000  0.737070  1.0
  N  N7865  1  0.499600  0.165000  0.762930  1.0
  N  N7866  1  0.000400  0.835000  0.262930  1.0
  N  N7867  1  0.552400  0.832700  0.232770  1.0
  N  N7868  1  0.947600  0.167300  0.732770  1.0
  N  N7869  1  0.447600  0.167300  0.767230  1.0
  N  N7870  1  0.052400  0.832700  0.267230  1.0
  N  N7871  1  0.520300  0.834300  0.207780  1.0
  N  N7872  1  0.979700  0.165700  0.707780  1.0
  N  N7873  1  0.479700  0.165700  0.792220  1.0
  N  N7874  1  0.020300  0.834300  0.292220  1.0
  N  N7875  1  0.546600  0.833500  0.298380  1.0
  N  N7876  1  0.953400  0.166500  0.798380  1.0
  N  N7877  1  0.453400  0.166500  0.701620  1.0
  N  N7878  1  0.046600  0.833500  0.201620  1.0
  N  N7879  1  0.628700  0.838200  0.183690  1.0
  N  N7880  1  0.871300  0.161800  0.683690  1.0
  N  N7881  1  0.371300  0.161800  0.816310  1.0
  N  N7882  1  0.128700  0.838200  0.316310  1.0
  N  N7883  1  0.679300  0.892800  0.174840  1.0
  N  N7884  1  0.820700  0.107200  0.674840  1.0
  N  N7885  1  0.320700  0.107200  0.825160  1.0
  N  N7886  1  0.179300  0.892800  0.325160  1.0
  N  N7887  1  0.667900  0.998000  0.175280  1.0
  N  N7888  1  0.832100  0.002000  0.675280  1.0
  N  N7889  1  0.332100  0.002000  0.824720  1.0
  N  N7890  1  0.167900  0.998000  0.324720  1.0
  N  N7891  1  0.691100  0.044900  0.192440  1.0
  N  N7892  1  0.808900  0.955100  0.692440  1.0
  N  N7893  1  0.308900  0.955100  0.807560  1.0
  N  N7894  1  0.191100  0.044900  0.307560  1.0
  N  N7895  1  0.702900  0.000500  0.199570  1.0
  N  N7896  1  0.797100  0.999500  0.699570  1.0
  N  N7897  1  0.297100  0.999500  0.800430  1.0
  N  N7898  1  0.202900  0.000500  0.300430  1.0
  N  N7899  1  0.769600  0.080800  0.243390  1.0
  N  N7900  1  0.730400  0.919200  0.743390  1.0
  N  N7901  1  0.230400  0.919200  0.756610  1.0
  N  N7902  1  0.269600  0.080800  0.256610  1.0
  N  N7903  1  0.628900  0.075800  0.145830  1.0
  N  N7904  1  0.871100  0.924200  0.645830  1.0
  N  N7905  1  0.371100  0.924200  0.854170  1.0
  N  N7906  1  0.128900  0.075800  0.354170  1.0
  N  N7907  1  0.395700  0.886000  0.191050  1.0
  N  N7908  1  0.104300  0.114000  0.691050  1.0
  N  N7909  1  0.604300  0.114000  0.808950  1.0
  N  N7910  1  0.895700  0.886000  0.308950  1.0
  N  N7911  1  0.480600  0.994800  0.186200  1.0
  N  N7912  1  0.019400  0.005200  0.686200  1.0
  N  N7913  1  0.519400  0.005200  0.813800  1.0
  N  N7914  1  0.980600  0.994800  0.313800  1.0
  N  N7915  1  0.507100  0.039900  0.204750  1.0
  N  N7916  1  0.992900  0.960100  0.704750  1.0
  N  N7917  1  0.492900  0.960100  0.795250  1.0
  N  N7918  1  0.007100  0.039900  0.295250  1.0
  N  N7919  1  0.464500  0.993500  0.215760  1.0
  N  N7920  1  0.035500  0.006500  0.715760  1.0
  N  N7921  1  0.535500  0.006500  0.784240  1.0
  N  N7922  1  0.964500  0.993500  0.284240  1.0
  N  N7923  1  0.498800  0.070000  0.267920  1.0
  N  N7924  1  0.001200  0.930000  0.767920  1.0
  N  N7925  1  0.501200  0.930000  0.732080  1.0
  N  N7926  1  0.998800  0.070000  0.232080  1.0
  N  N7927  1  0.567600  0.071200  0.147900  1.0
  N  N7928  1  0.932400  0.928800  0.647900  1.0
  N  N7929  1  0.432400  0.928800  0.852100  1.0
  N  N7930  1  0.067600  0.071200  0.352100  1.0
  N  N7931  1  0.533900  0.067000  0.295630  1.0
  N  N7932  1  0.966100  0.933000  0.795630  1.0
  N  N7933  1  0.466100  0.933000  0.704370  1.0
  N  N7934  1  0.033900  0.067000  0.204370  1.0
  N  N7935  1  0.631100  0.038600  0.293970  1.0
  N  N7936  1  0.868900  0.961400  0.793970  1.0
  N  N7937  1  0.368900  0.961400  0.706030  1.0
  N  N7938  1  0.131100  0.038600  0.206030  1.0
  N  N7939  1  0.642700  0.992900  0.299470  1.0
  N  N7940  1  0.857300  0.007100  0.799470  1.0
  N  N7941  1  0.357300  0.007100  0.700530  1.0
  N  N7942  1  0.142700  0.992900  0.200530  1.0
  N  N7943  1  0.589400  0.992300  0.304480  1.0
  N  N7944  1  0.910600  0.007700  0.804480  1.0
  N  N7945  1  0.410600  0.007700  0.695520  1.0
  N  N7946  1  0.089400  0.992300  0.195520  1.0
  N  N7947  1  0.574900  0.882600  0.320330  1.0
  N  N7948  1  0.925100  0.117400  0.820330  1.0
  N  N7949  1  0.425100  0.117400  0.679670  1.0
  N  N7950  1  0.074900  0.882600  0.179670  1.0
  N  N7951  1  0.747900  0.076000  0.276840  1.0
  N  N7952  1  0.752100  0.924000  0.776840  1.0
  N  N7953  1  0.252100  0.924000  0.723160  1.0
  N  N7954  1  0.247900  0.076000  0.223160  1.0
  N  N7955  1  0.098100  0.143900  0.076300  1.0
  N  N7956  1  0.401900  0.856100  0.576300  1.0
  N  N7957  1  0.901900  0.856100  0.923700  1.0
  N  N7958  1  0.598100  0.143900  0.423700  1.0
  N  N7959  1  0.185400  0.100500  0.080630  1.0
  N  N7960  1  0.314600  0.899500  0.580630  1.0
  N  N7961  1  0.814600  0.899500  0.919370  1.0
  N  N7962  1  0.685400  0.100500  0.419370  1.0
  N  N7963  1  0.189000  0.051200  0.074920  1.0
  N  N7964  1  0.311000  0.948800  0.574920  1.0
  N  N7965  1  0.811000  0.948800  0.925080  1.0
  N  N7966  1  0.689000  0.051200  0.425080  1.0
  N  N7967  1  0.137000  0.055700  0.070290  1.0
  N  N7968  1  0.363000  0.944300  0.570290  1.0
  N  N7969  1  0.863000  0.944300  0.929710  1.0
  N  N7970  1  0.637000  0.055700  0.429710  1.0
  N  N7971  1  0.119800  0.944400  0.051180  1.0
  N  N7972  1  0.380200  0.055600  0.551180  1.0
  N  N7973  1  0.880200  0.055600  0.948820  1.0
  N  N7974  1  0.619800  0.944400  0.448820  1.0
  N  N7975  1  0.302000  0.119000  0.093660  1.0
  N  N7976  1  0.198000  0.881000  0.593660  1.0
  N  N7977  1  0.698000  0.881000  0.906340  1.0
  N  N7978  1  0.802000  0.119000  0.406340  1.0
  N  N7979  1  0.092900  0.179700  0.048410  1.0
  N  N7980  1  0.407100  0.820300  0.548410  1.0
  N  N7981  1  0.907100  0.820300  0.951590  1.0
  N  N7982  1  0.592900  0.179700  0.451590  1.0
  N  N7983  1  0.128200  0.170500  0.986200  1.0
  N  N7984  1  0.371800  0.829500  0.486200  1.0
  N  N7985  1  0.871800  0.829500  0.013800  1.0
  N  N7986  1  0.628200  0.170500  0.513800  1.0
  N  N7987  1  0.175900  0.200000  0.968110  1.0
  N  N7988  1  0.324100  0.800000  0.468110  1.0
  N  N7989  1  0.824100  0.800000  0.031890  1.0
  N  N7990  1  0.675900  0.200000  0.531890  1.0
  N  N7991  1  0.173600  0.216400  0.996820  1.0
  N  N7992  1  0.326400  0.783600  0.496820  1.0
  N  N7993  1  0.826400  0.783600  0.003180  1.0
  N  N7994  1  0.673600  0.216400  0.503180  1.0
  N  N7995  1  0.282700  0.293400  0.974470  1.0
  N  N7996  1  0.217300  0.706600  0.474470  1.0
  N  N7997  1  0.717300  0.706600  0.025530  1.0
  N  N7998  1  0.782700  0.293400  0.525530  1.0
  N  N7999  1  0.099800  0.115800  0.927600  1.0
  N  N8000  1  0.400200  0.884200  0.427600  1.0
  N  N8001  1  0.900200  0.884200  0.072400  1.0
  N  N8002  1  0.599800  0.115800  0.572400  1.0
  N  N8003  1  0.350100  0.147400  0.070850  1.0
  N  N8004  1  0.149900  0.852600  0.570850  1.0
  N  N8005  1  0.649900  0.852600  0.929150  1.0
  N  N8006  1  0.850100  0.147400  0.429150  1.0
  N  N8007  1  0.345200  0.195100  0.012140  1.0
  N  N8008  1  0.154800  0.804900  0.512140  1.0
  N  N8009  1  0.654800  0.804900  0.987860  1.0
  N  N8010  1  0.845200  0.195100  0.487860  1.0
  N  N8011  1  0.348100  0.180300  0.981680  1.0
  N  N8012  1  0.151900  0.819700  0.481680  1.0
  N  N8013  1  0.651900  0.819700  0.018320  1.0
  N  N8014  1  0.848100  0.180300  0.518320  1.0
  N  N8015  1  0.348700  0.145600  0.004440  1.0
  N  N8016  1  0.151300  0.854400  0.504440  1.0
  N  N8017  1  0.651300  0.854400  0.995560  1.0
  N  N8018  1  0.848700  0.145600  0.495560  1.0
  N  N8019  1  0.337200  0.285700  0.978740  1.0
  N  N8020  1  0.162800  0.714300  0.478740  1.0
  N  N8021  1  0.662800  0.714300  0.021260  1.0
  N  N8022  1  0.837200  0.285700  0.521260  1.0
  N  N8023  1  0.349400  0.086000  0.949540  1.0
  N  N8024  1  0.150600  0.914000  0.449540  1.0
  N  N8025  1  0.650600  0.914000  0.050460  1.0
  N  N8026  1  0.849400  0.086000  0.550460  1.0
  N  N8027  1  0.297100  0.036500  0.937690  1.0
  N  N8028  1  0.202900  0.963500  0.437690  1.0
  N  N8029  1  0.702900  0.963500  0.062310  1.0
  N  N8030  1  0.797100  0.036500  0.562310  1.0
  N  N8031  1  0.178600  0.020900  0.943300  1.0
  N  N8032  1  0.321400  0.979100  0.443300  1.0
  N  N8033  1  0.821400  0.979100  0.056700  1.0
  N  N8034  1  0.678600  0.020900  0.556700  1.0
  N  N8035  1  0.136400  0.996800  0.964400  1.0
  N  N8036  1  0.363600  0.003200  0.464400  1.0
  N  N8037  1  0.863600  0.003200  0.035600  1.0
  N  N8038  1  0.636400  0.996800  0.535600  1.0
  N  N8039  1  0.187300  0.993500  0.967780  1.0
  N  N8040  1  0.312700  0.006500  0.467780  1.0
  N  N8041  1  0.812700  0.006500  0.032220  1.0
  N  N8042  1  0.687300  0.993500  0.532220  1.0
  N  N8043  1  0.122500  0.928600  0.018010  1.0
  N  N8044  1  0.377500  0.071400  0.518010  1.0
  N  N8045  1  0.877500  0.071400  0.981990  1.0
  N  N8046  1  0.622500  0.928600  0.481990  1.0
  N  N8047  1  0.093100  0.055900  0.920000  1.0
  N  N8048  1  0.406900  0.944100  0.420000  1.0
  N  N8049  1  0.906900  0.944100  0.080000  1.0
  N  N8050  1  0.593100  0.055900  0.580000  1.0
  N  N8051  1  0.831200  0.497200  0.053110  1.0
  N  N8052  1  0.668800  0.502800  0.553110  1.0
  N  N8053  1  0.168800  0.502800  0.946890  1.0
  N  N8054  1  0.331200  0.497200  0.446890  1.0
  N  N8055  1  0.806500  0.383600  0.066290  1.0
  N  N8056  1  0.693500  0.616400  0.566290  1.0
  N  N8057  1  0.193500  0.616400  0.933710  1.0
  N  N8058  1  0.306500  0.383600  0.433710  1.0
  N  N8059  1  0.761300  0.339500  0.077830  1.0
  N  N8060  1  0.738700  0.660500  0.577830  1.0
  N  N8061  1  0.238700  0.660500  0.922170  1.0
  N  N8062  1  0.261300  0.339500  0.422170  1.0
  N  N8063  1  0.756300  0.388100  0.072120  1.0
  N  N8064  1  0.743700  0.611900  0.572120  1.0
  N  N8065  1  0.243700  0.611900  0.927880  1.0
  N  N8066  1  0.256300  0.388100  0.427880  1.0
  N  N8067  1  0.846800  0.295100  0.069500  1.0
  N  N8068  1  0.653200  0.704900  0.569500  1.0
  N  N8069  1  0.153200  0.704900  0.930500  1.0
  N  N8070  1  0.346800  0.295100  0.430500  1.0
  N  N8071  1  0.646000  0.313500  0.095290  1.0
  N  N8072  1  0.854000  0.686500  0.595290  1.0
  N  N8073  1  0.354000  0.686500  0.904710  1.0
  N  N8074  1  0.146000  0.313500  0.404710  1.0
  N  N8075  1  0.834300  0.530200  0.023230  1.0
  N  N8076  1  0.665700  0.469800  0.523230  1.0
  N  N8077  1  0.165700  0.469800  0.976770  1.0
  N  N8078  1  0.334300  0.530200  0.476770  1.0
  N  N8079  1  0.840100  0.411700  0.922900  1.0
  N  N8080  1  0.659900  0.588300  0.422900  1.0
  N  N8081  1  0.159900  0.588300  0.077100  1.0
  N  N8082  1  0.340100  0.411700  0.577100  1.0
  N  N8083  1  0.636100  0.433100  0.952930  1.0
  N  N8084  1  0.863900  0.566900  0.452930  1.0
  N  N8085  1  0.363900  0.566900  0.047070  1.0
  N  N8086  1  0.136100  0.433100  0.547070  1.0
  N  N8087  1  0.587600  0.378900  0.963370  1.0
  N  N8088  1  0.912400  0.621100  0.463370  1.0
  N  N8089  1  0.412400  0.621100  0.036630  1.0
  N  N8090  1  0.087600  0.378900  0.536630  1.0
  N  N8091  1  0.588900  0.302500  0.010130  1.0
  N  N8092  1  0.911100  0.697500  0.510130  1.0
  N  N8093  1  0.411100  0.697500  0.989870  1.0
  N  N8094  1  0.088900  0.302500  0.489870  1.0
  N  N8095  1  0.591300  0.251300  0.011090  1.0
  N  N8096  1  0.908700  0.748700  0.511090  1.0
  N  N8097  1  0.408700  0.748700  0.988910  1.0
  N  N8098  1  0.091300  0.251300  0.488910  1.0
  N  N8099  1  0.590900  0.275500  0.983500  1.0
  N  N8100  1  0.909100  0.724500  0.483500  1.0
  N  N8101  1  0.409100  0.724500  0.016500  1.0
  N  N8102  1  0.090900  0.275500  0.516500  1.0
  N  N8103  1  0.592500  0.283900  0.075040  1.0
  N  N8104  1  0.907500  0.716100  0.575040  1.0
  N  N8105  1  0.407500  0.716100  0.924960  1.0
  N  N8106  1  0.092500  0.283900  0.424960  1.0
  N  N8107  1  0.601000  0.173700  0.967510  1.0
  N  N8108  1  0.899000  0.826300  0.467510  1.0
  N  N8109  1  0.399000  0.826300  0.032490  1.0
  N  N8110  1  0.101000  0.173700  0.532490  1.0
  N  N8111  1  0.659000  0.170200  0.962900  1.0
  N  N8112  1  0.841000  0.829800  0.462900  1.0
  N  N8113  1  0.341000  0.829800  0.037100  1.0
  N  N8114  1  0.159000  0.170200  0.537100  1.0
  N  N8115  1  0.769800  0.241300  0.990000  1.0
  N  N8116  1  0.730200  0.758700  0.490000  1.0
  N  N8117  1  0.230200  0.758700  0.010000  1.0
  N  N8118  1  0.269800  0.241300  0.510000  1.0
  N  N8119  1  0.816100  0.286300  0.981000  1.0
  N  N8120  1  0.683900  0.713700  0.481000  1.0
  N  N8121  1  0.183900  0.713700  0.019000  1.0
  N  N8122  1  0.316100  0.286300  0.519000  1.0
  N  N8123  1  0.769500  0.264000  0.961500  1.0
  N  N8124  1  0.730500  0.736000  0.461500  1.0
  N  N8125  1  0.230500  0.736000  0.038500  1.0
  N  N8126  1  0.269500  0.264000  0.538500  1.0
  N  N8127  1  0.846800  0.356900  0.927080  1.0
  N  N8128  1  0.653200  0.643100  0.427080  1.0
  N  N8129  1  0.153200  0.643100  0.072920  1.0
  N  N8130  1  0.346800  0.356900  0.572920  1.0
  N  N8131  1  0.016550  0.638300  0.836190  1.0
  N  N8132  1  0.483450  0.361700  0.336190  1.0
  N  N8133  1  0.983450  0.361700  0.163810  1.0
  N  N8134  1  0.516550  0.638300  0.663810  1.0
  N  N8135  1  0.970600  0.635200  0.813180  1.0
  N  N8136  1  0.529400  0.364800  0.313180  1.0
  N  N8137  1  0.029400  0.364800  0.186820  1.0
  N  N8138  1  0.470600  0.635200  0.686820  1.0
  N  N8139  1  0.342000  0.688700  0.784540  1.0
  N  N8140  1  0.158000  0.311300  0.284540  1.0
  N  N8141  1  0.658000  0.311300  0.215460  1.0
  N  N8142  1  0.842000  0.688700  0.715460  1.0
  N  N8143  1  0.361600  0.683200  0.752100  1.0
  N  N8144  1  0.138400  0.316800  0.252100  1.0
  N  N8145  1  0.638400  0.316800  0.247900  1.0
  N  N8146  1  0.861600  0.683200  0.747900  1.0
  N  N8147  1  0.122200  0.400100  0.844350  1.0
  N  N8148  1  0.377800  0.599900  0.344350  1.0
  N  N8149  1  0.877800  0.599900  0.155650  1.0
  N  N8150  1  0.622200  0.400100  0.655650  1.0
  N  N8151  1  0.094700  0.354700  0.821260  1.0
  N  N8152  1  0.405300  0.645300  0.321260  1.0
  N  N8153  1  0.905300  0.645300  0.178740  1.0
  N  N8154  1  0.594700  0.354700  0.678740  1.0
  N  N8155  1  0.855600  0.406300  0.690610  1.0
  N  N8156  1  0.644400  0.593700  0.190610  1.0
  N  N8157  1  0.144400  0.593700  0.309390  1.0
  N  N8158  1  0.355600  0.406300  0.809390  1.0
  N  N8159  1  0.868870  0.355780  0.695920  1.0
  N  N8160  1  0.631130  0.644220  0.195920  1.0
  N  N8161  1  0.131130  0.644220  0.304080  1.0
  N  N8162  1  0.368870  0.355780  0.804080  1.0
  N  N8163  1  0.087100  0.668000  0.623220  1.0
  N  N8164  1  0.412900  0.332000  0.123220  1.0
  N  N8165  1  0.912900  0.332000  0.376780  1.0
  N  N8166  1  0.587100  0.668000  0.876780  1.0
  N  N8167  1  0.146400  0.671600  0.615860  1.0
  N  N8168  1  0.353600  0.328400  0.115860  1.0
  N  N8169  1  0.853600  0.328400  0.384140  1.0
  N  N8170  1  0.646400  0.671600  0.884140  1.0
  N  N8171  1  0.216500  0.419700  0.632530  1.0
  N  N8172  1  0.283500  0.580300  0.132530  1.0
  N  N8173  1  0.783500  0.580300  0.367470  1.0
  N  N8174  1  0.716500  0.419700  0.867470  1.0
  N  N8175  1  0.175600  0.366900  0.648500  1.0
  N  N8176  1  0.324400  0.633100  0.148500  1.0
  N  N8177  1  0.824400  0.633100  0.351500  1.0
  N  N8178  1  0.675600  0.366900  0.851500  1.0
  N  N8179  1  0.811900  0.127900  0.288020  1.0
  N  N8180  1  0.688100  0.872100  0.788020  1.0
  N  N8181  1  0.188100  0.872100  0.711980  1.0
  N  N8182  1  0.311900  0.127900  0.211980  1.0
  N  N8183  1  0.832800  0.134400  0.254540  1.0
  N  N8184  1  0.667200  0.865600  0.754540  1.0
  N  N8185  1  0.167200  0.865600  0.745460  1.0
  N  N8186  1  0.332800  0.134400  0.245460  1.0
  N  N8187  1  0.658000  0.801500  0.161410  1.0
  N  N8188  1  0.842000  0.198500  0.661410  1.0
  N  N8189  1  0.342000  0.198500  0.838590  1.0
  N  N8190  1  0.158000  0.801500  0.338590  1.0
  N  N8191  1  0.709000  0.853600  0.153510  1.0
  N  N8192  1  0.791000  0.146400  0.653510  1.0
  N  N8193  1  0.291000  0.146400  0.846490  1.0
  N  N8194  1  0.209000  0.853600  0.346490  1.0
  N  N8195  1  0.498800  0.099400  0.317970  1.0
  N  N8196  1  0.001200  0.900600  0.817970  1.0
  N  N8197  1  0.501200  0.900600  0.682030  1.0
  N  N8198  1  0.998800  0.099400  0.182030  1.0
  N  N8199  1  0.470700  0.108000  0.288850  1.0
  N  N8200  1  0.029300  0.892000  0.788850  1.0
  N  N8201  1  0.529300  0.892000  0.711150  1.0
  N  N8202  1  0.970700  0.108000  0.211150  1.0
  N  N8203  1  0.637900  0.110200  0.110070  1.0
  N  N8204  1  0.862100  0.889800  0.610070  1.0
  N  N8205  1  0.362100  0.889800  0.889930  1.0
  N  N8206  1  0.137900  0.110200  0.389930  1.0
  N  N8207  1  0.574900  0.100900  0.110900  1.0
  N  N8208  1  0.925100  0.899100  0.610900  1.0
  N  N8209  1  0.425100  0.899100  0.889100  1.0
  N  N8210  1  0.074900  0.100900  0.389100  1.0
  N  N8211  1  0.576000  0.837100  0.348660  1.0
  N  N8212  1  0.924000  0.162900  0.848660  1.0
  N  N8213  1  0.424000  0.162900  0.651340  1.0
  N  N8214  1  0.076000  0.837100  0.151340  1.0
  N  N8215  1  0.542200  0.788600  0.328550  1.0
  N  N8216  1  0.957800  0.211400  0.828550  1.0
  N  N8217  1  0.457800  0.211400  0.671450  1.0
  N  N8218  1  0.042200  0.788600  0.171450  1.0
  N  N8219  1  0.324500  0.840600  0.181110  1.0
  N  N8220  1  0.175500  0.159400  0.681110  1.0
  N  N8221  1  0.675500  0.159400  0.818890  1.0
  N  N8222  1  0.824500  0.840600  0.318890  1.0
  N  N8223  1  0.338000  0.790700  0.187400  1.0
  N  N8224  1  0.162000  0.209300  0.687400  1.0
  N  N8225  1  0.662000  0.209300  0.812600  1.0
  N  N8226  1  0.838000  0.790700  0.312600  1.0
  N  N8227  1  0.319500  0.363490  0.968450  1.0
  N  N8228  1  0.180500  0.636510  0.468450  1.0
  N  N8229  1  0.680500  0.636510  0.031550  1.0
  N  N8230  1  0.819500  0.363490  0.531550  1.0
  N  N8231  1  0.375090  0.355870  0.973080  1.0
  N  N8232  1  0.124910  0.644130  0.473080  1.0
  N  N8233  1  0.624910  0.644130  0.026920  1.0
  N  N8234  1  0.875090  0.355870  0.526920  1.0
  N  N8235  1  0.391700  0.072000  0.921880  1.0
  N  N8236  1  0.108300  0.928000  0.421880  1.0
  N  N8237  1  0.608300  0.928000  0.078120  1.0
  N  N8238  1  0.891700  0.072000  0.578120  1.0
  N  N8239  1  0.337000  0.028400  0.908000  1.0
  N  N8240  1  0.163000  0.971600  0.408000  1.0
  N  N8241  1  0.663000  0.971600  0.092000  1.0
  N  N8242  1  0.837000  0.028400  0.592000  1.0
  N  N8243  1  0.399000  0.149600  0.098200  1.0
  N  N8244  1  0.101000  0.850400  0.598200  1.0
  N  N8245  1  0.601000  0.850400  0.901800  1.0
  N  N8246  1  0.899000  0.149600  0.401800  1.0
  N  N8247  1  0.352300  0.121700  0.121560  1.0
  N  N8248  1  0.147700  0.878300  0.621560  1.0
  N  N8249  1  0.647700  0.878300  0.878440  1.0
  N  N8250  1  0.852300  0.121700  0.378440  1.0
  N  N8251  1  0.056300  0.206700  0.072500  1.0
  N  N8252  1  0.443700  0.793300  0.572500  1.0
  N  N8253  1  0.943700  0.793300  0.927500  1.0
  N  N8254  1  0.556300  0.206700  0.427500  1.0
  N  N8255  1  0.067400  0.177600  0.100410  1.0
  N  N8256  1  0.432600  0.822400  0.600410  1.0
  N  N8257  1  0.932600  0.822400  0.899590  1.0
  N  N8258  1  0.567400  0.177600  0.399590  1.0
  N  N8259  1  0.066200  0.115300  0.890450  1.0
  N  N8260  1  0.433800  0.884700  0.390450  1.0
  N  N8261  1  0.933800  0.884700  0.109550  1.0
  N  N8262  1  0.566200  0.115300  0.609550  1.0
  N  N8263  1  0.539600  0.395000  0.942350  1.0
  N  N8264  1  0.960400  0.605000  0.442350  1.0
  N  N8265  1  0.460400  0.605000  0.057650  1.0
  N  N8266  1  0.039600  0.395000  0.557650  1.0
  N  N8267  1  0.585000  0.448300  0.931090  1.0
  N  N8268  1  0.915000  0.551700  0.431090  1.0
  N  N8269  1  0.415000  0.551700  0.068910  1.0
  N  N8270  1  0.085000  0.448300  0.568910  1.0
  N  N8271  1  0.602700  0.303700  0.127170  1.0
  N  N8272  1  0.897300  0.696300  0.627170  1.0
  N  N8273  1  0.397300  0.696300  0.872830  1.0
  N  N8274  1  0.102700  0.303700  0.372830  1.0
  N  N8275  1  0.549700  0.272800  0.107910  1.0
  N  N8276  1  0.950300  0.727200  0.607910  1.0
  N  N8277  1  0.450300  0.727200  0.892090  1.0
  N  N8278  1  0.049700  0.272800  0.392090  1.0
  N  N8279  1  0.880200  0.261400  0.090490  1.0
  N  N8280  1  0.619800  0.738600  0.590490  1.0
  N  N8281  1  0.119800  0.738600  0.909510  1.0
  N  N8282  1  0.380200  0.261400  0.409510  1.0
  N  N8283  1  0.569700  0.106400  0.955700  1.0
  N  N8284  1  0.930300  0.893600  0.455700  1.0
  N  N8285  1  0.430300  0.893600  0.044300  1.0
  N  N8286  1  0.069700  0.106400  0.544300  1.0
  N  N8287  1  0.629200  0.103500  0.952100  1.0
  N  N8288  1  0.870800  0.896500  0.452100  1.0
  N  N8289  1  0.370800  0.896500  0.047900  1.0
  N  N8290  1  0.129200  0.103500  0.547900  1.0
  N  N8291  1  0.883900  0.554200  0.068660  1.0
  N  N8292  1  0.616100  0.445800  0.568660  1.0
  N  N8293  1  0.116100  0.445800  0.931340  1.0
  N  N8294  1  0.383900  0.554200  0.431340  1.0
  N  N8295  1  0.881000  0.368400  0.891910  1.0
  N  N8296  1  0.619000  0.631600  0.391910  1.0
  N  N8297  1  0.119000  0.631600  0.108090  1.0
  N  N8298  1  0.381000  0.368400  0.608090  1.0
  N  N8299  1  0.800500  0.464100  0.968800  1.0
  N  N8300  1  0.699500  0.535900  0.468800  1.0
  N  N8301  1  0.199500  0.535900  0.031200  1.0
  N  N8302  1  0.300500  0.464100  0.531200  1.0
  N  N8303  1  0.751300  0.471200  0.976000  1.0
  N  N8304  1  0.748700  0.528800  0.476000  1.0
  N  N8305  1  0.248700  0.528800  0.024000  1.0
  N  N8306  1  0.251300  0.471200  0.524000  1.0
  N  N8307  1  0.750400  0.439000  0.951550  1.0
  N  N8308  1  0.749600  0.561000  0.451550  1.0
  N  N8309  1  0.249600  0.561000  0.048450  1.0
  N  N8310  1  0.250400  0.439000  0.548450  1.0
  N  N8311  1  0.875900  0.423300  0.888670  1.0
  N  N8312  1  0.624100  0.576700  0.388670  1.0
  N  N8313  1  0.124100  0.576700  0.111330  1.0
  N  N8314  1  0.375900  0.423300  0.611330  1.0
  N  N8315  1  0.053500  0.054200  0.887650  1.0
  N  N8316  1  0.446500  0.945800  0.387650  1.0
  N  N8317  1  0.946500  0.945800  0.112350  1.0
  N  N8318  1  0.553500  0.054200  0.612350  1.0
  N  N8319  1  0.873800  0.222100  0.063660  1.0
  N  N8320  1  0.626200  0.777900  0.563660  1.0
  N  N8321  1  0.126200  0.777900  0.936340  1.0
  N  N8322  1  0.373800  0.222100  0.436340  1.0
  N  N8323  1  0.085800  0.859300  0.027770  1.0
  N  N8324  1  0.414200  0.140700  0.527770  1.0
  N  N8325  1  0.914200  0.140700  0.972230  1.0
  N  N8326  1  0.585800  0.859300  0.472230  1.0
  N  N8327  1  0.890400  0.586300  0.039060  1.0
  N  N8328  1  0.609600  0.413700  0.539060  1.0
  N  N8329  1  0.109600  0.413700  0.960940  1.0
  N  N8330  1  0.390400  0.586300  0.460940  1.0
  N  N8331  1  0.847500  0.260100  0.043140  1.0
  N  N8332  1  0.652500  0.739900  0.543140  1.0
  N  N8333  1  0.152500  0.739900  0.956860  1.0
  N  N8334  1  0.347500  0.260100  0.456860  1.0
  O  O8335  1  0.785900  0.007700  0.267900  1.0
  O  O8336  1  0.714100  0.992300  0.767900  1.0
  O  O8337  1  0.214100  0.992300  0.732100  1.0
  O  O8338  1  0.285900  0.007700  0.232100  1.0
  O  O8339  1  0.295700  0.557700  0.772400  1.0
  O  O8340  1  0.204300  0.442300  0.272400  1.0
  O  O8341  1  0.704300  0.442300  0.227600  1.0
  O  O8342  1  0.795700  0.557700  0.727600  1.0
  O  O8343  1  0.309300  0.264100  0.924200  1.0
  O  O8344  1  0.190700  0.735900  0.424200  1.0
  O  O8345  1  0.690700  0.735900  0.075800  1.0
  O  O8346  1  0.809300  0.264100  0.575800  1.0
  O  O8347  1  0.080100  0.592200  0.615000  1.0
  O  O8348  1  0.419900  0.407800  0.115000  1.0
  O  O8349  1  0.919900  0.407800  0.385000  1.0
  O  O8350  1  0.580100  0.592200  0.885000  1.0
  O  O8351  1  0.351300  0.067300  0.087500  1.0
  O  O8352  1  0.148700  0.932700  0.587500  1.0
  O  O8353  1  0.648700  0.932700  0.912500  1.0
  O  O8354  1  0.851300  0.067300  0.412500  1.0
  O  O8355  1  0.420100  0.150400  0.231500  1.0
  O  O8356  1  0.079900  0.849600  0.731500  1.0
  O  O8357  1  0.579900  0.849600  0.768500  1.0
  O  O8358  1  0.920100  0.150400  0.268500  1.0
  O  O8359  1  0.804300  0.210400  0.083200  1.0
  O  O8360  1  0.695700  0.789600  0.583200  1.0
  O  O8361  1  0.195700  0.789600  0.916800  1.0
  O  O8362  1  0.304300  0.210400  0.416800  1.0
  O  O8363  1  0.603700  0.101600  0.994800  1.0
  O  O8364  1  0.896300  0.898400  0.494800  1.0
  O  O8365  1  0.396300  0.898400  0.005200  1.0
  O  O8366  1  0.103700  0.101600  0.505200  1.0
  O  O8367  1  0.766400  0.162100  0.256100  1.0
  O  O8368  1  0.733600  0.837900  0.756100  1.0
  O  O8369  1  0.233600  0.837900  0.743900  1.0
  O  O8370  1  0.266400  0.162100  0.243900  1.0
  O  O8371  1  0.608000  0.149800  0.266700  1.0
  O  O8372  1  0.892000  0.850200  0.766700  1.0
  O  O8373  1  0.392000  0.850200  0.733300  1.0
  O  O8374  1  0.108000  0.149800  0.233300  1.0
  O  O8375  1  0.619600  0.286100  0.935100  1.0
  O  O8376  1  0.880400  0.713900  0.435100  1.0
  O  O8377  1  0.380400  0.713900  0.064900  1.0
  O  O8378  1  0.119600  0.286100  0.564900  1.0
  O  O8379  1  0.133400  0.586900  0.599600  1.0
  O  O8380  1  0.366600  0.413100  0.099600  1.0
  O  O8381  1  0.866600  0.413100  0.400400  1.0
  O  O8382  1  0.633400  0.586900  0.900400  1.0
  O  O8383  1  0.337400  0.829800  0.227000  1.0
  O  O8384  1  0.162600  0.170200  0.727000  1.0
  O  O8385  1  0.662600  0.170200  0.773000  1.0
  O  O8386  1  0.837400  0.829800  0.273000  1.0
  O  O8387  1  0.328900  0.000600  0.981900  1.0
  O  O8388  1  0.171100  0.999400  0.481900  1.0
  O  O8389  1  0.671100  0.999400  0.018100  1.0
  O  O8390  1  0.828900  0.000600  0.518100  1.0
  O  O8391  1  0.613000  0.176400  0.034100  1.0
  O  O8392  1  0.887000  0.823600  0.534100  1.0
  O  O8393  1  0.387000  0.823600  0.965900  1.0
  O  O8394  1  0.113000  0.176400  0.465900  1.0
  O  O8395  1  0.578800  0.120600  0.018100  1.0
  O  O8396  1  0.921200  0.879400  0.518100  1.0
  O  O8397  1  0.421200  0.879400  0.981900  1.0
  O  O8398  1  0.078800  0.120600  0.481900  1.0
  O  O8399  1  0.144500  0.239000  0.089100  1.0
  O  O8400  1  0.355500  0.761000  0.589100  1.0
  O  O8401  1  0.855500  0.761000  0.910900  1.0
  O  O8402  1  0.644500  0.239000  0.410900  1.0
  O  O8403  1  0.586600  0.319400  0.915100  1.0
  O  O8404  1  0.913400  0.680600  0.415100  1.0
  O  O8405  1  0.413400  0.680600  0.084900  1.0
  O  O8406  1  0.086600  0.319400  0.584900  1.0
  O  O8407  1  0.163100  0.545200  0.616200  1.0
  O  O8408  1  0.336900  0.454800  0.116200  1.0
  O  O8409  1  0.836900  0.454800  0.383800  1.0
  O  O8410  1  0.663100  0.545200  0.883800  1.0
  O  O8411  1  0.130800  0.273300  0.069800  1.0
  O  O8412  1  0.369200  0.726700  0.569800  1.0
  O  O8413  1  0.869200  0.726700  0.930200  1.0
  O  O8414  1  0.630800  0.273300  0.430200  1.0
  O  O8415  1  0.611100  0.445000  0.007200  1.0
  O  O8416  1  0.888900  0.555000  0.507200  1.0
  O  O8417  1  0.388900  0.555000  0.992800  1.0
  O  O8418  1  0.111100  0.445000  0.492800  1.0
  O  O8419  1  0.532900  0.864300  0.157800  1.0
  O  O8420  1  0.967100  0.135700  0.657800  1.0
  O  O8421  1  0.467100  0.135700  0.842200  1.0
  O  O8422  1  0.032900  0.864300  0.342200  1.0
  O  O8423  1  0.680600  0.122900  0.213300  1.0
  O  O8424  1  0.819400  0.877100  0.713300  1.0
  O  O8425  1  0.319400  0.877100  0.786700  1.0
  O  O8426  1  0.180600  0.122900  0.286700  1.0
  O  O8427  1  0.237400  0.522100  0.790000  1.0
  O  O8428  1  0.262600  0.477900  0.290000  1.0
  O  O8429  1  0.762600  0.477900  0.210000  1.0
  O  O8430  1  0.737400  0.522100  0.710000  1.0
  O  O8431  1  0.412300  0.130600  0.199900  1.0
  O  O8432  1  0.087700  0.869400  0.699900  1.0
  O  O8433  1  0.587700  0.869400  0.800100  1.0
  O  O8434  1  0.912300  0.130600  0.300100  1.0
  O  O8435  1  0.248600  0.431800  0.702900  1.0
  O  O8436  1  0.251400  0.568200  0.202900  1.0
  O  O8437  1  0.751400  0.568200  0.297100  1.0
  O  O8438  1  0.748600  0.431800  0.797100  1.0
  O  O8439  1  0.029100  0.512000  0.640600  0.5
  O  O8440  1  0.470900  0.488000  0.140600  0.5
  O  O8441  1  0.970900  0.488000  0.359400  0.5
  O  O8442  1  0.529100  0.512000  0.859400  0.5
  O  O8443  1  0.358100  0.051600  0.035100  0.5
  O  O8444  1  0.141900  0.948400  0.535100  0.5
  O  O8445  1  0.641900  0.948400  0.964900  0.5
  O  O8446  1  0.858100  0.051600  0.464900  0.5
  O  O8447  1  0.982000  0.429000  0.645500  0.5
  O  O8448  1  0.518000  0.571000  0.145500  0.5
  O  O8449  1  0.018000  0.571000  0.354500  0.5
  O  O8450  1  0.482000  0.429000  0.854500  0.5
  O  O8451  1  0.145000  0.130700  0.882100  0.5
  O  O8452  1  0.355000  0.869300  0.382100  0.5
  O  O8453  1  0.855000  0.869300  0.117900  0.5
  O  O8454  1  0.645000  0.130700  0.617900  0.5
  O  O8455  1  0.699600  0.868500  0.236500  0.5
  O  O8456  1  0.800400  0.131500  0.736500  0.5
  O  O8457  1  0.300400  0.131500  0.763500  0.5
  O  O8458  1  0.199600  0.868500  0.263500  0.5
  F  F8459  1  0.620260  0.219750  0.095090  1.0
  F  F8460  1  0.879740  0.780250  0.595090  1.0
  F  F8461  1  0.379740  0.780250  0.904910  1.0
  F  F8462  1  0.120260  0.219750  0.404910  1.0
  F  F8463  1  0.653800  0.232100  0.070990  1.0
  F  F8464  1  0.846200  0.767900  0.570990  1.0
  F  F8465  1  0.346200  0.767900  0.929010  1.0
  F  F8466  1  0.153800  0.232100  0.429010  1.0
  F  F8467  1  0.438600  0.051900  0.201000  1.0
  F  F8468  1  0.061400  0.948100  0.701000  1.0
  F  F8469  1  0.561400  0.948100  0.799000  1.0
  F  F8470  1  0.938600  0.051900  0.299000  1.0
  F  F8471  1  0.627800  0.174400  0.098160  1.0
  F  F8472  1  0.872200  0.825600  0.598160  1.0
  F  F8473  1  0.372200  0.825600  0.901840  1.0
  F  F8474  1  0.127800  0.174400  0.401840  1.0
  F  F8475  1  0.329600  0.212600  0.096110  1.0
  F  F8476  1  0.170400  0.787400  0.596110  1.0
  F  F8477  1  0.670400  0.787400  0.903890  1.0
  F  F8478  1  0.829600  0.212600  0.403890  1.0
  F  F8479  1  0.671600  0.220700  0.096940  1.0
  F  F8480  1  0.828400  0.779300  0.596940  1.0
  F  F8481  1  0.328400  0.779300  0.903060  1.0
  F  F8482  1  0.171600  0.220700  0.403060  1.0
  F  F8483  1  0.401100  0.000500  0.199450  1.0
  F  F8484  1  0.098900  0.999500  0.699450  1.0
  F  F8485  1  0.598900  0.999500  0.800550  1.0
  F  F8486  1  0.901100  0.000500  0.300550  1.0
  F  F8487  1  0.630400  0.155100  0.166750  1.0
  F  F8488  1  0.869600  0.844900  0.666750  1.0
  F  F8489  1  0.369600  0.844900  0.833250  1.0
  F  F8490  1  0.130400  0.155100  0.333250  1.0
  F  F8491  1  0.385900  0.040100  0.208820  1.0
  F  F8492  1  0.114100  0.959900  0.708820  1.0
  F  F8493  1  0.614100  0.959900  0.791180  1.0
  F  F8494  1  0.885900  0.040100  0.291180  1.0
  F  F8495  1  0.368700  0.016300  0.182790  1.0
  F  F8496  1  0.131300  0.983700  0.682790  1.0
  F  F8497  1  0.631300  0.983700  0.817210  1.0
  F  F8498  1  0.868700  0.016300  0.317210  1.0
  F  F8499  1  0.609300  0.185900  0.072300  1.0
  F  F8500  1  0.890700  0.814100  0.572300  1.0
  F  F8501  1  0.390700  0.814100  0.927700  1.0
  F  F8502  1  0.109300  0.185900  0.427700  1.0
  F  F8503  1  0.420800  0.028600  0.174010  1.0
  F  F8504  1  0.079200  0.971400  0.674010  1.0
  F  F8505  1  0.579200  0.971400  0.825990  1.0
  F  F8506  1  0.920800  0.028600  0.325990  1.0
  F  F8507  1  0.660500  0.187100  0.073810  1.0
  F  F8508  1  0.839500  0.812900  0.573810  1.0
  F  F8509  1  0.339500  0.812900  0.926190  1.0
  F  F8510  1  0.160500  0.187100  0.426190  1.0
  F  F8511  1  0.405400  0.065900  0.183160  1.0
  F  F8512  1  0.094600  0.934100  0.683160  1.0
  F  F8513  1  0.594600  0.934100  0.816840  1.0
  F  F8514  1  0.905400  0.065900  0.316840  1.0
  F  F8515  1  0.610700  0.038700  0.100670  1.0
  F  F8516  1  0.889300  0.961300  0.600670  1.0
  F  F8517  1  0.389300  0.961300  0.899330  1.0
  F  F8518  1  0.110700  0.038700  0.399330  1.0
  F  F8519  1  0.579900  0.030100  0.075960  1.0
  F  F8520  1  0.920100  0.969900  0.575960  1.0
  F  F8521  1  0.420100  0.969900  0.924040  1.0
  F  F8522  1  0.079900  0.030100  0.424040  1.0
  F  F8523  1  0.899900  0.582700  0.690750  1.0
  F  F8524  1  0.600100  0.417300  0.190750  1.0
  F  F8525  1  0.100100  0.417300  0.309250  1.0
  F  F8526  1  0.399900  0.582700  0.809250  1.0
  F  F8527  1  0.290300  0.202700  0.075100  1.0
  F  F8528  1  0.209700  0.797300  0.575100  1.0
  F  F8529  1  0.709700  0.797300  0.924900  1.0
  F  F8530  1  0.790300  0.202700  0.424900  1.0
  F  F8531  1  0.468000  0.106900  0.067380  1.0
  F  F8532  1  0.032000  0.893100  0.567380  1.0
  F  F8533  1  0.532000  0.893100  0.932620  1.0
  F  F8534  1  0.968000  0.106900  0.432620  1.0
  F  F8535  1  0.759400  0.033100  0.176440  1.0
  F  F8536  1  0.740600  0.966900  0.676440  1.0
  F  F8537  1  0.240600  0.966900  0.823560  1.0
  F  F8538  1  0.259400  0.033100  0.323560  1.0
  F  F8539  1  0.338400  0.241800  0.070960  1.0
  F  F8540  1  0.161600  0.758200  0.570960  1.0
  F  F8541  1  0.661600  0.758200  0.929040  1.0
  F  F8542  1  0.838400  0.241800  0.429040  1.0
  F  F8543  1  0.761300  0.054600  0.137470  1.0
  F  F8544  1  0.738700  0.945400  0.637470  1.0
  F  F8545  1  0.238700  0.945400  0.862530  1.0
  F  F8546  1  0.261300  0.054600  0.362530  1.0
  F  F8547  1  0.589000  0.353900  0.101230  1.0
  F  F8548  1  0.911000  0.646100  0.601230  1.0
  F  F8549  1  0.411000  0.646100  0.898770  1.0
  F  F8550  1  0.089000  0.353900  0.398770  1.0
  F  F8551  1  0.551000  0.362800  0.117420  1.0
  F  F8552  1  0.949000  0.637200  0.617420  1.0
  F  F8553  1  0.449000  0.637200  0.882580  1.0
  F  F8554  1  0.051000  0.362800  0.382580  1.0
  F  F8555  1  0.609400  0.138500  0.193000  1.0
  F  F8556  1  0.890600  0.861500  0.693000  1.0
  F  F8557  1  0.390600  0.861500  0.807000  1.0
  F  F8558  1  0.109400  0.138500  0.307000  1.0
  F  F8559  1  0.664000  0.168100  0.189490  1.0
  F  F8560  1  0.836000  0.831900  0.689490  1.0
  F  F8561  1  0.336000  0.831900  0.810510  1.0
  F  F8562  1  0.164000  0.168100  0.310510  1.0
  F  F8563  1  0.557500  0.029800  0.101940  1.0
  F  F8564  1  0.942500  0.970200  0.601940  1.0
  F  F8565  1  0.442500  0.970200  0.898060  1.0
  F  F8566  1  0.057500  0.029800  0.398060  1.0
  F  F8567  1  0.868000  0.277900  0.299970  1.0
  F  F8568  1  0.632000  0.722100  0.799970  1.0
  F  F8569  1  0.132000  0.722100  0.700030  1.0
  F  F8570  1  0.368000  0.277900  0.200030  1.0
  F  F8571  1  0.510700  0.250400  0.987960  1.0
  F  F8572  1  0.989300  0.749600  0.487960  1.0
  F  F8573  1  0.489300  0.749600  0.012040  1.0
  F  F8574  1  0.010700  0.250400  0.512040  1.0
  F  F8575  1  0.462100  0.246100  0.998730  1.0
  F  F8576  1  0.037900  0.753900  0.498730  1.0
  F  F8577  1  0.537900  0.753900  0.001270  1.0
  F  F8578  1  0.962100  0.246100  0.501270  1.0
  F  F8579  1  0.337500  0.098400  0.900550  1.0
  F  F8580  1  0.162500  0.901600  0.400550  1.0
  F  F8581  1  0.662500  0.901600  0.099450  1.0
  F  F8582  1  0.837500  0.098400  0.599450  1.0
  F  F8583  1  0.444500  0.072100  0.088030  1.0
  F  F8584  1  0.055500  0.927900  0.588030  1.0
  F  F8585  1  0.555500  0.927900  0.911970  1.0
  F  F8586  1  0.944500  0.072100  0.411970  1.0
  F  F8587  1  0.429900  0.036600  0.300300  1.0
  F  F8588  1  0.070100  0.963400  0.800300  1.0
  F  F8589  1  0.570100  0.963400  0.699700  1.0
  F  F8590  1  0.929900  0.036600  0.199700  1.0
  F  F8591  1  0.400950  0.162770  0.158560  1.0
  F  F8592  1  0.099050  0.837230  0.658560  1.0
  F  F8593  1  0.599050  0.837230  0.841440  1.0
  F  F8594  1  0.900950  0.162770  0.341440  1.0
  F  F8595  1  0.265200  0.460500  0.968240  1.0
  F  F8596  1  0.234800  0.539500  0.468240  1.0
  F  F8597  1  0.734800  0.539500  0.031760  1.0
  F  F8598  1  0.765200  0.460500  0.531760  1.0
  F  F8599  1  0.073200  0.705100  0.788310  1.0
  F  F8600  1  0.426800  0.294900  0.288310  1.0
  F  F8601  1  0.926800  0.294900  0.211690  1.0
  F  F8602  1  0.573200  0.705100  0.711690  1.0
  F  F8603  1  0.599600  0.179200  0.179500  1.0
  F  F8604  1  0.900400  0.820800  0.679500  1.0
  F  F8605  1  0.400400  0.820800  0.820500  1.0
  F  F8606  1  0.099600  0.179200  0.320500  1.0
  F  F8607  1  0.586500  0.402200  0.101000  1.0
  F  F8608  1  0.913500  0.597800  0.601000  1.0
  F  F8609  1  0.413500  0.597800  0.899000  1.0
  F  F8610  1  0.086500  0.402200  0.399000  1.0
  F  F8611  1  0.539000  0.330900  0.093590  1.0
  F  F8612  1  0.961000  0.669100  0.593590  1.0
  F  F8613  1  0.461000  0.669100  0.906410  1.0
  F  F8614  1  0.039000  0.330900  0.406410  1.0
  F  F8615  1  0.405200  0.024500  0.326100  1.0
  F  F8616  1  0.094800  0.975500  0.826100  1.0
  F  F8617  1  0.594800  0.975500  0.673900  1.0
  F  F8618  1  0.905200  0.024500  0.173900  1.0
  F  F8619  1  0.622000  0.430700  0.900750  1.0
  F  F8620  1  0.878000  0.569300  0.400750  1.0
  F  F8621  1  0.378000  0.569300  0.099250  1.0
  F  F8622  1  0.122000  0.430700  0.599250  1.0
  F  F8623  1  0.967400  0.621800  0.709610  1.0
  F  F8624  1  0.532600  0.378200  0.209610  1.0
  F  F8625  1  0.032600  0.378200  0.290390  1.0
  F  F8626  1  0.467400  0.621800  0.790390  1.0
  F  F8627  1  0.279100  0.448800  0.940800  1.0
  F  F8628  1  0.220900  0.551200  0.440800  1.0
  F  F8629  1  0.720900  0.551200  0.059200  1.0
  F  F8630  1  0.779100  0.448800  0.559200  1.0
  F  F8631  1  0.726600  0.047700  0.158060  1.0
  F  F8632  1  0.773400  0.952300  0.658060  1.0
  F  F8633  1  0.273400  0.952300  0.841940  1.0
  F  F8634  1  0.226600  0.047700  0.341940  1.0
  F  F8635  1  0.776500  0.079000  0.162830  1.0
  F  F8636  1  0.723500  0.921000  0.662830  1.0
  F  F8637  1  0.223500  0.921000  0.837170  1.0
  F  F8638  1  0.276500  0.079000  0.337170  1.0
  F  F8639  1  0.414500  0.092300  0.072970  1.0
  F  F8640  1  0.085500  0.907700  0.572970  1.0
  F  F8641  1  0.585500  0.907700  0.927030  1.0
  F  F8642  1  0.914500  0.092300  0.427030  1.0
  F  F8643  1  0.454200  0.176000  0.163550  1.0
  F  F8644  1  0.045800  0.824000  0.663550  1.0
  F  F8645  1  0.545800  0.824000  0.836450  1.0
  F  F8646  1  0.954200  0.176000  0.336450  1.0
  F  F8647  1  0.456800  0.028300  0.323600  1.0
  F  F8648  1  0.043200  0.971700  0.823600  1.0
  F  F8649  1  0.543200  0.971700  0.676400  1.0
  F  F8650  1  0.956800  0.028300  0.176400  1.0
  F  F8651  1  0.354800  0.394900  0.020200  1.0
  F  F8652  1  0.145200  0.605100  0.520200  1.0
  F  F8653  1  0.645200  0.605100  0.979800  1.0
  F  F8654  1  0.854800  0.394900  0.479800  1.0
  F  F8655  1  0.791400  0.040900  0.155340  1.0
  F  F8656  1  0.708600  0.959100  0.655340  1.0
  F  F8657  1  0.208600  0.959100  0.844660  1.0
  F  F8658  1  0.291400  0.040900  0.344660  1.0
  F  F8659  1  0.310800  0.492100  0.953700  1.0
  F  F8660  1  0.189200  0.507900  0.453700  1.0
  F  F8661  1  0.689200  0.507900  0.046300  1.0
  F  F8662  1  0.810800  0.492100  0.546300  1.0
  F  F8663  1  0.425000  0.854400  0.145590  1.0
  F  F8664  1  0.075000  0.145600  0.645590  1.0
  F  F8665  1  0.575000  0.145600  0.854410  1.0
  F  F8666  1  0.925000  0.854400  0.354410  1.0
  F  F8667  1  0.438900  0.994000  0.299600  1.0
  F  F8668  1  0.061100  0.006000  0.799600  1.0
  F  F8669  1  0.561100  0.006000  0.700400  1.0
  F  F8670  1  0.938900  0.994000  0.200400  1.0
  F  F8671  1  0.381700  0.136900  0.900910  1.0
  F  F8672  1  0.118300  0.863100  0.400910  1.0
  F  F8673  1  0.618300  0.863100  0.099090  1.0
  F  F8674  1  0.881700  0.136900  0.599090  1.0
  F  F8675  1  0.337000  0.144400  0.902900  1.0
  F  F8676  1  0.163000  0.855600  0.402900  1.0
  F  F8677  1  0.663000  0.855600  0.097100  1.0
  F  F8678  1  0.837000  0.144400  0.597100  1.0
  F  F8679  1  0.464200  0.226270  0.156900  1.0
  F  F8680  1  0.035800  0.773730  0.656900  1.0
  F  F8681  1  0.535800  0.773730  0.843100  1.0
  F  F8682  1  0.964200  0.226270  0.343100  1.0
  F  F8683  1  0.288400  0.631600  0.667390  1.0
  F  F8684  1  0.211600  0.368400  0.167390  1.0
  F  F8685  1  0.711600  0.368400  0.332610  1.0
  F  F8686  1  0.788400  0.631600  0.832610  1.0
  F  F8687  1  0.197500  0.374000  0.820740  1.0
  F  F8688  1  0.302500  0.626000  0.320740  1.0
  F  F8689  1  0.802500  0.626000  0.179260  1.0
  F  F8690  1  0.697500  0.374000  0.679260  1.0
  F  F8691  1  0.825700  0.263700  0.284400  1.0
  F  F8692  1  0.674300  0.736300  0.784400  1.0
  F  F8693  1  0.174300  0.736300  0.715600  1.0
  F  F8694  1  0.325700  0.263700  0.215600  1.0
  F  F8695  1  0.091700  0.931300  0.943190  1.0
  F  F8696  1  0.408300  0.068700  0.443190  1.0
  F  F8697  1  0.908300  0.068700  0.056810  1.0
  F  F8698  1  0.591700  0.931300  0.556810  1.0
  F  F8699  1  0.954000  0.591500  0.687800  1.0
  F  F8700  1  0.546000  0.408500  0.187800  1.0
  F  F8701  1  0.046000  0.408500  0.312200  1.0
  F  F8702  1  0.454000  0.591500  0.812200  1.0
  F  F8703  1  0.967300  0.077900  0.971500  1.0
  F  F8704  1  0.532700  0.922100  0.471500  1.0
  F  F8705  1  0.032700  0.922100  0.028500  1.0
  F  F8706  1  0.467300  0.077900  0.528500  1.0
  F  F8707  1  0.736200  0.009300  0.152800  1.0
  F  F8708  1  0.763800  0.990700  0.652800  1.0
  F  F8709  1  0.263800  0.990700  0.847200  1.0
  F  F8710  1  0.236200  0.009300  0.347200  1.0
  F  F8711  1  0.260100  0.605300  0.644150  1.0
  F  F8712  1  0.239900  0.394700  0.144150  1.0
  F  F8713  1  0.739900  0.394700  0.355850  1.0
  F  F8714  1  0.760100  0.605300  0.855850  1.0
  F  F8715  1  0.499200  0.711700  0.224010  1.0
  F  F8716  1  0.000800  0.288300  0.724010  1.0
  F  F8717  1  0.500800  0.288300  0.775990  1.0
  F  F8718  1  0.999200  0.711700  0.275990  1.0
  F  F8719  1  0.466000  0.207800  0.981370  1.0
  F  F8720  1  0.034000  0.792200  0.481370  1.0
  F  F8721  1  0.534000  0.792200  0.018630  1.0
  F  F8722  1  0.966000  0.207800  0.518630  1.0
  F  F8723  1  0.574200  0.369800  0.077500  1.0
  F  F8724  1  0.925800  0.630200  0.577500  1.0
  F  F8725  1  0.425800  0.630200  0.922500  1.0
  F  F8726  1  0.074200  0.369800  0.422500  1.0
  F  F8727  1  0.514600  0.910000  0.285870  1.0
  F  F8728  1  0.985400  0.090000  0.785870  1.0
  F  F8729  1  0.485400  0.090000  0.714130  1.0
  F  F8730  1  0.014600  0.910000  0.214130  1.0
  F  F8731  1  0.083900  0.912800  0.915590  1.0
  F  F8732  1  0.416100  0.087200  0.415590  1.0
  F  F8733  1  0.916100  0.087200  0.084410  1.0
  F  F8734  1  0.583900  0.912800  0.584410  1.0
  F  F8735  1  0.135400  0.917900  0.913790  1.0
  F  F8736  1  0.364600  0.082100  0.413790  1.0
  F  F8737  1  0.864600  0.082100  0.086210  1.0
  F  F8738  1  0.635400  0.917900  0.586210  1.0
  F  F8739  1  0.305900  0.648800  0.639850  1.0
  F  F8740  1  0.194100  0.351200  0.139850  1.0
  F  F8741  1  0.694100  0.351200  0.360150  1.0
  F  F8742  1  0.805900  0.648800  0.860150  1.0
  F  F8743  1  0.431700  0.079000  0.047660  1.0
  F  F8744  1  0.068300  0.921000  0.547660  1.0
  F  F8745  1  0.568300  0.921000  0.952340  1.0
  F  F8746  1  0.931700  0.079000  0.452340  1.0
  F  F8747  1  0.626900  0.195900  0.917180  1.0
  F  F8748  1  0.873100  0.804100  0.417180  1.0
  F  F8749  1  0.373100  0.804100  0.082820  1.0
  F  F8750  1  0.126900  0.195900  0.582820  1.0
  F  F8751  1  0.158200  0.365200  0.799980  1.0
  F  F8752  1  0.341800  0.634800  0.299980  1.0
  F  F8753  1  0.841800  0.634800  0.200020  1.0
  F  F8754  1  0.658200  0.365200  0.700020  1.0
  F  F8755  1  0.369900  0.354100  0.013000  1.0
  F  F8756  1  0.130100  0.645900  0.513000  1.0
  F  F8757  1  0.630100  0.645900  0.987000  1.0
  F  F8758  1  0.869900  0.354100  0.487000  1.0
  F  F8759  1  0.465200  0.760400  0.224660  1.0
  F  F8760  1  0.034800  0.239600  0.724660  1.0
  F  F8761  1  0.534800  0.239600  0.775340  1.0
  F  F8762  1  0.965200  0.760400  0.275340  1.0
  F  F8763  1  0.437800  0.187500  0.137470  1.0
  F  F8764  1  0.062200  0.812500  0.637470  1.0
  F  F8765  1  0.562200  0.812500  0.862530  1.0
  F  F8766  1  0.937800  0.187500  0.362530  1.0
  F  F8767  1  0.463600  0.057900  0.063000  1.0
  F  F8768  1  0.036400  0.942100  0.563000  1.0
  F  F8769  1  0.536400  0.942100  0.937000  1.0
  F  F8770  1  0.963600  0.057900  0.437000  1.0
  F  F8771  1  0.503600  0.753800  0.208070  1.0
  F  F8772  1  0.996400  0.246200  0.708070  1.0
  F  F8773  1  0.496400  0.246200  0.791930  1.0
  F  F8774  1  0.003600  0.753800  0.291930  1.0
  F  F8775  1  0.124100  0.960000  0.921410  1.0
  F  F8776  1  0.375900  0.040000  0.421410  1.0
  F  F8777  1  0.875900  0.040000  0.078590  1.0
  F  F8778  1  0.624100  0.960000  0.578590  1.0
  F  F8779  1  0.691800  0.134700  0.012660  1.0
  F  F8780  1  0.808200  0.865300  0.512660  1.0
  F  F8781  1  0.308200  0.865300  0.987340  1.0
  F  F8782  1  0.191800  0.134700  0.487340  1.0
  F  F8783  1  0.500100  0.242600  0.016810  1.0
  F  F8784  1  0.999900  0.757400  0.516810  1.0
  F  F8785  1  0.499900  0.757400  0.983190  1.0
  F  F8786  1  0.000100  0.242600  0.483190  1.0
  F  F8787  1  0.510200  0.758400  0.237540  1.0
  F  F8788  1  0.989800  0.241600  0.737540  1.0
  F  F8789  1  0.489800  0.241600  0.762460  1.0
  F  F8790  1  0.010200  0.758400  0.262460  1.0
  F  F8791  1  0.287500  0.583600  0.661090  1.0
  F  F8792  1  0.212500  0.416400  0.161090  1.0
  F  F8793  1  0.712500  0.416400  0.338910  1.0
  F  F8794  1  0.787500  0.583600  0.838910  1.0
  F  F8795  1  0.823900  0.236600  0.308700  1.0
  F  F8796  1  0.676100  0.763400  0.808700  1.0
  F  F8797  1  0.176100  0.763400  0.691300  1.0
  F  F8798  1  0.323900  0.236600  0.191300  1.0
  F  F8799  1  0.762200  0.545200  0.922710  1.0
  F  F8800  1  0.737800  0.454800  0.422710  1.0
  F  F8801  1  0.237800  0.454800  0.077290  1.0
  F  F8802  1  0.262200  0.545200  0.577290  1.0
  F  F8803  1  0.793100  0.357400  0.853340  1.0
  F  F8804  1  0.706900  0.642600  0.353340  1.0
  F  F8805  1  0.206900  0.642600  0.146660  1.0
  F  F8806  1  0.293100  0.357400  0.646660  1.0
  F  F8807  1  0.176500  0.410200  0.815100  1.0
  F  F8808  1  0.323500  0.589800  0.315100  1.0
  F  F8809  1  0.823500  0.589800  0.184900  1.0
  F  F8810  1  0.676500  0.410200  0.684900  1.0
  F  F8811  1  0.680100  0.224500  0.912700  1.0
  F  F8812  1  0.819900  0.775500  0.412700  1.0
  F  F8813  1  0.319900  0.775500  0.087300  1.0
  F  F8814  1  0.180100  0.224500  0.587300  1.0
  F  F8815  1  0.584700  0.381300  0.900100  1.0
  F  F8816  1  0.915300  0.618700  0.400100  1.0
  F  F8817  1  0.415300  0.618700  0.099900  1.0
  F  F8818  1  0.084700  0.381300  0.599900  1.0
  F  F8819  1  0.494900  0.935100  0.305440  1.0
  F  F8820  1  0.005100  0.064900  0.805440  1.0
  F  F8821  1  0.505100  0.064900  0.694560  1.0
  F  F8822  1  0.994900  0.935100  0.194560  1.0
  F  F8823  1  0.759700  0.531400  0.951080  1.0
  F  F8824  1  0.740300  0.468600  0.451080  1.0
  F  F8825  1  0.240300  0.468600  0.048920  1.0
  F  F8826  1  0.259700  0.531400  0.548920  1.0
  F  F8827  1  0.143800  0.937300  0.942260  1.0
  F  F8828  1  0.356200  0.062700  0.442260  1.0
  F  F8829  1  0.856200  0.062700  0.057740  1.0
  F  F8830  1  0.643800  0.937300  0.557740  1.0
  F  F8831  1  0.594800  0.411300  0.875680  1.0
  F  F8832  1  0.905200  0.588700  0.375680  1.0
  F  F8833  1  0.405200  0.588700  0.124320  1.0
  F  F8834  1  0.094800  0.411300  0.624320  1.0
  F  F8835  1  0.808200  0.537200  0.919610  1.0
  F  F8836  1  0.691800  0.462800  0.419610  1.0
  F  F8837  1  0.191800  0.462800  0.080390  1.0
  F  F8838  1  0.308200  0.537200  0.580390  1.0
  F  F8839  1  0.801700  0.339500  0.879600  1.0
  F  F8840  1  0.698300  0.660500  0.379600  1.0
  F  F8841  1  0.198300  0.660500  0.120400  1.0
  F  F8842  1  0.301700  0.339500  0.620400  1.0
  F  F8843  1  0.016400  0.048400  0.958300  1.0
  F  F8844  1  0.483600  0.951600  0.458300  1.0
  F  F8845  1  0.983600  0.951600  0.041700  1.0
  F  F8846  1  0.516400  0.048400  0.541700  1.0
  F  F8847  1  0.739800  0.141500  0.044530  1.0
  F  F8848  1  0.760200  0.858500  0.544530  1.0
  F  F8849  1  0.260200  0.858500  0.955470  1.0
  F  F8850  1  0.239800  0.141500  0.455470  1.0
  F  F8851  1  0.022300  0.095600  0.969770  1.0
  F  F8852  1  0.477700  0.904400  0.469770  1.0
  F  F8853  1  0.977700  0.904400  0.030230  1.0
  F  F8854  1  0.522300  0.095600  0.530230  1.0
  F  F8855  1  0.317300  0.349400  0.010300  1.0
  F  F8856  1  0.182700  0.650600  0.510300  1.0
  F  F8857  1  0.682700  0.650600  0.989700  1.0
  F  F8858  1  0.817300  0.349400  0.489700  1.0
  F  F8859  1  0.304800  0.600700  0.633480  1.0
  F  F8860  1  0.195200  0.399300  0.133480  1.0
  F  F8861  1  0.695200  0.399300  0.366520  1.0
  F  F8862  1  0.804800  0.600700  0.866520  1.0
  F  F8863  1  0.990400  0.075700  0.945860  1.0
  F  F8864  1  0.509600  0.924300  0.445860  1.0
  F  F8865  1  0.009600  0.924300  0.054140  1.0
  F  F8866  1  0.490400  0.075700  0.554140  1.0
  F  F8867  1  0.327500  0.323500  0.031300  1.0
  F  F8868  1  0.172500  0.676500  0.531300  1.0
  F  F8869  1  0.672500  0.676500  0.968700  1.0
  F  F8870  1  0.827500  0.323500  0.468700  1.0
  F  F8871  1  0.126900  0.715300  0.786010  1.0
  F  F8872  1  0.373100  0.284700  0.286010  1.0
  F  F8873  1  0.873100  0.284700  0.213990  1.0
  F  F8874  1  0.626900  0.715300  0.713990  1.0
  F  F8875  1  0.797200  0.386100  0.877800  1.0
  F  F8876  1  0.702800  0.613900  0.377800  1.0
  F  F8877  1  0.202800  0.613900  0.122200  1.0
  F  F8878  1  0.297200  0.386100  0.622200  1.0
  F  F8879  1  0.188600  0.410400  0.786250  1.0
  F  F8880  1  0.311400  0.589600  0.286250  1.0
  F  F8881  1  0.811400  0.589600  0.213750  1.0
  F  F8882  1  0.688600  0.410400  0.713750  1.0
  F  F8883  1  0.805500  0.523200  0.948100  1.0
  F  F8884  1  0.694500  0.476800  0.448100  1.0
  F  F8885  1  0.194500  0.476800  0.051900  1.0
  F  F8886  1  0.305500  0.523200  0.551900  1.0
  F  F8887  1  0.762800  0.498100  0.930000  1.0
  F  F8888  1  0.737200  0.501900  0.430000  1.0
  F  F8889  1  0.237200  0.501900  0.070000  1.0
  F  F8890  1  0.262800  0.498100  0.570000  1.0
  F  F8891  1  0.757800  0.345000  0.891060  1.0
  F  F8892  1  0.742200  0.655000  0.391060  1.0
  F  F8893  1  0.242200  0.655000  0.108940  1.0
  F  F8894  1  0.257800  0.345000  0.608940  1.0
  F  F8895  1  0.463800  0.876600  0.278970  1.0
  F  F8896  1  0.036200  0.123400  0.778970  1.0
  F  F8897  1  0.536200  0.123400  0.721030  1.0
  F  F8898  1  0.963800  0.876600  0.221030  1.0
  F  F8899  1  0.647900  0.247300  0.924370  1.0
  F  F8900  1  0.852100  0.752700  0.424370  1.0
  F  F8901  1  0.352100  0.752700  0.075630  1.0
  F  F8902  1  0.147900  0.247300  0.575630  1.0
  F  F8903  1  0.692300  0.104600  0.035600  1.0
  F  F8904  1  0.807700  0.895400  0.535600  1.0
  F  F8905  1  0.307700  0.895400  0.964400  1.0
  F  F8906  1  0.192300  0.104600  0.464400  1.0
  F  F8907  1  0.739300  0.171300  0.021300  1.0
  F  F8908  1  0.760700  0.828700  0.521300  1.0
  F  F8909  1  0.260700  0.828700  0.978700  1.0
  F  F8910  1  0.239300  0.171300  0.478700  1.0
  F  F8911  1  0.696500  0.154100  0.040130  1.0
  F  F8912  1  0.803500  0.845900  0.540130  1.0
  F  F8913  1  0.303500  0.845900  0.959870  1.0
  F  F8914  1  0.196500  0.154100  0.459870  1.0
  F  F8915  1  0.093700  0.693900  0.763230  1.0
  F  F8916  1  0.406300  0.306100  0.263230  1.0
  F  F8917  1  0.906300  0.306100  0.236770  1.0
  F  F8918  1  0.593700  0.693900  0.736770  1.0
  F  F8919  1  0.597400  0.992300  0.086110  1.0
  F  F8920  1  0.902600  0.007700  0.586110  1.0
  F  F8921  1  0.402600  0.007700  0.913890  1.0
  F  F8922  1  0.097400  0.992300  0.413890  1.0
  F  F8923  1  0.572900  0.993000  0.112310  1.0
  F  F8924  1  0.927100  0.007000  0.612310  1.0
  F  F8925  1  0.427100  0.007000  0.887690  1.0
  F  F8926  1  0.072900  0.993000  0.387690  1.0
  F  F8927  1  0.319100  0.120700  0.877000  1.0
  F  F8928  1  0.180900  0.879300  0.377000  1.0
  F  F8929  1  0.680900  0.879300  0.123000  1.0
  F  F8930  1  0.819100  0.120700  0.623000  1.0
  F  F8931  1  0.839000  0.281100  0.324110  1.0
  F  F8932  1  0.661000  0.718900  0.824110  1.0
  F  F8933  1  0.161000  0.718900  0.675890  1.0
  F  F8934  1  0.339000  0.281100  0.175890  1.0
  F  F8935  1  0.334200  0.262500  0.097870  1.0
  F  F8936  1  0.165800  0.737500  0.597870  1.0
  F  F8937  1  0.665800  0.737500  0.902130  1.0
  F  F8938  1  0.834200  0.262500  0.402130  1.0
  F  F8939  1  0.939200  0.631200  0.687450  1.0
  F  F8940  1  0.560800  0.368800  0.187450  1.0
  F  F8941  1  0.060800  0.368800  0.312550  1.0
  F  F8942  1  0.439200  0.631200  0.812550  1.0
  F  F8943  1  0.545000  0.984100  0.086680  1.0
  F  F8944  1  0.955000  0.015900  0.586680  1.0
  F  F8945  1  0.455000  0.015900  0.913320  1.0
  F  F8946  1  0.045000  0.984100  0.413320  1.0
  F  F8947  1  0.366700  0.113700  0.875370  1.0
  F  F8948  1  0.133300  0.886300  0.375370  1.0
  F  F8949  1  0.633300  0.886300  0.124630  1.0
  F  F8950  1  0.866700  0.113700  0.624630  1.0
  F  F8951  1  0.294400  0.252700  0.077900  1.0
  F  F8952  1  0.205600  0.747300  0.577900  1.0
  F  F8953  1  0.705600  0.747300  0.922100  1.0
  F  F8954  1  0.794400  0.252700  0.422100  1.0
  F  F8955  1  0.235800  0.463300  0.944280  1.0
  F  F8956  1  0.264200  0.536700  0.444280  1.0
  F  F8957  1  0.764200  0.536700  0.055720  1.0
  F  F8958  1  0.735800  0.463300  0.555720  1.0
  F  F8959  1  0.387700  0.989600  0.304410  1.0
  F  F8960  1  0.112300  0.010400  0.804410  1.0
  F  F8961  1  0.612300  0.010400  0.695590  1.0
  F  F8962  1  0.887700  0.989600  0.195590  1.0
  F  F8963  1  0.916000  0.618400  0.713660  1.0
  F  F8964  1  0.584000  0.381600  0.213660  1.0
  F  F8965  1  0.084000  0.381600  0.286340  1.0
  F  F8966  1  0.416000  0.618400  0.786340  1.0
  F  F8967  1  0.652000  0.204300  0.176610  1.0
  F  F8968  1  0.848000  0.795700  0.676610  1.0
  F  F8969  1  0.348000  0.795700  0.823390  1.0
  F  F8970  1  0.152000  0.204300  0.323390  1.0
  F  F8971  1  0.632900  0.186800  0.203840  1.0
  F  F8972  1  0.867100  0.813200  0.703840  1.0
  F  F8973  1  0.367100  0.813200  0.796160  1.0
  F  F8974  1  0.132900  0.186800  0.296160  1.0
  F  F8975  1  0.533600  0.377300  0.093600  1.0
  F  F8976  1  0.966400  0.622700  0.593600  1.0
  F  F8977  1  0.466400  0.622700  0.906400  1.0
  F  F8978  1  0.033600  0.377300  0.406400  1.0
  F  F8979  1  0.284700  0.221700  0.102000  1.0
  F  F8980  1  0.215300  0.778300  0.602000  1.0
  F  F8981  1  0.715300  0.778300  0.898000  1.0
  F  F8982  1  0.784700  0.221700  0.398000  1.0
  F  F8983  1  0.647900  0.419500  0.877690  1.0
  F  F8984  1  0.852100  0.580500  0.377690  1.0
  F  F8985  1  0.352100  0.580500  0.122310  1.0
  F  F8986  1  0.147900  0.419500  0.622310  1.0
  F  F8987  1  0.839400  0.305600  0.299400  1.0
  F  F8988  1  0.660600  0.694400  0.799400  1.0
  F  F8989  1  0.160600  0.694400  0.700600  1.0
  F  F8990  1  0.339400  0.305600  0.200600  1.0
  F  F8991  1  0.961900  0.030900  0.960570  1.0
  F  F8992  1  0.538100  0.969100  0.460570  1.0
  F  F8993  1  0.038100  0.969100  0.039430  1.0
  F  F8994  1  0.461900  0.030900  0.539430  1.0
  F  F8995  1  0.406000  0.042000  0.069000  1.0
  F  F8996  1  0.094000  0.958000  0.569000  1.0
  F  F8997  1  0.594000  0.958000  0.931000  1.0
  F  F8998  1  0.906000  0.042000  0.431000  1.0
  F  F8999  1  0.637900  0.389900  0.902190  1.0
  F  F9000  1  0.862100  0.610100  0.402190  1.0
  F  F9001  1  0.362100  0.610100  0.097810  1.0
  F  F9002  1  0.137900  0.389900  0.597810  1.0
  F  F9003  1  0.461200  0.718400  0.240690  1.0
  F  F9004  1  0.038800  0.281600  0.740690  1.0
  F  F9005  1  0.538800  0.281600  0.759310  1.0
  F  F9006  1  0.961200  0.718400  0.259310  1.0
  F  F9007  1  0.370900  0.370700  0.041680  1.0
  F  F9008  1  0.129100  0.629300  0.541680  1.0
  F  F9009  1  0.629100  0.629300  0.958320  1.0
  F  F9010  1  0.870900  0.370700  0.458320  1.0
  F  F9011  1  0.443900  0.901500  0.298480  1.0
  F  F9012  1  0.056100  0.098500  0.798480  1.0
  F  F9013  1  0.556100  0.098500  0.701520  1.0
  F  F9014  1  0.943900  0.901500  0.201520  1.0
  F  F9015  1  0.227900  0.419200  0.806900  1.0
  F  F9016  1  0.272100  0.580800  0.306900  1.0
  F  F9017  1  0.772100  0.580800  0.193100  1.0
  F  F9018  1  0.727900  0.419200  0.693100  1.0
  F  F9019  1  0.427600  0.201500  0.177750  1.0
  F  F9020  1  0.072400  0.798500  0.677750  1.0
  F  F9021  1  0.572400  0.798500  0.822250  1.0
  F  F9022  1  0.927600  0.201500  0.322250  1.0
  F  F9023  1  0.268700  0.508200  0.956100  1.0
  F  F9024  1  0.231300  0.491800  0.456100  1.0
  F  F9025  1  0.731300  0.491800  0.043900  1.0
  F  F9026  1  0.768700  0.508200  0.543900  1.0
  F  F9027  1  0.369500  0.161100  0.878200  1.0
  F  F9028  1  0.130500  0.838900  0.378200  1.0
  F  F9029  1  0.630500  0.838900  0.121800  1.0
  F  F9030  1  0.869500  0.161100  0.621800  1.0
  F  F9031  1  0.480800  0.882700  0.307330  1.0
  F  F9032  1  0.019200  0.117300  0.807330  1.0
  F  F9033  1  0.519200  0.117300  0.692670  1.0
  F  F9034  1  0.980800  0.882700  0.192670  1.0
  F  F9035  1  0.794500  0.262900  0.308500  1.0
  F  F9036  1  0.705500  0.737100  0.808500  1.0
  F  F9037  1  0.205500  0.737100  0.691500  1.0
  F  F9038  1  0.294500  0.262900  0.191500  1.0
  F  F9039  1  0.415100  0.979800  0.325300  1.0
  F  F9040  1  0.084900  0.020200  0.825300  1.0
  F  F9041  1  0.584900  0.020200  0.674700  1.0
  F  F9042  1  0.915100  0.979800  0.174700  1.0
  F  F9043  1  0.645500  0.801800  0.332070  1.0
  F  F9044  1  0.854500  0.198200  0.832070  1.0
  F  F9045  1  0.354500  0.198200  0.667930  1.0
  F  F9046  1  0.145500  0.801800  0.167930  1.0
  F  F9047  1  0.076700  0.733500  0.763640  1.0
  F  F9048  1  0.423300  0.266500  0.263640  1.0
  F  F9049  1  0.923300  0.266500  0.236360  1.0
  F  F9050  1  0.576700  0.733500  0.736360  1.0
  F  F9051  1  0.104400  0.890000  0.936040  1.0
  F  F9052  1  0.395600  0.110000  0.436040  1.0
  F  F9053  1  0.895600  0.110000  0.063960  1.0
  F  F9054  1  0.604400  0.890000  0.563960  1.0
  F  F9055  1  0.411000  0.212800  0.151600  1.0
  F  F9056  1  0.089000  0.787200  0.651600  1.0
  F  F9057  1  0.589000  0.787200  0.848400  1.0
  F  F9058  1  0.911000  0.212800  0.348400  1.0
  F  F9059  1  0.610500  0.370400  0.877300  1.0
  F  F9060  1  0.889500  0.629600  0.377300  1.0
  F  F9061  1  0.389500  0.629600  0.122700  1.0
  F  F9062  1  0.110500  0.370400  0.622700  1.0
  F  F9063  1  0.130300  0.744000  0.761500  1.0
  F  F9064  1  0.369700  0.256000  0.261500  1.0
  F  F9065  1  0.869700  0.256000  0.238500  1.0
  F  F9066  1  0.630300  0.744000  0.738500  1.0
  F  F9067  1  0.452600  0.840300  0.124840  1.0
  F  F9068  1  0.047400  0.159700  0.624840  1.0
  F  F9069  1  0.547400  0.159700  0.875160  1.0
  F  F9070  1  0.952600  0.840300  0.375160  1.0
  F  F9071  1  0.749000  0.362900  0.864700  1.0
  F  F9072  1  0.751000  0.637100  0.364700  1.0
  F  F9073  1  0.251000  0.637100  0.135300  1.0
  F  F9074  1  0.249000  0.362900  0.635300  1.0
  F  F9075  1  0.109700  0.755100  0.786510  1.0
  F  F9076  1  0.390300  0.244900  0.286510  1.0
  F  F9077  1  0.890300  0.244900  0.213490  1.0
  F  F9078  1  0.609700  0.755100  0.713490  1.0
  F  F9079  1  0.209700  0.374000  0.791950  1.0
  F  F9080  1  0.290300  0.626000  0.291950  1.0
  F  F9081  1  0.790300  0.626000  0.208050  1.0
  F  F9082  1  0.709700  0.374000  0.708050  1.0
  F  F9083  1  0.443600  0.884600  0.121230  1.0
  F  F9084  1  0.056400  0.115400  0.621230  1.0
  F  F9085  1  0.556400  0.115400  0.878770  1.0
  F  F9086  1  0.943600  0.884600  0.378770  1.0
  F  F9087  1  0.317600  0.364100  0.039200  1.0
  F  F9088  1  0.182400  0.635900  0.539200  1.0
  F  F9089  1  0.682400  0.635900  0.960800  1.0
  F  F9090  1  0.817600  0.364100  0.460800  1.0
  F  F9091  1  0.735300  0.121700  0.016970  1.0
  F  F9092  1  0.764700  0.878300  0.516970  1.0
  F  F9093  1  0.264700  0.878300  0.983030  1.0
  F  F9094  1  0.235300  0.121700  0.483030  1.0
  F  F9095  1  0.649900  0.207700  0.890390  1.0
  F  F9096  1  0.850100  0.792300  0.390390  1.0
  F  F9097  1  0.350100  0.792300  0.109610  1.0
  F  F9098  1  0.149900  0.207700  0.609610  1.0
  F  F9099  1  0.637900  0.846300  0.327400  1.0
  F  F9100  1  0.862100  0.153700  0.827400  1.0
  F  F9101  1  0.362100  0.153700  0.672600  1.0
  F  F9102  1  0.137900  0.846300  0.172600  1.0
  F  F9103  1  0.615100  0.229300  0.900400  1.0
  F  F9104  1  0.884900  0.770700  0.400400  1.0
  F  F9105  1  0.384900  0.770700  0.099600  1.0
  F  F9106  1  0.115100  0.229300  0.599600  1.0
  F  F9107  1  0.494100  0.887100  0.127530  1.0
  F  F9108  1  0.005900  0.112900  0.627530  1.0
  F  F9109  1  0.505900  0.112900  0.872470  1.0
  F  F9110  1  0.994100  0.887100  0.372470  1.0
  F  F9111  1  0.279600  0.495200  0.930800  1.0
  F  F9112  1  0.220400  0.504800  0.430800  1.0
  F  F9113  1  0.720400  0.504800  0.069200  1.0
  F  F9114  1  0.779600  0.495200  0.569200  1.0
  F  F9115  1  0.993500  0.050700  0.984400  1.0
  F  F9116  1  0.506500  0.949300  0.484400  1.0
  F  F9117  1  0.006500  0.949300  0.015600  1.0
  F  F9118  1  0.493500  0.050700  0.515600  1.0
  F  F9119  1  0.753100  0.316400  0.866300  1.0
  F  F9120  1  0.746900  0.683600  0.366300  1.0
  F  F9121  1  0.246900  0.683600  0.133700  1.0
  F  F9122  1  0.253100  0.316400  0.633700  1.0
  F  F9123  1  0.614100  0.804700  0.309400  1.0
  F  F9124  1  0.885900  0.195300  0.809400  1.0
  F  F9125  1  0.385900  0.195300  0.690600  1.0
  F  F9126  1  0.114100  0.804700  0.190600  1.0
  F  F9127  1  0.466300  0.901300  0.147860  1.0
  F  F9128  1  0.033700  0.098700  0.647860  1.0
  F  F9129  1  0.533700  0.098700  0.852140  1.0
  F  F9130  1  0.966300  0.901300  0.352140  1.0
  F  F9131  1  0.668000  0.259400  0.896900  1.0
  F  F9132  1  0.832000  0.740600  0.396900  1.0
  F  F9133  1  0.332000  0.740600  0.103100  1.0
  F  F9134  1  0.168000  0.259400  0.603100  1.0
  F  F9135  1  0.333333  0.627400  0.656770  1.0
  F  F9136  1  0.166667  0.372600  0.156770  1.0
  F  F9137  1  0.666667  0.372600  0.343230  1.0
  F  F9138  1  0.833333  0.627400  0.843230  1.0
  F  F9139  1  0.655900  0.848000  0.299800  1.0
  F  F9140  1  0.844100  0.152000  0.799800  1.0
  F  F9141  1  0.344100  0.152000  0.700200  1.0
  F  F9142  1  0.155900  0.848000  0.200200  1.0
  F  F9143  1  0.663400  0.803400  0.304300  1.0
  F  F9144  1  0.836600  0.196600  0.804300  1.0
  F  F9145  1  0.336600  0.196600  0.695700  1.0
  F  F9146  1  0.163400  0.803400  0.195700  1.0
  F  F9147  1  0.687400  0.845000  0.322400  1.0
  F  F9148  1  0.812600  0.155000  0.822400  1.0
  F  F9149  1  0.312600  0.155000  0.677600  1.0
  F  F9150  1  0.187400  0.845000  0.177600  1.0
  F  F9151  1  0.137800  0.806100  0.086210  1.0
  F  F9152  1  0.362200  0.193900  0.586210  1.0
  F  F9153  1  0.862200  0.193900  0.913790  1.0
  F  F9154  1  0.637800  0.806100  0.413790  1.0
  F  F9155  1  0.116300  0.812700  0.060270  1.0
  F  F9156  1  0.383700  0.187300  0.560270  1.0
  F  F9157  1  0.883700  0.187300  0.939730  1.0
  F  F9158  1  0.616300  0.812700  0.439730  1.0
  F  F9159  1  0.097200  0.757800  0.088410  1.0
  F  F9160  1  0.402800  0.242200  0.588410  1.0
  F  F9161  1  0.902800  0.242200  0.911590  1.0
  F  F9162  1  0.597200  0.757800  0.411590  1.0
  F  F9163  1  0.128800  0.770600  0.064300  1.0
  F  F9164  1  0.371200  0.229400  0.564300  1.0
  F  F9165  1  0.871200  0.229400  0.935700  1.0
  F  F9166  1  0.628800  0.770600  0.435700  1.0
  F  F9167  1  0.804900  0.570200  0.940700  1.0
  F  F9168  1  0.695100  0.429800  0.440700  1.0
  F  F9169  1  0.195100  0.429800  0.059300  1.0
  F  F9170  1  0.304900  0.570200  0.559300  1.0
  F  F9171  1  0.085000  0.799700  0.084440  1.0
  F  F9172  1  0.415000  0.200300  0.584440  1.0
  F  F9173  1  0.915000  0.200300  0.915560  1.0
  F  F9174  1  0.585000  0.799700  0.415560  1.0
  F  F9175  1  0.567900  0.276700  0.310310  1.0
  F  F9176  1  0.932100  0.723300  0.810310  1.0
  F  F9177  1  0.432100  0.723300  0.689690  1.0
  F  F9178  1  0.067900  0.276700  0.189690  1.0
  F  F9179  1  0.528700  0.238300  0.295710  1.0
  F  F9180  1  0.971300  0.761700  0.795710  1.0
  F  F9181  1  0.471300  0.761700  0.704290  1.0
  F  F9182  1  0.028700  0.238300  0.204290  1.0
  F  F9183  1  0.520400  0.248000  0.323900  1.0
  F  F9184  1  0.979600  0.752000  0.823900  1.0
  F  F9185  1  0.479600  0.752000  0.676100  1.0
  F  F9186  1  0.020400  0.248000  0.176100  1.0
  F  F9187  1  0.566800  0.242400  0.331390  1.0
  F  F9188  1  0.933200  0.757600  0.831390  1.0
  F  F9189  1  0.433200  0.757600  0.668610  1.0
  F  F9190  1  0.066800  0.242400  0.168610  1.0
  F  F9191  1  0.076100  0.764300  0.062500  1.0
  F  F9192  1  0.423900  0.235700  0.562500  1.0
  F  F9193  1  0.923900  0.235700  0.937500  1.0
  F  F9194  1  0.576100  0.764300  0.437500  1.0
  F  F9195  1  0.575000  0.232400  0.303000  1.0
  F  F9196  1  0.925000  0.767600  0.803000  1.0
  F  F9197  1  0.425000  0.767600  0.697000  1.0
  F  F9198  1  0.075000  0.232400  0.197000  1.0
  F  F9199  1  0.475100  0.856700  0.151540  1.0
  F  F9200  1  0.024900  0.143300  0.651540  1.0
  F  F9201  1  0.524900  0.143300  0.848460  1.0
  F  F9202  1  0.975100  0.856700  0.348460  1.0
  F  F9203  1  0.928200  0.571400  0.710600  1.0
  F  F9204  1  0.571800  0.428600  0.210600  1.0
  F  F9205  1  0.071800  0.428600  0.289400  1.0
  F  F9206  1  0.428200  0.571400  0.789400  1.0
  F  F9207  1  0.503400  0.203700  0.999870  1.0
  F  F9208  1  0.996600  0.796300  0.499870  1.0
  F  F9209  1  0.496600  0.796300  0.000130  1.0
  F  F9210  1  0.003400  0.203700  0.500130  1.0
  F  F9211  1  0.477600  0.929000  0.277200  1.0
  F  F9212  1  0.022400  0.071000  0.777200  1.0
  F  F9213  1  0.522400  0.071000  0.722800  1.0
  F  F9214  1  0.977600  0.929000  0.222800  1.0
  F  F9215  1  0.455100  0.199200  0.010400  1.0
  F  F9216  1  0.044900  0.800800  0.510400  1.0
  F  F9217  1  0.544900  0.800800  0.989600  1.0
  F  F9218  1  0.955100  0.199200  0.489600  1.0
  F  F9219  1  0.527700  0.203800  0.316700  1.0
  F  F9220  1  0.972300  0.796200  0.816700  1.0
  F  F9221  1  0.472300  0.796200  0.683300  1.0
  F  F9222  1  0.027700  0.203800  0.183300  1.0
  F  F9223  1  0.454300  0.713900  0.211220  1.0
  F  F9224  1  0.045700  0.286100  0.711220  1.0
  F  F9225  1  0.545700  0.286100  0.788780  1.0
  F  F9226  1  0.954300  0.713900  0.288780  1.0
  F  F9227  1  0.924700  0.422400  0.947020  1.0
  F  F9228  1  0.575300  0.577600  0.447020  1.0
  F  F9229  1  0.075300  0.577600  0.052980  1.0
  F  F9230  1  0.424700  0.422400  0.552980  1.0
  F  F9231  1  0.202200  0.924700  0.044700  1.0
  F  F9232  1  0.297800  0.075300  0.544700  1.0
  F  F9233  1  0.797800  0.075300  0.955300  1.0
  F  F9234  1  0.702200  0.924700  0.455300  1.0
  F  F9235  1  0.247400  0.929100  0.030000  1.0
  F  F9236  1  0.252600  0.070900  0.530000  1.0
  F  F9237  1  0.752600  0.070900  0.970000  1.0
  F  F9238  1  0.747400  0.929100  0.470000  1.0
  F  F9239  1  0.276800  0.970000  0.046700  1.0
  F  F9240  1  0.223200  0.030000  0.546700  1.0
  F  F9241  1  0.723200  0.030000  0.953300  1.0
  F  F9242  1  0.776800  0.970000  0.453300  1.0
  F  F9243  1  0.907600  0.443900  0.969000  1.0
  F  F9244  1  0.592400  0.556100  0.469000  1.0
  F  F9245  1  0.092400  0.556100  0.031000  1.0
  F  F9246  1  0.407600  0.443900  0.531000  1.0
  F  F9247  1  0.231900  0.965900  0.061400  1.0
  F  F9248  1  0.268100  0.034100  0.561400  1.0
  F  F9249  1  0.768100  0.034100  0.938600  1.0
  F  F9250  1  0.731900  0.965900  0.438600  1.0
  F  F9251  1  0.946700  0.441000  0.986400  1.0
  F  F9252  1  0.553300  0.559000  0.486400  1.0
  F  F9253  1  0.053300  0.559000  0.013600  1.0
  F  F9254  1  0.446700  0.441000  0.513600  1.0
  F  F9255  1  0.911400  0.396800  0.973000  1.0
  F  F9256  1  0.588600  0.603200  0.473000  1.0
  F  F9257  1  0.088600  0.603200  0.027000  1.0
  F  F9258  1  0.411400  0.396800  0.527000  1.0
  F  F9259  1  0.964300  0.419700  0.964300  1.0
  F  F9260  1  0.535700  0.580300  0.464300  1.0
  F  F9261  1  0.035700  0.580300  0.035700  1.0
  F  F9262  1  0.464300  0.419700  0.535700  1.0
  F  F9263  1  0.233100  0.970700  0.031800  1.0
  F  F9264  1  0.266900  0.029300  0.531800  1.0
  F  F9265  1  0.766900  0.029300  0.968200  1.0
  F  F9266  1  0.733100  0.970700  0.468200  1.0
  F  F9267  1  0.245500  0.923700  0.059600  1.0
  F  F9268  1  0.254500  0.076300  0.559600  1.0
  F  F9269  1  0.754500  0.076300  0.940400  1.0
  F  F9270  1  0.745500  0.923700  0.440400  1.0
  F  F9271  1  0.983400  0.717500  0.977700  1.0
  F  F9272  1  0.516600  0.282500  0.477700  1.0
  F  F9273  1  0.016600  0.282500  0.022300  1.0
  F  F9274  1  0.483400  0.717500  0.522300  1.0
  F  F9275  1  0.940300  0.695800  0.995600  1.0
  F  F9276  1  0.559700  0.304200  0.495600  1.0
  F  F9277  1  0.059700  0.304200  0.004400  1.0
  F  F9278  1  0.440300  0.695800  0.504400  1.0
  F  F9279  1  0.975900  0.743500  0.001400  1.0
  F  F9280  1  0.524100  0.256500  0.501400  1.0
  F  F9281  1  0.024100  0.256500  0.998600  1.0
  F  F9282  1  0.475900  0.743500  0.498600  1.0
  F  F9283  1  0.974100  0.703800  0.019030  1.0
  F  F9284  1  0.525900  0.296200  0.519030  1.0
  F  F9285  1  0.025900  0.296200  0.980970  1.0
  F  F9286  1  0.474100  0.703800  0.480970  1.0
  F  F9287  1  0.983300  0.678700  0.995500  1.0
  F  F9288  1  0.516700  0.321300  0.495500  1.0
  F  F9289  1  0.016700  0.321300  0.004500  1.0
  F  F9290  1  0.483300  0.678700  0.504500  1.0
  F  F9291  1  0.016800  0.728200  0.001200  1.0
  F  F9292  1  0.483200  0.271800  0.501200  1.0
  F  F9293  1  0.983200  0.271800  0.998800  1.0
  F  F9294  1  0.516800  0.728200  0.498800  1.0
  F  F9295  1  0.960200  0.466700  0.960200  1.0
  F  F9296  1  0.539800  0.533300  0.460200  1.0
  F  F9297  1  0.039800  0.533300  0.039800  1.0
  F  F9298  1  0.460200  0.466700  0.539800  1.0
  F  F9299  1  0.968000  0.560200  0.825500  1.0
  F  F9300  1  0.532000  0.439800  0.325500  1.0
  F  F9301  1  0.032000  0.439800  0.174500  1.0
  F  F9302  1  0.468000  0.560200  0.674500  1.0
  F  F9303  1  0.923800  0.562200  0.811800  1.0
  F  F9304  1  0.576200  0.437800  0.311800  1.0
  F  F9305  1  0.076200  0.437800  0.188200  1.0
  F  F9306  1  0.423800  0.562200  0.688200  1.0
  F  F9307  1  0.921700  0.549000  0.840480  1.0
  F  F9308  1  0.578300  0.451000  0.340480  1.0
  F  F9309  1  0.078300  0.451000  0.159520  1.0
  F  F9310  1  0.421700  0.549000  0.659520  1.0
  F  F9311  1  0.893700  0.512700  0.820800  1.0
  F  F9312  1  0.606300  0.487300  0.320800  1.0
  F  F9313  1  0.106300  0.487300  0.179200  1.0
  F  F9314  1  0.393700  0.512700  0.679200  1.0
  F  F9315  1  0.938200  0.509900  0.833700  1.0
  F  F9316  1  0.561800  0.490100  0.333700  1.0
  F  F9317  1  0.061800  0.490100  0.166300  1.0
  F  F9318  1  0.438200  0.509900  0.666300  1.0
  F  F9319  1  0.872400  0.376700  0.735700  1.0
  F  F9320  1  0.627600  0.623300  0.235700  1.0
  F  F9321  1  0.127600  0.623300  0.264300  1.0
  F  F9322  1  0.372400  0.376700  0.764300  1.0
  F  F9323  1  0.820800  0.370500  0.742300  1.0
  F  F9324  1  0.679200  0.629500  0.242300  1.0
  F  F9325  1  0.179200  0.629500  0.257700  1.0
  F  F9326  1  0.320800  0.370500  0.757700  1.0
  F  F9327  1  0.132900  0.520400  0.725900  1.0
  F  F9328  1  0.367100  0.479600  0.225900  1.0
  F  F9329  1  0.867100  0.479600  0.274100  1.0
  F  F9330  1  0.632900  0.520400  0.774100  1.0
  F  F9331  1  0.147400  0.526200  0.697200  1.0
  F  F9332  1  0.352600  0.473800  0.197200  1.0
  F  F9333  1  0.852600  0.473800  0.302800  1.0
  F  F9334  1  0.647400  0.526200  0.802800  1.0
  F  F9335  1  0.147300  0.478800  0.728400  1.0
  F  F9336  1  0.352700  0.521200  0.228400  1.0
  F  F9337  1  0.852700  0.521200  0.271600  1.0
  F  F9338  1  0.647300  0.478800  0.771600  1.0
  F  F9339  1  0.183100  0.525500  0.718200  1.0
  F  F9340  1  0.316900  0.474500  0.218200  1.0
  F  F9341  1  0.816900  0.474500  0.281800  1.0
  F  F9342  1  0.683100  0.525500  0.781800  1.0
  F  F9343  1  0.161600  0.484600  0.699700  1.0
  F  F9344  1  0.338400  0.515400  0.199700  1.0
  F  F9345  1  0.838400  0.515400  0.300300  1.0
  F  F9346  1  0.661600  0.484600  0.800300  1.0
  F  F9347  1  0.111400  0.479800  0.707600  1.0
  F  F9348  1  0.388600  0.520200  0.207600  1.0
  F  F9349  1  0.888600  0.520200  0.292400  1.0
  F  F9350  1  0.611400  0.479800  0.792400  1.0
  F  F9351  1  0.086600  0.341400  0.883600  1.0
  F  F9352  1  0.413400  0.658600  0.383600  1.0
  F  F9353  1  0.913400  0.658600  0.116400  1.0
  F  F9354  1  0.586600  0.341400  0.616400  1.0
  F  F9355  1  0.122500  0.348800  0.905400  1.0
  F  F9356  1  0.377500  0.651200  0.405400  1.0
  F  F9357  1  0.877500  0.651200  0.094600  1.0
  F  F9358  1  0.622500  0.348800  0.594600  1.0
  F  F9359  1  0.050700  0.345600  0.902900  1.0
  F  F9360  1  0.449300  0.654400  0.402900  1.0
  F  F9361  1  0.949300  0.654400  0.097100  1.0
  F  F9362  1  0.550700  0.345600  0.597100  1.0
  F  F9363  1  0.100700  0.385100  0.900400  1.0
  F  F9364  1  0.399300  0.614900  0.400400  1.0
  F  F9365  1  0.899300  0.614900  0.099600  1.0
  F  F9366  1  0.600700  0.385100  0.599600  1.0
  F  F9367  1  0.087200  0.354000  0.924700  1.0
  F  F9368  1  0.412800  0.646000  0.424700  1.0
  F  F9369  1  0.912800  0.646000  0.075300  1.0
  F  F9370  1  0.587200  0.354000  0.575300  1.0
  F  F9371  1  0.654000  0.008100  0.361900  0.458
  F  F9372  1  0.846000  0.991900  0.861900  0.458
  F  F9373  1  0.346000  0.991900  0.638100  0.458
  F  F9374  1  0.154000  0.008100  0.138100  0.458
  F  F9375  1  0.683200  0.046600  0.380690  0.458
  F  F9376  1  0.816800  0.953400  0.880690  0.458
  F  F9377  1  0.316800  0.953400  0.619310  0.458
  F  F9378  1  0.183200  0.046600  0.119310  0.458
  F  F9379  1  0.629900  0.020000  0.385500  0.458
  F  F9380  1  0.870100  0.980000  0.885500  0.458
  F  F9381  1  0.370100  0.980000  0.614500  0.458
  F  F9382  1  0.129900  0.020000  0.114500  0.458
  F  F9383  1  0.619000  0.032700  0.358500  0.458
  F  F9384  1  0.881000  0.967300  0.858500  0.458
  F  F9385  1  0.381000  0.967300  0.641500  0.458
  F  F9386  1  0.119000  0.032700  0.141500  0.458
  F  F9387  1  0.672400  0.058900  0.353510  0.458
  F  F9388  1  0.827600  0.941100  0.853510  0.458
  F  F9389  1  0.327600  0.941100  0.646490  0.458
  F  F9390  1  0.172400  0.058900  0.146490  0.458
  F  F9391  1  0.649000  0.071200  0.377200  0.458
  F  F9392  1  0.851000  0.928800  0.877200  0.458
  F  F9393  1  0.351000  0.928800  0.622800  0.458
  F  F9394  1  0.149000  0.071200  0.122800  0.458
  F  F9395  1  0.488100  0.485800  0.981080  0.5
  F  F9396  1  0.011900  0.514200  0.481080  0.5
  F  F9397  1  0.511900  0.514200  0.018920  0.5
  F  F9398  1  0.988100  0.485800  0.518920  0.5
  F  F9399  1  0.465400  0.500700  0.004300  0.5
  F  F9400  1  0.034600  0.499300  0.504300  0.5
  F  F9401  1  0.534600  0.499300  0.995700  0.5
  F  F9402  1  0.965400  0.500700  0.495700  0.5
  F  F9403  1  0.487200  0.465400  0.008200  0.5
  F  F9404  1  0.012800  0.534600  0.508200  0.5
  F  F9405  1  0.512800  0.534600  0.991800  0.5
  F  F9406  1  0.987200  0.465400  0.491800  0.5
  F  F9407  1  0.195700  0.621000  0.841700  0.5
  F  F9408  1  0.304300  0.379000  0.341700  0.5
  F  F9409  1  0.804300  0.379000  0.158300  0.5
  F  F9410  1  0.695700  0.621000  0.658300  0.5
  F  F9411  1  0.162200  0.577900  0.874400  0.5
  F  F9412  1  0.337800  0.422100  0.374400  0.5
  F  F9413  1  0.837800  0.422100  0.125600  0.5
  F  F9414  1  0.662200  0.577900  0.625600  0.5
  F  F9415  1  0.144300  0.591300  0.849400  0.5
  F  F9416  1  0.355700  0.408700  0.349400  0.5
  F  F9417  1  0.855700  0.408700  0.150600  0.5
  F  F9418  1  0.644300  0.591300  0.650600  0.5
  F  F9419  1  0.181400  0.569600  0.848300  0.5
  F  F9420  1  0.318600  0.430400  0.348300  0.5
  F  F9421  1  0.818600  0.430400  0.151700  0.5
  F  F9422  1  0.681400  0.569600  0.651700  0.5
  F  F9423  1  0.213800  0.607400  0.866600  0.5
  F  F9424  1  0.286200  0.392600  0.366600  0.5
  F  F9425  1  0.786200  0.392600  0.133400  0.5
  F  F9426  1  0.713800  0.607400  0.633400  0.5
  F  F9427  1  0.176200  0.629400  0.867800  0.5
  F  F9428  1  0.323800  0.370600  0.367800  0.5
  F  F9429  1  0.823800  0.370600  0.132200  0.5
  F  F9430  1  0.676200  0.629400  0.632200  0.5
  F  F9431  1  0.184000  0.575800  0.864900  0.5
  F  F9432  1  0.316000  0.424200  0.364900  0.5
  F  F9433  1  0.816000  0.424200  0.135100  0.5
  F  F9434  1  0.684000  0.575800  0.635100  0.5
  F  F9435  1  0.206500  0.626700  0.856980  0.5
  F  F9436  1  0.293500  0.373300  0.356980  0.5
  F  F9437  1  0.793500  0.373300  0.143020  0.5
  F  F9438  1  0.706500  0.626700  0.643020  0.5
  F  F9439  1  0.222600  0.610800  0.882200  0.5
  F  F9440  1  0.277400  0.389200  0.382200  0.5
  F  F9441  1  0.777400  0.389200  0.117800  0.5
  F  F9442  1  0.722600  0.610800  0.617800  0.5
  F  F9443  1  0.153800  0.605400  0.865900  0.5
  F  F9444  1  0.346200  0.394600  0.365900  0.5
  F  F9445  1  0.846200  0.394600  0.134100  0.5
  F  F9446  1  0.653800  0.605400  0.634100  0.5
  F  F9447  1  0.192600  0.640100  0.883200  0.5
  F  F9448  1  0.307400  0.359900  0.383200  0.5
  F  F9449  1  0.807400  0.359900  0.116800  0.5
  F  F9450  1  0.692600  0.640100  0.616800  0.5
  F  F9451  1  0.170300  0.589500  0.890900  0.5
  F  F9452  1  0.329700  0.410500  0.390900  0.5
  F  F9453  1  0.829700  0.410500  0.109100  0.5
  F  F9454  1  0.670300  0.589500  0.609100  0.5
  F  F9455  1  0.628300  0.010700  0.370950  0.542
  F  F9456  1  0.871700  0.989300  0.870950  0.542
  F  F9457  1  0.371700  0.989300  0.629050  0.542
  F  F9458  1  0.128300  0.010700  0.129050  0.542
  F  F9459  1  0.680500  0.035700  0.358850  0.542
  F  F9460  1  0.819500  0.964300  0.858850  0.542
  F  F9461  1  0.319500  0.964300  0.641150  0.542
  F  F9462  1  0.180500  0.035700  0.141150  0.542
  F  F9463  1  0.644300  0.998500  0.343400  0.542
  F  F9464  1  0.855700  0.001500  0.843400  0.542
  F  F9465  1  0.355700  0.001500  0.656600  0.542
  F  F9466  1  0.144300  0.998500  0.156600  0.542
  F  F9467  1  0.657200  0.048000  0.334100  0.542
  F  F9468  1  0.842800  0.952000  0.834100  0.542
  F  F9469  1  0.342800  0.952000  0.665900  0.542
  F  F9470  1  0.157200  0.048000  0.165900  0.542
  F  F9471  1  0.608500  0.024400  0.346000  0.542
  F  F9472  1  0.891500  0.975600  0.846000  0.542
  F  F9473  1  0.391500  0.975600  0.654000  0.542
  F  F9474  1  0.108500  0.024400  0.154000  0.542
  F  F9475  1  0.644900  0.061900  0.361500  0.542
  F  F9476  1  0.855100  0.938100  0.861500  0.542
  F  F9477  1  0.355100  0.938100  0.638500  0.542
  F  F9478  1  0.144900  0.061900  0.138500  0.542
