
#######################################################################
#
#                 Cambridge Crystallographic Data Centre
#                                CCDC 
#
#######################################################################
#
# If this CIF has been generated from an entry in the Cambridge 
# Structural Database, then it will include bibliographic, chemical, 
# crystal, experimental, refinement or atomic coordinate data resulting 
# from the CCDC's data processing and validation procedures.
#
#######################################################################

data_IFOMOH
_chemical_formula_moiety         'C30 H28 N4 O6 Pd1,2(C2 H3 N1)'
_chemical_name_systematic        
'(2,9-Dimesityl-1,10-phenanthroline)-bis(nitrato)-palladium(ii) acetonitrile solvate'
_symmetry_cell_setting           triclinic
_symmetry_space_group_name_H-M   'P 1'
_symmetry_Int_Tables_number      1
_space_group_name_Hall           'P 1'
loop_
_symmetry_equiv_pos_site_id
_symmetry_equiv_pos_as_xyz
1 x,y,z
_cell_length_a                   11.5814(11)
_cell_length_b                   11.7027(11)
_cell_length_c                   14.1322(14)
_cell_angle_alpha                71.2410(10)
_cell_angle_beta                 89.3590(10)
_cell_angle_gamma                68.9890(10)
_cell_volume                     1681.27
_exptl_crystal_colour            yellow
_exptl_crystal_description       block
_cell_formula_units_Z            2
loop_
_atom_site_label
_atom_site_type_symbol
_atom_site_fract_x
_atom_site_fract_y
_atom_site_fract_z
C1 C -0.0743(10) 1.1028(10) 0.2079(8)
C2 C 0.1193(9) 0.8112(9) 0.6711(7)
C3 C -0.0912(8) 0.9225(8) 0.6029(6)
C4 C 0.2994(9) 0.7040(9) 0.5899(7)
C5 C 0.3345(9) 0.7782(9) 0.7251(7)
C6 C -0.1776(9) 1.0076(9) 0.5159(7)
C7 C 0.2576(9) 0.7649(9) 0.6568(7)
C8 C 0.2162(8) 0.6857(8) 0.5204(7)
H1 H 0.2666 0.6411 0.4774
H2 H 0.1562 0.7708 0.4784
H3 H 0.1715 0.6331 0.5600
C9 C -0.1333(9) 0.8552(8) 0.6902(7)
C10 C -0.2629(10) 0.8776(9) 0.6886(7)
H4 H -0.2930 0.8379 0.7481
C11 C -0.0428(9) 0.7690(8) 0.7741(6)
H5 H -0.0665 0.7285 0.8368
C12 C 0.4658(10) 0.7242(10) 0.7163(8)
H6 H 0.5233 0.7312 0.7596
C13 C -0.3042(8) 1.0189(9) 0.5169(7)
C14 C 0.4262(8) 0.6562(8) 0.5841(7)
H7 H 0.4568 0.6172 0.5348
C15 C -0.3811(9) 1.0964(9) 0.4265(7)
H8 H -0.4672 1.1106 0.4205
C16 C -0.0454(10) 1.1558(10) 0.1115(8)
H9 H 0.0075 1.1000 0.0795
C17 C 0.0832(7) 0.7459(8) 0.7605(7)
H10 H 0.1456 0.6840 0.8139
C18 C 0.6474(10) 0.6024(10) 0.6453(9)
H11 H 0.6609 0.5632 0.5925
H12 H 0.6866 0.5349 0.7104
H13 H 0.6843 0.6688 0.6305
C19 C -0.3424(9) 0.9527(9) 0.6060(7)
H14 H -0.4273 0.9620 0.6070
C20 C -0.0185(9) 0.9618(9) 0.2617(6)
H15 H 0.0365 0.9196 0.2196
H16 H -0.0845 0.9270 0.2769
H17 H 0.0298 0.9448 0.3246
C21 C -0.2120(11) 1.3285(10) 0.1966(8)
C22 C 0.5098(9) 0.6645(9) 0.6493(7)
C23 C -0.2063(9) 1.1340(8) 0.3474(6)
C24 C -0.1609(9) 1.1874(9) 0.2514(7)
C25 C -0.3264(8) 1.1517(8) 0.3458(7)
H18 H -0.3788 1.2066 0.2846
C26 C 0.2968(9) 0.8461(10) 0.8008(8)
H19 H 0.2059 0.8795 0.7987
H20 H 0.3256 0.9187 0.7849
H21 H 0.3344 0.7845 0.8683
C27 C -0.2995(11) 1.4245(9) 0.2414(8)
H22 H -0.3225 1.5132 0.1935
H23 H -0.2575 1.4172 0.3041
H24 H -0.3746 1.4049 0.2553
C28 C -0.1813(11) 1.3716(10) 0.1019(9)
H25 H -0.2227 1.4609 0.0628
C29 C -0.0954(13) 1.2949(12) 0.0601(9)
C30 C -0.0485(17) 1.3424(14) -0.0414(9)
H26 H -0.0892 1.4373 -0.0708
H27 H -0.0684 1.3023 -0.0868
H28 H 0.0418 1.3180 -0.0313
N1 N -0.1269(8) 1.0628(8) 0.4360(6)
N2 N 0.0342(8) 0.9014(8) 0.5939(6)
N3 N 0.0182(8) 1.2996(7) 0.3548(5)
N4 N 0.3066(7) 0.9741(7) 0.4552(6)
O1 O 0.0635(8) 1.1830(7) 0.3487(6)
O2 O 0.0415(7) 1.3826(7) 0.2903(5)
O3 O -0.0427(7) 1.3163(7) 0.4245(5)
O4 O 0.2253(7) 1.0129(7) 0.5150(6)
O5 O 0.2740(6) 0.9432(6) 0.3863(5)
O6 O 0.4115(5) 0.9654(5) 0.4793(4)
Pd1 Pd 0.05021(2) 1.03700(2) 0.468882(18)
C31 C 0.6911(10) -0.0212(10) 1.1263(7)
C32 C 0.4957(8) 0.2764(8) 0.6628(6)
C33 C 0.2747(10) 0.3119(10) 0.6061(7)
C34 C 0.3162(9) 0.3827(8) 0.7443(7)
C35 C 0.6552(10) 0.3146(9) 0.5638(7)
H29 H 0.6800 0.3566 0.5022
C36 C 0.7040(8) 0.1671(8) 0.7309(7)
C37 C 0.7904(8) 0.0818(8) 0.8170(6)
C38 C 0.3640(9) 0.3188(8) 0.6708(7)
C39 C 0.4025(9) 0.4032(9) 0.8118(7)
H30 H 0.4888 0.3645 0.7990
H31 H 0.3944 0.3616 0.8825
H32 H 0.3802 0.4966 0.7976
C40 C 0.8752(8) 0.2112(8) 0.6435(7)
H33 H 0.9036 0.2537 0.5841
C41 C 0.1521(8) 0.3632(8) 0.6108(6)
H34 H 0.0960 0.3577 0.5655
C42 C 0.7453(9) 0.2294(9) 0.6444(7)
C43 C 0.6593(11) -0.0752(11) 1.2211(7)
H35 H 0.5974 -0.0193 1.2479
C44 C 0.9961(10) -0.0136(10) 0.9088(8)
H36 H 1.0824 -0.0288 0.9098
C45 C 0.9142(8) 0.0660(9) 0.8179(6)
C46 C 0.1038(9) 0.4256(10) 0.6820(8)
C47 C 0.5385(9) 0.3376(9) 0.5710(7)
H37 H 0.4792 0.3964 0.5145
C48 C 0.1864(9) 0.4335(9) 0.7458(8)
H38 H 0.1546 0.4754 0.7933
C49 C 0.9579(8) 0.1329(8) 0.7281(6)
H39 H 1.0431 0.1225 0.7280
C50 C 0.6345(7) 0.1282(8) 1.0753(6)
H40 H 0.6614 0.1522 1.0082
H41 H 0.6626 0.1691 1.1161
H42 H 0.5434 0.1583 1.0692
C51 C 0.8231(10) -0.2334(11) 1.1319(8)
C52 C 0.9529(7) -0.0662(8) 0.9913(7)
H43 H 1.0064 -0.1134 1.0528
C53 C 0.8195(9) -0.0510(9) 0.9874(7)
C54 C 0.7721(9) -0.1057(9) 1.0837(6)
C55 C 0.3248(7) 0.2379(9) 0.5345(7)
H44 H 0.2551 0.2407 0.4939
H45 H 0.3760 0.1471 0.5732
H46 H 0.3756 0.2779 0.4901
C56 C 0.9071(11) -0.3299(7) 1.0871(8)
H47 H 0.9307 -0.4183 1.1357
H48 H 0.9822 -0.3108 1.0709
H49 H 0.8630 -0.3233 1.0256
C57 C 0.6845(12) -0.2597(12) 1.3830(8)
H50 H 0.6264 -0.1910 1.4048
H51 H 0.7627 -0.3026 1.4283
H52 H 0.6479 -0.3238 1.3847
C58 C 0.7107(13) -0.1998(13) 1.2755(9)
C59 C 0.7876(13) -0.2857(12) 1.2290(8)
H53 H 0.8155 -0.3772 1.2619
C60 C -0.0369(9) 0.4787(10) 0.6850(9)
H54 H -0.0782 0.4619 0.6337
H55 H -0.0667 0.5727 0.6718
H56 H -0.0561 0.4355 0.7516
N5 N 0.7472(8) 0.0178(8) 0.9033(6)
N6 N 0.5821(8) 0.1854(8) 0.7385(6)
N7 N 0.3094(7) 0.1118(8) 0.8813(6)
N8 N 0.5988(8) -0.2113(7) 0.9784(6)
O7 O 0.3927(8) 0.0725(8) 0.8216(7)
O8 O 0.3414(7) 0.1415(6) 0.9480(5)
O9 O 0.2051(6) 0.1101(6) 0.8702(4)
O10 O 0.5513(8) -0.0952(7) 0.9848(5)
O11 O 0.5845(6) -0.3022(6) 1.0463(5)
O12 O 0.6595(8) -0.2286(6) 0.9088(5)
Pd2 Pd 0.56464(2) 0.04868(2) 0.865107(18)
N9 N 0.1981(6) 0.5286(8) -0.0065(6)
C61 C 0.2938(6) 0.5283(8) 0.0183(7)
C62 C 0.4213(6) 0.5168(7) 0.0489(5)
H57 H 0.4153 0.5860 0.0756
H58 H 0.4677 0.5249 -0.0097
H59 H 0.4646 0.4318 0.1008
C63 C 0.3858(7) 0.2460(9) 0.2332(6)
H60 H 0.4695 0.1946 0.2227
H61 H 0.3782 0.2223 0.3054
H62 H 0.3716 0.3388 0.2050
C64 C 0.3008(8) 0.2218(11) 0.1871(8)
N10 N 0.2151(6) 0.2120(7) 0.1539(5)
N11 N 0.2339(6) 0.8143(7) 0.0886(5)
C65 C 0.3041(4) 0.8381(4) 0.1295(3)
C66 C 0.4081(8) 0.8425(10) 0.1911(7)
H63 H 0.4743 0.8520 0.1491
H64 H 0.4419 0.7616 0.2489
H65 H 0.3752 0.9166 0.2149
N12 N 0.4138(7) 0.5362(8) 0.3379(6)
C67 C 0.3181(9) 0.5453(13) 0.3074(10)
C68 C 0.1934(14) 0.569(2) 0.2631(17)
H66 H 0.1303 0.6342 0.2855
H67 H 0.1784 0.4881 0.2848
H68 H 0.1886 0.6021 0.1895
loop_
_geom_bond_atom_site_label_1
_geom_bond_atom_site_label_2
_geom_bond_site_symmetry_1
_geom_bond_site_symmetry_2
C1 C16 1_555 1_555
C2 C7 1_555 1_555
C3 C6 1_555 1_555
C4 C7 1_555 1_555
C5 C7 1_555 1_555
C6 C13 1_555 1_555
C8 C4 1_555 1_555
H1 C8 1_555 1_555
H2 C8 1_555 1_555
H3 C8 1_555 1_555
C9 C3 1_555 1_555
C10 C9 1_555 1_555
H4 C10 1_555 1_555
C11 C9 1_555 1_555
H5 C11 1_555 1_555
C12 C5 1_555 1_555
H6 C12 1_555 1_555
C13 C15 1_555 1_555
C14 C4 1_555 1_555
H7 C14 1_555 1_555
C15 H8 1_555 1_555
C16 H9 1_555 1_555
C17 C2 1_555 1_555
H10 C17 1_555 1_555
C18 H11 1_555 1_555
H12 C18 1_555 1_555
H13 C18 1_555 1_555
C19 C10 1_555 1_555
H14 C19 1_555 1_555
C20 C1 1_555 1_555
H15 C20 1_555 1_555
H16 C20 1_555 1_555
H17 C20 1_555 1_555
C21 C24 1_555 1_555
C22 C12 1_555 1_555
C23 C24 1_555 1_555
C24 C1 1_555 1_555
C25 C15 1_555 1_555
H18 C25 1_555 1_555
C26 C5 1_555 1_555
H19 C26 1_555 1_555
H20 C26 1_555 1_555
H21 C26 1_555 1_555
C27 C21 1_555 1_555
H22 C27 1_555 1_555
H23 C27 1_555 1_555
H24 C27 1_555 1_555
C28 C21 1_555 1_555
H25 C28 1_555 1_555
C29 C16 1_555 1_555
C30 C29 1_555 1_555
H26 C30 1_555 1_555
H27 C30 1_555 1_555
H28 C30 1_555 1_555
N1 C6 1_555 1_555
N2 C2 1_555 1_555
N3 O1 1_555 1_555
N4 O4 1_555 1_555
O1 Pd1 1_555 1_555
O2 N3 1_555 1_555
O3 N3 1_555 1_555
O4 Pd1 1_555 1_555
O5 N4 1_555 1_555
O6 N4 1_555 1_555
Pd1 N1 1_555 1_555
C31 C43 1_555 1_555
C32 C38 1_555 1_555
C33 C38 1_555 1_555
C34 C38 1_555 1_555
C35 H29 1_555 1_555
C36 C37 1_555 1_555
C37 C45 1_555 1_555
C39 C34 1_555 1_555
H30 C39 1_555 1_555
H31 C39 1_555 1_555
H32 C39 1_555 1_555
C40 H33 1_555 1_555
C41 C33 1_555 1_555
H34 C41 1_555 1_555
C42 C35 1_555 1_555
C43 H35 1_555 1_555
C44 H36 1_555 1_555
C45 C44 1_555 1_555
C46 C41 1_555 1_555
C47 C32 1_555 1_555
H37 C47 1_555 1_555
C48 C34 1_555 1_555
H38 C48 1_555 1_555
C49 C40 1_555 1_555
H39 C49 1_555 1_555
C50 C31 1_555 1_555
H40 C50 1_555 1_555
H41 C50 1_555 1_555
H42 C50 1_555 1_555
C51 C54 1_555 1_555
C52 C44 1_555 1_555
H43 C52 1_555 1_555
C53 C52 1_555 1_555
C54 C31 1_555 1_555
C55 C33 1_555 1_555
H44 C55 1_555 1_555
H45 C55 1_555 1_555
H46 C55 1_555 1_555
C56 C51 1_555 1_555
H47 C56 1_555 1_555
H48 C56 1_555 1_555
H49 C56 1_555 1_555
C57 H50 1_555 1_555
H51 C57 1_555 1_555
H52 C57 1_555 1_555
C58 C43 1_555 1_555
C59 C51 1_555 1_555
H53 C59 1_555 1_555
C60 C46 1_555 1_555
H54 C60 1_555 1_555
H55 C60 1_555 1_555
H56 C60 1_555 1_555
N5 C37 1_555 1_555
N6 C32 1_555 1_555
N7 O7 1_555 1_555
N8 O10 1_555 1_555
O7 Pd2 1_555 1_555
O8 N7 1_555 1_555
O9 N7 1_555 1_555
O10 Pd2 1_555 1_555
O11 N8 1_555 1_555
O12 N8 1_555 1_555
Pd2 N5 1_555 1_555
N9 C61 1_555 1_555
C61 C62 1_555 1_555
C62 H57 1_555 1_555
H58 C62 1_555 1_555
H59 C62 1_555 1_555
C63 H60 1_555 1_555
H61 C63 1_555 1_555
H62 C63 1_555 1_555
C64 C63 1_555 1_555
N10 C64 1_555 1_555
N11 C65 1_555 1_555
C65 C66 1_555 1_555
C66 H63 1_555 1_555
H64 C66 1_555 1_555
H65 C66 1_555 1_555
N12 C67 1_555 1_555
C67 C68 1_555 1_555
C68 H66 1_555 1_555
H67 C68 1_555 1_555
H68 C68 1_555 1_555
C3 N2 1_555 1_555
C11 C17 1_555 1_555
C13 C19 1_555 1_555
C14 C22 1_555 1_555
C18 C22 1_555 1_555
C23 C25 1_555 1_555
C23 N1 1_555 1_555
C28 C29 1_555 1_555
N2 Pd1 1_555 1_555
C35 C47 1_555 1_555
C36 C42 1_555 1_555
C36 N6 1_555 1_555
C40 C42 1_555 1_555
C45 C49 1_555 1_555
C46 C48 1_555 1_555
C53 C54 1_555 1_555
C53 N5 1_555 1_555
C57 C58 1_555 1_555
C58 C59 1_555 1_555
N6 Pd2 1_555 1_555

#END
