# generated using pymatgen
data_Fe2H54C85S5N14(O10F9)2
_symmetry_space_group_name_H-M   'P 1'
_cell_length_a   19.05490000
_cell_length_b   28.16550000
_cell_length_c   32.53304805
_cell_angle_alpha   109.40695602
_cell_angle_beta   90.00000000
_cell_angle_gamma   90.00000000
_symmetry_Int_Tables_number   1
_chemical_formula_structural   Fe2H54C85S5N14(O10F9)2
_chemical_formula_sum   'Fe16 H432 C680 S40 N112 O160 F144'
_cell_volume   16468.13988399
_cell_formula_units_Z   8
loop_
 _symmetry_equiv_pos_site_id
 _symmetry_equiv_pos_as_xyz
  1  'x, y, z'
loop_
 _atom_site_type_symbol
 _atom_site_label
 _atom_site_symmetry_multiplicity
 _atom_site_fract_x
 _atom_site_fract_y
 _atom_site_fract_z
 _atom_site_occupancy
  Fe  Fe1  1  0.015210  0.854600  0.889260  1.0
  Fe  Fe2  1  0.015210  0.645400  0.110740  1.0
  Fe  Fe3  1  0.515210  0.354600  0.389260  1.0
  Fe  Fe4  1  0.515210  0.145400  0.610740  1.0
  Fe  Fe5  1  0.984790  0.145400  0.110740  1.0
  Fe  Fe6  1  0.984790  0.354600  0.889260  1.0
  Fe  Fe7  1  0.484790  0.645400  0.610740  1.0
  Fe  Fe8  1  0.484790  0.854600  0.389260  1.0
  Fe  Fe9  1  0.635280  0.922720  0.134100  1.0
  Fe  Fe10  1  0.635280  0.577280  0.865900  1.0
  Fe  Fe11  1  0.135280  0.422720  0.634100  1.0
  Fe  Fe12  1  0.135280  0.077280  0.365900  1.0
  Fe  Fe13  1  0.364720  0.077280  0.865900  1.0
  Fe  Fe14  1  0.364720  0.422720  0.134100  1.0
  Fe  Fe15  1  0.864720  0.577280  0.365900  1.0
  Fe  Fe16  1  0.864720  0.922720  0.634100  1.0
  H  H17  1  0.156400  0.825200  0.839100  1.0
  H  H18  1  0.156400  0.674800  0.160900  1.0
  H  H19  1  0.656400  0.325200  0.339100  1.0
  H  H20  1  0.656400  0.174800  0.660900  1.0
  H  H21  1  0.843600  0.174800  0.160900  1.0
  H  H22  1  0.843600  0.325200  0.839100  1.0
  H  H23  1  0.343600  0.674800  0.660900  1.0
  H  H24  1  0.343600  0.825200  0.339100  1.0
  H  H25  1  0.275600  0.826500  0.858900  1.0
  H  H26  1  0.275600  0.673500  0.141100  1.0
  H  H27  1  0.775600  0.326500  0.358900  1.0
  H  H28  1  0.775600  0.173500  0.641100  1.0
  H  H29  1  0.724400  0.173500  0.141100  1.0
  H  H30  1  0.724400  0.326500  0.858900  1.0
  H  H31  1  0.224400  0.673500  0.641100  1.0
  H  H32  1  0.224400  0.826500  0.358900  1.0
  H  H33  1  0.306500  0.862600  0.932200  1.0
  H  H34  1  0.306500  0.637400  0.067800  1.0
  H  H35  1  0.806500  0.362600  0.432200  1.0
  H  H36  1  0.806500  0.137400  0.567800  1.0
  H  H37  1  0.693500  0.137400  0.067800  1.0
  H  H38  1  0.693500  0.362600  0.932200  1.0
  H  H39  1  0.193500  0.637400  0.567800  1.0
  H  H40  1  0.193500  0.862600  0.432200  1.0
  H  H41  1  0.220900  0.897700  0.982900  1.0
  H  H42  1  0.220900  0.602300  0.017100  1.0
  H  H43  1  0.720900  0.397700  0.482900  1.0
  H  H44  1  0.720900  0.102300  0.517100  1.0
  H  H45  1  0.779100  0.102300  0.017100  1.0
  H  H46  1  0.779100  0.397700  0.982900  1.0
  H  H47  1  0.279100  0.602300  0.517100  1.0
  H  H48  1  0.279100  0.897700  0.482900  1.0
  H  H49  1  0.088900  0.917100  0.999700  1.0
  H  H50  1  0.088900  0.582900  0.000300  1.0
  H  H51  1  0.588900  0.417100  0.499700  1.0
  H  H52  1  0.588900  0.082900  0.500300  1.0
  H  H53  1  0.911100  0.082900  0.000300  1.0
  H  H54  1  0.911100  0.417100  0.999700  1.0
  H  H55  1  0.411100  0.582900  0.500300  1.0
  H  H56  1  0.411100  0.917100  0.499700  1.0
  H  H57  1  0.991000  0.857700  0.016700  1.0
  H  H58  1  0.991000  0.642300  0.983300  1.0
  H  H59  1  0.491000  0.357700  0.516700  1.0
  H  H60  1  0.491000  0.142300  0.483300  1.0
  H  H61  1  0.009000  0.142300  0.983300  1.0
  H  H62  1  0.009000  0.357700  0.016700  1.0
  H  H63  1  0.509000  0.642300  0.483300  1.0
  H  H64  1  0.509000  0.857700  0.516700  1.0
  H  H65  1  0.823900  0.977500  0.010500  1.0
  H  H66  1  0.823900  0.522500  0.989500  1.0
  H  H67  1  0.323900  0.477500  0.510500  1.0
  H  H68  1  0.323900  0.022500  0.489500  1.0
  H  H69  1  0.176100  0.022500  0.989500  1.0
  H  H70  1  0.176100  0.477500  0.010500  1.0
  H  H71  1  0.676100  0.522500  0.489500  1.0
  H  H72  1  0.676100  0.977500  0.510500  1.0
  H  H73  1  0.915700  0.956400  0.961800  1.0
  H  H74  1  0.915700  0.543600  0.038200  1.0
  H  H75  1  0.415700  0.456400  0.461800  1.0
  H  H76  1  0.415700  0.043600  0.538200  1.0
  H  H77  1  0.084300  0.043600  0.038200  1.0
  H  H78  1  0.084300  0.456400  0.961800  1.0
  H  H79  1  0.584300  0.543600  0.538200  1.0
  H  H80  1  0.584300  0.956400  0.461800  1.0
  H  H81  1  0.930800  0.847100  0.080700  1.0
  H  H82  1  0.930800  0.652900  0.919300  1.0
  H  H83  1  0.430800  0.347100  0.580700  1.0
  H  H84  1  0.430800  0.152900  0.419300  1.0
  H  H85  1  0.069200  0.152900  0.919300  1.0
  H  H86  1  0.069200  0.347100  0.080700  1.0
  H  H87  1  0.569200  0.652900  0.419300  1.0
  H  H88  1  0.569200  0.847100  0.580700  1.0
  H  H89  1  0.839700  0.868800  0.130900  1.0
  H  H90  1  0.839700  0.631200  0.869100  1.0
  H  H91  1  0.339700  0.368800  0.630900  1.0
  H  H92  1  0.339700  0.131200  0.369100  1.0
  H  H93  1  0.160300  0.131200  0.869100  1.0
  H  H94  1  0.160300  0.368800  0.130900  1.0
  H  H95  1  0.660300  0.631200  0.369100  1.0
  H  H96  1  0.660300  0.868800  0.630900  1.0
  H  H97  1  0.758100  0.963200  0.072200  1.0
  H  H98  1  0.758100  0.536800  0.927800  1.0
  H  H99  1  0.258100  0.463200  0.572200  1.0
  H  H100  1  0.258100  0.036800  0.427800  1.0
  H  H101  1  0.241900  0.036800  0.927800  1.0
  H  H102  1  0.241900  0.463200  0.072200  1.0
  H  H103  1  0.741900  0.536800  0.427800  1.0
  H  H104  1  0.741900  0.963200  0.572200  1.0
  H  H105  1  0.806400  0.964900  0.185500  1.0
  H  H106  1  0.806400  0.535100  0.814500  1.0
  H  H107  1  0.306400  0.464900  0.685500  1.0
  H  H108  1  0.306400  0.035100  0.314500  1.0
  H  H109  1  0.193600  0.035100  0.814500  1.0
  H  H110  1  0.193600  0.464900  0.185500  1.0
  H  H111  1  0.693600  0.535100  0.314500  1.0
  H  H112  1  0.693600  0.964900  0.685500  1.0
  H  H113  1  0.766100  0.009600  0.266200  1.0
  H  H114  1  0.766100  0.490400  0.733800  1.0
  H  H115  1  0.266100  0.509600  0.766200  1.0
  H  H116  1  0.266100  0.990400  0.233800  1.0
  H  H117  1  0.233900  0.990400  0.733800  1.0
  H  H118  1  0.233900  0.509600  0.266200  1.0
  H  H119  1  0.733900  0.490400  0.233800  1.0
  H  H120  1  0.733900  0.009600  0.766200  1.0
  H  H121  1  0.673400  0.039200  0.312600  1.0
  H  H122  1  0.673400  0.460800  0.687400  1.0
  H  H123  1  0.173400  0.539200  0.812600  1.0
  H  H124  1  0.173400  0.960800  0.187400  1.0
  H  H125  1  0.326600  0.960800  0.687400  1.0
  H  H126  1  0.326600  0.539200  0.312600  1.0
  H  H127  1  0.826600  0.460800  0.187400  1.0
  H  H128  1  0.826600  0.039200  0.812600  1.0
  H  H129  1  0.557500  0.010800  0.287800  1.0
  H  H130  1  0.557500  0.489200  0.712200  1.0
  H  H131  1  0.057500  0.510800  0.787800  1.0
  H  H132  1  0.057500  0.989200  0.212200  1.0
  H  H133  1  0.442500  0.989200  0.712200  1.0
  H  H134  1  0.442500  0.510800  0.287800  1.0
  H  H135  1  0.942500  0.489200  0.212200  1.0
  H  H136  1  0.942500  0.010800  0.787800  1.0
  H  H137  1  0.541900  0.960900  0.215600  1.0
  H  H138  1  0.541900  0.539100  0.784400  1.0
  H  H139  1  0.041900  0.460900  0.715600  1.0
  H  H140  1  0.041900  0.039100  0.284400  1.0
  H  H141  1  0.458100  0.039100  0.784400  1.0
  H  H142  1  0.458100  0.460900  0.215600  1.0
  H  H143  1  0.958100  0.539100  0.284400  1.0
  H  H144  1  0.958100  0.960900  0.715600  1.0
  H  H145  1  0.492400  0.974400  0.125800  1.0
  H  H146  1  0.492400  0.525600  0.874200  1.0
  H  H147  1  0.992400  0.474400  0.625800  1.0
  H  H148  1  0.992400  0.025600  0.374200  1.0
  H  H149  1  0.507600  0.025600  0.874200  1.0
  H  H150  1  0.507600  0.474400  0.125800  1.0
  H  H151  1  0.007600  0.525600  0.374200  1.0
  H  H152  1  0.007600  0.974400  0.625800  1.0
  H  H153  1  0.375900  0.957900  0.133500  1.0
  H  H154  1  0.375900  0.542100  0.866500  1.0
  H  H155  1  0.875900  0.457900  0.633500  1.0
  H  H156  1  0.875900  0.042100  0.366500  1.0
  H  H157  1  0.624100  0.042100  0.866500  1.0
  H  H158  1  0.624100  0.457900  0.133500  1.0
  H  H159  1  0.124100  0.542100  0.366500  1.0
  H  H160  1  0.124100  0.957900  0.633500  1.0
  H  H161  1  0.343400  0.885400  0.146400  1.0
  H  H162  1  0.343400  0.614600  0.853600  1.0
  H  H163  1  0.843400  0.385400  0.646400  1.0
  H  H164  1  0.843400  0.114600  0.353600  1.0
  H  H165  1  0.656600  0.114600  0.853600  1.0
  H  H166  1  0.656600  0.385400  0.146400  1.0
  H  H167  1  0.156600  0.614600  0.353600  1.0
  H  H168  1  0.156600  0.885400  0.646400  1.0
  H  H169  1  0.430700  0.829200  0.153500  1.0
  H  H170  1  0.430700  0.670800  0.846500  1.0
  H  H171  1  0.930700  0.329200  0.653500  1.0
  H  H172  1  0.930700  0.170800  0.346500  1.0
  H  H173  1  0.569300  0.170800  0.846500  1.0
  H  H174  1  0.569300  0.329200  0.153500  1.0
  H  H175  1  0.069300  0.670800  0.346500  1.0
  H  H176  1  0.069300  0.829200  0.653500  1.0
  H  H177  1  0.563500  0.809100  0.152000  1.0
  H  H178  1  0.563500  0.690900  0.848000  1.0
  H  H179  1  0.063500  0.309100  0.652000  1.0
  H  H180  1  0.063500  0.190900  0.348000  1.0
  H  H181  1  0.436500  0.190900  0.848000  1.0
  H  H182  1  0.436500  0.309100  0.152000  1.0
  H  H183  1  0.936500  0.690900  0.348000  1.0
  H  H184  1  0.936500  0.809100  0.652000  1.0
  H  H185  1  0.737800  0.870300  0.199200  1.0
  H  H186  1  0.737800  0.629700  0.800800  1.0
  H  H187  1  0.237800  0.370300  0.699200  1.0
  H  H188  1  0.237800  0.129700  0.300800  1.0
  H  H189  1  0.262200  0.129700  0.800800  1.0
  H  H190  1  0.262200  0.370300  0.199200  1.0
  H  H191  1  0.762200  0.629700  0.300800  1.0
  H  H192  1  0.762200  0.870300  0.699200  1.0
  H  H193  1  0.829000  0.817300  0.201600  1.0
  H  H194  1  0.829000  0.682700  0.798400  1.0
  H  H195  1  0.329000  0.317300  0.701600  1.0
  H  H196  1  0.329000  0.182700  0.298400  1.0
  H  H197  1  0.171000  0.182700  0.798400  1.0
  H  H198  1  0.171000  0.317300  0.201600  1.0
  H  H199  1  0.671000  0.682700  0.298400  1.0
  H  H200  1  0.671000  0.817300  0.701600  1.0
  H  H201  1  0.658500  0.767400  0.091200  1.0
  H  H202  1  0.658500  0.732600  0.908800  1.0
  H  H203  1  0.158500  0.267400  0.591200  1.0
  H  H204  1  0.158500  0.232600  0.408800  1.0
  H  H205  1  0.341500  0.232600  0.908800  1.0
  H  H206  1  0.341500  0.267400  0.091200  1.0
  H  H207  1  0.841500  0.732600  0.408800  1.0
  H  H208  1  0.841500  0.767400  0.591200  1.0
  H  H209  1  0.720700  0.683800  0.058900  1.0
  H  H210  1  0.720700  0.816200  0.941100  1.0
  H  H211  1  0.220700  0.183800  0.558900  1.0
  H  H212  1  0.220700  0.316200  0.441100  1.0
  H  H213  1  0.279300  0.316200  0.941100  1.0
  H  H214  1  0.279300  0.183800  0.058900  1.0
  H  H215  1  0.779300  0.816200  0.441100  1.0
  H  H216  1  0.779300  0.683800  0.558900  1.0
  H  H217  1  0.810900  0.630900  0.061500  1.0
  H  H218  1  0.810900  0.869100  0.938500  1.0
  H  H219  1  0.310900  0.130900  0.561500  1.0
  H  H220  1  0.310900  0.369100  0.438500  1.0
  H  H221  1  0.189100  0.369100  0.938500  1.0
  H  H222  1  0.189100  0.130900  0.061500  1.0
  H  H223  1  0.689100  0.869100  0.438500  1.0
  H  H224  1  0.689100  0.630900  0.561500  1.0
  H  H225  1  0.890800  0.734200  0.168800  1.0
  H  H226  1  0.890800  0.765800  0.831200  1.0
  H  H227  1  0.390800  0.234200  0.668800  1.0
  H  H228  1  0.390800  0.265800  0.331200  1.0
  H  H229  1  0.109200  0.265800  0.831200  1.0
  H  H230  1  0.109200  0.234200  0.168800  1.0
  H  H231  1  0.609200  0.765800  0.331200  1.0
  H  H232  1  0.609200  0.734200  0.668800  1.0
  H  H233  1  0.842200  0.594600  0.124800  1.0
  H  H234  1  0.842200  0.905400  0.875200  1.0
  H  H235  1  0.342200  0.094600  0.624800  1.0
  H  H236  1  0.342200  0.405400  0.375200  1.0
  H  H237  1  0.157800  0.405400  0.875200  1.0
  H  H238  1  0.157800  0.094600  0.124800  1.0
  H  H239  1  0.657800  0.905400  0.375200  1.0
  H  H240  1  0.657800  0.594600  0.624800  1.0
  H  H241  1  0.880400  0.507100  0.127700  1.0
  H  H242  1  0.880400  0.992900  0.872300  1.0
  H  H243  1  0.380400  0.007100  0.627700  1.0
  H  H244  1  0.380400  0.492900  0.372300  1.0
  H  H245  1  0.119600  0.492900  0.872300  1.0
  H  H246  1  0.119600  0.007100  0.127700  1.0
  H  H247  1  0.619600  0.992900  0.372300  1.0
  H  H248  1  0.619600  0.507100  0.627700  1.0
  H  H249  1  0.972600  0.452800  0.129900  1.0
  H  H250  1  0.972600  0.047200  0.870100  1.0
  H  H251  1  0.472600  0.952800  0.629900  1.0
  H  H252  1  0.472600  0.547200  0.370100  1.0
  H  H253  1  0.027400  0.547200  0.870100  1.0
  H  H254  1  0.027400  0.952800  0.129900  1.0
  H  H255  1  0.527400  0.047200  0.370100  1.0
  H  H256  1  0.527400  0.452800  0.629900  1.0
  H  H257  1  0.087100  0.481000  0.127700  1.0
  H  H258  1  0.087100  0.019000  0.872300  1.0
  H  H259  1  0.587100  0.981000  0.627700  1.0
  H  H260  1  0.587100  0.519000  0.372300  1.0
  H  H261  1  0.912900  0.519000  0.872300  1.0
  H  H262  1  0.912900  0.981000  0.127700  1.0
  H  H263  1  0.412900  0.019000  0.372300  1.0
  H  H264  1  0.412900  0.481000  0.627700  1.0
  H  H265  1  0.109700  0.559800  0.119900  1.0
  H  H266  1  0.109700  0.940200  0.880100  1.0
  H  H267  1  0.609700  0.059800  0.619900  1.0
  H  H268  1  0.609700  0.440200  0.380100  1.0
  H  H269  1  0.890300  0.440200  0.880100  1.0
  H  H270  1  0.890300  0.059800  0.119900  1.0
  H  H271  1  0.390300  0.940200  0.380100  1.0
  H  H272  1  0.390300  0.559800  0.619900  1.0
  H  H273  1  0.020700  0.867000  0.797700  1.0
  H  H274  1  0.020700  0.633000  0.202300  1.0
  H  H275  1  0.520700  0.367000  0.297700  1.0
  H  H276  1  0.520700  0.133000  0.702300  1.0
  H  H277  1  0.979300  0.133000  0.202300  1.0
  H  H278  1  0.979300  0.367000  0.797700  1.0
  H  H279  1  0.479300  0.633000  0.702300  1.0
  H  H280  1  0.479300  0.867000  0.297700  1.0
  H  H281  1  0.028000  0.813400  0.727100  1.0
  H  H282  1  0.028000  0.686600  0.272900  1.0
  H  H283  1  0.528000  0.313400  0.227100  1.0
  H  H284  1  0.528000  0.186600  0.772900  1.0
  H  H285  1  0.972000  0.186600  0.272900  1.0
  H  H286  1  0.972000  0.313400  0.727100  1.0
  H  H287  1  0.472000  0.686600  0.772900  1.0
  H  H288  1  0.472000  0.813400  0.227100  1.0
  H  H289  1  0.052800  0.728300  0.713500  1.0
  H  H290  1  0.052800  0.771700  0.286500  1.0
  H  H291  1  0.552800  0.228300  0.213500  1.0
  H  H292  1  0.552800  0.271700  0.786500  1.0
  H  H293  1  0.947200  0.271700  0.286500  1.0
  H  H294  1  0.947200  0.228300  0.713500  1.0
  H  H295  1  0.447200  0.771700  0.786500  1.0
  H  H296  1  0.447200  0.728300  0.213500  1.0
  H  H297  1  0.051300  0.697200  0.772100  1.0
  H  H298  1  0.051300  0.802800  0.227900  1.0
  H  H299  1  0.551300  0.197200  0.272100  1.0
  H  H300  1  0.551300  0.302800  0.727900  1.0
  H  H301  1  0.948700  0.302800  0.227900  1.0
  H  H302  1  0.948700  0.197200  0.772100  1.0
  H  H303  1  0.448700  0.802800  0.727900  1.0
  H  H304  1  0.448700  0.697200  0.272100  1.0
  H  H305  1  0.039400  0.717100  0.854600  1.0
  H  H306  1  0.039400  0.782900  0.145400  1.0
  H  H307  1  0.539400  0.217100  0.354600  1.0
  H  H308  1  0.539400  0.282900  0.645400  1.0
  H  H309  1  0.960600  0.282900  0.145400  1.0
  H  H310  1  0.960600  0.217100  0.854600  1.0
  H  H311  1  0.460600  0.782900  0.645400  1.0
  H  H312  1  0.460600  0.717100  0.354600  1.0
  H  H313  1  0.105700  0.773500  0.948200  1.0
  H  H314  1  0.105700  0.726500  0.051800  1.0
  H  H315  1  0.605700  0.273500  0.448200  1.0
  H  H316  1  0.605700  0.226500  0.551800  1.0
  H  H317  1  0.894300  0.226500  0.051800  1.0
  H  H318  1  0.894300  0.273500  0.948200  1.0
  H  H319  1  0.394300  0.726500  0.551800  1.0
  H  H320  1  0.394300  0.773500  0.448200  1.0
  H  H321  1  0.894100  0.773000  0.934200  1.0
  H  H322  1  0.894100  0.727000  0.065800  1.0
  H  H323  1  0.394100  0.273000  0.434200  1.0
  H  H324  1  0.394100  0.227000  0.565800  1.0
  H  H325  1  0.105900  0.227000  0.065800  1.0
  H  H326  1  0.105900  0.273000  0.934200  1.0
  H  H327  1  0.605900  0.727000  0.565800  1.0
  H  H328  1  0.605900  0.773000  0.434200  1.0
  H  H329  1  0.879300  0.751700  0.996600  1.0
  H  H330  1  0.879300  0.748300  0.003400  1.0
  H  H331  1  0.379300  0.251700  0.496600  1.0
  H  H332  1  0.379300  0.248300  0.503400  1.0
  H  H333  1  0.120700  0.248300  0.003400  1.0
  H  H334  1  0.120700  0.251700  0.996600  1.0
  H  H335  1  0.620700  0.748300  0.503400  1.0
  H  H336  1  0.620700  0.751700  0.496600  1.0
  H  H337  1  0.931600  0.731900  0.059900  1.0
  H  H338  1  0.931600  0.768100  0.940100  1.0
  H  H339  1  0.431600  0.231900  0.559900  1.0
  H  H340  1  0.431600  0.268100  0.440100  1.0
  H  H341  1  0.068400  0.268100  0.940100  1.0
  H  H342  1  0.068400  0.231900  0.059900  1.0
  H  H343  1  0.568400  0.768100  0.440100  1.0
  H  H344  1  0.568400  0.731900  0.559900  1.0
  H  H345  1  0.143200  0.732400  0.073900  1.0
  H  H346  1  0.143200  0.767600  0.926100  1.0
  H  H347  1  0.643200  0.232400  0.573900  1.0
  H  H348  1  0.643200  0.267600  0.426100  1.0
  H  H349  1  0.856800  0.267600  0.926100  1.0
  H  H350  1  0.856800  0.232400  0.073900  1.0
  H  H351  1  0.356800  0.767600  0.426100  1.0
  H  H352  1  0.356800  0.732400  0.573900  1.0
  H  H353  1  0.158000  0.753600  0.011500  1.0
  H  H354  1  0.158000  0.746400  0.988500  1.0
  H  H355  1  0.658000  0.253600  0.511500  1.0
  H  H356  1  0.658000  0.246400  0.488500  1.0
  H  H357  1  0.842000  0.246400  0.988500  1.0
  H  H358  1  0.842000  0.253600  0.011500  1.0
  H  H359  1  0.342000  0.746400  0.488500  1.0
  H  H360  1  0.342000  0.753600  0.511500  1.0
  H  H361  1  0.640000  0.040500  0.175600  1.0
  H  H362  1  0.640000  0.459500  0.824400  1.0
  H  H363  1  0.140000  0.540500  0.675600  1.0
  H  H364  1  0.140000  0.959500  0.324400  1.0
  H  H365  1  0.360000  0.959500  0.824400  1.0
  H  H366  1  0.360000  0.540500  0.175600  1.0
  H  H367  1  0.860000  0.459500  0.324400  1.0
  H  H368  1  0.860000  0.040500  0.675600  1.0
  H  H369  1  0.616000  0.106400  0.151700  1.0
  H  H370  1  0.616000  0.393600  0.848300  1.0
  H  H371  1  0.116000  0.606400  0.651700  1.0
  H  H372  1  0.116000  0.893600  0.348300  1.0
  H  H373  1  0.384000  0.893600  0.848300  1.0
  H  H374  1  0.384000  0.606400  0.151700  1.0
  H  H375  1  0.884000  0.393600  0.348300  1.0
  H  H376  1  0.884000  0.106400  0.651700  1.0
  H  H377  1  0.583900  0.091900  0.079100  1.0
  H  H378  1  0.583900  0.408100  0.920900  1.0
  H  H379  1  0.083900  0.591900  0.579100  1.0
  H  H380  1  0.083900  0.908100  0.420900  1.0
  H  H381  1  0.416100  0.908100  0.920900  1.0
  H  H382  1  0.416100  0.591900  0.079100  1.0
  H  H383  1  0.916100  0.408100  0.420900  1.0
  H  H384  1  0.916100  0.091900  0.579100  1.0
  H  H385  1  0.584000  0.009000  0.030800  1.0
  H  H386  1  0.584000  0.491000  0.969200  1.0
  H  H387  1  0.084000  0.509000  0.530800  1.0
  H  H388  1  0.084000  0.991000  0.469200  1.0
  H  H389  1  0.416000  0.991000  0.969200  1.0
  H  H390  1  0.416000  0.509000  0.030800  1.0
  H  H391  1  0.916000  0.491000  0.469200  1.0
  H  H392  1  0.916000  0.009000  0.530800  1.0
  H  H393  1  0.603100  0.913800  0.020000  1.0
  H  H394  1  0.603100  0.586200  0.980000  1.0
  H  H395  1  0.103100  0.413800  0.520000  1.0
  H  H396  1  0.103100  0.086200  0.480000  1.0
  H  H397  1  0.396900  0.086200  0.980000  1.0
  H  H398  1  0.396900  0.413800  0.020000  1.0
  H  H399  1  0.896900  0.586200  0.480000  1.0
  H  H400  1  0.896900  0.913800  0.520000  1.0
  H  H401  1  0.541500  0.821600  0.039300  1.0
  H  H402  1  0.541500  0.678400  0.960700  1.0
  H  H403  1  0.041500  0.321600  0.539300  1.0
  H  H404  1  0.041500  0.178400  0.460700  1.0
  H  H405  1  0.458500  0.178400  0.960700  1.0
  H  H406  1  0.458500  0.321600  0.039300  1.0
  H  H407  1  0.958500  0.678400  0.460700  1.0
  H  H408  1  0.958500  0.821600  0.539300  1.0
  H  H409  1  0.752600  0.841400  0.042900  1.0
  H  H410  1  0.752600  0.658600  0.957100  1.0
  H  H411  1  0.252600  0.341400  0.542900  1.0
  H  H412  1  0.252600  0.158600  0.457100  1.0
  H  H413  1  0.247400  0.158600  0.957100  1.0
  H  H414  1  0.247400  0.341400  0.042900  1.0
  H  H415  1  0.747400  0.658600  0.457100  1.0
  H  H416  1  0.747400  0.841400  0.542900  1.0
  H  H417  1  0.769100  0.757900  0.001200  1.0
  H  H418  1  0.769100  0.742100  0.998800  1.0
  H  H419  1  0.269100  0.257900  0.501200  1.0
  H  H420  1  0.269100  0.242100  0.498800  1.0
  H  H421  1  0.230900  0.242100  0.998800  1.0
  H  H422  1  0.230900  0.257900  0.001200  1.0
  H  H423  1  0.730900  0.742100  0.498800  1.0
  H  H424  1  0.730900  0.757900  0.501200  1.0
  H  H425  1  0.718700  0.672700  0.960600  1.0
  H  H426  1  0.718700  0.827300  0.039400  1.0
  H  H427  1  0.218700  0.172700  0.460600  1.0
  H  H428  1  0.218700  0.327300  0.539400  1.0
  H  H429  1  0.281300  0.327300  0.039400  1.0
  H  H430  1  0.281300  0.172700  0.960600  1.0
  H  H431  1  0.781300  0.827300  0.539400  1.0
  H  H432  1  0.781300  0.672700  0.460600  1.0
  H  H433  1  0.507600  0.652800  0.956900  1.0
  H  H434  1  0.507600  0.847200  0.043100  1.0
  H  H435  1  0.007600  0.152800  0.456900  1.0
  H  H436  1  0.007600  0.347200  0.543100  1.0
  H  H437  1  0.492400  0.347200  0.043100  1.0
  H  H438  1  0.492400  0.152800  0.956900  1.0
  H  H439  1  0.992400  0.847200  0.543100  1.0
  H  H440  1  0.992400  0.652800  0.456900  1.0
  H  H441  1  0.491100  0.736500  0.998700  1.0
  H  H442  1  0.491100  0.763500  0.001300  1.0
  H  H443  1  0.991100  0.236500  0.498700  1.0
  H  H444  1  0.991100  0.263500  0.501300  1.0
  H  H445  1  0.508900  0.263500  0.001300  1.0
  H  H446  1  0.508900  0.236500  0.998700  1.0
  H  H447  1  0.008900  0.763500  0.501300  1.0
  H  H448  1  0.008900  0.736500  0.498700  1.0
  C  C449  1  0.820300  0.533000  0.571600  1
  C  C450  1  0.820300  0.967000  0.428400  1
  C  C451  1  0.320300  0.033000  0.071600  1
  C  C452  1  0.320300  0.467000  0.928400  1
  C  C453  1  0.179700  0.467000  0.428400  1
  C  C454  1  0.179700  0.033000  0.571600  1
  C  C455  1  0.679700  0.967000  0.928400  1
  C  C456  1  0.679700  0.533000  0.071600  1
  C  C457  1  0.041200  0.327400  0.395300  1
  C  C458  1  0.041200  0.172600  0.604700  1
  C  C459  1  0.541200  0.827400  0.895300  1
  C  C460  1  0.541200  0.672600  0.104700  1
  C  C461  1  0.958800  0.672600  0.604700  1
  C  C462  1  0.958800  0.827400  0.395300  1
  C  C463  1  0.458800  0.172600  0.104700  1
  C  C464  1  0.458800  0.327400  0.895300  1
  C  C465  1  0.244100  0.703800  0.282400  1
  C  C466  1  0.244100  0.796200  0.717600  1
  C  C467  1  0.744100  0.203800  0.782400  1
  C  C468  1  0.744100  0.296200  0.217600  1
  C  C469  1  0.755900  0.296200  0.717600  1
  C  C470  1  0.755900  0.203800  0.282400  1
  C  C471  1  0.255900  0.796200  0.217600  1
  C  C472  1  0.255900  0.703800  0.782400  1
  C  C473  1  0.957900  0.592800  0.722200  1
  C  C474  1  0.957900  0.907200  0.277800  1
  C  C475  1  0.457900  0.092800  0.222200  1
  C  C476  1  0.457900  0.407200  0.777800  1
  C  C477  1  0.042100  0.407200  0.277800  1
  C  C478  1  0.042100  0.092800  0.722200  1
  C  C479  1  0.542100  0.907200  0.777800  1
  C  C480  1  0.542100  0.592800  0.222200  1
  C  C481  1  0.669600  0.767000  0.779600  1
  C  C482  1  0.669600  0.733000  0.220400  1
  C  C483  1  0.169600  0.267000  0.279600  1
  C  C484  1  0.169600  0.233000  0.720400  1
  C  C485  1  0.330400  0.233000  0.220400  1
  C  C486  1  0.330400  0.267000  0.779600  1
  C  C487  1  0.830400  0.733000  0.720400  1
  C  C488  1  0.830400  0.767000  0.279600  1
  C  C489  1  0.700700  0.817900  0.802200  1
  C  C490  1  0.700700  0.682100  0.197800  1
  C  C491  1  0.200700  0.317900  0.302200  1
  C  C492  1  0.200700  0.182100  0.697800  1
  C  C493  1  0.299300  0.182100  0.197800  1
  C  C494  1  0.299300  0.317900  0.802200  1
  C  C495  1  0.799300  0.682100  0.697800  1
  C  C496  1  0.799300  0.817900  0.302200  1
  C  C497  1  0.161000  0.871500  0.076600  1
  C  C498  1  0.161000  0.628500  0.923400  1
  C  C499  1  0.661000  0.371500  0.576600  1
  C  C500  1  0.661000  0.128500  0.423400  1
  C  C501  1  0.839000  0.128500  0.923400  1
  C  C502  1  0.839000  0.371500  0.076600  1
  C  C503  1  0.339000  0.628500  0.423400  1
  C  C504  1  0.339000  0.871500  0.576600  1
  C  C505  1  0.215600  0.865100  0.102300  1
  C  C506  1  0.215600  0.634900  0.897700  1
  C  C507  1  0.715600  0.365100  0.602300  1
  C  C508  1  0.715600  0.134900  0.397700  1
  C  C509  1  0.784400  0.134900  0.897700  1
  C  C510  1  0.784400  0.365100  0.102300  1
  C  C511  1  0.284400  0.634900  0.397700  1
  C  C512  1  0.284400  0.865100  0.602300  1
  C  C513  1  0.153700  0.664200  0.258300  1
  C  C514  1  0.153700  0.835800  0.741700  1
  C  C515  1  0.653700  0.164200  0.758300  1
  C  C516  1  0.653700  0.335800  0.241700  1
  C  C517  1  0.846300  0.335800  0.741700  1
  C  C518  1  0.846300  0.164200  0.258300  1
  C  C519  1  0.346300  0.835800  0.241700  1
  C  C520  1  0.346300  0.664200  0.758300  1
  C  C521  1  0.169100  0.839700  0.868900  1.0
  C  C522  1  0.169100  0.660300  0.131100  1.0
  C  C523  1  0.669100  0.339700  0.368900  1.0
  C  C524  1  0.669100  0.160300  0.631100  1.0
  C  C525  1  0.830900  0.160300  0.131100  1.0
  C  C526  1  0.830900  0.339700  0.868900  1.0
  C  C527  1  0.330900  0.660300  0.631100  1.0
  C  C528  1  0.330900  0.839700  0.368900  1.0
  C  C529  1  0.240800  0.840500  0.880400  1.0
  C  C530  1  0.240800  0.659500  0.119600  1.0
  C  C531  1  0.740800  0.340500  0.380400  1.0
  C  C532  1  0.740800  0.159500  0.619600  1.0
  C  C533  1  0.759200  0.159500  0.119600  1.0
  C  C534  1  0.759200  0.340500  0.880400  1.0
  C  C535  1  0.259200  0.659500  0.619600  1.0
  C  C536  1  0.259200  0.840500  0.380400  1.0
  C  C537  1  0.258900  0.862000  0.923400  1.0
  C  C538  1  0.258900  0.638000  0.076600  1.0
  C  C539  1  0.758900  0.362000  0.423400  1.0
  C  C540  1  0.758900  0.138000  0.576600  1.0
  C  C541  1  0.741100  0.138000  0.076600  1.0
  C  C542  1  0.741100  0.362000  0.923400  1.0
  C  C543  1  0.241100  0.638000  0.576600  1.0
  C  C544  1  0.241100  0.862000  0.423400  1.0
  C  C545  1  0.208900  0.882200  0.953100  1.0
  C  C546  1  0.208900  0.617800  0.046900  1.0
  C  C547  1  0.708900  0.382200  0.453100  1.0
  C  C548  1  0.708900  0.117800  0.546900  1.0
  C  C549  1  0.791100  0.117800  0.046900  1.0
  C  C550  1  0.791100  0.382200  0.953100  1.0
  C  C551  1  0.291100  0.617800  0.546900  1.0
  C  C552  1  0.291100  0.882200  0.453100  1.0
  C  C553  1  0.139600  0.880300  0.939800  1.0
  C  C554  1  0.139600  0.619700  0.060200  1.0
  C  C555  1  0.639600  0.380300  0.439800  1.0
  C  C556  1  0.639600  0.119700  0.560200  1.0
  C  C557  1  0.860400  0.119700  0.060200  1.0
  C  C558  1  0.860400  0.380300  0.939800  1.0
  C  C559  1  0.360400  0.619700  0.560200  1.0
  C  C560  1  0.360400  0.880300  0.439800  1.0
  C  C561  1  0.081400  0.899200  0.969700  1.0
  C  C562  1  0.081400  0.600800  0.030300  1.0
  C  C563  1  0.581400  0.399200  0.469700  1.0
  C  C564  1  0.581400  0.100800  0.530300  1.0
  C  C565  1  0.918600  0.100800  0.030300  1.0
  C  C566  1  0.918600  0.399200  0.969700  1.0
  C  C567  1  0.418600  0.600800  0.530300  1.0
  C  C568  1  0.418600  0.899200  0.469700  1.0
  C  C569  1  0.960500  0.904800  0.984600  1.0
  C  C570  1  0.960500  0.595200  0.015400  1.0
  C  C571  1  0.460500  0.404800  0.484600  1.0
  C  C572  1  0.460500  0.095200  0.515400  1.0
  C  C573  1  0.039500  0.095200  0.015400  1.0
  C  C574  1  0.039500  0.404800  0.984600  1.0
  C  C575  1  0.539500  0.595200  0.515400  1.0
  C  C576  1  0.539500  0.904800  0.484600  1.0
  C  C577  1  0.956300  0.881500  0.015700  1.0
  C  C578  1  0.956300  0.618500  0.984300  1.0
  C  C579  1  0.456300  0.381500  0.515700  1.0
  C  C580  1  0.456300  0.118500  0.484300  1.0
  C  C581  1  0.043700  0.118500  0.984300  1.0
  C  C582  1  0.043700  0.381500  0.015700  1.0
  C  C583  1  0.543700  0.618500  0.484300  1.0
  C  C584  1  0.543700  0.881500  0.515700  1.0
  C  C585  1  0.900300  0.892900  0.046200  1.0
  C  C586  1  0.900300  0.607100  0.953800  1.0
  C  C587  1  0.400300  0.392900  0.546200  1.0
  C  C588  1  0.400300  0.107100  0.453800  1.0
  C  C589  1  0.099700  0.107100  0.953800  1.0
  C  C590  1  0.099700  0.392900  0.046200  1.0
  C  C591  1  0.599700  0.607100  0.453800  1.0
  C  C592  1  0.599700  0.892900  0.546200  1.0
  C  C593  1  0.849100  0.928400  0.043700  1.0
  C  C594  1  0.849100  0.571600  0.956300  1.0
  C  C595  1  0.349100  0.428400  0.543700  1.0
  C  C596  1  0.349100  0.071600  0.456300  1.0
  C  C597  1  0.150900  0.071600  0.956300  1.0
  C  C598  1  0.150900  0.428400  0.043700  1.0
  C  C599  1  0.650900  0.571600  0.456300  1.0
  C  C600  1  0.650900  0.928400  0.543700  1.0
  C  C601  1  0.856800  0.952800  0.011800  1.0
  C  C602  1  0.856800  0.547200  0.988200  1.0
  C  C603  1  0.356800  0.452800  0.511800  1.0
  C  C604  1  0.356800  0.047200  0.488200  1.0
  C  C605  1  0.143200  0.047200  0.988200  1.0
  C  C606  1  0.143200  0.452800  0.011800  1.0
  C  C607  1  0.643200  0.547200  0.488200  1.0
  C  C608  1  0.643200  0.952800  0.511800  1.0
  C  C609  1  0.911300  0.940300  0.983100  1.0
  C  C610  1  0.911300  0.559700  0.016900  1.0
  C  C611  1  0.411300  0.440300  0.483100  1.0
  C  C612  1  0.411300  0.059700  0.516900  1.0
  C  C613  1  0.088700  0.059700  0.016900  1.0
  C  C614  1  0.088700  0.440300  0.983100  1.0
  C  C615  1  0.588700  0.559700  0.516900  1.0
  C  C616  1  0.588700  0.940300  0.483100  1.0
  C  C617  1  0.896400  0.870800  0.079000  1.0
  C  C618  1  0.896400  0.629200  0.921000  1.0
  C  C619  1  0.396400  0.370800  0.579000  1.0
  C  C620  1  0.396400  0.129200  0.421000  1.0
  C  C621  1  0.103600  0.129200  0.921000  1.0
  C  C622  1  0.103600  0.370800  0.079000  1.0
  C  C623  1  0.603600  0.629200  0.421000  1.0
  C  C624  1  0.603600  0.870800  0.579000  1.0
  C  C625  1  0.842300  0.883900  0.108800  1.0
  C  C626  1  0.842300  0.616100  0.891200  1.0
  C  C627  1  0.342300  0.383900  0.608800  1.0
  C  C628  1  0.342300  0.116100  0.391200  1.0
  C  C629  1  0.157700  0.116100  0.891200  1.0
  C  C630  1  0.157700  0.383900  0.108800  1.0
  C  C631  1  0.657700  0.616100  0.391200  1.0
  C  C632  1  0.657700  0.883900  0.608800  1.0
  C  C633  1  0.791400  0.918900  0.107300  1.0
  C  C634  1  0.791400  0.581100  0.892700  1.0
  C  C635  1  0.291400  0.418900  0.607300  1.0
  C  C636  1  0.291400  0.081100  0.392700  1.0
  C  C637  1  0.208600  0.081100  0.892700  1.0
  C  C638  1  0.208600  0.418900  0.107300  1.0
  C  C639  1  0.708600  0.581100  0.392700  1.0
  C  C640  1  0.708600  0.918900  0.607300  1.0
  C  C641  1  0.793800  0.940500  0.074100  1.0
  C  C642  1  0.793800  0.559500  0.925900  1.0
  C  C643  1  0.293800  0.440500  0.574100  1.0
  C  C644  1  0.293800  0.059500  0.425900  1.0
  C  C645  1  0.206200  0.059500  0.925900  1.0
  C  C646  1  0.206200  0.440500  0.074100  1.0
  C  C647  1  0.706200  0.559500  0.425900  1.0
  C  C648  1  0.706200  0.940500  0.574100  1.0
  C  C649  1  0.758200  0.957300  0.179100  1.0
  C  C650  1  0.758200  0.542700  0.820900  1.0
  C  C651  1  0.258200  0.457300  0.679100  1.0
  C  C652  1  0.258200  0.042700  0.320900  1.0
  C  C653  1  0.241800  0.042700  0.820900  1.0
  C  C654  1  0.241800  0.457300  0.179100  1.0
  C  C655  1  0.741800  0.542700  0.320900  1.0
  C  C656  1  0.741800  0.957300  0.679100  1.0
  C  C657  1  0.706600  0.972700  0.212400  1.0
  C  C658  1  0.706600  0.527300  0.787600  1.0
  C  C659  1  0.206600  0.472700  0.712400  1.0
  C  C660  1  0.206600  0.027300  0.287600  1.0
  C  C661  1  0.293400  0.027300  0.787600  1.0
  C  C662  1  0.293400  0.472700  0.212400  1.0
  C  C663  1  0.793400  0.527300  0.287600  1.0
  C  C664  1  0.793400  0.972700  0.712400  1.0
  C  C665  1  0.719400  0.001500  0.256200  1.0
  C  C666  1  0.719400  0.498500  0.743800  1.0
  C  C667  1  0.219400  0.501500  0.756200  1.0
  C  C668  1  0.219400  0.998500  0.243800  1.0
  C  C669  1  0.280600  0.998500  0.743800  1.0
  C  C670  1  0.280600  0.501500  0.256200  1.0
  C  C671  1  0.780600  0.498500  0.243800  1.0
  C  C672  1  0.780600  0.001500  0.756200  1.0
  C  C673  1  0.665700  0.017500  0.283600  1.0
  C  C674  1  0.665700  0.482500  0.716400  1.0
  C  C675  1  0.165700  0.517500  0.783600  1.0
  C  C676  1  0.165700  0.982500  0.216400  1.0
  C  C677  1  0.334300  0.982500  0.716400  1.0
  C  C678  1  0.334300  0.517500  0.283600  1.0
  C  C679  1  0.834300  0.482500  0.216400  1.0
  C  C680  1  0.834300  0.017500  0.783600  1.0
  C  C681  1  0.596500  0.001600  0.268700  1.0
  C  C682  1  0.596500  0.498400  0.731300  1.0
  C  C683  1  0.096500  0.501600  0.768700  1.0
  C  C684  1  0.096500  0.998400  0.231300  1.0
  C  C685  1  0.403500  0.998400  0.731300  1.0
  C  C686  1  0.403500  0.501600  0.268700  1.0
  C  C687  1  0.903500  0.498400  0.231300  1.0
  C  C688  1  0.903500  0.001600  0.768700  1.0
  C  C689  1  0.587800  0.972100  0.225700  1.0
  C  C690  1  0.587800  0.527900  0.774300  1.0
  C  C691  1  0.087800  0.472100  0.725700  1.0
  C  C692  1  0.087800  0.027900  0.274300  1.0
  C  C693  1  0.412200  0.027900  0.774300  1.0
  C  C694  1  0.412200  0.472100  0.225700  1.0
  C  C695  1  0.912200  0.527900  0.274300  1.0
  C  C696  1  0.912200  0.972100  0.725700  1.0
  C  C697  1  0.480200  0.944800  0.132000  1.0
  C  C698  1  0.480200  0.555200  0.868000  1.0
  C  C699  1  0.980200  0.444800  0.632000  1.0
  C  C700  1  0.980200  0.055200  0.368000  1.0
  C  C701  1  0.519800  0.055200  0.868000  1.0
  C  C702  1  0.519800  0.444800  0.132000  1.0
  C  C703  1  0.019800  0.555200  0.368000  1.0
  C  C704  1  0.019800  0.944800  0.632000  1.0
  C  C705  1  0.410700  0.934900  0.136100  1.0
  C  C706  1  0.410700  0.565100  0.863900  1.0
  C  C707  1  0.910700  0.434900  0.636100  1.0
  C  C708  1  0.910700  0.065100  0.363900  1.0
  C  C709  1  0.589300  0.065100  0.863900  1.0
  C  C710  1  0.589300  0.434900  0.136100  1.0
  C  C711  1  0.089300  0.565100  0.363900  1.0
  C  C712  1  0.089300  0.934900  0.636100  1.0
  C  C713  1  0.391600  0.892500  0.143800  1.0
  C  C714  1  0.391600  0.607500  0.856200  1.0
  C  C715  1  0.891600  0.392500  0.643800  1.0
  C  C716  1  0.891600  0.107500  0.356200  1.0
  C  C717  1  0.608400  0.107500  0.856200  1.0
  C  C718  1  0.608400  0.392500  0.143800  1.0
  C  C719  1  0.108400  0.607500  0.356200  1.0
  C  C720  1  0.108400  0.892500  0.643800  1.0
  C  C721  1  0.442800  0.859200  0.147900  1.0
  C  C722  1  0.442800  0.640800  0.852100  1.0
  C  C723  1  0.942800  0.359200  0.647900  1.0
  C  C724  1  0.942800  0.140800  0.352100  1.0
  C  C725  1  0.557200  0.140800  0.852100  1.0
  C  C726  1  0.557200  0.359200  0.147900  1.0
  C  C727  1  0.057200  0.640800  0.352100  1.0
  C  C728  1  0.057200  0.859200  0.647900  1.0
  C  C729  1  0.512200  0.871400  0.143500  1.0
  C  C730  1  0.512200  0.628600  0.856500  1.0
  C  C731  1  0.012200  0.371400  0.643500  1.0
  C  C732  1  0.012200  0.128600  0.356500  1.0
  C  C733  1  0.487800  0.128600  0.856500  1.0
  C  C734  1  0.487800  0.371400  0.143500  1.0
  C  C735  1  0.987800  0.628600  0.356500  1.0
  C  C736  1  0.987800  0.871400  0.643500  1.0
  C  C737  1  0.570600  0.840100  0.147100  1.0
  C  C738  1  0.570600  0.659900  0.852900  1.0
  C  C739  1  0.070600  0.340100  0.647100  1.0
  C  C740  1  0.070600  0.159900  0.352900  1.0
  C  C741  1  0.429400  0.159900  0.852900  1.0
  C  C742  1  0.429400  0.340100  0.147100  1.0
  C  C743  1  0.929400  0.659900  0.352900  1.0
  C  C744  1  0.929400  0.840100  0.647100  1.0
  C  C745  1  0.690500  0.823500  0.144900  1.0
  C  C746  1  0.690500  0.676500  0.855100  1.0
  C  C747  1  0.190500  0.323500  0.644900  1.0
  C  C748  1  0.190500  0.176500  0.355100  1.0
  C  C749  1  0.309500  0.176500  0.855100  1.0
  C  C750  1  0.309500  0.323500  0.144900  1.0
  C  C751  1  0.809500  0.676500  0.355100  1.0
  C  C752  1  0.809500  0.823500  0.644900  1.0
  C  C753  1  0.741000  0.838000  0.177500  1.0
  C  C754  1  0.741000  0.662000  0.822500  1.0
  C  C755  1  0.241000  0.338000  0.677500  1.0
  C  C756  1  0.241000  0.162000  0.322500  1.0
  C  C757  1  0.259000  0.162000  0.822500  1.0
  C  C758  1  0.259000  0.338000  0.177500  1.0
  C  C759  1  0.759000  0.662000  0.322500  1.0
  C  C760  1  0.759000  0.838000  0.677500  1.0
  C  C761  1  0.795200  0.806700  0.179000  1.0
  C  C762  1  0.795200  0.693300  0.821000  1.0
  C  C763  1  0.295200  0.306700  0.679000  1.0
  C  C764  1  0.295200  0.193300  0.321000  1.0
  C  C765  1  0.204800  0.193300  0.821000  1.0
  C  C766  1  0.204800  0.306700  0.179000  1.0
  C  C767  1  0.704800  0.693300  0.321000  1.0
  C  C768  1  0.704800  0.806700  0.679000  1.0
  C  C769  1  0.801500  0.757800  0.146600  1.0
  C  C770  1  0.801500  0.742200  0.853400  1.0
  C  C771  1  0.301500  0.257800  0.646600  1.0
  C  C772  1  0.301500  0.242200  0.353400  1.0
  C  C773  1  0.198500  0.242200  0.853400  1.0
  C  C774  1  0.198500  0.257800  0.146600  1.0
  C  C775  1  0.698500  0.742200  0.353400  1.0
  C  C776  1  0.698500  0.757800  0.646600  1.0
  C  C777  1  0.748900  0.742800  0.113100  1.0
  C  C778  1  0.748900  0.757200  0.886900  1.0
  C  C779  1  0.248900  0.242800  0.613100  1.0
  C  C780  1  0.248900  0.257200  0.386900  1.0
  C  C781  1  0.251100  0.257200  0.886900  1.0
  C  C782  1  0.251100  0.242800  0.113100  1.0
  C  C783  1  0.751100  0.757200  0.386900  1.0
  C  C784  1  0.751100  0.742800  0.613100  1.0
  C  C785  1  0.693500  0.776900  0.113200  1.0
  C  C786  1  0.693500  0.723100  0.886800  1.0
  C  C787  1  0.193500  0.276900  0.613200  1.0
  C  C788  1  0.193500  0.223100  0.386800  1.0
  C  C789  1  0.306500  0.223100  0.886800  1.0
  C  C790  1  0.306500  0.276900  0.113200  1.0
  C  C791  1  0.806500  0.723100  0.386800  1.0
  C  C792  1  0.806500  0.776900  0.613200  1.0
  C  C793  1  0.754500  0.694500  0.081500  1.0
  C  C794  1  0.754500  0.805500  0.918500  1.0
  C  C795  1  0.254500  0.194500  0.581500  1.0
  C  C796  1  0.254500  0.305500  0.418500  1.0
  C  C797  1  0.245500  0.305500  0.918500  1.0
  C  C798  1  0.245500  0.194500  0.081500  1.0
  C  C799  1  0.745500  0.805500  0.418500  1.0
  C  C800  1  0.745500  0.694500  0.581500  1.0
  C  C801  1  0.808000  0.663200  0.083100  1.0
  C  C802  1  0.808000  0.836800  0.916900  1.0
  C  C803  1  0.308000  0.163200  0.583100  1.0
  C  C804  1  0.308000  0.336800  0.416900  1.0
  C  C805  1  0.192000  0.336800  0.916900  1.0
  C  C806  1  0.192000  0.163200  0.083100  1.0
  C  C807  1  0.692000  0.836800  0.416900  1.0
  C  C808  1  0.692000  0.663200  0.583100  1.0
  C  C809  1  0.858800  0.677600  0.115800  1.0
  C  C810  1  0.858800  0.822400  0.884200  1.0
  C  C811  1  0.358800  0.177600  0.615800  1.0
  C  C812  1  0.358800  0.322400  0.384200  1.0
  C  C813  1  0.141200  0.322400  0.884200  1.0
  C  C814  1  0.141200  0.177600  0.115800  1.0
  C  C815  1  0.641200  0.822400  0.384200  1.0
  C  C816  1  0.641200  0.677600  0.615800  1.0
  C  C817  1  0.855700  0.724300  0.146800  1.0
  C  C818  1  0.855700  0.775700  0.853200  1.0
  C  C819  1  0.355700  0.224300  0.646800  1.0
  C  C820  1  0.355700  0.275700  0.353200  1.0
  C  C821  1  0.144300  0.275700  0.853200  1.0
  C  C822  1  0.144300  0.224300  0.146800  1.0
  C  C823  1  0.644300  0.775700  0.353200  1.0
  C  C824  1  0.644300  0.724300  0.646800  1.0
  C  C825  1  0.890800  0.600700  0.122200  1.0
  C  C826  1  0.890800  0.899300  0.877800  1.0
  C  C827  1  0.390800  0.100700  0.622200  1.0
  C  C828  1  0.390800  0.399300  0.377800  1.0
  C  C829  1  0.109200  0.399300  0.877800  1.0
  C  C830  1  0.109200  0.100700  0.122200  1.0
  C  C831  1  0.609200  0.899300  0.377800  1.0
  C  C832  1  0.609200  0.600700  0.622200  1.0
  C  C833  1  0.943100  0.564200  0.123500  1.0
  C  C834  1  0.943100  0.935800  0.876500  1.0
  C  C835  1  0.443100  0.064200  0.623500  1.0
  C  C836  1  0.443100  0.435800  0.376500  1.0
  C  C837  1  0.056900  0.435800  0.876500  1.0
  C  C838  1  0.056900  0.064200  0.123500  1.0
  C  C839  1  0.556900  0.935800  0.376500  1.0
  C  C840  1  0.556900  0.564200  0.623500  1.0
  C  C841  1  0.927800  0.517000  0.126500  1.0
  C  C842  1  0.927800  0.983000  0.873500  1.0
  C  C843  1  0.427800  0.017000  0.626500  1.0
  C  C844  1  0.427800  0.483000  0.373500  1.0
  C  C845  1  0.072200  0.483000  0.873500  1.0
  C  C846  1  0.072200  0.017000  0.126500  1.0
  C  C847  1  0.572200  0.983000  0.373500  1.0
  C  C848  1  0.572200  0.517000  0.626500  1.0
  C  C849  1  0.981500  0.485100  0.127800  1.0
  C  C850  1  0.981500  0.014900  0.872200  1.0
  C  C851  1  0.481500  0.985100  0.627800  1.0
  C  C852  1  0.481500  0.514900  0.372200  1.0
  C  C853  1  0.018500  0.514900  0.872200  1.0
  C  C854  1  0.018500  0.985100  0.127800  1.0
  C  C855  1  0.518500  0.014900  0.372200  1.0
  C  C856  1  0.518500  0.485100  0.627800  1.0
  C  C857  1  0.048800  0.501800  0.125900  1.0
  C  C858  1  0.048800  0.998200  0.874100  1.0
  C  C859  1  0.548800  0.001800  0.625900  1.0
  C  C860  1  0.548800  0.498200  0.374100  1.0
  C  C861  1  0.951200  0.498200  0.874100  1.0
  C  C862  1  0.951200  0.001800  0.125900  1.0
  C  C863  1  0.451200  0.998200  0.374100  1.0
  C  C864  1  0.451200  0.501800  0.625900  1.0
  C  C865  1  0.062600  0.549300  0.121500  1.0
  C  C866  1  0.062600  0.950700  0.878500  1.0
  C  C867  1  0.562600  0.049300  0.621500  1.0
  C  C868  1  0.562600  0.450700  0.378500  1.0
  C  C869  1  0.937400  0.450700  0.878500  1.0
  C  C870  1  0.937400  0.049300  0.121500  1.0
  C  C871  1  0.437400  0.950700  0.378500  1.0
  C  C872  1  0.437400  0.549300  0.621500  1.0
  C  C873  1  0.024800  0.831900  0.792600  1.0
  C  C874  1  0.024800  0.668100  0.207400  1.0
  C  C875  1  0.524800  0.331900  0.292600  1.0
  C  C876  1  0.524800  0.168100  0.707400  1.0
  C  C877  1  0.975200  0.168100  0.207400  1.0
  C  C878  1  0.975200  0.331900  0.792600  1.0
  C  C879  1  0.475200  0.668100  0.707400  1.0
  C  C880  1  0.475200  0.831900  0.292600  1.0
  C  C881  1  0.031800  0.800600  0.750600  1.0
  C  C882  1  0.031800  0.699400  0.249400  1.0
  C  C883  1  0.531800  0.300600  0.250600  1.0
  C  C884  1  0.531800  0.199400  0.749400  1.0
  C  C885  1  0.968200  0.199400  0.249400  1.0
  C  C886  1  0.968200  0.300600  0.750600  1.0
  C  C887  1  0.468200  0.699400  0.749400  1.0
  C  C888  1  0.468200  0.800600  0.250600  1.0
  C  C889  1  0.044300  0.750100  0.742300  1.0
  C  C890  1  0.044300  0.749900  0.257700  1.0
  C  C891  1  0.544300  0.250100  0.242300  1.0
  C  C892  1  0.544300  0.249900  0.757700  1.0
  C  C893  1  0.955700  0.249900  0.257700  1.0
  C  C894  1  0.955700  0.250100  0.742300  1.0
  C  C895  1  0.455700  0.749900  0.757700  1.0
  C  C896  1  0.455700  0.750100  0.242300  1.0
  C  C897  1  0.044300  0.732000  0.776800  1.0
  C  C898  1  0.044300  0.768000  0.223200  1.0
  C  C899  1  0.544300  0.232000  0.276800  1.0
  C  C900  1  0.544300  0.268000  0.723200  1.0
  C  C901  1  0.955700  0.268000  0.223200  1.0
  C  C902  1  0.955700  0.232000  0.776800  1.0
  C  C903  1  0.455700  0.768000  0.723200  1.0
  C  C904  1  0.455700  0.732000  0.276800  1.0
  C  C905  1  0.033900  0.765100  0.817800  1.0
  C  C906  1  0.033900  0.734900  0.182200  1.0
  C  C907  1  0.533900  0.265100  0.317800  1.0
  C  C908  1  0.533900  0.234900  0.682200  1.0
  C  C909  1  0.966100  0.234900  0.182200  1.0
  C  C910  1  0.966100  0.265100  0.817800  1.0
  C  C911  1  0.466100  0.734900  0.682200  1.0
  C  C912  1  0.466100  0.765100  0.317800  1.0
  C  C913  1  0.031700  0.750900  0.856100  1.0
  C  C914  1  0.031700  0.749100  0.143900  1.0
  C  C915  1  0.531700  0.250900  0.356100  1.0
  C  C916  1  0.531700  0.249100  0.643900  1.0
  C  C917  1  0.968300  0.249100  0.143900  1.0
  C  C918  1  0.968300  0.250900  0.856100  1.0
  C  C919  1  0.468300  0.749100  0.643900  1.0
  C  C920  1  0.468300  0.750900  0.356100  1.0
  C  C921  1  0.060200  0.769000  0.958300  1.0
  C  C922  1  0.060200  0.731000  0.041700  1.0
  C  C923  1  0.560200  0.269000  0.458300  1.0
  C  C924  1  0.560200  0.231000  0.541700  1.0
  C  C925  1  0.939800  0.231000  0.041700  1.0
  C  C926  1  0.939800  0.269000  0.958300  1.0
  C  C927  1  0.439800  0.731000  0.541700  1.0
  C  C928  1  0.439800  0.769000  0.458300  1.0
  C  C929  1  0.002100  0.775200  0.935500  1.0
  C  C930  1  0.002100  0.724800  0.064500  1.0
  C  C931  1  0.502100  0.275200  0.435500  1.0
  C  C932  1  0.502100  0.224800  0.564500  1.0
  C  C933  1  0.997900  0.224800  0.064500  1.0
  C  C934  1  0.997900  0.275200  0.935500  1.0
  C  C935  1  0.497900  0.724800  0.564500  1.0
  C  C936  1  0.497900  0.775200  0.435500  1.0
  C  C937  1  0.934000  0.768700  0.950100  1.0
  C  C938  1  0.934000  0.731300  0.049900  1.0
  C  C939  1  0.434000  0.268700  0.450100  1.0
  C  C940  1  0.434000  0.231300  0.549900  1.0
  C  C941  1  0.066000  0.231300  0.049900  1.0
  C  C942  1  0.066000  0.268700  0.950100  1.0
  C  C943  1  0.566000  0.731300  0.549900  1.0
  C  C944  1  0.566000  0.768700  0.450100  1.0
  C  C945  1  0.925300  0.756000  0.987100  1.0
  C  C946  1  0.925300  0.744000  0.012900  1.0
  C  C947  1  0.425300  0.256000  0.487100  1.0
  C  C948  1  0.425300  0.244000  0.512900  1.0
  C  C949  1  0.074700  0.244000  0.012900  1.0
  C  C950  1  0.074700  0.256000  0.987100  1.0
  C  C951  1  0.574700  0.744000  0.512900  1.0
  C  C952  1  0.574700  0.756000  0.487100  1.0
  C  C953  1  0.984200  0.749400  0.011400  1.0
  C  C954  1  0.984200  0.750600  0.988600  1.0
  C  C955  1  0.484200  0.249400  0.511400  1.0
  C  C956  1  0.484200  0.250600  0.488600  1.0
  C  C957  1  0.015800  0.250600  0.988600  1.0
  C  C958  1  0.015800  0.249400  0.011400  1.0
  C  C959  1  0.515800  0.750600  0.488600  1.0
  C  C960  1  0.515800  0.749400  0.511400  1.0
  C  C961  1  0.977100  0.736400  0.049800  1.0
  C  C962  1  0.977100  0.763600  0.950200  1.0
  C  C963  1  0.477100  0.236400  0.549800  1.0
  C  C964  1  0.477100  0.263600  0.450200  1.0
  C  C965  1  0.022900  0.263600  0.950200  1.0
  C  C966  1  0.022900  0.236400  0.049800  1.0
  C  C967  1  0.522900  0.763600  0.450200  1.0
  C  C968  1  0.522900  0.736400  0.549800  1.0
  C  C969  1  0.035200  0.730200  0.072600  1.0
  C  C970  1  0.035200  0.769800  0.927400  1.0
  C  C971  1  0.535200  0.230200  0.572600  1.0
  C  C972  1  0.535200  0.269800  0.427400  1.0
  C  C973  1  0.964800  0.269800  0.927400  1.0
  C  C974  1  0.964800  0.230200  0.072600  1.0
  C  C975  1  0.464800  0.769800  0.427400  1.0
  C  C976  1  0.464800  0.730200  0.572600  1.0
  C  C977  1  0.103300  0.736700  0.058000  1.0
  C  C978  1  0.103300  0.763300  0.942000  1.0
  C  C979  1  0.603300  0.236700  0.558000  1.0
  C  C980  1  0.603300  0.263300  0.442000  1.0
  C  C981  1  0.896700  0.263300  0.942000  1.0
  C  C982  1  0.896700  0.236700  0.058000  1.0
  C  C983  1  0.396700  0.763300  0.442000  1.0
  C  C984  1  0.396700  0.736700  0.558000  1.0
  C  C985  1  0.112000  0.749300  0.020900  1.0
  C  C986  1  0.112000  0.750700  0.979100  1.0
  C  C987  1  0.612000  0.249300  0.520900  1.0
  C  C988  1  0.612000  0.250700  0.479100  1.0
  C  C989  1  0.888000  0.250700  0.979100  1.0
  C  C990  1  0.888000  0.249300  0.020900  1.0
  C  C991  1  0.388000  0.750700  0.479100  1.0
  C  C992  1  0.388000  0.749300  0.520900  1.0
  C  C993  1  0.053100  0.756000  0.996700  1.0
  C  C994  1  0.053100  0.744000  0.003300  1.0
  C  C995  1  0.553100  0.256000  0.496700  1.0
  C  C996  1  0.553100  0.244000  0.503300  1.0
  C  C997  1  0.946900  0.244000  0.003300  1.0
  C  C998  1  0.946900  0.256000  0.996700  1.0
  C  C999  1  0.446900  0.744000  0.503300  1.0
  C  C1000  1  0.446900  0.756000  0.496700  1.0
  C  C1001  1  0.627800  0.033500  0.145900  1.0
  C  C1002  1  0.627800  0.466500  0.854100  1.0
  C  C1003  1  0.127800  0.533500  0.645900  1.0
  C  C1004  1  0.127800  0.966500  0.354100  1.0
  C  C1005  1  0.372200  0.966500  0.854100  1.0
  C  C1006  1  0.372200  0.533500  0.145900  1.0
  C  C1007  1  0.872200  0.466500  0.354100  1.0
  C  C1008  1  0.872200  0.033500  0.645900  1.0
  C  C1009  1  0.613500  0.073000  0.131900  1.0
  C  C1010  1  0.613500  0.427000  0.868100  1.0
  C  C1011  1  0.113500  0.573000  0.631900  1.0
  C  C1012  1  0.113500  0.927000  0.368100  1.0
  C  C1013  1  0.386500  0.927000  0.868100  1.0
  C  C1014  1  0.386500  0.573000  0.131900  1.0
  C  C1015  1  0.886500  0.427000  0.368100  1.0
  C  C1016  1  0.886500  0.073000  0.631900  1.0
  C  C1017  1  0.595500  0.064600  0.088900  1.0
  C  C1018  1  0.595500  0.435400  0.911100  1.0
  C  C1019  1  0.095500  0.564600  0.588900  1.0
  C  C1020  1  0.095500  0.935400  0.411100  1.0
  C  C1021  1  0.404500  0.935400  0.911100  1.0
  C  C1022  1  0.404500  0.564600  0.088900  1.0
  C  C1023  1  0.904500  0.435400  0.411100  1.0
  C  C1024  1  0.904500  0.064600  0.588900  1.0
  C  C1025  1  0.594700  0.016000  0.060700  1.0
  C  C1026  1  0.594700  0.484000  0.939300  1.0
  C  C1027  1  0.094700  0.516000  0.560700  1.0
  C  C1028  1  0.094700  0.984000  0.439300  1.0
  C  C1029  1  0.405300  0.984000  0.939300  1.0
  C  C1030  1  0.405300  0.516000  0.060700  1.0
  C  C1031  1  0.905300  0.484000  0.439300  1.0
  C  C1032  1  0.905300  0.016000  0.560700  1.0
  C  C1033  1  0.609900  0.977100  0.077000  1.0
  C  C1034  1  0.609900  0.522900  0.923000  1.0
  C  C1035  1  0.109900  0.477100  0.577000  1.0
  C  C1036  1  0.109900  0.022900  0.423000  1.0
  C  C1037  1  0.390100  0.022900  0.923000  1.0
  C  C1038  1  0.390100  0.477100  0.077000  1.0
  C  C1039  1  0.890100  0.522900  0.423000  1.0
  C  C1040  1  0.890100  0.977100  0.577000  1.0
  C  C1041  1  0.613000  0.924700  0.050400  1.0
  C  C1042  1  0.613000  0.575300  0.949600  1.0
  C  C1043  1  0.113000  0.424700  0.550400  1.0
  C  C1044  1  0.113000  0.075300  0.449600  1.0
  C  C1045  1  0.387000  0.075300  0.949600  1.0
  C  C1046  1  0.387000  0.424700  0.050400  1.0
  C  C1047  1  0.887000  0.575300  0.449600  1.0
  C  C1048  1  0.887000  0.924700  0.550400  1.0
  C  C1049  1  0.587300  0.808300  0.031400  1.0
  C  C1050  1  0.587300  0.691700  0.968600  1.0
  C  C1051  1  0.087300  0.308300  0.531400  1.0
  C  C1052  1  0.087300  0.191700  0.468600  1.0
  C  C1053  1  0.412700  0.191700  0.968600  1.0
  C  C1054  1  0.412700  0.308300  0.031400  1.0
  C  C1055  1  0.912700  0.691700  0.468600  1.0
  C  C1056  1  0.912700  0.808300  0.531400  1.0
  C  C1057  1  0.644600  0.839100  0.044900  1.0
  C  C1058  1  0.644600  0.660900  0.955100  1.0
  C  C1059  1  0.144600  0.339100  0.544900  1.0
  C  C1060  1  0.144600  0.160900  0.455100  1.0
  C  C1061  1  0.355400  0.160900  0.955100  1.0
  C  C1062  1  0.355400  0.339100  0.044900  1.0
  C  C1063  1  0.855400  0.660900  0.455100  1.0
  C  C1064  1  0.855400  0.839100  0.544900  1.0
  C  C1065  1  0.713200  0.819900  0.033400  1.0
  C  C1066  1  0.713200  0.680100  0.966600  1.0
  C  C1067  1  0.213200  0.319900  0.533400  1.0
  C  C1068  1  0.213200  0.180100  0.466600  1.0
  C  C1069  1  0.286800  0.180100  0.966600  1.0
  C  C1070  1  0.286800  0.319900  0.033400  1.0
  C  C1071  1  0.786800  0.680100  0.466600  1.0
  C  C1072  1  0.786800  0.819900  0.533400  1.0
  C  C1073  1  0.722900  0.770400  0.008700  1.0
  C  C1074  1  0.722900  0.729600  0.991300  1.0
  C  C1075  1  0.222900  0.270400  0.508700  1.0
  C  C1076  1  0.222900  0.229600  0.491300  1.0
  C  C1077  1  0.277100  0.229600  0.991300  1.0
  C  C1078  1  0.277100  0.270400  0.008700  1.0
  C  C1079  1  0.777100  0.729600  0.491300  1.0
  C  C1080  1  0.777100  0.770400  0.508700  1.0
  C  C1081  1  0.664800  0.737400  0.994100  1.0
  C  C1082  1  0.664800  0.762600  0.005900  1.0
  C  C1083  1  0.164800  0.237400  0.494100  1.0
  C  C1084  1  0.164800  0.262600  0.505900  1.0
  C  C1085  1  0.335200  0.262600  0.005900  1.0
  C  C1086  1  0.335200  0.237400  0.994100  1.0
  C  C1087  1  0.835200  0.762600  0.505900  1.0
  C  C1088  1  0.835200  0.737400  0.494100  1.0
  C  C1089  1  0.672900  0.686000  0.968500  1.0
  C  C1090  1  0.672900  0.814000  0.031500  1.0
  C  C1091  1  0.172900  0.186000  0.468500  1.0
  C  C1092  1  0.172900  0.314000  0.531500  1.0
  C  C1093  1  0.327100  0.314000  0.031500  1.0
  C  C1094  1  0.327100  0.186000  0.968500  1.0
  C  C1095  1  0.827100  0.814000  0.531500  1.0
  C  C1096  1  0.827100  0.686000  0.468500  1.0
  C  C1097  1  0.615600  0.655200  0.954900  1.0
  C  C1098  1  0.615600  0.844800  0.045100  1.0
  C  C1099  1  0.115600  0.155200  0.454900  1.0
  C  C1100  1  0.115600  0.344800  0.545100  1.0
  C  C1101  1  0.384400  0.344800  0.045100  1.0
  C  C1102  1  0.384400  0.155200  0.954900  1.0
  C  C1103  1  0.884400  0.844800  0.545100  1.0
  C  C1104  1  0.884400  0.655200  0.454900  1.0
  C  C1105  1  0.547000  0.674400  0.966400  1.0
  C  C1106  1  0.547000  0.825600  0.033600  1.0
  C  C1107  1  0.047000  0.174400  0.466400  1.0
  C  C1108  1  0.047000  0.325600  0.533600  1.0
  C  C1109  1  0.453000  0.325600  0.033600  1.0
  C  C1110  1  0.453000  0.174400  0.966400  1.0
  C  C1111  1  0.953000  0.825600  0.533600  1.0
  C  C1112  1  0.953000  0.674400  0.466400  1.0
  C  C1113  1  0.537300  0.724000  0.991200  1.0
  C  C1114  1  0.537300  0.776000  0.008800  1.0
  C  C1115  1  0.037300  0.224000  0.491200  1.0
  C  C1116  1  0.037300  0.276000  0.508800  1.0
  C  C1117  1  0.462700  0.276000  0.008800  1.0
  C  C1118  1  0.462700  0.224000  0.991200  1.0
  C  C1119  1  0.962700  0.776000  0.508800  1.0
  C  C1120  1  0.962700  0.724000  0.491200  1.0
  C  C1121  1  0.595400  0.756800  0.005700  1.0
  C  C1122  1  0.595400  0.743200  0.994300  1.0
  C  C1123  1  0.095400  0.256800  0.505700  1.0
  C  C1124  1  0.095400  0.243200  0.494300  1.0
  C  C1125  1  0.404600  0.243200  0.994300  1.0
  C  C1126  1  0.404600  0.256800  0.005700  1.0
  C  C1127  1  0.904600  0.743200  0.494300  1.0
  C  C1128  1  0.904600  0.756800  0.505700  1.0
  S  S1129  1  0.762230  0.483170  0.571530  1
  S  S1130  1  0.762230  0.016830  0.428470  1
  S  S1131  1  0.262230  0.983170  0.071530  1
  S  S1132  1  0.262230  0.516830  0.928470  1
  S  S1133  1  0.237770  0.516830  0.428470  1
  S  S1134  1  0.237770  0.983170  0.571530  1
  S  S1135  1  0.737770  0.016830  0.928470  1
  S  S1136  1  0.737770  0.483170  0.071530  1
  S  S1137  1  0.962500  0.297160  0.400200  1
  S  S1138  1  0.962500  0.202840  0.599800  1
  S  S1139  1  0.462500  0.797160  0.900200  1
  S  S1140  1  0.462500  0.702840  0.099800  1
  S  S1141  1  0.037500  0.702840  0.599800  1
  S  S1142  1  0.037500  0.797160  0.400200  1
  S  S1143  1  0.537500  0.202840  0.099800  1
  S  S1144  1  0.537500  0.297160  0.900200  1
  S  S1145  1  0.285400  0.642100  0.275400  1
  S  S1146  1  0.285400  0.857900  0.724600  1
  S  S1147  1  0.785400  0.142100  0.775400  1
  S  S1148  1  0.785400  0.357900  0.224600  1
  S  S1149  1  0.714600  0.357900  0.724600  1
  S  S1150  1  0.714600  0.142100  0.275400  1
  S  S1151  1  0.214600  0.857900  0.224600  1
  S  S1152  1  0.214600  0.642100  0.775400  1
  S  S1153  1  0.910700  0.570750  0.757610  1
  S  S1154  1  0.910700  0.929250  0.242390  1
  S  S1155  1  0.410700  0.070750  0.257610  1
  S  S1156  1  0.410700  0.429250  0.742390  1
  S  S1157  1  0.089300  0.429250  0.242390  1
  S  S1158  1  0.089300  0.070750  0.757610  1
  S  S1159  1  0.589300  0.929250  0.742390  1
  S  S1160  1  0.589300  0.570750  0.257610  1
  S  S1161  1  0.227800  0.620000  0.238200  1
  S  S1162  1  0.227800  0.880000  0.761800  1
  S  S1163  1  0.727800  0.120000  0.738200  1
  S  S1164  1  0.727800  0.380000  0.261800  1
  S  S1165  1  0.772200  0.380000  0.761800  1
  S  S1166  1  0.772200  0.120000  0.238200  1
  S  S1167  1  0.272200  0.880000  0.261800  1
  S  S1168  1  0.272200  0.620000  0.738200  1
  N  N1169  1  0.646800  0.728900  0.760700  1
  N  N1170  1  0.646800  0.771100  0.239300  1
  N  N1171  1  0.146800  0.228900  0.260700  1
  N  N1172  1  0.146800  0.271100  0.739300  1
  N  N1173  1  0.353200  0.271100  0.239300  1
  N  N1174  1  0.353200  0.228900  0.760700  1
  N  N1175  1  0.853200  0.771100  0.739300  1
  N  N1176  1  0.853200  0.728900  0.260700  1
  N  N1177  1  0.119200  0.885800  0.067400  1
  N  N1178  1  0.119200  0.614200  0.932600  1
  N  N1179  1  0.619200  0.385800  0.567400  1
  N  N1180  1  0.619200  0.114200  0.432600  1
  N  N1181  1  0.880800  0.114200  0.932600  1
  N  N1182  1  0.880800  0.385800  0.067400  1
  N  N1183  1  0.380800  0.614200  0.432600  1
  N  N1184  1  0.380800  0.885800  0.567400  1
  N  N1185  1  0.118700  0.858600  0.898100  1.0
  N  N1186  1  0.118700  0.641400  0.101900  1.0
  N  N1187  1  0.618700  0.358600  0.398100  1.0
  N  N1188  1  0.618700  0.141400  0.601900  1.0
  N  N1189  1  0.881300  0.141400  0.101900  1.0
  N  N1190  1  0.881300  0.358600  0.898100  1.0
  N  N1191  1  0.381300  0.641400  0.601900  1.0
  N  N1192  1  0.381300  0.858600  0.398100  1.0
  N  N1193  1  0.018000  0.890400  0.953200  1.0
  N  N1194  1  0.018000  0.609600  0.046800  1.0
  N  N1195  1  0.518000  0.390400  0.453200  1.0
  N  N1196  1  0.518000  0.109600  0.546800  1.0
  N  N1197  1  0.982000  0.109600  0.046800  1.0
  N  N1198  1  0.982000  0.390400  0.953200  1.0
  N  N1199  1  0.482000  0.609600  0.546800  1.0
  N  N1200  1  0.482000  0.890400  0.453200  1.0
  N  N1201  1  0.737900  0.933000  0.140300  1.0
  N  N1202  1  0.737900  0.567000  0.859700  1.0
  N  N1203  1  0.237900  0.433000  0.640300  1.0
  N  N1204  1  0.237900  0.067000  0.359700  1.0
  N  N1205  1  0.262100  0.067000  0.859700  1.0
  N  N1206  1  0.262100  0.433000  0.140300  1.0
  N  N1207  1  0.762100  0.567000  0.359700  1.0
  N  N1208  1  0.762100  0.933000  0.640300  1.0
  N  N1209  1  0.641100  0.958900  0.197800  1.0
  N  N1210  1  0.641100  0.541100  0.802200  1.0
  N  N1211  1  0.141100  0.458900  0.697800  1.0
  N  N1212  1  0.141100  0.041100  0.302200  1.0
  N  N1213  1  0.358900  0.041100  0.802200  1.0
  N  N1214  1  0.358900  0.458900  0.197800  1.0
  N  N1215  1  0.858900  0.541100  0.302200  1.0
  N  N1216  1  0.858900  0.958900  0.697800  1.0
  N  N1217  1  0.532500  0.914100  0.136400  1.0
  N  N1218  1  0.532500  0.585900  0.863600  1.0
  N  N1219  1  0.032500  0.414100  0.636400  1.0
  N  N1220  1  0.032500  0.085900  0.363600  1.0
  N  N1221  1  0.467500  0.085900  0.863600  1.0
  N  N1222  1  0.467500  0.414100  0.136400  1.0
  N  N1223  1  0.967500  0.585900  0.363600  1.0
  N  N1224  1  0.967500  0.914100  0.636400  1.0
  N  N1225  1  0.633100  0.856500  0.143500  1.0
  N  N1226  1  0.633100  0.643500  0.856500  1.0
  N  N1227  1  0.133100  0.356500  0.643500  1.0
  N  N1228  1  0.133100  0.143500  0.356500  1.0
  N  N1229  1  0.366900  0.143500  0.856500  1.0
  N  N1230  1  0.366900  0.356500  0.143500  1.0
  N  N1231  1  0.866900  0.643500  0.356500  1.0
  N  N1232  1  0.866900  0.856500  0.643500  1.0
  N  N1233  1  0.912300  0.641600  0.117200  1.0
  N  N1234  1  0.912300  0.858400  0.882800  1.0
  N  N1235  1  0.412300  0.141600  0.617200  1.0
  N  N1236  1  0.412300  0.358400  0.382800  1.0
  N  N1237  1  0.087700  0.358400  0.882800  1.0
  N  N1238  1  0.087700  0.141600  0.117200  1.0
  N  N1239  1  0.587700  0.858400  0.382800  1.0
  N  N1240  1  0.587700  0.641600  0.617200  1.0
  N  N1241  1  0.008900  0.579600  0.119600  1.0
  N  N1242  1  0.008900  0.920400  0.880400  1.0
  N  N1243  1  0.508900  0.079600  0.619600  1.0
  N  N1244  1  0.508900  0.420400  0.380400  1.0
  N  N1245  1  0.991100  0.420400  0.880400  1.0
  N  N1246  1  0.991100  0.079600  0.119600  1.0
  N  N1247  1  0.491100  0.920400  0.380400  1.0
  N  N1248  1  0.491100  0.579600  0.619600  1.0
  N  N1249  1  0.023400  0.815800  0.827200  1.0
  N  N1250  1  0.023400  0.684200  0.172800  1.0
  N  N1251  1  0.523400  0.315800  0.327200  1.0
  N  N1252  1  0.523400  0.184200  0.672800  1.0
  N  N1253  1  0.976600  0.184200  0.172800  1.0
  N  N1254  1  0.976600  0.315800  0.827200  1.0
  N  N1255  1  0.476600  0.684200  0.672800  1.0
  N  N1256  1  0.476600  0.815800  0.327200  1.0
  N  N1257  1  0.018600  0.786200  0.893200  1.0
  N  N1258  1  0.018600  0.713800  0.106800  1.0
  N  N1259  1  0.518600  0.286200  0.393200  1.0
  N  N1260  1  0.518600  0.213800  0.606800  1.0
  N  N1261  1  0.981400  0.213800  0.106800  1.0
  N  N1262  1  0.981400  0.286200  0.893200  1.0
  N  N1263  1  0.481400  0.713800  0.606800  1.0
  N  N1264  1  0.481400  0.786200  0.393200  1.0
  N  N1265  1  0.625500  0.985100  0.119800  1.0
  N  N1266  1  0.625500  0.514900  0.880200  1.0
  N  N1267  1  0.125500  0.485100  0.619800  1.0
  N  N1268  1  0.125500  0.014900  0.380200  1.0
  N  N1269  1  0.374500  0.014900  0.880200  1.0
  N  N1270  1  0.374500  0.485100  0.119800  1.0
  N  N1271  1  0.874500  0.514900  0.380200  1.0
  N  N1272  1  0.874500  0.985100  0.619800  1.0
  N  N1273  1  0.630100  0.893200  0.070100  1.0
  N  N1274  1  0.630100  0.606800  0.929900  1.0
  N  N1275  1  0.130100  0.393200  0.570100  1.0
  N  N1276  1  0.130100  0.106800  0.429900  1.0
  N  N1277  1  0.369900  0.106800  0.929900  1.0
  N  N1278  1  0.369900  0.393200  0.070100  1.0
  N  N1279  1  0.869900  0.606800  0.429900  1.0
  N  N1280  1  0.869900  0.893200  0.570100  1.0
  O  O1281  1  0.755800  0.487300  0.617200  1
  O  O1282  1  0.755800  0.012700  0.382800  1
  O  O1283  1  0.255800  0.987300  0.117200  1
  O  O1284  1  0.255800  0.512700  0.882800  1
  O  O1285  1  0.244200  0.512700  0.382800  1
  O  O1286  1  0.244200  0.987300  0.617200  1
  O  O1287  1  0.744200  0.012700  0.882800  1
  O  O1288  1  0.744200  0.487300  0.117200  1
  O  O1289  1  0.798800  0.438500  0.546000  1
  O  O1290  1  0.798800  0.061500  0.454000  1
  O  O1291  1  0.298800  0.938500  0.046000  1
  O  O1292  1  0.298800  0.561500  0.954000  1
  O  O1293  1  0.201200  0.561500  0.454000  1
  O  O1294  1  0.201200  0.938500  0.546000  1
  O  O1295  1  0.701200  0.061500  0.954000  1
  O  O1296  1  0.701200  0.438500  0.046000  1
  O  O1297  1  0.698900  0.493600  0.553200  1
  O  O1298  1  0.698900  0.006400  0.446800  1
  O  O1299  1  0.198900  0.993600  0.053200  1
  O  O1300  1  0.198900  0.506400  0.946800  1
  O  O1301  1  0.301100  0.506400  0.446800  1
  O  O1302  1  0.301100  0.993600  0.553200  1
  O  O1303  1  0.801100  0.006400  0.946800  1
  O  O1304  1  0.801100  0.493600  0.053200  1
  O  O1305  1  0.922000  0.304400  0.368000  1
  O  O1306  1  0.922000  0.195600  0.632000  1
  O  O1307  1  0.422000  0.804400  0.868000  1
  O  O1308  1  0.422000  0.695600  0.132000  1
  O  O1309  1  0.078000  0.695600  0.632000  1
  O  O1310  1  0.078000  0.804400  0.368000  1
  O  O1311  1  0.578000  0.195600  0.132000  1
  O  O1312  1  0.578000  0.304400  0.868000  1
  O  O1313  1  0.937200  0.335900  0.444700  1
  O  O1314  1  0.937200  0.164100  0.555300  1
  O  O1315  1  0.437200  0.835900  0.944700  1
  O  O1316  1  0.437200  0.664100  0.055300  1
  O  O1317  1  0.062800  0.664100  0.555300  1
  O  O1318  1  0.062800  0.835900  0.444700  1
  O  O1319  1  0.562800  0.164100  0.055300  1
  O  O1320  1  0.562800  0.335900  0.944700  1
  O  O1321  1  0.977700  0.252200  0.405700  1
  O  O1322  1  0.977700  0.247800  0.594300  1
  O  O1323  1  0.477700  0.752200  0.905700  1
  O  O1324  1  0.477700  0.747800  0.094300  1
  O  O1325  1  0.022300  0.747800  0.594300  1
  O  O1326  1  0.022300  0.752200  0.405700  1
  O  O1327  1  0.522300  0.247800  0.094300  1
  O  O1328  1  0.522300  0.252200  0.905700  1
  O  O1329  1  0.226600  0.612500  0.281100  1
  O  O1330  1  0.226600  0.887500  0.718900  1
  O  O1331  1  0.726600  0.112500  0.781100  1
  O  O1332  1  0.726600  0.387500  0.218900  1
  O  O1333  1  0.773400  0.387500  0.718900  1
  O  O1334  1  0.773400  0.112500  0.281100  1
  O  O1335  1  0.273400  0.887500  0.218900  1
  O  O1336  1  0.273400  0.612500  0.781100  1
  O  O1337  1  0.336900  0.654800  0.310000  1
  O  O1338  1  0.336900  0.845200  0.690000  1
  O  O1339  1  0.836900  0.154800  0.810000  1
  O  O1340  1  0.836900  0.345200  0.190000  1
  O  O1341  1  0.663100  0.345200  0.690000  1
  O  O1342  1  0.663100  0.154800  0.310000  1
  O  O1343  1  0.163100  0.845200  0.190000  1
  O  O1344  1  0.163100  0.654800  0.810000  1
  O  O1345  1  0.313300  0.628100  0.231700  1
  O  O1346  1  0.313300  0.871900  0.768300  1
  O  O1347  1  0.813300  0.128100  0.731700  1
  O  O1348  1  0.813300  0.371900  0.268300  1
  O  O1349  1  0.686700  0.371900  0.768300  1
  O  O1350  1  0.686700  0.128100  0.231700  1
  O  O1351  1  0.186700  0.871900  0.268300  1
  O  O1352  1  0.186700  0.628100  0.731700  1
  O  O1353  1  0.207100  0.560200  0.169200  1
  O  O1354  1  0.207100  0.939800  0.830800  1
  O  O1355  1  0.707100  0.060200  0.669200  1
  O  O1356  1  0.707100  0.439800  0.330800  1
  O  O1357  1  0.792900  0.439800  0.830800  1
  O  O1358  1  0.792900  0.060200  0.169200  1
  O  O1359  1  0.292900  0.939800  0.330800  1
  O  O1360  1  0.292900  0.560200  0.669200  1
  O  O1361  1  0.928000  0.517300  0.746000  1
  O  O1362  1  0.928000  0.982700  0.254000  1
  O  O1363  1  0.428000  0.017300  0.246000  1
  O  O1364  1  0.428000  0.482700  0.754000  1
  O  O1365  1  0.072000  0.482700  0.254000  1
  O  O1366  1  0.072000  0.017300  0.746000  1
  O  O1367  1  0.572000  0.982700  0.754000  1
  O  O1368  1  0.572000  0.517300  0.246000  1
  O  O1369  1  0.841400  0.582800  0.752300  1
  O  O1370  1  0.841400  0.917200  0.247700  1
  O  O1371  1  0.341400  0.082800  0.252300  1
  O  O1372  1  0.341400  0.417200  0.747700  1
  O  O1373  1  0.158600  0.417200  0.247700  1
  O  O1374  1  0.158600  0.082800  0.752300  1
  O  O1375  1  0.658600  0.917200  0.747700  1
  O  O1376  1  0.658600  0.582800  0.252300  1
  O  O1377  1  0.943200  0.601700  0.796700  1
  O  O1378  1  0.943200  0.898300  0.203300  1
  O  O1379  1  0.443200  0.101700  0.296700  1
  O  O1380  1  0.443200  0.398300  0.703300  1
  O  O1381  1  0.056800  0.398300  0.203300  1
  O  O1382  1  0.056800  0.101700  0.796700  1
  O  O1383  1  0.556800  0.898300  0.703300  1
  O  O1384  1  0.556800  0.601700  0.296700  1
  O  O1385  1  0.900500  0.320500  0.404900  1
  O  O1386  1  0.900500  0.179500  0.595100  1
  O  O1387  1  0.400500  0.820500  0.904900  1
  O  O1388  1  0.400500  0.679500  0.095100  1
  O  O1389  1  0.099500  0.679500  0.595100  1
  O  O1390  1  0.099500  0.820500  0.404900  1
  O  O1391  1  0.599500  0.179500  0.095100  1
  O  O1392  1  0.599500  0.320500  0.904900  1
  O  O1393  1  0.991000  0.269700  0.424300  1
  O  O1394  1  0.991000  0.230300  0.575700  1
  O  O1395  1  0.491000  0.769700  0.924300  1
  O  O1396  1  0.491000  0.730300  0.075700  1
  O  O1397  1  0.009000  0.730300  0.575700  1
  O  O1398  1  0.009000  0.769700  0.424300  1
  O  O1399  1  0.509000  0.230300  0.075700  1
  O  O1400  1  0.509000  0.269700  0.924300  1
  O  O1401  1  0.958300  0.251100  0.347900  1
  O  O1402  1  0.958300  0.248900  0.652100  1
  O  O1403  1  0.458300  0.751100  0.847900  1
  O  O1404  1  0.458300  0.748900  0.152100  1
  O  O1405  1  0.041700  0.748900  0.652100  1
  O  O1406  1  0.041700  0.751100  0.347900  1
  O  O1407  1  0.541700  0.248900  0.152100  1
  O  O1408  1  0.541700  0.251100  0.847900  1
  O  O1409  1  0.196600  0.580900  0.202100  1
  O  O1410  1  0.196600  0.919100  0.797900  1
  O  O1411  1  0.696600  0.080900  0.702100  1
  O  O1412  1  0.696600  0.419100  0.297900  1
  O  O1413  1  0.803400  0.419100  0.797900  1
  O  O1414  1  0.803400  0.080900  0.202100  1
  O  O1415  1  0.303400  0.919100  0.297900  1
  O  O1416  1  0.303400  0.580900  0.702100  1
  O  O1417  1  0.244900  0.605900  0.275800  1
  O  O1418  1  0.244900  0.894100  0.724200  1
  O  O1419  1  0.744900  0.105900  0.775800  1
  O  O1420  1  0.744900  0.394100  0.224200  1
  O  O1421  1  0.755100  0.394100  0.724200  1
  O  O1422  1  0.755100  0.105900  0.275800  1
  O  O1423  1  0.255100  0.894100  0.224200  1
  O  O1424  1  0.255100  0.605900  0.775800  1
  O  O1425  1  0.279200  0.651200  0.226600  1
  O  O1426  1  0.279200  0.848800  0.773400  1
  O  O1427  1  0.779200  0.151200  0.726600  1
  O  O1428  1  0.779200  0.348800  0.273400  1
  O  O1429  1  0.720800  0.348800  0.773400  1
  O  O1430  1  0.720800  0.151200  0.226600  1
  O  O1431  1  0.220800  0.848800  0.273400  1
  O  O1432  1  0.220800  0.651200  0.726600  1
  O  O1433  1  0.319900  0.680400  0.368300  1
  O  O1434  1  0.319900  0.819600  0.631700  1
  O  O1435  1  0.819900  0.180400  0.868300  1
  O  O1436  1  0.819900  0.319600  0.131700  1
  O  O1437  1  0.680100  0.319600  0.631700  1
  O  O1438  1  0.680100  0.180400  0.368300  1
  O  O1439  1  0.180100  0.819600  0.131700  1
  O  O1440  1  0.180100  0.680400  0.868300  1
  F  F1441  1  0.826700  0.539600  0.534100  1
  F  F1442  1  0.826700  0.960400  0.465900  1
  F  F1443  1  0.326700  0.039600  0.034100  1
  F  F1444  1  0.326700  0.460400  0.965900  1
  F  F1445  1  0.173300  0.460400  0.465900  1
  F  F1446  1  0.173300  0.039600  0.534100  1
  F  F1447  1  0.673300  0.960400  0.965900  1
  F  F1448  1  0.673300  0.539600  0.034100  1
  F  F1449  1  0.884400  0.527500  0.586400  1
  F  F1450  1  0.884400  0.972500  0.413600  1
  F  F1451  1  0.384400  0.027500  0.086400  1
  F  F1452  1  0.384400  0.472500  0.913600  1
  F  F1453  1  0.115600  0.472500  0.413600  1
  F  F1454  1  0.115600  0.027500  0.586400  1
  F  F1455  1  0.615600  0.972500  0.913600  1
  F  F1456  1  0.615600  0.527500  0.086400  1
  F  F1457  1  0.798200  0.578400  0.598700  1
  F  F1458  1  0.798200  0.921600  0.401300  1
  F  F1459  1  0.298200  0.078400  0.098700  1
  F  F1460  1  0.298200  0.421600  0.901300  1
  F  F1461  1  0.201800  0.421600  0.401300  1
  F  F1462  1  0.201800  0.078400  0.598700  1
  F  F1463  1  0.701800  0.921600  0.901300  1
  F  F1464  1  0.701800  0.578400  0.098700  1
  F  F1465  1  0.080200  0.294000  0.364100  1
  F  F1466  1  0.080200  0.206000  0.635900  1
  F  F1467  1  0.580200  0.794000  0.864100  1
  F  F1468  1  0.580200  0.706000  0.135900  1
  F  F1469  1  0.919800  0.706000  0.635900  1
  F  F1470  1  0.919800  0.794000  0.364100  1
  F  F1471  1  0.419800  0.206000  0.135900  1
  F  F1472  1  0.419800  0.294000  0.864100  1
  F  F1473  1  0.084200  0.343000  0.429100  1
  F  F1474  1  0.084200  0.157000  0.570900  1
  F  F1475  1  0.584200  0.843000  0.929100  1
  F  F1476  1  0.584200  0.657000  0.070900  1
  F  F1477  1  0.915800  0.657000  0.570900  1
  F  F1478  1  0.915800  0.843000  0.429100  1
  F  F1479  1  0.415800  0.157000  0.070900  1
  F  F1480  1  0.415800  0.343000  0.929100  1
  F  F1481  1  0.033300  0.364900  0.379900  1
  F  F1482  1  0.033300  0.135100  0.620100  1
  F  F1483  1  0.533300  0.864900  0.879900  1
  F  F1484  1  0.533300  0.635100  0.120100  1
  F  F1485  1  0.966700  0.635100  0.620100  1
  F  F1486  1  0.966700  0.864900  0.379900  1
  F  F1487  1  0.466700  0.135100  0.120100  1
  F  F1488  1  0.466700  0.364900  0.879900  1
  F  F1489  1  0.290800  0.737500  0.278300  1
  F  F1490  1  0.290800  0.762500  0.721700  1
  F  F1491  1  0.790800  0.237500  0.778300  1
  F  F1492  1  0.790800  0.262500  0.221700  1
  F  F1493  1  0.709200  0.262500  0.721700  1
  F  F1494  1  0.709200  0.237500  0.278300  1
  F  F1495  1  0.209200  0.762500  0.221700  1
  F  F1496  1  0.209200  0.737500  0.778300  1
  F  F1497  1  0.193700  0.700300  0.252900  1
  F  F1498  1  0.193700  0.799700  0.747100  1
  F  F1499  1  0.693700  0.200300  0.752900  1
  F  F1500  1  0.693700  0.299700  0.247100  1
  F  F1501  1  0.806300  0.299700  0.747100  1
  F  F1502  1  0.806300  0.200300  0.252900  1
  F  F1503  1  0.306300  0.799700  0.247100  1
  F  F1504  1  0.306300  0.700300  0.752900  1
  F  F1505  1  0.214500  0.723600  0.321700  1
  F  F1506  1  0.214500  0.776400  0.678300  1
  F  F1507  1  0.714500  0.223600  0.821700  1
  F  F1508  1  0.714500  0.276400  0.178300  1
  F  F1509  1  0.785500  0.276400  0.678300  1
  F  F1510  1  0.785500  0.223600  0.321700  1
  F  F1511  1  0.285500  0.776400  0.178300  1
  F  F1512  1  0.285500  0.723600  0.821700  1
  F  F1513  1  0.948500  0.638200  0.726500  1
  F  F1514  1  0.948500  0.861800  0.273500  1
  F  F1515  1  0.448500  0.138200  0.226500  1
  F  F1516  1  0.448500  0.361800  0.773500  1
  F  F1517  1  0.051500  0.361800  0.273500  1
  F  F1518  1  0.051500  0.138200  0.726500  1
  F  F1519  1  0.551500  0.861800  0.773500  1
  F  F1520  1  0.551500  0.638200  0.226500  1
  F  F1521  1  0.938500  0.566600  0.680300  1
  F  F1522  1  0.938500  0.933400  0.319700  1
  F  F1523  1  0.438500  0.066600  0.180300  1
  F  F1524  1  0.438500  0.433400  0.819700  1
  F  F1525  1  0.061500  0.433400  0.319700  1
  F  F1526  1  0.061500  0.066600  0.680300  1
  F  F1527  1  0.561500  0.933400  0.819700  1
  F  F1528  1  0.561500  0.566600  0.180300  1
  F  F1529  1  0.027500  0.587300  0.725100  1
  F  F1530  1  0.027500  0.912700  0.274900  1
  F  F1531  1  0.527500  0.087300  0.225100  1
  F  F1532  1  0.527500  0.412700  0.774900  1
  F  F1533  1  0.972500  0.412700  0.274900  1
  F  F1534  1  0.972500  0.087300  0.725100  1
  F  F1535  1  0.472500  0.912700  0.774900  1
  F  F1536  1  0.472500  0.587300  0.225100  1
  F  F1537  1  0.043100  0.376900  0.408800  1
  F  F1538  1  0.043100  0.123100  0.591200  1
  F  F1539  1  0.543100  0.876900  0.908800  1
  F  F1540  1  0.543100  0.623100  0.091200  1
  F  F1541  1  0.956900  0.623100  0.591200  1
  F  F1542  1  0.956900  0.876900  0.408800  1
  F  F1543  1  0.456900  0.123100  0.091200  1
  F  F1544  1  0.456900  0.376900  0.908800  1
  F  F1545  1  0.081500  0.320600  0.427500  1
  F  F1546  1  0.081500  0.179400  0.572500  1
  F  F1547  1  0.581500  0.820600  0.927500  1
  F  F1548  1  0.581500  0.679400  0.072500  1
  F  F1549  1  0.918500  0.679400  0.572500  1
  F  F1550  1  0.918500  0.820600  0.427500  1
  F  F1551  1  0.418500  0.179400  0.072500  1
  F  F1552  1  0.418500  0.320600  0.927500  1
  F  F1553  1  0.089700  0.315700  0.364500  1
  F  F1554  1  0.089700  0.184300  0.635500  1
  F  F1555  1  0.589700  0.815700  0.864500  1
  F  F1556  1  0.589700  0.684300  0.135500  1
  F  F1557  1  0.910300  0.684300  0.635500  1
  F  F1558  1  0.910300  0.815700  0.364500  1
  F  F1559  1  0.410300  0.184300  0.135500  1
  F  F1560  1  0.410300  0.315700  0.864500  1
  F  F1561  1  0.172000  0.704000  0.292500  1
  F  F1562  1  0.172000  0.796000  0.707500  1
  F  F1563  1  0.672000  0.204000  0.792500  1
  F  F1564  1  0.672000  0.296000  0.207500  1
  F  F1565  1  0.828000  0.296000  0.707500  1
  F  F1566  1  0.828000  0.204000  0.292500  1
  F  F1567  1  0.328000  0.796000  0.207500  1
  F  F1568  1  0.328000  0.704000  0.792500  1
  F  F1569  1  0.129700  0.682000  0.227600  1
  F  F1570  1  0.129700  0.818000  0.772400  1
  F  F1571  1  0.629700  0.182000  0.727600  1
  F  F1572  1  0.629700  0.318000  0.272400  1
  F  F1573  1  0.870300  0.318000  0.772400  1
  F  F1574  1  0.870300  0.182000  0.227600  1
  F  F1575  1  0.370300  0.818000  0.272400  1
  F  F1576  1  0.370300  0.682000  0.727600  1
  F  F1577  1  0.099500  0.642200  0.271000  1
  F  F1578  1  0.099500  0.857800  0.729000  1
  F  F1579  1  0.599500  0.142200  0.771000  1
  F  F1580  1  0.599500  0.357800  0.229000  1
  F  F1581  1  0.900500  0.357800  0.729000  1
  F  F1582  1  0.900500  0.142200  0.271000  1
  F  F1583  1  0.400500  0.857800  0.229000  1
  F  F1584  1  0.400500  0.642200  0.771000  1
