
#######################################################################
#
#                 Cambridge Crystallographic Data Centre
#                                CCDC 
#
#######################################################################
#
# If this CIF has been generated from an entry in the Cambridge 
# Structural Database, then it will include bibliographic, chemical, 
# crystal, experimental, refinement or atomic coordinate data resulting 
# from the CCDC's data processing and validation procedures.
#
#######################################################################

data_IFUTIO
_chemical_formula_moiety         
'C156 H108 Fe4 N24 8+,2(C4 H10 O1),8(C1 F3 O3 S1 1-),3(C2 H3 N1)'
_chemical_name_systematic        
"hexakis(\m~2~-N,N'-bis(pyridin-2-ylmethylene)anthracene-2,6-diamine)-tetra-iron(ii) octakis(trifluoromethanesulfonate) acetonitrile diethyl ether unknown solvate"
_symmetry_cell_setting           triclinic
_symmetry_space_group_name_H-M   'P -1'
_symmetry_Int_Tables_number      2
_space_group_name_Hall           '-P 1'
loop_
_symmetry_equiv_pos_site_id
_symmetry_equiv_pos_as_xyz
1 x,y,z
2 -x,-y,-z
_cell_length_a                   18.800(6)
_cell_length_b                   18.903(6)
_cell_length_c                   27.051(9)
_cell_angle_alpha                101.662(4)
_cell_angle_beta                 94.885(3)
_cell_angle_gamma                94.905(4)
_cell_volume                     9328.53
_exptl_crystal_colour            purple
_exptl_crystal_description       block
_cell_formula_units_Z            2
loop_
_atom_site_label
_atom_site_type_symbol
_atom_site_fract_x
_atom_site_fract_y
_atom_site_fract_z
Fe1 Fe 0.30211(5) 0.59733(5) 0.43735(3)
Fe2 Fe 0.76916(5) 0.85983(5) 0.80760(3)
Fe3 Fe 0.20973(5) 1.16745(5) 0.71120(3)
Fe4 Fe 0.15893(5) 0.63662(5) 0.89929(3)
N1 N 0.2363(3) 0.5080(3) 0.42727(19)
N2 N 0.3521(3) 0.5485(3) 0.48591(17)
N3 N 0.7080(3) 0.7672(3) 0.79463(19)
N4 N 0.8140(3) 0.8162(3) 0.86105(19)
N5 N 0.3582(3) 0.5543(3) 0.38257(18)
N6 N 0.3782(3) 0.6790(3) 0.44352(18)
N7 N 0.2859(3) 1.1531(3) 0.66532(18)
N8 N 0.2768(3) 1.2545(3) 0.7420(2)
N9 N 0.2401(3) 0.6414(3) 0.3924(2)
N10 N 0.2432(3) 0.6483(3) 0.48735(19)
N11 N 0.2297(3) 0.5980(3) 0.85497(19)
N12 N 0.2280(3) 0.6093(3) 0.9501(2)
N13 N 0.8330(3) 0.8202(3) 0.7573(2)
N14 N 0.7314(3) 0.9001(3) 0.7498(2)
N15 N 0.2531(3) 1.1167(3) 0.7613(2)
N16 N 0.1436(3) 1.1877(3) 0.7641(2)
N17 N 0.8296(3) 0.9539(3) 0.8302(2)
N18 N 0.7094(3) 0.9105(3) 0.8574(2)
N19 N 0.2027(3) 0.7386(3) 0.9178(2)
N20 N 0.0956(3) 0.6767(3) 0.9499(2)
N21 N 0.1548(3) 1.2143(3) 0.6641(2)
N22 N 0.1407(3) 1.0847(3) 0.6759(2)
N23 N 0.0877(3) 0.6532(3) 0.8452(2)
N24 N 0.1012(3) 0.5408(3) 0.8816(2)
C1 C 0.1784(4) 0.4867(4) 0.3935(3)
H1 H 0.1641 0.5182 0.3721
C2 C 0.1381(4) 0.4194(4) 0.3889(3)
H2 H 0.0973 0.4056 0.3645
C3 C 0.1575(4) 0.3738(4) 0.4193(3)
H3 H 0.1307 0.3280 0.4168
C4 C 0.2173(4) 0.3960(4) 0.4540(3)
H4 H 0.2320 0.3650 0.4757
C5 C 0.2554(4) 0.4610(3) 0.4575(2)
C6 C 0.3197(3) 0.4882(3) 0.4904(2)
H5 H 0.3377 0.4625 0.5147
C7 C 0.4155(3) 0.5776(3) 0.5210(2)
C8 C 0.4826(4) 0.5881(3) 0.5020(2)
H6 H 0.4864 0.5733 0.4667
C9 C 0.5411(3) 0.6190(3) 0.5337(2)
H7 H 0.5858 0.6256 0.5205
C10 C 0.5369(3) 0.6418(3) 0.5868(2)
C11 C 0.4693(3) 0.6287(3) 0.6059(2)
C12 C 0.4090(3) 0.5955(3) 0.5711(2)
H8 H 0.3640 0.5858 0.5833
C13 C 0.5952(3) 0.6776(3) 0.6200(2)
H9 H 0.6392 0.6890 0.6071
C14 C 0.5905(3) 0.6974(3) 0.6725(2)
C15 C 0.5232(3) 0.6823(3) 0.6909(2)
C16 C 0.4647(4) 0.6491(4) 0.6583(2)
H10 H 0.4204 0.6397 0.6714
C17 C 0.6519(3) 0.7292(3) 0.7076(2)
H11 H 0.6964 0.7416 0.6957
C18 C 0.6453(4) 0.7411(3) 0.7579(2)
C19 C 0.5793(4) 0.7260(3) 0.7771(2)
H12 H 0.5768 0.7351 0.8127
C20 C 0.5202(4) 0.6988(4) 0.7452(2)
H13 H 0.4758 0.6903 0.7585
C21 C 0.7240(4) 0.7241(4) 0.8237(2)
H14 H 0.6982 0.6776 0.8199
C22 C 0.7824(4) 0.7491(4) 0.8620(2)
C23 C 0.8021(4) 0.7120(4) 0.8991(3)
H15 H 0.7798 0.6647 0.8983
C24 C 0.8556(4) 0.7456(4) 0.9378(3)
H16 H 0.8688 0.7228 0.9649
C25 C 0.8884(4) 0.8119(4) 0.9358(3)
H17 H 0.9259 0.8348 0.9612
C26 C 0.8680(4) 0.8456(4) 0.8977(3)
H18 H 0.8924 0.8914 0.8968
C27 C 0.3449(4) 0.4910(3) 0.3496(2)
H19 H 0.3033 0.4600 0.3518
C28 C 0.3884(4) 0.4684(4) 0.3125(2)
H20 H 0.3765 0.4228 0.2897
C29 C 0.4491(4) 0.5119(5) 0.3085(3)
H21 H 0.4801 0.4968 0.2834
C30 C 0.4638(4) 0.5780(4) 0.3419(3)
H22 H 0.5050 0.6097 0.3399
C31 C 0.4183(4) 0.5974(4) 0.3779(2)
C32 C 0.4259(4) 0.6675(4) 0.4127(3)
H23 H 0.4646 0.7032 0.4127
C33 C 0.3848(4) 0.7482(3) 0.4779(2)
C34 C 0.3377(4) 0.7977(3) 0.4721(2)
H24 H 0.3029 0.7882 0.4433
C35 C 0.3402(4) 0.8624(3) 0.5084(2)
C36 C 0.3913(4) 0.8761(3) 0.5519(2)
C37 C 0.4439(4) 0.8245(4) 0.5547(3)
H25 H 0.4817 0.8345 0.5815
C38 C 0.4391(4) 0.7628(4) 0.5192(3)
H26 H 0.4726 0.7285 0.5220
C39 C 0.2893(4) 0.9128(4) 0.5055(2)
H27 H 0.2548 0.9046 0.4766
C40 C 0.2883(3) 0.9736(3) 0.5437(2)
C41 C 0.3402(3) 0.9861(3) 0.5874(2)
C42 C 0.3914(4) 0.9368(3) 0.5898(2)
H28 H 0.4269 0.9456 0.6181
C43 C 0.2377(4) 1.0244(4) 0.5420(2)
H29 H 0.2036 1.0177 0.5130
C44 C 0.2364(4) 1.0821(4) 0.5804(2)
H30 H 0.2017 1.1153 0.5783
C45 C 0.2878(3) 1.0929(3) 0.6243(2)
C46 C 0.3378(4) 1.0470(3) 0.6272(2)
H31 H 0.3720 1.0555 0.6563
C47 C 0.3396(4) 1.2017(4) 0.6757(2)
H32 H 0.3789 1.1995 0.6557
C48 C 0.3379(4) 1.2603(3) 0.7193(2)
C49 C 0.3924(4) 1.3143(4) 0.7363(3)
H33 H 0.4343 1.3159 0.7192
C50 C 0.3858(5) 1.3665(4) 0.7787(3)
H34 H 0.4229 1.4048 0.7915
C51 C 0.3233(4) 1.3616(4) 0.8023(3)
H35 H 0.3169 1.3973 0.8313
C52 C 0.2711(4) 1.3057(4) 0.7838(3)
H36 H 0.2293 1.3025 0.8010
C53 C 0.2409(4) 0.6375(4) 0.3424(3)
H37 H 0.2743 0.6094 0.3250
C54 C 0.1961(5) 0.6718(5) 0.3154(3)
H38 H 0.1979 0.6668 0.2799
C55 C 0.1481(5) 0.7138(5) 0.3396(3)
H39 H 0.1173 0.7391 0.3214
C56 C 0.1458(4) 0.7183(4) 0.3910(3)
H40 H 0.1130 0.7467 0.4088
C57 C 0.1912(4) 0.6813(4) 0.4157(3)
C58 C 0.1945(4) 0.6816(4) 0.4691(3)
H41 H 0.1618 0.7057 0.4898
C59 C 0.2496(4) 0.6562(4) 0.5432(2)
C60 C 0.2217(4) 0.6028(4) 0.5647(3)
H42 H 0.1972 0.5596 0.5439
C61 C 0.2291(3) 0.6110(4) 0.6177(2)
C62 C 0.2684(3) 0.6766(4) 0.6490(2)
C63 C 0.2945(4) 0.7305(4) 0.6241(3)
H43 H 0.3193 0.7745 0.6436
C64 C 0.2850(4) 0.7208(4) 0.5726(3)
H44 H 0.3025 0.7583 0.5566
C65 C 0.2001(4) 0.5591(4) 0.6425(3)
H45 H 0.1736 0.5162 0.6226
C66 C 0.2083(4) 0.5674(4) 0.6946(3)
C67 C 0.2491(4) 0.6307(4) 0.7250(2)
C68 C 0.2773(4) 0.6842(4) 0.7016(2)
H46 H 0.3033 0.7271 0.7219
C69 C 0.1783(4) 0.5157(4) 0.7203(3)
H47 H 0.1522 0.4724 0.7008
C70 C 0.1853(4) 0.5255(4) 0.7714(3)
H48 H 0.1639 0.4900 0.7875
C71 C 0.2244(4) 0.5882(4) 0.8002(3)
C72 C 0.2570(4) 0.6393(4) 0.7786(2)
H49 H 0.2851 0.6806 0.7992
C73 C 0.2827(4) 0.5735(4) 0.8761(2)
H50 H 0.3186 0.5522 0.8571
C74 C 0.2851(4) 0.5797(4) 0.9301(3)
C75 C 0.3394(4) 0.5587(4) 0.9594(3)
H51 H 0.3793 0.5390 0.9446
C76 C 0.3347(5) 0.5669(5) 1.0120(3)
H52 H 0.3708 0.5521 1.0333
C77 C 0.2773(4) 0.5965(5) 1.0313(3)
H53 H 0.2733 0.6034 1.0667
C78 C 0.2246(4) 0.6166(4) 0.9997(3)
H54 H 0.1843 0.6363 1.0139
C79 C 0.8801(3) 0.7725(4) 0.7605(3)
H55 H 0.8822 0.7505 0.7891
C80 C 0.9259(4) 0.7534(4) 0.7243(3)
H56 H 0.9576 0.7175 0.7274
C81 C 0.9257(4) 0.7862(4) 0.6838(3)
H57 H 0.9598 0.7765 0.6600
C82 C 0.8751(4) 0.8340(4) 0.6778(3)
H58 H 0.8724 0.8558 0.6491
C83 C 0.8287(4) 0.8489(4) 0.7145(3)
C84 C 0.7710(4) 0.8941(4) 0.7131(3)
H59 H 0.7626 0.9186 0.6861
C85 C 0.6738(4) 0.9458(4) 0.7497(2)
C86 C 0.6916(4) 1.0218(4) 0.7603(3)
H60 H 0.7405 1.0413 0.7660
C87 C 0.6397(4) 1.0666(4) 0.7624(3)
H61 H 0.6526 1.1176 0.7693
C88 C 0.5654(4) 1.0389(4) 0.7544(2)
C89 C 0.5478(4) 0.9625(4) 0.7430(2)
C90 C 0.6056(4) 0.9166(4) 0.7407(2)
H62 H 0.5949 0.8653 0.7328
C91 C 0.5107(4) 1.0848(4) 0.7602(3)
H63 H 0.5226 1.1360 0.7682
C92 C 0.4381(3) 1.0559(3) 0.7541(2)
C93 C 0.4212(4) 0.9787(4) 0.7422(2)
C94 C 0.4768(4) 0.9347(4) 0.7364(3)
H64 H 0.4653 0.8835 0.7277
C95 C 0.3824(4) 1.1018(4) 0.7610(2)
H65 H 0.3935 1.1530 0.7687
C96 C 0.3129(4) 1.0722(4) 0.7565(2)
C97 C 0.2954(4) 0.9961(4) 0.7476(3)
H66 H 0.2470 0.9766 0.7473
C98 C 0.3479(4) 0.9505(4) 0.7394(3)
H67 H 0.3354 0.8994 0.7317
C99 C 0.2237(4) 1.1216(4) 0.8026(3)
H68 H 0.2420 1.1007 0.8296
C100 C 0.1602(4) 1.1611(4) 0.8058(2)
C101 C 0.1203(4) 1.1707(4) 0.8453(3)
H69 H 0.1343 1.1523 0.8744
C102 C 0.0603(4) 1.2062(4) 0.8443(3)
H70 H 0.0320 1.2128 0.8720
C103 C 0.0424(4) 1.2319(4) 0.8013(3)
H71 H 0.0006 1.2563 0.7986
C104 C 0.0851(4) 1.2220(4) 0.7626(3)
H72 H 0.0723 1.2406 0.7333
C105 C 0.1687(4) 1.2821(4) 0.6569(3)
H73 H 0.2084 1.3127 0.6763
C106 C 0.1257(5) 1.3083(4) 0.6215(3)
H74 H 0.1373 1.3560 0.6163
C107 C 0.0668(5) 1.2658(5) 0.5940(3)
H75 H 0.0369 1.2838 0.5703
C108 C 0.0526(4) 1.1978(5) 0.6016(3)
H76 H 0.0120 1.1672 0.5835
C109 C 0.0983(4) 1.1729(4) 0.6365(3)
C110 C 0.0907(4) 1.1000(4) 0.6451(3)
H77 H 0.0516 1.0655 0.6292
C111 C 0.1351(3) 1.0121(3) 0.6858(2)
C112 C 0.1030(3) 1.0000(4) 0.7271(3)
H78 H 0.0819 1.0382 0.7473
C113 C 0.1008(3) 0.9316(4) 0.7401(2)
C114 C 0.1610(4) 0.8886(4) 0.6648(3)
H79 H 0.1801 0.8506 0.6429
C115 C 0.1631(4) 0.9562(4) 0.6540(2)
H80 H 0.1838 0.9652 0.6247
C116 C 0.0732(3) 0.9187(3) 0.7842(2)
H81 H 0.0533 0.9569 0.8052
C117 C 0.1047(3) 0.7952(4) 0.7671(2)
C118 C 0.1319(3) 0.8075(4) 0.7225(2)
H82 H 0.1518 0.7694 0.7013
C119 C 0.0459(3) 0.8398(4) 0.8432(2)
H83 H 0.0246 0.8772 0.8641
C120 C 0.0494(3) 0.7756(4) 0.8565(2)
H84 H 0.0296 0.7677 0.8863
C121 C 0.0816(3) 0.7201(4) 0.8273(2)
C122 C 0.1075(3) 0.7276(3) 0.7828(2)
H85 H 0.1272 0.6885 0.7625
C123 C 0.0396(4) 0.6021(4) 0.8287(3)
H86 H 0.0018 0.6060 0.8041
C124 C 0.0435(4) 0.5368(4) 0.8484(3)
C125 C -0.0064(4) 0.4762(4) 0.8337(4)
H87 H -0.0463 0.4758 0.8096
C126 C 0.0033(5) 0.4161(4) 0.8548(4)
H88 H -0.0308 0.3743 0.8469
C127 C 0.0639(5) 0.4195(4) 0.8876(3)
H89 H 0.0736 0.3781 0.9009
C128 C 0.1109(4) 0.4812(4) 0.9014(3)
H90 H 0.1512 0.4825 0.9253
C129 C 0.0738(3) 0.8526(3) 0.7982(2)
C130 C 0.1302(3) 0.8745(3) 0.7085(2)
C131 C 0.8923(4) 0.9749(4) 0.8148(3)
H91 H 0.9147 0.9408 0.7920
C132 C 0.9253(4) 1.0447(4) 0.8313(3)
H92 H 0.9693 1.0581 0.8192
C133 C 0.8959(4) 1.0942(4) 0.8644(3)
H93 H 0.9191 1.1421 0.8759
C134 C 0.8316(4) 1.0741(4) 0.8813(3)
H94 H 0.8095 1.1074 0.9048
C135 C 0.8009(4) 1.0043(4) 0.8631(2)
C136 C 0.7332(4) 0.9761(4) 0.8774(3)
H95 H 0.7075 1.0055 0.9009
C137 C 0.6449(4) 0.8808(4) 0.8746(2)
C138 C 0.6528(4) 0.8335(4) 0.9088(2)
H96 H 0.6994 0.8249 0.9212
C139 C 0.5938(4) 0.8005(4) 0.9239(2)
H97 H 0.5996 0.7689 0.9469
C140 C 0.5244(4) 0.8125(4) 0.9061(2)
C141 C 0.5166(4) 0.8633(4) 0.8731(2)
C142 C 0.5793(3) 0.8963(4) 0.8583(2)
H98 H 0.5753 0.9298 0.8366
C143 C 0.4621(4) 0.7771(4) 0.9182(3)
H99 H 0.4665 0.7426 0.9391
C144 C 0.3945(4) 0.7901(4) 0.9011(2)
C145 C 0.3860(4) 0.8409(4) 0.8695(3)
C146 C 0.4475(4) 0.8762(4) 0.8566(3)
H100 H 0.4423 0.9107 0.8357
C147 C 0.3310(4) 0.7546(4) 0.9152(3)
H101 H 0.3354 0.7196 0.9358
C148 C 0.2659(4) 0.7702(4) 0.8998(2)
C149 C 0.2565(4) 0.8210(4) 0.8692(3)
H102 H 0.2097 0.8316 0.8588
C150 C 0.3170(4) 0.8557(4) 0.8542(3)
H103 H 0.3112 0.8900 0.8333
C151 C 0.1707(4) 0.7807(4) 0.9492(3)
H104 H 0.1868 0.8310 0.9593
C152 C 0.1092(4) 0.7498(4) 0.9690(2)
C153 C 0.0676(4) 0.7881(5) 1.0017(3)
H105 H 0.0778 0.8392 1.0131
C154 C 0.0108(4) 0.7508(6) 1.0176(3)
H106 H -0.0191 0.7761 1.0401
C155 C -0.0021(4) 0.6776(5) 1.0008(3)
H107 H -0.0400 0.6507 1.0123
C156 C 0.0407(4) 0.6433(5) 0.9671(3)
H108 H 0.0305 0.5923 0.9551
S1 S 0.15143(11) 0.71267(10) 0.11899(8)
O1 O 0.0811(3) 0.7312(3) 0.1269(2)
O2 O 0.1589(4) 0.6370(3) 0.1095(3)
O3 O 0.1864(3) 0.7528(3) 0.08726(19)
C157 C 0.1982(7) 0.7486(9) 0.1809(5)
F1 F 0.1609(5) 0.7211(5) 0.2156(3)
F2 F 0.2620(5) 0.7307(6) 0.1865(4)
F3 F 0.2031(4) 0.8213(4) 0.1950(2)
O4 O 0.1432(5) 0.4802(4) 0.2745(2)
O5 O 0.2281(3) 0.3919(3) 0.2600(2)
O6 O 0.1262(3) 0.3878(4) 0.1996(2)
F4 F 0.2785(3) 0.5335(3) 0.2397(2)
F5 F 0.2628(3) 0.4532(3) 0.17216(18)
F6 F 0.1887(3) 0.5329(3) 0.1875(2)
C158 C 0.2281(5) 0.4891(5) 0.2077(3)
S2 S 0.17600(11) 0.43081(11) 0.23941(7)
O7 O 0.4831(4) 0.4801(4) 0.1962(2)
O8 O 0.5450(4) 0.3775(3) 0.1587(2)
O9 O 0.5631(3) 0.4913(3) 0.1325(2)
F7 F 0.3919(3) 0.3721(3) 0.1213(3)
F8 F 0.4607(4) 0.3816(3) 0.06251(19)
F9 F 0.4088(4) 0.4736(4) 0.0973(3)
C159 C 0.4387(6) 0.4159(6) 0.1062(4)
S3 S 0.51701(13) 0.44344(13) 0.15418(8)
O10 O 0.1789(4) 0.0248(3) 0.3857(3)
O11 O 0.0693(4) -0.0338(6) 0.4069(3)
O12 O 0.1699(5) -0.0998(4) 0.3961(3)
F10 F 0.1584(4) -0.0831(4) 0.2911(3)
F11 F 0.0623(3) -0.1328(3) 0.3092(2)
F12 F 0.0683(4) -0.0214(4) 0.3014(3)
C160 C 0.1050(4) -0.0722(4) 0.3205(2)
S4 S 0.13390(14) -0.04028(15) 0.38437(9)
S5 S 0.77572(13) 0.66905(16) 0.06683(10)
O13 O 0.83961(14) 0.6963(3) 0.04758(16)
O14 O 0.7672(2) 0.6225(2) 0.09648(16)
O15 O 0.7354(3) 0.7419(2) 0.10083(15)
C161 C 0.70968(18) 0.6480(2) 0.00971(12)
F13 F 0.7307(3) 0.5986(3) -0.02748(14)
F14 F 0.64541(17) 0.6215(3) 0.0197(2)
F15 F 0.6996(3) 0.7070(3) -0.00923(16)
S7 S 0.9738(3) 0.2271(3) 0.45940(18)
O19 O 0.9476(7) 0.2388(7) 0.5084(5)
O20 O 0.9307(10) 0.2597(10) 0.4153(7)
O21 O 1.0478(9) 0.2505(8) 0.4582(6)
C163 C 0.9774(16) 0.1399(15) 0.4461(11)
F19 F 1.0294(6) 0.1144(7) 0.4835(5)
F20 F 1.0013(8) 0.1090(9) 0.4035(6)
F21 F 0.9187(9) 0.0997(9) 0.4601(6)
S9 S 0.66222(11) 0.68720(11) 0.42145(7)
O22 O 0.59528(14) 0.69535(18) 0.39374(13)
O23 O 0.72318(16) 0.73572(13) 0.41566(13)
O24 O 0.6570(2) 0.67532(17) 0.47220(8)
C164 C 0.68440(15) 0.59808(12) 0.38713(10)
F22 F 0.74600(17) 0.58005(18) 0.40733(15)
F23 F 0.6334(2) 0.54453(12) 0.38804(15)
F24 F 0.6917(2) 0.59768(19) 0.33828(9)
C166 C 0.6410(9) 0.1608(9) 0.8901(6)
C167 C 0.6539(8) 0.1634(8) 0.9448(5)
C168 C 0.6207(9) 0.0749(10) 0.9902(6)
C169 C 0.5733(16) 0.0098(14) 0.9939(12)
O28 O 0.6838(9) 0.1115(9) 0.9662(6)
N25 N 0.0254(6) 0.3635(6) 0.7217(4)
C170 C 0.0066(7) 0.4062(7) 0.7021(5)
C171 C -0.0136(9) 0.4550(9) 0.6725(6)
H109 H -0.0659 0.4544 0.6692
H110 H 0.0026 0.4408 0.6387
H111 H 0.0084 0.5040 0.6886
N26 N 0.7319(7) 0.7898(7) 0.5992(5)
C172 C 0.7581(12) 0.8012(13) 0.5630(9)
C173 C 0.8090(12) 0.8181(12) 0.5243(8)
H112 H 0.7988 0.8639 0.5148
H113 H 0.8017 0.7788 0.4940
H114 H 0.8588 0.8226 0.5394
C174 C 0.9021(7) 0.5075(6) 0.9624(4)
N27 N 0.9414(8) 0.4987(7) 0.9836(5)
C175 C 0.8460(10) 0.5302(10) 0.9263(7)
H115 H 0.8047 0.5442 0.9444
H116 H 0.8304 0.4895 0.8977
H117 H 0.8669 0.5716 0.9137
loop_
_geom_bond_atom_site_label_1
_geom_bond_atom_site_label_2
_geom_bond_site_symmetry_1
_geom_bond_site_symmetry_2
Fe1 N1 1_555 1_555
Fe2 N3 1_555 1_555
Fe3 N7 1_555 1_555
Fe4 N11 1_555 1_555
N1 C1 1_555 1_555
N2 Fe1 1_555 1_555
N3 C18 1_555 1_555
N4 Fe2 1_555 1_555
N5 Fe1 1_555 1_555
N6 Fe1 1_555 1_555
N7 C45 1_555 1_555
N8 Fe3 1_555 1_555
N9 Fe1 1_555 1_555
N10 Fe1 1_555 1_555
N11 C71 1_555 1_555
N12 Fe4 1_555 1_555
N13 Fe2 1_555 1_555
N14 Fe2 1_555 1_555
N15 Fe3 1_555 1_555
N16 Fe3 1_555 1_555
N17 Fe2 1_555 1_555
N18 Fe2 1_555 1_555
N19 Fe4 1_555 1_555
N20 Fe4 1_555 1_555
N21 Fe3 1_555 1_555
N22 Fe3 1_555 1_555
N23 Fe4 1_555 1_555
N24 Fe4 1_555 1_555
C1 H1 1_555 1_555
C2 C1 1_555 1_555
H2 C2 1_555 1_555
C3 C2 1_555 1_555
H3 C3 1_555 1_555
C4 C3 1_555 1_555
H4 C4 1_555 1_555
C5 N1 1_555 1_555
C6 N2 1_555 1_555
H5 C6 1_555 1_555
C7 N2 1_555 1_555
C8 C7 1_555 1_555
H6 C8 1_555 1_555
C9 C8 1_555 1_555
H7 C9 1_555 1_555
C10 C9 1_555 1_555
C11 C10 1_555 1_555
C12 C7 1_555 1_555
H8 C12 1_555 1_555
C13 C10 1_555 1_555
H9 C13 1_555 1_555
C14 C13 1_555 1_555
C15 C14 1_555 1_555
C16 C11 1_555 1_555
H10 C16 1_555 1_555
C17 C14 1_555 1_555
H11 C17 1_555 1_555
C18 C17 1_555 1_555
C19 C18 1_555 1_555
H12 C19 1_555 1_555
C20 C15 1_555 1_555
H13 C20 1_555 1_555
C21 N3 1_555 1_555
H14 C21 1_555 1_555
C22 N4 1_555 1_555
C23 C22 1_555 1_555
H15 C23 1_555 1_555
C24 C23 1_555 1_555
H16 C24 1_555 1_555
C25 C24 1_555 1_555
H17 C25 1_555 1_555
C26 N4 1_555 1_555
H18 C26 1_555 1_555
C27 N5 1_555 1_555
H19 C27 1_555 1_555
C28 C27 1_555 1_555
H20 C28 1_555 1_555
C29 C28 1_555 1_555
H21 C29 1_555 1_555
C30 C29 1_555 1_555
H22 C30 1_555 1_555
C31 N5 1_555 1_555
C32 N6 1_555 1_555
H23 C32 1_555 1_555
C33 N6 1_555 1_555
C34 C33 1_555 1_555
H24 C34 1_555 1_555
C35 C34 1_555 1_555
C36 C35 1_555 1_555
C37 C36 1_555 1_555
H25 C37 1_555 1_555
C38 C33 1_555 1_555
H26 C38 1_555 1_555
C39 C35 1_555 1_555
H27 C39 1_555 1_555
C40 C39 1_555 1_555
C41 C40 1_555 1_555
C42 C36 1_555 1_555
H28 C42 1_555 1_555
C43 C40 1_555 1_555
H29 C43 1_555 1_555
C44 C43 1_555 1_555
H30 C44 1_555 1_555
C45 C44 1_555 1_555
C46 C41 1_555 1_555
H31 C46 1_555 1_555
C47 N7 1_555 1_555
H32 C47 1_555 1_555
C48 N8 1_555 1_555
C49 C48 1_555 1_555
H33 C49 1_555 1_555
C50 C49 1_555 1_555
H34 C50 1_555 1_555
C51 C50 1_555 1_555
H35 C51 1_555 1_555
C52 N8 1_555 1_555
H36 C52 1_555 1_555
C53 N9 1_555 1_555
H37 C53 1_555 1_555
C54 C53 1_555 1_555
H38 C54 1_555 1_555
C55 C54 1_555 1_555
H39 C55 1_555 1_555
C56 C55 1_555 1_555
H40 C56 1_555 1_555
C57 N9 1_555 1_555
C58 N10 1_555 1_555
H41 C58 1_555 1_555
C59 N10 1_555 1_555
C60 C59 1_555 1_555
H42 C60 1_555 1_555
C61 C60 1_555 1_555
C62 C61 1_555 1_555
C63 C62 1_555 1_555
H43 C63 1_555 1_555
C64 C59 1_555 1_555
H44 C64 1_555 1_555
C65 C61 1_555 1_555
H45 C65 1_555 1_555
C66 C65 1_555 1_555
C67 C66 1_555 1_555
C68 C62 1_555 1_555
H46 C68 1_555 1_555
C69 C66 1_555 1_555
H47 C69 1_555 1_555
C70 C69 1_555 1_555
H48 C70 1_555 1_555
C71 C70 1_555 1_555
C72 C67 1_555 1_555
H49 C72 1_555 1_555
C73 N11 1_555 1_555
H50 C73 1_555 1_555
C74 N12 1_555 1_555
C75 C74 1_555 1_555
H51 C75 1_555 1_555
C76 C75 1_555 1_555
H52 C76 1_555 1_555
C77 C76 1_555 1_555
H53 C77 1_555 1_555
C78 N12 1_555 1_555
H54 C78 1_555 1_555
C79 N13 1_555 1_555
H55 C79 1_555 1_555
C80 C79 1_555 1_555
H56 C80 1_555 1_555
C81 C80 1_555 1_555
H57 C81 1_555 1_555
C82 C81 1_555 1_555
H58 C82 1_555 1_555
C83 N13 1_555 1_555
C84 N14 1_555 1_555
H59 C84 1_555 1_555
C85 N14 1_555 1_555
C86 C85 1_555 1_555
H60 C86 1_555 1_555
C87 C86 1_555 1_555
H61 C87 1_555 1_555
C88 C87 1_555 1_555
C89 C88 1_555 1_555
C90 C85 1_555 1_555
H62 C90 1_555 1_555
C91 C88 1_555 1_555
H63 C91 1_555 1_555
C92 C91 1_555 1_555
C93 C92 1_555 1_555
C94 C89 1_555 1_555
H64 C94 1_555 1_555
C95 C92 1_555 1_555
H65 C95 1_555 1_555
C96 N15 1_555 1_555
C97 C96 1_555 1_555
H66 C97 1_555 1_555
C98 C93 1_555 1_555
H67 C98 1_555 1_555
C99 N15 1_555 1_555
H68 C99 1_555 1_555
C100 N16 1_555 1_555
C101 C100 1_555 1_555
H69 C101 1_555 1_555
C102 C101 1_555 1_555
H70 C102 1_555 1_555
C103 C102 1_555 1_555
H71 C103 1_555 1_555
C104 N16 1_555 1_555
H72 C104 1_555 1_555
C105 N21 1_555 1_555
H73 C105 1_555 1_555
C106 C105 1_555 1_555
H74 C106 1_555 1_555
C107 C106 1_555 1_555
H75 C107 1_555 1_555
C108 C107 1_555 1_555
H76 C108 1_555 1_555
C109 N21 1_555 1_555
C110 N22 1_555 1_555
H77 C110 1_555 1_555
C111 N22 1_555 1_555
C112 C111 1_555 1_555
H78 C112 1_555 1_555
C113 C112 1_555 1_555
C114 H79 1_555 1_555
C115 C111 1_555 1_555
H80 C115 1_555 1_555
C116 C113 1_555 1_555
H81 C116 1_555 1_555
C117 C118 1_555 1_555
C118 H82 1_555 1_555
C119 H83 1_555 1_555
C120 C119 1_555 1_555
H84 C120 1_555 1_555
C121 N23 1_555 1_555
C122 C117 1_555 1_555
H85 C122 1_555 1_555
C123 N23 1_555 1_555
H86 C123 1_555 1_555
C124 N24 1_555 1_555
C125 C124 1_555 1_555
H87 C125 1_555 1_555
C126 C125 1_555 1_555
H88 C126 1_555 1_555
C127 C126 1_555 1_555
H89 C127 1_555 1_555
C128 N24 1_555 1_555
H90 C128 1_555 1_555
C129 C116 1_555 1_555
C130 C113 1_555 1_555
C131 N17 1_555 1_555
H91 C131 1_555 1_555
C132 C131 1_555 1_555
H92 C132 1_555 1_555
C133 C132 1_555 1_555
H93 C133 1_555 1_555
C134 C133 1_555 1_555
H94 C134 1_555 1_555
C135 N17 1_555 1_555
C136 N18 1_555 1_555
H95 C136 1_555 1_555
C137 N18 1_555 1_555
C138 C137 1_555 1_555
H96 C138 1_555 1_555
C139 C138 1_555 1_555
H97 C139 1_555 1_555
C140 C139 1_555 1_555
C141 C140 1_555 1_555
C142 C137 1_555 1_555
H98 C142 1_555 1_555
C143 C140 1_555 1_555
H99 C143 1_555 1_555
C144 C143 1_555 1_555
C145 C144 1_555 1_555
C146 C141 1_555 1_555
H100 C146 1_555 1_555
C147 C144 1_555 1_555
H101 C147 1_555 1_555
C148 N19 1_555 1_555
C149 C148 1_555 1_555
H102 C149 1_555 1_555
C150 C145 1_555 1_555
H103 C150 1_555 1_555
C151 N19 1_555 1_555
H104 C151 1_555 1_555
C152 N20 1_555 1_555
C153 C152 1_555 1_555
H105 C153 1_555 1_555
C154 C153 1_555 1_555
H106 C154 1_555 1_555
C155 C154 1_555 1_555
H107 C155 1_555 1_555
C156 N20 1_555 1_555
H108 C156 1_555 1_555
S1 O1 1_555 1_555
O2 S1 1_555 1_555
O3 S1 1_555 1_555
C157 S1 1_555 1_555
F1 C157 1_555 1_555
F2 C157 1_555 1_555
F3 C157 1_555 1_555
O4 S2 1_555 1_555
O5 S2 1_555 1_555
O6 S2 1_555 1_555
F4 C158 1_555 1_555
F5 C158 1_555 1_555
F6 C158 1_555 1_555
C158 S2 1_555 1_555
O7 S3 1_555 1_555
O8 S3 1_555 1_555
O9 S3 1_555 1_555
F7 C159 1_555 1_555
F8 C159 1_555 1_555
F9 C159 1_555 1_555
C159 S3 1_555 1_555
O10 S4 1_555 1_555
O11 S4 1_555 1_555
O12 S4 1_555 1_555
F10 C160 1_555 1_555
F11 C160 1_555 1_555
F12 C160 1_555 1_555
C160 S4 1_555 1_555
S5 O13 1_555 1_555
O14 S5 1_555 1_555
O15 S5 1_555 1_555
C161 S5 1_555 1_555
F13 C161 1_555 1_555
F14 C161 1_555 1_555
F15 C161 1_555 1_555
S7 O19 1_555 1_555
O20 S7 1_555 1_555
O21 S7 1_555 1_555
C163 S7 1_555 1_555
F19 C163 1_555 1_555
F20 C163 1_555 1_555
F21 C163 1_555 1_555
S9 O22 1_555 1_555
O23 S9 1_555 1_555
O24 S9 1_555 1_555
C164 S9 1_555 1_555
F22 C164 1_555 1_555
F23 C164 1_555 1_555
F24 C164 1_555 1_555
C166 C167 1_555 1_555
C167 O28 1_555 1_555
C168 C169 1_555 1_555
O28 C168 1_555 1_555
N25 C170 1_555 1_555
C170 C171 1_555 1_555
C171 H109 1_555 1_555
H110 C171 1_555 1_555
H111 C171 1_555 1_555
N26 C172 1_555 1_555
C172 C173 1_555 1_555
C173 H112 1_555 1_555
H113 C173 1_555 1_555
H114 C173 1_555 1_555
C174 N27 1_555 1_555
C175 C174 1_555 1_555
H115 C175 1_555 1_555
H116 C175 1_555 1_555
H117 C175 1_555 1_555
C4 C5 1_555 1_555
C5 C6 1_555 1_555
C11 C12 1_555 1_555
C15 C16 1_555 1_555
C19 C20 1_555 1_555
C21 C22 1_555 1_555
C25 C26 1_555 1_555
C30 C31 1_555 1_555
C31 C32 1_555 1_555
C37 C38 1_555 1_555
C41 C42 1_555 1_555
C45 C46 1_555 1_555
C47 C48 1_555 1_555
C51 C52 1_555 1_555
C56 C57 1_555 1_555
C57 C58 1_555 1_555
C63 C64 1_555 1_555
C67 C68 1_555 1_555
C71 C72 1_555 1_555
C73 C74 1_555 1_555
C77 C78 1_555 1_555
C82 C83 1_555 1_555
C83 C84 1_555 1_555
C89 C90 1_555 1_555
C93 C94 1_555 1_555
C95 C96 1_555 1_555
C97 C98 1_555 1_555
C99 C100 1_555 1_555
C103 C104 1_555 1_555
C108 C109 1_555 1_555
C109 C110 1_555 1_555
C114 C115 1_555 1_555
C114 C130 1_555 1_555
C117 C129 1_555 1_555
C118 C130 1_555 1_555
C119 C129 1_555 1_555
C120 C121 1_555 1_555
C121 C122 1_555 1_555
C123 C124 1_555 1_555
C127 C128 1_555 1_555
C134 C135 1_555 1_555
C135 C136 1_555 1_555
C141 C142 1_555 1_555
C145 C146 1_555 1_555
C147 C148 1_555 1_555
C149 C150 1_555 1_555
C151 C152 1_555 1_555
C155 C156 1_555 1_555

#END
