
#######################################################################
#
#                 Cambridge Crystallographic Data Centre
#                                CCDC 
#
#######################################################################
#
# If this CIF has been generated from an entry in the Cambridge 
# Structural Database, then it will include bibliographic, chemical, 
# crystal, experimental, refinement or atomic coordinate data resulting 
# from the CCDC's data processing and validation procedures.
#
#######################################################################

data_IFUTOU
_chemical_formula_moiety         
'C132 H96 Fe4 N24 8+,8(C1 F3 O3 S1 1-),4(C2 H3 N1),2(H2 O1)'
_chemical_name_systematic        
"hexakis(\m~2~-N,N'-bis(pyridin-2-ylmethylene)naphthalene-2,6-diamine)-tetra-iron(ii) octakis(trifluoromethanesulfonate) acetonitrile solvate dihydrate"
_symmetry_cell_setting           monoclinic
_symmetry_space_group_name_H-M   'C 2/c'
_symmetry_Int_Tables_number      15
_space_group_name_Hall           '-C 2yn'
loop_
_symmetry_equiv_pos_site_id
_symmetry_equiv_pos_as_xyz
1 x,y,z
2 -x,y,1/2-z
3 1/2+x,1/2+y,z
4 1/2-x,1/2+y,1/2-z
5 -x,-y,-z
6 x,-y,1/2+z
7 1/2-x,1/2-y,-z
8 1/2+x,1/2-y,1/2+z
_cell_length_a                   35.2528(12)
_cell_length_b                   19.0549(5)
_cell_length_c                   28.1655(11)
_cell_angle_alpha                90
_cell_angle_beta                 119.493(5)
_cell_angle_gamma                90
_cell_volume                     16468.1
_exptl_crystal_colour            purple
_exptl_crystal_description       block
_cell_formula_units_Z            4
loop_
_atom_site_label
_atom_site_type_symbol
_atom_site_fract_x
_atom_site_fract_y
_atom_site_fract_z
S1 S 0.57153(11) 0.23777(19) 0.08836(14)
O1 O 0.6172(2) 0.2442(5) 0.1299(3)
O2 O 0.5460(3) 0.2012(6) 0.1075(4)
O3 O 0.5532(3) 0.3011(6) 0.0596(5)
C77 C 0.5716(5) 0.1797(11) 0.0386(6)
F1 F 0.5341(4) 0.1733(6) -0.0055(5)
F2 F 0.5864(3) 0.1156(5) 0.0589(4)
F3 F 0.5987(4) 0.2018(6) 0.0203(4)
S2 S 0.40020(12) 0.0375(2) 0.10304(13)
C78 C 0.3953(4) -0.0412(7) 0.0679(5)
O4 O 0.3680(4) 0.0780(7) 0.0636(5)
O5 O 0.4447(3) 0.0628(6) 0.1088(5)
O6 O 0.4057(6) 0.0223(13) 0.1535(6)
F4 F 0.3641(6) -0.0802(9) 0.0701(6)
F5 F 0.4291(6) -0.0842(11) 0.0861(7)
F6 F 0.3799(6) -0.0333(9) 0.0150(5)
S3 S 0.2754(2) -0.2854(3) 0.6333(2)
O7 O 0.2811(4) -0.2266(4) 0.6686(4)
O8 O 0.3100(3) -0.3369(5) 0.6552(4)
O9 O 0.2317(2) -0.3133(6) 0.6036(4)
C79 C 0.2824(3) -0.2441(5) 0.5786(3)
F7 F 0.2783(5) -0.2908(8) 0.5408(4)
F8 F 0.2529(4) -0.1937(6) 0.5526(5)
F9 F 0.3217(4) -0.2145(7) 0.5981(5)
O10 O 0.1692(4) -0.2071(7) 0.6090(5)
S4 S 0.75761(19) 0.0893(2) 0.18686(18)
O11 O 0.7460(6) 0.0720(8) 0.2287(5)
O12 O 0.7523(3) 0.1586(4) 0.1695(4)
O13 O 0.7967(4) 0.0568(7) 0.1950(6)
C80 C 0.7222(5) 0.0421(7) 0.1294(7)
F10 F 0.7265(4) 0.0515(5) 0.0883(4)
F11 F 0.6803(4) 0.0615(6) 0.1137(5)
F12 F 0.7251(4) -0.0275(4) 0.1378(4)
N13 N 0.7607(5) 0.3532(8) 0.0318(6)
C81 C 0.7796(5) 0.3304(8) 0.0126(7)
C82 C 0.8022(5) 0.2993(8) -0.0157(6)
C83 C 0.0766(12) -0.161(2) 0.2051(15)
N14 N 0.0674(11) -0.1192(19) 0.1816(14)
C84 C 0.1023(9) -0.2156(15) 0.2372(10)
Fe1 Fe -0.11074(4) -0.01521(8) 0.03466(5)
Fe2 Fe 0.13410(4) 0.36472(7) 0.21138(6)
N1 N -0.1019(3) -0.1187(4) 0.0395(3)
N2 N -0.0468(3) -0.0180(4) 0.0628(3)
N3 N 0.1403(2) 0.2621(4) 0.2073(3)
N4 N 0.1978(2) 0.3589(5) 0.2389(3)
N5 N 0.1364(2) 0.4675(4) 0.2223(3)
N6 N 0.1435(2) 0.3669(4) 0.2870(3)
N7 N 0.1172(2) 0.0877(4) 0.4756(3)
N8 N 0.1196(2) -0.0089(4) 0.5400(3)
N9 N -0.1728(3) -0.0234(4) 0.0114(3)
N10 N -0.1068(3) -0.0186(5) 0.1070(3)
N11 N 0.1198(3) 0.3745(4) 0.1347(3)
N12 N 0.0701(2) 0.3699(4) 0.1769(3)
C1 C -0.1311(4) -0.1691(6) 0.0292(4)
H1 H -0.1609 -0.1564 0.0139
C2 C -0.1196(4) -0.2408(7) 0.0399(5)
H2 H -0.1411 -0.2756 0.0324
C3 C -0.0766(4) -0.2589(7) 0.0614(6)
H3 H -0.0678 -0.3065 0.0696
C4 C -0.0469(4) -0.2089(7) 0.0709(5)
H4 H -0.0171 -0.2209 0.0852
C5 C -0.0602(3) -0.1396(5) 0.0595(4)
C6 C -0.0303(4) -0.0814(6) 0.0705(4)
H5 H -0.0003 -0.0889 0.0826
C7 C -0.0154(3) 0.0395(6) 0.0798(4)
C8 C 0.0157(3) 0.0437(5) 0.1342(4)
H6 H 0.0167 0.0090 0.1590
C9 C 0.0462(3) 0.0997(5) 0.1533(4)
C10 C 0.0437(3) 0.1509(5) 0.1153(4)
C11 C 0.0118(3) 0.1432(5) 0.0590(4)
H7 H 0.0105 0.1761 0.0330
C12 C -0.0169(3) 0.0887(6) 0.0428(4)
H8 H -0.0382 0.0843 0.0054
C13 C 0.0790(3) 0.1036(5) 0.2082(4)
H9 H 0.0807 0.0692 0.2336
C14 C 0.1088(3) 0.1577(5) 0.2249(4)
H10 H 0.1309 0.1603 0.2621
C15 C 0.1073(3) 0.2086(5) 0.1884(4)
C16 C 0.0741(3) 0.2062(5) 0.1336(4)
H11 H 0.0722 0.2419 0.1090
C17 C 0.1791(3) 0.2418(6) 0.2218(4)
H12 H 0.1855 0.1936 0.2206
C18 C 0.2124(3) 0.2934(6) 0.2397(4)
C19 C 0.2562(4) 0.2806(7) 0.2547(5)
H13 H 0.2662 0.2339 0.2566
C20 C 0.2836(4) 0.3343(10) 0.2661(6)
H14 H 0.3126 0.3266 0.2734
C21 C 0.2687(4) 0.4035(8) 0.2671(6)
H15 H 0.2878 0.4425 0.2770
C22 C 0.2257(3) 0.4122(7) 0.2536(5)
H16 H 0.2156 0.4581 0.2547
C23 C 0.1320(3) 0.5198(5) 0.1872(5)
H17 H 0.1258 0.5076 0.1514
C24 C 0.1361(4) 0.5893(7) 0.2012(6)
H18 H 0.1335 0.6241 0.1756
C25 C 0.1438(4) 0.6084(6) 0.2513(7)
H19 H 0.1464 0.6566 0.2610
C26 C 0.1479(4) 0.5572(6) 0.2887(5)
H20 H 0.1535 0.5693 0.3243
C27 C 0.1435(3) 0.4878(5) 0.2721(5)
C28 C 0.1471(3) 0.4294(5) 0.3070(4)
H21 H 0.1520 0.4365 0.3429
C29 C 0.1449(3) 0.3095(5) 0.3214(3)
C30 C 0.1775(3) 0.2590(5) 0.3395(3)
H22 H 0.1992 0.2622 0.3289
C31 C 0.1790(3) 0.2048(5) 0.3723(4)
H23 H 0.2016 0.1710 0.3843
C32 C 0.1466(3) 0.1985(5) 0.3888(4)
C33 C 0.1131(3) 0.2511(5) 0.3703(4)
C34 C 0.1132(3) 0.3065(5) 0.3363(4)
H24 H 0.0912 0.3415 0.3238
C35 C 0.0815(3) 0.2455(6) 0.3870(4)
H25 H 0.0589 0.2793 0.3751
C36 C 0.0831(3) 0.1920(6) 0.4199(4)
H26 H 0.0615 0.1891 0.4306
C37 C 0.1158(3) 0.1412(5) 0.4382(4)
C38 C 0.1468(3) 0.1443(5) 0.4225(4)
H27 H 0.1688 0.1092 0.4346
C39 C 0.1222(3) 0.1092(6) 0.5215(4)
H28 H 0.1248 0.1578 0.5302
C40 C 0.1235(3) 0.0569(6) 0.5593(4)
C41 C 0.1265(3) 0.0722(6) 0.6095(4)
H29 H 0.1277 0.1196 0.6206
C42 C 0.1278(3) 0.0185(7) 0.6427(4)
H30 H 0.1299 0.0274 0.6771
C43 C 0.1259(3) -0.0488(6) 0.6241(4)
H31 H 0.1277 -0.0871 0.6467
C44 C 0.1215(3) -0.0626(6) 0.5722(4)
H32 H 0.1199 -0.1097 0.5601
C45 C -0.2074(3) -0.0248(5) -0.0393(5)
H33 H -0.2023 -0.0207 -0.0693
C46 C -0.2494(4) -0.0318(6) -0.0500(6)
H34 H -0.2729 -0.0280 -0.0863
C47 C -0.2577(5) -0.0443(7) -0.0078(8)
H35 H -0.2865 -0.0528 -0.0148
C48 C -0.2232(4) -0.0443(7) 0.0448(7)
H36 H -0.2279 -0.0513 0.0749
C49 C -0.1822(4) -0.0339(6) 0.0527(5)
C50 C -0.1439(5) -0.0317(7) 0.1052(5)
H37 H -0.1454 -0.0394 0.1375
C51 C -0.0417(3) -0.0602(5) 0.1893(3)
H38 H -0.0518 -0.1057 0.1747
C52 C -0.0645(3) -0.0021(5) 0.1603(3)
C53 C -0.0499(3) 0.0660(5) 0.1814(3)
H39 H -0.0658 0.1059 0.1612
C54 C -0.0129(3) 0.0747(4) 0.2311(3)
H40 H -0.0034 0.1207 0.2449
C55 C 0.0114(2) 0.0158(4) 0.2620(3)
C56 C 0.0498(3) 0.0229(4) 0.3134(3)
H41 H 0.0599 0.0684 0.3280
C57 C 0.0726(3) -0.0352(5) 0.3424(3)
C58 C 0.0580(3) -0.1033(5) 0.3213(4)
H42 H 0.0739 -0.1432 0.3415
C59 C 0.0209(3) -0.1120(4) 0.2716(4)
H43 H 0.0115 -0.1580 0.2579
C60 C -0.0033(2) -0.0531(4) 0.2407(3)
C61 C 0.1459(4) 0.3722(6) 0.1124(5)
H44 H 0.1756 0.3600 0.1351
C62 C 0.1319(4) 0.3865(7) 0.0589(5)
H45 H 0.1517 0.3840 0.0453
C63 C 0.0889(4) 0.4045(6) 0.0243(5)
H46 H 0.0791 0.4161 -0.0128
C64 C 0.0607(4) 0.4053(6) 0.0447(5)
H47 H 0.0308 0.4160 0.0218
C65 C 0.0770(3) 0.3901(5) 0.0999(4)
C66 C 0.0504(3) 0.3870(5) 0.1257(5)
H48 H 0.0200 0.3969 0.1062
C67 C 0.0314(3) 0.4127(4) 0.2231(4)
H49 H 0.0393 0.4585 0.2177
C68 C 0.0449(3) 0.3554(5) 0.2058(4)
C69 C 0.0334(3) 0.2868(5) 0.2135(4)
H50 H 0.0429 0.2474 0.2015
C70 C 0.0087(3) 0.2771(4) 0.2383(4)
H51 H 0.0012 0.2309 0.2433
C71 C -0.0059(2) 0.3352(4) 0.2567(3)
C72 C -0.0315(3) 0.3271(5) 0.2825(4)
H52 H -0.0394 0.2813 0.2879
C73 C -0.0451(3) 0.3844(5) 0.2997(4)
C74 C -0.0336(4) 0.4530(5) 0.2920(5)
H53 H -0.0431 0.4924 0.3041
C75 C -0.0088(4) 0.4627(4) 0.2672(5)
H54 H -0.0013 0.5089 0.2622
C76 C 0.0057(3) 0.4046(4) 0.2489(3)
N9A N 0.1728(3) -0.0234(4) 0.4886(3)
N10A N 0.1068(3) -0.0186(5) 0.3930(3)
C45A C 0.2074(3) -0.0248(5) 0.5393(5)
H33A H 0.2023 -0.0207 0.5693
C46A C 0.2494(4) -0.0318(6) 0.5500(6)
H34A H 0.2729 -0.0280 0.5863
C47A C 0.2577(5) -0.0443(7) 0.5078(8)
H35A H 0.2865 -0.0528 0.5148
C48A C 0.2232(4) -0.0443(7) 0.4552(7)
H36A H 0.2279 -0.0513 0.4251
C49A C 0.1822(4) -0.0339(6) 0.4473(5)
C50A C 0.1439(5) -0.0317(7) 0.3948(5)
H37A H 0.1454 -0.0394 0.3625
C51A C 0.0417(3) -0.0602(5) 0.3107(3)
H38A H 0.0518 -0.1057 0.3253
C52A C 0.0645(3) -0.0021(5) 0.3397(3)
C53A C 0.0499(3) 0.0660(5) 0.3186(3)
H39A H 0.0658 0.1059 0.3388
C54A C 0.0129(3) 0.0747(4) 0.2689(3)
H40A H 0.0034 0.1207 0.2551
C55A C -0.0114(2) 0.0158(4) 0.2380(3)
C56A C -0.0498(3) 0.0229(4) 0.1866(3)
H41A H -0.0599 0.0684 0.1720
C57A C -0.0726(3) -0.0352(5) 0.1576(3)
C58A C -0.0580(3) -0.1033(5) 0.1787(4)
H42A H -0.0739 -0.1432 0.1585
C59A C -0.0209(3) -0.1120(4) 0.2284(4)
H43A H -0.0115 -0.1580 0.2421
C60A C 0.0033(2) -0.0531(4) 0.2593(3)
N11A N -0.1198(3) 0.3745(4) 0.3653(3)
N12A N -0.0701(2) 0.3699(4) 0.3231(3)
C61A C -0.1459(4) 0.3722(6) 0.3876(5)
H44A H -0.1756 0.3600 0.3649
C62A C -0.1319(4) 0.3865(7) 0.4411(5)
H45A H -0.1517 0.3840 0.4547
C63A C -0.0889(4) 0.4045(6) 0.4757(5)
H46A H -0.0791 0.4161 0.5128
C64A C -0.0607(4) 0.4053(6) 0.4553(5)
H47A H -0.0308 0.4160 0.4782
C65A C -0.0770(3) 0.3901(5) 0.4001(4)
C66A C -0.0504(3) 0.3870(5) 0.3743(5)
H48A H -0.0200 0.3969 0.3938
C67A C -0.0314(3) 0.4127(4) 0.2769(4)
H49A H -0.0393 0.4585 0.2823
C68A C -0.0449(3) 0.3554(5) 0.2942(4)
C69A C -0.0334(3) 0.2868(5) 0.2865(4)
H50A H -0.0429 0.2474 0.2985
C70A C -0.0087(3) 0.2771(4) 0.2617(4)
H51A H -0.0012 0.2309 0.2567
C71A C 0.0059(2) 0.3352(4) 0.2433(3)
C72A C 0.0315(3) 0.3271(5) 0.2175(4)
H52A H 0.0394 0.2813 0.2121
C73A C 0.0451(3) 0.3844(5) 0.2003(4)
C74A C 0.0336(4) 0.4530(5) 0.2080(5)
H53A H 0.0431 0.4924 0.1959
C75A C 0.0088(4) 0.4627(4) 0.2328(5)
H54A H 0.0013 0.5089 0.2378
C76A C -0.0057(3) 0.4046(4) 0.2511(3)
Fe1A Fe 0.11074(4) -0.01521(8) 0.46534(5)
Fe2A Fe -0.13410(4) 0.36472(7) 0.28862(6)
N1A N 0.1019(3) -0.1187(4) 0.4605(3)
N2A N 0.0468(3) -0.0180(4) 0.4372(3)
N3A N -0.1403(2) 0.2621(4) 0.2927(3)
N4A N -0.1978(2) 0.3589(5) 0.2611(3)
N5A N -0.1364(2) 0.4675(4) 0.2777(3)
N6A N -0.1435(2) 0.3669(4) 0.2130(3)
N7A N -0.1172(2) 0.0877(4) 0.0244(3)
N8A N -0.1196(2) -0.0089(4) -0.0400(3)
C1A C 0.1311(4) -0.1691(6) 0.4708(4)
H1A H 0.1609 -0.1564 0.4861
C2A C 0.1196(4) -0.2408(7) 0.4601(5)
H2A H 0.1411 -0.2756 0.4676
C3A C 0.0766(4) -0.2589(7) 0.4386(6)
H3A H 0.0678 -0.3065 0.4304
C4A C 0.0469(4) -0.2089(7) 0.4291(5)
H4A H 0.0171 -0.2209 0.4148
C5A C 0.0602(3) -0.1396(5) 0.4405(4)
C6A C 0.0303(4) -0.0814(6) 0.4295(4)
H5A H 0.0003 -0.0889 0.4174
C7A C 0.0154(3) 0.0395(6) 0.4202(4)
C8A C -0.0157(3) 0.0437(5) 0.3658(4)
H6A H -0.0167 0.0090 0.3410
C9A C -0.0462(3) 0.0997(5) 0.3467(4)
C10A C -0.0437(3) 0.1509(5) 0.3847(4)
C11A C -0.0118(3) 0.1432(5) 0.4410(4)
H7A H -0.0105 0.1761 0.4670
C12A C 0.0169(3) 0.0887(6) 0.4572(4)
H8A H 0.0382 0.0843 0.4946
C13A C -0.0790(3) 0.1036(5) 0.2918(4)
H9A H -0.0807 0.0692 0.2664
C14A C -0.1088(3) 0.1577(5) 0.2751(4)
H10A H -0.1309 0.1603 0.2379
C15A C -0.1073(3) 0.2086(5) 0.3116(4)
C16A C -0.0741(3) 0.2062(5) 0.3664(4)
H11A H -0.0722 0.2419 0.3910
C17A C -0.1791(3) 0.2418(6) 0.2782(4)
H12A H -0.1855 0.1936 0.2794
C18A C -0.2124(3) 0.2934(6) 0.2603(4)
C19A C -0.2562(4) 0.2806(7) 0.2453(5)
H13A H -0.2662 0.2339 0.2434
C20A C -0.2836(4) 0.3343(10) 0.2339(6)
H14A H -0.3126 0.3266 0.2266
C21A C -0.2687(4) 0.4035(8) 0.2329(6)
H15A H -0.2878 0.4425 0.2230
C22A C -0.2257(3) 0.4122(7) 0.2464(5)
H16A H -0.2156 0.4581 0.2453
C23A C -0.1320(3) 0.5198(5) 0.3128(5)
H17A H -0.1258 0.5076 0.3486
C24A C -0.1361(4) 0.5893(7) 0.2988(6)
H18A H -0.1335 0.6241 0.3244
C25A C -0.1438(4) 0.6084(6) 0.2487(7)
H19A H -0.1464 0.6566 0.2390
C26A C -0.1479(4) 0.5572(6) 0.2113(5)
H20A H -0.1535 0.5693 0.1757
C27A C -0.1435(3) 0.4878(5) 0.2279(5)
C28A C -0.1471(3) 0.4294(5) 0.1930(4)
H21A H -0.1520 0.4365 0.1571
C29A C -0.1449(3) 0.3095(5) 0.1786(3)
C30A C -0.1775(3) 0.2590(5) 0.1605(3)
H22A H -0.1992 0.2622 0.1711
C31A C -0.1790(3) 0.2048(5) 0.1277(4)
H23A H -0.2016 0.1710 0.1157
C32A C -0.1466(3) 0.1985(5) 0.1112(4)
C33A C -0.1131(3) 0.2511(5) 0.1297(4)
C34A C -0.1132(3) 0.3065(5) 0.1637(4)
H24A H -0.0912 0.3415 0.1762
C35A C -0.0815(3) 0.2455(6) 0.1130(4)
H25A H -0.0589 0.2793 0.1249
C36A C -0.0831(3) 0.1920(6) 0.0801(4)
H26A H -0.0615 0.1891 0.0694
C37A C -0.1158(3) 0.1412(5) 0.0618(4)
C38A C -0.1468(3) 0.1443(5) 0.0775(4)
H27A H -0.1688 0.1092 0.0654
C39A C -0.1222(3) 0.1092(6) -0.0215(4)
H28A H -0.1248 0.1578 -0.0302
C40A C -0.1235(3) 0.0569(6) -0.0593(4)
C41A C -0.1265(3) 0.0722(6) -0.1095(4)
H29A H -0.1277 0.1196 -0.1206
C42A C -0.1278(3) 0.0185(7) -0.1427(4)
H30A H -0.1299 0.0274 -0.1771
C43A C -0.1259(3) -0.0488(6) -0.1241(4)
H31A H -0.1277 -0.0871 -0.1467
C44A C -0.1215(3) -0.0626(6) -0.0722(4)
H32A H -0.1199 -0.1097 -0.0601
O14? O 0.4049(7) 0.0995(9) 0.0844(9)
O15? O 0.4243(9) 0.009(3) 0.1546(12)
O16? O 0.3479(7) 0.0417(13) 0.0968(10)
F13? F 0.4088(11) -0.0431(19) 0.0319(11)
F14? F 0.4275(10) -0.0815(18) 0.1069(11)
F15? F 0.3645(12) -0.0897(19) 0.0488(12)
S5? S 0.2382(7) -0.2278(11) 0.6182(8)
O17? O 0.2021(10) -0.1966(17) 0.6212(17)
O18? O 0.2758(10) -0.2449(13) 0.6699(10)
O19? O 0.2266(12) -0.2792(11) 0.5754(10)
C85? C 0.2583(9) -0.1537(14) 0.5941(10)
F16? F 0.2925(12) -0.172(2) 0.5885(19)
F17? F 0.2276(12) -0.1297(15) 0.5456(10)
F18? F 0.2710(10) -0.0995(12) 0.6288(11)
O20? O 0.3683(11) -0.3199(19) 0.6879(11)
loop_
_geom_bond_atom_site_label_1
_geom_bond_atom_site_label_2
_geom_bond_site_symmetry_1
_geom_bond_site_symmetry_2
Fe1 N1 1_555 1_555
Fe2 N3 1_555 1_555
N1 C1 1_555 1_555
N2 Fe1 1_555 1_555
N3 C15 1_555 1_555
N4 Fe2 1_555 1_555
N5 Fe2 1_555 1_555
N6 Fe2 1_555 1_555
N7 C37 1_555 1_555
N8 C40 1_555 1_555
N9 Fe1 1_555 1_555
N10 Fe1 1_555 1_555
N11 Fe2 1_555 1_555
N12 Fe2 1_555 1_555
C1 H1 1_555 1_555
C2 C1 1_555 1_555
H2 C2 1_555 1_555
C3 C2 1_555 1_555
H3 C3 1_555 1_555
C4 C3 1_555 1_555
H4 C4 1_555 1_555
C5 N1 1_555 1_555
C6 N2 1_555 1_555
H5 C6 1_555 1_555
C7 N2 1_555 1_555
C8 C7 1_555 1_555
H6 C8 1_555 1_555
C9 C8 1_555 1_555
C10 C9 1_555 1_555
C11 C10 1_555 1_555
H7 C11 1_555 1_555
C12 C7 1_555 1_555
H8 C12 1_555 1_555
C13 C9 1_555 1_555
H9 C13 1_555 1_555
C14 C13 1_555 1_555
H10 C14 1_555 1_555
C15 C14 1_555 1_555
C16 C10 1_555 1_555
H11 C16 1_555 1_555
C17 N3 1_555 1_555
H12 C17 1_555 1_555
C18 N4 1_555 1_555
C19 C18 1_555 1_555
H13 C19 1_555 1_555
C20 C19 1_555 1_555
H14 C20 1_555 1_555
C21 C20 1_555 1_555
H15 C21 1_555 1_555
C22 N4 1_555 1_555
H16 C22 1_555 1_555
C23 N5 1_555 1_555
H17 C23 1_555 1_555
C24 C23 1_555 1_555
H18 C24 1_555 1_555
C25 C24 1_555 1_555
H19 C25 1_555 1_555
C26 C25 1_555 1_555
H20 C26 1_555 1_555
C27 N5 1_555 1_555
C28 N6 1_555 1_555
H21 C28 1_555 1_555
C29 N6 1_555 1_555
C30 C29 1_555 1_555
H22 C30 1_555 1_555
C31 C30 1_555 1_555
H23 C31 1_555 1_555
C32 C31 1_555 1_555
C33 C32 1_555 1_555
C34 C29 1_555 1_555
H24 C34 1_555 1_555
C35 C33 1_555 1_555
H25 C35 1_555 1_555
C36 C35 1_555 1_555
H26 C36 1_555 1_555
C37 C36 1_555 1_555
C38 C32 1_555 1_555
H27 C38 1_555 1_555
C39 N7 1_555 1_555
H28 C39 1_555 1_555
C40 C39 1_555 1_555
C41 C40 1_555 1_555
H29 C41 1_555 1_555
C42 C41 1_555 1_555
H30 C42 1_555 1_555
C43 C42 1_555 1_555
H31 C43 1_555 1_555
C44 N8 1_555 1_555
H32 C44 1_555 1_555
C45 N9 1_555 1_555
H33 C45 1_555 1_555
C46 C45 1_555 1_555
H34 C46 1_555 1_555
C47 C46 1_555 1_555
H35 C47 1_555 1_555
C48 C47 1_555 1_555
H36 C48 1_555 1_555
C49 N9 1_555 1_555
C50 N10 1_555 1_555
H37 C50 1_555 1_555
C51 H38 1_555 1_555
C52 N10 1_555 1_555
C53 C52 1_555 1_555
H39 C53 1_555 1_555
C54 C53 1_555 1_555
H40 C54 1_555 1_555
C55 C56 1_555 1_555
C56 H41 1_555 1_555
C57 C56 1_555 1_555
C58 C57 1_555 1_555
H42 C58 1_555 1_555
C59 C58 1_555 1_555
H43 C59 1_555 1_555
C60 C51 1_555 1_555
C61 N11 1_555 1_555
H44 C61 1_555 1_555
C62 C61 1_555 1_555
H45 C62 1_555 1_555
C63 C62 1_555 1_555
H46 C63 1_555 1_555
C64 C63 1_555 1_555
H47 C64 1_555 1_555
C65 N11 1_555 1_555
C66 N12 1_555 1_555
H48 C66 1_555 1_555
C67 H49 1_555 1_555
H49 C75A 1_555 1_555
C68 N12 1_555 1_555
C69 C68 1_555 1_555
H50 C69 1_555 1_555
C70 C69 1_555 1_555
H51 C70 1_555 1_555
C71 C72 1_555 1_555
C72 H52 1_555 1_555
C73 C72 1_555 1_555
C74 C73 1_555 1_555
H53 C74 1_555 1_555
C75 C74 1_555 1_555
H54 C75 1_555 1_555
C76 C67 1_555 1_555
S1 O1 1_555 1_555
O2 S1 1_555 1_555
O3 S1 1_555 1_555
C77 S1 1_555 1_555
F1 C77 1_555 1_555
F2 C77 1_555 1_555
F3 C77 1_555 1_555
S2 C78 1_555 1_555
C78 F4 1_555 1_555
O4 S2 1_555 1_555
O5 S2 1_555 1_555
O6 S2 1_555 1_555
F5 C78 1_555 1_555
F6 C78 1_555 1_555
S3 O7 1_555 1_555
O8 S3 1_555 1_555
O9 S3 1_555 1_555
C79 S3 1_555 1_555
F7 C79 1_555 1_555
F8 C79 1_555 1_555
F9 C79 1_555 1_555
S4 O11 1_555 1_555
O12 S4 1_555 1_555
O13 S4 1_555 1_555
C80 S4 1_555 1_555
F10 C80 1_555 1_555
F11 C80 1_555 1_555
F12 C80 1_555 1_555
N13 C81 1_555 1_555
C81 C82 1_555 1_555
C83 N14 1_555 1_555
C84 C83 1_555 1_555
N9A C45A 1_555 1_555
N10A C57 1_555 1_555
C45A H33A 1_555 1_555
C46A C45A 1_555 1_555
H34A C46A 1_555 1_555
C47A C46A 1_555 1_555
H35A C47A 1_555 1_555
C48A C47A 1_555 1_555
H36A C48A 1_555 1_555
C49A N9A 1_555 1_555
C50A N10A 1_555 1_555
H37A C50A 1_555 1_555
C51A C56 1_555 1_555
H38A C51A 1_555 1_555
C52A C56 1_555 1_555
C53A C56 1_555 1_555
H39A C53A 1_555 1_555
C54A C54 1_555 1_555
H40A C54 1_555 1_555
C55A C55 1_555 1_555
C56A C51 1_555 1_555
H41A C56A 1_555 1_555
C57A N10 1_555 1_555
C58A C51 1_555 1_555
H42A C58A 1_555 1_555
C59A C51 1_555 1_555
H43A C59 1_555 1_555
C60A C55 1_555 1_555
N11A C61A 1_555 1_555
N12A C73 1_555 1_555
C61A H44A 1_555 1_555
C62A C61A 1_555 1_555
H45A C62A 1_555 1_555
C63A C62A 1_555 1_555
H46A C63A 1_555 1_555
C64A C63A 1_555 1_555
H47A C64A 1_555 1_555
C65A N11A 1_555 1_555
C66A N12A 1_555 1_555
H48A C66A 1_555 1_555
C67A C72 1_555 1_555
H49A C75 1_555 1_555
C68A C72 1_555 1_555
C69A C72 1_555 1_555
H50A C69A 1_555 1_555
C70A C70 1_555 1_555
H51A C70 1_555 1_555
C71A C71 1_555 1_555
C72A C67 1_555 1_555
H52A C72A 1_555 1_555
C73A N12 1_555 1_555
C74A C67 1_555 1_555
H53A C74A 1_555 1_555
C75A C67 1_555 1_555
H54A C75A 1_555 1_555
C76A C71 1_555 1_555
Fe1A N7 1_555 1_555
Fe2A N11A 1_555 1_555
N1A Fe1A 1_555 1_555
N2A Fe1A 1_555 1_555
N3A Fe2A 1_555 1_555
N4A Fe2A 1_555 1_555
N5A Fe2A 1_555 1_555
N6A Fe2A 1_555 1_555
N7A Fe1 1_555 1_555
N8A Fe1 1_555 1_555
C1A N1A 1_555 1_555
H1A C1A 1_555 1_555
C2A C1A 1_555 1_555
H2A C2A 1_555 1_555
C3A C2A 1_555 1_555
H3A C3A 1_555 1_555
C4A C3A 1_555 1_555
H4A C4A 1_555 1_555
C5A N1A 1_555 1_555
C6A N2A 1_555 1_555
H5A C6A 1_555 1_555
C7A N2A 1_555 1_555
C8A C7A 1_555 1_555
H6A C8A 1_555 1_555
C9A C8A 1_555 1_555
C10A C9A 1_555 1_555
C11A C10A 1_555 1_555
H7A C11A 1_555 1_555
C12A C7A 1_555 1_555
H8A C12A 1_555 1_555
C13A C9A 1_555 1_555
H9A C13A 1_555 1_555
C14A C13A 1_555 1_555
H10A C14A 1_555 1_555
C15A N3A 1_555 1_555
C16A C10A 1_555 1_555
H11A C16A 1_555 1_555
C17A N3A 1_555 1_555
H12A C17A 1_555 1_555
C18A N4A 1_555 1_555
C19A C18A 1_555 1_555
H13A C19A 1_555 1_555
C20A C19A 1_555 1_555
H14A C20A 1_555 1_555
C21A C20A 1_555 1_555
H15A C21A 1_555 1_555
C22A N4A 1_555 1_555
H16A C22A 1_555 1_555
C23A N5A 1_555 1_555
H17A C23A 1_555 1_555
C24A C23A 1_555 1_555
H18A C24A 1_555 1_555
C25A C24A 1_555 1_555
H19A C25A 1_555 1_555
C26A C25A 1_555 1_555
H20A C26A 1_555 1_555
C27A N5A 1_555 1_555
C28A N6A 1_555 1_555
H21A C28A 1_555 1_555
C29A N6A 1_555 1_555
C30A C29A 1_555 1_555
H22A C30A 1_555 1_555
C31A C30A 1_555 1_555
H23A C31A 1_555 1_555
C32A C31A 1_555 1_555
C33A C32A 1_555 1_555
C34A C29A 1_555 1_555
H24A C34A 1_555 1_555
C35A C33A 1_555 1_555
H25A C35A 1_555 1_555
C36A C35A 1_555 1_555
H26A C36A 1_555 1_555
C37A N7A 1_555 1_555
C38A C32A 1_555 1_555
H27A C38A 1_555 1_555
C39A N7A 1_555 1_555
H28A C39A 1_555 1_555
C40A N8A 1_555 1_555
C41A C40A 1_555 1_555
H29A C41A 1_555 1_555
C42A C41A 1_555 1_555
H30A C42A 1_555 1_555
C43A C42A 1_555 1_555
H31A C43A 1_555 1_555
C44A N8A 1_555 1_555
H32A C44A 1_555 1_555
N8 Fe1A 1_555 1_555
C4 C5 1_555 1_555
C5 C6 1_555 1_555
C11 C12 1_555 1_555
C15 C16 1_555 1_555
C17 C18 1_555 1_555
C21 C22 1_555 1_555
C26 C27 1_555 1_555
C27 C28 1_555 1_555
C33 C34 1_555 1_555
C37 C38 1_555 1_555
C43 C44 1_555 1_555
C48 C49 1_555 1_555
C49 C50 1_555 1_555
C51 C52 1_555 1_555
C51 C57A 1_555 1_555
C52 C56A 1_555 1_555
C52 C57A 1_555 1_555
C53 C56A 1_555 1_555
H40 C54A 1_555 1_555
C55 C60 1_555 1_555
C57 C51A 1_555 1_555
C57 C52A 1_555 1_555
C58 C51A 1_555 1_555
C59 C60 1_555 1_555
C59 C51A 1_555 1_555
C59 C59A 1_555 1_555
C59 C60A 1_555 1_555
H43 C59A 1_555 1_555
C60 C55A 1_555 1_555
C60 C59A 1_555 1_555
C64 C65 1_555 1_555
C65 C66 1_555 1_555
C67 C68 1_555 1_555
C67 C73A 1_555 1_555
C68 C72A 1_555 1_555
C68 C73A 1_555 1_555
C69 C72A 1_555 1_555
C70 C72A 1_555 1_555
H51 C70A 1_555 1_555
C71 C76 1_555 1_555
C72 C70A 1_555 1_555
C73 C67A 1_555 1_555
C73 C68A 1_555 1_555
C74 C67A 1_555 1_555
C75 C76 1_555 1_555
C75 C67A 1_555 1_555
C75 C75A 1_555 1_555
C75 C76A 1_555 1_555
C76 C71A 1_555 1_555
C76 C75A 1_555 1_555
N9A Fe1A 1_555 1_555
N10A C52A 1_555 1_555
N10A Fe1A 1_555 1_555
C48A C49A 1_555 1_555
C49A C50A 1_555 1_555
C51A C52A 1_555 1_555
C51A C60A 1_555 1_555
C52A C53A 1_555 1_555
C53A C54A 1_555 1_555
C54A H40A 1_555 1_555
C55A C56A 1_555 1_555
C55A C60A 1_555 1_555
C56A C57A 1_555 1_555
C57A C58A 1_555 1_555
C58A C59A 1_555 1_555
C59A H43A 1_555 1_555
C59A C60A 1_555 1_555
N12A C68A 1_555 1_555
N12A Fe2A 1_555 1_555
C64A C65A 1_555 1_555
C65A C66A 1_555 1_555
C67A H49A 1_555 1_555
C67A C68A 1_555 1_555
C67A C76A 1_555 1_555
C68A C69A 1_555 1_555
C69A C70A 1_555 1_555
C70A H51A 1_555 1_555
C71A C72A 1_555 1_555
C71A C76A 1_555 1_555
C72A C73A 1_555 1_555
C73A C74A 1_555 1_555
C74A C75A 1_555 1_555
C75A C76A 1_555 1_555
C4A C5A 1_555 1_555
C5A C6A 1_555 1_555
C11A C12A 1_555 1_555
C14A C15A 1_555 1_555
C15A C16A 1_555 1_555
C17A C18A 1_555 1_555
C21A C22A 1_555 1_555
C26A C27A 1_555 1_555
C27A C28A 1_555 1_555
C33A C34A 1_555 1_555
C36A C37A 1_555 1_555
C37A C38A 1_555 1_555
C39A C40A 1_555 1_555
C43A C44A 1_555 1_555

#END
