
#######################################################################
#
#                 Cambridge Crystallographic Data Centre
#                                CCDC 
#
#######################################################################
#
# If this CIF has been generated from an entry in the Cambridge 
# Structural Database, then it will include bibliographic, chemical, 
# crystal, experimental, refinement or atomic coordinate data resulting 
# from the CCDC's data processing and validation procedures.
#
#######################################################################

data_IFUVAI
_chemical_formula_moiety         'C132 H96 Co4 N24 8+,3(C2 H3 N1),8(B1 F4 1-)'
_chemical_name_systematic        
"hexakis(\m~2~-N,N'-bis(pyridin-2-ylmethylene)naphthalene-2,6-diamine)-tetra-cobalt(ii) octakis(tetrafluoroborate) acetonitrile unknown solvate"
_symmetry_cell_setting           triclinic
_symmetry_space_group_name_H-M   'P -1'
_symmetry_Int_Tables_number      2
_space_group_name_Hall           '-P 1'
loop_
_symmetry_equiv_pos_site_id
_symmetry_equiv_pos_as_xyz
1 x,y,z
2 -x,-y,-z
_cell_length_a                   16.405(3)
_cell_length_b                   21.175(4)
_cell_length_c                   27.978(6)
_cell_angle_alpha                95.86(3)
_cell_angle_beta                 97.14(3)
_cell_angle_gamma                111.46(3)
_cell_volume                     8859.62
_exptl_crystal_colour            orange
_exptl_crystal_description       block
_cell_formula_units_Z            2
loop_
_atom_site_label
_atom_site_type_symbol
_atom_site_fract_x
_atom_site_fract_y
_atom_site_fract_z
Co1 Co 0.48344(10) 0.95112(7) 0.17673(6)
Co2 Co 0.73294(10) 1.47480(7) 0.18095(6)
Co3 Co 1.16296(10) 1.18968(8) 0.19777(7)
Co4 Co 0.88725(11) 1.29448(8) 0.50919(6)
N1 N 0.4026(6) 0.8979(5) 0.2239(4)
N2 N 0.4352(6) 1.0256(4) 0.2098(4)
N3 N 0.6355(6) 1.4265(5) 0.2270(4)
N4 N 0.7108(6) 1.5599(5) 0.2169(4)
N5 N 0.5381(6) 0.8741(5) 0.1653(4)
N6 N 0.6005(7) 0.9876(5) 0.2327(4)
N7 N 0.7675(6) 1.2820(5) 0.4603(4)
N8 N 0.8550(7) 1.3748(5) 0.5386(4)
N9 N 0.3745(7) 0.9128(6) 0.1149(5)
N10 N 0.5437(6) 0.9982(4) 0.1177(4)
N11 N 1.0613(6) 1.1630(5) 0.1349(5)
N12 N 1.2332(6) 1.2393(5) 0.1467(4)
N13 N 1.0154(8) 1.3260(5) 0.5567(5)
N14 N 0.9805(7) 1.3589(5) 0.4692(4)
N15 N 0.8568(7) 1.4960(5) 0.2312(4)
N16 N 0.8309(6) 1.5363(4) 0.1455(4)
N17 N 0.8089(7) 1.2194(6) 0.5472(4)
N18 N 0.9025(7) 1.2031(6) 0.4792(4)
N19 N 1.0932(6) 1.1253(5) 0.2461(4)
N20 N 1.1855(6) 1.0973(5) 0.1814(4)
N21 N 0.6320(6) 1.4500(5) 0.1186(4)
N22 N 0.7408(6) 1.3870(5) 0.1393(4)
N23 N 1.1423(6) 1.2802(4) 0.2226(4)
N24 N 1.2667(6) 1.2392(5) 0.2587(4)
C1 C 0.3766(10) 0.8312(9) 0.2274(5)
H1 H 0.4053 0.8062 0.2108
C2 C 0.3118(11) 0.7941(7) 0.2530(7)
H2 H 0.2977 0.7467 0.2540
C3 C 0.2684(10) 0.8309(7) 0.2773(6)
H3 H 0.2212 0.8086 0.2939
C4 C 0.2987(10) 0.9031(8) 0.2759(6)
H4 H 0.2753 0.9309 0.2940
C5 C 0.3611(8) 0.9318(6) 0.2485(5)
C6 C 0.3845(8) 1.0013(6) 0.2396(5)
H5 H 0.3610 1.0300 0.2567
C7 C 0.4641(7) 1.0984(6) 0.2055(5)
C8 C 0.4606(7) 1.1182(6) 0.1589(5)
H6 H 0.4385 1.0839 0.1307
C9 C 0.4877(7) 1.1836(6) 0.1539(5)
H7 H 0.4809 1.1952 0.1222
C10 C 0.5272(6) 1.2380(5) 0.1951(4)
C11 C 0.5323(7) 1.2179(6) 0.2435(5)
C12 C 0.4969(7) 1.1465(6) 0.2463(5)
H8 H 0.4962 1.1322 0.2774
C13 C 0.5726(8) 1.2688(6) 0.2835(5)
H9 H 0.5776 1.2562 0.3150
C14 C 0.6056(8) 1.3372(6) 0.2790(6)
H10 H 0.6308 1.3716 0.3071
C15 C 0.6016(7) 1.3559(5) 0.2316(5)
C16 C 0.5639(7) 1.3073(6) 0.1904(5)
H11 H 0.5629 1.3207 0.1590
C17 C 0.6154(8) 1.4690(6) 0.2511(5)
H12 H 0.5727 1.4537 0.2718
C18 C 0.6569(8) 1.5449(6) 0.2486(5)
C19 C 0.6363(9) 1.5936(8) 0.2777(6)
H13 H 0.5960 1.5809 0.3000
C20 C 0.6774(11) 1.6585(7) 0.2718(6)
H14 H 0.6642 1.6929 0.2900
C21 C 0.7342(10) 1.6778(7) 0.2427(7)
H15 H 0.7643 1.7251 0.2410
C22 C 0.7506(9) 1.6259(7) 0.2132(5)
H16 H 0.7904 1.6388 0.1907
C23 C 0.5142(8) 0.8252(6) 0.1283(5)
H17 H 0.4646 0.8193 0.1043
C24 C 0.5587(8) 0.7810(6) 0.1228(5)
H18 H 0.5403 0.7468 0.0947
C25 C 0.6278(10) 0.7859(7) 0.1568(6)
H19 H 0.6566 0.7544 0.1541
C26 C 0.6557(10) 0.8409(9) 0.1972(7)
H20 H 0.7059 0.8485 0.2213
C27 C 0.6058(9) 0.8846(6) 0.2004(6)
C28 C 0.6366(8) 0.9447(7) 0.2360(5)
H21 H 0.6838 0.9523 0.2621
C29 C 0.6307(10) 1.0504(8) 0.2707(7)
C30 C 0.6756(9) 1.1125(7) 0.2563(6)
H22 H 0.6856 1.1140 0.2237
C31 C 0.7062(11) 1.1729(8) 0.2900(7)
H23 H 0.7333 1.2165 0.2805
C32 C 0.6958(9) 1.1670(8) 0.3368(6)
C33 C 0.6459(12) 1.1064(10) 0.3518(6)
C34 C 0.6121(12) 1.0401(10) 0.3157(9)
H24 H 0.5811 0.9962 0.3239
C35 C 0.6316(14) 1.1005(10) 0.3966(9)
H25 H 0.5969 1.0573 0.4046
C36 C 0.6712(12) 1.1637(8) 0.4349(8)
H26 H 0.6614 1.1617 0.4676
C37 C 0.7209(10) 1.2230(7) 0.4217(6)
C38 C 0.7370(9) 1.2306(7) 0.3752(6)
H27 H 0.7724 1.2738 0.3675
C39 C 0.7352(9) 1.3249(6) 0.4710(6)
H28 H 0.6841 1.3250 0.4509
C40 C 0.7782(9) 1.3762(6) 0.5162(5)
C41 C 0.7426(10) 1.4255(7) 0.5286(7)
H29 H 0.6955 1.4304 0.5079
C42 C 0.7832(11) 1.4673(7) 0.5745(7)
H30 H 0.7581 1.4975 0.5879
C43 C 0.8599(10) 1.4643(7) 0.6001(6)
H31 H 0.8883 1.4927 0.6307
C44 C 0.8939(8) 1.4187(6) 0.5797(6)
H32 H 0.9482 1.4189 0.5962
C45 C 0.2945(8) 0.8685(5) 0.1129(5)
H33 H 0.2800 0.8483 0.1411
C46 C 0.2318(9) 0.8500(7) 0.0738(7)
H34 H 0.1735 0.8191 0.0754
C47 C 0.2484(9) 0.8735(9) 0.0324(9)
H35 H 0.2037 0.8574 0.0040
C48 C 0.3331(11) 0.9226(8) 0.0313(6)
H36 H 0.3475 0.9428 0.0031
C49 C 0.3969(9) 0.9403(8) 0.0760(6)
C50 C 0.4886(8) 0.9859(7) 0.0782(5)
H37 H 0.5074 1.0063 0.0507
C51 C 0.6337(8) 1.0371(6) 0.1178(5)
C52 C 0.6635(8) 1.1062(7) 0.1073(5)
H38 H 0.6210 1.1263 0.1008
C53 C 0.7511(8) 1.1440(7) 0.1063(5)
H39 H 0.7689 1.1892 0.0985
C54 C 0.8146(8) 1.1142(6) 0.1171(5)
C55 C 0.7896(7) 1.0501(6) 0.1312(5)
C56 C 0.6963(8) 1.0127(6) 0.1292(6)
H40 H 0.6780 0.9673 0.1365
C57 C 0.8537(8) 1.0207(6) 0.1435(5)
H41 H 0.8357 0.9756 0.1514
C58 C 0.9407(7) 1.0584(6) 0.1435(6)
H42 H 0.9834 1.0389 0.1515
C59 C 0.9699(8) 1.1257(6) 0.1319(4)
C60 C 0.9057(8) 1.1512(6) 0.1168(5)
H43 H 0.9236 1.1946 0.1061
C61 C 1.0899(9) 1.1916(7) 0.0978(6)
H44 H 1.0498 1.1863 0.0687
C62 C 1.1852(8) 1.2320(6) 0.1020(6)
C63 C 1.2158(8) 1.2570(7) 0.0627(7)
H45 H 1.1767 1.2490 0.0327
C64 C 1.3110(10) 1.2967(8) 0.0675(7)
H46 H 1.3374 1.3146 0.0409
C65 C 1.3595(10) 1.3063(7) 0.1130(7)
H47 H 1.4214 1.3337 0.1188
C66 C 1.3210(9) 1.2773(6) 0.1510(5)
H48 H 1.3582 1.2845 0.1816
C67 C 1.0260(10) 1.3097(7) 0.6019(6)
H49 H 0.9763 1.2868 0.6166
C68 C 1.1146(13) 1.3283(9) 0.6265(6)
H50 H 1.1244 1.3161 0.6578
C69 C 1.1857(13) 1.3633(8) 0.6062(7)
H51 H 1.2445 1.3762 0.6235
C70 C 1.1707(9) 1.3806(6) 0.5582(6)
H52 H 1.2182 1.4039 0.5422
C71 C 1.0829(9) 1.3610(6) 0.5372(5)
C72 C 1.0619(9) 1.3752(6) 0.4879(6)
H53 H 1.1079 1.3961 0.4703
C73 C 0.9623(8) 1.3733(6) 0.4208(5)
C74 C 0.9078(8) 1.4094(6) 0.4147(6)
H54 H 0.8815 1.4213 0.4409
C75 C 0.8920(8) 1.4285(6) 0.3680(5)
C76 C 0.9298(8) 1.4103(6) 0.3287(5)
C77 C 0.9838(8) 1.3709(5) 0.3372(5)
H55 H 1.0080 1.3562 0.3111
C78 C 1.0003(8) 1.3550(6) 0.3809(6)
H56 H 1.0384 1.3308 0.3859
C79 C 0.8361(7) 1.4687(5) 0.3592(5)
H57 H 0.8092 1.4817 0.3846
C80 C 0.8234(8) 1.4872(6) 0.3139(5)
H58 H 0.7845 1.5106 0.3075
C81 C 0.8670(8) 1.4719(6) 0.2774(5)
C82 C 0.9191(7) 1.4335(5) 0.2854(5)
H59 H 0.9480 1.4232 0.2601
C83 C 0.9263(8) 1.5290(6) 0.2155(6)
H60 H 0.9836 1.5380 0.2333
C84 C 0.9155(8) 1.5525(6) 0.1698(6)
C85 C 0.9925(10) 1.5937(7) 0.1529(6)
H61 H 1.0505 1.6038 0.1703
C86 C 0.9795(12) 1.6191(8) 0.1089(7)
H62 H 1.0286 1.6474 0.0959
C87 C 0.8914(10) 1.6010(7) 0.0849(6)
H63 H 0.8806 1.6170 0.0552
C88 C 0.8222(9) 1.5608(7) 0.1039(5)
H64 H 0.7638 1.5494 0.0866
C89 C 0.7557(9) 1.2276(7) 0.5791(6)
H65 H 0.7575 1.2724 0.5889
C90 C 0.6992(11) 1.1734(9) 0.5976(7)
H66 H 0.6621 1.1804 0.6193
C91 C 0.6985(11) 1.1105(9) 0.5839(7)
H67 H 0.6597 1.0728 0.5963
C92 C 0.7537(12) 1.0977(8) 0.5514(7)
H68 H 0.7549 1.0535 0.5426
C93 C 0.8053(10) 1.1555(7) 0.5339(6)
C94 C 0.8560(11) 1.1526(7) 0.4980(6)
H69 H 0.8559 1.1088 0.4864
C95 C 0.9507(11) 1.1954(7) 0.4418(5)
C96 C 1.0435(9) 1.2183(6) 0.4514(7)
H70 H 1.0745 1.2381 0.4836
C97 C 1.0910(9) 1.2126(7) 0.4147(5)
H71 H 1.1540 1.2285 0.4221
C98 C 1.0474(8) 1.1838(6) 0.3670(5)
C99 C 0.9541(9) 1.1615(8) 0.3567(5)
C100 C 0.9044(9) 1.1663(7) 0.3956(6)
H72 H 0.8413 1.1498 0.3891
C101 C 1.0934(8) 1.1720(6) 0.3290(5)
H73 H 1.1561 1.1850 0.3359
C102 C 1.0491(9) 1.1428(7) 0.2842(5)
C103 C 0.9526(9) 1.1204(7) 0.2755(8)
H74 H 0.9204 1.0968 0.2440
C104 C 0.9099(9) 1.1310(8) 0.3081(6)
H75 H 0.8475 1.1184 0.2999
C105 C 1.1009(8) 1.0676(6) 0.2434(5)
H76 H 1.0765 1.0372 0.2653
C106 C 1.1464(8) 1.0475(7) 0.2071(6)
C107 C 1.1456(8) 0.9832(6) 0.1985(6)
H77 H 1.1160 0.9498 0.2174
C108 C 1.1864(9) 0.9659(8) 0.1632(6)
H78 H 1.1852 0.9206 0.1567
C109 C 1.2298(9) 1.0156(7) 0.1369(6)
H79 H 1.2608 1.0052 0.1127
C110 C 1.2283(9) 1.0838(7) 0.1461(6)
H80 H 1.2567 1.1182 0.1276
C111 C 0.5773(7) 1.4808(6) 0.1089(5)
H81 H 0.5770 1.5159 0.1328
C112 C 0.5190(8) 1.4636(8) 0.0643(6)
H82 H 0.4785 1.4858 0.0593
C113 C 0.5190(8) 1.4160(7) 0.0281(7)
H83 H 0.4826 1.4060 -0.0031
C114 C 0.5772(9) 1.3820(6) 0.0400(6)
H84 H 0.5778 1.3454 0.0176
C115 C 0.6311(7) 1.4025(6) 0.0833(5)
C116 C 0.6956(9) 1.3683(6) 0.0976(6)
H85 H 0.7011 1.3337 0.0753
C117 C 0.8024(8) 1.3551(6) 0.1555(6)
C118 C 0.7806(8) 1.3072(6) 0.1873(6)
H86 H 0.7243 1.2934 0.1974
C119 C 0.8415(10) 1.2803(7) 0.2040(6)
H87 H 0.8254 1.2459 0.2243
C120 C 0.9266(9) 1.3023(6) 0.1917(6)
C121 C 0.9504(8) 1.3502(6) 0.1590(5)
C122 C 0.8832(9) 1.3734(6) 0.1391(5)
H88 H 0.8942 1.4017 0.1145
C123 C 1.0338(10) 1.3718(7) 0.1483(6)
H89 H 1.0488 1.4050 0.1271
C124 C 1.0946(9) 1.3501(8) 0.1652(6)
H90 H 1.1514 1.3652 0.1557
C125 C 1.0711(8) 1.3010(6) 0.1999(5)
C126 C 0.9940(8) 1.2793(6) 0.2120(5)
H91 H 0.9811 1.2477 0.2344
C127 C 1.1995(8) 1.3182(7) 0.2590(6)
H92 H 1.1998 1.3619 0.2710
C128 C 1.2628(8) 1.2950(6) 0.2816(5)
C129 C 1.3186(10) 1.3334(8) 0.3258(6)
H93 H 1.3135 1.3738 0.3407
C130 C 1.3805(11) 1.3101(9) 0.3464(8)
H94 H 1.4201 1.3349 0.3758
C131 C 1.3845(11) 1.2528(11) 0.3250(7)
H95 H 1.4277 1.2367 0.3389
C132 C 1.3214(10) 1.2131(8) 0.2790(7)
H96 H 1.3209 1.1702 0.2648
B1 B 0.6891(10) 0.6627(8) 0.0711(6)
F1 F 0.6800(8) 0.7184(6) 0.0543(5)
F2 F 0.6019(11) 0.6392(7) 0.0862(7)
F3 F 0.6865(6) 0.6122(5) 0.0393(4)
F4 F 0.7480(7) 0.6804(5) 0.1138(5)
B2 B 0.5726(10) 0.1982(8) 0.0143(7)
F5 F 0.6582(8) 0.2178(6) 0.0371(5)
F6 F 0.5328(9) 0.2241(6) 0.0499(6)
F7 F 0.5724(9) 0.2327(6) -0.0245(6)
F8 F 0.5273(7) 0.1303(5) 0.0036(5)
B3 B 0.3910(12) 0.4543(10) 0.2195(8)
F9 F 0.4513(8) 0.4668(6) 0.1825(5)
F10 F 0.4107(8) 0.5137(6) 0.2458(6)
F11 F 0.4076(9) 0.4031(7) 0.2362(6)
F12 F 0.3073(9) 0.4307(6) 0.1960(6)
N25 N 0.3311(14) 0.0788(10) 0.0455(8)
C133 C 0.3312(15) 0.1082(11) 0.0153(8)
C134 C 0.3310(16) 0.1515(11) -0.0231(9)
H97 H 0.3814 0.1957 -0.0137
H98 H 0.2754 0.1592 -0.0270
H99 H 0.3360 0.1281 -0.0540
F13 F 0.0555(7) 0.6112(5) 0.3163(5)
F14 F 0.1071(8) 0.7267(5) 0.3237(5)
F15 F -0.0291(13) 0.6632(9) 0.2808(11)
F16 F 0.1157(7) 0.6633(5) 0.2556(4)
B4 B 0.0599(12) 0.6655(8) 0.2902(7)
N26 N 0.1812(17) 0.4665(12) 0.2968(11)
C135 C 0.1891(17) 0.5008(14) 0.2674(10)
C136 C 0.2102(18) 0.5428(13) 0.2292(11)
H100 H 0.2701 0.5786 0.2392
H101 H 0.1669 0.5644 0.2238
H102 H 0.2077 0.5139 0.1990
N27 N 0.1194(13) 0.7961(9) 0.1678(8)
C137 C 0.0668(19) 0.7817(12) 0.1873(11)
C138 C -0.031(2) 0.7523(15) 0.1989(15)
H103 H -0.0290 0.7425 0.2324
H104 H -0.0668 0.7098 0.1762
H105 H -0.0581 0.7863 0.1953
F17 F 0.2475(11) 0.0441(8) 0.3080(7)
F18 F 0.2764(13) 0.0233(9) 0.3802(9)
F19 F 0.2648(10) 0.1205(7) 0.3697(6)
F20 F 0.3791(13) 0.1000(13) 0.3510(10)
B5 B 0.2927(13) 0.0725(11) 0.3520(7)
F21 F 0.6319(7) 0.4745(5) 0.3693(5)
F22 F 0.6103(8) 0.3744(6) 0.3976(5)
F23 F 0.5332(10) 0.4393(8) 0.4188(7)
F24 F 0.6820(12) 0.4811(9) 0.4398(10)
B6 B 0.6099(11) 0.4380(8) 0.4063(6)
F25 F 0.8507(8) 0.9460(6) 0.2428(5)
F26 F 0.9360(14) 0.9292(9) 0.1905(9)
F27 F 0.8501(11) 0.8422(8) 0.2250(7)
B7 B 0.9038(14) 0.9112(9) 0.2321(7)
F28 F 0.9727(17) 0.9254(11) 0.2690(9)
F29 F 0.0484(12) 0.7043(8) 0.0307(9)
F30 F -0.0657(12) 0.6860(8) -0.0305(8)
F31 F 0.0783(13) 0.7255(9) -0.0411(9)
B8 B 0.024(2) 0.7281(15) -0.0106(13)
F32 F 0.0236(15) 0.7949(11) 0.0011(10)
loop_
_geom_bond_atom_site_label_1
_geom_bond_atom_site_label_2
_geom_bond_site_symmetry_1
_geom_bond_site_symmetry_2
Co1 N1 1_555 1_555
Co2 N3 1_555 1_555
Co3 N11 1_555 1_555
Co4 N7 1_555 1_555
N1 C1 1_555 1_555
N2 Co1 1_555 1_555
N3 C15 1_555 1_555
N4 Co2 1_555 1_555
N5 Co1 1_555 1_555
N6 Co1 1_555 1_555
N7 C37 1_555 1_555
N8 Co4 1_555 1_555
N9 Co1 1_555 1_555
N10 Co1 1_555 1_555
N11 C59 1_555 1_555
N12 Co3 1_555 1_555
N13 Co4 1_555 1_555
N14 Co4 1_555 1_555
N15 Co2 1_555 1_555
N16 Co2 1_555 1_555
N17 Co4 1_555 1_555
N18 Co4 1_555 1_555
N19 Co3 1_555 1_555
N20 Co3 1_555 1_555
N21 Co2 1_555 1_555
N22 Co2 1_555 1_555
N23 Co3 1_555 1_555
N24 Co3 1_555 1_555
C1 H1 1_555 1_555
C2 C1 1_555 1_555
H2 C2 1_555 1_555
C3 C2 1_555 1_555
H3 C3 1_555 1_555
C4 C3 1_555 1_555
H4 C4 1_555 1_555
C5 N1 1_555 1_555
C6 N2 1_555 1_555
H5 C6 1_555 1_555
C7 N2 1_555 1_555
C8 C7 1_555 1_555
H6 C8 1_555 1_555
C9 C8 1_555 1_555
H7 C9 1_555 1_555
C10 C9 1_555 1_555
C11 C10 1_555 1_555
C12 C7 1_555 1_555
H8 C12 1_555 1_555
C13 C11 1_555 1_555
H9 C13 1_555 1_555
C14 C13 1_555 1_555
H10 C14 1_555 1_555
C15 C14 1_555 1_555
C16 C10 1_555 1_555
H11 C16 1_555 1_555
C17 N3 1_555 1_555
H12 C17 1_555 1_555
C18 N4 1_555 1_555
C19 C18 1_555 1_555
H13 C19 1_555 1_555
C20 C19 1_555 1_555
H14 C20 1_555 1_555
C21 C20 1_555 1_555
H15 C21 1_555 1_555
C22 N4 1_555 1_555
H16 C22 1_555 1_555
C23 N5 1_555 1_555
H17 C23 1_555 1_555
C24 C23 1_555 1_555
H18 C24 1_555 1_555
C25 C24 1_555 1_555
H19 C25 1_555 1_555
C26 C25 1_555 1_555
H20 C26 1_555 1_555
C27 N5 1_555 1_555
C28 N6 1_555 1_555
H21 C28 1_555 1_555
C29 N6 1_555 1_555
C30 C29 1_555 1_555
H22 C30 1_555 1_555
C31 C30 1_555 1_555
H23 C31 1_555 1_555
C32 C31 1_555 1_555
C33 C32 1_555 1_555
C34 C29 1_555 1_555
H24 C34 1_555 1_555
C35 C33 1_555 1_555
H25 C35 1_555 1_555
C36 C35 1_555 1_555
H26 C36 1_555 1_555
C37 C36 1_555 1_555
C38 C32 1_555 1_555
H27 C38 1_555 1_555
C39 N7 1_555 1_555
H28 C39 1_555 1_555
C40 N8 1_555 1_555
C41 C40 1_555 1_555
H29 C41 1_555 1_555
C42 C41 1_555 1_555
H30 C42 1_555 1_555
C43 C42 1_555 1_555
H31 C43 1_555 1_555
C44 N8 1_555 1_555
H32 C44 1_555 1_555
C45 N9 1_555 1_555
H33 C45 1_555 1_555
C46 C45 1_555 1_555
H34 C46 1_555 1_555
C47 C46 1_555 1_555
H35 C47 1_555 1_555
C48 C47 1_555 1_555
H36 C48 1_555 1_555
C49 N9 1_555 1_555
C50 N10 1_555 1_555
H37 C50 1_555 1_555
C51 N10 1_555 1_555
C52 C51 1_555 1_555
H38 C52 1_555 1_555
C53 C52 1_555 1_555
H39 C53 1_555 1_555
C54 C53 1_555 1_555
C55 C54 1_555 1_555
C56 C51 1_555 1_555
H40 C56 1_555 1_555
C57 C55 1_555 1_555
H41 C57 1_555 1_555
C58 C57 1_555 1_555
H42 C58 1_555 1_555
C59 C58 1_555 1_555
C60 C54 1_555 1_555
H43 C60 1_555 1_555
C61 N11 1_555 1_555
H44 C61 1_555 1_555
C62 N12 1_555 1_555
C63 C62 1_555 1_555
H45 C63 1_555 1_555
C64 C63 1_555 1_555
H46 C64 1_555 1_555
C65 C64 1_555 1_555
H47 C65 1_555 1_555
C66 N12 1_555 1_555
H48 C66 1_555 1_555
C67 N13 1_555 1_555
H49 C67 1_555 1_555
C68 C67 1_555 1_555
H50 C68 1_555 1_555
C69 C68 1_555 1_555
H51 C69 1_555 1_555
C70 C69 1_555 1_555
H52 C70 1_555 1_555
C71 N13 1_555 1_555
C72 N14 1_555 1_555
H53 C72 1_555 1_555
C73 N14 1_555 1_555
C74 C73 1_555 1_555
H54 C74 1_555 1_555
C75 C74 1_555 1_555
C76 C75 1_555 1_555
C77 C76 1_555 1_555
H55 C77 1_555 1_555
C78 C73 1_555 1_555
H56 C78 1_555 1_555
C79 C75 1_555 1_555
H57 C79 1_555 1_555
C80 C79 1_555 1_555
H58 C80 1_555 1_555
C81 N15 1_555 1_555
C82 C76 1_555 1_555
H59 C82 1_555 1_555
C83 N15 1_555 1_555
H60 C83 1_555 1_555
C84 N16 1_555 1_555
C85 C84 1_555 1_555
H61 C85 1_555 1_555
C86 C85 1_555 1_555
H62 C86 1_555 1_555
C87 C86 1_555 1_555
H63 C87 1_555 1_555
C88 N16 1_555 1_555
H64 C88 1_555 1_555
C89 N17 1_555 1_555
H65 C89 1_555 1_555
C90 C89 1_555 1_555
H66 C90 1_555 1_555
C91 C90 1_555 1_555
H67 C91 1_555 1_555
C92 C91 1_555 1_555
H68 C92 1_555 1_555
C93 N17 1_555 1_555
C94 N18 1_555 1_555
H69 C94 1_555 1_555
C95 N18 1_555 1_555
C96 C95 1_555 1_555
H70 C96 1_555 1_555
C97 C96 1_555 1_555
H71 C97 1_555 1_555
C98 C97 1_555 1_555
C99 C98 1_555 1_555
C100 C95 1_555 1_555
H72 C100 1_555 1_555
C101 C98 1_555 1_555
H73 C101 1_555 1_555
C102 N19 1_555 1_555
C103 C102 1_555 1_555
H74 C103 1_555 1_555
C104 C99 1_555 1_555
H75 C104 1_555 1_555
C105 N19 1_555 1_555
H76 C105 1_555 1_555
C106 N20 1_555 1_555
C107 C106 1_555 1_555
H77 C107 1_555 1_555
C108 C107 1_555 1_555
H78 C108 1_555 1_555
C109 C108 1_555 1_555
H79 C109 1_555 1_555
C110 N20 1_555 1_555
H80 C110 1_555 1_555
C111 N21 1_555 1_555
H81 C111 1_555 1_555
C112 C111 1_555 1_555
H82 C112 1_555 1_555
C113 C112 1_555 1_555
H83 C113 1_555 1_555
C114 C113 1_555 1_555
H84 C114 1_555 1_555
C115 N21 1_555 1_555
C116 N22 1_555 1_555
H85 C116 1_555 1_555
C117 N22 1_555 1_555
C118 C117 1_555 1_555
H86 C118 1_555 1_555
C119 C118 1_555 1_555
H87 C119 1_555 1_555
C120 C119 1_555 1_555
C121 C120 1_555 1_555
C122 C117 1_555 1_555
H88 C122 1_555 1_555
C123 C121 1_555 1_555
H89 C123 1_555 1_555
C124 C123 1_555 1_555
H90 C124 1_555 1_555
C125 N23 1_555 1_555
C126 C120 1_555 1_555
H91 C126 1_555 1_555
C127 N23 1_555 1_555
H92 C127 1_555 1_555
C128 N24 1_555 1_555
C129 C128 1_555 1_555
H93 C129 1_555 1_555
C130 C129 1_555 1_555
H94 C130 1_555 1_555
C131 C130 1_555 1_555
H95 C131 1_555 1_555
C132 N24 1_555 1_555
H96 C132 1_555 1_555
B1 F1 1_555 1_555
F2 B1 1_555 1_555
F3 B1 1_555 1_555
F4 B1 1_555 1_555
B2 F5 1_555 1_555
F6 B2 1_555 1_555
F7 B2 1_555 1_555
F8 B2 1_555 1_555
B3 F9 1_555 1_555
F10 B3 1_555 1_555
F11 B3 1_555 1_555
F12 B3 1_555 1_555
N25 C133 1_555 1_555
C133 C134 1_555 1_555
C134 H97 1_555 1_555
H98 C134 1_555 1_555
H99 C134 1_555 1_555
F13 B4 1_555 1_555
F14 B4 1_555 1_555
F15 B4 1_555 1_555
F16 B4 1_555 1_555
N26 C135 1_555 1_555
C135 C136 1_555 1_555
C136 H100 1_555 1_555
H101 C136 1_555 1_555
H102 C136 1_555 1_555
N27 C137 1_555 1_555
C137 C138 1_555 1_555
C138 H103 1_555 1_555
H104 C138 1_555 1_555
H105 C138 1_555 1_555
F17 B5 1_555 1_555
F18 B5 1_555 1_555
F19 B5 1_555 1_555
F20 B5 1_555 1_555
F21 B6 1_555 1_555
F22 B6 1_555 1_555
F23 B6 1_555 1_555
F24 B6 1_555 1_555
F25 B7 1_555 1_555
F26 B7 1_555 1_555
F27 B7 1_555 1_555
B7 F28 1_555 1_555
F29 B8 1_555 1_555
F30 B8 1_555 1_555
F31 B8 1_555 1_555
B8 F32 1_555 1_555
C4 C5 1_555 1_555
C5 C6 1_555 1_555
C11 C12 1_555 1_555
C15 C16 1_555 1_555
C17 C18 1_555 1_555
C21 C22 1_555 1_555
C26 C27 1_555 1_555
C27 C28 1_555 1_555
C33 C34 1_555 1_555
C37 C38 1_555 1_555
C39 C40 1_555 1_555
C43 C44 1_555 1_555
C48 C49 1_555 1_555
C49 C50 1_555 1_555
C55 C56 1_555 1_555
C59 C60 1_555 1_555
C61 C62 1_555 1_555
C65 C66 1_555 1_555
C70 C71 1_555 1_555
C71 C72 1_555 1_555
C77 C78 1_555 1_555
C80 C81 1_555 1_555
C81 C82 1_555 1_555
C83 C84 1_555 1_555
C87 C88 1_555 1_555
C92 C93 1_555 1_555
C93 C94 1_555 1_555
C99 C100 1_555 1_555
C101 C102 1_555 1_555
C103 C104 1_555 1_555
C105 C106 1_555 1_555
C109 C110 1_555 1_555
C114 C115 1_555 1_555
C115 C116 1_555 1_555
C121 C122 1_555 1_555
C124 C125 1_555 1_555
C125 C126 1_555 1_555
C127 C128 1_555 1_555
C131 C132 1_555 1_555

#END
