
#######################################################################
#
#                 Cambridge Crystallographic Data Centre
#                                CCDC 
#
#######################################################################
#
# If this CIF has been generated from an entry in the Cambridge 
# Structural Database, then it will include bibliographic, chemical, 
# crystal, experimental, refinement or atomic coordinate data resulting 
# from the CCDC's data processing and validation procedures.
#
#######################################################################

data_IGASER
_chemical_formula_moiety         
'C156 H132 N60 Pd9 18+,18(B1 F4 1-),x(C2 H3 N1)'
_chemical_name_systematic        
'dodecakis(\m-2-{1-[(pyridin-4-yl)methyl]-1H-1,2,3-triazol-4-yl}pyridine)-nona-palladium(ii) octadecakis(tetrafluoroborate) acetonitrile solvate'
_symmetry_cell_setting           hexagonal
_symmetry_space_group_name_H-M   'P -6 2 c'
_symmetry_Int_Tables_number      190
_space_group_name_Hall           "P -6c -2'c"
loop_
_symmetry_equiv_pos_site_id
_symmetry_equiv_pos_as_xyz
1 x,y,z
2 -x+y,-x,1/2-z
3 -y,x-y,z
4 x,y,1/2-z
5 -x+y,-x,z
6 -y,x-y,1/2-z
7 x-y,-y,-z
8 -x,-x+y,-z
9 y,x,-z
10 y,x,1/2+z
11 x-y,-y,1/2+z
12 -x,-x+y,1/2+z
_cell_length_a                   25.3068(9)
_cell_length_b                   25.3068(9)
_cell_length_c                   27.2651(12)
_cell_angle_alpha                90
_cell_angle_beta                 90
_cell_angle_gamma                120
_cell_volume                     15122.1
_exptl_crystal_colour            yellow
_exptl_crystal_description       block
_cell_formula_units_Z            2
loop_
_atom_site_label
_atom_site_type_symbol
_atom_site_fract_x
_atom_site_fract_y
_atom_site_fract_z
Pd1 Pd 0.26694(14) 0.07942(14) 0.7500
Pd2 Pd 0.54079(10) -0.02660(9) 0.58740(6)
N1 N 0.2797(11) 0.0257(7) 0.6978(5)
C1 C 0.3330(11) 0.0388(10) 0.6884(9)
H1 H 0.3655 0.0736 0.7037
C2 C 0.2320(11) -0.0137(11) 0.6735(8)
H2 H 0.1938 -0.0165 0.6797
C3 C 0.5623(9) -0.1179(11) 0.6403(9)
H3 H 0.6032 -0.0943 0.6293
C4 C 0.4417(9) -0.1834(10) 0.6773(9)
H4 H 0.4011 -0.2066 0.6893
C5 C 0.7123(9) 0.0679(10) 0.5429(9)
H5 H 0.7451 0.0996 0.5250
C6 C 0.6550(9) 0.0581(9) 0.5470(8)
C7 C 0.6449(10) 0.1337(11) 0.5060(9)
H6 H 0.6873 0.1557 0.4989
C8 C 0.3478(8) 0.0034(10) 0.6550(9)
H7 H 0.3885 0.0116 0.6503
C9 C 0.4625(9) -0.1288(10) 0.6472(8)
N2 N 0.3611(9) -0.0848(11) 0.6032(9)
C10 C 0.2356(8) -0.0532(11) 0.6376(9)
H8 H 0.2004 -0.0825 0.6204
N3 N 0.6598(10) -0.0136(8) 0.5843(6)
N4 N 0.5611(10) 0.0538(9) 0.5460(7)
C11 C 0.3718(10) -0.1239(9) 0.6317(8)
H9 H 0.3422 -0.1571 0.6506
N5 N 0.5207(9) -0.1002(6) 0.6291(4)
C12 C 0.4894(14) -0.1996(10) 0.6875(8)
H10 H 0.4793 -0.2324 0.7095
C13 C 0.2950(10) -0.0466(11) 0.6286(9)
C14 C 0.5440(11) -0.1727(10) 0.6689(9)
H11 H 0.5708 -0.1884 0.6738
C15 C 0.3031(10) -0.0929(11) 0.5939(9)
H12 H 0.2713 -0.1355 0.6011
H13 H 0.2995 -0.0842 0.5590
C16 C 0.7672(9) 0.0159(11) 0.5719(8)
H14 H 0.7902 0.0317 0.5410
H15 H 0.7567 -0.0271 0.5760
N6 N 0.6217(8) 0.0050(9) 0.5743(6)
N7 N 0.7138(9) 0.0203(10) 0.5711(8)
C17 C 0.8173(12) 0.1161(9) 0.6930(8)
H16 H 0.8010 0.1321 0.7164
C18 C 0.8698(8) 0.0706(9) 0.6249(7)
H17 H 0.8897 0.0565 0.6034
C19 C 0.8065(12) 0.0557(9) 0.6170(7)
C20 C 0.7822(9) 0.0811(8) 0.6540(7)
H18 H 0.7414 0.0731 0.6508
C21 C 0.6083(12) 0.1574(8) 0.4914(8)
H19 H 0.6229 0.1907 0.4693
N8 N 0.8715(12) 0.1265(8) 0.6967(7)
C22 C 0.5453(12) 0.1286(12) 0.5118(10)
H20 H 0.5207 0.1466 0.5063
N9 N 0.4136(9) -0.0438(8) 0.5827(7)
N10 N 0.4507(10) -0.0576(10) 0.5971(7)
C23 C 0.9003(9) 0.1080(8) 0.6672(9)
H21 H 0.9415 0.1194 0.6738
C24 C 0.4269(10) -0.1080(10) 0.6284(8)
C25 C 0.6195(10) 0.0761(10) 0.5316(9)
C26 C 0.5225(9) 0.0743(11) 0.5394(9)
H22 H 0.4822 0.0538 0.5523
Pd1A Pd 0.81248(20) 0.73306(14) 0.7500
Pd2A Pd 0.43261(13) 0.45921(10) 0.91260(6)
N1A N 0.7460(13) 0.7203(11) 0.8022(5)
C1A C 0.7058(15) 0.6670(11) 0.8116(9)
H1A H 0.7081 0.6345 0.7963
C2A C 0.7543(16) 0.7680(11) 0.8265(8)
H2A H 0.7897 0.8062 0.8203
C3A C 0.3198(14) 0.4377(9) 0.8597(9)
H3A H 0.3025 0.3968 0.8707
C4A C 0.3749(13) 0.5583(9) 0.8227(9)
H4A H 0.3923 0.5989 0.8107
C5A C 0.3556(13) 0.2877(9) 0.9571(9)
H5A H 0.3545 0.2549 0.9750
C6A C 0.4031(13) 0.3450(9) 0.9530(8)
C7A C 0.4888(15) 0.3551(10) 0.9940(9)
H6A H 0.4684 0.3127 1.0011
C8A C 0.6556(13) 0.6522(8) 0.8450(9)
H7A H 0.6231 0.6115 0.8497
C9A C 0.4087(13) 0.5375(9) 0.8528(8)
N2A N 0.5541(14) 0.6389(9) 0.8968(9)
C10A C 0.7112(14) 0.7644(8) 0.8624(9)
H8A H 0.7171 0.7996 0.8796
N3A N 0.3266(13) 0.3402(10) 0.9157(6)
N4A N 0.4927(13) 0.4389(10) 0.9540(7)
C11A C 0.5043(13) 0.6282(10) 0.8683(8)
H9A H 0.5007 0.6578 0.8494
N5A N 0.3791(11) 0.4793(9) 0.8709(4)
C12A C 0.3110(17) 0.5106(14) 0.8125(8)
H10A H 0.2883 0.5207 0.7905
C13A C 0.6584(15) 0.7050(10) 0.8714(9)
C14A C 0.2833(15) 0.4560(11) 0.8311(9)
H11A H 0.2408 0.4292 0.8262
C15A C 0.6040(15) 0.6969(10) 0.9061(9)
H12A H 0.5932 0.7287 0.8989
H13A H 0.6163 0.7005 0.9410
C16A C 0.2487(14) 0.2328(9) 0.9281(8)
H14A H 0.2415 0.2098 0.9590
H15A H 0.2162 0.2433 0.9240
N6A N 0.3833(12) 0.3783(8) 0.9257(6)
N7A N 0.3065(13) 0.2862(9) 0.9289(8)
C17A C 0.2988(15) 0.1827(12) 0.8070(8)
H16A H 0.3311 0.1990 0.7836
C18A C 0.2008(12) 0.1302(8) 0.8751(7)
H17A H 0.1668 0.1103 0.8966
C19A C 0.2492(15) 0.1935(12) 0.8830(7)
C20A C 0.2989(12) 0.2178(9) 0.8460(7)
H18A H 0.3317 0.2586 0.8492
C21A C 0.5491(14) 0.3917(12) 1.0086(8)
H19A H 0.5678 0.3771 1.0307
N8A N 0.2550(14) 0.1285(12) 0.8033(7)
C22A C 0.5833(17) 0.4547(12) 0.9882(10)
H20A H 0.6259 0.4793 0.9937
N9A N 0.5426(12) 0.5864(9) 0.9173(7)
N10A N 0.4917(14) 0.5493(10) 0.9029(7)
C23A C 0.2077(12) 0.0997(9) 0.8328(9)
H21A H 0.1779 0.0585 0.8262
C24A C 0.4651(14) 0.5731(10) 0.8716(8)
C25A C 0.4566(14) 0.3805(10) 0.9684(9)
C26A C 0.5518(14) 0.4775(9) 0.9606(9)
H22A H 0.5716 0.5178 0.9477
Pd1B Pd 0.92058(14) 0.18752(20) 0.7500
Pd2B Pd 1.02660(9) 0.56739(13) 0.58740(6)
N1B N 0.9743(7) 0.2540(13) 0.6978(5)
C1B C 0.9612(10) 0.2942(15) 0.6884(9)
H1B H 0.9264 0.2919 0.7037
C2B C 1.0137(11) 0.2457(16) 0.6735(8)
H2B H 1.0165 0.2103 0.6797
C3B C 1.1179(11) 0.6802(14) 0.6403(9)
H3B H 1.0943 0.6975 0.6293
C4B C 1.1834(10) 0.6251(13) 0.6773(9)
H4B H 1.2066 0.6077 0.6893
C5B C 0.9321(10) 0.6444(13) 0.5429(9)
H5B H 0.9004 0.6455 0.5250
C6B C 0.9419(9) 0.5969(13) 0.5470(8)
C7B C 0.8663(11) 0.5112(15) 0.5060(9)
H6B H 0.8443 0.5316 0.4989
C8B C 0.9966(10) 0.3444(13) 0.6550(9)
H7B H 0.9884 0.3769 0.6503
C9B C 1.1288(10) 0.5913(13) 0.6472(8)
N2B N 1.0848(11) 0.4459(14) 0.6032(9)
C10B C 1.0532(11) 0.2888(14) 0.6376(9)
H8B H 1.0825 0.2829 0.6204
N3B N 1.0136(8) 0.6734(13) 0.5843(6)
N4B N 0.9462(9) 0.5073(13) 0.5460(7)
C11B C 1.1239(9) 0.4957(13) 0.6317(8)
H9B H 1.1571 0.4993 0.6506
N5B N 1.1002(6) 0.6209(11) 0.6291(4)
C12B C 1.1996(10) 0.6890(17) 0.6875(8)
H10B H 1.2324 0.7117 0.7095
C13B C 1.0466(11) 0.3416(15) 0.6286(9)
C14B C 1.1727(10) 0.7167(15) 0.6689(9)
H11B H 1.1884 0.7592 0.6738
C15B C 1.0929(11) 0.3960(15) 0.5939(9)
H12B H 1.1355 0.4068 0.6011
H13B H 1.0842 0.3837 0.5590
C16B C 0.9841(11) 0.7513(14) 0.5719(8)
H14B H 0.9683 0.7585 0.5410
H15B H 1.0271 0.7838 0.5760
N6B N 0.9950(9) 0.6167(12) 0.5743(6)
N7B N 0.9797(10) 0.6935(13) 0.5711(8)
C17B C 0.8839(9) 0.7012(15) 0.6930(8)
H16B H 0.8679 0.6689 0.7164
C18B C 0.9294(9) 0.7992(12) 0.6249(7)
H17B H 0.9435 0.8332 0.6034
C19B C 0.9443(9) 0.7508(15) 0.6170(7)
C20B C 0.9189(8) 0.7011(12) 0.6540(7)
H18B H 0.9269 0.6683 0.6508
C21B C 0.8426(8) 0.4509(14) 0.4914(8)
H19B H 0.8093 0.4322 0.4693
N8B N 0.8735(8) 0.7450(14) 0.6967(7)
C22B C 0.8714(12) 0.4167(17) 0.5118(10)
H20B H 0.8534 0.3741 0.5063
N9B N 1.0438(8) 0.4574(12) 0.5827(7)
N10B N 1.0576(10) 0.5083(14) 0.5971(7)
C23B C 0.8920(8) 0.7923(12) 0.6672(9)
H21B H 0.8806 0.8221 0.6738
C24B C 1.1080(10) 0.5349(14) 0.6284(8)
C25B C 0.9239(10) 0.5434(14) 0.5316(9)
C26B C 0.9257(11) 0.4482(14) 0.5394(9)
H22B H 0.9462 0.4284 0.5523
Pd2C Pd 0.54079(10) -0.02660(9) 0.91260(6)
N1C N 0.2797(11) 0.0257(7) 0.8022(5)
C1C C 0.3330(11) 0.0388(10) 0.8116(9)
H1C H 0.3655 0.0736 0.7963
C2C C 0.2320(11) -0.0137(11) 0.8265(8)
H2C H 0.1938 -0.0165 0.8203
C3C C 0.5623(9) -0.1179(11) 0.8597(9)
H3C H 0.6032 -0.0943 0.8707
C4C C 0.4417(9) -0.1834(10) 0.8227(9)
H4C H 0.4011 -0.2066 0.8107
C5C C 0.7123(9) 0.0679(10) 0.9571(9)
H5C H 0.7451 0.0996 0.9750
C6C C 0.6550(9) 0.0581(9) 0.9530(8)
C7C C 0.6449(10) 0.1337(11) 0.9940(9)
H6C H 0.6873 0.1557 1.0011
C8C C 0.3478(8) 0.0034(10) 0.8450(9)
H7C H 0.3885 0.0116 0.8497
C9C C 0.4625(9) -0.1288(10) 0.8528(8)
N2C N 0.3611(9) -0.0848(11) 0.8968(9)
C10C C 0.2356(8) -0.0532(11) 0.8624(9)
H8C H 0.2004 -0.0825 0.8796
N3C N 0.6598(10) -0.0136(8) 0.9157(6)
N4C N 0.5611(10) 0.0538(9) 0.9540(7)
C11C C 0.3718(10) -0.1239(9) 0.8683(8)
H9C H 0.3422 -0.1571 0.8494
N5C N 0.5207(9) -0.1002(6) 0.8709(4)
C12C C 0.4894(14) -0.1996(10) 0.8125(8)
H10C H 0.4793 -0.2324 0.7905
C13C C 0.2950(10) -0.0466(11) 0.8714(9)
C14C C 0.5440(11) -0.1727(10) 0.8311(9)
H11C H 0.5708 -0.1884 0.8262
C15C C 0.3031(10) -0.0929(11) 0.9061(9)
H12C H 0.2713 -0.1355 0.8989
H13C H 0.2995 -0.0842 0.9410
C16C C 0.7672(9) 0.0159(11) 0.9281(8)
H14C H 0.7902 0.0317 0.9590
H15C H 0.7567 -0.0271 0.9240
N6C N 0.6217(8) 0.0050(9) 0.9257(6)
N7C N 0.7138(9) 0.0203(10) 0.9289(8)
C17C C 0.8173(12) 0.1161(9) 0.8070(8)
H16C H 0.8010 0.1321 0.7836
C18C C 0.8698(8) 0.0706(9) 0.8751(7)
H17C H 0.8897 0.0565 0.8966
C19C C 0.8065(12) 0.0557(9) 0.8830(7)
C20C C 0.7822(9) 0.0811(8) 0.8460(7)
H18C H 0.7414 0.0731 0.8492
C21C C 0.6083(12) 0.1574(8) 1.0086(8)
H19C H 0.6229 0.1907 1.0307
N8C N 0.8715(12) 0.1265(8) 0.8033(7)
C22C C 0.5453(12) 0.1286(12) 0.9882(10)
H20C H 0.5207 0.1466 0.9937
N9C N 0.4136(9) -0.0438(8) 0.9173(7)
N10C N 0.4507(10) -0.0576(10) 0.9029(7)
C23C C 0.9003(9) 0.1080(8) 0.8328(9)
H21C H 0.9415 0.1194 0.8262
C24C C 0.4269(10) -0.1080(10) 0.8716(8)
C25C C 0.6195(10) 0.0761(10) 0.9684(9)
C26C C 0.5225(9) 0.0743(11) 0.9606(9)
H22C H 0.4822 0.0538 0.9477
Pd2D Pd 0.43261(13) 0.45921(10) 0.58740(6)
N1D N 0.7460(13) 0.7203(11) 0.6978(5)
C1D C 0.7058(15) 0.6670(11) 0.6884(9)
H1D H 0.7081 0.6345 0.7037
C2D C 0.7543(16) 0.7680(11) 0.6735(8)
H2D H 0.7897 0.8062 0.6797
C3D C 0.3198(14) 0.4377(9) 0.6403(9)
H3D H 0.3025 0.3968 0.6293
C4D C 0.3749(13) 0.5583(9) 0.6773(9)
H4D H 0.3923 0.5989 0.6893
C5D C 0.3556(13) 0.2877(9) 0.5429(9)
H5D H 0.3545 0.2549 0.5250
C6D C 0.4031(13) 0.3450(9) 0.5470(8)
C7D C 0.4888(15) 0.3551(10) 0.5060(9)
H6D H 0.4684 0.3127 0.4989
C8D C 0.6556(13) 0.6522(8) 0.6550(9)
H7D H 0.6231 0.6115 0.6503
C9D C 0.4087(13) 0.5375(9) 0.6472(8)
N2D N 0.5541(14) 0.6389(9) 0.6032(9)
C10D C 0.7112(14) 0.7644(8) 0.6376(9)
H8D H 0.7171 0.7996 0.6204
N3D N 0.3266(13) 0.3402(10) 0.5843(6)
N4D N 0.4927(13) 0.4389(10) 0.5460(7)
C11D C 0.5043(13) 0.6282(10) 0.6317(8)
H9D H 0.5007 0.6578 0.6506
N5D N 0.3791(11) 0.4793(9) 0.6291(4)
C12D C 0.3110(17) 0.5106(14) 0.6875(8)
H10D H 0.2883 0.5207 0.7095
C13D C 0.6584(15) 0.7050(10) 0.6286(9)
C14D C 0.2833(15) 0.4560(11) 0.6689(9)
H11D H 0.2408 0.4292 0.6738
C15D C 0.6040(15) 0.6969(10) 0.5939(9)
H12D H 0.5932 0.7287 0.6011
H13D H 0.6163 0.7005 0.5590
C16D C 0.2487(14) 0.2328(9) 0.5719(8)
H14D H 0.2415 0.2098 0.5410
H15D H 0.2162 0.2433 0.5760
N6D N 0.3833(12) 0.3783(8) 0.5743(6)
N7D N 0.3065(13) 0.2862(9) 0.5711(8)
C17D C 0.2988(15) 0.1827(12) 0.6930(8)
H16D H 0.3311 0.1990 0.7164
C18D C 0.2008(12) 0.1302(8) 0.6249(7)
H17D H 0.1668 0.1103 0.6034
C19D C 0.2492(15) 0.1935(12) 0.6170(7)
C20D C 0.2989(12) 0.2178(9) 0.6540(7)
H18D H 0.3317 0.2586 0.6508
C21D C 0.5491(14) 0.3917(12) 0.4914(8)
H19D H 0.5678 0.3771 0.4693
N8D N 0.2550(14) 0.1285(12) 0.6967(7)
C22D C 0.5833(17) 0.4547(12) 0.5118(10)
H20D H 0.6259 0.4793 0.5063
N9D N 0.5426(12) 0.5864(9) 0.5827(7)
N10D N 0.4917(14) 0.5493(10) 0.5971(7)
C23D C 0.2077(12) 0.0997(9) 0.6672(9)
H21D H 0.1779 0.0585 0.6738
C24D C 0.4651(14) 0.5731(10) 0.6284(8)
C25D C 0.4566(14) 0.3805(10) 0.5316(9)
C26D C 0.5518(14) 0.4775(9) 0.5394(9)
H22D H 0.5716 0.5178 0.5523
Pd2E Pd 1.02660(9) 0.56739(13) 0.91260(6)
N1E N 0.9743(7) 0.2540(13) 0.8022(5)
C1E C 0.9612(10) 0.2942(15) 0.8116(9)
H1E H 0.9264 0.2919 0.7963
C2E C 1.0137(11) 0.2457(16) 0.8265(8)
H2E H 1.0165 0.2103 0.8203
C3E C 1.1179(11) 0.6802(14) 0.8597(9)
H3E H 1.0943 0.6975 0.8707
C4E C 1.1834(10) 0.6251(13) 0.8227(9)
H4E H 1.2066 0.6077 0.8107
C5E C 0.9321(10) 0.6444(13) 0.9571(9)
H5E H 0.9004 0.6455 0.9750
C6E C 0.9419(9) 0.5969(13) 0.9530(8)
C7E C 0.8663(11) 0.5112(15) 0.9940(9)
H6E H 0.8443 0.5316 1.0011
C8E C 0.9966(10) 0.3444(13) 0.8450(9)
H7E H 0.9884 0.3769 0.8497
C9E C 1.1288(10) 0.5913(13) 0.8528(8)
N2E N 1.0848(11) 0.4459(14) 0.8968(9)
C10E C 1.0532(11) 0.2888(14) 0.8624(9)
H8E H 1.0825 0.2829 0.8796
N3E N 1.0136(8) 0.6734(13) 0.9157(6)
N4E N 0.9462(9) 0.5073(13) 0.9540(7)
C11E C 1.1239(9) 0.4957(13) 0.8683(8)
H9E H 1.1571 0.4993 0.8494
N5E N 1.1002(6) 0.6209(11) 0.8709(4)
C12E C 1.1996(10) 0.6890(17) 0.8125(8)
H10E H 1.2324 0.7117 0.7905
C13E C 1.0466(11) 0.3416(15) 0.8714(9)
C14E C 1.1727(10) 0.7167(15) 0.8311(9)
H11E H 1.1884 0.7592 0.8262
C15E C 1.0929(11) 0.3960(15) 0.9061(9)
H12E H 1.1355 0.4068 0.8989
H13E H 1.0842 0.3837 0.9410
C16E C 0.9841(11) 0.7513(14) 0.9281(8)
H14E H 0.9683 0.7585 0.9590
H15E H 1.0271 0.7838 0.9240
N6E N 0.9950(9) 0.6167(12) 0.9257(6)
N7E N 0.9797(10) 0.6935(13) 0.9289(8)
C17E C 0.8839(9) 0.7012(15) 0.8070(8)
H16E H 0.8679 0.6689 0.7836
C18E C 0.9294(9) 0.7992(12) 0.8751(7)
H17E H 0.9435 0.8332 0.8966
C19E C 0.9443(9) 0.7508(15) 0.8830(7)
C20E C 0.9189(8) 0.7011(12) 0.8460(7)
H18E H 0.9269 0.6683 0.8492
C21E C 0.8426(8) 0.4509(14) 1.0086(8)
H19E H 0.8093 0.4322 1.0307
N8E N 0.8735(8) 0.7450(14) 0.8033(7)
C22E C 0.8714(12) 0.4167(17) 0.9882(10)
H20E H 0.8534 0.3741 0.9937
N9E N 1.0438(8) 0.4574(12) 0.9173(7)
N10E N 1.0576(10) 0.5083(14) 0.9029(7)
C23E C 0.8920(8) 0.7923(12) 0.8328(9)
H21E H 0.8806 0.8221 0.8262
C24E C 1.1080(10) 0.5349(14) 0.8716(8)
C25E C 0.9239(10) 0.5434(14) 0.9684(9)
C26E C 0.9257(11) 0.4482(14) 0.9606(9)
H22E H 0.9462 0.4284 0.9477
loop_
_geom_bond_atom_site_label_1
_geom_bond_atom_site_label_2
_geom_bond_site_symmetry_1
_geom_bond_site_symmetry_2
Pd1 N1 1_555 1_555
Pd2 N4 1_555 1_555
N1 C1 1_555 1_555
C1 H1 1_555 1_555
C2 N1 1_555 1_555
H2 C2 1_555 1_555
C3 H3 1_555 1_555
C4 H4 1_555 1_555
C5 H5 1_555 1_555
C6 C5 1_555 1_555
C7 H6 1_555 1_555
C8 C1 1_555 1_555
H7 C8 1_555 1_555
C9 C4 1_555 1_555
N2 C11 1_555 1_555
C10 C2 1_555 1_555
H8 C10 1_555 1_555
N3 N6 1_555 1_555
N4 C25 1_555 1_555
C11 H9 1_555 1_555
N5 Pd2 1_555 1_555
C12 C4 1_555 1_555
H10 C12 1_555 1_555
C13 C8 1_555 1_555
C14 C3 1_555 1_555
H11 C14 1_555 1_555
C15 N2 1_555 1_555
H12 C15 1_555 1_555
H13 C15 1_555 1_555
C16 H14 1_555 1_555
H15 C16 1_555 1_555
N6 Pd2 1_555 1_555
N7 C5 1_555 1_555
C17 H16 1_555 1_555
C18 H17 1_555 1_555
C19 C16 1_555 1_555
C20 C17 1_555 1_555
H18 C20 1_555 1_555
C21 C7 1_555 1_555
H19 C21 1_555 1_555
N8 C17 1_555 1_555
C22 C21 1_555 1_555
H20 C22 1_555 1_555
N9 N2 1_555 1_555
N10 Pd2 1_555 1_555
C23 C18 1_555 1_555
H21 C23 1_555 1_555
C24 C9 1_555 1_555
C25 C6 1_555 1_555
C26 N4 1_555 1_555
H22 C26 1_555 1_555
Pd1A N1A 1_555 1_555
Pd2A N4A 1_555 1_555
N1A C1A 1_555 1_555
C1A H1A 1_555 1_555
C2A N1A 1_555 1_555
H2A C2A 1_555 1_555
C3A H3A 1_555 1_555
C4A H4A 1_555 1_555
C5A H5A 1_555 1_555
C6A C5A 1_555 1_555
C7A H6A 1_555 1_555
C8A C1A 1_555 1_555
H7A C8A 1_555 1_555
C9A C4A 1_555 1_555
N2A C11A 1_555 1_555
C10A C2A 1_555 1_555
H8A C10A 1_555 1_555
N3A N6A 1_555 1_555
N4A C25A 1_555 1_555
C11A H9A 1_555 1_555
N5A Pd2A 1_555 1_555
C12A C4A 1_555 1_555
H10A C12A 1_555 1_555
C13A C8A 1_555 1_555
C14A C3A 1_555 1_555
H11A C14A 1_555 1_555
C15A N2A 1_555 1_555
H12A C15A 1_555 1_555
H13A C15A 1_555 1_555
C16A H14A 1_555 1_555
H15A C16A 1_555 1_555
N6A Pd2A 1_555 1_555
N7A C5A 1_555 1_555
C17A H16A 1_555 1_555
C18A H17A 1_555 1_555
C19A C16A 1_555 1_555
C20A C17A 1_555 1_555
H18A C20A 1_555 1_555
C21A C7A 1_555 1_555
H19A C21A 1_555 1_555
N8A Pd1 1_555 1_555
C22A C21A 1_555 1_555
H20A C22A 1_555 1_555
N9A N2A 1_555 1_555
N10A Pd2A 1_555 1_555
C23A C18A 1_555 1_555
H21A C23A 1_555 1_555
C24A C9A 1_555 1_555
C25A C6A 1_555 1_555
C26A N4A 1_555 1_555
H22A C26A 1_555 1_555
Pd1B N8 1_555 1_555
Pd2B N4B 1_555 1_555
N1B Pd1B 1_555 1_555
C1B N1B 1_555 1_555
H1B C1B 1_555 1_555
C2B N1B 1_555 1_555
H2B C2B 1_555 1_555
C3B H3B 1_555 1_555
C4B H4B 1_555 1_555
C5B H5B 1_555 1_555
C6B C5B 1_555 1_555
C7B H6B 1_555 1_555
C8B C1B 1_555 1_555
H7B C8B 1_555 1_555
C9B C4B 1_555 1_555
N2B C11B 1_555 1_555
C10B C2B 1_555 1_555
H8B C10B 1_555 1_555
N3B N6B 1_555 1_555
N4B C25B 1_555 1_555
C11B H9B 1_555 1_555
N5B Pd2B 1_555 1_555
C12B C4B 1_555 1_555
H10B C12B 1_555 1_555
C13B C8B 1_555 1_555
C14B C3B 1_555 1_555
H11B C14B 1_555 1_555
C15B N2B 1_555 1_555
H12B C15B 1_555 1_555
H13B C15B 1_555 1_555
C16B H14B 1_555 1_555
H15B C16B 1_555 1_555
N6B Pd2B 1_555 1_555
N7B C5B 1_555 1_555
C17B H16B 1_555 1_555
C18B H17B 1_555 1_555
C19B C16B 1_555 1_555
C20B C17B 1_555 1_555
H18B C20B 1_555 1_555
C21B C7B 1_555 1_555
H19B C21B 1_555 1_555
N8B Pd1A 1_555 1_555
C22B C21B 1_555 1_555
H20B C22B 1_555 1_555
N9B N2B 1_555 1_555
N10B Pd2B 1_555 1_555
C23B C18B 1_555 1_555
H21B C23B 1_555 1_555
C24B C9B 1_555 1_555
C25B C6B 1_555 1_555
C26B N4B 1_555 1_555
H22B C26B 1_555 1_555
Pd2C N4C 1_555 1_555
N1C Pd1 1_555 1_555
C1C N1C 1_555 1_555
H1C C1C 1_555 1_555
C2C N1C 1_555 1_555
H2C C2C 1_555 1_555
C3C H3C 1_555 1_555
C4C H4C 1_555 1_555
C5C H5C 1_555 1_555
C6C C5C 1_555 1_555
C7C H6C 1_555 1_555
C8C C1C 1_555 1_555
H7C C8C 1_555 1_555
C9C C4C 1_555 1_555
N2C C11C 1_555 1_555
C10C C2C 1_555 1_555
H8C C10C 1_555 1_555
N3C N6C 1_555 1_555
N4C C25C 1_555 1_555
C11C H9C 1_555 1_555
N5C Pd2C 1_555 1_555
C12C C4C 1_555 1_555
H10C C12C 1_555 1_555
C13C C8C 1_555 1_555
C14C C3C 1_555 1_555
H11C C14C 1_555 1_555
C15C N2C 1_555 1_555
H12C C15C 1_555 1_555
H13C C15C 1_555 1_555
C16C H14C 1_555 1_555
H15C C16C 1_555 1_555
N6C Pd2C 1_555 1_555
N7C C5C 1_555 1_555
C17C H16C 1_555 1_555
C18C H17C 1_555 1_555
C19C C16C 1_555 1_555
C20C C17C 1_555 1_555
H18C C20C 1_555 1_555
C21C C7C 1_555 1_555
H19C C21C 1_555 1_555
N8C Pd1B 1_555 1_555
C22C C21C 1_555 1_555
H20C C22C 1_555 1_555
N9C N2C 1_555 1_555
N10C Pd2C 1_555 1_555
C23C C18C 1_555 1_555
H21C C23C 1_555 1_555
C24C C9C 1_555 1_555
C25C C6C 1_555 1_555
C26C N4C 1_555 1_555
H22C C26C 1_555 1_555
Pd2D N4D 1_555 1_555
N1D Pd1A 1_555 1_555
C1D N1D 1_555 1_555
H1D C1D 1_555 1_555
C2D N1D 1_555 1_555
H2D C2D 1_555 1_555
C3D H3D 1_555 1_555
C4D H4D 1_555 1_555
C5D H5D 1_555 1_555
C6D C5D 1_555 1_555
C7D H6D 1_555 1_555
C8D C1D 1_555 1_555
H7D C8D 1_555 1_555
C9D C4D 1_555 1_555
N2D C11D 1_555 1_555
C10D C2D 1_555 1_555
H8D C10D 1_555 1_555
N3D N6D 1_555 1_555
N4D C25D 1_555 1_555
C11D H9D 1_555 1_555
N5D Pd2D 1_555 1_555
C12D C4D 1_555 1_555
H10D C12D 1_555 1_555
C13D C8D 1_555 1_555
C14D C3D 1_555 1_555
H11D C14D 1_555 1_555
C15D N2D 1_555 1_555
H12D C15D 1_555 1_555
H13D C15D 1_555 1_555
C16D H14D 1_555 1_555
H15D C16D 1_555 1_555
N6D Pd2D 1_555 1_555
N7D C5D 1_555 1_555
C17D H16D 1_555 1_555
C18D H17D 1_555 1_555
C19D C16D 1_555 1_555
C20D C17D 1_555 1_555
H18D C20D 1_555 1_555
C21D C7D 1_555 1_555
H19D C21D 1_555 1_555
N8D Pd1 1_555 1_555
C22D C21D 1_555 1_555
H20D C22D 1_555 1_555
N9D N2D 1_555 1_555
N10D Pd2D 1_555 1_555
C23D C18D 1_555 1_555
H21D C23D 1_555 1_555
C24D C9D 1_555 1_555
C25D C6D 1_555 1_555
C26D N4D 1_555 1_555
H22D C26D 1_555 1_555
Pd2E N4E 1_555 1_555
N1E Pd1B 1_555 1_555
C1E N1E 1_555 1_555
H1E C1E 1_555 1_555
C2E N1E 1_555 1_555
H2E C2E 1_555 1_555
C3E H3E 1_555 1_555
C4E H4E 1_555 1_555
C5E H5E 1_555 1_555
C6E C5E 1_555 1_555
C7E H6E 1_555 1_555
C8E C1E 1_555 1_555
H7E C8E 1_555 1_555
C9E C4E 1_555 1_555
N2E C11E 1_555 1_555
C10E C2E 1_555 1_555
H8E C10E 1_555 1_555
N3E N6E 1_555 1_555
N4E C25E 1_555 1_555
C11E H9E 1_555 1_555
N5E Pd2E 1_555 1_555
C12E C4E 1_555 1_555
H10E C12E 1_555 1_555
C13E C8E 1_555 1_555
C14E C3E 1_555 1_555
H11E C14E 1_555 1_555
C15E N2E 1_555 1_555
H12E C15E 1_555 1_555
H13E C15E 1_555 1_555
C16E H14E 1_555 1_555
H15E C16E 1_555 1_555
N6E Pd2E 1_555 1_555
N7E C5E 1_555 1_555
C17E H16E 1_555 1_555
C18E H17E 1_555 1_555
C19E C16E 1_555 1_555
C20E C17E 1_555 1_555
H18E C20E 1_555 1_555
C21E C7E 1_555 1_555
H19E C21E 1_555 1_555
N8E Pd1A 1_555 1_555
C22E C21E 1_555 1_555
H20E C22E 1_555 1_555
N9E N2E 1_555 1_555
N10E Pd2E 1_555 1_555
C23E C18E 1_555 1_555
H21E C23E 1_555 1_555
C24E C9E 1_555 1_555
C25E C6E 1_555 1_555
C26E N4E 1_555 1_555
H22E C26E 1_555 1_555
C3 N5 1_555 1_555
C6 N6 1_555 1_555
C7 C25 1_555 1_555
C9 N5 1_555 1_555
C10 C13 1_555 1_555
N3 N7 1_555 1_555
C11 C24 1_555 1_555
C12 C14 1_555 1_555
C13 C15 1_555 1_555
C16 N7 1_555 1_555
C18 C19 1_555 1_555
C19 C20 1_555 1_555
N8 C23 1_555 1_555
C22 C26 1_555 1_555
N9 N10 1_555 1_555
N10 C24 1_555 1_555
C3A N5A 1_555 1_555
C6A N6A 1_555 1_555
C7A C25A 1_555 1_555
C9A N5A 1_555 1_555
C10A C13A 1_555 1_555
N3A N7A 1_555 1_555
C11A C24A 1_555 1_555
C12A C14A 1_555 1_555
C13A C15A 1_555 1_555
C16A N7A 1_555 1_555
C17A N8A 1_555 1_555
C18A C19A 1_555 1_555
C19A C20A 1_555 1_555
N8A C23A 1_555 1_555
C22A C26A 1_555 1_555
N9A N10A 1_555 1_555
N10A C24A 1_555 1_555
C3B N5B 1_555 1_555
C6B N6B 1_555 1_555
C7B C25B 1_555 1_555
C9B N5B 1_555 1_555
C10B C13B 1_555 1_555
N3B N7B 1_555 1_555
C11B C24B 1_555 1_555
C12B C14B 1_555 1_555
C13B C15B 1_555 1_555
C16B N7B 1_555 1_555
C17B N8B 1_555 1_555
C18B C19B 1_555 1_555
C19B C20B 1_555 1_555
N8B C23B 1_555 1_555
C22B C26B 1_555 1_555
N9B N10B 1_555 1_555
N10B C24B 1_555 1_555
C3C N5C 1_555 1_555
C6C N6C 1_555 1_555
C7C C25C 1_555 1_555
C9C N5C 1_555 1_555
C10C C13C 1_555 1_555
N3C N7C 1_555 1_555
C11C C24C 1_555 1_555
C12C C14C 1_555 1_555
C13C C15C 1_555 1_555
C16C N7C 1_555 1_555
C17C N8C 1_555 1_555
C18C C19C 1_555 1_555
C19C C20C 1_555 1_555
N8C C23C 1_555 1_555
C22C C26C 1_555 1_555
N9C N10C 1_555 1_555
N10C C24C 1_555 1_555
C3D N5D 1_555 1_555
C6D N6D 1_555 1_555
C7D C25D 1_555 1_555
C9D N5D 1_555 1_555
C10D C13D 1_555 1_555
N3D N7D 1_555 1_555
C11D C24D 1_555 1_555
C12D C14D 1_555 1_555
C13D C15D 1_555 1_555
C16D N7D 1_555 1_555
C17D N8D 1_555 1_555
C18D C19D 1_555 1_555
C19D C20D 1_555 1_555
N8D C23D 1_555 1_555
C22D C26D 1_555 1_555
N9D N10D 1_555 1_555
N10D C24D 1_555 1_555
C3E N5E 1_555 1_555
C6E N6E 1_555 1_555
C7E C25E 1_555 1_555
C9E N5E 1_555 1_555
C10E C13E 1_555 1_555
N3E N7E 1_555 1_555
C11E C24E 1_555 1_555
C12E C14E 1_555 1_555
C13E C15E 1_555 1_555
C16E N7E 1_555 1_555
C17E N8E 1_555 1_555
C18E C19E 1_555 1_555
C19E C20E 1_555 1_555
N8E C23E 1_555 1_555
C22E C26E 1_555 1_555
N9E N10E 1_555 1_555
N10E C24E 1_555 1_555

#END
