
#######################################################################
#
#                 Cambridge Crystallographic Data Centre
#                                CCDC 
#
#######################################################################
#
# If this CIF has been generated from an entry in the Cambridge 
# Structural Database, then it will include bibliographic, chemical, 
# crystal, experimental, refinement or atomic coordinate data resulting 
# from the CCDC's data processing and validation procedures.
#
#######################################################################

data_IGASIV
_chemical_formula_moiety         
'C156 H132 N60 Pd3 Pt6 18+,18(B1 F4 1-),x(C2 H3 N1)'
_chemical_name_systematic        
'dodecakis(\m-2-{1-[(pyridin-4-yl)methyl]-1H-1,2,3-triazol-4-yl}pyridine)-hexa-platinum(ii)-tri-palladium(ii) octadecakis(tetrafluoroborate) acetonitrile solvate'
_symmetry_cell_setting           hexagonal
_symmetry_space_group_name_H-M   'P 63/m m c'
_symmetry_Int_Tables_number      194
_space_group_name_Hall           "-P 6c 2'c"
loop_
_symmetry_equiv_pos_site_id
_symmetry_equiv_pos_as_xyz
1 x,y,z
2 x-y,x,1/2+z
3 -y,x-y,z
4 -x,-y,1/2+z
5 -x+y,-x,z
6 y,-x+y,1/2+z
7 x-y,-y,-z
8 -x,-x+y,-z
9 y,x,-z
10 -y,-x,1/2-z
11 -x+y,y,1/2-z
12 x,x-y,1/2-z
13 -x,-y,-z
14 -x+y,-x,1/2-z
15 y,-x+y,-z
16 x,y,1/2-z
17 x-y,x,-z
18 -y,x-y,1/2-z
19 -x+y,y,z
20 x,x-y,z
21 -y,-x,z
22 y,x,1/2+z
23 x-y,-y,1/2+z
24 -x,-x+y,1/2+z
_cell_length_a                   30.9241(17)
_cell_length_b                   30.9241(17)
_cell_length_c                   24.3427(9)
_cell_angle_alpha                90
_cell_angle_beta                 90
_cell_angle_gamma                120
_cell_volume                     20160.1
_exptl_crystal_colour            yellow
_exptl_crystal_description       block
_cell_formula_units_Z            2
loop_
_atom_site_label
_atom_site_type_symbol
_atom_site_fract_x
_atom_site_fract_y
_atom_site_fract_z
Pt1 Pt 0.48388(4) 0.51612(4) 0.44185(8)
Pd1 Pd 0.16978(6) 0.33957(13) 0.2500
N1 N 0.2228(11) 0.3352(16) 0.3058(8)
C1 C 0.2121(14) 0.2871(16) 0.3247(17)
C2 C 0.2471(13) 0.2892(12) 0.3589(15)
C3 C 0.2872(13) 0.3331(14) 0.3721(14)
C4 C 0.2934(13) 0.3771(13) 0.3508(17)
C5 C 0.2553(15) 0.3741(15) 0.3142(14)
C6 C 0.3277(15) 0.3329(16) 0.4121(15)
N2 N 0.2189(11) 0.3521(14) 0.3140(12)
C7 C 0.3039(15) 0.3490(15) 0.4462(16)
C8 C 0.2840(13) 0.3920(11) 0.3681(17)
C9 C 0.1998(11) 0.3051(11) 0.3417(14)
N3 N 0.4553(6) 0.5447(6) 0.4994(13)
N4 N 0.3828(13) 0.4135(12) 0.4434(11)
N5 N 0.4163(14) 0.4610(14) 0.4563(16)
C10 C 0.5486(9) 0.4514(9) 0.3112(18)
C11 C 0.4179(9) 0.5821(9) 0.575(2)
C12 C 0.390(2) 0.5379(18) 0.5591(17)
C13 C 0.5036(15) 0.4214(19) 0.3275(16)
N6 N 0.5118(5) 0.4882(5) 0.3855(10)
C14 C 0.350(2) 0.438(3) 0.5030(18)
C15 C 0.484(2) 0.4372(16) 0.3633(17)
C16 C 0.4048(15) 0.518(2) 0.5242(15)
N7 N 0.3460(16) 0.4032(13) 0.4707(16)
C17 C 0.3895(18) 0.472(2) 0.4948(18)
N8 N 0.3842(19) 0.375(2) 0.412(3)
C18 C 0.2312(14) 0.3050(10) 0.3800(17)
C19 C 0.2504(13) 0.3906(11) 0.3265(13)
C20 C 0.273(4) 0.347(2) 0.393(5)
N9 N 0.4296(15) 0.4452(16) 0.426(2)
C21 C 0.449(3) 0.4244(19) 0.386(2)
C22 C 0.415(2) 0.381(2) 0.377(2)
N1T N 0.6648(16) 0.7772(11) 0.3058(8)
C1T C 0.7129(16) 0.7879(14) 0.3247(17)
C2T C 0.7108(12) 0.7529(13) 0.3589(15)
C3T C 0.6669(14) 0.7128(13) 0.3721(14)
C4T C 0.6229(13) 0.7066(13) 0.3508(17)
C5T C 0.6259(15) 0.7447(15) 0.3142(14)
C6T C 0.6671(16) 0.6723(15) 0.4121(15)
N2T N 0.6479(14) 0.7811(11) 0.3140(12)
C7T C 0.6510(15) 0.6961(15) 0.4462(16)
C8T C 0.6080(11) 0.7160(13) 0.3681(17)
C9T C 0.6949(11) 0.8002(11) 0.3417(14)
N4T N 0.5865(12) 0.6172(13) 0.4434(11)
N5T N 0.5390(14) 0.5837(14) 0.4563(16)
C12T C 0.4621(18) 0.610(2) 0.5591(17)
C13T C 0.5786(19) 0.4964(15) 0.3275(16)
C14T C 0.562(3) 0.650(2) 0.5030(18)
C15T C 0.5628(16) 0.516(2) 0.3633(17)
C16T C 0.482(2) 0.5952(15) 0.5242(15)
N7T N 0.5968(13) 0.6540(16) 0.4707(16)
C17T C 0.528(2) 0.6105(18) 0.4948(18)
N8T N 0.625(2) 0.6158(19) 0.412(3)
C18T C 0.6950(10) 0.7688(14) 0.3800(17)
C19T C 0.6094(11) 0.7496(13) 0.3265(13)
C20T C 0.653(2) 0.727(4) 0.393(5)
N9T N 0.5548(16) 0.5704(15) 0.426(2)
C21T C 0.5756(19) 0.551(3) 0.386(2)
C22T C 0.619(2) 0.585(2) 0.377(2)
Pt1B Pt 0.48388(4) 0.96776(6) 0.44185(8)
Pd1B Pd 0.66043(13) 0.83021(14) 0.2500
N1B N 0.6648(16) 0.8876(19) 0.3058(8)
C1B C 0.7129(16) 0.9250(21) 0.3247(17)
C2B C 0.7108(12) 0.9579(18) 0.3589(15)
C3B C 0.6669(14) 0.9541(19) 0.3721(14)
C4B C 0.6229(13) 0.9163(18) 0.3508(17)
C5B C 0.6259(15) 0.8812(21) 0.3142(14)
C6B C 0.6671(16) 0.9948(22) 0.4121(15)
N2B N 0.6479(14) 0.8668(18) 0.3140(12)
C7B C 0.6510(15) 0.9549(21) 0.4462(16)
C8B C 0.6080(11) 0.8920(17) 0.3681(17)
C9B C 0.6949(11) 0.8947(16) 0.3417(14)
N3B N 0.4553(6) 0.9106(8) 0.4994(13)
N4B N 0.5865(12) 0.9693(18) 0.4434(11)
N5B N 0.5390(14) 0.9553(20) 0.4563(16)
C10B C 0.5486(9) 1.0972(13) 0.3112(18)
C11B C 0.4179(9) 0.8358(13) 0.575(2)
C12B C 0.4621(18) 0.8521(27) 0.5591(17)
C13B C 0.5786(19) 1.0822(24) 0.3275(16)
N6B N 0.5118(5) 1.0236(7) 0.3855(10)
C14B C 0.562(3) 0.912(4) 0.5030(18)
C15B C 0.5628(16) 1.0468(26) 0.3633(17)
C16B C 0.482(2) 0.8868(25) 0.5242(15)
N7B N 0.5968(13) 0.9428(21) 0.4707(16)
C17B C 0.528(2) 0.9175(27) 0.4948(18)
N8B N 0.625(2) 1.0092(28) 0.412(3)
C18B C 0.6950(10) 0.9262(17) 0.3800(17)
C19B C 0.6094(11) 0.8598(17) 0.3265(13)
C20B C 0.653(2) 0.926(4) 0.393(5)
N9B N 0.5548(16) 0.9844(22) 0.426(2)
C21B C 0.5756(19) 1.0246(36) 0.386(2)
C22B C 0.619(2) 1.034(3) 0.377(2)
N1S N 0.2228(11) 0.8876(19) 0.3058(8)
C1S C 0.2121(14) 0.9250(21) 0.3247(17)
C2S C 0.2471(13) 0.9579(18) 0.3589(15)
C3S C 0.2872(13) 0.9541(19) 0.3721(14)
C4S C 0.2934(13) 0.9163(18) 0.3508(17)
C5S C 0.2553(15) 0.8812(21) 0.3142(14)
C6S C 0.3277(15) 0.9948(22) 0.4121(15)
N2S N 0.2189(11) 0.8668(18) 0.3140(12)
C7S C 0.3039(15) 0.9549(21) 0.4462(16)
C8S C 0.2840(13) 0.8920(17) 0.3681(17)
C9S C 0.1998(11) 0.8947(16) 0.3417(14)
N4S N 0.3828(13) 0.9693(18) 0.4434(11)
N5S N 0.4163(14) 0.9553(20) 0.4563(16)
C12S C 0.390(2) 0.8521(27) 0.5591(17)
C13S C 0.5036(15) 1.0822(24) 0.3275(16)
C14S C 0.350(2) 0.912(4) 0.5030(18)
C15S C 0.484(2) 1.0468(26) 0.3633(17)
C16S C 0.4048(15) 0.8868(25) 0.5242(15)
N7S N 0.3460(16) 0.9428(21) 0.4707(16)
C17S C 0.3895(18) 0.9175(27) 0.4948(18)
N8S N 0.3842(19) 1.0092(28) 0.412(3)
C18S C 0.2312(14) 0.9262(17) 0.3800(17)
C19S C 0.2504(13) 0.8598(17) 0.3265(13)
C20S C 0.273(4) 0.926(4) 0.393(5)
N9S N 0.4296(15) 0.9844(22) 0.426(2)
C21S C 0.449(3) 1.0246(36) 0.386(2)
C22S C 0.415(2) 1.034(3) 0.377(2)
Pt1D Pt 0.03224(6) 0.51612(4) 0.44185(8)
Pd1D Pd 0.16979(14) 0.83022(6) 0.2500
N1D N 0.1124(19) 0.7772(11) 0.3058(8)
C1D C 0.0750(21) 0.7879(14) 0.3247(17)
C2D C 0.0421(18) 0.7529(13) 0.3589(15)
C3D C 0.0459(19) 0.7128(13) 0.3721(14)
C4D C 0.0837(18) 0.7066(13) 0.3508(17)
C5D C 0.1188(21) 0.7447(15) 0.3142(14)
C6D C 0.0052(22) 0.6723(15) 0.4121(15)
N2D N 0.1332(18) 0.7811(11) 0.3140(12)
C7D C 0.0451(21) 0.6961(15) 0.4462(16)
C8D C 0.1080(17) 0.7160(13) 0.3681(17)
C9D C 0.1053(16) 0.8002(11) 0.3417(14)
N3D N 0.0894(8) 0.5447(6) 0.4994(13)
N4D N 0.0307(18) 0.6172(13) 0.4434(11)
N5D N 0.0447(20) 0.5837(14) 0.4563(16)
C10D C -0.0972(13) 0.4514(9) 0.3112(18)
C11D C 0.1642(13) 0.5821(9) 0.575(2)
C12D C 0.1479(27) 0.610(2) 0.5591(17)
C13D C -0.0822(24) 0.4964(15) 0.3275(16)
N6D N -0.0236(7) 0.4882(5) 0.3855(10)
C14D C 0.088(4) 0.650(2) 0.5030(18)
C15D C -0.0468(26) 0.516(2) 0.3633(17)
C16D C 0.1132(25) 0.5952(15) 0.5242(15)
N7D N 0.0572(21) 0.6540(16) 0.4707(16)
C17D C 0.0825(27) 0.6105(18) 0.4948(18)
N8D N -0.0092(28) 0.6158(19) 0.412(3)
C18D C 0.0738(17) 0.7688(14) 0.3800(17)
C19D C 0.1402(17) 0.7496(13) 0.3265(13)
C20D C 0.074(4) 0.727(4) 0.393(5)
N9D N 0.0156(22) 0.5704(15) 0.426(2)
C21D C -0.0246(36) 0.551(3) 0.386(2)
C22D C -0.034(3) 0.585(2) 0.377(2)
N1R N 0.1124(19) 0.3352(16) 0.3058(8)
C1R C 0.0750(21) 0.2871(16) 0.3247(17)
C2R C 0.0421(18) 0.2892(12) 0.3589(15)
C3R C 0.0459(19) 0.3331(14) 0.3721(14)
C4R C 0.0837(18) 0.3771(13) 0.3508(17)
C5R C 0.1188(21) 0.3741(15) 0.3142(14)
C6R C 0.0052(22) 0.3329(16) 0.4121(15)
N2R N 0.1332(18) 0.3521(14) 0.3140(12)
C7R C 0.0451(21) 0.3490(15) 0.4462(16)
C8R C 0.1080(17) 0.3920(11) 0.3681(17)
C9R C 0.1053(16) 0.3051(11) 0.3417(14)
N4R N 0.0307(18) 0.4135(12) 0.4434(11)
N5R N 0.0447(20) 0.4610(14) 0.4563(16)
C12R C 0.1479(27) 0.5379(18) 0.5591(17)
C13R C -0.0822(24) 0.4214(19) 0.3275(16)
C14R C 0.088(4) 0.438(3) 0.5030(18)
C15R C -0.0468(26) 0.4372(16) 0.3633(17)
C16R C 0.1132(25) 0.518(2) 0.5242(15)
N7R N 0.0572(21) 0.4032(13) 0.4707(16)
C17R C 0.0825(27) 0.472(2) 0.4948(18)
N8R N -0.0092(28) 0.375(2) 0.412(3)
C18R C 0.0738(17) 0.3050(10) 0.3800(17)
C19R C 0.1402(17) 0.3906(11) 0.3265(13)
C20R C 0.074(4) 0.347(2) 0.393(5)
N9R N 0.0156(22) 0.4452(16) 0.426(2)
C21R C -0.0246(36) 0.4244(19) 0.386(2)
C22R C -0.034(3) 0.381(2) 0.377(2)
Pt1I Pt 0.48388(4) 0.51612(4) 0.05815(8)
N1I N 0.6648(16) 0.7772(11) 0.1942(8)
C1I C 0.7129(16) 0.7879(14) 0.1753(17)
C2I C 0.7108(12) 0.7529(13) 0.1411(15)
C3I C 0.6669(14) 0.7128(13) 0.1279(14)
C4I C 0.6229(13) 0.7066(13) 0.1492(17)
C5I C 0.6259(15) 0.7447(15) 0.1858(14)
C6I C 0.6671(16) 0.6723(15) 0.0879(15)
N2I N 0.6479(14) 0.7811(11) 0.1860(12)
C7I C 0.6510(15) 0.6961(15) 0.0538(16)
C8I C 0.6080(11) 0.7160(13) 0.1319(17)
C9I C 0.6949(11) 0.8002(11) 0.1583(14)
N3I N 0.4553(6) 0.5447(6) 0.0006(13)
N4I N 0.5865(12) 0.6172(13) 0.0566(11)
N5I N 0.5390(14) 0.5837(14) 0.0437(16)
C10I C 0.5486(9) 0.4514(9) 0.1888(18)
C11I C 0.4179(9) 0.5821(9) -0.075(2)
C12I C 0.4621(18) 0.610(2) -0.0591(17)
C13I C 0.5786(19) 0.4964(15) 0.1725(16)
N6I N 0.5118(5) 0.4882(5) 0.1145(10)
C14I C 0.562(3) 0.650(2) -0.0030(18)
C15I C 0.5628(16) 0.516(2) 0.1367(17)
C16I C 0.482(2) 0.5952(15) -0.0242(15)
N7I N 0.5968(13) 0.6540(16) 0.0293(16)
C17I C 0.528(2) 0.6105(18) 0.0052(18)
N8I N 0.625(2) 0.6158(19) 0.088(3)
C18I C 0.6950(10) 0.7688(14) 0.1200(17)
C19I C 0.6094(11) 0.7496(13) 0.1735(13)
C20I C 0.653(2) 0.727(4) 0.107(5)
N9I N 0.5548(16) 0.5704(15) 0.074(2)
C21I C 0.5756(19) 0.551(3) 0.114(2)
C22I C 0.619(2) 0.585(2) 0.123(2)
N1O N 0.2228(11) 0.3352(16) 0.1942(8)
C1O C 0.2121(14) 0.2871(16) 0.1753(17)
C2O C 0.2471(13) 0.2892(12) 0.1411(15)
C3O C 0.2872(13) 0.3331(14) 0.1279(14)
C4O C 0.2934(13) 0.3771(13) 0.1492(17)
C5O C 0.2553(15) 0.3741(15) 0.1858(14)
C6O C 0.3277(15) 0.3329(16) 0.0879(15)
N2O N 0.2189(11) 0.3521(14) 0.1860(12)
C7O C 0.3039(15) 0.3490(15) 0.0538(16)
C8O C 0.2840(13) 0.3920(11) 0.1319(17)
C9O C 0.1998(11) 0.3051(11) 0.1583(14)
N4O N 0.3828(13) 0.4135(12) 0.0566(11)
N5O N 0.4163(14) 0.4610(14) 0.0437(16)
C12O C 0.390(2) 0.5379(18) -0.0591(17)
C13O C 0.5036(15) 0.4214(19) 0.1725(16)
C14O C 0.350(2) 0.438(3) -0.0030(18)
C15O C 0.484(2) 0.4372(16) 0.1367(17)
C16O C 0.4048(15) 0.518(2) -0.0242(15)
N7O N 0.3460(16) 0.4032(13) 0.0293(16)
C17O C 0.3895(18) 0.472(2) 0.0052(18)
N8O N 0.3842(19) 0.375(2) 0.088(3)
C18O C 0.2312(14) 0.3050(10) 0.1200(17)
C19O C 0.2504(13) 0.3906(11) 0.1735(13)
C20O C 0.273(4) 0.347(2) 0.107(5)
N9O N 0.4296(15) 0.4452(16) 0.074(2)
C21O C 0.449(3) 0.4244(19) 0.114(2)
C22O C 0.415(2) 0.381(2) 0.123(2)
Pt1J Pt 0.03224(6) 0.51612(4) 0.05815(8)
N1J N 0.1124(19) 0.3352(16) 0.1942(8)
C1J C 0.0750(21) 0.2871(16) 0.1753(17)
C2J C 0.0421(18) 0.2892(12) 0.1411(15)
C3J C 0.0459(19) 0.3331(14) 0.1279(14)
C4J C 0.0837(18) 0.3771(13) 0.1492(17)
C5J C 0.1188(21) 0.3741(15) 0.1858(14)
C6J C 0.0052(22) 0.3329(16) 0.0879(15)
N2J N 0.1332(18) 0.3521(14) 0.1860(12)
C7J C 0.0451(21) 0.3490(15) 0.0538(16)
C8J C 0.1080(17) 0.3920(11) 0.1319(17)
C9J C 0.1053(16) 0.3051(11) 0.1583(14)
N3J N 0.0894(8) 0.5447(6) 0.0006(13)
N4J N 0.0307(18) 0.4135(12) 0.0566(11)
N5J N 0.0447(20) 0.4610(14) 0.0437(16)
C10J C -0.0972(13) 0.4514(9) 0.1888(18)
C11J C 0.1642(13) 0.5821(9) -0.075(2)
C12J C 0.1479(27) 0.5379(18) -0.0591(17)
C13J C -0.0822(24) 0.4214(19) 0.1725(16)
N6J N -0.0236(7) 0.4882(5) 0.1145(10)
C14J C 0.088(4) 0.438(3) -0.0030(18)
C15J C -0.0468(26) 0.4372(16) 0.1367(17)
C16J C 0.1132(25) 0.518(2) -0.0242(15)
N7J N 0.0572(21) 0.4032(13) 0.0293(16)
C17J C 0.0825(27) 0.472(2) 0.0052(18)
N8J N -0.0092(28) 0.375(2) 0.088(3)
C18J C 0.0738(17) 0.3050(10) 0.1200(17)
C19J C 0.1402(17) 0.3906(11) 0.1735(13)
C20J C 0.074(4) 0.347(2) 0.107(5)
N9J N 0.0156(22) 0.4452(16) 0.074(2)
C21J C -0.0246(36) 0.4244(19) 0.114(2)
C22J C -0.034(3) 0.381(2) 0.123(2)
N1M N 0.1124(19) 0.7772(11) 0.1942(8)
C1M C 0.0750(21) 0.7879(14) 0.1753(17)
C2M C 0.0421(18) 0.7529(13) 0.1411(15)
C3M C 0.0459(19) 0.7128(13) 0.1279(14)
C4M C 0.0837(18) 0.7066(13) 0.1492(17)
C5M C 0.1188(21) 0.7447(15) 0.1858(14)
C6M C 0.0052(22) 0.6723(15) 0.0879(15)
N2M N 0.1332(18) 0.7811(11) 0.1860(12)
C7M C 0.0451(21) 0.6961(15) 0.0538(16)
C8M C 0.1080(17) 0.7160(13) 0.1319(17)
C9M C 0.1053(16) 0.8002(11) 0.1583(14)
N4M N 0.0307(18) 0.6172(13) 0.0566(11)
N5M N 0.0447(20) 0.5837(14) 0.0437(16)
C12M C 0.1479(27) 0.610(2) -0.0591(17)
C13M C -0.0822(24) 0.4964(15) 0.1725(16)
C14M C 0.088(4) 0.650(2) -0.0030(18)
C15M C -0.0468(26) 0.516(2) 0.1367(17)
C16M C 0.1132(25) 0.5952(15) -0.0242(15)
N7M N 0.0572(21) 0.6540(16) 0.0293(16)
C17M C 0.0825(27) 0.6105(18) 0.0052(18)
N8M N -0.0092(28) 0.6158(19) 0.088(3)
C18M C 0.0738(17) 0.7688(14) 0.1200(17)
C19M C 0.1402(17) 0.7496(13) 0.1735(13)
C20M C 0.074(4) 0.727(4) 0.107(5)
N9M N 0.0156(22) 0.5704(15) 0.074(2)
C21M C -0.0246(36) 0.551(3) 0.114(2)
C22M C -0.034(3) 0.585(2) 0.123(2)
Pt1K Pt 0.48388(4) 0.96776(6) 0.05815(8)
N1K N 0.2228(11) 0.8876(19) 0.1942(8)
C1K C 0.2121(14) 0.9250(21) 0.1753(17)
C2K C 0.2471(13) 0.9579(18) 0.1411(15)
C3K C 0.2872(13) 0.9541(19) 0.1279(14)
C4K C 0.2934(13) 0.9163(18) 0.1492(17)
C5K C 0.2553(15) 0.8812(21) 0.1858(14)
C6K C 0.3277(15) 0.9948(22) 0.0879(15)
N2K N 0.2189(11) 0.8668(18) 0.1860(12)
C7K C 0.3039(15) 0.9549(21) 0.0538(16)
C8K C 0.2840(13) 0.8920(17) 0.1319(17)
C9K C 0.1998(11) 0.8947(16) 0.1583(14)
N3K N 0.4553(6) 0.9106(8) 0.0006(13)
N4K N 0.3828(13) 0.9693(18) 0.0566(11)
N5K N 0.4163(14) 0.9553(20) 0.0437(16)
C10K C 0.5486(9) 1.0972(13) 0.1888(18)
C11K C 0.4179(9) 0.8358(13) -0.075(2)
C12K C 0.390(2) 0.8521(27) -0.0591(17)
C13K C 0.5036(15) 1.0822(24) 0.1725(16)
N6K N 0.5118(5) 1.0236(7) 0.1145(10)
C14K C 0.350(2) 0.912(4) -0.0030(18)
C15K C 0.484(2) 1.0468(26) 0.1367(17)
C16K C 0.4048(15) 0.8868(25) -0.0242(15)
N7K N 0.3460(16) 0.9428(21) 0.0293(16)
C17K C 0.3895(18) 0.9175(27) 0.0052(18)
N8K N 0.3842(19) 1.0092(28) 0.088(3)
C18K C 0.2312(14) 0.9262(17) 0.1200(17)
C19K C 0.2504(13) 0.8598(17) 0.1735(13)
C20K C 0.273(4) 0.926(4) 0.107(5)
N9K N 0.4296(15) 0.9844(22) 0.074(2)
C21K C 0.449(3) 1.0246(36) 0.114(2)
C22K C 0.415(2) 1.034(3) 0.123(2)
N1Q N 0.6648(16) 0.8876(19) 0.1942(8)
C1Q C 0.7129(16) 0.9250(21) 0.1753(17)
C2Q C 0.7108(12) 0.9579(18) 0.1411(15)
C3Q C 0.6669(14) 0.9541(19) 0.1279(14)
C4Q C 0.6229(13) 0.9163(18) 0.1492(17)
C5Q C 0.6259(15) 0.8812(21) 0.1858(14)
C6Q C 0.6671(16) 0.9948(22) 0.0879(15)
N2Q N 0.6479(14) 0.8668(18) 0.1860(12)
C7Q C 0.6510(15) 0.9549(21) 0.0538(16)
C8Q C 0.6080(11) 0.8920(17) 0.1319(17)
C9Q C 0.6949(11) 0.8947(16) 0.1583(14)
N4Q N 0.5865(12) 0.9693(18) 0.0566(11)
N5Q N 0.5390(14) 0.9553(20) 0.0437(16)
C12Q C 0.4621(18) 0.8521(27) -0.0591(17)
C13Q C 0.5786(19) 1.0822(24) 0.1725(16)
C14Q C 0.562(3) 0.912(4) -0.0030(18)
C15Q C 0.5628(16) 1.0468(26) 0.1367(17)
C16Q C 0.482(2) 0.8868(25) -0.0242(15)
N7Q N 0.5968(13) 0.9428(21) 0.0293(16)
C17Q C 0.528(2) 0.9175(27) 0.0052(18)
N8Q N 0.625(2) 1.0092(28) 0.088(3)
C18Q C 0.6950(10) 0.9262(17) 0.1200(17)
C19Q C 0.6094(11) 0.8598(17) 0.1735(13)
C20Q C 0.653(2) 0.926(4) 0.107(5)
N9Q N 0.5548(16) 0.9844(22) 0.074(2)
C21Q C 0.5756(19) 1.0246(36) 0.114(2)
C22Q C 0.619(2) 1.034(3) 0.123(2)
loop_
_geom_bond_atom_site_label_1
_geom_bond_atom_site_label_2
_geom_bond_site_symmetry_1
_geom_bond_site_symmetry_2
Pt1 N3 1_555 1_555
Pd1 N1 1_555 1_555
N1 C1 1_555 1_555
C1 C2 1_555 1_555
C2 C3 1_555 1_555
C3 C4 1_555 1_555
C4 C5 1_555 1_555
C5 N1 1_555 1_555
C6 C3 1_555 1_555
N2 Pd1 1_555 1_555
C7 C6 1_555 1_555
C8 C4 1_555 1_555
C9 N1 1_555 1_555
N3 C16 1_555 1_555
N4 N5 1_555 1_555
N5 Pt1 1_555 1_555
C10 C13 1_555 1_555
C11 C12 1_555 1_555
C12 C16 1_555 1_555
C13 C15 1_555 1_555
N6 Pt1 1_555 1_555
C14 N7 1_555 1_555
C15 N6 1_555 1_555
C16 C17 1_555 1_555
N7 C7 1_555 1_555
C17 N5 1_555 1_555
N8 C6 1_555 1_555
C18 C1 1_555 1_555
C19 C5 1_555 1_555
C20 C3 1_555 1_555
N9 Pt1 1_555 1_555
C21 C15 1_555 1_555
C22 N8 1_555 1_555
N1T C1T 1_555 1_555
C1T C2T 1_555 1_555
C2T C3T 1_555 1_555
C3T C4T 1_555 1_555
C4T C5T 1_555 1_555
C5T N1T 1_555 1_555
C6T C3T 1_555 1_555
N2T N1T 1_555 1_555
C7T C6T 1_555 1_555
C8T C4T 1_555 1_555
C9T N1T 1_555 1_555
N4T N5T 1_555 1_555
N5T Pt1 1_555 1_555
C12T C11 1_555 1_555
C13T C10 1_555 1_555
C14T N7T 1_555 1_555
C15T N6 1_555 1_555
C16T N3 1_555 1_555
N7T C7T 1_555 1_555
C17T N5T 1_555 1_555
N8T C6T 1_555 1_555
C18T C1T 1_555 1_555
C19T C5T 1_555 1_555
C20T C3T 1_555 1_555
N9T Pt1 1_555 1_555
C21T C15T 1_555 1_555
C22T N8T 1_555 1_555
Pt1B N3B 1_555 1_555
Pd1B N1T 1_555 1_555
N1B Pd1B 1_555 1_555
C1B N1B 1_555 1_555
C2B C1B 1_555 1_555
C3B C2B 1_555 1_555
C4B C3B 1_555 1_555
C5B N1B 1_555 1_555
C6B C3B 1_555 1_555
N2B Pd1B 1_555 1_555
C7B C6B 1_555 1_555
C8B C4B 1_555 1_555
C9B N1B 1_555 1_555
N3B C16B 1_555 1_555
N4B N5B 1_555 1_555
N5B Pt1B 1_555 1_555
C10B C13B 1_555 1_555
C11B C12B 1_555 1_555
C12B C16B 1_555 1_555
C13B C15B 1_555 1_555
N6B Pt1B 1_555 1_555
C14B N7B 1_555 1_555
C15B N6B 1_555 1_555
C16B C17B 1_555 1_555
N7B C7B 1_555 1_555
C17B N5B 1_555 1_555
N8B C6B 1_555 1_555
C18B C1B 1_555 1_555
C19B C5B 1_555 1_555
C20B C3B 1_555 1_555
N9B Pt1B 1_555 1_555
C21B C15B 1_555 1_555
C22B N8B 1_555 1_555
N1S C1S 1_555 1_555
C1S C2S 1_555 1_555
C2S C3S 1_555 1_555
C3S C4S 1_555 1_555
C4S C5S 1_555 1_555
C5S N1S 1_555 1_555
C6S C3S 1_555 1_555
N2S N1S 1_555 1_555
C7S C6S 1_555 1_555
C8S C4S 1_555 1_555
C9S N1S 1_555 1_555
N4S N5S 1_555 1_555
N5S Pt1B 1_555 1_555
C12S C11B 1_555 1_555
C13S C10B 1_555 1_555
C14S N7S 1_555 1_555
C15S N6B 1_555 1_555
C16S N3B 1_555 1_555
N7S C7S 1_555 1_555
C17S N5S 1_555 1_555
N8S C6S 1_555 1_555
C18S C1S 1_555 1_555
C19S C5S 1_555 1_555
C20S C3S 1_555 1_555
N9S Pt1B 1_555 1_555
C21S C15S 1_555 1_555
C22S N8S 1_555 1_555
Pt1D N3D 1_555 1_555
Pd1D N1S 1_555 1_555
N1D Pd1D 1_555 1_555
C1D N1D 1_555 1_555
C2D C1D 1_555 1_555
C3D C2D 1_555 1_555
C4D C3D 1_555 1_555
C5D N1D 1_555 1_555
C6D C3D 1_555 1_555
N2D Pd1D 1_555 1_555
C7D C6D 1_555 1_555
C8D C4D 1_555 1_555
C9D N1D 1_555 1_555
N3D C16D 1_555 1_555
N4D N5D 1_555 1_555
N5D Pt1D 1_555 1_555
C10D C13D 1_555 1_555
C11D C12D 1_555 1_555
C12D C16D 1_555 1_555
C13D C15D 1_555 1_555
N6D Pt1D 1_555 1_555
C14D N7D 1_555 1_555
C15D N6D 1_555 1_555
C16D C17D 1_555 1_555
N7D C7D 1_555 1_555
C17D N5D 1_555 1_555
N8D C6D 1_555 1_555
C18D C1D 1_555 1_555
C19D C5D 1_555 1_555
C20D C3D 1_555 1_555
N9D Pt1D 1_555 1_555
C21D C15D 1_555 1_555
C22D N8D 1_555 1_555
N1R Pd1 1_555 1_555
C1R N1R 1_555 1_555
C2R C1R 1_555 1_555
C3R C2R 1_555 1_555
C4R C3R 1_555 1_555
C5R N1R 1_555 1_555
C6R C3R 1_555 1_555
N2R Pd1 1_555 1_555
C7R C6R 1_555 1_555
C8R C4R 1_555 1_555
C9R N1R 1_555 1_555
N4R N5R 1_555 1_555
N5R Pt1D 1_555 1_555
C12R C11D 1_555 1_555
C13R C10D 1_555 1_555
C14R N7R 1_555 1_555
C15R N6D 1_555 1_555
C16R N3D 1_555 1_555
N7R C7R 1_555 1_555
C17R N5R 1_555 1_555
N8R C6R 1_555 1_555
C18R C1R 1_555 1_555
C19R C5R 1_555 1_555
C20R C3R 1_555 1_555
N9R Pt1D 1_555 1_555
C21R C15R 1_555 1_555
C22R N8R 1_555 1_555
Pt1I N3I 1_555 1_555
N1I Pd1B 1_555 1_555
C1I N1I 1_555 1_555
C2I C1I 1_555 1_555
C3I C2I 1_555 1_555
C4I C3I 1_555 1_555
C5I N1I 1_555 1_555
C6I C3I 1_555 1_555
N2I Pd1B 1_555 1_555
C7I C6I 1_555 1_555
C8I C4I 1_555 1_555
C9I N1I 1_555 1_555
N3I C16I 1_555 1_555
N4I N5I 1_555 1_555
N5I Pt1I 1_555 1_555
C10I C13I 1_555 1_555
C11I C12I 1_555 1_555
C12I C16I 1_555 1_555
C13I C15I 1_555 1_555
N6I Pt1I 1_555 1_555
C14I N7I 1_555 1_555
C15I N6I 1_555 1_555
C16I C17I 1_555 1_555
N7I C7I 1_555 1_555
C17I N5I 1_555 1_555
N8I C6I 1_555 1_555
C18I C1I 1_555 1_555
C19I C5I 1_555 1_555
C20I C3I 1_555 1_555
N9I Pt1I 1_555 1_555
C21I C15I 1_555 1_555
C22I N8I 1_555 1_555
N1O Pd1 1_555 1_555
C1O N1O 1_555 1_555
C2O C1O 1_555 1_555
C3O C2O 1_555 1_555
C4O C3O 1_555 1_555
C5O N1O 1_555 1_555
C6O C3O 1_555 1_555
N2O Pd1 1_555 1_555
C7O C6O 1_555 1_555
C8O C4O 1_555 1_555
C9O N1O 1_555 1_555
N4O N5O 1_555 1_555
N5O Pt1I 1_555 1_555
C12O C11I 1_555 1_555
C13O C10I 1_555 1_555
C14O N7O 1_555 1_555
C15O N6I 1_555 1_555
C16O N3I 1_555 1_555
N7O C7O 1_555 1_555
C17O N5O 1_555 1_555
N8O C6O 1_555 1_555
C18O C1O 1_555 1_555
C19O C5O 1_555 1_555
C20O C3O 1_555 1_555
N9O Pt1I 1_555 1_555
C21O C15O 1_555 1_555
C22O N8O 1_555 1_555
Pt1J N3J 1_555 1_555
N1J Pd1 1_555 1_555
C1J N1J 1_555 1_555
C2J C1J 1_555 1_555
C3J C2J 1_555 1_555
C4J C3J 1_555 1_555
C5J N1J 1_555 1_555
C6J C3J 1_555 1_555
N2J Pd1 1_555 1_555
C7J C6J 1_555 1_555
C8J C4J 1_555 1_555
C9J N1J 1_555 1_555
N3J C16J 1_555 1_555
N4J N5J 1_555 1_555
N5J Pt1J 1_555 1_555
C10J C13J 1_555 1_555
C11J C12J 1_555 1_555
C12J C16J 1_555 1_555
C13J C15J 1_555 1_555
N6J Pt1J 1_555 1_555
C14J N7J 1_555 1_555
C15J N6J 1_555 1_555
C16J C17J 1_555 1_555
N7J C7J 1_555 1_555
C17J N5J 1_555 1_555
N8J C6J 1_555 1_555
C18J C1J 1_555 1_555
C19J C5J 1_555 1_555
C20J C3J 1_555 1_555
N9J Pt1J 1_555 1_555
C21J C15J 1_555 1_555
C22J N8J 1_555 1_555
N1M Pd1D 1_555 1_555
C1M N1M 1_555 1_555
C2M C1M 1_555 1_555
C3M C2M 1_555 1_555
C4M C3M 1_555 1_555
C5M N1M 1_555 1_555
C6M C3M 1_555 1_555
N2M Pd1D 1_555 1_555
C7M C6M 1_555 1_555
C8M C4M 1_555 1_555
C9M N1M 1_555 1_555
N4M N5M 1_555 1_555
N5M Pt1J 1_555 1_555
C12M C11J 1_555 1_555
C13M C10J 1_555 1_555
C14M N7M 1_555 1_555
C15M N6J 1_555 1_555
C16M N3J 1_555 1_555
N7M C7M 1_555 1_555
C17M N5M 1_555 1_555
N8M C6M 1_555 1_555
C18M C1M 1_555 1_555
C19M C5M 1_555 1_555
C20M C3M 1_555 1_555
N9M Pt1J 1_555 1_555
C21M C15M 1_555 1_555
C22M N8M 1_555 1_555
Pt1K N3K 1_555 1_555
N1K Pd1D 1_555 1_555
C1K N1K 1_555 1_555
C2K C1K 1_555 1_555
C3K C2K 1_555 1_555
C4K C3K 1_555 1_555
C5K N1K 1_555 1_555
C6K C3K 1_555 1_555
N2K Pd1D 1_555 1_555
C7K C6K 1_555 1_555
C8K C4K 1_555 1_555
C9K N1K 1_555 1_555
N3K C16K 1_555 1_555
N4K N5K 1_555 1_555
N5K Pt1K 1_555 1_555
C10K C13K 1_555 1_555
C11K C12K 1_555 1_555
C12K C16K 1_555 1_555
C13K C15K 1_555 1_555
N6K Pt1K 1_555 1_555
C14K N7K 1_555 1_555
C15K N6K 1_555 1_555
C16K C17K 1_555 1_555
N7K C7K 1_555 1_555
C17K N5K 1_555 1_555
N8K C6K 1_555 1_555
C18K C1K 1_555 1_555
C19K C5K 1_555 1_555
C20K C3K 1_555 1_555
N9K Pt1K 1_555 1_555
C21K C15K 1_555 1_555
C22K N8K 1_555 1_555
N1Q Pd1B 1_555 1_555
C1Q N1Q 1_555 1_555
C2Q C1Q 1_555 1_555
C3Q C2Q 1_555 1_555
C4Q C3Q 1_555 1_555
C5Q N1Q 1_555 1_555
C6Q C3Q 1_555 1_555
N2Q Pd1B 1_555 1_555
C7Q C6Q 1_555 1_555
C8Q C4Q 1_555 1_555
C9Q N1Q 1_555 1_555
N4Q N5Q 1_555 1_555
N5Q Pt1K 1_555 1_555
C12Q C11K 1_555 1_555
C13Q C10K 1_555 1_555
C14Q N7Q 1_555 1_555
C15Q N6K 1_555 1_555
C16Q N3K 1_555 1_555
N7Q C7Q 1_555 1_555
C17Q N5Q 1_555 1_555
N8Q C6Q 1_555 1_555
C18Q C1Q 1_555 1_555
C19Q C5Q 1_555 1_555
C20Q C3Q 1_555 1_555
N9Q Pt1K 1_555 1_555
C21Q C15Q 1_555 1_555
C22Q N8Q 1_555 1_555
N1 N2 1_555 1_555
C1 C9 1_555 1_555
C2 C18 1_555 1_555
C4 C20 1_555 1_555
C5 N2 1_555 1_555
N2 C9 1_555 1_555
N2 C19 1_555 1_555
C7 C20 1_555 1_555
C8 C19 1_555 1_555
C8 C20 1_555 1_555
C9 C18 1_555 1_555
N4 N7 1_555 1_555
N4 N8 1_555 1_555
N4 N9 1_555 1_555
N5 N9 1_555 1_555
C14 C17 1_555 1_555
C18 C20 1_555 1_555
N9 C21 1_555 1_555
C21 C22 1_555 1_555
C1T C9T 1_555 1_555
C2T C18T 1_555 1_555
C4T C20T 1_555 1_555
C5T N2T 1_555 1_555
N2T C9T 1_555 1_555
N2T C19T 1_555 1_555
N2T Pd1B 1_555 1_555
C7T C20T 1_555 1_555
C8T C19T 1_555 1_555
C8T C20T 1_555 1_555
C9T C18T 1_555 1_555
N4T N7T 1_555 1_555
N4T N8T 1_555 1_555
N4T N9T 1_555 1_555
N5T N9T 1_555 1_555
C12T C16T 1_555 1_555
C13T C15T 1_555 1_555
C14T C17T 1_555 1_555
C16T C17T 1_555 1_555
C18T C20T 1_555 1_555
N9T C21T 1_555 1_555
C21T C22T 1_555 1_555
N1B N2B 1_555 1_555
C1B C9B 1_555 1_555
C2B C18B 1_555 1_555
C4B C5B 1_555 1_555
C4B C20B 1_555 1_555
C5B N2B 1_555 1_555
N2B C9B 1_555 1_555
N2B C19B 1_555 1_555
C7B C20B 1_555 1_555
C8B C19B 1_555 1_555
C8B C20B 1_555 1_555
C9B C18B 1_555 1_555
N4B N7B 1_555 1_555
N4B N8B 1_555 1_555
N4B N9B 1_555 1_555
N5B N9B 1_555 1_555
C14B C17B 1_555 1_555
C18B C20B 1_555 1_555
N9B C21B 1_555 1_555
C21B C22B 1_555 1_555
C1S C9S 1_555 1_555
C2S C18S 1_555 1_555
C4S C20S 1_555 1_555
C5S N2S 1_555 1_555
N2S C9S 1_555 1_555
N2S C19S 1_555 1_555
N2S Pd1D 1_555 1_555
C7S C20S 1_555 1_555
C8S C19S 1_555 1_555
C8S C20S 1_555 1_555
C9S C18S 1_555 1_555
N4S N7S 1_555 1_555
N4S N8S 1_555 1_555
N4S N9S 1_555 1_555
N5S N9S 1_555 1_555
C12S C16S 1_555 1_555
C13S C15S 1_555 1_555
C14S C17S 1_555 1_555
C16S C17S 1_555 1_555
C18S C20S 1_555 1_555
N9S C21S 1_555 1_555
C21S C22S 1_555 1_555
N1D N2D 1_555 1_555
C1D C9D 1_555 1_555
C2D C18D 1_555 1_555
C4D C5D 1_555 1_555
C4D C20D 1_555 1_555
C5D N2D 1_555 1_555
N2D C9D 1_555 1_555
N2D C19D 1_555 1_555
C7D C20D 1_555 1_555
C8D C19D 1_555 1_555
C8D C20D 1_555 1_555
C9D C18D 1_555 1_555
N4D N7D 1_555 1_555
N4D N8D 1_555 1_555
N4D N9D 1_555 1_555
N5D N9D 1_555 1_555
C14D C17D 1_555 1_555
C18D C20D 1_555 1_555
N9D C21D 1_555 1_555
C21D C22D 1_555 1_555
N1R N2R 1_555 1_555
C1R C9R 1_555 1_555
C2R C18R 1_555 1_555
C4R C5R 1_555 1_555
C4R C20R 1_555 1_555
C5R N2R 1_555 1_555
N2R C9R 1_555 1_555
N2R C19R 1_555 1_555
C7R C20R 1_555 1_555
C8R C19R 1_555 1_555
C8R C20R 1_555 1_555
C9R C18R 1_555 1_555
N4R N7R 1_555 1_555
N4R N8R 1_555 1_555
N4R N9R 1_555 1_555
N5R N9R 1_555 1_555
C12R C16R 1_555 1_555
C13R C15R 1_555 1_555
C14R C17R 1_555 1_555
C16R C17R 1_555 1_555
C18R C20R 1_555 1_555
N9R C21R 1_555 1_555
C21R C22R 1_555 1_555
N1I N2I 1_555 1_555
C1I C9I 1_555 1_555
C2I C18I 1_555 1_555
C4I C5I 1_555 1_555
C4I C20I 1_555 1_555
C5I N2I 1_555 1_555
N2I C9I 1_555 1_555
N2I C19I 1_555 1_555
C7I C20I 1_555 1_555
C8I C19I 1_555 1_555
C8I C20I 1_555 1_555
C9I C18I 1_555 1_555
N4I N7I 1_555 1_555
N4I N8I 1_555 1_555
N4I N9I 1_555 1_555
N5I N9I 1_555 1_555
C14I C17I 1_555 1_555
C18I C20I 1_555 1_555
N9I C21I 1_555 1_555
C21I C22I 1_555 1_555
N1O N2O 1_555 1_555
C1O C9O 1_555 1_555
C2O C18O 1_555 1_555
C4O C5O 1_555 1_555
C4O C20O 1_555 1_555
C5O N2O 1_555 1_555
N2O C9O 1_555 1_555
N2O C19O 1_555 1_555
C7O C20O 1_555 1_555
C8O C19O 1_555 1_555
C8O C20O 1_555 1_555
C9O C18O 1_555 1_555
N4O N7O 1_555 1_555
N4O N8O 1_555 1_555
N4O N9O 1_555 1_555
N5O N9O 1_555 1_555
C12O C16O 1_555 1_555
C13O C15O 1_555 1_555
C14O C17O 1_555 1_555
C16O C17O 1_555 1_555
C18O C20O 1_555 1_555
N9O C21O 1_555 1_555
C21O C22O 1_555 1_555
N1J N2J 1_555 1_555
C1J C9J 1_555 1_555
C2J C18J 1_555 1_555
C4J C5J 1_555 1_555
C4J C20J 1_555 1_555
C5J N2J 1_555 1_555
N2J C9J 1_555 1_555
N2J C19J 1_555 1_555
C7J C20J 1_555 1_555
C8J C19J 1_555 1_555
C8J C20J 1_555 1_555
C9J C18J 1_555 1_555
N4J N7J 1_555 1_555
N4J N8J 1_555 1_555
N4J N9J 1_555 1_555
N5J N9J 1_555 1_555
C14J C17J 1_555 1_555
C18J C20J 1_555 1_555
N9J C21J 1_555 1_555
C21J C22J 1_555 1_555
N1M N2M 1_555 1_555
C1M C9M 1_555 1_555
C2M C18M 1_555 1_555
C4M C5M 1_555 1_555
C4M C20M 1_555 1_555
C5M N2M 1_555 1_555
N2M C9M 1_555 1_555
N2M C19M 1_555 1_555
C7M C20M 1_555 1_555
C8M C19M 1_555 1_555
C8M C20M 1_555 1_555
C9M C18M 1_555 1_555
N4M N7M 1_555 1_555
N4M N8M 1_555 1_555
N4M N9M 1_555 1_555
N5M N9M 1_555 1_555
C12M C16M 1_555 1_555
C13M C15M 1_555 1_555
C14M C17M 1_555 1_555
C16M C17M 1_555 1_555
C18M C20M 1_555 1_555
N9M C21M 1_555 1_555
C21M C22M 1_555 1_555
N1K N2K 1_555 1_555
C1K C9K 1_555 1_555
C2K C18K 1_555 1_555
C4K C5K 1_555 1_555
C4K C20K 1_555 1_555
C5K N2K 1_555 1_555
N2K C9K 1_555 1_555
N2K C19K 1_555 1_555
C7K C20K 1_555 1_555
C8K C19K 1_555 1_555
C8K C20K 1_555 1_555
C9K C18K 1_555 1_555
N4K N7K 1_555 1_555
N4K N8K 1_555 1_555
N4K N9K 1_555 1_555
N5K N9K 1_555 1_555
C14K C17K 1_555 1_555
C18K C20K 1_555 1_555
N9K C21K 1_555 1_555
C21K C22K 1_555 1_555
N1Q N2Q 1_555 1_555
C1Q C9Q 1_555 1_555
C2Q C18Q 1_555 1_555
C4Q C5Q 1_555 1_555
C4Q C20Q 1_555 1_555
C5Q N2Q 1_555 1_555
N2Q C9Q 1_555 1_555
N2Q C19Q 1_555 1_555
C7Q C20Q 1_555 1_555
C8Q C19Q 1_555 1_555
C8Q C20Q 1_555 1_555
C9Q C18Q 1_555 1_555
N4Q N7Q 1_555 1_555
N4Q N8Q 1_555 1_555
N4Q N9Q 1_555 1_555
N5Q N9Q 1_555 1_555
C12Q C16Q 1_555 1_555
C13Q C15Q 1_555 1_555
C14Q C17Q 1_555 1_555
C16Q C17Q 1_555 1_555
C18Q C20Q 1_555 1_555
N9Q C21Q 1_555 1_555
C21Q C22Q 1_555 1_555

#END
