
#######################################################################
#
#                 Cambridge Crystallographic Data Centre
#                                CCDC 
#
#######################################################################
#
# If this CIF has been generated from an entry in the Cambridge 
# Structural Database, then it will include bibliographic, chemical, 
# crystal, experimental, refinement or atomic coordinate data resulting 
# from the CCDC's data processing and validation procedures.
#
#######################################################################

data_ILAPOA
_chemical_formula_moiety         
'C84 H64 Fe2 N20 Ru2 4+,4(F6 P1 1-),C1 H1 Cl3,H2 O1'
_chemical_name_systematic        
"tetrakis(\m~2~-Cyano)-octakis(2,2'-bipyridine-N,N')-di-iron(ii)-di-ruthenium(ii) tetrakis(hexafluorophosphate) chloroform solvate monohydrate"
_symmetry_cell_setting           triclinic
_symmetry_space_group_name_H-M   'P -1'
_symmetry_Int_Tables_number      2
_space_group_name_Hall           '-P 1'
loop_
_symmetry_equiv_pos_site_id
_symmetry_equiv_pos_as_xyz
1 x,y,z
2 -x,-y,-z
_cell_length_a                   13.505(2)
_cell_length_b                   15.520(2)
_cell_length_c                   24.405(4)
_cell_angle_alpha                74.053(4)
_cell_angle_beta                 79.401(4)
_cell_angle_gamma                78.019(4)
_cell_volume                     4767.25
_exptl_crystal_colour            'dark violet'
_exptl_crystal_description       plate
_cell_formula_units_Z            2
loop_
_atom_site_label
_atom_site_type_symbol
_atom_site_fract_x
_atom_site_fract_y
_atom_site_fract_z
Ru1 Ru 0.64354(7) 0.64712(7) 0.22883(4)
Ru2 Ru 0.81235(7) 1.03136(6) 0.26705(4)
Fe1 Fe 0.97834(8) 0.70868(8) 0.26100(5)
Fe2 Fe 0.46732(8) 0.93886(7) 0.28534(5)
N1 N 0.8399(6) 0.6980(6) 0.2522(4)
N2 N 0.5211(6) 0.8207(7) 0.2640(4)
N3 N 0.9286(7) 0.8376(7) 0.2620(4)
N4 N 0.6081(7) 0.9592(7) 0.2799(4)
N5 N 0.5242(6) 0.6086(6) 0.2061(4)
N6 N 0.6461(6) 0.7212(6) 0.1471(3)
N7 N 0.7400(6) 0.5368(6) 0.2117(4)
N8 N 0.6474(6) 0.5663(5) 0.3085(4)
N9 N 0.7234(6) 1.1514(6) 0.2751(4)
N10 N 0.7937(6) 1.0093(6) 0.3536(4)
N11 N 0.9395(6) 1.0913(5) 0.2496(4)
N12 N 0.8309(6) 1.0609(5) 0.1805(4)
N13 N 1.1178(6) 0.7116(6) 0.2761(4)
N14 N 0.9568(6) 0.6750(6) 0.3468(4)
N15 N 1.0292(6) 0.5797(6) 0.2539(4)
N16 N 1.0062(6) 0.7306(6) 0.1750(4)
N17 N 0.4153(6) 1.0634(6) 0.2992(4)
N18 N 0.4682(6) 1.0143(6) 0.2041(4)
N19 N 0.3213(6) 0.9186(6) 0.2992(4)
N20 N 0.4598(6) 0.8698(6) 0.3672(4)
C1 C 0.7653(7) 0.6859(6) 0.2435(4)
C2 C 0.5585(6) 0.7541(6) 0.2521(4)
C3 C 0.8933(6) 0.9107(6) 0.2652(4)
C4 C 0.6870(7) 0.9825(6) 0.2744(4)
C5 C 0.4678(7) 0.5490(7) 0.2378(5)
H1 H 0.4780 0.5248 0.2760
C6 C 0.3939(9) 0.5198(8) 0.2178(5)
H2 H 0.3584 0.4750 0.2415
C7 C 0.3749(12) 0.5580(12) 0.1634(6)
H3 H 0.3246 0.5407 0.1492
C8 C 0.4308(11) 0.6234(12) 0.1284(6)
H4 H 0.4195 0.6487 0.0904
C9 C 0.5043(8) 0.6511(8) 0.1507(5)
C10 C 0.5694(8) 0.7165(8) 0.1185(4)
C11 C 0.5600(11) 0.7692(11) 0.0635(5)
H5 H 0.5081 0.7644 0.0448
C12 C 0.6268(11) 0.8291(10) 0.0359(6)
H6 H 0.6203 0.8648 -0.0011
C13 C 0.7020(9) 0.8342(9) 0.0643(5)
H7 H 0.7482 0.8737 0.0467
C14 C 0.7099(8) 0.7813(8) 0.1186(5)
H8 H 0.7617 0.7866 0.1372
C15 C 0.7842(9) 0.5272(9) 0.1579(6)
H9 H 0.7646 0.5716 0.1257
C16 C 0.8571(11) 0.4531(12) 0.1504(8)
H10 H 0.8850 0.4473 0.1136
C17 C 0.8881(12) 0.3884(11) 0.1973(8)
H11 H 0.9404 0.3403 0.1927
C18 C 0.8410(10) 0.3951(9) 0.2515(7)
H12 H 0.8574 0.3494 0.2838
C19 C 0.7677(8) 0.4725(8) 0.2572(6)
C20 C 0.7173(8) 0.4890(8) 0.3136(6)
C21 C 0.7391(11) 0.4347(9) 0.3640(6)
H13 H 0.7878 0.3824 0.3655
C22 C 0.6905(13) 0.4562(11) 0.4118(8)
H14 H 0.7069 0.4189 0.4470
C23 C 0.6140(10) 0.5344(9) 0.4111(6)
H15 H 0.5784 0.5500 0.4444
C24 C 0.5973(8) 0.5854(8) 0.3565(5)
H16 H 0.5472 0.6370 0.3534
C25 C 0.6904(9) 1.2189(8) 0.2319(6)
H17 H 0.7098 1.2140 0.1941
C26 C 0.6264(11) 1.2974(9) 0.2434(8)
H18 H 0.6048 1.3459 0.2137
C27 C 0.5967(12) 1.3005(11) 0.2996(9)
H19 H 0.5513 1.3509 0.3074
C28 C 0.6300(12) 1.2338(9) 0.3444(7)
H20 H 0.6098 1.2375 0.3824
C29 C 0.6954(8) 1.1606(8) 0.3303(5)
C30 C 0.7356(10) 1.0785(10) 0.3749(6)
C31 C 0.7181(16) 1.0688(13) 0.4353(7)
H21 H 0.6743 1.1154 0.4489
C32 C 0.7578(15) 1.0012(15) 0.4726(8)
H22 H 0.7535 1.0010 0.5111
C33 C 0.8109(12) 0.9236(13) 0.4487(6)
H23 H 0.8335 0.8679 0.4729
C34 C 0.8262(9) 0.9350(10) 0.3911(5)
H24 H 0.8627 0.8861 0.3769
C35 C 0.9847(8) 1.1134(8) 0.2855(5)
H25 H 0.9571 1.0997 0.3241
C36 C 1.0689(9) 1.1550(8) 0.2714(6)
H26 H 1.0951 1.1718 0.2989
C37 C 1.1117(10) 1.1703(8) 0.2173(8)
H27 H 1.1705 1.1966 0.2068
C38 C 1.0700(8) 1.1472(8) 0.1739(6)
H28 H 1.1003 1.1567 0.1358
C39 C 0.9805(8) 1.1094(7) 0.1933(5)
C40 C 0.9225(8) 1.0892(7) 0.1539(5)
C41 C 0.9512(10) 1.0980(9) 0.0962(5)
H29 H 1.0153 1.1124 0.0796
C42 C 0.8891(11) 1.0864(10) 0.0636(6)
H30 H 0.9055 1.1005 0.0238
C43 C 0.7988(10) 1.0528(10) 0.0894(6)
H31 H 0.7577 1.0381 0.0678
C44 C 0.7728(9) 1.0424(8) 0.1479(5)
H32 H 0.7121 1.0215 0.1654
C45 C 1.1959(7) 0.7371(7) 0.2347(5)
H33 H 1.1846 0.7581 0.1964
C46 C 1.2922(7) 0.7322(7) 0.2488(5)
H34 H 1.3446 0.7509 0.2202
C47 C 1.3101(8) 0.6995(8) 0.3052(6)
H35 H 1.3754 0.6935 0.3145
C48 C 1.2298(8) 0.6754(8) 0.3487(6)
H36 H 1.2401 0.6550 0.3871
C49 C 1.1324(8) 0.6831(7) 0.3322(5)
C50 C 1.0421(8) 0.6638(7) 0.3728(5)
C51 C 1.0374(10) 0.6387(10) 0.4321(5)
H37 H 1.0959 0.6308 0.4491
C52 C 0.9470(12) 0.6255(12) 0.4653(6)
H38 H 0.9431 0.6083 0.5052
C53 C 0.8589(10) 0.6383(12) 0.4388(6)
H39 H 0.7960 0.6298 0.4607
C54 C 0.8683(8) 0.6633(10) 0.3809(5)
H40 H 0.8099 0.6729 0.3635
C55 C 1.0444(9) 0.5056(8) 0.2973(6)
H41 H 1.0226 0.5113 0.3348
C56 C 1.0921(10) 0.4191(8) 0.2886(7)
H42 H 1.1037 0.3685 0.3191
C57 C 1.1199(10) 0.4151(9) 0.2327(8)
H43 H 1.1514 0.3597 0.2249
C58 C 1.1038(10) 0.4876(9) 0.1883(7)
H44 H 1.1237 0.4819 0.1507
C59 C 1.0564(8) 0.5722(8) 0.1991(6)
C60 C 1.0356(8) 0.6529(8) 0.1548(5)
C61 C 1.0390(12) 0.6562(11) 0.0997(7)
H45 H 1.0608 0.6028 0.0875
C62 C 1.0110(15) 0.7375(13) 0.0590(7)
H46 H 1.0119 0.7390 0.0206
C63 C 0.9802(10) 0.8197(10) 0.0806(6)
H47 H 0.9597 0.8758 0.0563
C64 C 0.9826(8) 0.8114(8) 0.1363(5)
H48 H 0.9672 0.8640 0.1495
C65 C 0.3858(10) 1.0812(9) 0.3523(6)
H49 H 0.3925 1.0345 0.3854
C66 C 0.3451(12) 1.1713(11) 0.3564(8)
H50 H 0.3241 1.1842 0.3923
C67 C 0.3370(13) 1.2384(11) 0.3078(10)
H51 H 0.3105 1.2976 0.3106
C68 C 0.3664(11) 1.2218(9) 0.2556(8)
H52 H 0.3590 1.2685 0.2226
C69 C 0.4093(9) 1.1313(8) 0.2517(6)
C70 C 0.4448(9) 1.1045(8) 0.1990(5)
C71 C 0.4556(13) 1.1631(10) 0.1446(8)
H53 H 0.4430 1.2255 0.1411
C72 C 0.4840(14) 1.1316(13) 0.0964(7)
H54 H 0.4851 1.1714 0.0601
C73 C 0.5107(11) 1.0409(11) 0.1024(6)
H55 H 0.5350 1.0176 0.0703
C74 C 0.5016(8) 0.9839(9) 0.1562(5)
H56 H 0.5192 0.9216 0.1598
C75 C 0.2566(8) 0.9424(7) 0.2602(5)
H57 H 0.2810 0.9669 0.2221
C76 C 0.1560(8) 0.9323(8) 0.2738(7)
H58 H 0.1143 0.9450 0.2453
C77 C 0.1190(9) 0.9037(9) 0.3296(7)
H59 H 0.0499 0.8997 0.3397
C78 C 0.1813(9) 0.8800(9) 0.3722(6)
H60 H 0.1559 0.8622 0.4109
C79 C 0.2856(7) 0.8844(7) 0.3535(5)
C80 C 0.3642(8) 0.8501(8) 0.3928(5)
C81 C 0.3489(11) 0.7986(9) 0.4483(5)
H61 H 0.2841 0.7878 0.4662
C82 C 0.4368(13) 0.7624(10) 0.4774(5)
H62 H 0.4307 0.7215 0.5132
C83 C 0.5275(10) 0.7864(9) 0.4538(5)
H63 H 0.5824 0.7686 0.4748
C84 C 0.5385(9) 0.8368(8) 0.3991(5)
H64 H 0.6030 0.8497 0.3823
P1 P 0.9549(3) 0.2209(3) 0.43657(18)
F1 F 1.0710(8) 0.2174(13) 0.4247(7)
F2 F 0.8414(9) 0.2355(13) 0.4497(7)
F3 F 0.9398(10) 0.2494(8) 0.3724(4)
F4 F 0.9710(12) 0.1943(11) 0.5007(5)
F5 F 0.9473(13) 0.3257(9) 0.4337(7)
F6 F 0.9623(18) 0.1227(8) 0.4336(9)
P2 P 0.3480(3) 0.4176(3) 0.41341(14)
F7 F 0.3658(8) 0.4128(7) 0.4747(4)
F8 F 0.3302(11) 0.4199(9) 0.3516(4)
F9 F 0.3068(8) 0.3263(6) 0.4382(4)
F10 F 0.3894(6) 0.5087(6) 0.3878(4)
F11 F 0.2401(7) 0.4685(7) 0.4247(5)
F12 F 0.4599(9) 0.3656(8) 0.4017(5)
P3 P 0.2508(3) 0.9402(3) 0.08082(15)
F13 F 0.2325(9) 0.8475(7) 0.0734(5)
F14 F 0.2652(8) 1.0334(7) 0.0906(5)
F15 F 0.1575(6) 0.9352(6) 0.1319(3)
F16 F 0.3432(7) 0.9457(7) 0.0296(4)
F17 F 0.1746(7) 0.9953(8) 0.0377(4)
F18 F 0.3322(7) 0.8855(7) 0.1242(4)
P4 P 0.2017(9) 0.3678(5) 0.0517(4)
F19 F 0.199(2) 0.4638(8) 0.0533(8)
F20 F 0.216(2) 0.2683(10) 0.0587(8)
F21 F 0.1042(14) 0.3713(15) 0.0919(8)
F22 F 0.329(2) 0.3508(19) 0.0330(17)
F23 F 0.258(3) 0.3488(18) 0.1155(12)
F24 F 0.205(3) 0.3978(16) -0.0086(7)
Cl1 Cl 0.7037(8) 0.3059(9) -0.0019(5)
Cl2 Cl 0.6059(14) 0.4272(14) 0.0940(6)
C85 C 0.656(5) 0.377(3) 0.0416(14)
Cl3 Cl 0.7796(15) 0.3256(10) 0.0786(6)
O1 O 0.5140(13) 0.3866(10) 0.0369(7)
loop_
_geom_bond_atom_site_label_1
_geom_bond_atom_site_label_2
_geom_bond_site_symmetry_1
_geom_bond_site_symmetry_2
Ru1 N5 1_555 1_555
Ru2 N9 1_555 1_555
Fe1 N1 1_555 1_555
Fe2 N2 1_555 1_555
P1 F1 1_555 1_555
P2 F7 1_555 1_555
P3 F13 1_555 1_555
P4 F19 1_555 1_555
F2 P1 1_555 1_555
F3 P1 1_555 1_555
F4 P1 1_555 1_555
F5 P1 1_555 1_555
F6 P1 1_555 1_555
F8 P2 1_555 1_555
F9 P2 1_555 1_555
F10 P2 1_555 1_555
F11 P2 1_555 1_555
F12 P2 1_555 1_555
F14 P3 1_555 1_555
F15 P3 1_555 1_555
F16 P3 1_555 1_555
F17 P3 1_555 1_555
F18 P3 1_555 1_555
F20 P4 1_555 1_555
F21 P4 1_555 1_555
F22 P4 1_555 1_555
F23 P4 1_555 1_555
F24 P4 1_555 1_555
N1 C1 1_555 1_555
N2 C2 1_555 1_555
N3 Fe1 1_555 1_555
N4 Fe2 1_555 1_555
N5 C5 1_555 1_555
N6 Ru1 1_555 1_555
N7 Ru1 1_555 1_555
N8 Ru1 1_555 1_555
N9 C25 1_555 1_555
N10 Ru2 1_555 1_555
N11 Ru2 1_555 1_555
N12 Ru2 1_555 1_555
N13 Fe1 1_555 1_555
N14 Fe1 1_555 1_555
N15 Fe1 1_555 1_555
N16 Fe1 1_555 1_555
N17 Fe2 1_555 1_555
N18 Fe2 1_555 1_555
N19 Fe2 1_555 1_555
N20 Fe2 1_555 1_555
C1 Ru1 1_555 1_555
C2 Ru1 1_555 1_555
C3 Ru2 1_555 1_555
C4 Ru2 1_555 1_555
C5 H1 1_555 1_555
C6 C5 1_555 1_555
H2 C6 1_555 1_555
C7 C6 1_555 1_555
H3 C7 1_555 1_555
C8 C7 1_555 1_555
H4 C8 1_555 1_555
C9 N5 1_555 1_555
C10 N6 1_555 1_555
C11 C10 1_555 1_555
H5 C11 1_555 1_555
C12 C11 1_555 1_555
H6 C12 1_555 1_555
C13 C12 1_555 1_555
H7 C13 1_555 1_555
C14 N6 1_555 1_555
H8 C14 1_555 1_555
C15 N7 1_555 1_555
H9 C15 1_555 1_555
C16 C15 1_555 1_555
H10 C16 1_555 1_555
C17 C16 1_555 1_555
H11 C17 1_555 1_555
C18 C17 1_555 1_555
H12 C18 1_555 1_555
C19 N7 1_555 1_555
C20 N8 1_555 1_555
C21 C20 1_555 1_555
H13 C21 1_555 1_555
C22 C21 1_555 1_555
H14 C22 1_555 1_555
C23 C22 1_555 1_555
H15 C23 1_555 1_555
C24 N8 1_555 1_555
H16 C24 1_555 1_555
C25 H17 1_555 1_555
C26 C25 1_555 1_555
H18 C26 1_555 1_555
C27 C26 1_555 1_555
H19 C27 1_555 1_555
C28 C27 1_555 1_555
H20 C28 1_555 1_555
C29 N9 1_555 1_555
C30 N10 1_555 1_555
C31 C30 1_555 1_555
H21 C31 1_555 1_555
C32 C31 1_555 1_555
H22 C32 1_555 1_555
C33 C32 1_555 1_555
H23 C33 1_555 1_555
C34 N10 1_555 1_555
H24 C34 1_555 1_555
C35 N11 1_555 1_555
H25 C35 1_555 1_555
C36 C35 1_555 1_555
H26 C36 1_555 1_555
C37 C36 1_555 1_555
H27 C37 1_555 1_555
C38 C37 1_555 1_555
H28 C38 1_555 1_555
C39 N11 1_555 1_555
C40 N12 1_555 1_555
C41 C40 1_555 1_555
H29 C41 1_555 1_555
C42 C41 1_555 1_555
H30 C42 1_555 1_555
C43 C42 1_555 1_555
H31 C43 1_555 1_555
C44 N12 1_555 1_555
H32 C44 1_555 1_555
C45 N13 1_555 1_555
H33 C45 1_555 1_555
C46 C45 1_555 1_555
H34 C46 1_555 1_555
C47 C46 1_555 1_555
H35 C47 1_555 1_555
C48 C47 1_555 1_555
H36 C48 1_555 1_555
C49 N13 1_555 1_555
C50 N14 1_555 1_555
C51 C50 1_555 1_555
H37 C51 1_555 1_555
C52 C51 1_555 1_555
H38 C52 1_555 1_555
C53 C52 1_555 1_555
H39 C53 1_555 1_555
C54 N14 1_555 1_555
H40 C54 1_555 1_555
C55 N15 1_555 1_555
H41 C55 1_555 1_555
C56 C55 1_555 1_555
H42 C56 1_555 1_555
C57 C56 1_555 1_555
H43 C57 1_555 1_555
C58 C57 1_555 1_555
H44 C58 1_555 1_555
C59 N15 1_555 1_555
C60 N16 1_555 1_555
C61 C60 1_555 1_555
H45 C61 1_555 1_555
C62 C61 1_555 1_555
H46 C62 1_555 1_555
C63 C62 1_555 1_555
H47 C63 1_555 1_555
C64 N16 1_555 1_555
H48 C64 1_555 1_555
C65 N17 1_555 1_555
H49 C65 1_555 1_555
C66 C65 1_555 1_555
H50 C66 1_555 1_555
C67 C66 1_555 1_555
H51 C67 1_555 1_555
C68 C67 1_555 1_555
H52 C68 1_555 1_555
C69 N17 1_555 1_555
C70 N18 1_555 1_555
C71 C70 1_555 1_555
H53 C71 1_555 1_555
C72 C71 1_555 1_555
H54 C72 1_555 1_555
C73 C72 1_555 1_555
H55 C73 1_555 1_555
C74 N18 1_555 1_555
H56 C74 1_555 1_555
C75 N19 1_555 1_555
H57 C75 1_555 1_555
C76 C75 1_555 1_555
H58 C76 1_555 1_555
C77 C76 1_555 1_555
H59 C77 1_555 1_555
C78 C77 1_555 1_555
H60 C78 1_555 1_555
C79 N19 1_555 1_555
C80 N20 1_555 1_555
C81 C80 1_555 1_555
H61 C81 1_555 1_555
C82 C81 1_555 1_555
H62 C82 1_555 1_555
C83 C82 1_555 1_555
H63 C83 1_555 1_555
C84 N20 1_555 1_555
H64 C84 1_555 1_555
Cl1 C85 1_555 1_555
Cl2 C85 1_555 1_555
C85 Cl3 1_555 1_555
N3 C3 1_555 1_555
N4 C4 1_555 1_555
C8 C9 1_555 1_555
C9 C10 1_555 1_555
C13 C14 1_555 1_555
C18 C19 1_555 1_555
C19 C20 1_555 1_555
C23 C24 1_555 1_555
C28 C29 1_555 1_555
C29 C30 1_555 1_555
C33 C34 1_555 1_555
C38 C39 1_555 1_555
C39 C40 1_555 1_555
C43 C44 1_555 1_555
C48 C49 1_555 1_555
C49 C50 1_555 1_555
C53 C54 1_555 1_555
C58 C59 1_555 1_555
C59 C60 1_555 1_555
C63 C64 1_555 1_555
C68 C69 1_555 1_555
C69 C70 1_555 1_555
C73 C74 1_555 1_555
C78 C79 1_555 1_555
C79 C80 1_555 1_555
C83 C84 1_555 1_555

#END
