
#######################################################################
#
#                 Cambridge Crystallographic Data Centre
#                                CCDC 
#
#######################################################################
#
# If this CIF has been generated from an entry in the Cambridge 
# Structural Database, then it will include bibliographic, chemical, 
# crystal, experimental, refinement or atomic coordinate data resulting 
# from the CCDC's data processing and validation procedures.
#
#######################################################################

data_IMOWEO
_chemical_formula_moiety         'C44 H28 I4 N4 O8 Zn2,3(C1 H2 I2)'
_chemical_name_systematic        
'tetraiodo-bis(\m-3-(((pyridin-4-yl)carbonyl)oxy)-2-naphthyl isonicotinate)-di-zinc diiodomethane solvate'
_symmetry_cell_setting           triclinic
_symmetry_space_group_name_H-M   'P -1'
_symmetry_Int_Tables_number      2
_space_group_name_Hall           '-P 1'
loop_
_symmetry_equiv_pos_site_id
_symmetry_equiv_pos_as_xyz
1 x,y,z
2 -x,-y,-z
_cell_length_a                   9.8298(2)
_cell_length_b                   10.8356(2)
_cell_length_c                   15.0666(3)
_cell_angle_alpha                95.5870(10)
_cell_angle_beta                 96.7170(10)
_cell_angle_gamma                97.6800(10)
_cell_volume                     1569.02
_exptl_crystal_colour            yellow
_exptl_crystal_description       block
_cell_formula_units_Z            1
loop_
_atom_site_label
_atom_site_type_symbol
_atom_site_fract_x
_atom_site_fract_y
_atom_site_fract_z
Zn1 Zn 0.80999(10) 0.43687(9) 0.61179(7)
I1 I 0.74109(6) 0.65260(5) 0.58816(5)
I2 I 1.04739(7) 0.41211(6) 0.68700(5)
O1 O 0.4060(7) 0.0939(5) 0.8802(4)
O2 O 0.2620(8) 0.2312(8) 0.8463(6)
O3 O 0.4130(7) -0.1841(7) 0.8348(5)
O4 O 0.2064(6) -0.1137(6) 0.8136(4)
N1 N 0.6579(8) 0.3471(7) 0.6775(5)
N2 N 0.2286(8) -0.3373(7) 0.5149(5)
C1 C 0.5401(10) 0.3882(9) 0.6841(7)
H1 H 0.5192 0.4549 0.6508
C2 C 0.4446(11) 0.3406(11) 0.7363(8)
H2 H 0.3620 0.3758 0.7416
C3 C 0.4735(10) 0.2397(8) 0.7809(7)
C4 C 0.5951(10) 0.1949(8) 0.7750(7)
H3 H 0.6180 0.1274 0.8068
C5 C 0.6835(10) 0.2499(9) 0.7219(7)
H4 H 0.7676 0.2173 0.7162
C6 C 0.3673(11) 0.1898(9) 0.8392(7)
C7 C 0.3143(9) 0.0418(8) 0.9390(6)
C8 C 0.3203(10) 0.0940(8) 1.0238(6)
H5 H 0.3846 0.1673 1.0454
C9 C 0.2329(10) 0.0414(8) 1.0802(6)
C10 C 0.2354(11) 0.0933(9) 1.1708(7)
H6 H 0.2972 0.1675 1.1938
C11 C 0.1498(11) 0.0376(10) 1.2251(7)
H7 H 0.1527 0.0731 1.2856
C12 C 0.0610(10) -0.0676(9) 1.1933(7)
H8 H 0.0015 -0.1044 1.2320
C13 C 0.1412(9) -0.0680(8) 1.0486(6)
C14 C 0.1344(9) -0.1206(8) 0.9585(6)
H9 H 0.0700 -0.1933 0.9357
C15 C 0.2212(10) -0.0661(9) 0.9041(6)
C16 C 0.3118(10) -0.1745(8) 0.7869(7)
C17 C 0.3544(11) -0.3263(10) 0.5618(7)
H10 H 0.4265 -0.3570 0.5335
C18 C 0.3830(10) -0.2728(10) 0.6486(7)
H11 H 0.4734 -0.2670 0.6804
C19 C 0.2783(9) -0.2267(8) 0.6901(6)
C20 C 0.1492(10) -0.2369(9) 0.6432(7)
H12 H 0.0756 -0.2075 0.6707
C21 C 0.1274(10) -0.2915(9) 0.5537(6)
H13 H 0.0388 -0.2961 0.5197
C22 C 0.0542(10) -0.1222(9) 1.1083(7)
H14 H -0.0086 -0.1968 1.0881
Zn1A Zn 0.19001(10) -0.43687(9) 0.38821(7)
I1A I 0.25891(6) -0.65260(5) 0.41184(5)
I2A I -0.04739(7) -0.41211(6) 0.31300(5)
O1A O 0.5940(7) -0.0939(5) 0.1198(4)
O2A O 0.7380(8) -0.2312(8) 0.1537(6)
O3A O 0.5870(7) 0.1841(7) 0.1652(5)
O4A O 0.7936(6) 0.1137(6) 0.1864(4)
N1A N 0.3421(8) -0.3471(7) 0.3225(5)
N2A N 0.7714(8) 0.3373(7) 0.4851(5)
C1A C 0.4599(10) -0.3882(9) 0.3159(7)
H1A H 0.4808 -0.4549 0.3492
C2A C 0.5554(11) -0.3406(11) 0.2637(8)
H2A H 0.6380 -0.3758 0.2584
C3A C 0.5265(10) -0.2397(8) 0.2191(7)
C4A C 0.4049(10) -0.1949(8) 0.2250(7)
H3A H 0.3820 -0.1274 0.1932
C5A C 0.3165(10) -0.2499(9) 0.2781(7)
H4A H 0.2324 -0.2173 0.2838
C6A C 0.6327(11) -0.1898(9) 0.1608(7)
C7A C 0.6857(9) -0.0418(8) 0.0610(6)
C8A C 0.6797(10) -0.0940(8) -0.0238(6)
H5A H 0.6154 -0.1673 -0.0454
C9A C 0.7671(10) -0.0414(8) -0.0802(6)
C10A C 0.7646(11) -0.0933(9) -0.1708(7)
H6A H 0.7028 -0.1675 -0.1938
C11A C 0.8502(11) -0.0376(10) -0.2251(7)
H7A H 0.8473 -0.0731 -0.2856
C12A C 0.9390(10) 0.0676(9) -0.1933(7)
H8A H 0.9985 0.1044 -0.2320
C13A C 0.8588(9) 0.0680(8) -0.0486(6)
C14A C 0.8656(9) 0.1206(8) 0.0415(6)
H9A H 0.9300 0.1933 0.0643
C15A C 0.7788(10) 0.0661(9) 0.0959(6)
C16A C 0.6882(10) 0.1745(8) 0.2131(7)
C17A C 0.6456(11) 0.3263(10) 0.4382(7)
H10A H 0.5735 0.3570 0.4665
C18A C 0.6170(10) 0.2728(10) 0.3514(7)
H11A H 0.5266 0.2670 0.3196
C19A C 0.7217(9) 0.2267(8) 0.3099(6)
C20A C 0.8508(10) 0.2369(9) 0.3568(7)
H12A H 0.9244 0.2075 0.3293
C21A C 0.8726(10) 0.2915(9) 0.4463(6)
H13A H 0.9612 0.2961 0.4803
C22A C 0.9458(10) 0.1222(9) -0.1083(7)
H14A H 1.0086 0.1968 -0.0881
I3 I 0.33350(10) 0.59725(8) 0.95540(7)
I4 I 0.13272(11) 0.47073(9) 1.11593(6)
C23 C 0.240(2) 0.4337(13) 1.0073(13)
H15 H 0.1753 0.3819 0.9583
H16 H 0.3135 0.3837 1.0261
I5? I 0.3697(4) 0.0406(3) 0.5346(3)
I6? I 0.0000 0.0000 0.5000
C24? C 0.1884(5) 0.1040(19) 0.5831(12)
H17? H 0.1916 0.1950 0.5794
H18? H 0.1868 0.0891 0.6468
loop_
_geom_bond_atom_site_label_1
_geom_bond_atom_site_label_2
_geom_bond_site_symmetry_1
_geom_bond_site_symmetry_2
Zn1 I1 1_555 1_555
I2 Zn1 1_555 1_555
O1 C6 1_555 1_555
O2 C6 1_555 1_555
O3 C16 1_555 1_555
O4 C15 1_555 1_555
N1 Zn1 1_555 1_555
N2 C17 1_555 1_555
C1 N1 1_555 1_555
H1 C1 1_555 1_555
C2 C1 1_555 1_555
H2 C2 1_555 1_555
C3 C2 1_555 1_555
C4 C3 1_555 1_555
H3 C4 1_555 1_555
C5 N1 1_555 1_555
H4 C5 1_555 1_555
C6 C3 1_555 1_555
C7 O1 1_555 1_555
C8 C7 1_555 1_555
H5 C8 1_555 1_555
C9 C8 1_555 1_555
C10 C9 1_555 1_555
H6 C10 1_555 1_555
C11 C10 1_555 1_555
H7 C11 1_555 1_555
C12 C11 1_555 1_555
H8 C12 1_555 1_555
C13 C9 1_555 1_555
C14 C13 1_555 1_555
H9 C14 1_555 1_555
C15 C7 1_555 1_555
C16 O4 1_555 1_555
C17 H10 1_555 1_555
C18 C17 1_555 1_555
H11 C18 1_555 1_555
C19 C16 1_555 1_555
C20 C19 1_555 1_555
H12 C20 1_555 1_555
C21 N2 1_555 1_555
H13 C21 1_555 1_555
C22 C12 1_555 1_555
H14 C22 1_555 1_555
I3 C23 1_555 1_555
I4 C23 1_555 1_555
C23 H15 1_555 1_555
H16 C23 1_555 1_555
Zn1A N2 1_555 1_555
I1A Zn1A 1_555 1_555
I2A Zn1A 1_555 1_555
O1A C6A 1_555 1_555
O2A C6A 1_555 1_555
O3A C16A 1_555 1_555
O4A C15A 1_555 1_555
N1A Zn1A 1_555 1_555
N2A Zn1 1_555 1_555
C1A N1A 1_555 1_555
H1A C1A 1_555 1_555
C2A C1A 1_555 1_555
H2A C2A 1_555 1_555
C3A C2A 1_555 1_555
C4A C3A 1_555 1_555
H3A C4A 1_555 1_555
C5A N1A 1_555 1_555
H4A C5A 1_555 1_555
C6A C3A 1_555 1_555
C7A O1A 1_555 1_555
C8A C7A 1_555 1_555
H5A C8A 1_555 1_555
C9A C8A 1_555 1_555
C10A C9A 1_555 1_555
H6A C10A 1_555 1_555
C11A C10A 1_555 1_555
H7A C11A 1_555 1_555
C12A C11A 1_555 1_555
H8A C12A 1_555 1_555
C13A C9A 1_555 1_555
C14A C13A 1_555 1_555
H9A C14A 1_555 1_555
C15A C7A 1_555 1_555
C16A O4A 1_555 1_555
C17A N2A 1_555 1_555
H10A C17A 1_555 1_555
C18A C17A 1_555 1_555
H11A C18A 1_555 1_555
C19A C16A 1_555 1_555
C20A C19A 1_555 1_555
H12A C20A 1_555 1_555
C21A N2A 1_555 1_555
H13A C21A 1_555 1_555
C22A C12A 1_555 1_555
H14A C22A 1_555 1_555
C4 C5 1_555 1_555
C13 C22 1_555 1_555
C14 C15 1_555 1_555
C18 C19 1_555 1_555
C20 C21 1_555 1_555
C4A C5A 1_555 1_555
C13A C22A 1_555 1_555
C14A C15A 1_555 1_555
C18A C19A 1_555 1_555
C20A C21A 1_555 1_555

#END
