# generated using pymatgen
data_Zn12H299C471S5N73O23F15
_symmetry_space_group_name_H-M   'P 1'
_cell_length_a   37.75970000
_cell_length_b   39.17460000
_cell_length_c   44.30760000
_cell_angle_alpha   103.75500000
_cell_angle_beta   90.00000000
_cell_angle_gamma   90.00000000
_symmetry_Int_Tables_number   1
_chemical_formula_structural   Zn12H299C471S5N73O23F15
_chemical_formula_sum   'Zn48 H1196 C1884 S20 N292 O92 F60'
_cell_volume   63661.11713890
_cell_formula_units_Z   4
loop_
 _symmetry_equiv_pos_site_id
 _symmetry_equiv_pos_as_xyz
  1  'x, y, z'
loop_
 _atom_site_type_symbol
 _atom_site_label
 _atom_site_symmetry_multiplicity
 _atom_site_fract_x
 _atom_site_fract_y
 _atom_site_fract_z
 _atom_site_occupancy
  Zn  Zn1  1  0.311920  0.823710  0.414690  1
  Zn  Zn2  1  0.811920  0.176290  0.085310  1
  Zn  Zn3  1  0.688080  0.176290  0.585310  1
  Zn  Zn4  1  0.188080  0.823710  0.914690  1
  Zn  Zn5  1  0.248720  0.747970  0.677480  1
  Zn  Zn6  1  0.748720  0.252030  0.822520  1
  Zn  Zn7  1  0.751280  0.252030  0.322520  1
  Zn  Zn8  1  0.251280  0.747970  0.177480  1
  Zn  Zn9  1  0.467890  0.620440  0.523350  1
  Zn  Zn10  1  0.967890  0.379560  0.976650  1
  Zn  Zn11  1  0.532110  0.379560  0.476650  1
  Zn  Zn12  1  0.032110  0.620440  0.023350  1
  Zn  Zn13  1  0.182010  0.484620  0.509680  1
  Zn  Zn14  1  0.682010  0.515380  0.990320  1
  Zn  Zn15  1  0.817990  0.515380  0.490320  1
  Zn  Zn16  1  0.317990  0.484620  0.009680  1
  Zn  Zn17  1  0.067000  0.692550  0.431120  1
  Zn  Zn18  1  0.567000  0.307450  0.068880  1
  Zn  Zn19  1  0.933000  0.307450  0.568880  1
  Zn  Zn20  1  0.433000  0.692550  0.931120  1
  Zn  Zn21  1  0.293700  0.550940  0.257640  1
  Zn  Zn22  1  0.793700  0.449060  0.242360  1
  Zn  Zn23  1  0.706300  0.449060  0.742360  1
  Zn  Zn24  1  0.206300  0.550940  0.757640  1
  Zn  Zn25  1  0.758640  0.741440  0.380240  1
  Zn  Zn26  1  0.258640  0.258560  0.119760  1
  Zn  Zn27  1  0.241360  0.258560  0.619760  1
  Zn  Zn28  1  0.741360  0.741440  0.880240  1
  Zn  Zn29  1  0.537270  0.873860  0.540190  1
  Zn  Zn30  1  0.037270  0.126140  0.959810  1
  Zn  Zn31  1  0.462730  0.126140  0.459810  1
  Zn  Zn32  1  0.962730  0.873860  0.040190  1
  Zn  Zn33  1  0.690850  0.669590  0.649310  1
  Zn  Zn34  1  0.190850  0.330410  0.850690  1
  Zn  Zn35  1  0.309150  0.330410  0.350690  1
  Zn  Zn36  1  0.809150  0.669590  0.149310  1
  Zn  Zn37  1  0.933040  0.795840  0.636400  1
  Zn  Zn38  1  0.433040  0.204160  0.863600  1
  Zn  Zn39  1  0.066960  0.204160  0.363600  1
  Zn  Zn40  1  0.566960  0.795840  0.136400  1
  Zn  Zn41  1  0.714910  0.949070  0.812150  1
  Zn  Zn42  1  0.214910  0.050930  0.687850  1
  Zn  Zn43  1  0.285090  0.050930  0.187850  1
  Zn  Zn44  1  0.785090  0.949070  0.312150  1
  Zn  Zn45  1  0.814740  0.998890  0.559810  1
  Zn  Zn46  1  0.314740  0.001110  0.940190  1
  Zn  Zn47  1  0.185260  0.001110  0.440190  1
  Zn  Zn48  1  0.685260  0.998890  0.059810  1
  H  H49  1  0.285100  0.739300  0.744300  1
  H  H50  1  0.785100  0.260700  0.755700  1
  H  H51  1  0.714900  0.260700  0.255700  1
  H  H52  1  0.214900  0.739300  0.244300  1
  H  H53  1  0.334800  0.765200  0.772300  1
  H  H54  1  0.834800  0.234800  0.727700  1
  H  H55  1  0.665200  0.234800  0.227700  1
  H  H56  1  0.165200  0.765200  0.272300  1
  H  H57  1  0.362300  0.811400  0.758400  1
  H  H58  1  0.862300  0.188600  0.741600  1
  H  H59  1  0.637700  0.188600  0.241600  1
  H  H60  1  0.137700  0.811400  0.258400  1
  H  H61  1  0.367900  0.845900  0.713300  1
  H  H62  1  0.867900  0.154100  0.786700  1
  H  H63  1  0.632100  0.154100  0.286700  1
  H  H64  1  0.132100  0.845900  0.213300  1
  H  H65  1  0.339700  0.869000  0.677600  1
  H  H66  1  0.839700  0.131000  0.822400  1
  H  H67  1  0.660300  0.131000  0.322400  1
  H  H68  1  0.160300  0.869000  0.177600  1
  H  H69  1  0.297200  0.850000  0.626900  1
  H  H70  1  0.797200  0.150000  0.873100  1
  H  H71  1  0.702800  0.150000  0.373100  1
  H  H72  1  0.202800  0.850000  0.126900  1
  H  H73  1  0.247300  0.820700  0.602800  1
  H  H74  1  0.747300  0.179300  0.897200  1
  H  H75  1  0.752700  0.179300  0.397200  1
  H  H76  1  0.252700  0.820700  0.102800  1
  H  H77  1  0.204900  0.765200  0.603600  1
  H  H78  1  0.704900  0.234800  0.896400  1
  H  H79  1  0.795100  0.234800  0.396400  1
  H  H80  1  0.295100  0.765200  0.103600  1
  H  H81  1  0.229500  0.676500  0.616200  1
  H  H82  1  0.729500  0.323500  0.883800  1
  H  H83  1  0.770500  0.323500  0.383800  1
  H  H84  1  0.270500  0.676500  0.116200  1
  H  H85  1  0.190700  0.633100  0.589500  1
  H  H86  1  0.690700  0.366900  0.910500  1
  H  H87  1  0.809300  0.366900  0.410500  1
  H  H88  1  0.309300  0.633100  0.089500  1
  H  H89  1  0.109500  0.701900  0.605000  1
  H  H90  1  0.609500  0.298100  0.895000  1
  H  H91  1  0.890500  0.298100  0.395000  1
  H  H92  1  0.390500  0.701900  0.105000  1
  H  H93  1  0.147600  0.745800  0.632500  1
  H  H94  1  0.647600  0.254200  0.867500  1
  H  H95  1  0.852400  0.254200  0.367500  1
  H  H96  1  0.352400  0.745800  0.132500  1
  H  H97  1  0.025500  0.762700  0.442300  1
  H  H98  1  0.525500  0.237300  0.057700  1
  H  H99  1  0.974500  0.237300  0.557700  1
  H  H100  1  0.474500  0.762700  0.942300  1
  H  H101  1  0.002500  0.793200  0.405800  1
  H  H102  1  0.502500  0.206800  0.094200  1
  H  H103  1  0.997500  0.206800  0.594200  1
  H  H104  1  0.497500  0.793200  0.905800  1
  H  H105  1  0.003000  0.775200  0.354200  1
  H  H106  1  0.503000  0.224800  0.145800  1
  H  H107  1  0.997000  0.224800  0.645800  1
  H  H108  1  0.497000  0.775200  0.854200  1
  H  H109  1  0.023500  0.728200  0.305500  1
  H  H110  1  0.523500  0.271800  0.194500  1
  H  H111  1  0.976500  0.271800  0.694500  1
  H  H112  1  0.476500  0.728200  0.805500  1
  H  H113  1  0.050400  0.674600  0.287300  1
  H  H114  1  0.550400  0.325400  0.212700  1
  H  H115  1  0.949600  0.325400  0.712700  1
  H  H116  1  0.449600  0.674600  0.787300  1
  H  H117  1  0.083200  0.618300  0.305500  1
  H  H118  1  0.583200  0.381700  0.194500  1
  H  H119  1  0.916800  0.381700  0.694500  1
  H  H120  1  0.416800  0.618300  0.805500  1
  H  H121  1  0.101100  0.596000  0.345300  1
  H  H122  1  0.601100  0.404000  0.154700  1
  H  H123  1  0.898900  0.404000  0.654700  1
  H  H124  1  0.398900  0.596000  0.845300  1
  H  H125  1  0.110200  0.610600  0.413300  1
  H  H126  1  0.610200  0.389400  0.086700  1
  H  H127  1  0.889800  0.389400  0.586700  1
  H  H128  1  0.389800  0.610600  0.913300  1
  H  H129  1  0.143600  0.678000  0.480500  1
  H  H130  1  0.643600  0.322000  0.019500  1
  H  H131  1  0.856400  0.322000  0.519500  1
  H  H132  1  0.356400  0.678000  0.980500  1
  H  H133  1  0.154900  0.675300  0.530400  1
  H  H134  1  0.654900  0.324700  0.969600  1
  H  H135  1  0.845100  0.324700  0.469600  1
  H  H136  1  0.345100  0.675300  0.030400  1
  H  H137  1  0.074400  0.608600  0.524900  1
  H  H138  1  0.574400  0.391400  0.975100  1
  H  H139  1  0.925600  0.391400  0.475100  1
  H  H140  1  0.425600  0.608600  0.024900  1
  H  H141  1  0.059100  0.616600  0.476800  1
  H  H142  1  0.559100  0.383400  0.023200  1
  H  H143  1  0.940900  0.383400  0.523200  1
  H  H144  1  0.440900  0.616600  0.976800  1
  H  H145  1  0.143400  0.448200  0.446700  1
  H  H146  1  0.643400  0.551800  0.053300  1
  H  H147  1  0.856600  0.551800  0.553300  1
  H  H148  1  0.356600  0.448200  0.946700  1
  H  H149  1  0.137700  0.385900  0.425500  1
  H  H150  1  0.637700  0.614100  0.074500  1
  H  H151  1  0.862300  0.614100  0.574500  1
  H  H152  1  0.362300  0.385900  0.925500  1
  H  H153  1  0.189000  0.353900  0.428600  1
  H  H154  1  0.689000  0.646100  0.071400  1
  H  H155  1  0.811000  0.646100  0.571400  1
  H  H156  1  0.311000  0.353900  0.928600  1
  H  H157  1  0.245500  0.350000  0.463600  1
  H  H158  1  0.745500  0.650000  0.036400  1
  H  H159  1  0.754500  0.650000  0.536400  1
  H  H160  1  0.254500  0.350000  0.963600  1
  H  H161  1  0.276200  0.366000  0.507100  1
  H  H162  1  0.776200  0.634000  0.992900  1
  H  H163  1  0.723800  0.634000  0.492900  1
  H  H164  1  0.223800  0.366000  0.007100  1
  H  H165  1  0.295700  0.421900  0.557700  1
  H  H166  1  0.795700  0.578100  0.942300  1
  H  H167  1  0.704300  0.578100  0.442300  1
  H  H168  1  0.204300  0.421900  0.057700  1
  H  H169  1  0.279200  0.477600  0.588100  1
  H  H170  1  0.779200  0.522400  0.911900  1
  H  H171  1  0.720800  0.522400  0.411900  1
  H  H172  1  0.220800  0.477600  0.088100  1
  H  H173  1  0.237500  0.531200  0.586600  1
  H  H174  1  0.737500  0.468800  0.913400  1
  H  H175  1  0.762500  0.468800  0.413400  1
  H  H176  1  0.262500  0.531200  0.086600  1
  H  H177  1  0.204700  0.563700  0.521400  1
  H  H178  1  0.704700  0.436300  0.978600  1
  H  H179  1  0.795300  0.436300  0.478600  1
  H  H180  1  0.295300  0.563700  0.021400  1
  H  H181  1  0.169200  0.615400  0.527400  1
  H  H182  1  0.669200  0.384600  0.972600  1
  H  H183  1  0.830800  0.384600  0.472600  1
  H  H184  1  0.330800  0.615400  0.027400  1
  H  H185  1  0.119400  0.591400  0.602500  1
  H  H186  1  0.619400  0.408600  0.897500  1
  H  H187  1  0.880600  0.408600  0.397500  1
  H  H188  1  0.380600  0.591400  0.102500  1
  H  H189  1  0.155100  0.539600  0.596300  1
  H  H190  1  0.655100  0.460400  0.903700  1
  H  H191  1  0.844900  0.460400  0.403700  1
  H  H192  1  0.344900  0.539600  0.096300  1
  H  H193  1  0.100000  0.638600  0.608500  1
  H  H194  1  0.600000  0.361400  0.891500  1
  H  H195  1  0.900000  0.361400  0.391500  1
  H  H196  1  0.400000  0.638600  0.108500  1
  H  H197  1  0.546100  0.636300  0.509500  1
  H  H198  1  0.046100  0.363700  0.990500  1
  H  H199  1  0.453900  0.363700  0.490500  1
  H  H200  1  0.953900  0.636300  0.009500  1
  H  H201  1  0.591800  0.670100  0.540600  1
  H  H202  1  0.091800  0.329900  0.959400  1
  H  H203  1  0.408200  0.329900  0.459400  1
  H  H204  1  0.908200  0.670100  0.040600  1
  H  H205  1  0.576600  0.712600  0.582300  1
  H  H206  1  0.076600  0.287400  0.917700  1
  H  H207  1  0.423400  0.287400  0.417700  1
  H  H208  1  0.923400  0.712600  0.082300  1
  H  H209  1  0.531100  0.730600  0.631100  1
  H  H210  1  0.031100  0.269400  0.868900  1
  H  H211  1  0.468900  0.269400  0.368900  1
  H  H212  1  0.968900  0.730600  0.131100  1
  H  H213  1  0.477300  0.725900  0.650800  1
  H  H214  1  0.977300  0.274100  0.849200  1
  H  H215  1  0.522700  0.274100  0.349200  1
  H  H216  1  0.022700  0.725900  0.150800  1
  H  H217  1  0.412500  0.690400  0.641300  1
  H  H218  1  0.912500  0.309600  0.858700  1
  H  H219  1  0.587500  0.309600  0.358700  1
  H  H220  1  0.087500  0.690400  0.141300  1
  H  H221  1  0.378300  0.648600  0.608300  1
  H  H222  1  0.878300  0.351400  0.891700  1
  H  H223  1  0.621700  0.351400  0.391700  1
  H  H224  1  0.121700  0.648600  0.108300  1
  H  H225  1  0.376100  0.604300  0.548000  1
  H  H226  1  0.876100  0.395700  0.952000  1
  H  H227  1  0.623900  0.395700  0.452000  1
  H  H228  1  0.123900  0.604300  0.048000  1
  H  H229  1  0.354600  0.612800  0.497700  1
  H  H230  1  0.854600  0.387200  0.002300  1
  H  H231  1  0.645400  0.387200  0.502300  1
  H  H232  1  0.145400  0.612800  0.997700  1
  H  H233  1  0.323700  0.578200  0.455700  1
  H  H234  1  0.823700  0.421800  0.044300  1
  H  H235  1  0.676300  0.421800  0.544300  1
  H  H236  1  0.176300  0.578200  0.955700  1
  H  H237  1  0.405700  0.509500  0.438700  1
  H  H238  1  0.905700  0.490500  0.061300  1
  H  H239  1  0.594300  0.490500  0.561300  1
  H  H240  1  0.094300  0.509500  0.938700  1
  H  H241  1  0.436600  0.544100  0.480800  1
  H  H242  1  0.936600  0.455900  0.019200  1
  H  H243  1  0.563400  0.455900  0.519200  1
  H  H244  1  0.063400  0.544100  0.980800  1
  H  H245  1  0.218300  0.527400  0.218600  1
  H  H246  1  0.718300  0.472600  0.281400  1
  H  H247  1  0.781700  0.472600  0.781400  1
  H  H248  1  0.281700  0.527400  0.718600  1
  H  H249  1  0.202600  0.532300  0.168200  1
  H  H250  1  0.702600  0.467700  0.331800  1
  H  H251  1  0.797400  0.467700  0.831800  1
  H  H252  1  0.297400  0.532300  0.668200  1
  H  H253  1  0.230900  0.563300  0.138400  1
  H  H254  1  0.730900  0.436700  0.361600  1
  H  H255  1  0.769100  0.436700  0.861600  1
  H  H256  1  0.269100  0.563300  0.638400  1
  H  H257  1  0.280800  0.606700  0.136500  1
  H  H258  1  0.780800  0.393300  0.363500  1
  H  H259  1  0.719200  0.393300  0.863500  1
  H  H260  1  0.219200  0.606700  0.636500  1
  H  H261  1  0.335400  0.627400  0.157400  1
  H  H262  1  0.835400  0.372600  0.342600  1
  H  H263  1  0.664600  0.372600  0.842600  1
  H  H264  1  0.164600  0.627400  0.657400  1
  H  H265  1  0.380100  0.635400  0.206700  1
  H  H266  1  0.880100  0.364600  0.293300  1
  H  H267  1  0.619900  0.364600  0.793300  1
  H  H268  1  0.119900  0.635400  0.706700  1
  H  H269  1  0.391600  0.623700  0.253200  1
  H  H270  1  0.891600  0.376300  0.246800  1
  H  H271  1  0.608400  0.376300  0.746800  1
  H  H272  1  0.108400  0.623700  0.753200  1
  H  H273  1  0.372600  0.584800  0.297700  1
  H  H274  1  0.872600  0.415200  0.202300  1
  H  H275  1  0.627400  0.415200  0.702300  1
  H  H276  1  0.127400  0.584800  0.797700  1
  H  H277  1  0.292200  0.578000  0.348700  1
  H  H278  1  0.792200  0.422000  0.151300  1
  H  H279  1  0.707800  0.422000  0.651300  1
  H  H280  1  0.207800  0.578000  0.848700  1
  H  H281  1  0.295700  0.562900  0.394900  1
  H  H282  1  0.795700  0.437100  0.105100  1
  H  H283  1  0.704300  0.437100  0.605100  1
  H  H284  1  0.204300  0.562900  0.894900  1
  H  H285  1  0.374400  0.498900  0.358500  1
  H  H286  1  0.874400  0.501100  0.141500  1
  H  H287  1  0.625600  0.501100  0.641500  1
  H  H288  1  0.125600  0.498900  0.858500  1
  H  H289  1  0.378200  0.524100  0.316600  1
  H  H290  1  0.878200  0.475900  0.183400  1
  H  H291  1  0.621800  0.475900  0.683400  1
  H  H292  1  0.121800  0.524100  0.816600  1
  H  H293  1  0.172600  0.442200  0.566900  1
  H  H294  1  0.672600  0.557800  0.933100  1
  H  H295  1  0.827400  0.557800  0.433100  1
  H  H296  1  0.327400  0.442200  0.066900  1
  H  H297  1  0.127700  0.437300  0.601900  1
  H  H298  1  0.627700  0.562700  0.898100  1
  H  H299  1  0.872300  0.562700  0.398100  1
  H  H300  1  0.372300  0.437300  0.101900  1
  H  H301  1  0.076400  0.471000  0.603800  1
  H  H302  1  0.576400  0.529000  0.896200  1
  H  H303  1  0.923600  0.529000  0.396200  1
  H  H304  1  0.423600  0.471000  0.103800  1
  H  H305  1  0.036200  0.503100  0.568600  1
  H  H306  1  0.536200  0.496900  0.931400  1
  H  H307  1  0.963800  0.496900  0.431400  1
  H  H308  1  0.463800  0.503100  0.068600  1
  H  H309  1  0.030800  0.527700  0.528500  1
  H  H310  1  0.530800  0.472300  0.971500  1
  H  H311  1  0.969200  0.472300  0.471500  1
  H  H312  1  0.469200  0.527700  0.028500  1
  H  H313  1  0.063600  0.550600  0.479000  1
  H  H314  1  0.563600  0.449400  0.021000  1
  H  H315  1  0.936400  0.449400  0.521000  1
  H  H316  1  0.436400  0.550600  0.979000  1
  H  H317  1  0.111100  0.545400  0.445000  1
  H  H318  1  0.611100  0.454600  0.055000  1
  H  H319  1  0.888900  0.454600  0.555000  1
  H  H320  1  0.388900  0.545400  0.945000  1
  H  H321  1  0.178500  0.528000  0.440100  1
  H  H322  1  0.678500  0.472000  0.059900  1
  H  H323  1  0.821500  0.472000  0.559900  1
  H  H324  1  0.321500  0.528000  0.940100  1
  H  H325  1  0.221900  0.486800  0.410700  1
  H  H326  1  0.721900  0.513200  0.089300  1
  H  H327  1  0.778100  0.513200  0.589300  1
  H  H328  1  0.278100  0.486800  0.910700  1
  H  H329  1  0.276200  0.494000  0.389300  1
  H  H330  1  0.776200  0.506000  0.110700  1
  H  H331  1  0.723800  0.506000  0.610700  1
  H  H332  1  0.223800  0.494000  0.889300  1
  H  H333  1  0.317400  0.515300  0.474400  1
  H  H334  1  0.817400  0.484700  0.025600  1
  H  H335  1  0.682600  0.484700  0.525600  1
  H  H336  1  0.182600  0.515300  0.974400  1
  H  H337  1  0.263300  0.511200  0.496800  1
  H  H338  1  0.763300  0.488800  0.003200  1
  H  H339  1  0.736700  0.488800  0.503200  1
  H  H340  1  0.236700  0.511200  0.996800  1
  H  H341  1  0.360000  0.477300  0.388100  1
  H  H342  1  0.860000  0.522700  0.111900  1
  H  H343  1  0.640000  0.522700  0.611900  1
  H  H344  1  0.140000  0.477300  0.888100  1
  H  H345  1  0.187300  0.809600  0.702400  1
  H  H346  1  0.687300  0.190400  0.797600  1
  H  H347  1  0.812700  0.190400  0.297600  1
  H  H348  1  0.312700  0.809600  0.202400  1
  H  H349  1  0.140600  0.815200  0.737400  1
  H  H350  1  0.640600  0.184800  0.762600  1
  H  H351  1  0.859400  0.184800  0.262600  1
  H  H352  1  0.359400  0.815200  0.237400  1
  H  H353  1  0.134500  0.781700  0.771700  1
  H  H354  1  0.634500  0.218300  0.728300  1
  H  H355  1  0.865500  0.218300  0.228300  1
  H  H356  1  0.365500  0.781700  0.271700  1
  H  H357  1  0.142300  0.713300  0.774800  1
  H  H358  1  0.642300  0.286700  0.725200  1
  H  H359  1  0.857700  0.286700  0.225200  1
  H  H360  1  0.357700  0.713300  0.274800  1
  H  H361  1  0.180500  0.667200  0.764700  1
  H  H362  1  0.680500  0.332800  0.735300  1
  H  H363  1  0.819500  0.332800  0.235300  1
  H  H364  1  0.319500  0.667200  0.264700  1
  H  H365  1  0.238700  0.638800  0.731100  1
  H  H366  1  0.738700  0.361200  0.768900  1
  H  H367  1  0.761300  0.361200  0.268900  1
  H  H368  1  0.261300  0.638800  0.231100  1
  H  H369  1  0.282500  0.641400  0.696800  1
  H  H370  1  0.782500  0.358600  0.803200  1
  H  H371  1  0.717500  0.358600  0.303200  1
  H  H372  1  0.217500  0.641400  0.196800  1
  H  H373  1  0.309800  0.676500  0.653800  1
  H  H374  1  0.809800  0.323500  0.846200  1
  H  H375  1  0.690200  0.323500  0.346200  1
  H  H376  1  0.190200  0.676500  0.153800  1
  H  H377  1  0.272200  0.726500  0.594400  1
  H  H378  1  0.772200  0.273500  0.905600  1
  H  H379  1  0.727800  0.273500  0.405600  1
  H  H380  1  0.227800  0.726500  0.094400  1
  H  H381  1  0.306300  0.740400  0.556200  1
  H  H382  1  0.806300  0.259600  0.943800  1
  H  H383  1  0.693700  0.259600  0.443800  1
  H  H384  1  0.193700  0.740400  0.056200  1
  H  H385  1  0.388400  0.758500  0.615400  1
  H  H386  1  0.888400  0.241500  0.884600  1
  H  H387  1  0.611600  0.241500  0.384600  1
  H  H388  1  0.111600  0.758500  0.115400  1
  H  H389  1  0.356300  0.737800  0.651400  1
  H  H390  1  0.856300  0.262200  0.848600  1
  H  H391  1  0.643700  0.262200  0.348600  1
  H  H392  1  0.143700  0.737800  0.151400  1
  H  H393  1  0.474100  0.592600  0.578400  1
  H  H394  1  0.974100  0.407400  0.921600  1
  H  H395  1  0.525900  0.407400  0.421600  1
  H  H396  1  0.025900  0.592600  0.078400  1
  H  H397  1  0.507700  0.542100  0.585100  1
  H  H398  1  0.007700  0.457900  0.914900  1
  H  H399  1  0.492300  0.457900  0.414900  1
  H  H400  1  0.992300  0.542100  0.085100  1
  H  H401  1  0.536300  0.506200  0.544500  1
  H  H402  1  0.036300  0.493800  0.955500  1
  H  H403  1  0.463700  0.493800  0.455500  1
  H  H404  1  0.963700  0.506200  0.044500  1
  H  H405  1  0.556800  0.493500  0.487800  1
  H  H406  1  0.056800  0.506500  0.012200  1
  H  H407  1  0.443200  0.506500  0.512200  1
  H  H408  1  0.943200  0.493500  0.987800  1
  H  H409  1  0.558800  0.508800  0.442200  1
  H  H410  1  0.058800  0.491200  0.057800  1
  H  H411  1  0.441200  0.491200  0.557800  1
  H  H412  1  0.941200  0.508800  0.942200  1
  H  H413  1  0.533000  0.550000  0.406100  1
  H  H414  1  0.033000  0.450000  0.093900  1
  H  H415  1  0.467000  0.450000  0.593900  1
  H  H416  1  0.967000  0.550000  0.906100  1
  H  H417  1  0.506500  0.603500  0.406400  1
  H  H418  1  0.006500  0.396500  0.093600  1
  H  H419  1  0.493500  0.396500  0.593600  1
  H  H420  1  0.993500  0.603500  0.906400  1
  H  H421  1  0.464500  0.658700  0.445200  1
  H  H422  1  0.964500  0.341300  0.054800  1
  H  H423  1  0.535500  0.341300  0.554800  1
  H  H424  1  0.035500  0.658700  0.945200  1
  H  H425  1  0.388900  0.653500  0.499000  1
  H  H426  1  0.888900  0.346500  0.001000  1
  H  H427  1  0.611100  0.346500  0.501000  1
  H  H428  1  0.111100  0.653500  0.999000  1
  H  H429  1  0.356000  0.700800  0.527900  1
  H  H430  1  0.856000  0.299200  0.972100  1
  H  H431  1  0.644000  0.299200  0.472100  1
  H  H432  1  0.144000  0.700800  0.027900  1
  H  H433  1  0.446000  0.758200  0.547600  1
  H  H434  1  0.946000  0.241800  0.952400  1
  H  H435  1  0.554000  0.241800  0.452400  1
  H  H436  1  0.054000  0.758200  0.047600  1
  H  H437  1  0.478800  0.710900  0.518700  1
  H  H438  1  0.978800  0.289100  0.981300  1
  H  H439  1  0.521200  0.289100  0.481300  1
  H  H440  1  0.021200  0.710900  0.018700  1
  H  H441  1  0.356000  0.850200  0.356300  1
  H  H442  1  0.856000  0.149800  0.143700  1
  H  H443  1  0.644000  0.149800  0.643700  1
  H  H444  1  0.144000  0.850200  0.856300  1
  H  H445  1  0.343000  0.855600  0.306100  1
  H  H446  1  0.843000  0.144400  0.193900  1
  H  H447  1  0.657000  0.144400  0.693900  1
  H  H448  1  0.157000  0.855600  0.806100  1
  H  H449  1  0.286800  0.845100  0.285500  1
  H  H450  1  0.786800  0.154900  0.214500  1
  H  H451  1  0.713200  0.154900  0.714500  1
  H  H452  1  0.213200  0.845100  0.785500  1
  H  H453  1  0.219400  0.832100  0.300300  1
  H  H454  1  0.719400  0.167900  0.199700  1
  H  H455  1  0.780600  0.167900  0.699700  1
  H  H456  1  0.280600  0.832100  0.800300  1
  H  H457  1  0.181100  0.820400  0.335500  1
  H  H458  1  0.681100  0.179600  0.164500  1
  H  H459  1  0.818900  0.179600  0.664500  1
  H  H460  1  0.318900  0.820400  0.835500  1
  H  H461  1  0.168500  0.804300  0.394200  1
  H  H462  1  0.668500  0.195700  0.105800  1
  H  H463  1  0.831500  0.195700  0.605800  1
  H  H464  1  0.331500  0.804300  0.894200  1
  H  H465  1  0.191700  0.798200  0.440700  1
  H  H466  1  0.691700  0.201800  0.059300  1
  H  H467  1  0.808300  0.201800  0.559300  1
  H  H468  1  0.308300  0.798200  0.940700  1
  H  H469  1  0.252900  0.797200  0.472300  1
  H  H470  1  0.752900  0.202800  0.027700  1
  H  H471  1  0.747100  0.202800  0.527700  1
  H  H472  1  0.247100  0.797200  0.972300  1
  H  H473  1  0.352800  0.765400  0.452700  1
  H  H474  1  0.852800  0.234600  0.047300  1
  H  H475  1  0.647200  0.234600  0.547300  1
  H  H476  1  0.147200  0.765400  0.952700  1
  H  H477  1  0.384200  0.747700  0.491900  1
  H  H478  1  0.884200  0.252300  0.008100  1
  H  H479  1  0.615800  0.252300  0.508100  1
  H  H480  1  0.115800  0.747700  0.991900  1
  H  H481  1  0.323700  0.811800  0.557100  1
  H  H482  1  0.823700  0.188200  0.942900  1
  H  H483  1  0.676300  0.188200  0.442900  1
  H  H484  1  0.176300  0.811800  0.057100  1
  H  H485  1  0.292200  0.829500  0.518000  1
  H  H486  1  0.792200  0.170500  0.982000  1
  H  H487  1  0.707800  0.170500  0.482000  1
  H  H488  1  0.207800  0.829500  0.018000  1
  H  H489  1  0.413600  0.776100  0.583100  1
  H  H490  1  0.913600  0.223900  0.916900  1
  H  H491  1  0.586400  0.223900  0.416900  1
  H  H492  1  0.086400  0.776100  0.083100  1
  H  H493  1  0.268200  0.884600  0.456700  1
  H  H494  1  0.768200  0.115400  0.043300  1
  H  H495  1  0.731800  0.115400  0.543300  1
  H  H496  1  0.231800  0.884600  0.956700  1
  H  H497  1  0.284900  0.930200  0.499800  1
  H  H498  1  0.784900  0.069800  0.000200  1
  H  H499  1  0.715100  0.069800  0.500200  1
  H  H500  1  0.215100  0.930200  0.999800  1
  H  H501  1  0.341500  0.942300  0.511400  1
  H  H502  1  0.841500  0.057700  0.988600  1
  H  H503  1  0.658500  0.057700  0.488600  1
  H  H504  1  0.158500  0.942300  0.011400  1
  H  H505  1  0.409300  0.930400  0.492500  1
  H  H506  1  0.909300  0.069600  0.007500  1
  H  H507  1  0.590700  0.069600  0.507500  1
  H  H508  1  0.090700  0.930400  0.992500  1
  H  H509  1  0.449800  0.892300  0.466700  1
  H  H510  1  0.949800  0.107700  0.033300  1
  H  H511  1  0.550200  0.107700  0.533300  1
  H  H512  1  0.050200  0.892300  0.966700  1
  H  H513  1  0.457900  0.834400  0.417000  1
  H  H514  1  0.957900  0.165600  0.083000  1
  H  H515  1  0.542100  0.165600  0.583000  1
  H  H516  1  0.042100  0.834400  0.917000  1
  H  H517  1  0.432700  0.788100  0.381000  1
  H  H518  1  0.932700  0.211900  0.119000  1
  H  H519  1  0.567300  0.211900  0.619000  1
  H  H520  1  0.067300  0.788100  0.881000  1
  H  H521  1  0.368000  0.759300  0.358300  1
  H  H522  1  0.868000  0.240700  0.141700  1
  H  H523  1  0.632000  0.240700  0.641700  1
  H  H524  1  0.132000  0.759300  0.858300  1
  H  H525  1  0.306500  0.773100  0.322900  1
  H  H526  1  0.806500  0.226900  0.177100  1
  H  H527  1  0.693500  0.226900  0.677100  1
  H  H528  1  0.193500  0.773100  0.822900  1
  H  H529  1  0.258500  0.740100  0.297600  1
  H  H530  1  0.758500  0.259900  0.202400  1
  H  H531  1  0.741500  0.259900  0.702400  1
  H  H532  1  0.241500  0.740100  0.797600  1
  H  H533  1  0.235400  0.711400  0.378600  1
  H  H534  1  0.735400  0.288600  0.121400  1
  H  H535  1  0.764600  0.288600  0.621400  1
  H  H536  1  0.264600  0.711400  0.878600  1
  H  H537  1  0.283600  0.745200  0.404600  1
  H  H538  1  0.783600  0.254800  0.095400  1
  H  H539  1  0.716400  0.254800  0.595400  1
  H  H540  1  0.216400  0.745200  0.904600  1
  H  H541  1  0.999800  0.646700  0.418200  1
  H  H542  1  0.499800  0.353300  0.081800  1
  H  H543  1  0.000200  0.353300  0.581800  1
  H  H544  1  0.500200  0.646700  0.918200  1
  H  H545  1  0.951800  0.636600  0.449700  1
  H  H546  1  0.451800  0.363400  0.050300  1
  H  H547  1  0.048200  0.363400  0.550300  1
  H  H548  1  0.548200  0.636600  0.949700  1
  H  H549  1  0.948100  0.653000  0.501900  1
  H  H550  1  0.448100  0.347000  0.998100  1
  H  H551  1  0.051900  0.347000  0.498100  1
  H  H552  1  0.551900  0.653000  0.001900  1
  H  H553  1  0.980700  0.681500  0.553400  1
  H  H554  1  0.480700  0.318500  0.946600  1
  H  H555  1  0.019300  0.318500  0.446600  1
  H  H556  1  0.519300  0.681500  0.053400  1
  H  H557  1  0.021200  0.725100  0.576500  1
  H  H558  1  0.521200  0.274900  0.923500  1
  H  H559  1  0.978800  0.274900  0.423500  1
  H  H560  1  0.478800  0.725100  0.076500  1
  H  H561  1  0.086800  0.754100  0.565300  1
  H  H562  1  0.586800  0.245900  0.934700  1
  H  H563  1  0.913200  0.245900  0.434700  1
  H  H564  1  0.413200  0.754100  0.065300  1
  H  H565  1  0.122900  0.764000  0.527700  1
  H  H566  1  0.622900  0.236000  0.972300  1
  H  H567  1  0.877100  0.236000  0.472300  1
  H  H568  1  0.377100  0.764000  0.027700  1
  H  H569  1  0.137400  0.753300  0.460700  1
  H  H570  1  0.637400  0.246700  0.039300  1
  H  H571  1  0.862600  0.246700  0.539300  1
  H  H572  1  0.362600  0.753300  0.960700  1
  H  H573  1  0.158000  0.667300  0.403900  1
  H  H574  1  0.658000  0.332700  0.096100  1
  H  H575  1  0.842000  0.332700  0.596100  1
  H  H576  1  0.342000  0.667300  0.903900  1
  H  H577  1  0.196000  0.663100  0.362800  1
  H  H578  1  0.696000  0.336900  0.137200  1
  H  H579  1  0.804000  0.336900  0.637200  1
  H  H580  1  0.304000  0.663100  0.862800  1
  H  H581  1  0.154700  0.750300  0.346300  1
  H  H582  1  0.654700  0.249700  0.153700  1
  H  H583  1  0.845300  0.249700  0.653700  1
  H  H584  1  0.345300  0.750300  0.846300  1
  H  H585  1  0.116500  0.753000  0.386200  1
  H  H586  1  0.616500  0.247000  0.113800  1
  H  H587  1  0.883500  0.247000  0.613800  1
  H  H588  1  0.383500  0.753000  0.886200  1
  H  H589  1  0.354200  0.537900  0.202600  1
  H  H590  1  0.854200  0.462100  0.297400  1
  H  H591  1  0.645800  0.462100  0.797400  1
  H  H592  1  0.145800  0.537900  0.702600  1
  H  H593  1  0.395100  0.490700  0.186900  1
  H  H594  1  0.895100  0.509300  0.313100  1
  H  H595  1  0.604900  0.509300  0.813100  1
  H  H596  1  0.104900  0.490700  0.686900  1
  H  H597  1  0.393600  0.444300  0.210000  1
  H  H598  1  0.893600  0.555700  0.290000  1
  H  H599  1  0.606400  0.555700  0.790000  1
  H  H600  1  0.106400  0.444300  0.710000  1
  H  H601  1  0.358600  0.415200  0.249400  1
  H  H602  1  0.858600  0.584800  0.250600  1
  H  H603  1  0.641400  0.584800  0.750600  1
  H  H604  1  0.141400  0.415200  0.749400  1
  H  H605  1  0.317700  0.416600  0.285100  1
  H  H606  1  0.817700  0.583400  0.214900  1
  H  H607  1  0.682300  0.583400  0.714900  1
  H  H608  1  0.182300  0.416600  0.785100  1
  H  H609  1  0.259100  0.449500  0.318700  1
  H  H610  1  0.759100  0.550500  0.181300  1
  H  H611  1  0.740900  0.550500  0.681300  1
  H  H612  1  0.240900  0.449500  0.818700  1
  H  H613  1  0.219300  0.496700  0.327000  1
  H  H614  1  0.719300  0.503300  0.173000  1
  H  H615  1  0.780700  0.503300  0.673000  1
  H  H616  1  0.280700  0.496700  0.827000  1
  H  H617  1  0.216600  0.561000  0.318200  1
  H  H618  1  0.716600  0.439000  0.181800  1
  H  H619  1  0.783400  0.439000  0.681800  1
  H  H620  1  0.283400  0.561000  0.818200  1
  H  H621  1  0.292300  0.622300  0.310600  1
  H  H622  1  0.792300  0.377700  0.189400  1
  H  H623  1  0.707700  0.377700  0.689400  1
  H  H624  1  0.207700  0.622300  0.810600  1
  H  H625  1  0.272400  0.680400  0.326800  1
  H  H626  1  0.772400  0.319600  0.173200  1
  H  H627  1  0.727600  0.319600  0.673200  1
  H  H628  1  0.227600  0.680400  0.826800  1
  H  H629  1  0.178000  0.652000  0.284800  1
  H  H630  1  0.678000  0.348000  0.215200  1
  H  H631  1  0.822000  0.348000  0.715200  1
  H  H632  1  0.322000  0.652000  0.784800  1
  H  H633  1  0.197900  0.593900  0.268600  1
  H  H634  1  0.697900  0.406100  0.231400  1
  H  H635  1  0.802100  0.406100  0.731400  1
  H  H636  1  0.302100  0.593900  0.768600  1
  H  H637  1  0.196300  0.697700  0.278900  1
  H  H638  1  0.696300  0.302300  0.221100  1
  H  H639  1  0.803700  0.302300  0.721100  1
  H  H640  1  0.303700  0.697700  0.778900  1
  H  H641  1  0.646400  0.647500  0.707200  1
  H  H642  1  0.146400  0.352500  0.792800  1
  H  H643  1  0.353600  0.352500  0.292800  1
  H  H644  1  0.853600  0.647500  0.207200  1
  H  H645  1  0.661300  0.633000  0.753900  1
  H  H646  1  0.161300  0.367000  0.746100  1
  H  H647  1  0.338700  0.367000  0.246100  1
  H  H648  1  0.838700  0.633000  0.253900  1
  H  H649  1  0.718200  0.637200  0.771900  1
  H  H650  1  0.218200  0.362800  0.728100  1
  H  H651  1  0.281800  0.362800  0.228100  1
  H  H652  1  0.781800  0.637200  0.271900  1
  H  H653  1  0.785700  0.648500  0.759300  1
  H  H654  1  0.285700  0.351500  0.740700  1
  H  H655  1  0.214300  0.351500  0.240700  1
  H  H656  1  0.714300  0.648500  0.259300  1
  H  H657  1  0.824800  0.666400  0.726900  1
  H  H658  1  0.324800  0.333600  0.773100  1
  H  H659  1  0.175200  0.333600  0.273100  1
  H  H660  1  0.675200  0.666400  0.226900  1
  H  H661  1  0.833000  0.687800  0.672200  1
  H  H662  1  0.333000  0.312200  0.827800  1
  H  H663  1  0.167000  0.312200  0.327800  1
  H  H664  1  0.667000  0.687800  0.172200  1
  H  H665  1  0.811000  0.695000  0.625700  1
  H  H666  1  0.311000  0.305000  0.874300  1
  H  H667  1  0.189000  0.305000  0.374300  1
  H  H668  1  0.689000  0.695000  0.125700  1
  H  H669  1  0.748900  0.703000  0.595400  1
  H  H670  1  0.248900  0.297000  0.904600  1
  H  H671  1  0.251100  0.297000  0.404600  1
  H  H672  1  0.751100  0.703000  0.095400  1
  H  H673  1  0.656200  0.737200  0.609900  1
  H  H674  1  0.156200  0.262800  0.890100  1
  H  H675  1  0.343800  0.262800  0.390100  1
  H  H676  1  0.843800  0.737200  0.109900  1
  H  H677  1  0.625200  0.753200  0.569600  1
  H  H678  1  0.125200  0.246800  0.930400  1
  H  H679  1  0.374800  0.246800  0.430400  1
  H  H680  1  0.874800  0.753200  0.069600  1
  H  H681  1  0.673200  0.674500  0.507000  1
  H  H682  1  0.173200  0.325500  0.993000  1
  H  H683  1  0.326800  0.325500  0.493000  1
  H  H684  1  0.826800  0.674500  0.007000  1
  H  H685  1  0.704300  0.658600  0.547200  1
  H  H686  1  0.204300  0.341400  0.952800  1
  H  H687  1  0.295700  0.341400  0.452800  1
  H  H688  1  0.795700  0.658600  0.047200  1
  H  H689  1  0.819000  0.678300  0.347700  1
  H  H690  1  0.319000  0.321700  0.152300  1
  H  H691  1  0.181000  0.321700  0.652300  1
  H  H692  1  0.681000  0.678300  0.847700  1
  H  H693  1  0.859600  0.678000  0.308200  1
  H  H694  1  0.359600  0.322000  0.191800  1
  H  H695  1  0.140400  0.322000  0.691800  1
  H  H696  1  0.640400  0.678000  0.808200  1
  H  H697  1  0.875000  0.721900  0.285800  1
  H  H698  1  0.375000  0.278100  0.214200  1
  H  H699  1  0.125000  0.278100  0.714200  1
  H  H700  1  0.625000  0.721900  0.785800  1
  H  H701  1  0.862200  0.786000  0.284900  1
  H  H702  1  0.362200  0.214000  0.215100  1
  H  H703  1  0.137800  0.214000  0.715100  1
  H  H704  1  0.637800  0.786000  0.784900  1
  H  H705  1  0.820700  0.830600  0.298200  1
  H  H706  1  0.320700  0.169400  0.201800  1
  H  H707  1  0.179300  0.169400  0.701800  1
  H  H708  1  0.679300  0.830600  0.798200  1
  H  H709  1  0.765000  0.856800  0.335300  1
  H  H710  1  0.265000  0.143200  0.164700  1
  H  H711  1  0.235000  0.143200  0.664700  1
  H  H712  1  0.735000  0.856800  0.835300  1
  H  H713  1  0.723700  0.850300  0.369800  1
  H  H714  1  0.223700  0.149700  0.130200  1
  H  H715  1  0.276300  0.149700  0.630200  1
  H  H716  1  0.776300  0.850300  0.869800  1
  H  H717  1  0.696000  0.809600  0.409900  1
  H  H718  1  0.196000  0.190400  0.090100  1
  H  H719  1  0.304000  0.190400  0.590100  1
  H  H720  1  0.804000  0.809600  0.909900  1
  H  H721  1  0.649800  0.758100  0.411200  1
  H  H722  1  0.149800  0.241900  0.088800  1
  H  H723  1  0.350200  0.241900  0.588800  1
  H  H724  1  0.850200  0.758100  0.911200  1
  H  H725  1  0.615300  0.737600  0.446500  1
  H  H726  1  0.115300  0.262400  0.053500  1
  H  H727  1  0.384700  0.262400  0.553500  1
  H  H728  1  0.884700  0.737600  0.946500  1
  H  H729  1  0.700200  0.737200  0.501100  1
  H  H730  1  0.200200  0.262800  0.998900  1
  H  H731  1  0.299800  0.262800  0.498900  1
  H  H732  1  0.799800  0.737200  0.001100  1
  H  H733  1  0.735200  0.755000  0.465000  1
  H  H734  1  0.235200  0.245000  0.035000  1
  H  H735  1  0.264800  0.245000  0.535000  1
  H  H736  1  0.764800  0.755000  0.965000  1
  H  H737  1  0.526300  0.906600  0.484400  1
  H  H738  1  0.026300  0.093400  0.015600  1
  H  H739  1  0.473700  0.093400  0.515600  1
  H  H740  1  0.973700  0.906600  0.984400  1
  H  H741  1  0.492000  0.956700  0.479600  1
  H  H742  1  0.992000  0.043300  0.020400  1
  H  H743  1  0.508000  0.043300  0.520400  1
  H  H744  1  0.008000  0.956700  0.979600  1
  H  H745  1  0.468000  0.991400  0.523500  1
  H  H746  1  0.968000  0.008600  0.976500  1
  H  H747  1  0.532000  0.008600  0.476500  1
  H  H748  1  0.032000  0.991400  0.023500  1
  H  H749  1  0.450100  0.997800  0.583200  1
  H  H750  1  0.950100  0.002200  0.916800  1
  H  H751  1  0.549900  0.002200  0.416800  1
  H  H752  1  0.049900  0.997800  0.083200  1
  H  H753  1  0.449900  0.979400  0.626100  1
  H  H754  1  0.949900  0.020600  0.873900  1
  H  H755  1  0.550100  0.020600  0.373900  1
  H  H756  1  0.050100  0.979400  0.126100  1
  H  H757  1  0.470100  0.927800  0.659100  1
  H  H758  1  0.970100  0.072200  0.840900  1
  H  H759  1  0.529900  0.072200  0.340900  1
  H  H760  1  0.029900  0.927800  0.159100  1
  H  H761  1  0.508300  0.879900  0.657200  1
  H  H762  1  0.008300  0.120100  0.842800  1
  H  H763  1  0.491700  0.120100  0.342800  1
  H  H764  1  0.991700  0.879900  0.157200  1
  H  H765  1  0.543500  0.829800  0.614100  1
  H  H766  1  0.043500  0.170200  0.885900  1
  H  H767  1  0.456500  0.170200  0.385900  1
  H  H768  1  0.956500  0.829800  0.114100  1
  H  H769  1  0.615200  0.841400  0.551400  1
  H  H770  1  0.115200  0.158600  0.948600  1
  H  H771  1  0.384800  0.158600  0.448600  1
  H  H772  1  0.884800  0.841400  0.051400  1
  H  H773  1  0.647900  0.793500  0.524300  1
  H  H774  1  0.147900  0.206500  0.975700  1
  H  H775  1  0.352100  0.206500  0.475700  1
  H  H776  1  0.852100  0.793500  0.024300  1
  H  H777  1  0.560500  0.733200  0.520400  1
  H  H778  1  0.060500  0.266800  0.979600  1
  H  H779  1  0.439500  0.266800  0.479600  1
  H  H780  1  0.939500  0.733200  0.020400  1
  H  H781  1  0.527300  0.781300  0.547500  1
  H  H782  1  0.027300  0.218700  0.952500  1
  H  H783  1  0.472700  0.218700  0.452500  1
  H  H784  1  0.972700  0.781300  0.047500  1
  H  H785  1  0.587600  0.717500  0.480700  1
  H  H786  1  0.087600  0.282500  0.019300  1
  H  H787  1  0.412400  0.282500  0.519300  1
  H  H788  1  0.912400  0.717500  0.980700  1
  H  H789  1  0.712000  0.758500  0.320400  1
  H  H790  1  0.212000  0.241500  0.179600  1
  H  H791  1  0.288000  0.241500  0.679600  1
  H  H792  1  0.788000  0.758500  0.820400  1
  H  H793  1  0.664900  0.730700  0.290600  1
  H  H794  1  0.164900  0.269300  0.209400  1
  H  H795  1  0.335100  0.269300  0.709400  1
  H  H796  1  0.835100  0.730700  0.790600  1
  H  H797  1  0.641400  0.679600  0.300000  1
  H  H798  1  0.141400  0.320400  0.200000  1
  H  H799  1  0.358600  0.320400  0.700000  1
  H  H800  1  0.858600  0.679600  0.800000  1
  H  H801  1  0.644500  0.636400  0.337400  1
  H  H802  1  0.144500  0.363600  0.162600  1
  H  H803  1  0.355500  0.363600  0.662600  1
  H  H804  1  0.855500  0.636400  0.837400  1
  H  H805  1  0.674700  0.616000  0.372900  1
  H  H806  1  0.174700  0.384000  0.127100  1
  H  H807  1  0.325300  0.384000  0.627100  1
  H  H808  1  0.825300  0.616000  0.872900  1
  H  H809  1  0.729400  0.624300  0.413700  1
  H  H810  1  0.229400  0.375700  0.086300  1
  H  H811  1  0.270600  0.375700  0.586300  1
  H  H812  1  0.770600  0.624300  0.913700  1
  H  H813  1  0.767000  0.663000  0.447400  1
  H  H814  1  0.267000  0.337000  0.052600  1
  H  H815  1  0.233000  0.337000  0.552600  1
  H  H816  1  0.733000  0.663000  0.947400  1
  H  H817  1  0.805800  0.720300  0.450500  1
  H  H818  1  0.305800  0.279700  0.049500  1
  H  H819  1  0.194200  0.279700  0.549500  1
  H  H820  1  0.694200  0.720300  0.950500  1
  H  H821  1  0.781500  0.810000  0.441300  1
  H  H822  1  0.281500  0.190000  0.058700  1
  H  H823  1  0.218500  0.190000  0.558700  1
  H  H824  1  0.718500  0.810000  0.941300  1
  H  H825  1  0.817000  0.851600  0.474500  1
  H  H826  1  0.317000  0.148400  0.025500  1
  H  H827  1  0.183000  0.148400  0.525500  1
  H  H828  1  0.683000  0.851600  0.974500  1
  H  H829  1  0.898400  0.782200  0.460900  1
  H  H830  1  0.398400  0.217800  0.039100  1
  H  H831  1  0.101600  0.217800  0.539100  1
  H  H832  1  0.601600  0.782200  0.960900  1
  H  H833  1  0.862900  0.740600  0.427700  1
  H  H834  1  0.362900  0.259400  0.072300  1
  H  H835  1  0.137100  0.259400  0.572300  1
  H  H836  1  0.637100  0.740600  0.927700  1
  H  H837  1  0.855800  0.043500  0.617300  1
  H  H838  1  0.355800  0.956500  0.882700  1
  H  H839  1  0.144200  0.956500  0.382700  1
  H  H840  1  0.644200  0.043500  0.117300  1
  H  H841  1  0.833300  0.083900  0.661900  1
  H  H842  1  0.333300  0.916100  0.838100  1
  H  H843  1  0.166700  0.916100  0.338100  1
  H  H844  1  0.666700  0.083900  0.161900  1
  H  H845  1  0.775100  0.099100  0.670300  1
  H  H846  1  0.275100  0.900900  0.829700  1
  H  H847  1  0.224900  0.900900  0.329700  1
  H  H848  1  0.724900  0.099100  0.170300  1
  H  H849  1  0.718200  0.109700  0.637600  1
  H  H850  1  0.218200  0.890300  0.862400  1
  H  H851  1  0.281800  0.890300  0.362400  1
  H  H852  1  0.781800  0.109700  0.137600  1
  H  H853  1  0.676300  0.071400  0.609500  1
  H  H854  1  0.176300  0.928600  0.890500  1
  H  H855  1  0.323700  0.928600  0.390500  1
  H  H856  1  0.823700  0.071400  0.109500  1
  H  H857  1  0.669000  0.031700  0.549400  1
  H  H858  1  0.169000  0.968300  0.950600  1
  H  H859  1  0.331000  0.968300  0.450600  1
  H  H860  1  0.831000  0.031700  0.049400  1
  H  H861  1  0.694000  0.988300  0.511500  1
  H  H862  1  0.194000  0.011700  0.988500  1
  H  H863  1  0.306000  0.011700  0.488500  1
  H  H864  1  0.806000  0.988300  0.011500  1
  H  H865  1  0.756100  0.946800  0.495500  1
  H  H866  1  0.256100  0.053200  0.004500  1
  H  H867  1  0.243900  0.053200  0.504500  1
  H  H868  1  0.743900  0.946800  0.995500  1
  H  H869  1  0.794300  0.912800  0.539100  1
  H  H870  1  0.294300  0.087200  0.960900  1
  H  H871  1  0.205700  0.087200  0.460900  1
  H  H872  1  0.705700  0.912800  0.039100  1
  H  H873  1  0.830800  0.862400  0.529300  1
  H  H874  1  0.330800  0.137600  0.970700  1
  H  H875  1  0.169200  0.137600  0.470700  1
  H  H876  1  0.669200  0.862400  0.029300  1
  H  H877  1  0.885900  0.900400  0.464800  1
  H  H878  1  0.385900  0.099600  0.035200  1
  H  H879  1  0.114100  0.099600  0.535200  1
  H  H880  1  0.614100  0.900400  0.964800  1
  H  H881  1  0.849600  0.951700  0.475100  1
  H  H882  1  0.349600  0.048300  0.024900  1
  H  H883  1  0.150400  0.048300  0.524900  1
  H  H884  1  0.650400  0.951700  0.975100  1
  H  H885  1  0.972300  0.719600  0.632900  1
  H  H886  1  0.472300  0.280400  0.867100  1
  H  H887  1  0.027700  0.280400  0.367100  1
  H  H888  1  0.527700  0.719600  0.132900  1
  H  H889  1  0.997800  0.693100  0.670700  1
  H  H890  1  0.497800  0.306900  0.829300  1
  H  H891  1  0.002200  0.306900  0.329300  1
  H  H892  1  0.502200  0.693100  0.170700  1
  H  H893  1  0.999600  0.721000  0.722100  1
  H  H894  1  0.499600  0.279000  0.777900  1
  H  H895  1  0.000400  0.279000  0.277900  1
  H  H896  1  0.500400  0.721000  0.222100  1
  H  H897  1  0.967700  0.771800  0.766500  1
  H  H898  1  0.467700  0.228200  0.733500  1
  H  H899  1  0.032300  0.228200  0.233500  1
  H  H900  1  0.532300  0.771800  0.266500  1
  H  H901  1  0.941300  0.824900  0.778400  1
  H  H902  1  0.441300  0.175100  0.721600  1
  H  H903  1  0.058700  0.175100  0.221600  1
  H  H904  1  0.558700  0.824900  0.278400  1
  H  H905  1  0.902100  0.877400  0.754200  1
  H  H906  1  0.402100  0.122600  0.745800  1
  H  H907  1  0.097900  0.122600  0.245800  1
  H  H908  1  0.597900  0.877400  0.254200  1
  H  H909  1  0.889500  0.897200  0.711100  1
  H  H910  1  0.389500  0.102800  0.788900  1
  H  H911  1  0.110500  0.102800  0.288900  1
  H  H912  1  0.610500  0.897200  0.211100  1
  H  H913  1  0.892100  0.879400  0.647300  1
  H  H914  1  0.392100  0.120600  0.852700  1
  H  H915  1  0.107900  0.120600  0.352700  1
  H  H916  1  0.607900  0.879400  0.147300  1
  H  H917  1  0.860100  0.807100  0.581000  1
  H  H918  1  0.360100  0.192900  0.919000  1
  H  H919  1  0.139900  0.192900  0.419000  1
  H  H920  1  0.639900  0.807100  0.081000  1
  H  H921  1  0.850400  0.811400  0.530900  1
  H  H922  1  0.350400  0.188600  0.969100  1
  H  H923  1  0.149600  0.188600  0.469100  1
  H  H924  1  0.649600  0.811400  0.030900  1
  H  H925  1  0.931600  0.876700  0.539400  1
  H  H926  1  0.431600  0.123300  0.960600  1
  H  H927  1  0.068400  0.123300  0.460600  1
  H  H928  1  0.568400  0.876700  0.039400  1
  H  H929  1  0.945700  0.868000  0.587200  1
  H  H930  1  0.445700  0.132000  0.912800  1
  H  H931  1  0.054300  0.132000  0.412800  1
  H  H932  1  0.554300  0.868000  0.087200  1
  H  H933  1  0.908900  0.852400  0.456300  1
  H  H934  1  0.408900  0.147600  0.043700  1
  H  H935  1  0.091100  0.147600  0.543700  1
  H  H936  1  0.591100  0.852400  0.956300  1
  H  H937  1  0.808100  0.046800  0.509200  1
  H  H938  1  0.308100  0.953200  0.990800  1
  H  H939  1  0.191900  0.953200  0.490800  1
  H  H940  1  0.691900  0.046800  0.009200  1
  H  H941  1  0.848400  0.061500  0.473500  1
  H  H942  1  0.348400  0.938500  0.026500  1
  H  H943  1  0.151600  0.938500  0.526500  1
  H  H944  1  0.651600  0.061500  0.973500  1
  H  H945  1  0.905800  0.043200  0.472000  1
  H  H946  1  0.405800  0.956800  0.028000  1
  H  H947  1  0.094200  0.956800  0.528000  1
  H  H948  1  0.594200  0.043200  0.972000  1
  H  H949  1  0.954300  0.007100  0.496100  1
  H  H950  1  0.454300  0.992900  0.003900  1
  H  H951  1  0.045700  0.992900  0.503900  1
  H  H952  1  0.545700  0.007100  0.996100  1
  H  H953  1  0.968500  0.977100  0.532100  1
  H  H954  1  0.468500  0.022900  0.967900  1
  H  H955  1  0.031500  0.022900  0.467900  1
  H  H956  1  0.531500  0.977100  0.032100  1
  H  H957  1  0.944200  0.948200  0.578700  1
  H  H958  1  0.444200  0.051800  0.921300  1
  H  H959  1  0.055800  0.051800  0.421300  1
  H  H960  1  0.555800  0.948200  0.078700  1
  H  H961  1  0.898000  0.939200  0.610700  1
  H  H962  1  0.398000  0.060800  0.889300  1
  H  H963  1  0.102000  0.060800  0.389300  1
  H  H964  1  0.602000  0.939200  0.110700  1
  H  H965  1  0.826900  0.949100  0.621800  1
  H  H966  1  0.326900  0.050900  0.878200  1
  H  H967  1  0.173100  0.050900  0.378200  1
  H  H968  1  0.673100  0.949100  0.121800  1
  H  H969  1  0.775500  0.013700  0.651800  1
  H  H970  1  0.275500  0.986300  0.848200  1
  H  H971  1  0.224500  0.986300  0.348200  1
  H  H972  1  0.724500  0.013700  0.151800  1
  H  H973  1  0.720900  0.012700  0.674500  1
  H  H974  1  0.220900  0.987300  0.825500  1
  H  H975  1  0.279100  0.987300  0.325500  1
  H  H976  1  0.779100  0.012700  0.174500  1
  H  H977  1  0.688600  0.940100  0.599000  1
  H  H978  1  0.188600  0.059900  0.901000  1
  H  H979  1  0.311400  0.059900  0.401000  1
  H  H980  1  0.811400  0.940100  0.099000  1
  H  H981  1  0.744000  0.940700  0.576600  1
  H  H982  1  0.244000  0.059300  0.923400  1
  H  H983  1  0.256000  0.059300  0.423400  1
  H  H984  1  0.756000  0.940700  0.076600  1
  H  H985  1  0.460200  0.852400  0.552100  1
  H  H986  1  0.960200  0.147600  0.947900  1
  H  H987  1  0.539800  0.147600  0.447900  1
  H  H988  1  0.039800  0.852400  0.052100  1
  H  H989  1  0.421300  0.811300  0.519300  1
  H  H990  1  0.921300  0.188700  0.980700  1
  H  H991  1  0.578700  0.188700  0.480700  1
  H  H992  1  0.078700  0.811300  0.019300  1
  H  H993  1  0.435800  0.778100  0.471800  1
  H  H994  1  0.935800  0.221900  0.028200  1
  H  H995  1  0.564200  0.221900  0.528200  1
  H  H996  1  0.064200  0.778100  0.971800  1
  H  H997  1  0.483300  0.762100  0.428100  1
  H  H998  1  0.983300  0.237900  0.071900  1
  H  H999  1  0.516700  0.237900  0.571900  1
  H  H1000  1  0.016700  0.762100  0.928100  1
  H  H1001  1  0.534400  0.777900  0.407600  1
  H  H1002  1  0.034400  0.222100  0.092400  1
  H  H1003  1  0.465600  0.222100  0.592400  1
  H  H1004  1  0.965600  0.777900  0.907600  1
  H  H1005  1  0.598300  0.813600  0.421300  1
  H  H1006  1  0.098300  0.186400  0.078700  1
  H  H1007  1  0.401700  0.186400  0.578700  1
  H  H1008  1  0.901700  0.813600  0.921300  1
  H  H1009  1  0.627400  0.856300  0.456100  1
  H  H1010  1  0.127400  0.143700  0.043900  1
  H  H1011  1  0.372600  0.143700  0.543900  1
  H  H1012  1  0.872600  0.856300  0.956100  1
  H  H1013  1  0.626700  0.897800  0.520700  1
  H  H1014  1  0.126700  0.102200  0.979300  1
  H  H1015  1  0.373300  0.102200  0.479300  1
  H  H1016  1  0.873300  0.897800  0.020700  1
  H  H1017  1  0.590400  0.884600  0.602300  1
  H  H1018  1  0.090400  0.115400  0.897700  1
  H  H1019  1  0.409600  0.115400  0.397700  1
  H  H1020  1  0.909600  0.884600  0.102300  1
  H  H1021  1  0.619400  0.916700  0.646700  1
  H  H1022  1  0.119400  0.083300  0.853300  1
  H  H1023  1  0.380600  0.083300  0.353300  1
  H  H1024  1  0.880600  0.916700  0.146700  1
  H  H1025  1  0.642500  0.992900  0.601900  1
  H  H1026  1  0.142500  0.007100  0.898100  1
  H  H1027  1  0.357500  0.007100  0.398100  1
  H  H1028  1  0.857500  0.992900  0.101900  1
  H  H1029  1  0.613500  0.960800  0.557500  1
  H  H1030  1  0.113500  0.039200  0.942500  1
  H  H1031  1  0.386500  0.039200  0.442500  1
  H  H1032  1  0.886500  0.960800  0.057500  1
  H  H1033  1  0.796500  0.966200  0.844200  1
  H  H1034  1  0.296500  0.033800  0.655800  1
  H  H1035  1  0.203500  0.033800  0.155800  1
  H  H1036  1  0.703500  0.966200  0.344200  1
  H  H1037  1  0.823200  0.955200  0.889400  1
  H  H1038  1  0.323200  0.044800  0.610600  1
  H  H1039  1  0.176800  0.044800  0.110600  1
  H  H1040  1  0.676800  0.955200  0.389400  1
  H  H1041  1  0.792400  0.927700  0.921400  1
  H  H1042  1  0.292400  0.072300  0.578600  1
  H  H1043  1  0.207600  0.072300  0.078600  1
  H  H1044  1  0.707600  0.927700  0.421400  1
  H  H1045  1  0.731200  0.894700  0.928200  1
  H  H1046  1  0.231200  0.105300  0.571800  1
  H  H1047  1  0.268800  0.105300  0.071800  1
  H  H1048  1  0.768800  0.894700  0.428200  1
  H  H1049  1  0.674300  0.884500  0.914500  1
  H  H1050  1  0.174300  0.115500  0.585500  1
  H  H1051  1  0.325700  0.115500  0.085500  1
  H  H1052  1  0.825700  0.884500  0.414500  1
  H  H1053  1  0.625300  0.867700  0.863100  1
  H  H1054  1  0.125300  0.132300  0.636900  1
  H  H1055  1  0.374700  0.132300  0.136900  1
  H  H1056  1  0.874700  0.867700  0.363100  1
  H  H1057  1  0.609900  0.878800  0.815800  1
  H  H1058  1  0.109900  0.121200  0.684200  1
  H  H1059  1  0.390100  0.121200  0.184200  1
  H  H1060  1  0.890100  0.878800  0.315800  1
  H  H1061  1  0.627200  0.919600  0.778000  1
  H  H1062  1  0.127200  0.080400  0.722000  1
  H  H1063  1  0.372800  0.080400  0.222000  1
  H  H1064  1  0.872800  0.919600  0.278000  1
  H  H1065  1  0.702100  0.912600  0.721000  1
  H  H1066  1  0.202100  0.087400  0.779000  1
  H  H1067  1  0.297900  0.087400  0.279000  1
  H  H1068  1  0.797900  0.912600  0.221000  1
  H  H1069  1  0.698600  0.928700  0.675500  1
  H  H1070  1  0.198600  0.071300  0.824500  1
  H  H1071  1  0.301400  0.071300  0.324500  1
  H  H1072  1  0.801400  0.928700  0.175500  1
  H  H1073  1  0.632600  0.004300  0.713700  1
  H  H1074  1  0.132600  0.995700  0.786300  1
  H  H1075  1  0.367400  0.995700  0.286300  1
  H  H1076  1  0.867400  0.004300  0.213700  1
  H  H1077  1  0.636600  0.990400  0.760500  1
  H  H1078  1  0.136600  0.009600  0.739500  1
  H  H1079  1  0.363400  0.009600  0.239500  1
  H  H1080  1  0.863400  0.990400  0.260500  1
  H  H1081  1  0.639500  0.017100  0.644800  1
  H  H1082  1  0.139500  0.982900  0.855200  1
  H  H1083  1  0.360500  0.982900  0.355200  1
  H  H1084  1  0.860500  0.017100  0.144800  1
  H  H1085  1  0.003000  0.841700  0.651300  1
  H  H1086  1  0.503000  0.158300  0.848700  1
  H  H1087  1  0.997000  0.158300  0.348700  1
  H  H1088  1  0.497000  0.841700  0.151300  1
  H  H1089  1  0.052300  0.854600  0.622400  1
  H  H1090  1  0.552300  0.145400  0.877600  1
  H  H1091  1  0.947700  0.145400  0.377600  1
  H  H1092  1  0.447700  0.854600  0.122400  1
  H  H1093  1  0.053700  0.838700  0.570700  1
  H  H1094  1  0.553700  0.161300  0.929300  1
  H  H1095  1  0.946300  0.161300  0.429300  1
  H  H1096  1  0.446300  0.838700  0.070700  1
  H  H1097  1  0.021800  0.805700  0.517900  1
  H  H1098  1  0.521800  0.194300  0.982100  1
  H  H1099  1  0.978200  0.194300  0.482100  1
  H  H1100  1  0.478200  0.805700  0.017900  1
  H  H1101  1  0.982500  0.763100  0.494000  1
  H  H1102  1  0.482500  0.236900  0.006000  1
  H  H1103  1  0.017500  0.236900  0.506000  1
  H  H1104  1  0.517500  0.763100  0.994000  1
  H  H1105  1  0.917900  0.733800  0.506500  1
  H  H1106  1  0.417900  0.266200  0.993500  1
  H  H1107  1  0.082100  0.266200  0.493500  1
  H  H1108  1  0.582100  0.733800  0.006500  1
  H  H1109  1  0.879900  0.720100  0.542000  1
  H  H1110  1  0.379900  0.279900  0.958000  1
  H  H1111  1  0.120100  0.279900  0.458000  1
  H  H1112  1  0.620100  0.720100  0.042000  1
  H  H1113  1  0.860400  0.738400  0.606200  1
  H  H1114  1  0.360400  0.261600  0.893800  1
  H  H1115  1  0.139600  0.261600  0.393800  1
  H  H1116  1  0.639600  0.738400  0.106200  1
  H  H1117  1  0.833300  0.818100  0.654800  1
  H  H1118  1  0.333300  0.181900  0.845200  1
  H  H1119  1  0.166700  0.181900  0.345200  1
  H  H1120  1  0.666700  0.818100  0.154800  1
  H  H1121  1  0.797500  0.825700  0.697800  1
  H  H1122  1  0.297500  0.174300  0.802200  1
  H  H1123  1  0.202500  0.174300  0.302200  1
  H  H1124  1  0.702500  0.825700  0.197800  1
  H  H1125  1  0.846100  0.746700  0.724300  1
  H  H1126  1  0.346100  0.253300  0.775700  1
  H  H1127  1  0.153900  0.253300  0.275700  1
  H  H1128  1  0.653900  0.746700  0.224300  1
  H  H1129  1  0.881700  0.740700  0.681800  1
  H  H1130  1  0.381700  0.259300  0.818200  1
  H  H1131  1  0.118300  0.259300  0.318200  1
  H  H1132  1  0.618300  0.740700  0.181800  1
  H  H1133  1  0.741100  0.612800  0.606500  1
  H  H1134  1  0.241100  0.387200  0.893500  1
  H  H1135  1  0.258900  0.387200  0.393500  1
  H  H1136  1  0.758900  0.612800  0.106500  1
  H  H1137  1  0.724200  0.569000  0.561000  1
  H  H1138  1  0.224200  0.431000  0.939000  1
  H  H1139  1  0.275800  0.431000  0.439000  1
  H  H1140  1  0.775800  0.569000  0.061000  1
  H  H1141  1  0.667600  0.551700  0.549400  1
  H  H1142  1  0.167600  0.448300  0.950600  1
  H  H1143  1  0.332400  0.448300  0.450600  1
  H  H1144  1  0.832400  0.551700  0.049400  1
  H  H1145  1  0.600700  0.564800  0.559200  1
  H  H1146  1  0.100700  0.435200  0.940800  1
  H  H1147  1  0.399300  0.435200  0.440800  1
  H  H1148  1  0.899300  0.564800  0.059200  1
  H  H1149  1  0.560000  0.592700  0.594400  1
  H  H1150  1  0.060000  0.407300  0.905600  1
  H  H1151  1  0.440000  0.407300  0.405600  1
  H  H1152  1  0.940000  0.592700  0.094400  1
  H  H1153  1  0.544500  0.652500  0.638300  1
  H  H1154  1  0.044500  0.347500  0.861700  1
  H  H1155  1  0.455500  0.347500  0.361700  1
  H  H1156  1  0.955500  0.652500  0.138300  1
  H  H1157  1  0.567000  0.696200  0.677700  1
  H  H1158  1  0.067000  0.303800  0.822300  1
  H  H1159  1  0.433000  0.303800  0.322300  1
  H  H1160  1  0.933000  0.696200  0.177700  1
  H  H1161  1  0.631200  0.733300  0.700700  1
  H  H1162  1  0.131200  0.266700  0.799300  1
  H  H1163  1  0.368800  0.266700  0.299300  1
  H  H1164  1  0.868800  0.733300  0.200700  1
  H  H1165  1  0.698600  0.715200  0.740600  1
  H  H1166  1  0.198600  0.284800  0.759400  1
  H  H1167  1  0.301400  0.284800  0.259400  1
  H  H1168  1  0.801400  0.715200  0.240600  1
  H  H1169  1  0.744900  0.750500  0.768800  1
  H  H1170  1  0.244900  0.249500  0.731200  1
  H  H1171  1  0.255100  0.249500  0.231200  1
  H  H1172  1  0.755100  0.750500  0.268800  1
  H  H1173  1  0.751300  0.796600  0.696000  1
  H  H1174  1  0.251300  0.203400  0.804000  1
  H  H1175  1  0.248700  0.203400  0.304000  1
  H  H1176  1  0.748700  0.796600  0.196000  1
  H  H1177  1  0.710700  0.757100  0.665100  1
  H  H1178  1  0.210700  0.242900  0.834900  1
  H  H1179  1  0.289300  0.242900  0.334900  1
  H  H1180  1  0.789300  0.757100  0.165100  1
  H  H1181  1  0.663100  0.969300  0.872900  1
  H  H1182  1  0.163100  0.030700  0.627100  1
  H  H1183  1  0.336900  0.030700  0.127100  1
  H  H1184  1  0.836900  0.969300  0.372900  1
  H  H1185  1  0.634400  0.021800  0.898800  1
  H  H1186  1  0.134400  0.978200  0.601200  1
  H  H1187  1  0.365600  0.978200  0.101200  1
  H  H1188  1  0.865600  0.021800  0.398800  1
  H  H1189  1  0.644000  0.072100  0.881200  1
  H  H1190  1  0.144000  0.927900  0.618800  1
  H  H1191  1  0.356000  0.927900  0.118800  1
  H  H1192  1  0.856000  0.072100  0.381200  1
  H  H1193  1  0.677900  0.099400  0.840100  1
  H  H1194  1  0.177900  0.900600  0.659900  1
  H  H1195  1  0.322100  0.900600  0.159900  1
  H  H1196  1  0.822100  0.099400  0.340100  1
  H  H1197  1  0.714800  0.094600  0.800800  1
  H  H1198  1  0.214800  0.905400  0.699200  1
  H  H1199  1  0.285200  0.905400  0.199200  1
  H  H1200  1  0.785200  0.094600  0.300800  1
  H  H1201  1  0.759100  0.053900  0.755900  1
  H  H1202  1  0.259100  0.946100  0.744100  1
  H  H1203  1  0.240900  0.946100  0.244100  1
  H  H1204  1  0.740900  0.053900  0.255900  1
  H  H1205  1  0.783900  0.999000  0.734100  1
  H  H1206  1  0.283900  0.001000  0.765900  1
  H  H1207  1  0.216100  0.001000  0.265900  1
  H  H1208  1  0.716100  0.999000  0.234100  1
  H  H1209  1  0.784800  0.934300  0.743400  1
  H  H1210  1  0.284800  0.065700  0.756600  1
  H  H1211  1  0.215200  0.065700  0.256600  1
  H  H1212  1  0.715200  0.934300  0.243400  1
  H  H1213  1  0.808000  0.902300  0.787300  1
  H  H1214  1  0.308000  0.097700  0.712700  1
  H  H1215  1  0.192000  0.097700  0.212700  1
  H  H1216  1  0.692000  0.902300  0.287300  1
  H  H1217  1  0.824700  0.843200  0.771500  1
  H  H1218  1  0.324700  0.156800  0.728500  1
  H  H1219  1  0.175300  0.156800  0.228500  1
  H  H1220  1  0.675300  0.843200  0.271500  1
  H  H1221  1  0.723400  0.816400  0.746300  1
  H  H1222  1  0.223400  0.183600  0.753700  1
  H  H1223  1  0.276600  0.183600  0.253700  1
  H  H1224  1  0.776600  0.816400  0.246300  1
  H  H1225  1  0.706700  0.875500  0.762000  1
  H  H1226  1  0.206700  0.124500  0.738000  1
  H  H1227  1  0.293300  0.124500  0.238000  1
  H  H1228  1  0.793300  0.875500  0.262000  1
  H  H1229  1  0.791300  0.797700  0.788300  1
  H  H1230  1  0.291300  0.202300  0.711700  1
  H  H1231  1  0.208700  0.202300  0.211700  1
  H  H1232  1  0.708700  0.797700  0.288300  1
  H  H1233  1  0.053400  0.818500  0.373400  1
  H  H1234  1  0.553400  0.181500  0.126600  1
  H  H1235  1  0.946600  0.181500  0.626600  1
  H  H1236  1  0.446600  0.818500  0.873400  1
  H  H1237  1  0.078800  0.851000  0.382000  1
  H  H1238  1  0.578800  0.149000  0.118000  1
  H  H1239  1  0.921200  0.149000  0.618000  1
  H  H1240  1  0.421200  0.851000  0.882000  1
  H  H1241  1  0.051700  0.847700  0.354600  1
  H  H1242  1  0.551700  0.152300  0.145400  1
  H  H1243  1  0.948300  0.152300  0.645400  1
  H  H1244  1  0.448300  0.847700  0.854600  1
  C  C1245  1  0.122400  0.640300  0.570100  1
  C  C1246  1  0.622400  0.359700  0.929900  1
  C  C1247  1  0.877600  0.359700  0.429900  1
  C  C1248  1  0.377600  0.640300  0.070100  1
  C  C1249  1  0.297100  0.757600  0.737800  1
  C  C1250  1  0.797100  0.242400  0.762200  1
  C  C1251  1  0.702900  0.242400  0.262200  1
  C  C1252  1  0.202900  0.757600  0.237800  1
  C  C1253  1  0.326500  0.773400  0.755100  1
  C  C1254  1  0.826500  0.226600  0.744900  1
  C  C1255  1  0.673500  0.226600  0.244900  1
  C  C1256  1  0.173500  0.773400  0.255100  1
  C  C1257  1  0.342500  0.800200  0.746800  1
  C  C1258  1  0.842500  0.199800  0.753200  1
  C  C1259  1  0.657500  0.199800  0.253200  1
  C  C1260  1  0.157500  0.800200  0.246800  1
  C  C1261  1  0.330200  0.811900  0.721200  1
  C  C1262  1  0.830200  0.188100  0.778800  1
  C  C1263  1  0.669800  0.188100  0.278800  1
  C  C1264  1  0.169800  0.811900  0.221200  1
  C  C1265  1  0.345400  0.836600  0.706000  1
  C  C1266  1  0.845400  0.163400  0.794000  1
  C  C1267  1  0.654600  0.163400  0.294000  1
  C  C1268  1  0.154600  0.836600  0.206000  1
  C  C1269  1  0.330900  0.848100  0.682300  1
  C  C1270  1  0.830900  0.151900  0.817700  1
  C  C1271  1  0.669100  0.151900  0.317700  1
  C  C1272  1  0.169100  0.848100  0.182300  1
  C  C1273  1  0.302600  0.829300  0.664300  1
  C  C1274  1  0.802600  0.170700  0.835700  1
  C  C1275  1  0.697400  0.170700  0.335700  1
  C  C1276  1  0.197400  0.829300  0.164300  1
  C  C1277  1  0.286500  0.833300  0.636400  1
  C  C1278  1  0.786500  0.166700  0.863600  1
  C  C1279  1  0.713500  0.166700  0.363600  1
  C  C1280  1  0.213500  0.833300  0.136400  1
  C  C1281  1  0.257200  0.816200  0.621200  1
  C  C1282  1  0.757200  0.183800  0.878800  1
  C  C1283  1  0.742800  0.183800  0.378800  1
  C  C1284  1  0.242800  0.816200  0.121200  1
  C  C1285  1  0.244000  0.790800  0.636800  1
  C  C1286  1  0.744000  0.209200  0.863200  1
  C  C1287  1  0.756000  0.209200  0.363200  1
  C  C1288  1  0.256000  0.790800  0.136800  1
  C  C1289  1  0.286800  0.803000  0.676700  1
  C  C1290  1  0.786800  0.197000  0.823300  1
  C  C1291  1  0.713200  0.197000  0.323300  1
  C  C1292  1  0.213200  0.803000  0.176700  1
  C  C1293  1  0.301500  0.794400  0.703500  1
  C  C1294  1  0.801500  0.205600  0.796500  1
  C  C1295  1  0.698500  0.205600  0.296500  1
  C  C1296  1  0.198500  0.794400  0.203500  1
  C  C1297  1  0.218000  0.764900  0.621800  1
  C  C1298  1  0.718000  0.235100  0.878200  1
  C  C1299  1  0.782000  0.235100  0.378200  1
  C  C1300  1  0.282000  0.764900  0.121800  1
  C  C1301  1  0.191400  0.714600  0.625300  1
  C  C1302  1  0.691400  0.285400  0.874700  1
  C  C1303  1  0.808600  0.285400  0.374700  1
  C  C1304  1  0.308600  0.714600  0.125300  1
  C  C1305  1  0.205300  0.681600  0.613200  1
  C  C1306  1  0.705300  0.318400  0.886800  1
  C  C1307  1  0.794700  0.318400  0.386800  1
  C  C1308  1  0.294700  0.681600  0.113200  1
  C  C1309  1  0.182800  0.656600  0.596800  1
  C  C1310  1  0.682800  0.343400  0.903200  1
  C  C1311  1  0.817200  0.343400  0.403200  1
  C  C1312  1  0.317200  0.656600  0.096800  1
  C  C1313  1  0.148400  0.665500  0.591000  1
  C  C1314  1  0.648400  0.334500  0.909000  1
  C  C1315  1  0.851600  0.334500  0.409000  1
  C  C1316  1  0.351600  0.665500  0.091000  1
  C  C1317  1  0.134100  0.697600  0.606100  1
  C  C1318  1  0.634100  0.302400  0.893900  1
  C  C1319  1  0.865900  0.302400  0.393900  1
  C  C1320  1  0.365900  0.697600  0.106100  1
  C  C1321  1  0.156300  0.723000  0.622900  1
  C  C1322  1  0.656300  0.277000  0.877100  1
  C  C1323  1  0.843700  0.277000  0.377100  1
  C  C1324  1  0.343700  0.723000  0.122900  1
  C  C1325  1  0.026700  0.753800  0.420400  1
  C  C1326  1  0.526700  0.246200  0.079600  1
  C  C1327  1  0.973300  0.246200  0.579600  1
  C  C1328  1  0.473300  0.753800  0.920400  1
  C  C1329  1  0.013200  0.771000  0.397500  1
  C  C1330  1  0.513200  0.229000  0.102500  1
  C  C1331  1  0.986800  0.229000  0.602500  1
  C  C1332  1  0.486800  0.771000  0.897500  1
  C  C1333  1  0.013400  0.760700  0.366200  1
  C  C1334  1  0.513400  0.239300  0.133800  1
  C  C1335  1  0.986600  0.239300  0.633800  1
  C  C1336  1  0.486600  0.760700  0.866200  1
  C  C1337  1  0.028800  0.728900  0.351800  1
  C  C1338  1  0.528800  0.271100  0.148200  1
  C  C1339  1  0.971200  0.271100  0.648200  1
  C  C1340  1  0.471200  0.728900  0.851800  1
  C  C1341  1  0.032200  0.715400  0.319700  1
  C  C1342  1  0.532200  0.284600  0.180300  1
  C  C1343  1  0.967800  0.284600  0.680300  1
  C  C1344  1  0.467800  0.715400  0.819700  1
  C  C1345  1  0.048000  0.683700  0.309100  1
  C  C1346  1  0.548000  0.316300  0.190900  1
  C  C1347  1  0.952000  0.316300  0.690900  1
  C  C1348  1  0.452000  0.683700  0.809100  1
  C  C1349  1  0.061200  0.663500  0.329800  1
  C  C1350  1  0.561200  0.336500  0.170200  1
  C  C1351  1  0.938800  0.336500  0.670200  1
  C  C1352  1  0.438800  0.663500  0.829800  1
  C  C1353  1  0.078600  0.631500  0.326000  1
  C  C1354  1  0.578600  0.368500  0.174000  1
  C  C1355  1  0.921400  0.368500  0.674000  1
  C  C1356  1  0.421400  0.631500  0.826000  1
  C  C1357  1  0.089400  0.618100  0.350300  1
  C  C1358  1  0.589400  0.381900  0.149700  1
  C  C1359  1  0.910600  0.381900  0.649700  1
  C  C1360  1  0.410600  0.618100  0.850300  1
  C  C1361  1  0.084600  0.634200  0.382300  1
  C  C1362  1  0.584600  0.365800  0.117700  1
  C  C1363  1  0.915400  0.365800  0.617700  1
  C  C1364  1  0.415400  0.634200  0.882300  1
  C  C1365  1  0.057000  0.678800  0.361700  1
  C  C1366  1  0.557000  0.321200  0.138300  1
  C  C1367  1  0.943000  0.321200  0.638300  1
  C  C1368  1  0.443000  0.678800  0.861700  1
  C  C1369  1  0.041200  0.711700  0.374600  1
  C  C1370  1  0.541200  0.288300  0.125400  1
  C  C1371  1  0.958800  0.288300  0.625400  1
  C  C1372  1  0.458800  0.711700  0.874600  1
  C  C1373  1  0.097100  0.631200  0.413100  1
  C  C1374  1  0.597100  0.368800  0.086900  1
  C  C1375  1  0.902900  0.368800  0.586900  1
  C  C1376  1  0.402900  0.631200  0.913100  1
  C  C1377  1  0.099300  0.648400  0.470600  1
  C  C1378  1  0.599300  0.351600  0.029400  1
  C  C1379  1  0.900700  0.351600  0.529400  1
  C  C1380  1  0.400700  0.648400  0.970600  1
  C  C1381  1  0.127500  0.664700  0.489600  1
  C  C1382  1  0.627500  0.335300  0.010400  1
  C  C1383  1  0.872500  0.335300  0.510400  1
  C  C1384  1  0.372500  0.664700  0.989600  1
  C  C1385  1  0.134500  0.663500  0.520500  1
  C  C1386  1  0.634500  0.336500  0.979500  1
  C  C1387  1  0.865500  0.336500  0.479500  1
  C  C1388  1  0.365500  0.663500  0.020500  1
  C  C1389  1  0.112300  0.645200  0.537800  1
  C  C1390  1  0.612300  0.354800  0.962200  1
  C  C1391  1  0.887700  0.354800  0.462200  1
  C  C1392  1  0.387700  0.645200  0.037800  1
  C  C1393  1  0.087400  0.625700  0.517500  1
  C  C1394  1  0.587400  0.374300  0.982500  1
  C  C1395  1  0.912600  0.374300  0.482500  1
  C  C1396  1  0.412600  0.625700  0.017500  1
  C  C1397  1  0.079300  0.628700  0.486800  1
  C  C1398  1  0.579300  0.371300  0.013200  1
  C  C1399  1  0.920700  0.371300  0.513200  1
  C  C1400  1  0.420700  0.628700  0.986800  1
  C  C1401  1  0.158100  0.431900  0.453400  1
  C  C1402  1  0.658100  0.568100  0.046600  1
  C  C1403  1  0.841900  0.568100  0.546600  1
  C  C1404  1  0.341900  0.431900  0.953400  1
  C  C1405  1  0.157100  0.395700  0.438300  1
  C  C1406  1  0.657100  0.604300  0.061700  1
  C  C1407  1  0.842900  0.604300  0.561700  1
  C  C1408  1  0.342900  0.395700  0.938300  1
  C  C1409  1  0.184700  0.375800  0.442900  1
  C  C1410  1  0.684700  0.624200  0.057100  1
  C  C1411  1  0.815300  0.624200  0.557100  1
  C  C1412  1  0.315300  0.375800  0.942900  1
  C  C1413  1  0.207200  0.386600  0.468300  1
  C  C1414  1  0.707200  0.613400  0.031700  1
  C  C1415  1  0.792800  0.613400  0.531700  1
  C  C1416  1  0.292800  0.386600  0.968300  1
  C  C1417  1  0.238100  0.371100  0.477500  1
  C  C1418  1  0.738100  0.628900  0.022500  1
  C  C1419  1  0.761900  0.628900  0.522500  1
  C  C1420  1  0.261900  0.371100  0.977500  1
  C  C1421  1  0.258700  0.381900  0.503300  1
  C  C1422  1  0.758700  0.618100  0.996700  1
  C  C1423  1  0.741300  0.618100  0.496700  1
  C  C1424  1  0.241300  0.381900  0.003300  1
  C  C1425  1  0.256100  0.415700  0.525300  1
  C  C1426  1  0.756100  0.584300  0.974700  1
  C  C1427  1  0.743900  0.584300  0.474700  1
  C  C1428  1  0.243900  0.415700  0.025300  1
  C  C1429  1  0.275900  0.433700  0.551700  1
  C  C1430  1  0.775900  0.566300  0.948300  1
  C  C1431  1  0.724100  0.566300  0.448300  1
  C  C1432  1  0.224100  0.433700  0.051700  1
  C  C1433  1  0.268500  0.466500  0.568900  1
  C  C1434  1  0.768500  0.533500  0.931100  1
  C  C1435  1  0.731500  0.533500  0.431100  1
  C  C1436  1  0.231500  0.466500  0.068900  1
  C  C1437  1  0.242100  0.481300  0.553300  1
  C  C1438  1  0.742100  0.518700  0.946700  1
  C  C1439  1  0.757900  0.518700  0.446700  1
  C  C1440  1  0.257900  0.481300  0.053300  1
  C  C1441  1  0.228900  0.433800  0.511200  1
  C  C1442  1  0.728900  0.566200  0.988800  1
  C  C1443  1  0.771100  0.566200  0.488800  1
  C  C1444  1  0.271100  0.433800  0.011200  1
  C  C1445  1  0.204700  0.421500  0.486000  1
  C  C1446  1  0.704700  0.578500  0.014000  1
  C  C1447  1  0.795300  0.578500  0.514000  1
  C  C1448  1  0.295300  0.421500  0.986000  1
  C  C1449  1  0.228500  0.515200  0.568700  1
  C  C1450  1  0.728500  0.484800  0.931300  1
  C  C1451  1  0.771500  0.484800  0.431300  1
  C  C1452  1  0.271500  0.515200  0.068700  1
  C  C1453  1  0.180900  0.550200  0.558700  1
  C  C1454  1  0.680900  0.449800  0.941300  1
  C  C1455  1  0.819100  0.449800  0.441300  1
  C  C1456  1  0.319100  0.550200  0.058700  1
  C  C1457  1  0.187400  0.570100  0.537300  1
  C  C1458  1  0.687400  0.429900  0.962700  1
  C  C1459  1  0.812600  0.429900  0.462700  1
  C  C1460  1  0.312600  0.570100  0.037300  1
  C  C1461  1  0.166900  0.599800  0.540800  1
  C  C1462  1  0.666900  0.400200  0.959200  1
  C  C1463  1  0.833100  0.400200  0.459200  1
  C  C1464  1  0.333100  0.599800  0.040800  1
  C  C1465  1  0.142500  0.605600  0.565300  1
  C  C1466  1  0.642500  0.394400  0.934700  1
  C  C1467  1  0.857500  0.394400  0.434700  1
  C  C1468  1  0.357500  0.605600  0.065300  1
  C  C1469  1  0.136600  0.585200  0.586500  1
  C  C1470  1  0.636600  0.414800  0.913500  1
  C  C1471  1  0.863400  0.414800  0.413500  1
  C  C1472  1  0.363400  0.585200  0.086500  1
  C  C1473  1  0.157100  0.555300  0.583100  1
  C  C1474  1  0.657100  0.444700  0.916900  1
  C  C1475  1  0.842900  0.444700  0.416900  1
  C  C1476  1  0.342900  0.555300  0.083100  1
  C  C1477  1  0.340100  0.517400  0.416300  1
  C  C1478  1  0.840100  0.482600  0.083700  1
  C  C1479  1  0.659900  0.482600  0.583700  1
  C  C1480  1  0.159900  0.517400  0.916300  1
  C  C1481  1  0.542000  0.649400  0.530100  1
  C  C1482  1  0.042000  0.350600  0.969900  1
  C  C1483  1  0.458000  0.350600  0.469900  1
  C  C1484  1  0.958000  0.649400  0.030100  1
  C  C1485  1  0.568000  0.671800  0.547700  1
  C  C1486  1  0.068000  0.328200  0.952300  1
  C  C1487  1  0.432000  0.328200  0.452300  1
  C  C1488  1  0.932000  0.671800  0.047700  1
  C  C1489  1  0.559700  0.695000  0.573800  1
  C  C1490  1  0.059700  0.305000  0.926200  1
  C  C1491  1  0.440300  0.305000  0.426200  1
  C  C1492  1  0.940300  0.695000  0.073800  1
  C  C1493  1  0.528100  0.695000  0.589500  1
  C  C1494  1  0.028100  0.305000  0.910500  1
  C  C1495  1  0.471900  0.305000  0.410500  1
  C  C1496  1  0.971900  0.695000  0.089500  1
  C  C1497  1  0.515200  0.714200  0.618800  1
  C  C1498  1  0.015200  0.285800  0.881200  1
  C  C1499  1  0.484800  0.285800  0.381200  1
  C  C1500  1  0.984800  0.714200  0.118800  1
  C  C1501  1  0.482900  0.711600  0.630900  1
  C  C1502  1  0.982900  0.288400  0.869100  1
  C  C1503  1  0.517100  0.288400  0.369100  1
  C  C1504  1  0.017100  0.711600  0.130900  1
  C  C1505  1  0.457000  0.687900  0.614300  1
  C  C1506  1  0.957000  0.312100  0.885700  1
  C  C1507  1  0.543000  0.312100  0.385700  1
  C  C1508  1  0.043000  0.687900  0.114300  1
  C  C1509  1  0.422000  0.678800  0.621700  1
  C  C1510  1  0.922000  0.321200  0.878300  1
  C  C1511  1  0.578000  0.321200  0.378300  1
  C  C1512  1  0.078000  0.678800  0.121700  1
  C  C1513  1  0.401100  0.654300  0.602100  1
  C  C1514  1  0.901100  0.345700  0.897900  1
  C  C1515  1  0.598900  0.345700  0.397900  1
  C  C1516  1  0.098900  0.654300  0.102100  1
  C  C1517  1  0.414800  0.637900  0.572500  1
  C  C1518  1  0.914800  0.362100  0.927500  1
  C  C1519  1  0.585200  0.362100  0.427500  1
  C  C1520  1  0.085200  0.637900  0.072500  1
  C  C1521  1  0.468900  0.667000  0.585200  1
  C  C1522  1  0.968900  0.333000  0.914800  1
  C  C1523  1  0.531100  0.333000  0.414800  1
  C  C1524  1  0.031100  0.667000  0.085200  1
  C  C1525  1  0.503300  0.670100  0.573500  1
  C  C1526  1  0.003300  0.329900  0.926500  1
  C  C1527  1  0.496700  0.329900  0.426500  1
  C  C1528  1  0.996700  0.670100  0.073500  1
  C  C1529  1  0.399200  0.613000  0.546200  1
  C  C1530  1  0.899200  0.387000  0.953800  1
  C  C1531  1  0.600800  0.387000  0.453800  1
  C  C1532  1  0.100800  0.613000  0.046200  1
  C  C1533  1  0.398500  0.581700  0.493200  1
  C  C1534  1  0.898500  0.418300  0.006800  1
  C  C1535  1  0.601500  0.418300  0.506800  1
  C  C1536  1  0.101500  0.581700  0.993200  1
  C  C1537  1  0.365000  0.591800  0.485800  1
  C  C1538  1  0.865000  0.408200  0.014200  1
  C  C1539  1  0.635000  0.408200  0.514200  1
  C  C1540  1  0.135000  0.591800  0.985800  1
  C  C1541  1  0.346600  0.571200  0.460800  1
  C  C1542  1  0.846600  0.428800  0.039200  1
  C  C1543  1  0.653400  0.428800  0.539200  1
  C  C1544  1  0.153400  0.571200  0.960800  1
  C  C1545  1  0.361800  0.540500  0.443200  1
  C  C1546  1  0.861800  0.459500  0.056800  1
  C  C1547  1  0.638200  0.459500  0.556800  1
  C  C1548  1  0.138200  0.540500  0.943200  1
  C  C1549  1  0.395300  0.530400  0.450700  1
  C  C1550  1  0.895300  0.469600  0.049300  1
  C  C1551  1  0.604700  0.469600  0.549300  1
  C  C1552  1  0.104700  0.530400  0.950700  1
  C  C1553  1  0.413700  0.551000  0.475700  1
  C  C1554  1  0.913700  0.449000  0.024300  1
  C  C1555  1  0.586300  0.449000  0.524300  1
  C  C1556  1  0.086300  0.551000  0.975700  1
  C  C1557  1  0.233400  0.538200  0.206400  1
  C  C1558  1  0.733400  0.461800  0.293600  1
  C  C1559  1  0.766600  0.461800  0.793600  1
  C  C1560  1  0.266600  0.538200  0.706400  1
  C  C1561  1  0.224000  0.543400  0.176500  1
  C  C1562  1  0.724000  0.456600  0.323500  1
  C  C1563  1  0.776000  0.456600  0.823500  1
  C  C1564  1  0.276000  0.543400  0.676500  1
  C  C1565  1  0.240400  0.561500  0.157800  1
  C  C1566  1  0.740400  0.438500  0.342200  1
  C  C1567  1  0.759600  0.438500  0.842200  1
  C  C1568  1  0.259600  0.561500  0.657800  1
  C  C1569  1  0.272600  0.577300  0.169400  1
  C  C1570  1  0.772600  0.422700  0.330600  1
  C  C1571  1  0.727400  0.422700  0.830600  1
  C  C1572  1  0.227400  0.577300  0.669400  1
  C  C1573  1  0.290000  0.600800  0.154600  1
  C  C1574  1  0.790000  0.399200  0.345400  1
  C  C1575  1  0.710000  0.399200  0.845400  1
  C  C1576  1  0.210000  0.600800  0.654600  1
  C  C1577  1  0.320900  0.614500  0.168200  1
  C  C1578  1  0.820900  0.385500  0.331800  1
  C  C1579  1  0.679100  0.385500  0.831800  1
  C  C1580  1  0.179100  0.614500  0.668200  1
  C  C1581  1  0.332700  0.610500  0.198000  1
  C  C1582  1  0.832700  0.389500  0.302000  1
  C  C1583  1  0.667300  0.389500  0.802000  1
  C  C1584  1  0.167300  0.610500  0.698000  1
  C  C1585  1  0.363600  0.621800  0.214900  1
  C  C1586  1  0.863600  0.378200  0.285100  1
  C  C1587  1  0.636400  0.378200  0.785100  1
  C  C1588  1  0.136400  0.621800  0.714900  1
  C  C1589  1  0.370700  0.614000  0.242600  1
  C  C1590  1  0.870700  0.386000  0.257400  1
  C  C1591  1  0.629300  0.386000  0.757400  1
  C  C1592  1  0.129300  0.614000  0.742600  1
  C  C1593  1  0.349300  0.592200  0.256800  1
  C  C1594  1  0.849300  0.407800  0.243200  1
  C  C1595  1  0.650700  0.407800  0.743200  1
  C  C1596  1  0.150700  0.592200  0.756800  1
  C  C1597  1  0.314800  0.586000  0.210900  1
  C  C1598  1  0.814800  0.414000  0.289100  1
  C  C1599  1  0.685200  0.414000  0.789100  1
  C  C1600  1  0.185200  0.586000  0.710900  1
  C  C1601  1  0.282100  0.570800  0.198400  1
  C  C1602  1  0.782100  0.429200  0.301600  1
  C  C1603  1  0.717900  0.429200  0.801600  1
  C  C1604  1  0.217900  0.570800  0.698400  1
  C  C1605  1  0.351800  0.579400  0.285400  1
  C  C1606  1  0.851800  0.420600  0.214600  1
  C  C1607  1  0.648200  0.420600  0.714600  1
  C  C1608  1  0.148200  0.579400  0.785400  1
  C  C1609  1  0.331700  0.551100  0.323700  1
  C  C1610  1  0.831700  0.448900  0.176300  1
  C  C1611  1  0.668300  0.448900  0.676300  1
  C  C1612  1  0.168300  0.551100  0.823700  1
  C  C1613  1  0.310500  0.562000  0.350300  1
  C  C1614  1  0.810500  0.438000  0.149700  1
  C  C1615  1  0.689500  0.438000  0.649700  1
  C  C1616  1  0.189500  0.562000  0.850300  1
  C  C1617  1  0.312200  0.552700  0.379100  1
  C  C1618  1  0.812200  0.447300  0.120900  1
  C  C1619  1  0.687800  0.447300  0.620900  1
  C  C1620  1  0.187800  0.552700  0.879100  1
  C  C1621  1  0.337800  0.528600  0.385100  1
  C  C1622  1  0.837800  0.471400  0.114900  1
  C  C1623  1  0.662200  0.471400  0.614900  1
  C  C1624  1  0.162200  0.528600  0.885100  1
  C  C1625  1  0.358400  0.517600  0.358200  1
  C  C1626  1  0.858400  0.482400  0.141800  1
  C  C1627  1  0.641600  0.482400  0.641800  1
  C  C1628  1  0.141600  0.517600  0.858200  1
  C  C1629  1  0.358900  0.530100  0.330600  1
  C  C1630  1  0.858900  0.469900  0.169400  1
  C  C1631  1  0.641100  0.469900  0.669400  1
  C  C1632  1  0.141100  0.530100  0.830600  1
  C  C1633  1  0.151100  0.454500  0.566100  1
  C  C1634  1  0.651100  0.545500  0.933900  1
  C  C1635  1  0.848900  0.545500  0.433900  1
  C  C1636  1  0.348900  0.454500  0.066100  1
  C  C1637  1  0.124200  0.451700  0.587600  1
  C  C1638  1  0.624200  0.548300  0.912400  1
  C  C1639  1  0.875800  0.548300  0.412400  1
  C  C1640  1  0.375800  0.451700  0.087600  1
  C  C1641  1  0.093400  0.469300  0.587700  1
  C  C1642  1  0.593400  0.530700  0.912300  1
  C  C1643  1  0.906600  0.530700  0.412300  1
  C  C1644  1  0.406600  0.469300  0.087700  1
  C  C1645  1  0.088000  0.485200  0.562600  1
  C  C1646  1  0.588000  0.514800  0.937400  1
  C  C1647  1  0.912000  0.514800  0.437400  1
  C  C1648  1  0.412000  0.485200  0.062600  1
  C  C1649  1  0.056100  0.502300  0.555400  1
  C  C1650  1  0.556100  0.497700  0.944600  1
  C  C1651  1  0.943900  0.497700  0.444600  1
  C  C1652  1  0.443900  0.502300  0.055400  1
  C  C1653  1  0.053100  0.517200  0.530600  1
  C  C1654  1  0.553100  0.482800  0.969400  1
  C  C1655  1  0.946900  0.482800  0.469400  1
  C  C1656  1  0.446900  0.517200  0.030600  1
  C  C1657  1  0.079400  0.519100  0.506800  1
  C  C1658  1  0.579400  0.480900  0.993200  1
  C  C1659  1  0.920600  0.480900  0.493200  1
  C  C1660  1  0.420600  0.519100  0.006800  1
  C  C1661  1  0.083100  0.536500  0.482200  1
  C  C1662  1  0.583100  0.463500  0.017800  1
  C  C1663  1  0.916900  0.463500  0.517800  1
  C  C1664  1  0.416900  0.536500  0.982200  1
  C  C1665  1  0.111200  0.535500  0.462600  1
  C  C1666  1  0.611200  0.464500  0.037400  1
  C  C1667  1  0.888800  0.464500  0.537400  1
  C  C1668  1  0.388800  0.535500  0.962600  1
  C  C1669  1  0.140400  0.517800  0.471700  1
  C  C1670  1  0.640400  0.482200  0.028300  1
  C  C1671  1  0.859600  0.482200  0.528300  1
  C  C1672  1  0.359600  0.517800  0.971700  1
  C  C1673  1  0.111800  0.502500  0.514800  1
  C  C1674  1  0.611800  0.497500  0.985200  1
  C  C1675  1  0.888200  0.497500  0.485200  1
  C  C1676  1  0.388200  0.502500  0.014800  1
  C  C1677  1  0.115500  0.487100  0.541300  1
  C  C1678  1  0.615500  0.512900  0.958700  1
  C  C1679  1  0.884500  0.512900  0.458700  1
  C  C1680  1  0.384500  0.487100  0.041300  1
  C  C1681  1  0.174600  0.518200  0.457500  1
  C  C1682  1  0.674600  0.481800  0.042500  1
  C  C1683  1  0.825400  0.481800  0.542500  1
  C  C1684  1  0.325400  0.518200  0.957500  1
  C  C1685  1  0.234200  0.501500  0.456600  1
  C  C1686  1  0.734200  0.498500  0.043400  1
  C  C1687  1  0.765800  0.498500  0.543400  1
  C  C1688  1  0.265800  0.501500  0.956600  1
  C  C1689  1  0.241100  0.494800  0.424400  1
  C  C1690  1  0.741100  0.505200  0.075600  1
  C  C1691  1  0.758900  0.505200  0.575600  1
  C  C1692  1  0.258900  0.494800  0.924400  1
  C  C1693  1  0.274100  0.498800  0.411300  1
  C  C1694  1  0.774100  0.501200  0.088700  1
  C  C1695  1  0.725900  0.501200  0.588700  1
  C  C1696  1  0.225900  0.498800  0.911300  1
  C  C1697  1  0.304100  0.509600  0.429400  1
  C  C1698  1  0.804100  0.490400  0.070600  1
  C  C1699  1  0.695900  0.490400  0.570600  1
  C  C1700  1  0.195900  0.509600  0.929400  1
  C  C1701  1  0.297400  0.511600  0.461000  1
  C  C1702  1  0.797400  0.488400  0.039000  1
  C  C1703  1  0.702600  0.488400  0.539000  1
  C  C1704  1  0.202600  0.511600  0.961000  1
  C  C1705  1  0.264800  0.508500  0.475000  1
  C  C1706  1  0.764800  0.491500  0.025000  1
  C  C1707  1  0.735200  0.491500  0.525000  1
  C  C1708  1  0.235200  0.508500  0.975000  1
  C  C1709  1  0.374000  0.765300  0.555600  1
  C  C1710  1  0.874000  0.234700  0.944400  1
  C  C1711  1  0.626000  0.234700  0.444400  1
  C  C1712  1  0.126000  0.765300  0.055600  1
  C  C1713  1  0.183900  0.792600  0.714200  1
  C  C1714  1  0.683900  0.207400  0.785800  1
  C  C1715  1  0.816100  0.207400  0.285800  1
  C  C1716  1  0.316100  0.792600  0.214200  1
  C  C1717  1  0.156300  0.795800  0.735900  1
  C  C1718  1  0.656300  0.204200  0.764100  1
  C  C1719  1  0.843700  0.204200  0.264100  1
  C  C1720  1  0.343700  0.795800  0.235900  1
  C  C1721  1  0.150000  0.774900  0.754400  1
  C  C1722  1  0.650000  0.225100  0.745600  1
  C  C1723  1  0.850000  0.225100  0.245600  1
  C  C1724  1  0.350000  0.774900  0.254400  1
  C  C1725  1  0.166700  0.742500  0.747800  1
  C  C1726  1  0.666700  0.257500  0.752200  1
  C  C1727  1  0.833300  0.257500  0.252200  1
  C  C1728  1  0.333300  0.742500  0.247800  1
  C  C1729  1  0.161800  0.713400  0.761200  1
  C  C1730  1  0.661800  0.286600  0.738800  1
  C  C1731  1  0.838200  0.286600  0.238800  1
  C  C1732  1  0.338200  0.713400  0.261200  1
  C  C1733  1  0.184200  0.686100  0.755100  1
  C  C1734  1  0.684200  0.313900  0.744900  1
  C  C1735  1  0.815800  0.313900  0.244900  1
  C  C1736  1  0.315800  0.686100  0.255100  1
  C  C1737  1  0.213500  0.684800  0.734500  1
  C  C1738  1  0.713500  0.315200  0.765500  1
  C  C1739  1  0.786500  0.315200  0.265500  1
  C  C1740  1  0.286500  0.684800  0.234500  1
  C  C1741  1  0.239400  0.659200  0.723000  1
  C  C1742  1  0.739400  0.340800  0.777000  1
  C  C1743  1  0.760600  0.340800  0.277000  1
  C  C1744  1  0.260600  0.659200  0.223000  1
  C  C1745  1  0.265700  0.659900  0.701500  1
  C  C1746  1  0.765700  0.340100  0.798500  1
  C  C1747  1  0.734300  0.340100  0.298500  1
  C  C1748  1  0.234300  0.659900  0.201500  1
  C  C1749  1  0.267700  0.687600  0.686500  1
  C  C1750  1  0.767700  0.312400  0.813500  1
  C  C1751  1  0.732300  0.312400  0.313500  1
  C  C1752  1  0.232300  0.687600  0.186500  1
  C  C1753  1  0.217300  0.710100  0.716800  1
  C  C1754  1  0.717300  0.289900  0.783200  1
  C  C1755  1  0.782700  0.289900  0.283200  1
  C  C1756  1  0.282700  0.710100  0.216800  1
  C  C1757  1  0.195300  0.739600  0.726400  1
  C  C1758  1  0.695300  0.260400  0.773600  1
  C  C1759  1  0.804700  0.260400  0.273600  1
  C  C1760  1  0.304700  0.739600  0.226400  1
  C  C1761  1  0.291700  0.693000  0.661900  1
  C  C1762  1  0.791700  0.307000  0.838100  1
  C  C1763  1  0.708300  0.307000  0.338100  1
  C  C1764  1  0.208300  0.693000  0.161900  1
  C  C1765  1  0.309500  0.729400  0.628300  1
  C  C1766  1  0.809500  0.270600  0.871700  1
  C  C1767  1  0.690500  0.270600  0.371700  1
  C  C1768  1  0.190500  0.729400  0.128300  1
  C  C1769  1  0.296400  0.732000  0.598900  1
  C  C1770  1  0.796400  0.268000  0.901100  1
  C  C1771  1  0.703600  0.268000  0.401100  1
  C  C1772  1  0.203600  0.732000  0.098900  1
  C  C1773  1  0.316700  0.742000  0.576000  1
  C  C1774  1  0.816700  0.258000  0.924000  1
  C  C1775  1  0.683300  0.258000  0.424000  1
  C  C1776  1  0.183300  0.742000  0.076000  1
  C  C1777  1  0.351400  0.754200  0.580800  1
  C  C1778  1  0.851400  0.245800  0.919200  1
  C  C1779  1  0.648600  0.245800  0.419200  1
  C  C1780  1  0.148600  0.754200  0.080800  1
  C  C1781  1  0.364600  0.751500  0.610400  1
  C  C1782  1  0.864600  0.248500  0.889600  1
  C  C1783  1  0.635400  0.248500  0.389600  1
  C  C1784  1  0.135400  0.751500  0.110400  1
  C  C1785  1  0.345000  0.739400  0.632600  1
  C  C1786  1  0.845000  0.260600  0.867400  1
  C  C1787  1  0.655000  0.260600  0.367400  1
  C  C1788  1  0.155000  0.739400  0.132600  1
  C  C1789  1  0.487200  0.577900  0.562000  1
  C  C1790  1  0.987200  0.422100  0.938000  1
  C  C1791  1  0.512800  0.422100  0.438000  1
  C  C1792  1  0.012800  0.577900  0.062000  1
  C  C1793  1  0.507200  0.547700  0.565400  1
  C  C1794  1  0.007200  0.452300  0.934600  1
  C  C1795  1  0.492800  0.452300  0.434600  1
  C  C1796  1  0.992800  0.547700  0.065400  1
  C  C1797  1  0.525400  0.526900  0.541400  1
  C  C1798  1  0.025400  0.473100  0.958600  1
  C  C1799  1  0.474600  0.473100  0.458600  1
  C  C1800  1  0.974600  0.526900  0.041400  1
  C  C1801  1  0.528700  0.534900  0.512400  1
  C  C1802  1  0.028700  0.465100  0.987600  1
  C  C1803  1  0.471300  0.465100  0.487600  1
  C  C1804  1  0.971300  0.534900  0.012400  1
  C  C1805  1  0.545300  0.514600  0.486200  1
  C  C1806  1  0.045300  0.485400  0.013800  1
  C  C1807  1  0.454700  0.485400  0.513800  1
  C  C1808  1  0.954700  0.514600  0.986200  1
  C  C1809  1  0.546000  0.523600  0.458700  1
  C  C1810  1  0.046000  0.476400  0.041300  1
  C  C1811  1  0.454000  0.476400  0.541300  1
  C  C1812  1  0.954000  0.523600  0.958700  1
  C  C1813  1  0.528900  0.553500  0.452500  1
  C  C1814  1  0.028900  0.446500  0.047500  1
  C  C1815  1  0.471100  0.446500  0.547500  1
  C  C1816  1  0.971100  0.553500  0.952500  1
  C  C1817  1  0.524100  0.564200  0.425000  1
  C  C1818  1  0.024100  0.435800  0.075000  1
  C  C1819  1  0.475900  0.435800  0.575000  1
  C  C1820  1  0.975900  0.564200  0.925000  1
  C  C1821  1  0.507000  0.594400  0.424500  1
  C  C1822  1  0.007000  0.405600  0.075500  1
  C  C1823  1  0.493000  0.405600  0.575500  1
  C  C1824  1  0.993000  0.594400  0.924500  1
  C  C1825  1  0.489800  0.612000  0.452500  1
  C  C1826  1  0.989800  0.388000  0.047500  1
  C  C1827  1  0.510200  0.388000  0.547500  1
  C  C1828  1  0.010200  0.612000  0.952500  1
  C  C1829  1  0.511100  0.571200  0.479400  1
  C  C1830  1  0.011100  0.428800  0.020600  1
  C  C1831  1  0.488900  0.428800  0.520600  1
  C  C1832  1  0.988900  0.571200  0.979400  1
  C  C1833  1  0.508100  0.564100  0.509200  1
  C  C1834  1  0.008100  0.435900  0.990800  1
  C  C1835  1  0.491900  0.435900  0.490800  1
  C  C1836  1  0.991900  0.564100  0.009200  1
  C  C1837  1  0.468400  0.644200  0.459300  1
  C  C1838  1  0.968400  0.355800  0.040700  1
  C  C1839  1  0.531600  0.355800  0.540700  1
  C  C1840  1  0.031600  0.644200  0.959300  1
  C  C1841  1  0.436900  0.677800  0.506200  1
  C  C1842  1  0.936900  0.322200  0.993800  1
  C  C1843  1  0.563100  0.322200  0.493800  1
  C  C1844  1  0.063100  0.677800  0.006200  1
  C  C1845  1  0.400500  0.674800  0.508900  1
  C  C1846  1  0.900500  0.325200  0.991100  1
  C  C1847  1  0.599500  0.325200  0.491100  1
  C  C1848  1  0.099500  0.674800  0.008900  1
  C  C1849  1  0.380900  0.702900  0.526000  1
  C  C1850  1  0.880900  0.297100  0.974000  1
  C  C1851  1  0.619100  0.297100  0.474000  1
  C  C1852  1  0.119100  0.702900  0.026000  1
  C  C1853  1  0.397900  0.734000  0.540500  1
  C  C1854  1  0.897900  0.266000  0.959500  1
  C  C1855  1  0.602100  0.266000  0.459500  1
  C  C1856  1  0.102100  0.734000  0.040500  1
  C  C1857  1  0.434400  0.737000  0.537700  1
  C  C1858  1  0.934400  0.263000  0.962300  1
  C  C1859  1  0.565600  0.263000  0.462300  1
  C  C1860  1  0.065600  0.737000  0.037700  1
  C  C1861  1  0.453900  0.708900  0.520600  1
  C  C1862  1  0.953900  0.291100  0.979400  1
  C  C1863  1  0.546100  0.291100  0.479400  1
  C  C1864  1  0.046100  0.708900  0.020600  1
  C  C1865  1  0.332300  0.846100  0.349000  1
  C  C1866  1  0.832300  0.153900  0.151000  1
  C  C1867  1  0.667700  0.153900  0.651000  1
  C  C1868  1  0.167700  0.846100  0.849000  1
  C  C1869  1  0.324500  0.849500  0.318400  1
  C  C1870  1  0.824500  0.150500  0.181600  1
  C  C1871  1  0.675500  0.150500  0.681600  1
  C  C1872  1  0.175500  0.849500  0.818400  1
  C  C1873  1  0.292000  0.844300  0.306300  1
  C  C1874  1  0.792000  0.155700  0.193700  1
  C  C1875  1  0.708000  0.155700  0.693700  1
  C  C1876  1  0.208000  0.844300  0.806300  1
  C  C1877  1  0.265600  0.837400  0.327200  1
  C  C1878  1  0.765600  0.162600  0.172800  1
  C  C1879  1  0.734400  0.162600  0.672800  1
  C  C1880  1  0.234400  0.837400  0.827200  1
  C  C1881  1  0.228100  0.831200  0.320200  1
  C  C1882  1  0.728100  0.168800  0.179800  1
  C  C1883  1  0.771900  0.168800  0.679800  1
  C  C1884  1  0.271900  0.831200  0.820200  1
  C  C1885  1  0.205100  0.823900  0.342100  1
  C  C1886  1  0.705100  0.176100  0.157900  1
  C  C1887  1  0.794900  0.176100  0.657900  1
  C  C1888  1  0.294900  0.823900  0.842100  1
  C  C1889  1  0.211900  0.820900  0.374100  1
  C  C1890  1  0.711900  0.179100  0.125900  1
  C  C1891  1  0.788100  0.179100  0.625900  1
  C  C1892  1  0.288100  0.820900  0.874100  1
  C  C1893  1  0.192900  0.809300  0.398000  1
  C  C1894  1  0.692900  0.190700  0.102000  1
  C  C1895  1  0.807100  0.190700  0.602000  1
  C  C1896  1  0.307100  0.809300  0.898000  1
  C  C1897  1  0.206300  0.804700  0.425500  1
  C  C1898  1  0.706300  0.195300  0.074500  1
  C  C1899  1  0.793700  0.195300  0.574500  1
  C  C1900  1  0.293700  0.804700  0.925500  1
  C  C1901  1  0.243200  0.810100  0.430100  1
  C  C1902  1  0.743200  0.189900  0.069900  1
  C  C1903  1  0.756800  0.189900  0.569900  1
  C  C1904  1  0.256800  0.810100  0.930100  1
  C  C1905  1  0.249900  0.826000  0.380600  1
  C  C1906  1  0.749900  0.174000  0.119400  1
  C  C1907  1  0.750100  0.174000  0.619400  1
  C  C1908  1  0.250100  0.826000  0.880600  1
  C  C1909  1  0.274000  0.833900  0.357500  1
  C  C1910  1  0.774000  0.166100  0.142500  1
  C  C1911  1  0.726000  0.166100  0.642500  1
  C  C1912  1  0.226000  0.833900  0.857500  1
  C  C1913  1  0.264300  0.804100  0.455600  1
  C  C1914  1  0.764300  0.195900  0.044400  1
  C  C1915  1  0.735700  0.195900  0.544400  1
  C  C1916  1  0.235700  0.804100  0.955600  1
  C  C1917  1  0.319500  0.799100  0.481700  1
  C  C1918  1  0.819500  0.200900  0.018300  1
  C  C1919  1  0.680500  0.200900  0.518300  1
  C  C1920  1  0.180500  0.799100  0.981700  1
  C  C1921  1  0.346900  0.774800  0.473900  1
  C  C1922  1  0.846900  0.225200  0.026100  1
  C  C1923  1  0.653100  0.225200  0.526100  1
  C  C1924  1  0.153100  0.774800  0.973900  1
  C  C1925  1  0.365500  0.764300  0.497200  1
  C  C1926  1  0.865500  0.235700  0.002800  1
  C  C1927  1  0.634500  0.235700  0.502800  1
  C  C1928  1  0.134500  0.764300  0.997200  1
  C  C1929  1  0.356900  0.778100  0.528200  1
  C  C1930  1  0.856900  0.221900  0.971800  1
  C  C1931  1  0.643100  0.221900  0.471800  1
  C  C1932  1  0.143100  0.778100  0.028200  1
  C  C1933  1  0.329600  0.802400  0.535900  1
  C  C1934  1  0.829600  0.197600  0.964100  1
  C  C1935  1  0.670400  0.197600  0.464100  1
  C  C1936  1  0.170400  0.802400  0.035900  1
  C  C1937  1  0.310900  0.812900  0.512700  1
  C  C1938  1  0.810900  0.187100  0.987300  1
  C  C1939  1  0.689100  0.187100  0.487300  1
  C  C1940  1  0.189100  0.812900  0.012700  1
  C  C1941  1  0.208200  0.707400  0.322400  1
  C  C1942  1  0.708200  0.292600  0.177600  1
  C  C1943  1  0.791800  0.292600  0.677600  1
  C  C1944  1  0.291800  0.707400  0.822400  1
  C  C1945  1  0.292200  0.888100  0.462900  1
  C  C1946  1  0.792200  0.111900  0.037100  1
  C  C1947  1  0.707800  0.111900  0.537100  1
  C  C1948  1  0.207800  0.888100  0.962900  1
  C  C1949  1  0.302600  0.916000  0.487700  1
  C  C1950  1  0.802600  0.084000  0.012300  1
  C  C1951  1  0.697400  0.084000  0.512300  1
  C  C1952  1  0.197400  0.916000  0.987700  1
  C  C1953  1  0.336100  0.923000  0.494500  1
  C  C1954  1  0.836100  0.077000  0.005500  1
  C  C1955  1  0.663900  0.077000  0.505500  1
  C  C1956  1  0.163900  0.923000  0.994500  1
  C  C1957  1  0.363700  0.903900  0.478700  1
  C  C1958  1  0.863700  0.096100  0.021300  1
  C  C1959  1  0.636300  0.096100  0.521300  1
  C  C1960  1  0.136300  0.903900  0.978700  1
  C  C1961  1  0.400800  0.909200  0.479300  1
  C  C1962  1  0.900800  0.090800  0.020700  1
  C  C1963  1  0.599200  0.090800  0.520700  1
  C  C1964  1  0.099200  0.909200  0.979300  1
  C  C1965  1  0.425300  0.887500  0.463000  1
  C  C1966  1  0.925300  0.112500  0.037000  1
  C  C1967  1  0.574700  0.112500  0.537000  1
  C  C1968  1  0.074700  0.887500  0.963000  1
  C  C1969  1  0.414400  0.857000  0.440000  1
  C  C1970  1  0.914400  0.143000  0.060000  1
  C  C1971  1  0.585600  0.143000  0.560000  1
  C  C1972  1  0.085600  0.857000  0.940000  1
  C  C1973  1  0.432900  0.831900  0.417400  1
  C  C1974  1  0.932900  0.168100  0.082600  1
  C  C1975  1  0.567100  0.168100  0.582600  1
  C  C1976  1  0.067100  0.831900  0.917400  1
  C  C1977  1  0.418600  0.804000  0.395800  1
  C  C1978  1  0.918600  0.196000  0.104200  1
  C  C1979  1  0.581400  0.196000  0.604200  1
  C  C1980  1  0.081400  0.804000  0.895800  1
  C  C1981  1  0.381400  0.800700  0.397300  1
  C  C1982  1  0.881400  0.199300  0.102700  1
  C  C1983  1  0.618600  0.199300  0.602700  1
  C  C1984  1  0.118600  0.800700  0.897300  1
  C  C1985  1  0.377300  0.851100  0.437800  1
  C  C1986  1  0.877300  0.148900  0.062200  1
  C  C1987  1  0.622700  0.148900  0.562200  1
  C  C1988  1  0.122700  0.851100  0.937800  1
  C  C1989  1  0.352800  0.873500  0.456400  1
  C  C1990  1  0.852800  0.126500  0.043600  1
  C  C1991  1  0.647200  0.126500  0.543600  1
  C  C1992  1  0.147200  0.873500  0.956400  1
  C  C1993  1  0.359100  0.776800  0.375100  1
  C  C1994  1  0.859100  0.223200  0.124900  1
  C  C1995  1  0.640900  0.223200  0.624900  1
  C  C1996  1  0.140900  0.776800  0.875100  1
  C  C1997  1  0.297800  0.762100  0.365400  1
  C  C1998  1  0.797800  0.237900  0.134600  1
  C  C1999  1  0.702200  0.237900  0.634600  1
  C  C2000  1  0.202200  0.762100  0.865400  1
  C  C2001  1  0.291400  0.760800  0.333800  1
  C  C2002  1  0.791400  0.239200  0.166200  1
  C  C2003  1  0.708600  0.239200  0.666200  1
  C  C2004  1  0.208600  0.760800  0.833800  1
  C  C2005  1  0.263300  0.741900  0.318900  1
  C  C2006  1  0.763300  0.258100  0.181100  1
  C  C2007  1  0.736700  0.258100  0.681100  1
  C  C2008  1  0.236700  0.741900  0.818900  1
  C  C2009  1  0.242100  0.725300  0.337100  1
  C  C2010  1  0.742100  0.274700  0.162900  1
  C  C2011  1  0.757900  0.274700  0.662900  1
  C  C2012  1  0.257900  0.725300  0.837100  1
  C  C2013  1  0.249700  0.724900  0.368100  1
  C  C2014  1  0.749700  0.275100  0.131900  1
  C  C2015  1  0.750300  0.275100  0.631900  1
  C  C2016  1  0.250300  0.724900  0.868100  1
  C  C2017  1  0.278100  0.744200  0.383500  1
  C  C2018  1  0.778100  0.255800  0.116500  1
  C  C2019  1  0.721900  0.255800  0.616500  1
  C  C2020  1  0.221900  0.744200  0.883500  1
  C  C2021  1  0.998000  0.657300  0.439700  1
  C  C2022  1  0.498000  0.342700  0.060300  1
  C  C2023  1  0.002000  0.342700  0.560300  1
  C  C2024  1  0.502000  0.657300  0.939700  1
  C  C2025  1  0.970800  0.650600  0.460000  1
  C  C2026  1  0.470800  0.349400  0.040000  1
  C  C2027  1  0.029200  0.349400  0.540000  1
  C  C2028  1  0.529200  0.650600  0.960000  1
  C  C2029  1  0.967500  0.660800  0.491600  1
  C  C2030  1  0.467500  0.339200  0.008400  1
  C  C2031  1  0.032500  0.339200  0.508400  1
  C  C2032  1  0.532500  0.660800  0.991600  1
  C  C2033  1  0.993500  0.682900  0.508400  1
  C  C2034  1  0.493500  0.317100  0.991600  1
  C  C2035  1  0.006500  0.317100  0.491600  1
  C  C2036  1  0.506500  0.682900  0.008400  1
  C  C2037  1  0.996200  0.691700  0.541100  1
  C  C2038  1  0.496200  0.308300  0.958900  1
  C  C2039  1  0.003800  0.308300  0.458900  1
  C  C2040  1  0.503800  0.691700  0.041100  1
  C  C2041  1  0.021900  0.715200  0.554700  1
  C  C2042  1  0.521900  0.284800  0.945300  1
  C  C2043  1  0.978100  0.284800  0.445300  1
  C  C2044  1  0.478100  0.715200  0.054700  1
  C  C2045  1  0.049800  0.725100  0.536300  1
  C  C2046  1  0.549800  0.274900  0.963700  1
  C  C2047  1  0.950200  0.274900  0.463700  1
  C  C2048  1  0.450200  0.725100  0.036300  1
  C  C2049  1  0.080900  0.744600  0.544100  1
  C  C2050  1  0.580900  0.255400  0.955900  1
  C  C2051  1  0.919100  0.255400  0.455900  1
  C  C2052  1  0.419100  0.744600  0.044100  1
  C  C2053  1  0.102700  0.749800  0.520900  1
  C  C2054  1  0.602700  0.250200  0.979100  1
  C  C2055  1  0.897300  0.250200  0.479100  1
  C  C2056  1  0.397300  0.749800  0.020900  1
  C  C2057  1  0.099600  0.736900  0.488300  1
  C  C2058  1  0.599600  0.263100  0.011700  1
  C  C2059  1  0.900400  0.263100  0.511700  1
  C  C2060  1  0.400400  0.736900  0.988300  1
  C  C2061  1  0.046500  0.713100  0.503700  1
  C  C2062  1  0.546500  0.286900  0.996300  1
  C  C2063  1  0.953500  0.286900  0.496300  1
  C  C2064  1  0.453500  0.713100  0.003700  1
  C  C2065  1  0.019300  0.691200  0.487800  1
  C  C2066  1  0.519300  0.308800  0.012200  1
  C  C2067  1  0.980700  0.308800  0.512200  1
  C  C2068  1  0.480700  0.691200  0.987800  1
  C  C2069  1  0.118500  0.736900  0.459100  1
  C  C2070  1  0.618500  0.263100  0.040900  1
  C  C2071  1  0.881500  0.263100  0.540900  1
  C  C2072  1  0.381500  0.736900  0.959100  1
  C  C2073  1  0.133100  0.713100  0.403600  1
  C  C2074  1  0.633100  0.286900  0.096400  1
  C  C2075  1  0.866900  0.286900  0.596400  1
  C  C2076  1  0.366900  0.713100  0.903600  1
  C  C2077  1  0.156900  0.685300  0.392800  1
  C  C2078  1  0.656900  0.314700  0.107200  1
  C  C2079  1  0.843100  0.314700  0.607200  1
  C  C2080  1  0.343100  0.685300  0.892800  1
  C  C2081  1  0.179500  0.682000  0.366700  1
  C  C2082  1  0.679500  0.318000  0.133300  1
  C  C2083  1  0.820500  0.318000  0.633300  1
  C  C2084  1  0.320500  0.682000  0.866700  1
  C  C2085  1  0.179500  0.704600  0.345800  1
  C  C2086  1  0.679500  0.295400  0.154200  1
  C  C2087  1  0.820500  0.295400  0.654200  1
  C  C2088  1  0.320500  0.704600  0.845800  1
  C  C2089  1  0.155800  0.731900  0.356900  1
  C  C2090  1  0.655800  0.268100  0.143100  1
  C  C2091  1  0.844200  0.268100  0.643100  1
  C  C2092  1  0.344200  0.731900  0.856900  1
  C  C2093  1  0.133400  0.734500  0.382700  1
  C  C2094  1  0.633400  0.265500  0.117300  1
  C  C2095  1  0.866600  0.265500  0.617300  1
  C  C2096  1  0.366600  0.734500  0.882700  1
  C  C2097  1  0.352500  0.517600  0.210700  1
  C  C2098  1  0.852500  0.482400  0.289300  1
  C  C2099  1  0.647500  0.482400  0.789300  1
  C  C2100  1  0.147500  0.517600  0.710700  1
  C  C2101  1  0.377200  0.489500  0.201700  1
  C  C2102  1  0.877200  0.510500  0.298300  1
  C  C2103  1  0.622800  0.510500  0.798300  1
  C  C2104  1  0.122800  0.489500  0.701700  1
  C  C2105  1  0.375400  0.461600  0.213900  1
  C  C2106  1  0.875400  0.538400  0.286100  1
  C  C2107  1  0.624600  0.538400  0.786100  1
  C  C2108  1  0.124600  0.461600  0.713900  1
  C  C2109  1  0.346100  0.457900  0.232700  1
  C  C2110  1  0.846100  0.542100  0.267300  1
  C  C2111  1  0.653900  0.542100  0.767300  1
  C  C2112  1  0.153900  0.457900  0.732700  1
  C  C2113  1  0.341900  0.433800  0.252200  1
  C  C2114  1  0.841900  0.566200  0.247800  1
  C  C2115  1  0.658100  0.566200  0.747800  1
  C  C2116  1  0.158100  0.433800  0.752200  1
  C  C2117  1  0.316500  0.434700  0.274200  1
  C  C2118  1  0.816500  0.565300  0.225800  1
  C  C2119  1  0.683500  0.565300  0.725800  1
  C  C2120  1  0.183500  0.434700  0.774200  1
  C  C2121  1  0.287900  0.459900  0.283100  1
  C  C2122  1  0.787900  0.540100  0.216900  1
  C  C2123  1  0.712100  0.540100  0.716900  1
  C  C2124  1  0.212100  0.459900  0.783100  1
  C  C2125  1  0.261100  0.466100  0.306300  1
  C  C2126  1  0.761100  0.533900  0.193700  1
  C  C2127  1  0.738900  0.533900  0.693700  1
  C  C2128  1  0.238900  0.466100  0.806300  1
  C  C2129  1  0.238100  0.493400  0.312300  1
  C  C2130  1  0.738100  0.506600  0.187700  1
  C  C2131  1  0.761900  0.506600  0.687700  1
  C  C2132  1  0.261900  0.493400  0.812300  1
  C  C2133  1  0.246700  0.516100  0.293100  1
  C  C2134  1  0.746700  0.483900  0.206900  1
  C  C2135  1  0.753300  0.483900  0.706900  1
  C  C2136  1  0.253300  0.516100  0.793100  1
  C  C2137  1  0.296700  0.487300  0.266700  1
  C  C2138  1  0.796700  0.512700  0.233300  1
  C  C2139  1  0.703300  0.512700  0.733300  1
  C  C2140  1  0.203300  0.487300  0.766700  1
  C  C2141  1  0.322000  0.486100  0.242200  1
  C  C2142  1  0.822000  0.513900  0.257800  1
  C  C2143  1  0.678000  0.513900  0.757800  1
  C  C2144  1  0.178000  0.486100  0.742200  1
  C  C2145  1  0.234200  0.551600  0.303100  1
  C  C2146  1  0.734200  0.448400  0.196900  1
  C  C2147  1  0.765800  0.448400  0.696900  1
  C  C2148  1  0.265800  0.551600  0.803100  1
  C  C2149  1  0.246900  0.602700  0.288000  1
  C  C2150  1  0.746900  0.397300  0.212000  1
  C  C2151  1  0.753100  0.397300  0.712000  1
  C  C2152  1  0.253100  0.602700  0.788000  1
  C  C2153  1  0.269100  0.628300  0.305300  1
  C  C2154  1  0.769100  0.371700  0.194700  1
  C  C2155  1  0.730900  0.371700  0.694700  1
  C  C2156  1  0.230900  0.628300  0.805300  1
  C  C2157  1  0.257300  0.662800  0.315000  1
  C  C2158  1  0.757300  0.337200  0.185000  1
  C  C2159  1  0.742700  0.337200  0.685000  1
  C  C2160  1  0.242700  0.662800  0.815000  1
  C  C2161  1  0.223400  0.671700  0.307300  1
  C  C2162  1  0.723400  0.328300  0.192700  1
  C  C2163  1  0.776600  0.328300  0.692700  1
  C  C2164  1  0.276600  0.671700  0.807300  1
  C  C2165  1  0.201200  0.646000  0.290000  1
  C  C2166  1  0.701200  0.354000  0.210000  1
  C  C2167  1  0.798800  0.354000  0.710000  1
  C  C2168  1  0.298800  0.646000  0.790000  1
  C  C2169  1  0.213000  0.611500  0.280400  1
  C  C2170  1  0.713000  0.388500  0.219600  1
  C  C2171  1  0.787000  0.388500  0.719600  1
  C  C2172  1  0.287000  0.611500  0.780400  1
  C  C2173  1  0.630000  0.727100  0.506100  1
  C  C2174  1  0.130000  0.272900  0.993900  1
  C  C2175  1  0.370000  0.272900  0.493900  1
  C  C2176  1  0.870000  0.727100  0.006100  1
  C  C2177  1  0.670700  0.646800  0.712600  1
  C  C2178  1  0.170700  0.353200  0.787400  1
  C  C2179  1  0.329300  0.353200  0.287400  1
  C  C2180  1  0.829300  0.646800  0.212600  1
  C  C2181  1  0.679600  0.639400  0.741600  1
  C  C2182  1  0.179600  0.360600  0.758400  1
  C  C2183  1  0.320400  0.360600  0.258400  1
  C  C2184  1  0.820400  0.639400  0.241600  1
  C  C2185  1  0.713000  0.641100  0.752000  1
  C  C2186  1  0.213000  0.358900  0.748000  1
  C  C2187  1  0.287000  0.358900  0.248000  1
  C  C2188  1  0.787000  0.641100  0.252000  1
  C  C2189  1  0.740200  0.648800  0.733200  1
  C  C2190  1  0.240200  0.351200  0.766800  1
  C  C2191  1  0.259800  0.351200  0.266800  1
  C  C2192  1  0.759800  0.648800  0.233200  1
  C  C2193  1  0.777300  0.653000  0.740400  1
  C  C2194  1  0.277300  0.347000  0.759600  1
  C  C2195  1  0.222700  0.347000  0.259600  1
  C  C2196  1  0.722700  0.653000  0.240400  1
  C  C2197  1  0.800700  0.663200  0.720800  1
  C  C2198  1  0.300700  0.336800  0.779200  1
  C  C2199  1  0.199300  0.336800  0.279200  1
  C  C2200  1  0.699300  0.663200  0.220800  1
  C  C2201  1  0.790400  0.669400  0.691100  1
  C  C2202  1  0.290400  0.330600  0.808900  1
  C  C2203  1  0.209600  0.330600  0.308900  1
  C  C2204  1  0.709600  0.669400  0.191100  1
  C  C2205  1  0.808700  0.682400  0.668100  1
  C  C2206  1  0.308700  0.317600  0.831900  1
  C  C2207  1  0.191300  0.317600  0.331900  1
  C  C2208  1  0.691300  0.682400  0.168100  1
  C  C2209  1  0.795700  0.688400  0.640300  1
  C  C2210  1  0.295700  0.311600  0.859700  1
  C  C2211  1  0.204300  0.311600  0.359700  1
  C  C2212  1  0.704300  0.688400  0.140300  1
  C  C2213  1  0.758900  0.684200  0.634800  1
  C  C2214  1  0.258900  0.315800  0.865200  1
  C  C2215  1  0.241100  0.315800  0.365200  1
  C  C2216  1  0.741100  0.684200  0.134800  1
  C  C2217  1  0.754000  0.666800  0.683000  1
  C  C2218  1  0.254000  0.333200  0.817000  1
  C  C2219  1  0.246000  0.333200  0.317000  1
  C  C2220  1  0.746000  0.666800  0.183000  1
  C  C2221  1  0.730500  0.655700  0.704100  1
  C  C2222  1  0.230500  0.344300  0.795900  1
  C  C2223  1  0.269500  0.344300  0.295900  1
  C  C2224  1  0.769500  0.655700  0.204100  1
  C  C2225  1  0.737300  0.693100  0.610300  1
  C  C2226  1  0.237300  0.306900  0.889700  1
  C  C2227  1  0.262700  0.306900  0.389700  1
  C  C2228  1  0.762700  0.693100  0.110300  1
  C  C2229  1  0.683200  0.696400  0.582300  1
  C  C2230  1  0.183200  0.303600  0.917700  1
  C  C2231  1  0.316800  0.303600  0.417700  1
  C  C2232  1  0.816800  0.696400  0.082300  1
  C  C2233  1  0.659700  0.724500  0.589000  1
  C  C2234  1  0.159700  0.275500  0.911000  1
  C  C2235  1  0.340300  0.275500  0.411000  1
  C  C2236  1  0.840300  0.724500  0.089000  1
  C  C2237  1  0.641200  0.734000  0.565100  1
  C  C2238  1  0.141200  0.266000  0.934900  1
  C  C2239  1  0.358800  0.266000  0.434900  1
  C  C2240  1  0.858800  0.734000  0.065100  1
  C  C2241  1  0.646300  0.715400  0.534500  1
  C  C2242  1  0.146300  0.284600  0.965500  1
  C  C2243  1  0.353700  0.284600  0.465500  1
  C  C2244  1  0.853700  0.715400  0.034500  1
  C  C2245  1  0.669800  0.687300  0.527900  1
  C  C2246  1  0.169800  0.312700  0.972100  1
  C  C2247  1  0.330200  0.312700  0.472100  1
  C  C2248  1  0.830200  0.687300  0.027900  1
  C  C2249  1  0.688200  0.677800  0.551800  1
  C  C2250  1  0.188200  0.322200  0.948200  1
  C  C2251  1  0.311800  0.322200  0.448200  1
  C  C2252  1  0.811800  0.677800  0.051800  1
  C  C2253  1  0.821300  0.697700  0.338400  1
  C  C2254  1  0.321300  0.302300  0.161600  1
  C  C2255  1  0.178700  0.302300  0.661600  1
  C  C2256  1  0.678700  0.697700  0.838400  1
  C  C2257  1  0.846800  0.699200  0.315100  1
  C  C2258  1  0.346800  0.300800  0.184900  1
  C  C2259  1  0.153200  0.300800  0.684900  1
  C  C2260  1  0.653200  0.699200  0.815100  1
  C  C2261  1  0.856600  0.724600  0.300800  1
  C  C2262  1  0.356600  0.275400  0.199200  1
  C  C2263  1  0.143400  0.275400  0.699200  1
  C  C2264  1  0.643400  0.724600  0.800800  1
  C  C2265  1  0.836600  0.755300  0.310600  1
  C  C2266  1  0.336600  0.244700  0.189400  1
  C  C2267  1  0.163400  0.244700  0.689400  1
  C  C2268  1  0.663400  0.755300  0.810600  1
  C  C2269  1  0.843000  0.784800  0.298400  1
  C  C2270  1  0.343000  0.215200  0.201600  1
  C  C2271  1  0.157000  0.215200  0.701600  1
  C  C2272  1  0.657000  0.784800  0.798400  1
  C  C2273  1  0.819400  0.811300  0.307700  1
  C  C2274  1  0.319400  0.188700  0.192300  1
  C  C2275  1  0.180600  0.188700  0.692300  1
  C  C2276  1  0.680600  0.811300  0.807700  1
  C  C2277  1  0.792600  0.812200  0.330900  1
  C  C2278  1  0.292600  0.187800  0.169100  1
  C  C2279  1  0.207400  0.187800  0.669100  1
  C  C2280  1  0.707400  0.812200  0.830900  1
  C  C2281  1  0.765900  0.836000  0.342700  1
  C  C2282  1  0.265900  0.164000  0.157300  1
  C  C2283  1  0.234100  0.164000  0.657300  1
  C  C2284  1  0.734100  0.836000  0.842700  1
  C  C2285  1  0.740900  0.832300  0.363900  1
  C  C2286  1  0.240900  0.167700  0.136100  1
  C  C2287  1  0.259100  0.167700  0.636100  1
  C  C2288  1  0.759100  0.832300  0.863900  1
  C  C2289  1  0.739200  0.803300  0.377600  1
  C  C2290  1  0.239200  0.196700  0.122400  1
  C  C2291  1  0.260800  0.196700  0.622400  1
  C  C2292  1  0.760800  0.803300  0.877600  1
  C  C2293  1  0.788500  0.783000  0.343400  1
  C  C2294  1  0.288500  0.217000  0.156600  1
  C  C2295  1  0.211500  0.217000  0.656600  1
  C  C2296  1  0.711500  0.783000  0.843400  1
  C  C2297  1  0.809500  0.752900  0.332200  1
  C  C2298  1  0.309500  0.247100  0.167800  1
  C  C2299  1  0.190500  0.247100  0.667800  1
  C  C2300  1  0.690500  0.752900  0.832200  1
  C  C2301  1  0.714900  0.794600  0.400900  1
  C  C2302  1  0.214900  0.205400  0.099100  1
  C  C2303  1  0.285100  0.205400  0.599100  1
  C  C2304  1  0.785100  0.794600  0.900900  1
  C  C2305  1  0.698300  0.755100  0.431700  1
  C  C2306  1  0.198300  0.244900  0.068300  1
  C  C2307  1  0.301700  0.244900  0.568300  1
  C  C2308  1  0.801700  0.755100  0.931700  1
  C  C2309  1  0.660800  0.752500  0.428700  1
  C  C2310  1  0.160800  0.247500  0.071300  1
  C  C2311  1  0.339200  0.247500  0.571300  1
  C  C2312  1  0.839200  0.752500  0.928700  1
  C  C2313  1  0.639700  0.741800  0.451000  1
  C  C2314  1  0.139700  0.258200  0.049000  1
  C  C2315  1  0.360300  0.258200  0.549000  1
  C  C2316  1  0.860300  0.741800  0.951000  1
  C  C2317  1  0.652500  0.736600  0.480300  1
  C  C2318  1  0.152500  0.263400  0.019700  1
  C  C2319  1  0.347500  0.263400  0.519700  1
  C  C2320  1  0.847500  0.736600  0.980300  1
  C  C2321  1  0.689100  0.741100  0.482900  1
  C  C2322  1  0.189100  0.258900  0.017100  1
  C  C2323  1  0.310900  0.258900  0.517100  1
  C  C2324  1  0.810900  0.741100  0.982900  1
  C  C2325  1  0.710800  0.751000  0.460400  1
  C  C2326  1  0.210800  0.249000  0.039600  1
  C  C2327  1  0.289200  0.249000  0.539600  1
  C  C2328  1  0.789200  0.751000  0.960400  1
  C  C2329  1  0.513300  0.920100  0.501500  1
  C  C2330  1  0.013300  0.079900  0.998500  1
  C  C2331  1  0.486700  0.079900  0.498500  1
  C  C2332  1  0.986700  0.920100  0.001500  1
  C  C2333  1  0.493900  0.950300  0.498900  1
  C  C2334  1  0.993900  0.049700  0.001100  1
  C  C2335  1  0.506100  0.049700  0.501100  1
  C  C2336  1  0.006100  0.950300  0.998900  1
  C  C2337  1  0.478300  0.969600  0.524500  1
  C  C2338  1  0.978300  0.030400  0.975500  1
  C  C2339  1  0.521700  0.030400  0.475500  1
  C  C2340  1  0.021700  0.969600  0.024500  1
  C  C2341  1  0.476400  0.959300  0.552400  1
  C  C2342  1  0.976400  0.040700  0.947600  1
  C  C2343  1  0.523600  0.040700  0.447600  1
  C  C2344  1  0.023600  0.959300  0.052400  1
  C  C2345  1  0.461600  0.975900  0.582100  1
  C  C2346  1  0.961600  0.024100  0.917900  1
  C  C2347  1  0.538400  0.024100  0.417900  1
  C  C2348  1  0.038400  0.975900  0.082100  1
  C  C2349  1  0.461700  0.964700  0.608900  1
  C  C2350  1  0.961700  0.035300  0.891100  1
  C  C2351  1  0.538300  0.035300  0.391100  1
  C  C2352  1  0.038300  0.964700  0.108900  1
  C  C2353  1  0.477700  0.932900  0.614200  1
  C  C2354  1  0.977700  0.067100  0.885800  1
  C  C2355  1  0.522300  0.067100  0.385800  1
  C  C2356  1  0.022300  0.932900  0.114200  1
  C  C2357  1  0.482400  0.917600  0.640400  1
  C  C2358  1  0.982400  0.082400  0.859600  1
  C  C2359  1  0.517600  0.082400  0.359600  1
  C  C2360  1  0.017600  0.917600  0.140400  1
  C  C2361  1  0.503500  0.889300  0.639800  1
  C  C2362  1  0.003500  0.110700  0.860200  1
  C  C2363  1  0.496500  0.110700  0.360200  1
  C  C2364  1  0.996500  0.889300  0.139800  1
  C  C2365  1  0.517400  0.875600  0.609300  1
  C  C2366  1  0.017400  0.124400  0.890700  1
  C  C2367  1  0.482600  0.124400  0.390700  1
  C  C2368  1  0.982600  0.875600  0.109300  1
  C  C2369  1  0.495200  0.918000  0.584200  1
  C  C2370  1  0.995200  0.082000  0.915800  1
  C  C2371  1  0.504800  0.082000  0.415800  1
  C  C2372  1  0.004800  0.918000  0.084200  1
  C  C2373  1  0.495600  0.929300  0.555300  1
  C  C2374  1  0.995600  0.070700  0.944700  1
  C  C2375  1  0.504400  0.070700  0.444700  1
  C  C2376  1  0.004400  0.929300  0.055300  1
  C  C2377  1  0.538800  0.845600  0.601300  1
  C  C2378  1  0.038800  0.154400  0.898700  1
  C  C2379  1  0.461200  0.154400  0.398700  1
  C  C2380  1  0.961200  0.845600  0.101300  1
  C  C2381  1  0.569700  0.814500  0.553900  1
  C  C2382  1  0.069700  0.185500  0.946100  1
  C  C2383  1  0.430300  0.185500  0.446100  1
  C  C2384  1  0.930300  0.814500  0.053900  1
  C  C2385  1  0.604500  0.818900  0.545600  1
  C  C2386  1  0.104500  0.181100  0.954400  1
  C  C2387  1  0.395500  0.181100  0.454400  1
  C  C2388  1  0.895500  0.818900  0.045600  1
  C  C2389  1  0.623600  0.790900  0.529100  1
  C  C2390  1  0.123600  0.209100  0.970900  1
  C  C2391  1  0.376400  0.209100  0.470900  1
  C  C2392  1  0.876400  0.790900  0.029100  1
  C  C2393  1  0.606900  0.759000  0.519500  1
  C  C2394  1  0.106900  0.241000  0.980500  1
  C  C2395  1  0.393100  0.241000  0.480500  1
  C  C2396  1  0.893100  0.759000  0.019500  1
  C  C2397  1  0.571500  0.755500  0.526900  1
  C  C2398  1  0.071500  0.244500  0.973100  1
  C  C2399  1  0.428500  0.244500  0.473100  1
  C  C2400  1  0.928500  0.755500  0.026900  1
  C  C2401  1  0.551800  0.783400  0.543500  1
  C  C2402  1  0.051800  0.216600  0.956500  1
  C  C2403  1  0.448200  0.216600  0.456500  1
  C  C2404  1  0.948200  0.783400  0.043500  1
  C  C2405  1  0.885400  0.846500  0.493000  1
  C  C2406  1  0.385400  0.153500  0.007000  1
  C  C2407  1  0.114600  0.153500  0.507000  1
  C  C2408  1  0.614600  0.846500  0.993000  1
  C  C2409  1  0.703700  0.736900  0.323900  1
  C  C2410  1  0.203700  0.263100  0.176100  1
  C  C2411  1  0.296300  0.263100  0.676100  1
  C  C2412  1  0.796300  0.736900  0.823900  1
  C  C2413  1  0.674700  0.720700  0.306300  1
  C  C2414  1  0.174700  0.279300  0.193700  1
  C  C2415  1  0.325300  0.279300  0.693700  1
  C  C2416  1  0.825300  0.720700  0.806300  1
  C  C2417  1  0.661000  0.691100  0.311700  1
  C  C2418  1  0.161000  0.308900  0.188300  1
  C  C2419  1  0.339000  0.308900  0.688300  1
  C  C2420  1  0.839000  0.691100  0.811700  1
  C  C2421  1  0.676600  0.678000  0.335200  1
  C  C2422  1  0.176600  0.322000  0.164800  1
  C  C2423  1  0.323400  0.322000  0.664800  1
  C  C2424  1  0.823400  0.678000  0.835200  1
  C  C2425  1  0.665400  0.648500  0.346000  1
  C  C2426  1  0.165400  0.351500  0.154000  1
  C  C2427  1  0.334600  0.351500  0.654000  1
  C  C2428  1  0.834600  0.648500  0.846000  1
  C  C2429  1  0.683000  0.637000  0.368000  1
  C  C2430  1  0.183000  0.363000  0.132000  1
  C  C2431  1  0.317000  0.363000  0.632000  1
  C  C2432  1  0.817000  0.637000  0.868000  1
  C  C2433  1  0.713400  0.653400  0.384600  1
  C  C2434  1  0.213400  0.346600  0.115400  1
  C  C2435  1  0.286600  0.346600  0.615400  1
  C  C2436  1  0.786600  0.653400  0.884600  1
  C  C2437  1  0.733500  0.646700  0.409500  1
  C  C2438  1  0.233500  0.353300  0.090500  1
  C  C2439  1  0.266500  0.353300  0.590500  1
  C  C2440  1  0.766500  0.646700  0.909500  1
  C  C2441  1  0.758100  0.667100  0.428500  1
  C  C2442  1  0.258100  0.332900  0.071500  1
  C  C2443  1  0.241900  0.332900  0.571500  1
  C  C2444  1  0.741900  0.667100  0.928500  1
  C  C2445  1  0.768100  0.695400  0.415400  1
  C  C2446  1  0.268100  0.304600  0.084600  1
  C  C2447  1  0.231900  0.304600  0.584600  1
  C  C2448  1  0.731900  0.695400  0.915400  1
  C  C2449  1  0.724300  0.684000  0.376100  1
  C  C2450  1  0.224300  0.316000  0.123900  1
  C  C2451  1  0.275700  0.316000  0.623900  1
  C  C2452  1  0.775700  0.684000  0.876100  1
  C  C2453  1  0.706500  0.694300  0.351700  1
  C  C2454  1  0.206500  0.305700  0.148300  1
  C  C2455  1  0.293500  0.305700  0.648300  1
  C  C2456  1  0.793500  0.694300  0.851700  1
  C  C2457  1  0.793500  0.721000  0.432000  1
  C  C2458  1  0.293500  0.279000  0.068000  1
  C  C2459  1  0.206500  0.279000  0.568000  1
  C  C2460  1  0.706500  0.721000  0.932000  1
  C  C2461  1  0.818900  0.771400  0.431400  1
  C  C2462  1  0.318900  0.228600  0.068600  1
  C  C2463  1  0.181100  0.228600  0.568600  1
  C  C2464  1  0.681100  0.771400  0.931400  1
  C  C2465  1  0.805200  0.804400  0.445300  1
  C  C2466  1  0.305200  0.195600  0.054700  1
  C  C2467  1  0.194800  0.195600  0.554700  1
  C  C2468  1  0.694800  0.804400  0.945300  1
  C  C2469  1  0.826300  0.829000  0.465000  1
  C  C2470  1  0.326300  0.171000  0.035000  1
  C  C2471  1  0.173700  0.171000  0.535000  1
  C  C2472  1  0.673700  0.829000  0.965000  1
  C  C2473  1  0.861100  0.820800  0.470900  1
  C  C2474  1  0.361100  0.179200  0.029100  1
  C  C2475  1  0.138900  0.179200  0.529100  1
  C  C2476  1  0.638900  0.820800  0.970900  1
  C  C2477  1  0.874700  0.787800  0.457000  1
  C  C2478  1  0.374700  0.212200  0.043000  1
  C  C2479  1  0.125300  0.212200  0.543000  1
  C  C2480  1  0.625300  0.787800  0.957000  1
  C  C2481  1  0.853600  0.763100  0.437200  1
  C  C2482  1  0.353600  0.236900  0.062800  1
  C  C2483  1  0.146400  0.236900  0.562800  1
  C  C2484  1  0.646400  0.763100  0.937200  1
  C  C2485  1  0.831600  0.050500  0.618900  1
  C  C2486  1  0.331600  0.949500  0.881100  1
  C  C2487  1  0.168400  0.949500  0.381100  1
  C  C2488  1  0.668400  0.050500  0.118900  1
  C  C2489  1  0.817000  0.074500  0.645700  1
  C  C2490  1  0.317000  0.925500  0.854300  1
  C  C2491  1  0.183000  0.925500  0.354300  1
  C  C2492  1  0.683000  0.074500  0.145700  1
  C  C2493  1  0.782700  0.085300  0.650700  1
  C  C2494  1  0.282700  0.914700  0.849300  1
  C  C2495  1  0.217300  0.914700  0.349300  1
  C  C2496  1  0.717300  0.085300  0.150700  1
  C  C2497  1  0.759300  0.075100  0.625700  1
  C  C2498  1  0.259300  0.924900  0.874300  1
  C  C2499  1  0.240700  0.924900  0.374300  1
  C  C2500  1  0.740700  0.075100  0.125700  1
  C  C2501  1  0.724900  0.087600  0.624700  1
  C  C2502  1  0.224900  0.912400  0.875300  1
  C  C2503  1  0.275100  0.912400  0.375300  1
  C  C2504  1  0.775100  0.087600  0.124700  1
  C  C2505  1  0.700800  0.067900  0.605100  1
  C  C2506  1  0.200800  0.932100  0.894900  1
  C  C2507  1  0.299200  0.932100  0.394900  1
  C  C2508  1  0.799200  0.067900  0.105100  1
  C  C2509  1  0.711400  0.041900  0.578000  1
  C  C2510  1  0.211400  0.958100  0.922000  1
  C  C2511  1  0.288600  0.958100  0.422000  1
  C  C2512  1  0.788600  0.041900  0.078000  1
  C  C2513  1  0.693100  0.025600  0.551300  1
  C  C2514  1  0.193100  0.974400  0.948700  1
  C  C2515  1  0.306900  0.974400  0.448700  1
  C  C2516  1  0.806900  0.025600  0.051300  1
  C  C2517  1  0.708300  0.001400  0.527900  1
  C  C2518  1  0.208300  0.998600  0.972100  1
  C  C2519  1  0.291700  0.998600  0.472100  1
  C  C2520  1  0.791700  0.001400  0.027900  1
  C  C2521  1  0.745400  0.995300  0.527800  1
  C  C2522  1  0.245400  0.004700  0.972200  1
  C  C2523  1  0.254600  0.004700  0.472200  1
  C  C2524  1  0.754600  0.995300  0.027800  1
  C  C2525  1  0.747800  0.035300  0.577200  1
  C  C2526  1  0.247800  0.964700  0.922800  1
  C  C2527  1  0.252200  0.964700  0.422800  1
  C  C2528  1  0.752200  0.035300  0.077200  1
  C  C2529  1  0.773200  0.049300  0.600100  1
  C  C2530  1  0.273200  0.950700  0.899900  1
  C  C2531  1  0.226800  0.950700  0.399900  1
  C  C2532  1  0.726800  0.049300  0.100100  1
  C  C2533  1  0.765800  0.964600  0.511700  1
  C  C2534  1  0.265800  0.035400  0.988300  1
  C  C2535  1  0.234200  0.035400  0.488300  1
  C  C2536  1  0.734200  0.964600  0.011700  1
  C  C2537  1  0.821300  0.936000  0.508300  1
  C  C2538  1  0.321300  0.064000  0.991700  1
  C  C2539  1  0.178700  0.064000  0.491700  1
  C  C2540  1  0.678700  0.936000  0.008300  1
  C  C2541  1  0.813600  0.910100  0.524900  1
  C  C2542  1  0.313600  0.089900  0.975100  1
  C  C2543  1  0.186400  0.089900  0.475100  1
  C  C2544  1  0.686400  0.910100  0.024900  1
  C  C2545  1  0.835000  0.881300  0.519700  1
  C  C2546  1  0.335000  0.118700  0.980300  1
  C  C2547  1  0.165000  0.118700  0.480300  1
  C  C2548  1  0.665000  0.881300  0.019700  1
  C  C2549  1  0.864200  0.881000  0.499100  1
  C  C2550  1  0.364200  0.119000  0.000900  1
  C  C2551  1  0.135800  0.119000  0.500900  1
  C  C2552  1  0.635800  0.881000  0.999100  1
  C  C2553  1  0.868500  0.904300  0.480800  1
  C  C2554  1  0.368500  0.095700  0.019200  1
  C  C2555  1  0.131500  0.095700  0.519200  1
  C  C2556  1  0.631500  0.904300  0.980800  1
  C  C2557  1  0.846800  0.933900  0.486200  1
  C  C2558  1  0.346800  0.066100  0.013800  1
  C  C2559  1  0.153200  0.066100  0.513800  1
  C  C2560  1  0.653200  0.933900  0.986200  1
  C  C2561  1  0.973200  0.731700  0.654200  1
  C  C2562  1  0.473200  0.268300  0.845800  1
  C  C2563  1  0.026800  0.268300  0.345800  1
  C  C2564  1  0.526800  0.731700  0.154200  1
  C  C2565  1  0.987300  0.715700  0.677300  1
  C  C2566  1  0.487300  0.284300  0.822700  1
  C  C2567  1  0.012700  0.284300  0.322700  1
  C  C2568  1  0.512700  0.715700  0.177300  1
  C  C2569  1  0.986600  0.730800  0.707900  1
  C  C2570  1  0.486600  0.269200  0.792100  1
  C  C2571  1  0.013400  0.269200  0.292100  1
  C  C2572  1  0.513400  0.730800  0.207900  1
  C  C2573  1  0.966500  0.761100  0.718500  1
  C  C2574  1  0.466500  0.238900  0.781500  1
  C  C2575  1  0.033500  0.238900  0.281500  1
  C  C2576  1  0.533500  0.761100  0.218500  1
  C  C2577  1  0.959900  0.781300  0.749800  1
  C  C2578  1  0.459900  0.218700  0.750200  1
  C  C2579  1  0.040100  0.218700  0.250200  1
  C  C2580  1  0.540100  0.781300  0.249800  1
  C  C2581  1  0.943100  0.813500  0.757000  1
  C  C2582  1  0.443100  0.186500  0.743000  1
  C  C2583  1  0.056900  0.186500  0.243000  1
  C  C2584  1  0.556900  0.813500  0.257000  1
  C  C2585  1  0.927900  0.831500  0.734800  1
  C  C2586  1  0.427900  0.168500  0.765200  1
  C  C2587  1  0.072100  0.168500  0.265200  1
  C  C2588  1  0.572100  0.831500  0.234800  1
  C  C2589  1  0.909500  0.863500  0.734700  1
  C  C2590  1  0.409500  0.136500  0.765300  1
  C  C2591  1  0.090500  0.136500  0.265300  1
  C  C2592  1  0.590500  0.863500  0.234700  1
  C  C2593  1  0.901700  0.875600  0.709300  1
  C  C2594  1  0.401700  0.124400  0.790700  1
  C  C2595  1  0.098300  0.124400  0.290700  1
  C  C2596  1  0.598300  0.875600  0.209300  1
  C  C2597  1  0.912500  0.855100  0.679800  1
  C  C2598  1  0.412500  0.144900  0.820200  1
  C  C2599  1  0.087500  0.144900  0.320200  1
  C  C2600  1  0.587500  0.855100  0.179800  1
  C  C2601  1  0.938600  0.812200  0.703400  1
  C  C2602  1  0.438600  0.187800  0.796600  1
  C  C2603  1  0.061400  0.187800  0.296600  1
  C  C2604  1  0.561400  0.812200  0.203400  1
  C  C2605  1  0.957200  0.779400  0.695600  1
  C  C2606  1  0.457200  0.220600  0.804400  1
  C  C2607  1  0.042800  0.220600  0.304400  1
  C  C2608  1  0.542800  0.779400  0.195600  1
  C  C2609  1  0.903300  0.858400  0.649500  1
  C  C2610  1  0.403300  0.141600  0.850500  1
  C  C2611  1  0.096700  0.141600  0.350500  1
  C  C2612  1  0.596700  0.858400  0.149500  1
  C  C2613  1  0.903500  0.837600  0.592700  1
  C  C2614  1  0.403500  0.162400  0.907300  1
  C  C2615  1  0.096500  0.162400  0.407300  1
  C  C2616  1  0.596500  0.837600  0.092700  1
  C  C2617  1  0.876300  0.821000  0.572700  1
  C  C2618  1  0.376300  0.179000  0.927300  1
  C  C2619  1  0.123700  0.179000  0.427300  1
  C  C2620  1  0.623700  0.821000  0.072700  1
  C  C2621  1  0.870600  0.822800  0.541400  1
  C  C2622  1  0.370600  0.177200  0.958600  1
  C  C2623  1  0.129400  0.177200  0.458600  1
  C  C2624  1  0.629400  0.822800  0.041400  1
  C  C2625  1  0.893400  0.840700  0.525100  1
  C  C2626  1  0.393400  0.159300  0.974900  1
  C  C2627  1  0.106600  0.159300  0.474900  1
  C  C2628  1  0.606600  0.840700  0.025100  1
  C  C2629  1  0.918100  0.859700  0.546400  1
  C  C2630  1  0.418100  0.140300  0.953600  1
  C  C2631  1  0.081900  0.140300  0.453600  1
  C  C2632  1  0.581900  0.859700  0.046400  1
  C  C2633  1  0.925300  0.856700  0.576900  1
  C  C2634  1  0.425300  0.143300  0.923100  1
  C  C2635  1  0.074700  0.143300  0.423100  1
  C  C2636  1  0.574700  0.856700  0.076900  1
  C  C2637  1  0.660300  0.975900  0.653900  1
  C  C2638  1  0.160300  0.024100  0.846100  1
  C  C2639  1  0.339700  0.024100  0.346100  1
  C  C2640  1  0.839700  0.975900  0.153900  1
  C  C2641  1  0.831900  0.038900  0.508700  1
  C  C2642  1  0.331900  0.961100  0.991300  1
  C  C2643  1  0.168100  0.961100  0.491300  1
  C  C2644  1  0.668100  0.038900  0.008700  1
  C  C2645  1  0.856100  0.047800  0.487300  1
  C  C2646  1  0.356100  0.952200  0.012700  1
  C  C2647  1  0.143900  0.952200  0.512700  1
  C  C2648  1  0.643900  0.047800  0.987300  1
  C  C2649  1  0.889800  0.036900  0.486400  1
  C  C2650  1  0.389800  0.963100  0.013600  1
  C  C2651  1  0.110200  0.963100  0.513600  1
  C  C2652  1  0.610200  0.036900  0.986400  1
  C  C2653  1  0.901800  0.016600  0.506300  1
  C  C2654  1  0.401800  0.983400  0.993700  1
  C  C2655  1  0.098200  0.983400  0.493700  1
  C  C2656  1  0.598200  0.016600  0.006300  1
  C  C2657  1  0.936200  0.003200  0.509800  1
  C  C2658  1  0.436200  0.996800  0.990200  1
  C  C2659  1  0.063800  0.996800  0.490200  1
  C  C2660  1  0.563800  0.003200  0.009800  1
  C  C2661  1  0.944800  0.985000  0.531200  1
  C  C2662  1  0.444800  0.015000  0.968800  1
  C  C2663  1  0.055200  0.015000  0.468800  1
  C  C2664  1  0.555200  0.985000  0.031200  1
  C  C2665  1  0.919300  0.977500  0.552700  1
  C  C2666  1  0.419300  0.022500  0.947300  1
  C  C2667  1  0.080700  0.022500  0.447300  1
  C  C2668  1  0.580700  0.977500  0.052700  1
  C  C2669  1  0.921800  0.958100  0.576100  1
  C  C2670  1  0.421800  0.041900  0.923900  1
  C  C2671  1  0.078200  0.041900  0.423900  1
  C  C2672  1  0.578200  0.958100  0.076100  1
  C  C2673  1  0.894600  0.952400  0.595500  1
  C  C2674  1  0.394600  0.047600  0.904500  1
  C  C2675  1  0.105400  0.047600  0.404500  1
  C  C2676  1  0.605400  0.952400  0.095500  1
  C  C2677  1  0.861500  0.967500  0.591300  1
  C  C2678  1  0.361500  0.032500  0.908700  1
  C  C2679  1  0.138500  0.032500  0.408700  1
  C  C2680  1  0.638500  0.967500  0.091300  1
  C  C2681  1  0.884500  0.990800  0.551100  1
  C  C2682  1  0.384500  0.009200  0.948900  1
  C  C2683  1  0.115500  0.009200  0.448900  1
  C  C2684  1  0.615500  0.990800  0.051100  1
  C  C2685  1  0.877000  0.008700  0.527700  1
  C  C2686  1  0.377000  0.991300  0.972300  1
  C  C2687  1  0.123000  0.991300  0.472300  1
  C  C2688  1  0.623000  0.008700  0.027700  1
  C  C2689  1  0.828300  0.962600  0.606700  1
  C  C2690  1  0.328300  0.037400  0.893300  1
  C  C2691  1  0.171700  0.037400  0.393300  1
  C  C2692  1  0.671700  0.962600  0.106700  1
  C  C2693  1  0.767200  0.975600  0.612600  1
  C  C2694  1  0.267200  0.024400  0.887400  1
  C  C2695  1  0.232800  0.024400  0.387400  1
  C  C2696  1  0.732800  0.975600  0.112600  1
  C  C2697  1  0.758100  0.997800  0.641000  1
  C  C2698  1  0.258100  0.002200  0.859000  1
  C  C2699  1  0.241900  0.002200  0.359000  1
  C  C2700  1  0.741900  0.997800  0.141000  1
  C  C2701  1  0.724900  0.998100  0.654400  1
  C  C2702  1  0.224900  0.001900  0.845600  1
  C  C2703  1  0.275100  0.001900  0.345600  1
  C  C2704  1  0.775100  0.998100  0.154400  1
  C  C2705  1  0.697200  0.977300  0.639100  1
  C  C2706  1  0.197200  0.022700  0.860900  1
  C  C2707  1  0.302800  0.022700  0.360900  1
  C  C2708  1  0.802800  0.977300  0.139100  1
  C  C2709  1  0.706200  0.955400  0.610100  1
  C  C2710  1  0.206200  0.044600  0.889900  1
  C  C2711  1  0.293800  0.044600  0.389900  1
  C  C2712  1  0.793800  0.955400  0.110100  1
  C  C2713  1  0.739800  0.955100  0.596800  1
  C  C2714  1  0.239800  0.044900  0.903200  1
  C  C2715  1  0.260200  0.044900  0.403200  1
  C  C2716  1  0.760200  0.955100  0.096800  1
  C  C2717  1  0.466400  0.840100  0.531600  1
  C  C2718  1  0.966400  0.159900  0.968400  1
  C  C2719  1  0.533600  0.159900  0.468400  1
  C  C2720  1  0.033600  0.840100  0.031600  1
  C  C2721  1  0.444200  0.814600  0.511600  1
  C  C2722  1  0.944200  0.185400  0.988400  1
  C  C2723  1  0.555800  0.185400  0.488400  1
  C  C2724  1  0.055800  0.814600  0.011600  1
  C  C2725  1  0.452400  0.794700  0.482800  1
  C  C2726  1  0.952400  0.205300  0.017200  1
  C  C2727  1  0.547600  0.205300  0.517200  1
  C  C2728  1  0.047600  0.794700  0.982800  1
  C  C2729  1  0.485000  0.798800  0.469400  1
  C  C2730  1  0.985000  0.201200  0.030600  1
  C  C2731  1  0.515000  0.201200  0.530600  1
  C  C2732  1  0.015000  0.798800  0.969400  1
  C  C2733  1  0.497300  0.780600  0.440200  1
  C  C2734  1  0.997300  0.219400  0.059800  1
  C  C2735  1  0.502700  0.219400  0.559800  1
  C  C2736  1  0.002700  0.780600  0.940200  1
  C  C2737  1  0.528700  0.788600  0.428600  1
  C  C2738  1  0.028700  0.211400  0.071400  1
  C  C2739  1  0.471300  0.211400  0.571400  1
  C  C2740  1  0.971300  0.788600  0.928600  1
  C  C2741  1  0.553700  0.812500  0.446800  1
  C  C2742  1  0.053700  0.187500  0.053200  1
  C  C2743  1  0.446300  0.187500  0.553200  1
  C  C2744  1  0.946300  0.812500  0.946800  1
  C  C2745  1  0.587400  0.823800  0.440600  1
  C  C2746  1  0.087400  0.176200  0.059400  1
  C  C2747  1  0.412600  0.176200  0.559400  1
  C  C2748  1  0.912600  0.823800  0.940600  1
  C  C2749  1  0.604700  0.849100  0.461500  1
  C  C2750  1  0.104700  0.150900  0.038500  1
  C  C2751  1  0.395300  0.150900  0.538500  1
  C  C2752  1  0.895300  0.849100  0.961500  1
  C  C2753  1  0.590800  0.865500  0.491500  1
  C  C2754  1  0.090800  0.134500  0.008500  1
  C  C2755  1  0.409200  0.134500  0.508500  1
  C  C2756  1  0.909200  0.865500  0.991500  1
  C  C2757  1  0.540200  0.829200  0.476200  1
  C  C2758  1  0.040200  0.170800  0.023800  1
  C  C2759  1  0.459800  0.170800  0.523800  1
  C  C2760  1  0.959800  0.829200  0.976200  1
  C  C2761  1  0.505900  0.826000  0.488300  1
  C  C2762  1  0.005900  0.174000  0.011700  1
  C  C2763  1  0.494100  0.174000  0.511700  1
  C  C2764  1  0.994100  0.826000  0.988300  1
  C  C2765  1  0.603400  0.888500  0.520600  1
  C  C2766  1  0.103400  0.111500  0.979400  1
  C  C2767  1  0.396600  0.111500  0.479400  1
  C  C2768  1  0.896600  0.888500  0.020600  1
  C  C2769  1  0.599200  0.919700  0.575700  1
  C  C2770  1  0.099200  0.080300  0.924300  1
  C  C2771  1  0.400800  0.080300  0.424300  1
  C  C2772  1  0.900800  0.919700  0.075700  1
  C  C2773  1  0.601000  0.906600  0.602200  1
  C  C2774  1  0.101000  0.093400  0.897800  1
  C  C2775  1  0.399000  0.093400  0.397800  1
  C  C2776  1  0.899000  0.906600  0.102200  1
  C  C2777  1  0.618200  0.925600  0.628600  1
  C  C2778  1  0.118200  0.074400  0.871400  1
  C  C2779  1  0.381800  0.074400  0.371400  1
  C  C2780  1  0.881800  0.925600  0.128600  1
  C  C2781  1  0.633700  0.957800  0.628500  1
  C  C2782  1  0.133700  0.042200  0.871500  1
  C  C2783  1  0.366300  0.042200  0.371500  1
  C  C2784  1  0.866300  0.957800  0.128500  1
  C  C2785  1  0.631900  0.970900  0.602000  1
  C  C2786  1  0.131900  0.029100  0.898000  1
  C  C2787  1  0.368100  0.029100  0.398000  1
  C  C2788  1  0.868100  0.970900  0.102000  1
  C  C2789  1  0.614700  0.951800  0.575600  1
  C  C2790  1  0.114700  0.048200  0.924400  1
  C  C2791  1  0.385300  0.048200  0.424400  1
  C  C2792  1  0.885300  0.951800  0.075600  1
  C  C2793  1  0.783000  0.955900  0.857800  1
  C  C2794  1  0.283000  0.044100  0.642200  1
  C  C2795  1  0.217000  0.044100  0.142200  1
  C  C2796  1  0.717000  0.955900  0.357800  1
  C  C2797  1  0.799300  0.948500  0.884700  1
  C  C2798  1  0.299300  0.051500  0.615300  1
  C  C2799  1  0.200700  0.051500  0.115300  1
  C  C2800  1  0.700700  0.948500  0.384700  1
  C  C2801  1  0.781400  0.932300  0.903400  1
  C  C2802  1  0.281400  0.067700  0.596600  1
  C  C2803  1  0.218600  0.067700  0.096600  1
  C  C2804  1  0.718600  0.932300  0.403400  1
  C  C2805  1  0.746100  0.922400  0.896000  1
  C  C2806  1  0.246100  0.077600  0.604000  1
  C  C2807  1  0.253900  0.077600  0.104000  1
  C  C2808  1  0.753900  0.922400  0.396000  1
  C  C2809  1  0.722800  0.902200  0.910600  1
  C  C2810  1  0.222800  0.097800  0.589400  1
  C  C2811  1  0.277200  0.097800  0.089400  1
  C  C2812  1  0.777200  0.902200  0.410600  1
  C  C2813  1  0.688800  0.893100  0.900400  1
  C  C2814  1  0.188800  0.106900  0.599600  1
  C  C2815  1  0.311200  0.106900  0.099600  1
  C  C2816  1  0.811200  0.893100  0.400400  1
  C  C2817  1  0.671800  0.894700  0.871200  1
  C  C2818  1  0.171800  0.105300  0.628800  1
  C  C2819  1  0.328200  0.105300  0.128800  1
  C  C2820  1  0.828200  0.894700  0.371200  1
  C  C2821  1  0.640700  0.881800  0.854200  1
  C  C2822  1  0.140700  0.118200  0.645800  1
  C  C2823  1  0.359300  0.118200  0.145800  1
  C  C2824  1  0.859300  0.881800  0.354200  1
  C  C2825  1  0.631000  0.887900  0.826500  1
  C  C2826  1  0.131000  0.112100  0.673500  1
  C  C2827  1  0.369000  0.112100  0.173500  1
  C  C2828  1  0.869000  0.887900  0.326500  1
  C  C2829  1  0.655500  0.909300  0.815000  1
  C  C2830  1  0.155500  0.090700  0.685000  1
  C  C2831  1  0.344500  0.090700  0.185000  1
  C  C2832  1  0.844500  0.909300  0.315000  1
  C  C2833  1  0.695800  0.916600  0.857300  1
  C  C2834  1  0.195800  0.083400  0.642700  1
  C  C2835  1  0.304200  0.083400  0.142700  1
  C  C2836  1  0.804200  0.916600  0.357300  1
  C  C2837  1  0.731000  0.928000  0.868300  1
  C  C2838  1  0.231000  0.072000  0.631700  1
  C  C2839  1  0.269000  0.072000  0.131700  1
  C  C2840  1  0.769000  0.928000  0.368300  1
  C  C2841  1  0.649500  0.922800  0.788400  1
  C  C2842  1  0.149500  0.077200  0.711600  1
  C  C2843  1  0.350500  0.077200  0.211600  1
  C  C2844  1  0.850500  0.922800  0.288400  1
  C  C2845  1  0.669400  0.947900  0.748100  1
  C  C2846  1  0.169400  0.052100  0.751900  1
  C  C2847  1  0.330600  0.052100  0.251900  1
  C  C2848  1  0.830600  0.947900  0.248100  1
  C  C2849  1  0.686900  0.931700  0.720300  1
  C  C2850  1  0.186900  0.068300  0.779700  1
  C  C2851  1  0.313100  0.068300  0.279700  1
  C  C2852  1  0.813100  0.931700  0.220300  1
  C  C2853  1  0.684000  0.941100  0.691900  1
  C  C2854  1  0.184000  0.058900  0.808100  1
  C  C2855  1  0.316000  0.058900  0.308100  1
  C  C2856  1  0.816000  0.941100  0.191900  1
  C  C2857  1  0.661800  0.966700  0.685400  1
  C  C2858  1  0.161800  0.033300  0.814600  1
  C  C2859  1  0.338200  0.033300  0.314600  1
  C  C2860  1  0.838200  0.966700  0.185400  1
  C  C2861  1  0.646500  0.984300  0.714200  1
  C  C2862  1  0.146500  0.015700  0.785800  1
  C  C2863  1  0.353500  0.015700  0.285800  1
  C  C2864  1  0.853500  0.984300  0.214200  1
  C  C2865  1  0.649000  0.976300  0.743400  1
  C  C2866  1  0.149000  0.023700  0.756600  1
  C  C2867  1  0.351000  0.023700  0.256600  1
  C  C2868  1  0.851000  0.976300  0.243400  1
  C  C2869  1  0.790800  0.789100  0.743800  1
  C  C2870  1  0.290800  0.210900  0.756200  1
  C  C2871  1  0.209200  0.210900  0.256200  1
  C  C2872  1  0.709200  0.789100  0.243800  1
  C  C2873  1  0.005100  0.831900  0.629500  1
  C  C2874  1  0.505100  0.168100  0.870500  1
  C  C2875  1  0.994900  0.168100  0.370500  1
  C  C2876  1  0.494900  0.831900  0.129500  1
  C  C2877  1  0.033600  0.840500  0.611800  1
  C  C2878  1  0.533600  0.159500  0.888200  1
  C  C2879  1  0.966400  0.159500  0.388200  1
  C  C2880  1  0.466400  0.840500  0.111800  1
  C  C2881  1  0.035300  0.829600  0.581100  1
  C  C2882  1  0.535300  0.170400  0.918900  1
  C  C2883  1  0.964700  0.170400  0.418900  1
  C  C2884  1  0.464700  0.829600  0.081100  1
  C  C2885  1  0.012200  0.805800  0.563200  1
  C  C2886  1  0.512200  0.194200  0.936800  1
  C  C2887  1  0.987800  0.194200  0.436800  1
  C  C2888  1  0.487800  0.805800  0.063200  1
  C  C2889  1  0.006800  0.795500  0.530600  1
  C  C2890  1  0.506800  0.204500  0.969400  1
  C  C2891  1  0.993200  0.204500  0.469400  1
  C  C2892  1  0.493200  0.795500  0.030600  1
  C  C2893  1  0.982000  0.772200  0.515900  1
  C  C2894  1  0.482000  0.227800  0.984100  1
  C  C2895  1  0.018000  0.227800  0.484100  1
  C  C2896  1  0.518000  0.772200  0.015900  1
  C  C2897  1  0.954900  0.762100  0.534800  1
  C  C2898  1  0.454900  0.237900  0.965200  1
  C  C2899  1  0.045100  0.237900  0.465200  1
  C  C2900  1  0.545100  0.762100  0.034800  1
  C  C2901  1  0.923200  0.742800  0.527900  1
  C  C2902  1  0.423200  0.257200  0.972100  1
  C  C2903  1  0.076800  0.257200  0.472100  1
  C  C2904  1  0.576800  0.742800  0.027900  1
  C  C2905  1  0.899100  0.735600  0.549000  1
  C  C2906  1  0.399100  0.264400  0.951000  1
  C  C2907  1  0.100900  0.264400  0.451000  1
  C  C2908  1  0.600900  0.735600  0.049000  1
  C  C2909  1  0.902900  0.751400  0.581100  1
  C  C2910  1  0.402900  0.248600  0.918900  1
  C  C2911  1  0.097100  0.248600  0.418900  1
  C  C2912  1  0.597100  0.751400  0.081100  1
  C  C2913  1  0.956800  0.774500  0.567700  1
  C  C2914  1  0.456800  0.225500  0.932300  1
  C  C2915  1  0.043200  0.225500  0.432300  1
  C  C2916  1  0.543200  0.774500  0.067700  1
  C  C2917  1  0.983600  0.798300  0.581200  1
  C  C2918  1  0.483600  0.201700  0.918800  1
  C  C2919  1  0.016400  0.201700  0.418800  1
  C  C2920  1  0.516400  0.798300  0.081200  1
  C  C2921  1  0.880700  0.753100  0.608500  1
  C  C2922  1  0.380700  0.246900  0.891500  1
  C  C2923  1  0.119300  0.246900  0.391500  1
  C  C2924  1  0.619300  0.753100  0.108500  1
  C  C2925  1  0.863300  0.777500  0.661700  1
  C  C2926  1  0.363300  0.222500  0.838300  1
  C  C2927  1  0.136700  0.222500  0.338300  1
  C  C2928  1  0.636700  0.777500  0.161700  1
  C  C2929  1  0.836900  0.803200  0.668700  1
  C  C2930  1  0.336900  0.196800  0.831300  1
  C  C2931  1  0.163100  0.196800  0.331300  1
  C  C2932  1  0.663100  0.803200  0.168700  1
  C  C2933  1  0.815300  0.808200  0.695300  1
  C  C2934  1  0.315300  0.191800  0.804700  1
  C  C2935  1  0.184700  0.191800  0.304700  1
  C  C2936  1  0.684700  0.808200  0.195300  1
  C  C2937  1  0.818000  0.789300  0.718600  1
  C  C2938  1  0.318000  0.210700  0.781400  1
  C  C2939  1  0.182000  0.210700  0.281400  1
  C  C2940  1  0.682000  0.789300  0.218600  1
  C  C2941  1  0.843200  0.762500  0.711200  1
  C  C2942  1  0.343200  0.237500  0.788800  1
  C  C2943  1  0.156800  0.237500  0.288800  1
  C  C2944  1  0.656800  0.762500  0.211200  1
  C  C2945  1  0.864300  0.758700  0.684600  1
  C  C2946  1  0.364300  0.241300  0.815400  1
  C  C2947  1  0.135700  0.241300  0.315400  1
  C  C2948  1  0.635700  0.758700  0.184600  1
  C  C2949  1  0.717200  0.608900  0.599900  1
  C  C2950  1  0.217200  0.391100  0.900100  1
  C  C2951  1  0.282800  0.391100  0.400100  1
  C  C2952  1  0.782800  0.608900  0.099900  1
  C  C2953  1  0.706100  0.581400  0.573900  1
  C  C2954  1  0.206100  0.418600  0.926100  1
  C  C2955  1  0.293900  0.418600  0.426100  1
  C  C2956  1  0.793900  0.581400  0.073900  1
  C  C2957  1  0.672100  0.571500  0.566100  1
  C  C2958  1  0.172100  0.428500  0.933900  1
  C  C2959  1  0.327900  0.428500  0.433900  1
  C  C2960  1  0.827900  0.571500  0.066100  1
  C  C2961  1  0.644000  0.590200  0.582500  1
  C  C2962  1  0.144000  0.409800  0.917500  1
  C  C2963  1  0.356000  0.409800  0.417500  1
  C  C2964  1  0.856000  0.590200  0.082500  1
  C  C2965  1  0.607900  0.582500  0.576800  1
  C  C2966  1  0.107900  0.417500  0.923200  1
  C  C2967  1  0.392100  0.417500  0.423200  1
  C  C2968  1  0.892100  0.582500  0.076800  1
  C  C2969  1  0.583800  0.600600  0.596800  1
  C  C2970  1  0.083800  0.399400  0.903200  1
  C  C2971  1  0.416200  0.399400  0.403200  1
  C  C2972  1  0.916200  0.600600  0.096800  1
  C  C2973  1  0.591200  0.630800  0.621300  1
  C  C2974  1  0.091200  0.369200  0.878700  1
  C  C2975  1  0.408800  0.369200  0.378700  1
  C  C2976  1  0.908800  0.630800  0.121300  1
  C  C2977  1  0.569500  0.654900  0.640800  1
  C  C2978  1  0.069500  0.345100  0.859200  1
  C  C2979  1  0.430500  0.345100  0.359200  1
  C  C2980  1  0.930500  0.654900  0.140800  1
  C  C2981  1  0.582600  0.681700  0.663200  1
  C  C2982  1  0.082600  0.318300  0.836800  1
  C  C2983  1  0.417400  0.318300  0.336800  1
  C  C2984  1  0.917400  0.681700  0.163200  1
  C  C2985  1  0.619500  0.688100  0.665000  1
  C  C2986  1  0.119500  0.311900  0.835000  1
  C  C2987  1  0.380500  0.311900  0.335000  1
  C  C2988  1  0.880500  0.688100  0.165000  1
  C  C2989  1  0.627400  0.638800  0.623100  1
  C  C2990  1  0.127400  0.361200  0.876900  1
  C  C2991  1  0.372600  0.361200  0.376900  1
  C  C2992  1  0.872600  0.638800  0.123100  1
  C  C2993  1  0.655300  0.619400  0.606300  1
  C  C2994  1  0.155300  0.380600  0.893700  1
  C  C2995  1  0.344700  0.380600  0.393700  1
  C  C2996  1  0.844700  0.619400  0.106300  1
  C  C2997  1  0.641400  0.714100  0.686000  1
  C  C2998  1  0.141400  0.285900  0.814000  1
  C  C2999  1  0.358600  0.285900  0.314000  1
  C  C3000  1  0.858600  0.714100  0.186000  1
  C  C3001  1  0.700300  0.733900  0.701500  1
  C  C3002  1  0.200300  0.266100  0.798500  1
  C  C3003  1  0.299700  0.266100  0.298500  1
  C  C3004  1  0.799700  0.733900  0.201500  1
  C  C3005  1  0.711000  0.731200  0.731300  1
  C  C3006  1  0.211000  0.268800  0.768700  1
  C  C3007  1  0.289000  0.268800  0.268700  1
  C  C3008  1  0.789000  0.731200  0.231300  1
  C  C3009  1  0.738900  0.750700  0.748000  1
  C  C3010  1  0.238900  0.249300  0.752000  1
  C  C3011  1  0.261100  0.249300  0.252000  1
  C  C3012  1  0.761100  0.750700  0.248000  1
  C  C3013  1  0.756800  0.770500  0.730100  1
  C  C3014  1  0.256800  0.229500  0.769900  1
  C  C3015  1  0.243200  0.229500  0.269900  1
  C  C3016  1  0.743200  0.770500  0.230100  1
  C  C3017  1  0.742700  0.777000  0.702900  1
  C  C3018  1  0.242700  0.223000  0.797100  1
  C  C3019  1  0.257300  0.223000  0.297100  1
  C  C3020  1  0.757300  0.777000  0.202900  1
  C  C3021  1  0.716700  0.756200  0.685700  1
  C  C3022  1  0.216700  0.243800  0.814300  1
  C  C3023  1  0.283300  0.243800  0.314300  1
  C  C3024  1  0.783300  0.756200  0.185700  1
  C  C3025  1  0.667100  0.990200  0.866100  1
  C  C3026  1  0.167100  0.009800  0.633900  1
  C  C3027  1  0.332900  0.009800  0.133900  1
  C  C3028  1  0.832900  0.990200  0.366100  1
  C  C3029  1  0.649900  0.021600  0.881900  1
  C  C3030  1  0.149900  0.978400  0.618100  1
  C  C3031  1  0.350100  0.978400  0.118100  1
  C  C3032  1  0.850100  0.021600  0.381900  1
  C  C3033  1  0.656200  0.051000  0.872100  1
  C  C3034  1  0.156200  0.949000  0.627900  1
  C  C3035  1  0.343800  0.949000  0.127900  1
  C  C3036  1  0.843800  0.051000  0.372100  1
  C  C3037  1  0.680900  0.050200  0.848400  1
  C  C3038  1  0.180900  0.949800  0.651600  1
  C  C3039  1  0.319100  0.949800  0.151600  1
  C  C3040  1  0.819100  0.050200  0.348400  1
  C  C3041  1  0.689100  0.077200  0.832700  1
  C  C3042  1  0.189100  0.922800  0.667300  1
  C  C3043  1  0.310900  0.922800  0.167300  1
  C  C3044  1  0.810900  0.077200  0.332700  1
  C  C3045  1  0.711600  0.073900  0.808200  1
  C  C3046  1  0.211600  0.926100  0.691800  1
  C  C3047  1  0.288400  0.926100  0.191800  1
  C  C3048  1  0.788400  0.073900  0.308200  1
  C  C3049  1  0.731300  0.043500  0.791700  1
  C  C3050  1  0.231300  0.956500  0.708300  1
  C  C3051  1  0.268700  0.956500  0.208300  1
  C  C3052  1  0.768700  0.043500  0.291700  1
  C  C3053  1  0.754000  0.035100  0.765400  1
  C  C3054  1  0.254000  0.964900  0.734600  1
  C  C3055  1  0.246000  0.964900  0.234600  1
  C  C3056  1  0.746000  0.035100  0.265400  1
  C  C3057  1  0.769300  0.004000  0.752000  1
  C  C3058  1  0.269300  0.996000  0.748000  1
  C  C3059  1  0.230700  0.996000  0.248000  1
  C  C3060  1  0.730700  0.004000  0.252000  1
  C  C3061  1  0.759100  0.980100  0.770200  1
  C  C3062  1  0.259100  0.019900  0.729800  1
  C  C3063  1  0.240900  0.019900  0.229800  1
  C  C3064  1  0.740900  0.980100  0.270200  1
  C  C3065  1  0.719800  0.016000  0.806100  1
  C  C3066  1  0.219800  0.984000  0.693900  1
  C  C3067  1  0.280200  0.984000  0.193900  1
  C  C3068  1  0.780200  0.016000  0.306100  1
  C  C3069  1  0.694300  0.018000  0.830500  1
  C  C3070  1  0.194300  0.982000  0.669500  1
  C  C3071  1  0.305700  0.982000  0.169500  1
  C  C3072  1  0.805700  0.018000  0.330500  1
  C  C3073  1  0.768100  0.944500  0.759000  1
  C  C3074  1  0.268100  0.055500  0.741000  1
  C  C3075  1  0.231900  0.055500  0.241000  1
  C  C3076  1  0.731900  0.944500  0.259000  1
  C  C3077  1  0.755700  0.894400  0.776200  1
  C  C3078  1  0.255700  0.105600  0.723800  1
  C  C3079  1  0.244300  0.105600  0.223800  1
  C  C3080  1  0.744300  0.894400  0.276200  1
  C  C3081  1  0.790800  0.884800  0.779000  1
  C  C3082  1  0.290800  0.115200  0.721000  1
  C  C3083  1  0.209200  0.115200  0.221000  1
  C  C3084  1  0.709200  0.884800  0.279000  1
  C  C3085  1  0.800700  0.849700  0.769600  1
  C  C3086  1  0.300700  0.150300  0.730400  1
  C  C3087  1  0.199300  0.150300  0.230400  1
  C  C3088  1  0.699300  0.849700  0.269600  1
  C  C3089  1  0.775600  0.824200  0.757400  1
  C  C3090  1  0.275600  0.175800  0.742600  1
  C  C3091  1  0.224400  0.175800  0.242600  1
  C  C3092  1  0.724400  0.824200  0.257400  1
  C  C3093  1  0.740600  0.833800  0.754600  1
  C  C3094  1  0.240600  0.166200  0.745400  1
  C  C3095  1  0.259400  0.166200  0.245400  1
  C  C3096  1  0.759400  0.833800  0.254600  1
  C  C3097  1  0.730600  0.868900  0.764000  1
  C  C3098  1  0.230600  0.131100  0.736000  1
  C  C3099  1  0.269400  0.131100  0.236000  1
  C  C3100  1  0.769400  0.868900  0.264000  1
  C  C3101  1  0.645300  0.871600  0.357200  1
  C  C3102  1  0.145300  0.128400  0.142800  1
  C  C3103  1  0.354700  0.128400  0.642800  1
  C  C3104  1  0.854700  0.871600  0.857200  1
  C  C3105  1  0.776500  0.767800  0.556400  1
  C  C3106  1  0.276500  0.232200  0.943600  1
  C  C3107  1  0.223500  0.232200  0.443600  1
  C  C3108  1  0.723500  0.767800  0.056400  1
  C  C3109  1  0.628000  0.594200  0.487600  1
  C  C3110  1  0.128000  0.405800  0.012400  1
  C  C3111  1  0.372000  0.405800  0.512400  1
  C  C3112  1  0.872000  0.594200  0.987600  1
  C  C3113  1  0.237400  0.717200  0.491700  1
  C  C3114  1  0.737400  0.282800  0.008300  1
  C  C3115  1  0.762600  0.282800  0.508300  1
  C  C3116  1  0.262600  0.717200  0.991700  1
  C  C3117  1  0.784400  0.882800  0.646100  1
  C  C3118  1  0.284400  0.117200  0.853900  1
  C  C3119  1  0.215600  0.117200  0.353900  1
  C  C3120  1  0.715600  0.882800  0.146100  1
  C  C3121  1  0.067100  0.834900  0.365200  1
  C  C3122  1  0.567100  0.165100  0.134800  1
  C  C3123  1  0.932900  0.165100  0.634800  1
  C  C3124  1  0.432900  0.834900  0.865200  1
  C  C3125  1  0.091900  0.815300  0.342300  1
  C  C3126  1  0.591900  0.184700  0.157700  1
  C  C3127  1  0.908100  0.184700  0.657700  1
  C  C3128  1  0.408100  0.815300  0.842300  1
  S  S3129  1  0.631900  0.820100  0.342100  1
  S  S3130  1  0.131900  0.179900  0.157900  1
  S  S3131  1  0.368100  0.179900  0.657900  1
  S  S3132  1  0.868100  0.820100  0.842100  1
  S  S3133  1  0.796100  0.719200  0.535900  1
  S  S3134  1  0.296100  0.280800  0.964100  1
  S  S3135  1  0.203900  0.280800  0.464100  1
  S  S3136  1  0.703900  0.719200  0.035900  1
  S  S3137  1  0.627600  0.616400  0.450800  1
  S  S3138  1  0.127600  0.383600  0.049200  1
  S  S3139  1  0.372400  0.383600  0.549200  1
  S  S3140  1  0.872400  0.616400  0.950800  1
  S  S3141  1  0.209400  0.759300  0.516900  1
  S  S3142  1  0.709400  0.240700  0.983100  1
  S  S3143  1  0.790600  0.240700  0.483100  1
  S  S3144  1  0.290600  0.759300  0.016900  1
  S  S3145  1  0.824100  0.908300  0.673000  1
  S  S3146  1  0.324100  0.091700  0.827000  1
  S  S3147  1  0.175900  0.091700  0.327000  1
  S  S3148  1  0.675900  0.908300  0.173000  1
  N  N3149  1  0.285100  0.767300  0.712000  1
  N  N3150  1  0.785100  0.232700  0.788000  1
  N  N3151  1  0.714900  0.232700  0.288000  1
  N  N3152  1  0.214900  0.767300  0.212000  1
  N  N3153  1  0.258300  0.784600  0.662600  1
  N  N3154  1  0.758300  0.215400  0.837400  1
  N  N3155  1  0.741700  0.215400  0.337400  1
  N  N3156  1  0.241700  0.784600  0.162600  1
  N  N3157  1  0.215900  0.741300  0.637900  1
  N  N3158  1  0.715900  0.258700  0.862100  1
  N  N3159  1  0.784100  0.258700  0.362100  1
  N  N3160  1  0.284100  0.741300  0.137900  1
  N  N3161  1  0.041000  0.723300  0.406100  1
  N  N3162  1  0.541000  0.276700  0.093900  1
  N  N3163  1  0.959000  0.276700  0.593900  1
  N  N3164  1  0.459000  0.723300  0.906100  1
  N  N3165  1  0.068200  0.664500  0.385700  1
  N  N3166  1  0.568200  0.335500  0.114300  1
  N  N3167  1  0.931800  0.335500  0.614300  1
  N  N3168  1  0.431800  0.664500  0.885700  1
  N  N3169  1  0.092600  0.652700  0.439600  1
  N  N3170  1  0.592600  0.347300  0.060400  1
  N  N3171  1  0.907400  0.347300  0.560400  1
  N  N3172  1  0.407400  0.652700  0.939600  1
  N  N3173  1  0.180200  0.442600  0.477200  1
  N  N3174  1  0.680200  0.557400  0.022800  1
  N  N3175  1  0.819800  0.557400  0.522800  1
  N  N3176  1  0.319800  0.442600  0.977200  1
  N  N3177  1  0.221900  0.466700  0.528500  1
  N  N3178  1  0.721900  0.533300  0.971500  1
  N  N3179  1  0.778100  0.533300  0.471500  1
  N  N3180  1  0.278100  0.466700  0.028500  1
  N  N3181  1  0.200900  0.519000  0.552200  1
  N  N3182  1  0.700900  0.481000  0.947800  1
  N  N3183  1  0.799100  0.481000  0.447800  1
  N  N3184  1  0.299100  0.519000  0.052200  1
  N  N3185  1  0.510400  0.648000  0.545100  1
  N  N3186  1  0.010400  0.352000  0.954900  1
  N  N3187  1  0.489600  0.352000  0.454900  1
  N  N3188  1  0.989600  0.648000  0.045100  1
  N  N3189  1  0.448600  0.642500  0.565400  1
  N  N3190  1  0.948600  0.357500  0.934600  1
  N  N3191  1  0.551400  0.357500  0.434600  1
  N  N3192  1  0.051400  0.642500  0.065400  1
  N  N3193  1  0.416600  0.602500  0.520200  1
  N  N3194  1  0.916600  0.397500  0.979800  1
  N  N3195  1  0.583400  0.397500  0.479800  1
  N  N3196  1  0.083400  0.602500  0.020200  1
  N  N3197  1  0.265900  0.550200  0.215200  1
  N  N3198  1  0.765900  0.449800  0.284800  1
  N  N3199  1  0.734100  0.449800  0.784800  1
  N  N3200  1  0.234100  0.550200  0.715200  1
  N  N3201  1  0.320500  0.581100  0.240100  1
  N  N3202  1  0.820500  0.418900  0.259900  1
  N  N3203  1  0.679500  0.418900  0.759900  1
  N  N3204  1  0.179500  0.581100  0.740100  1
  N  N3205  1  0.327500  0.561400  0.294500  1
  N  N3206  1  0.827500  0.438600  0.205500  1
  N  N3207  1  0.672500  0.438600  0.705500  1
  N  N3208  1  0.172500  0.561400  0.794500  1
  N  N3209  1  0.148200  0.473600  0.544600  1
  N  N3210  1  0.648200  0.526400  0.955400  1
  N  N3211  1  0.851800  0.526400  0.455400  1
  N  N3212  1  0.351800  0.473600  0.044600  1
  N  N3213  1  0.141400  0.502700  0.496000  1
  N  N3214  1  0.641400  0.497300  0.004000  1
  N  N3215  1  0.858600  0.497300  0.504000  1
  N  N3216  1  0.358600  0.502700  0.996000  1
  N  N3217  1  0.199500  0.504000  0.470500  1
  N  N3218  1  0.699500  0.496000  0.029500  1
  N  N3219  1  0.800500  0.496000  0.529500  1
  N  N3220  1  0.300500  0.504000  0.970500  1
  N  N3221  1  0.205500  0.764300  0.710700  1
  N  N3222  1  0.705500  0.235700  0.789300  1
  N  N3223  1  0.794500  0.235700  0.289300  1
  N  N3224  1  0.294500  0.764300  0.210700  1
  N  N3225  1  0.242500  0.711200  0.694200  1
  N  N3226  1  0.742500  0.288800  0.805800  1
  N  N3227  1  0.757500  0.288800  0.305800  1
  N  N3228  1  0.257500  0.711200  0.194200  1
  N  N3229  1  0.287200  0.720600  0.651700  1
  N  N3230  1  0.787200  0.279400  0.848300  1
  N  N3231  1  0.712800  0.279400  0.348300  1
  N  N3232  1  0.212800  0.720600  0.151700  1
  N  N3233  1  0.489000  0.583100  0.533100  1
  N  N3234  1  0.989000  0.416900  0.966900  1
  N  N3235  1  0.511000  0.416900  0.466900  1
  N  N3236  1  0.011000  0.583100  0.033100  1
  N  N3237  1  0.490400  0.597900  0.477200  1
  N  N3238  1  0.990400  0.402100  0.022800  1
  N  N3239  1  0.509600  0.402100  0.522800  1
  N  N3240  1  0.009600  0.597900  0.977200  1
  N  N3241  1  0.455900  0.650000  0.486900  1
  N  N3242  1  0.955900  0.350000  0.013100  1
  N  N3243  1  0.544100  0.350000  0.513100  1
  N  N3244  1  0.044100  0.650000  0.986900  1
  N  N3245  1  0.308200  0.837500  0.368200  1
  N  N3246  1  0.808200  0.162500  0.131800  1
  N  N3247  1  0.691800  0.162500  0.631800  1
  N  N3248  1  0.191800  0.837500  0.868200  1
  N  N3249  1  0.263300  0.820900  0.408800  1
  N  N3250  1  0.763300  0.179100  0.091200  1
  N  N3251  1  0.736700  0.179100  0.591200  1
  N  N3252  1  0.236700  0.820900  0.908800  1
  N  N3253  1  0.298700  0.807800  0.456100  1
  N  N3254  1  0.798700  0.192200  0.043900  1
  N  N3255  1  0.701300  0.192200  0.543900  1
  N  N3256  1  0.201300  0.807800  0.956100  1
  N  N3257  1  0.318300  0.866400  0.448200  1
  N  N3258  1  0.818300  0.133600  0.051800  1
  N  N3259  1  0.681700  0.133600  0.551800  1
  N  N3260  1  0.181700  0.866400  0.948200  1
  N  N3261  1  0.361600  0.824200  0.416900  1
  N  N3262  1  0.861600  0.175800  0.083100  1
  N  N3263  1  0.638400  0.175800  0.583100  1
  N  N3264  1  0.138400  0.824200  0.916900  1
  N  N3265  1  0.326200  0.781900  0.380700  1
  N  N3266  1  0.826200  0.218100  0.119300  1
  N  N3267  1  0.673800  0.218100  0.619300  1
  N  N3268  1  0.173800  0.781900  0.880700  1
  N  N3269  1  0.020800  0.681100  0.456100  1
  N  N3270  1  0.520800  0.318900  0.043900  1
  N  N3271  1  0.979200  0.318900  0.543900  1
  N  N3272  1  0.479200  0.681100  0.956100  1
  N  N3273  1  0.071200  0.717300  0.481900  1
  N  N3274  1  0.571200  0.282700  0.018100  1
  N  N3275  1  0.928800  0.282700  0.518100  1
  N  N3276  1  0.428800  0.717300  0.981900  1
  N  N3277  1  0.112600  0.717300  0.431900  1
  N  N3278  1  0.612600  0.282700  0.068100  1
  N  N3279  1  0.887400  0.282700  0.568100  1
  N  N3280  1  0.387400  0.717300  0.931900  1
  N  N3281  1  0.327100  0.514700  0.230600  1
  N  N3282  1  0.827100  0.485300  0.269400  1
  N  N3283  1  0.672900  0.485300  0.769400  1
  N  N3284  1  0.172900  0.514700  0.730600  1
  N  N3285  1  0.273400  0.514700  0.272400  1
  N  N3286  1  0.773400  0.485300  0.227600  1
  N  N3287  1  0.726600  0.485300  0.727600  1
  N  N3288  1  0.226600  0.514700  0.772400  1
  N  N3289  1  0.252800  0.567200  0.286300  1
  N  N3290  1  0.752800  0.432800  0.213700  1
  N  N3291  1  0.747200  0.432800  0.713700  1
  N  N3292  1  0.247200  0.567200  0.786300  1
  N  N3293  1  0.696200  0.653100  0.692200  1
  N  N3294  1  0.196200  0.346900  0.807800  1
  N  N3295  1  0.303800  0.346900  0.307800  1
  N  N3296  1  0.803800  0.653100  0.192200  1
  N  N3297  1  0.739000  0.674100  0.656300  1
  N  N3298  1  0.239000  0.325900  0.843700  1
  N  N3299  1  0.261000  0.325900  0.343700  1
  N  N3300  1  0.761000  0.674100  0.156300  1
  N  N3301  1  0.703500  0.688300  0.607900  1
  N  N3302  1  0.203500  0.311700  0.892100  1
  N  N3303  1  0.296500  0.311700  0.392100  1
  N  N3304  1  0.796500  0.688300  0.107900  1
  N  N3305  1  0.800800  0.726200  0.345900  1
  N  N3306  1  0.300800  0.273800  0.154100  1
  N  N3307  1  0.199200  0.273800  0.654100  1
  N  N3308  1  0.699200  0.726200  0.845900  1
  N  N3309  1  0.763900  0.780100  0.365600  1
  N  N3310  1  0.263900  0.219900  0.134400  1
  N  N3311  1  0.236100  0.219900  0.634400  1
  N  N3312  1  0.736100  0.780100  0.865600  1
  N  N3313  1  0.721300  0.764900  0.408100  1
  N  N3314  1  0.221300  0.235100  0.091900  1
  N  N3315  1  0.278700  0.235100  0.591900  1
  N  N3316  1  0.778700  0.764900  0.908100  1
  N  N3317  1  0.512700  0.911200  0.529000  1
  N  N3318  1  0.012700  0.088800  0.971000  1
  N  N3319  1  0.487300  0.088800  0.471000  1
  N  N3320  1  0.987300  0.911200  0.029000  1
  N  N3321  1  0.515900  0.889900  0.583900  1
  N  N3322  1  0.015900  0.110100  0.916100  1
  N  N3323  1  0.484100  0.110100  0.416100  1
  N  N3324  1  0.984100  0.889900  0.083900  1
  N  N3325  1  0.551100  0.842600  0.573300  1
  N  N3326  1  0.051100  0.157400  0.926700  1
  N  N3327  1  0.448900  0.157400  0.426700  1
  N  N3328  1  0.948900  0.842600  0.073300  1
  N  N3329  1  0.720900  0.723700  0.345800  1
  N  N3330  1  0.220900  0.276300  0.154200  1
  N  N3331  1  0.279100  0.276300  0.654200  1
  N  N3332  1  0.779100  0.723700  0.845800  1
  N  N3333  1  0.751700  0.703500  0.390900  1
  N  N3334  1  0.251700  0.296500  0.109100  1
  N  N3335  1  0.248300  0.296500  0.609100  1
  N  N3336  1  0.748300  0.703500  0.890900  1
  N  N3337  1  0.796000  0.745200  0.416300  1
  N  N3338  1  0.296000  0.254800  0.083700  1
  N  N3339  1  0.204000  0.254800  0.583700  1
  N  N3340  1  0.704000  0.745200  0.916300  1
  N  N3341  1  0.807800  0.039000  0.596200  1
  N  N3342  1  0.307800  0.961000  0.903800  1
  N  N3343  1  0.192200  0.961000  0.403800  1
  N  N3344  1  0.692200  0.039000  0.096200  1
  N  N3345  1  0.763800  0.014400  0.551800  1
  N  N3346  1  0.263800  0.985600  0.948200  1
  N  N3347  1  0.236200  0.985600  0.448200  1
  N  N3348  1  0.736200  0.014400  0.051800  1
  N  N3349  1  0.798000  0.963700  0.521200  1
  N  N3350  1  0.298000  0.036300  0.978800  1
  N  N3351  1  0.202000  0.036300  0.478800  1
  N  N3352  1  0.702000  0.963700  0.021200  1
  N  N3353  1  0.961500  0.764400  0.664000  1
  N  N3354  1  0.461500  0.235600  0.836000  1
  N  N3355  1  0.038500  0.235600  0.336000  1
  N  N3356  1  0.538500  0.764400  0.164000  1
  N  N3357  1  0.927900  0.823700  0.677300  1
  N  N3358  1  0.427900  0.176300  0.822700  1
  N  N3359  1  0.072100  0.176300  0.322700  1
  N  N3360  1  0.572100  0.823700  0.177300  1
  N  N3361  1  0.909400  0.833900  0.624800  1
  N  N3362  1  0.409400  0.166100  0.875200  1
  N  N3363  1  0.090600  0.166100  0.375200  1
  N  N3364  1  0.590600  0.833900  0.124800  1
  N  N3365  1  0.842400  0.018900  0.528700  1
  N  N3366  1  0.342400  0.981100  0.971300  1
  N  N3367  1  0.157600  0.981100  0.471300  1
  N  N3368  1  0.657600  0.018900  0.028700  1
  N  N3369  1  0.857000  0.986200  0.569800  1
  N  N3370  1  0.357000  0.013800  0.930200  1
  N  N3371  1  0.143000  0.013800  0.430200  1
  N  N3372  1  0.643000  0.986200  0.069800  1
  N  N3373  1  0.801000  0.977800  0.598400  1
  N  N3374  1  0.301000  0.022200  0.901600  1
  N  N3375  1  0.199000  0.022200  0.401600  1
  N  N3376  1  0.699000  0.977800  0.098400  1
  N  N3377  1  0.497100  0.844300  0.517800  1
  N  N3378  1  0.997100  0.155700  0.982200  1
  N  N3379  1  0.502900  0.155700  0.482200  1
  N  N3380  1  0.002900  0.844300  0.017800  1
  N  N3381  1  0.558200  0.854700  0.496500  1
  N  N3382  1  0.058200  0.145300  0.003500  1
  N  N3383  1  0.441800  0.145300  0.503500  1
  N  N3384  1  0.941800  0.854700  0.996500  1
  N  N3385  1  0.585300  0.897200  0.546200  1
  N  N3386  1  0.085300  0.102800  0.953800  1
  N  N3387  1  0.414700  0.102800  0.453800  1
  N  N3388  1  0.914700  0.897200  0.046200  1
  N  N3389  1  0.748600  0.948300  0.851700  1
  N  N3390  1  0.248600  0.051700  0.648300  1
  N  N3391  1  0.251400  0.051700  0.148300  1
  N  N3392  1  0.751400  0.948300  0.351700  1
  N  N3393  1  0.685600  0.922800  0.829200  1
  N  N3394  1  0.185600  0.077200  0.670800  1
  N  N3395  1  0.314400  0.077200  0.170800  1
  N  N3396  1  0.814400  0.922800  0.329200  1
  N  N3397  1  0.674900  0.939400  0.778400  1
  N  N3398  1  0.174900  0.060600  0.721600  1
  N  N3399  1  0.325100  0.060600  0.221600  1
  N  N3400  1  0.825100  0.939400  0.278400  1
  N  N3401  1  0.981000  0.808800  0.613200  1
  N  N3402  1  0.481000  0.191200  0.886800  1
  N  N3403  1  0.019000  0.191200  0.386800  1
  N  N3404  1  0.519000  0.808800  0.113200  1
  N  N3405  1  0.931700  0.770600  0.589500  1
  N  N3406  1  0.431700  0.229400  0.910500  1
  N  N3407  1  0.068300  0.229400  0.410500  1
  N  N3408  1  0.568300  0.770600  0.089500  1
  N  N3409  1  0.887000  0.773200  0.635500  1
  N  N3410  1  0.387000  0.226800  0.864500  1
  N  N3411  1  0.113000  0.226800  0.364500  1
  N  N3412  1  0.613000  0.773200  0.135500  1
  N  N3413  1  0.689600  0.628300  0.613700  1
  N  N3414  1  0.189600  0.371700  0.886300  1
  N  N3415  1  0.310400  0.371700  0.386300  1
  N  N3416  1  0.810400  0.628300  0.113700  1
  N  N3417  1  0.640400  0.666100  0.644900  1
  N  N3418  1  0.140400  0.333900  0.855100  1
  N  N3419  1  0.359600  0.333900  0.355100  1
  N  N3420  1  0.859600  0.666100  0.144900  1
  N  N3421  1  0.675200  0.709800  0.683600  1
  N  N3422  1  0.175200  0.290200  0.816400  1
  N  N3423  1  0.324800  0.290200  0.316400  1
  N  N3424  1  0.824800  0.709800  0.183600  1
  N  N3425  1  0.688800  0.989100  0.842100  1
  N  N3426  1  0.188800  0.010900  0.657900  1
  N  N3427  1  0.311200  0.010900  0.157900  1
  N  N3428  1  0.811200  0.989100  0.342100  1
  N  N3429  1  0.736900  0.985300  0.794900  1
  N  N3430  1  0.236900  0.014700  0.705100  1
  N  N3431  1  0.263100  0.014700  0.205100  1
  N  N3432  1  0.763100  0.985300  0.294900  1
  N  N3433  1  0.748100  0.929200  0.775300  1
  N  N3434  1  0.248100  0.070800  0.724700  1
  N  N3435  1  0.251900  0.070800  0.224700  1
  N  N3436  1  0.751900  0.929200  0.275300  1
  N  N3437  1  0.113000  0.799300  0.326200  1
  N  N3438  1  0.613000  0.200700  0.173800  1
  N  N3439  1  0.887000  0.200700  0.673800  1
  N  N3440  1  0.387000  0.799300  0.826200  1
  O  O3441  1  0.092700  0.636300  0.590200  1
  O  O3442  1  0.592700  0.363700  0.909800  1
  O  O3443  1  0.907300  0.363700  0.409800  1
  O  O3444  1  0.407300  0.636300  0.090200  1
  O  O3445  1  0.358700  0.483800  0.407500  1
  O  O3446  1  0.858700  0.516200  0.092500  1
  O  O3447  1  0.641300  0.516200  0.592500  1
  O  O3448  1  0.141300  0.483800  0.907500  1
  O  O3449  1  0.402600  0.787200  0.572000  1
  O  O3450  1  0.902600  0.212800  0.928000  1
  O  O3451  1  0.597400  0.212800  0.428000  1
  O  O3452  1  0.097400  0.787200  0.072000  1
  O  O3453  1  0.198200  0.716200  0.292900  1
  O  O3454  1  0.698200  0.283800  0.207100  1
  O  O3455  1  0.801800  0.283800  0.707100  1
  O  O3456  1  0.301800  0.716200  0.792900  1
  O  O3457  1  0.601100  0.704900  0.488400  1
  O  O3458  1  0.101100  0.295100  0.011600  1
  O  O3459  1  0.398900  0.295100  0.511600  1
  O  O3460  1  0.898900  0.704900  0.988400  1
  O  O3461  1  0.915900  0.851200  0.474000  1
  O  O3462  1  0.415900  0.148800  0.026000  1
  O  O3463  1  0.084100  0.148800  0.526000  1
  O  O3464  1  0.584100  0.851200  0.974000  1
  O  O3465  1  0.646200  0.012000  0.661200  1
  O  O3466  1  0.146200  0.988000  0.838800  1
  O  O3467  1  0.353800  0.988000  0.338800  1
  O  O3468  1  0.853800  0.012000  0.161200  1
  O  O3469  1  0.799000  0.781400  0.773900  1
  O  O3470  1  0.299000  0.218600  0.726100  1
  O  O3471  1  0.201000  0.218600  0.226100  1
  O  O3472  1  0.701000  0.781400  0.273900  1
  O  O3473  1  0.595200  0.818900  0.348400  1
  O  O3474  1  0.095200  0.181100  0.151600  1
  O  O3475  1  0.404800  0.181100  0.651600  1
  O  O3476  1  0.904800  0.818900  0.848400  1
  O  O3477  1  0.652200  0.806100  0.363300  1
  O  O3478  1  0.152200  0.193900  0.136700  1
  O  O3479  1  0.347800  0.193900  0.636700  1
  O  O3480  1  0.847800  0.806100  0.863300  1
  O  O3481  1  0.641500  0.813700  0.310500  1
  O  O3482  1  0.141500  0.186300  0.189500  1
  O  O3483  1  0.358500  0.186300  0.689500  1
  O  O3484  1  0.858500  0.813700  0.810500  1
  O  O3485  1  0.823900  0.725300  0.516600  1
  O  O3486  1  0.323900  0.274700  0.983400  1
  O  O3487  1  0.176100  0.274700  0.483400  1
  O  O3488  1  0.676100  0.725300  0.016600  1
  O  O3489  1  0.808300  0.711000  0.564500  1
  O  O3490  1  0.308300  0.289000  0.935500  1
  O  O3491  1  0.191700  0.289000  0.435500  1
  O  O3492  1  0.691700  0.711000  0.064500  1
  O  O3493  1  0.765200  0.704100  0.521300  1
  O  O3494  1  0.265200  0.295900  0.978700  1
  O  O3495  1  0.234800  0.295900  0.478700  1
  O  O3496  1  0.734800  0.704100  0.021300  1
  O  O3497  1  0.611400  0.591700  0.425800  1
  O  O3498  1  0.111400  0.408300  0.074200  1
  O  O3499  1  0.388600  0.408300  0.574200  1
  O  O3500  1  0.888600  0.591700  0.925800  1
  O  O3501  1  0.663900  0.623100  0.446800  1
  O  O3502  1  0.163900  0.376900  0.053200  1
  O  O3503  1  0.336100  0.376900  0.553200  1
  O  O3504  1  0.836100  0.623100  0.946800  1
  O  O3505  1  0.605700  0.644600  0.463500  1
  O  O3506  1  0.105700  0.355400  0.036500  1
  O  O3507  1  0.394300  0.355400  0.536500  1
  O  O3508  1  0.894300  0.644600  0.963500  1
  O  O3509  1  0.235900  0.778400  0.534900  1
  O  O3510  1  0.735900  0.221600  0.965100  1
  O  O3511  1  0.764100  0.221600  0.465100  1
  O  O3512  1  0.264100  0.778400  0.034900  1
  O  O3513  1  0.196100  0.771000  0.490300  1
  O  O3514  1  0.696100  0.229000  0.009700  1
  O  O3515  1  0.803900  0.229000  0.509700  1
  O  O3516  1  0.303900  0.771000  0.990300  1
  O  O3517  1  0.181900  0.744000  0.530900  1
  O  O3518  1  0.681900  0.256000  0.969100  1
  O  O3519  1  0.818100  0.256000  0.469100  1
  O  O3520  1  0.318100  0.744000  0.030900  1
  O  O3521  1  0.850000  0.908200  0.649500  1
  O  O3522  1  0.350000  0.091800  0.850500  1
  O  O3523  1  0.150000  0.091800  0.350500  1
  O  O3524  1  0.650000  0.908200  0.149500  1
  O  O3525  1  0.830900  0.888100  0.694800  1
  O  O3526  1  0.330900  0.111900  0.805200  1
  O  O3527  1  0.169100  0.111900  0.305200  1
  O  O3528  1  0.669100  0.888100  0.194800  1
  O  O3529  1  0.810800  0.942100  0.686700  1
  O  O3530  1  0.310800  0.057900  0.813300  1
  O  O3531  1  0.189200  0.057900  0.313300  1
  O  O3532  1  0.689200  0.942100  0.186700  1
  F  F3533  1  0.626200  0.887600  0.339800  1
  F  F3534  1  0.126200  0.112400  0.160200  1
  F  F3535  1  0.373800  0.112400  0.660200  1
  F  F3536  1  0.873800  0.887600  0.839800  1
  F  F3537  1  0.679000  0.875100  0.352600  1
  F  F3538  1  0.179000  0.124900  0.147400  1
  F  F3539  1  0.321000  0.124900  0.647400  1
  F  F3540  1  0.821000  0.875100  0.852600  1
  F  F3541  1  0.638700  0.880700  0.386900  1
  F  F3542  1  0.138700  0.119300  0.113100  1
  F  F3543  1  0.361300  0.119300  0.613100  1
  F  F3544  1  0.861300  0.880700  0.886900  1
  F  F3545  1  0.767900  0.777700  0.531300  1
  F  F3546  1  0.267900  0.222300  0.968700  1
  F  F3547  1  0.232100  0.222300  0.468700  1
  F  F3548  1  0.732100  0.777700  0.031300  1
  F  F3549  1  0.801000  0.784100  0.575300  1
  F  F3550  1  0.301000  0.215900  0.924700  1
  F  F3551  1  0.199000  0.215900  0.424700  1
  F  F3552  1  0.699000  0.784100  0.075300  1
  F  F3553  1  0.750500  0.763200  0.574500  1
  F  F3554  1  0.250500  0.236800  0.925500  1
  F  F3555  1  0.249500  0.236800  0.425500  1
  F  F3556  1  0.749500  0.763200  0.074500  1
  F  F3557  1  0.596100  0.588300  0.497600  1
  F  F3558  1  0.096100  0.411700  0.002400  1
  F  F3559  1  0.403900  0.411700  0.502400  1
  F  F3560  1  0.903900  0.588300  0.997600  1
  F  F3561  1  0.646900  0.566000  0.482100  1
  F  F3562  1  0.146900  0.434000  0.017900  1
  F  F3563  1  0.353100  0.434000  0.517900  1
  F  F3564  1  0.853100  0.566000  0.982100  1
  F  F3565  1  0.643500  0.615100  0.512100  1
  F  F3566  1  0.143500  0.384900  0.987900  1
  F  F3567  1  0.356500  0.384900  0.487900  1
  F  F3568  1  0.856500  0.615100  0.012100  1
  F  F3569  1  0.250200  0.701800  0.512500  1
  F  F3570  1  0.750200  0.298200  0.987500  1
  F  F3571  1  0.749800  0.298200  0.487500  1
  F  F3572  1  0.249800  0.701800  0.012500  1
  F  F3573  1  0.215100  0.698900  0.471500  1
  F  F3574  1  0.715100  0.301100  0.028500  1
  F  F3575  1  0.784900  0.301100  0.528500  1
  F  F3576  1  0.284900  0.698900  0.971500  1
  F  F3577  1  0.262400  0.729400  0.476200  1
  F  F3578  1  0.762400  0.270600  0.023800  1
  F  F3579  1  0.737600  0.270600  0.523800  1
  F  F3580  1  0.237600  0.729400  0.976200  1
  F  F3581  1  0.793900  0.849900  0.634100  1
  F  F3582  1  0.293900  0.150100  0.865900  1
  F  F3583  1  0.206100  0.150100  0.365900  1
  F  F3584  1  0.706100  0.849900  0.134100  1
  F  F3585  1  0.777200  0.895400  0.621500  1
  F  F3586  1  0.277200  0.104600  0.878500  1
  F  F3587  1  0.222800  0.104600  0.378500  1
  F  F3588  1  0.722800  0.895400  0.121500  1
  F  F3589  1  0.756400  0.882400  0.663500  1
  F  F3590  1  0.256400  0.117600  0.836500  1
  F  F3591  1  0.243600  0.117600  0.336500  1
  F  F3592  1  0.743600  0.882400  0.163500  1
