
#######################################################################
#
#                 Cambridge Crystallographic Data Centre
#                                CCDC 
#
#######################################################################
#
# If this CIF has been generated from an entry in the Cambridge 
# Structural Database, then it will include bibliographic, chemical, 
# crystal, experimental, refinement or atomic coordinate data resulting 
# from the CCDC's data processing and validation procedures.
#
#######################################################################

data_IMUGAA
_chemical_formula_moiety         
'C232 H148 N36 O4 Zn6 12+,12(C1 F3 O3 S1 1-),0.5(C2 H3 N1)'
_chemical_name_systematic        
'tetrakis(\m~3~-tris(4-((1,10-Phenanthrolin-2-ylmethylene)amino)phenyl)methanol)-hexa-zinc dodecakis(trifluoromethanesulfonate) acetonitrile solvate'
_symmetry_cell_setting           monoclinic
_symmetry_space_group_name_H-M   'P 21/c'
_symmetry_Int_Tables_number      14
_space_group_name_Hall           '-P 2ybc'
loop_
_symmetry_equiv_pos_site_id
_symmetry_equiv_pos_as_xyz
1 x,y,z
2 -x,1/2+y,1/2-z
3 -x,-y,-z
4 x,1/2-y,1/2+z
_cell_length_a                   39.1746(9)
_cell_length_b                   37.7597(8)
_cell_length_c                   44.3076(9)
_cell_angle_alpha                90
_cell_angle_beta                 103.755(2)
_cell_angle_gamma                90
_cell_volume                     63661.1
_exptl_crystal_colour            purple
_exptl_crystal_description       needle
_cell_formula_units_Z            8
loop_
_atom_site_label
_atom_site_type_symbol
_atom_site_fract_x
_atom_site_fract_y
_atom_site_fract_z
Zn1 Zn 0.17629(8) 0.68808(9) 0.58531(9)
Zn2 Zn 0.25203(9) 0.75128(10) 0.32252(9)
Zn3 Zn 0.37956(9) 0.53211(9) 0.47665(10)
Zn4 Zn 0.51538(10) 0.81799(12) 0.49032(11)
Zn5 Zn 0.30745(13) 0.93300(10) 0.56888(13)
Zn6 Zn 0.44906(11) 0.70630(16) 0.74236(11)
C1 C 0.3597(4) 0.8776(4) 0.4299(4)
C2 C 0.2424(6) 0.7029(6) 0.2622(5)
H1 H 0.2607 0.7149 0.2557
C3 C 0.2266(6) 0.6735(6) 0.2449(6)
H2 H 0.2348 0.6652 0.2277
C4 C 0.1998(6) 0.6575(6) 0.2532(5)
H3 H 0.1886 0.6377 0.2416
C5 C 0.1881(6) 0.6698(6) 0.2788(6)
C6 C 0.1634(7) 0.6546(7) 0.2940(6)
H4 H 0.1541 0.6321 0.2867
C7 C 0.1519(7) 0.6691(7) 0.3177(6)
H5 H 0.1310 0.6603 0.3224
C8 C 0.1707(7) 0.6974(7) 0.3357(6)
C9 C 0.1667(7) 0.7135(7) 0.3636(6)
H6 H 0.1500 0.7028 0.3731
C10 C 0.1838(6) 0.7428(7) 0.3788(6)
H7 H 0.1793 0.7527 0.3972
C11 C 0.2092(5) 0.7560(5) 0.3632(4)
C12 C 0.1970(6) 0.7132(6) 0.3233(5)
C13 C 0.2056(5) 0.6985(6) 0.2965(5)
C14 C 0.2351(5) 0.7820(6) 0.3782(5)
H8 H 0.2348 0.7951 0.3964
C15 C 0.2854(4) 0.8086(5) 0.3747(4)
C16 C 0.3184(4) 0.7947(5) 0.3868(4)
H9 H 0.3235 0.7705 0.3838
C17 C 0.3434(5) 0.8172(5) 0.4032(5)
H10 H 0.3669 0.8093 0.4105
C18 C 0.3345(5) 0.8516(5) 0.4090(5)
C19 C 0.3024(5) 0.8659(5) 0.3939(6)
H11 H 0.2981 0.8905 0.3950
C20 C 0.2770(5) 0.8437(5) 0.3771(6)
H12 H 0.2542 0.8524 0.3675
C21 C 0.2462(7) 0.9733(7) 0.5796(6)
H13 H 0.2373 0.9745 0.5577
C22 C 0.2290(7) 0.9868(7) 0.6025(7)
H14 H 0.2068 0.9975 0.5942
C23 C 0.2393(7) 0.9866(6) 0.6338(7)
H15 H 0.2248 0.9970 0.6458
C24 C 0.2711(7) 0.9712(6) 0.6482(6)
C25 C 0.2846(8) 0.9678(7) 0.6803(6)
H16 H 0.2718 0.9765 0.6945
C26 C 0.3163(8) 0.9520(7) 0.6909(6)
H17 H 0.3254 0.9496 0.7127
C27 C 0.3365(7) 0.9388(7) 0.6702(6)
C28 C 0.3685(7) 0.9214(7) 0.6740(6)
H18 H 0.3817 0.9168 0.6945
C29 C 0.3819(7) 0.9106(7) 0.6497(6)
H19 H 0.4040 0.8989 0.6547
C30 C 0.3658(6) 0.9154(6) 0.6177(6)
C31 C 0.3212(6) 0.9430(5) 0.6383(6)
C32 C 0.2883(6) 0.9588(5) 0.6254(5)
C33 C 0.3688(7) 0.9029(7) 0.5869(5)
H20 H 0.3894 0.8898 0.5867
C34 C 0.3516(7) 0.9007(6) 0.5294(4)
C35 C 0.3353(7) 0.8725(6) 0.5104(5)
H21 H 0.3220 0.8564 0.5195
C36 C 0.3365(6) 0.8655(5) 0.4795(5)
H22 H 0.3247 0.8451 0.4696
C37 C 0.3548(6) 0.8877(6) 0.4622(4)
C38 C 0.3743(6) 0.9126(6) 0.4825(5)
H23 H 0.3914 0.9256 0.4751
C39 C 0.3713(6) 0.9207(6) 0.5132(5)
H24 H 0.3834 0.9409 0.5232
C40 C 0.5681(6) 0.8419(6) 0.5466(6)
H25 H 0.5518 0.8566 0.5533
C41 C 0.6043(7) 0.8429(7) 0.5617(7)
H26 H 0.6141 0.8623 0.5745
C42 C 0.6242(6) 0.8153(7) 0.5571(6)
H27 H 0.6461 0.8110 0.5714
C43 C 0.6134(6) 0.7928(7) 0.5317(6)
C44 C 0.6289(6) 0.7619(7) 0.5225(6)
H28 H 0.6500 0.7545 0.5364
C45 C 0.6181(6) 0.7413(7) 0.4967(6)
H29 H 0.6340 0.7238 0.4929
C46 C 0.5843(6) 0.7439(7) 0.4747(6)
C47 C 0.5663(6) 0.7241(7) 0.4483(6)
H30 H 0.5781 0.7043 0.4423
C48 C 0.5335(6) 0.7315(6) 0.4311(6)
H31 H 0.5224 0.7208 0.4119
C49 C 0.5187(5) 0.7579(6) 0.4467(5)
C50 C 0.5662(5) 0.7711(6) 0.4888(5)
C51 C 0.5785(6) 0.7953(6) 0.5140(5)
C52 C 0.4848(6) 0.7715(7) 0.4313(6)
H32 H 0.4688 0.7625 0.4134
C53 C 0.4498(4) 0.8191(4) 0.4413(5)
C54 C 0.4299(5) 0.8126(5) 0.4627(5)
H33 H 0.4363 0.7953 0.4786
C55 C 0.4002(4) 0.8331(5) 0.4592(4)
H34 H 0.3846 0.8308 0.4726
C56 C 0.3944(4) 0.8575(5) 0.4347(5)
C57 C 0.4148(5) 0.8634(5) 0.4135(5)
H35 H 0.4086 0.8806 0.3975
C58 C 0.4447(5) 0.8429(5) 0.4169(5)
H36 H 0.4604 0.8449 0.4037
N1 N 0.2327(4) 0.7149(4) 0.2880(4)
N2 N 0.2154(4) 0.7417(4) 0.3374(4)
N3 N 0.2587(4) 0.7841(4) 0.3621(4)
N4 N 0.2767(6) 0.9590(5) 0.5939(5)
N5 N 0.3355(5) 0.9318(5) 0.6143(5)
N6 N 0.3473(6) 0.9074(6) 0.5604(4)
N7 N 0.5574(5) 0.8198(6) 0.5228(5)
N8 N 0.5333(4) 0.7781(5) 0.4715(4)
N9 N 0.4810(4) 0.7991(5) 0.4478(5)
O1 O 0.3637(5) 0.9073(4) 0.4098(4)
H37 H 0.3614 0.9000 0.3915
C59 C 0.4826(4) 0.6599(4) 0.5837(3)
C60 C 0.3506(6) 0.4580(5) 0.4699(5)
H38 H 0.3637 0.4539 0.4905
C61 C 0.3282(7) 0.4320(6) 0.4523(6)
H39 H 0.3299 0.4082 0.4594
C62 C 0.3050(8) 0.4403(6) 0.4262(6)
H40 H 0.2874 0.4234 0.4177
C63 C 0.3050(7) 0.4719(6) 0.4105(6)
C64 C 0.2858(6) 0.4848(6) 0.3812(5)
H41 H 0.2694 0.4689 0.3689
C65 C 0.2884(5) 0.5171(5) 0.3691(5)
H42 H 0.2741 0.5227 0.3492
C66 C 0.3121(6) 0.5430(5) 0.3857(5)
C67 C 0.3212(6) 0.5780(5) 0.3783(5)
H43 H 0.3096 0.5875 0.3587
C68 C 0.3457(6) 0.5989(6) 0.3979(5)
H44 H 0.3514 0.6217 0.3917
C69 C 0.3621(5) 0.5852(4) 0.4275(5)
C70 C 0.3330(5) 0.5311(5) 0.4148(5)
C71 C 0.3299(5) 0.4967(5) 0.4265(5)
C72 C 0.3870(6) 0.6008(6) 0.4538(4)
H45 H 0.3957 0.6239 0.4520
C73 C 0.4183(4) 0.6015(4) 0.5068(3)
C74 C 0.4082(4) 0.6350(4) 0.5142(4)
H46 H 0.3872 0.6454 0.5023
C75 C 0.4288(4) 0.6534(3) 0.5392(4)
H47 H 0.4218 0.6763 0.5443
C76 C 0.4595(4) 0.6382(4) 0.5568(3)
C77 C 0.4696(3) 0.6047(4) 0.5493(4)
H48 H 0.4905 0.5943 0.5613
C78 C 0.4490(4) 0.5863(3) 0.5243(4)
H49 H 0.4559 0.5634 0.5192
C79 C 0.4618(9) 0.7666(7) 0.7936(7)
H50 H 0.4726 0.7817 0.7814
C80 C 0.4566(8) 0.7760(8) 0.8235(7)
H51 H 0.4677 0.7974 0.8318
C81 C 0.4385(8) 0.7596(8) 0.8422(6)
H52 H 0.4367 0.7691 0.8616
C82 C 0.4227(10) 0.7274(8) 0.8306(7)
C83 C 0.3992(9) 0.7100(8) 0.8454(7)
H53 H 0.3933 0.7192 0.8635
C84 C 0.3855(9) 0.6791(9) 0.8318(7)
H54 H 0.3726 0.6646 0.8426
C85 C 0.3895(7) 0.6673(7) 0.8020(6)
C86 C 0.3782(8) 0.6364(7) 0.7851(6)
H55 H 0.3646 0.6199 0.7933
C87 C 0.3860(7) 0.6293(7) 0.7574(6)
H56 H 0.3763 0.6084 0.7468
C88 C 0.4078(8) 0.6507(7) 0.7432(6)
C89 C 0.4140(8) 0.6852(7) 0.7891(5)
C90 C 0.4292(8) 0.7179(7) 0.8016(6)
C91 C 0.4206(7) 0.6482(7) 0.7146(6)
H57 H 0.4152 0.6274 0.7023
C92 C 0.4489(7) 0.6683(6) 0.6763(4)
C93 C 0.4380(7) 0.6895(7) 0.6497(5)
H58 H 0.4220 0.7078 0.6513
C94 C 0.4473(6) 0.6878(6) 0.6209(5)
H59 H 0.4371 0.7043 0.6051
C95 C 0.4714(5) 0.6622(6) 0.6149(4)
C96 C 0.4824(6) 0.6416(6) 0.6418(5)
H60 H 0.5011 0.6256 0.6415
C97 C 0.4699(6) 0.6411(6) 0.6694(5)
H61 H 0.4759 0.6218 0.6834
C98 C 0.5455(6) 0.8489(7) 0.4339(6)
H62 H 0.5578 0.8274 0.4331
C99 C 0.5483(7) 0.8758(7) 0.4124(6)
H63 H 0.5627 0.8723 0.3981
C100 C 0.5307(8) 0.9066(7) 0.4123(6)
H64 H 0.5290 0.9236 0.3962
C101 C 0.5148(8) 0.9120(7) 0.4374(7)
C102 C 0.4977(10) 0.9439(7) 0.4446(8)
H65 H 0.4969 0.9638 0.4314
C103 C 0.4828(9) 0.9469(7) 0.4694(7)
H66 H 0.4723 0.9692 0.4715
C104 C 0.4809(10) 0.9206(7) 0.4932(7)
C105 C 0.4635(8) 0.9169(7) 0.5178(7)
H67 H 0.4494 0.9364 0.5210
C106 C 0.4645(8) 0.8888(6) 0.5374(7)
H68 H 0.4546 0.8889 0.5550
C107 C 0.4822(7) 0.8596(6) 0.5283(6)
C108 C 0.4975(9) 0.8882(6) 0.4852(7)
C109 C 0.5129(8) 0.8845(6) 0.4587(6)
C110 C 0.4818(7) 0.8254(5) 0.5425(6)
H69 H 0.4720 0.8215 0.5599
C111 C 0.4985(6) 0.7658(5) 0.5434(5)
C112 C 0.5052(7) 0.7589(5) 0.5756(5)
H70 H 0.5132 0.7781 0.5893
C113 C 0.5012(6) 0.7259(5) 0.5887(5)
H71 H 0.5060 0.7238 0.6107
C114 C 0.4904(6) 0.6959(4) 0.5706(5)
C115 C 0.4884(7) 0.7026(5) 0.5390(5)
H72 H 0.4847 0.6826 0.5256
C116 C 0.4915(7) 0.7352(5) 0.5250(5)
H73 H 0.4888 0.7367 0.5032
N10 N 0.3520(4) 0.4896(4) 0.4549(4)
N11 N 0.3575(4) 0.5514(4) 0.4346(4)
N12 N 0.3975(4) 0.5834(4) 0.4798(4)
N13 N 0.4498(7) 0.7341(7) 0.7848(5)
N14 N 0.4189(6) 0.6795(6) 0.7599(5)
N15 N 0.4386(6) 0.6725(6) 0.7055(4)
N16 N 0.5264(5) 0.8518(5) 0.4554(5)
N17 N 0.4973(5) 0.8586(5) 0.5040(5)
N18 N 0.4960(5) 0.8005(4) 0.5295(5)
O2 O 0.5162(4) 0.6413(5) 0.5925(4)
H74 H 0.5227 0.6400 0.6119
C117 C 0.2347(4) 0.6260(4) 0.4444(3)
C118 C 0.2074(6) 0.8161(6) 0.2858(6)
H75 H 0.1904 0.8127 0.2976
C119 C 0.2042(6) 0.8437(6) 0.2641(5)
H76 H 0.1848 0.8594 0.2626
C120 C 0.2251(5) 0.8500(6) 0.2456(6)
H77 H 0.2183 0.8655 0.2283
C121 C 0.2575(5) 0.8333(5) 0.2522(5)
C122 C 0.2866(5) 0.8382(5) 0.2388(5)
H78 H 0.2867 0.8577 0.2252
C123 C 0.3139(5) 0.8158(5) 0.2449(5)
H79 H 0.3328 0.8195 0.2353
C124 C 0.3152(5) 0.7865(5) 0.2655(5)
C125 C 0.3408(5) 0.7606(5) 0.2770(5)
H80 H 0.3612 0.7613 0.2689
C126 C 0.3401(5) 0.7343(6) 0.2985(5)
H81 H 0.3586 0.7175 0.3032
C127 C 0.3124(5) 0.7323(5) 0.3135(5)
C128 C 0.2899(5) 0.7827(5) 0.2832(5)
C129 C 0.2604(5) 0.8047(6) 0.2736(5)
C130 C 0.3070(5) 0.7083(5) 0.3381(5)
H82 H 0.3235 0.6902 0.3462
C131 C 0.2706(5) 0.6905(5) 0.3717(4)
C132 C 0.2680(6) 0.7036(5) 0.4011(5)
H83 H 0.2735 0.7278 0.4056
C133 C 0.2580(6) 0.6833(5) 0.4240(5)
H84 H 0.2596 0.6937 0.4438
C134 C 0.2458(6) 0.6486(5) 0.4192(4)
C135 C 0.2485(6) 0.6354(5) 0.3896(4)
H85 H 0.2415 0.6116 0.3846
C136 C 0.2606(6) 0.6550(5) 0.3674(5)
H86 H 0.2622 0.6437 0.3486
C137 C 0.4221(6) 0.5128(6) 0.4380(5)
H87 H 0.4074 0.5259 0.4216
C138 C 0.4523(6) 0.4928(7) 0.4346(6)
H88 H 0.4579 0.4923 0.4149
C139 C 0.4731(7) 0.4746(7) 0.4586(6)
H89 H 0.4938 0.4637 0.4555
C140 C 0.4651(6) 0.4713(6) 0.4876(5)
C141 C 0.4854(7) 0.4547(8) 0.5138(6)
H90 H 0.5065 0.4432 0.5122
C142 C 0.4764(6) 0.4540(7) 0.5413(6)
H91 H 0.4912 0.4412 0.5578
C143 C 0.4465(7) 0.4711(7) 0.5475(5)
C144 C 0.4358(6) 0.4759(7) 0.5750(5)
H92 H 0.4500 0.4670 0.5939
C145 C 0.4056(6) 0.4930(7) 0.5755(5)
H93 H 0.3965 0.4935 0.5936
C146 C 0.3880(6) 0.5102(6) 0.5475(5)
C147 C 0.4288(6) 0.4889(6) 0.5206(5)
C148 C 0.4359(6) 0.4919(6) 0.4908(5)
C149 C 0.3558(6) 0.5316(6) 0.5407(5)
H94 H 0.3413 0.5355 0.5548
C150 C 0.3222(3) 0.5631(3) 0.4938(3)
C151 C 0.3252(3) 0.5995(3) 0.4911(4)
H95 H 0.3465 0.6111 0.5010
C152 C 0.2971(4) 0.6191(3) 0.4740(4)
H96 H 0.2992 0.6440 0.4721
C153 C 0.2660(3) 0.6021(4) 0.4595(4)
C154 C 0.2630(3) 0.5656(4) 0.4623(3)
H97 H 0.2418 0.5540 0.4524
C155 C 0.2911(4) 0.5461(3) 0.4794(4)
H98 H 0.2891 0.5212 0.4813
C156 C 0.1539(5) 0.6677(5) 0.6510(5)
H99 H 0.1498 0.6440 0.6437
C157 C 0.1505(7) 0.6755(6) 0.6816(5)
H100 H 0.1444 0.6570 0.6939
C158 C 0.1557(5) 0.7080(6) 0.6937(5)
H101 H 0.1549 0.7132 0.7145
C159 C 0.1626(7) 0.7344(6) 0.6728(5)
C160 C 0.1688(6) 0.7719(6) 0.6798(5)
H102 H 0.1679 0.7806 0.6997
C161 C 0.1761(5) 0.7949(6) 0.6579(5)
H103 H 0.1796 0.8189 0.6645
C162 C 0.1791(5) 0.7881(5) 0.6259(5)
C163 C 0.1907(5) 0.8071(5) 0.6020(5)
H104 H 0.1957 0.8315 0.6058
C164 C 0.1953(6) 0.7937(5) 0.5745(5)
H105 H 0.2018 0.8083 0.5593
C165 C 0.1899(5) 0.7568(5) 0.5699(4)
C166 C 0.1740(6) 0.7501(5) 0.6194(4)
C167 C 0.1661(6) 0.7260(5) 0.6425(5)
C168 C 0.1959(6) 0.7357(5) 0.5444(5)
H106 H 0.2028 0.7471 0.5277
C169 C 0.2009(4) 0.6805(4) 0.5183(3)
C170 C 0.2252(3) 0.6531(4) 0.5261(3)
H107 H 0.2346 0.6472 0.5473
C171 C 0.2357(3) 0.6345(3) 0.5028(4)
H108 H 0.2523 0.6158 0.5081
C172 C 0.2219(4) 0.6431(4) 0.4718(3)
C173 C 0.1976(4) 0.6704(4) 0.4641(3)
H109 H 0.1882 0.6763 0.4429
C174 C 0.1871(4) 0.6891(4) 0.4873(4)
H110 H 0.1705 0.7078 0.4820
N19 N 0.2357(4) 0.7945(4) 0.2893(4)
N20 N 0.2888(4) 0.7575(4) 0.3058(4)
N21 N 0.2794(4) 0.7128(4) 0.3483(4)
N22 N 0.4169(5) 0.5110(5) 0.4669(5)
N23 N 0.4021(5) 0.5096(5) 0.5228(4)
N24 N 0.3500(4) 0.5441(4) 0.5131(4)
N25 N 0.1625(4) 0.6918(5) 0.6318(4)
N26 N 0.1791(4) 0.7367(4) 0.5912(4)
N27 N 0.1922(4) 0.7013(4) 0.5439(3)
O3 O 0.2128(4) 0.5974(4) 0.4280(4)
H111 H 0.2239 0.5864 0.4169
C175 C 0.2926(3) 0.7918(4) 0.6776(3)
C176 C 0.1119(5) 0.7078(5) 0.5371(5)
H112 H 0.1154 0.7318 0.5433
C177 C 0.0840(6) 0.6974(6) 0.5123(6)
H113 H 0.0698 0.7151 0.5002
C178 C 0.0770(6) 0.6639(6) 0.5055(6)
H114 H 0.0577 0.6585 0.4886
C179 C 0.0961(6) 0.6363(5) 0.5213(6)
C180 C 0.0908(6) 0.5992(5) 0.5207(7)
H115 H 0.0696 0.5907 0.5075
C181 C 0.1125(5) 0.5747(6) 0.5370(6)
H116 H 0.1077 0.5502 0.5333
C182 C 0.1430(5) 0.5856(5) 0.5600(5)
C183 C 0.1681(6) 0.5671(5) 0.5826(5)
H117 H 0.1656 0.5421 0.5830
C184 C 0.1960(6) 0.5814(5) 0.6042(6)
H118 H 0.2119 0.5673 0.6190
C185 C 0.1993(5) 0.6186(5) 0.6027(5)
C186 C 0.1489(5) 0.6227(5) 0.5622(5)
C187 C 0.1265(5) 0.6472(5) 0.5436(5)
C188 C 0.2232(5) 0.6409(5) 0.6249(5)
H119 H 0.2407 0.6320 0.6417
C189 C 0.2379(5) 0.7022(5) 0.6346(4)
C190 C 0.2392(5) 0.7086(5) 0.6662(4)
H120 H 0.2269 0.6935 0.6771
C191 C 0.2581(5) 0.7367(5) 0.6811(4)
H121 H 0.2599 0.7415 0.7024
C192 C 0.2747(5) 0.7579(4) 0.6629(4)
C193 C 0.2751(6) 0.7503(5) 0.6319(4)
H122 H 0.2886 0.7646 0.6214
C194 C 0.2558(5) 0.7219(5) 0.6165(4)
H123 H 0.2548 0.7164 0.5954
C195 C 0.3427(7) 1.0020(7) 0.5603(6)
H124 H 0.3533 1.0002 0.5818
C196 C 0.3494(7) 1.0292(7) 0.5400(6)
H125 H 0.3634 1.0482 0.5503
C197 C 0.3392(8) 1.0325(7) 0.5084(6)
H126 H 0.3470 1.0519 0.4981
C198 C 0.3171(7) 1.0065(6) 0.4916(5)
C199 C 0.3083(8) 1.0038(7) 0.4589(6)
H127 H 0.3185 1.0193 0.4466
C200 C 0.2848(7) 0.9781(6) 0.4453(5)
H128 H 0.2749 0.9788 0.4235
C201 C 0.2749(7) 0.9502(6) 0.4637(5)
C202 C 0.2554(8) 0.9191(7) 0.4559(5)
H129 H 0.2459 0.9132 0.4347
C203 C 0.2502(7) 0.8973(7) 0.4791(5)
H130 H 0.2360 0.8771 0.4723
C204 C 0.2631(7) 0.9004(6) 0.5117(5)
C205 C 0.2869(7) 0.9535(6) 0.4963(5)
C206 C 0.3088(7) 0.9807(6) 0.5122(5)
C207 C 0.2631(6) 0.8815(6) 0.5409(5)
H131 H 0.2467 0.8626 0.5393
C208 C 0.2869(6) 0.8669(6) 0.5964(4)
C209 C 0.3147(5) 0.8431(5) 0.6072(5)
H132 H 0.3327 0.8420 0.5961
C210 C 0.3180(5) 0.8205(5) 0.6333(5)
H133 H 0.3369 0.8040 0.6372
C211 C 0.2954(5) 0.8205(5) 0.6542(4)
C212 C 0.2681(5) 0.8442(5) 0.6431(5)
H134 H 0.2497 0.8453 0.6537
C213 C 0.2655(6) 0.8666(6) 0.6173(5)
H135 H 0.2470 0.8835 0.6138
C214 C 0.4824(7) 0.6475(7) 0.7893(6)
H136 H 0.4621 0.6458 0.7974
C215 C 0.5105(8) 0.6228(7) 0.7983(6)
H137 H 0.5093 0.6049 0.8131
C216 C 0.5384(8) 0.6246(7) 0.7861(7)
H138 H 0.5557 0.6064 0.7900
C217 C 0.5421(8) 0.6539(9) 0.7673(8)
C218 C 0.5662(9) 0.6581(10) 0.7478(10)
H139 H 0.5848 0.6414 0.7506
C219 C 0.5653(9) 0.6835(10) 0.7258(9)
H140 H 0.5834 0.6823 0.7149
C220 C 0.5401(8) 0.7121(9) 0.7169(8)
C221 C 0.5339(8) 0.7389(9) 0.6937(8)
H141 H 0.5505 0.7409 0.6813
C222 C 0.5066(7) 0.7619(9) 0.6877(8)
H142 H 0.5033 0.7807 0.6730
C223 C 0.4839(6) 0.7533(6) 0.7069(6)
C224 C 0.5127(7) 0.7033(8) 0.7333(7)
C225 C 0.5139(7) 0.6780(8) 0.7578(8)
C226 C 0.4484(6) 0.7658(6) 0.6969(6)
H143 H 0.4390 0.7834 0.6818
C227 C 0.3973(3) 0.7531(4) 0.7120(4)
C228 C 0.3717(4) 0.7309(3) 0.6947(3)
H144 H 0.3777 0.7077 0.6894
C229 C 0.3372(3) 0.7427(4) 0.6850(3)
H145 H 0.3196 0.7276 0.6732
C230 C 0.3283(3) 0.7766(4) 0.6927(3)
C231 C 0.3540(4) 0.7988(3) 0.7100(4)
H146 H 0.3480 0.8220 0.7152
C232 C 0.3885(3) 0.7870(4) 0.7196(3)
H147 H 0.4061 0.8021 0.7314
N28 N 0.1336(4) 0.6817(4) 0.5518(4)
N29 N 0.1758(4) 0.6384(4) 0.5831(4)
N30 N 0.2181(4) 0.6738(4) 0.6193(4)
N31 N 0.3189(6) 0.9792(5) 0.5439(5)
N32 N 0.2827(5) 0.9288(5) 0.5181(4)
N33 N 0.2827(5) 0.8874(5) 0.5681(4)
N34 N 0.4853(6) 0.6729(7) 0.7694(6)
N35 N 0.4853(5) 0.7266(6) 0.7276(6)
N36 N 0.4328(3) 0.7472(5) 0.7137(5)
O4 O 0.2838(4) 0.8018(4) 0.7071(3)
H148 H 0.3023 0.8037 0.7211
Zn7 Zn 0.25856(9) 0.24136(10) 0.61976(9)
Zn8 Zn 0.12614(9) 0.46273(9) 0.45981(10)
Zn9 Zn 0.33041(8) 0.30915(10) 0.35069(10)
Zn10 Zn 0.20416(13) 0.06696(10) 0.36360(11)
Zn11 Zn 0.05093(12) 0.28509(15) 0.18785(12)
Zn12 Zn 0.00111(12) 0.18526(16) 0.44019(14)
C233 C 0.2729(4) 0.3700(4) 0.4939(3)
C234 C 0.3532(7) 0.3293(6) 0.2874(6)
H149 H 0.3525 0.3536 0.2928
C235 C 0.3606(7) 0.3204(6) 0.2584(6)
H150 H 0.3670 0.3387 0.2461
C236 C 0.3589(7) 0.2870(6) 0.2480(6)
H151 H 0.3628 0.2818 0.2281
C237 C 0.3512(8) 0.2598(6) 0.2668(5)
C238 C 0.3470(7) 0.2227(6) 0.2596(6)
H152 H 0.3515 0.2143 0.2407
C239 C 0.3368(7) 0.1993(6) 0.2792(5)
H153 H 0.3336 0.1752 0.2731
C240 C 0.3306(6) 0.2096(5) 0.3089(5)
C241 C 0.3176(6) 0.1913(6) 0.3319(5)
H154 H 0.3122 0.1670 0.3278
C242 C 0.3116(6) 0.2043(5) 0.3597(5)
H155 H 0.3050 0.1890 0.3743
C243 C 0.3158(5) 0.2411(5) 0.3652(5)
C244 C 0.3332(5) 0.2460(5) 0.3170(5)
C245 C 0.3443(6) 0.2695(5) 0.2959(5)
C246 C 0.3069(6) 0.2627(5) 0.3897(5)
H156 H 0.2970 0.2511 0.4046
C247 C 0.3036(4) 0.3168(4) 0.4177(3)
C248 C 0.2755(4) 0.3403(4) 0.4110(3)
H157 H 0.2628 0.3438 0.3901
C249 C 0.2660(3) 0.3588(4) 0.4349(4)
H158 H 0.2468 0.3748 0.4304
C250 C 0.2846(4) 0.3537(4) 0.4655(3)
C251 C 0.3127(4) 0.3302(4) 0.4721(3)
H159 H 0.3255 0.3268 0.4930
C252 C 0.3222(3) 0.3118(4) 0.4482(4)
H160 H 0.3414 0.2957 0.4528
C253 C 0.3023(6) 0.1787(6) 0.6616(6)
H161 H 0.3217 0.1810 0.6523
C254 C 0.3008(6) 0.1532(6) 0.6849(5)
H162 H 0.3220 0.1404 0.6918
C255 C 0.2754(5) 0.1434(6) 0.6992(5)
H163 H 0.2781 0.1250 0.7142
C256 C 0.2447(5) 0.1634(6) 0.6894(6)
C257 C 0.2152(6) 0.1570(6) 0.7016(6)
H164 H 0.2140 0.1378 0.7151
C258 C 0.1887(6) 0.1806(6) 0.6923(6)
H165 H 0.1694 0.1793 0.7018
C259 C 0.1878(5) 0.2074(6) 0.6691(5)
C260 C 0.1640(5) 0.2341(6) 0.6573(5)
H166 H 0.1432 0.2350 0.6647
C261 C 0.1677(5) 0.2591(6) 0.6361(5)
H167 H 0.1497 0.2763 0.6302
C262 C 0.1967(5) 0.2608(5) 0.6224(5)
C263 C 0.2170(5) 0.2115(5) 0.6566(5)
C264 C 0.2471(5) 0.1905(6) 0.6678(5)
C265 C 0.2054(5) 0.2851(5) 0.5991(5)
H168 H 0.1904 0.3040 0.5901
C266 C 0.2449(6) 0.3017(5) 0.5683(5)
C267 C 0.2475(6) 0.3392(5) 0.5713(5)
H169 H 0.2419 0.3502 0.5888
C268 C 0.2582(6) 0.3603(5) 0.5490(5)
H170 H 0.2624 0.3847 0.5535
C269 C 0.2634(5) 0.3475(5) 0.5197(4)
C270 C 0.2589(6) 0.3109(5) 0.5171(5)
H171 H 0.2628 0.2998 0.4989
C271 C 0.2490(7) 0.2892(5) 0.5396(5)
H172 H 0.2450 0.2648 0.5350
C272 C 0.0799(6) 0.4867(6) 0.4985(5)
H173 H 0.0934 0.4737 0.5156
C273 C 0.0497(7) 0.5061(8) 0.5011(6)
H174 H 0.0433 0.5080 0.5204
C274 C 0.0304(7) 0.5217(8) 0.4755(6)
H175 H 0.0086 0.5320 0.4765
C275 C 0.0407(7) 0.5236(8) 0.4476(6)
C276 C 0.0241(7) 0.5384(8) 0.4179(6)
H176 H 0.0022 0.5499 0.4168
C277 C 0.0353(7) 0.5383(8) 0.3911(6)
H177 H 0.0206 0.5501 0.3739
C278 C 0.0671(8) 0.5223(9) 0.3858(6)
C279 C 0.0824(7) 0.5176(8) 0.3596(6)
H178 H 0.0722 0.5299 0.3409
C280 C 0.1107(6) 0.4965(7) 0.3602(5)
H179 H 0.1201 0.4917 0.3428
C281 C 0.1244(5) 0.4826(6) 0.3907(5)
C282 C 0.0820(6) 0.5048(7) 0.4158(5)
C283 C 0.0707(6) 0.5044(7) 0.4447(5)
C284 C 0.1544(5) 0.4612(6) 0.3987(5)
H180 H 0.1702 0.4565 0.3859
C285 C 0.1855(4) 0.4303(5) 0.4461(4)
C286 C 0.1811(5) 0.3955(5) 0.4544(6)
H181 H 0.1586 0.3848 0.4486
C287 C 0.2091(4) 0.3764(5) 0.4709(5)
H182 H 0.2065 0.3521 0.4757
C288 C 0.2410(4) 0.3931(5) 0.4805(5)
C289 C 0.2445(5) 0.4285(5) 0.4731(6)
H183 H 0.2668 0.4395 0.4796
C290 C 0.2166(5) 0.4482(5) 0.4565(5)
H184 H 0.2187 0.4727 0.4525
N37 N 0.3469(4) 0.3038(5) 0.3078(4)
N38 N 0.3259(4) 0.2610(4) 0.3437(4)
N39 N 0.3117(4) 0.2965(4) 0.3921(3)
N40 N 0.2738(5) 0.1992(5) 0.6541(4)
N41 N 0.2199(4) 0.2361(4) 0.6344(4)
N42 N 0.2351(5) 0.2787(4) 0.5919(4)
N43 N 0.0888(5) 0.4873(5) 0.4710(5)
N44 N 0.1101(4) 0.4841(4) 0.4161(4)
N45 N 0.1574(4) 0.4489(5) 0.4267(4)
O5 O 0.2951(4) 0.3989(4) 0.5116(4)
H185 H 0.2825 0.4124 0.5193
C291 C 0.1535(4) 0.1146(4) 0.5070(4)
C292 C 0.2631(5) 0.2963(6) 0.6761(5)
H186 H 0.2415 0.2880 0.6796
C293 C 0.2793(6) 0.3253(6) 0.6937(5)
H187 H 0.2693 0.3351 0.7094
C294 C 0.3089(6) 0.3390(6) 0.6883(6)
H188 H 0.3204 0.3586 0.7000
C295 C 0.3220(6) 0.3234(6) 0.6648(6)
C296 C 0.3515(6) 0.3346(7) 0.6540(6)
H189 H 0.3636 0.3555 0.6626
C297 C 0.3630(6) 0.3170(7) 0.6320(6)
H190 H 0.3840 0.3253 0.6271
C298 C 0.3466(6) 0.2866(7) 0.6154(7)
C299 C 0.3533(7) 0.2665(9) 0.5905(7)
H191 H 0.3757 0.2706 0.5863
C300 C 0.3329(6) 0.2419(8) 0.5715(6)
H192 H 0.3370 0.2330 0.5526
C301 C 0.3046(6) 0.2319(7) 0.5846(6)
C302 C 0.3160(5) 0.2757(6) 0.6239(5)
C303 C 0.3057(5) 0.2935(6) 0.6483(5)
C304 C 0.2790(5) 0.2065(6) 0.5680(5)
H193 H 0.2797 0.1942 0.5495
C305 C 0.2286(4) 0.1811(4) 0.5686(3)
C306 C 0.1956(4) 0.1948(3) 0.5547(4)
H194 H 0.1900 0.2185 0.5587
C307 C 0.1710(3) 0.1737(4) 0.5350(4)
H195 H 0.1484 0.1830 0.5255
C308 C 0.1792(4) 0.1389(4) 0.5291(3)
C309 C 0.2122(4) 0.1253(3) 0.5430(4)
H196 H 0.2178 0.1016 0.5391
C310 C 0.2369(3) 0.1464(4) 0.5628(4)
H197 H 0.2594 0.1371 0.5723
C311 C -0.0505(10) 0.1684(7) 0.3811(7)
H198 H -0.0435 0.1442 0.3827
C312 C -0.0745(10) 0.1830(8) 0.3543(7)
H199 H -0.0839 0.1667 0.3381
C313 C -0.0853(10) 0.2173(9) 0.3493(7)
H200 H -0.0991 0.2249 0.3297
C314 C -0.0751(9) 0.2407(7) 0.3743(7)
C315 C -0.0876(8) 0.2751(8) 0.3753(8)
H201 H -0.1097 0.2818 0.3624
C316 C -0.0679(8) 0.2992(7) 0.3949(7)
H202 H -0.0714 0.3237 0.3905
C317 C -0.0419(8) 0.2886(6) 0.4220(7)
C318 C -0.0256(9) 0.3069(7) 0.4487(7)
H203 H -0.0317 0.3310 0.4506
C319 C -0.0014(8) 0.2917(6) 0.4721(7)
H204 H 0.0117 0.3060 0.4885
C320 C 0.0047(6) 0.2546(6) 0.4722(5)
C321 C -0.0353(7) 0.2522(6) 0.4228(6)
C322 C -0.0493(7) 0.2268(6) 0.3999(6)
C323 C 0.0354(6) 0.2342(6) 0.4883(6)
H205 H 0.0532 0.2439 0.5045
C324 C 0.0640(5) 0.1787(5) 0.4917(5)
C325 C 0.0899(5) 0.1864(6) 0.4751(5)
H206 H 0.0872 0.2057 0.4609
C326 C 0.1187(5) 0.1650(6) 0.4803(5)
H207 H 0.1376 0.1692 0.4707
C327 C 0.1190(5) 0.1358(5) 0.5009(5)
C328 C 0.0957(6) 0.1315(6) 0.5192(6)
H208 H 0.0996 0.1141 0.5352
C329 C 0.0661(6) 0.1532(6) 0.5138(6)
H209 H 0.0483 0.1504 0.5249
C330 C 0.2683(7) 0.0268(9) 0.3458(7)
H210 H 0.2804 0.0277 0.3671
C331 C 0.2843(8) 0.0127(11) 0.3227(7)
H211 H 0.3069 0.0022 0.3293
C332 C 0.2692(8) 0.0134(9) 0.2921(7)
H212 H 0.2790 0.0004 0.2779
C333 C 0.2389(8) 0.0335(10) 0.2815(6)
C334 C 0.2187(9) 0.0401(11) 0.2502(6)
H213 H 0.2282 0.0323 0.2335
C335 C 0.1865(9) 0.0569(11) 0.2430(6)
H214 H 0.1751 0.0587 0.2216
C336 C 0.1685(8) 0.0721(10) 0.2652(6)
C337 C 0.1365(8) 0.0905(8) 0.2653(6)
H215 H 0.1226 0.0979 0.2458
C338 C 0.1244(8) 0.0983(9) 0.2907(6)
H216 H 0.1028 0.1105 0.2889
C339 C 0.1449(7) 0.0875(9) 0.3202(5)
C340 C 0.1878(7) 0.0614(8) 0.2966(5)
C341 C 0.2206(7) 0.0428(9) 0.3044(6)
C342 C 0.1416(7) 0.0967(8) 0.3505(5)
H217 H 0.1206 0.1079 0.3527
C343 C 0.1624(6) 0.0965(6) 0.4073(4)
C344 C 0.1790(6) 0.1237(6) 0.4273(5)
H218 H 0.1929 0.1399 0.4190
C345 C 0.1772(6) 0.1294(6) 0.4586(5)
H219 H 0.1886 0.1496 0.4691
C346 C 0.1593(6) 0.1066(6) 0.4749(4)
C347 C 0.1403(7) 0.0819(6) 0.4536(5)
H220 H 0.1233 0.0684 0.4606
C348 C 0.1433(6) 0.0747(6) 0.4231(5)
H221 H 0.1320 0.0543 0.4128
N46 N 0.2763(4) 0.2791(4) 0.6542(4)
N47 N 0.2965(4) 0.2483(5) 0.6091(4)
N48 N 0.2548(4) 0.2040(5) 0.5837(4)
N49 N -0.0390(6) 0.1922(6) 0.4038(6)
N50 N -0.0144(6) 0.2362(6) 0.4482(5)
N51 N 0.0363(4) 0.2020(6) 0.4788(4)
N52 N 0.2356(6) 0.0385(6) 0.3360(5)
N53 N 0.1763(5) 0.0721(5) 0.3227(5)
N54 N 0.1661(6) 0.0906(5) 0.3752(4)
O6 O 0.1488(5) 0.0841(4) 0.5260(4)
H222 H 0.1476 0.0911 0.5437
C349 C 0.0241(4) 0.3397(4) 0.3461(4)
C350 C -0.0389(7) 0.1681(8) 0.4913(7)
H223 H -0.0468 0.1919 0.4908
C351 C -0.0478(7) 0.1439(9) 0.5127(7)
H224 H -0.0615 0.1516 0.5265
C352 C -0.0369(7) 0.1102(8) 0.5136(6)
H225 H -0.0432 0.0942 0.5280
C353 C -0.0166(7) 0.0982(7) 0.4937(6)
C354 C -0.0032(7) 0.0638(7) 0.4902(7)
H226 H -0.0071 0.0457 0.5039
C355 C 0.0150(7) 0.0552(7) 0.4688(7)
H227 H 0.0229 0.0315 0.4679
C356 C 0.0225(7) 0.0807(6) 0.4473(6)
C357 C 0.0419(6) 0.0782(7) 0.4239(6)
H228 H 0.0518 0.0558 0.4213
C358 C 0.0476(6) 0.1054(6) 0.4045(6)
H229 H 0.0608 0.1020 0.3893
C359 C 0.0325(6) 0.1385(6) 0.4087(5)
C360 C 0.0092(6) 0.1155(6) 0.4489(5)
C361 C -0.0087(6) 0.1230(6) 0.4723(5)
C362 C 0.0374(7) 0.1717(6) 0.3933(7)
H230 H 0.0509 0.1731 0.3782
C363 C 0.0244(7) 0.2328(5) 0.3874(6)
C364 C 0.0022(6) 0.2419(6) 0.3590(6)
H231 H -0.0137 0.2245 0.3482
C365 C 0.0019(6) 0.2751(6) 0.3456(6)
H232 H -0.0127 0.2791 0.3255
C366 C 0.0227(6) 0.3028(5) 0.3609(5)
C367 C 0.0446(7) 0.2938(6) 0.3899(6)
H233 H 0.0599 0.3114 0.4010
C368 C 0.0449(7) 0.2602(6) 0.4032(6)
H234 H 0.0593 0.2560 0.4234
C369 C 0.1599(6) 0.5336(6) 0.4684(5)
H235 H 0.1476 0.5398 0.4479
C370 C 0.1854(6) 0.5558(6) 0.4884(6)
H236 H 0.1887 0.5787 0.4807
C371 C 0.2053(7) 0.5476(6) 0.5172(6)
H237 H 0.2219 0.5642 0.5282
C372 C 0.2012(6) 0.5150(5) 0.5306(5)
C373 C 0.2194(6) 0.5027(6) 0.5598(5)
H238 H 0.2379 0.5167 0.5719
C374 C 0.2114(7) 0.4713(6) 0.5714(6)
H239 H 0.2221 0.4656 0.5924
C375 C 0.1875(6) 0.4463(6) 0.5532(5)
C376 C 0.1762(7) 0.4126(6) 0.5594(6)
H240 H 0.1864 0.4017 0.5787
C377 C 0.1509(7) 0.3953(6) 0.5385(5)
H241 H 0.1437 0.3726 0.5439
C378 C 0.1345(5) 0.4092(5) 0.5085(5)
C379 C 0.1708(6) 0.4598(5) 0.5238(5)
C380 C 0.1740(6) 0.4941(5) 0.5117(5)
C381 C 0.1115(5) 0.3966(6) 0.4794(5)
H242 H 0.1022 0.3733 0.4793
C382 C 0.0803(4) 0.4008(5) 0.4243(3)
C383 C 0.0934(4) 0.3990(5) 0.3978(4)
H243 H 0.1154 0.4096 0.3977
C384 C 0.0744(5) 0.3818(5) 0.3714(3)
H244 H 0.0833 0.3806 0.3533
C385 C 0.0422(4) 0.3663(5) 0.3715(4)
C386 C 0.0291(4) 0.3681(5) 0.3980(5)
H245 H 0.0071 0.3575 0.3981
C387 C 0.0482(5) 0.3853(5) 0.4244(4)
H246 H 0.0392 0.3865 0.4425
C388 C 0.0441(10) 0.2170(8) 0.1422(9)
H247 H 0.0338 0.2035 0.1558
C389 C 0.0515(14) 0.2007(9) 0.1153(10)
H248 H 0.0448 0.1768 0.1106
C390 C 0.0677(13) 0.2186(9) 0.0966(9)
H249 H 0.0723 0.2076 0.0786
C391 C 0.0776(11) 0.2539(9) 0.1040(8)
C392 C 0.0978(8) 0.2772(9) 0.0894(7)
H250 H 0.1053 0.2688 0.0718
C393 C 0.1069(11) 0.3112(10) 0.0996(8)
H251 H 0.1155 0.3257 0.0855
C394 C 0.1053(7) 0.3282(8) 0.1288(7)
C395 C 0.1182(7) 0.3593(8) 0.1458(7)
H252 H 0.1323 0.3747 0.1369
C396 C 0.1121(7) 0.3690(8) 0.1735(7)
H253 H 0.1212 0.3901 0.1842
C397 C 0.0907(7) 0.3445(7) 0.1850(6)
C398 C 0.0834(7) 0.3042(7) 0.1427(6)
C399 C 0.0720(9) 0.2690(7) 0.1317(7)
C400 C 0.0772(9) 0.3505(8) 0.2116(7)
H254 H 0.0804 0.3728 0.2220
C401 C 0.0521(6) 0.3306(7) 0.2519(5)
C402 C 0.0683(5) 0.3131(6) 0.2797(5)
H255 H 0.0874 0.2979 0.2790
C403 C 0.0589(6) 0.3160(7) 0.3081(5)
H256 H 0.0713 0.3014 0.3245
C404 C 0.0333(6) 0.3382(6) 0.3146(4)
C405 C 0.0157(7) 0.3535(8) 0.2858(5)
H257 H -0.0043 0.3674 0.2863
C406 C 0.0237(6) 0.3510(7) 0.2566(5)
H258 H 0.0096 0.3634 0.2395
N55 N -0.0189(5) 0.1576(6) 0.4713(5)
N56 N 0.0138(5) 0.1430(5) 0.4302(5)
N57 N 0.0222(6) 0.1990(5) 0.4016(5)
N58 N 0.1557(5) 0.5029(5) 0.4822(5)
N59 N 0.1453(5) 0.4418(4) 0.5035(4)
N60 N 0.1028(4) 0.4147(4) 0.4538(4)
N61 N 0.0517(7) 0.2514(7) 0.1483(6)
N62 N 0.0772(6) 0.3144(6) 0.1708(5)
N63 N 0.0606(6) 0.3251(7) 0.2216(5)
O7 O -0.0120(4) 0.3538(6) 0.3388(5)
H259 H -0.0171 0.3605 0.3552
C407 C 0.2109(4) 0.2092(4) 0.2562(4)
C408 C 0.1681(9) -0.0051(8) 0.3705(6)
H260 H 0.1583 -0.0030 0.3487
C409 C 0.1595(9) -0.0336(8) 0.3882(7)
H261 H 0.1454 -0.0523 0.3776
C410 C 0.1704(8) -0.0353(7) 0.4189(6)
H262 H 0.1613 -0.0537 0.4293
C411 C 0.1942(7) -0.0122(6) 0.4368(5)
C412 C 0.2045(8) -0.0068(7) 0.4694(6)
H263 H 0.1943 -0.0218 0.4821
C413 C 0.2278(7) 0.0180(6) 0.4841(5)
H264 H 0.2369 0.0175 0.5060
C414 C 0.2379(6) 0.0451(6) 0.4652(5)
C415 C 0.2572(7) 0.0768(6) 0.4721(5)
H265 H 0.2662 0.0821 0.4935
C416 C 0.2644(8) 0.1009(7) 0.4510(5)
H266 H 0.2799 0.1201 0.4580
C417 C 0.2486(7) 0.0971(6) 0.4189(5)
C418 C 0.2255(7) 0.0432(6) 0.4323(5)
C419 C 0.2017(7) 0.0164(6) 0.4188(5)
C420 C 0.2469(6) 0.1193(6) 0.3915(5)
H267 H 0.2616 0.1396 0.3938
C421 C 0.2225(6) 0.1367(6) 0.3383(4)
C422 C 0.1968(6) 0.1631(7) 0.3313(6)
H268 H 0.1819 0.1667 0.3452
C423 C 0.1918(6) 0.1847(6) 0.3047(5)
H269 H 0.1743 0.2025 0.3022
C424 C 0.2107(5) 0.1820(5) 0.2814(4)
C425 C 0.2375(5) 0.1568(5) 0.2888(5)
H270 H 0.2533 0.1539 0.2757
C426 C 0.2413(6) 0.1357(6) 0.3154(5)
H271 H 0.2593 0.1183 0.3182
C427 C 0.3911(5) 0.2828(5) 0.4001(6)
H272 H 0.3872 0.2589 0.3935
C428 C 0.4186(6) 0.2939(6) 0.4261(6)
H273 H 0.4310 0.2758 0.4390
C429 C 0.4285(6) 0.3279(6) 0.4339(6)
H274 H 0.4483 0.3324 0.4506
C430 C 0.4098(6) 0.3560(6) 0.4175(6)
C431 C 0.4175(6) 0.3921(6) 0.4232(6)
H275 H 0.4352 0.3993 0.4408
C432 C 0.3994(6) 0.4162(6) 0.4032(6)
H276 H 0.4073 0.4400 0.4056
C433 C 0.3692(6) 0.4088(5) 0.3787(6)
C434 C 0.3451(6) 0.4305(6) 0.3592(6)
H277 H 0.3475 0.4555 0.3617
C435 C 0.3183(7) 0.4174(5) 0.3368(7)
H278 H 0.3038 0.4330 0.3223
C436 C 0.3119(5) 0.3805(5) 0.3350(5)
C437 C 0.3612(5) 0.3726(5) 0.3769(5)
C438 C 0.3806(5) 0.3447(5) 0.3937(5)
C439 C 0.2859(5) 0.3586(5) 0.3140(5)
H279 H 0.2667 0.3688 0.2993
C440 C 0.2661(5) 0.2997(5) 0.2985(5)
C441 C 0.2688(5) 0.2890(5) 0.2687(4)
H280 H 0.2848 0.3014 0.2594
C442 C 0.2493(5) 0.2611(5) 0.2520(4)
H281 H 0.2495 0.2551 0.2312
C443 C 0.2295(5) 0.2432(5) 0.2699(4)
C444 C 0.2230(6) 0.2573(6) 0.2971(5)
H282 H 0.2034 0.2487 0.3040
C445 C 0.2438(6) 0.2833(6) 0.3143(5)
H283 H 0.2429 0.2893 0.3349
C446 C 0.0098(8) 0.3329(10) 0.1339(8)
H284 H 0.0307 0.3369 0.1271
C447 C -0.0216(9) 0.3501(8) 0.1181(7)
H285 H -0.0218 0.3656 0.1012
C448 C -0.0510(8) 0.3438(8) 0.1279(7)
H286 H -0.0721 0.3560 0.1188
C449 C -0.0502(7) 0.3191(10) 0.1516(8)
C450 C -0.0772(8) 0.3109(11) 0.1673(9)
H287 H -0.0994 0.3221 0.1599
C451 C -0.0739(7) 0.2884(11) 0.1918(9)
H288 H -0.0946 0.2852 0.1992
C452 C -0.0435(7) 0.2687(10) 0.2083(8)
C453 C -0.0351(7) 0.2460(9) 0.2346(8)
H289 H -0.0539 0.2409 0.2441
C454 C -0.0040(7) 0.2307(9) 0.2480(7)
H290 H 0.0010 0.2161 0.2659
C455 C 0.0199(6) 0.2409(9) 0.2298(7)
C456 C -0.0160(6) 0.2802(9) 0.1939(8)
C457 C -0.0180(7) 0.3057(11) 0.1695(9)
C458 C 0.0555(6) 0.2319(8) 0.2410(7)
H291 H 0.0657 0.2152 0.2566
C459 C 0.1056(3) 0.2443(5) 0.2238(4)
C460 C 0.1152(3) 0.2092(4) 0.2210(4)
H292 H 0.0977 0.1920 0.2127
C461 C 0.1503(4) 0.1993(3) 0.2304(4)
H293 H 0.1568 0.1753 0.2285
C462 C 0.1758(3) 0.2244(4) 0.2426(4)
C463 C 0.1662(4) 0.2594(4) 0.2454(3)
H294 H 0.1836 0.2766 0.2537
C464 C 0.1311(4) 0.2694(3) 0.2360(4)
H295 H 0.1245 0.2933 0.2380
N64 N 0.1912(6) 0.0190(5) 0.3868(5)
N65 N 0.2294(5) 0.0683(5) 0.4105(4)
N66 N 0.2268(5) 0.1130(5) 0.3645(4)
N67 N 0.3717(4) 0.3104(5) 0.3863(5)
N68 N 0.3339(4) 0.3596(4) 0.3551(4)
N69 N 0.2902(4) 0.3248(5) 0.3164(4)
N70 N 0.0109(6) 0.3112(9) 0.1579(7)
N71 N 0.0147(5) 0.2631(7) 0.2051(6)
N72 N 0.0708(3) 0.2519(5) 0.2247(5)
O8 O 0.2186(4) 0.2010(4) 0.2261(3)
H296 H 0.2023 0.2087 0.2117
S1 S 0.1799(3) 0.3681(3) 0.6579(3)
O9 O 0.1811(8) 0.4048(6) 0.6516(8)
O10 O 0.1939(7) 0.3478(7) 0.6367(6)
O11 O 0.1863(7) 0.3585(7) 0.6895(5)
C465 C 0.1284(6) 0.3547(8) 0.6428(7)
F1 F 0.1124(9) 0.3738(10) 0.6602(9)
F2 F 0.1249(7) 0.3210(7) 0.6474(7)
F3 F 0.1193(9) 0.3613(10) 0.6131(7)
S2 S 0.2808(3) 0.2039(3) 0.4641(3)
O12 O 0.2747(9) 0.1761(8) 0.4834(7)
O13 O 0.2890(5) 0.1917(6) 0.4355(5)
O14 O 0.2959(6) 0.2348(6) 0.4787(5)
C466 C 0.2322(6) 0.2235(8) 0.4436(6)
F4 F 0.2223(8) 0.2321(8) 0.4687(7)
F5 F 0.2159(7) 0.1990(8) 0.4247(7)
F6 F 0.2368(8) 0.2495(7) 0.4255(6)
S3 S 0.3836(3) 0.3724(3) 0.5492(3)
O15 O 0.4083(10) 0.3886(10) 0.5742(7)
O16 O 0.3769(7) 0.3361(6) 0.5532(6)
O17 O 0.3554(7) 0.3943(8) 0.5365(7)
C467 C 0.4058(8) 0.3720(7) 0.5124(6)
F7 F 0.4117(5) 0.4039(5) 0.5024(5)
F8 F 0.4340(7) 0.3531(8) 0.5179(7)
F9 F 0.3849(7) 0.3565(7) 0.4879(6)
C468 C 0.2828(7) 0.7626(8) 0.5083(7)
S4 S 0.2407(4) 0.7906(4) 0.4831(3)
O18 O 0.2216(8) 0.7641(8) 0.4651(7)
O19 O 0.2290(8) 0.8039(8) 0.5097(7)
O20 O 0.2560(9) 0.8181(8) 0.4691(8)
F10 F 0.2982(10) 0.7498(11) 0.4875(9)
F11 F 0.3011(9) 0.7849(9) 0.5285(8)
F12 F 0.2706(8) 0.7376(8) 0.5238(7)
S5 S 0.0917(6) 0.1759(6) 0.3270(5)
O21 O 0.0918(12) 0.1500(10) 0.3505(9)
O22 O 0.1119(9) 0.1691(10) 0.3052(8)
O23 O 0.0579(8) 0.1892(12) 0.3133(10)
C469 C 0.1172(10) 0.2156(9) 0.3539(8)
F13 F 0.1501(9) 0.2061(13) 0.3659(11)
F14 F 0.1046(12) 0.2228(11) 0.3785(9)
F15 F 0.1176(15) 0.2436(10) 0.3365(11)
N73 N 0.2007(11) 0.8870(11) 0.6738(9)
C470 C 0.1651(17) 0.9329(15) 0.6348(14)
H297 H 0.1815 0.9466 0.6266
H298 H 0.1490 0.9212 0.6180
H299 H 0.1523 0.9483 0.6454
C471 C 0.1847(13) 0.9081(13) 0.6577(11)
loop_
_geom_bond_atom_site_label_1
_geom_bond_atom_site_label_2
_geom_bond_site_symmetry_1
_geom_bond_site_symmetry_2
Zn1 N25 1_555 1_555
Zn2 N1 1_555 1_555
Zn3 N10 1_555 1_555
Zn4 N7 1_555 1_555
Zn5 N4 1_555 1_555
Zn6 N13 1_555 1_555
C1 C18 1_555 1_555
C2 H1 1_555 1_555
C3 C2 1_555 1_555
H2 C3 1_555 1_555
C4 C3 1_555 1_555
H3 C4 1_555 1_555
C5 C4 1_555 1_555
C6 C5 1_555 1_555
H4 C6 1_555 1_555
C7 C6 1_555 1_555
H5 C7 1_555 1_555
C8 C7 1_555 1_555
C9 C8 1_555 1_555
H6 C9 1_555 1_555
C10 C9 1_555 1_555
H7 C10 1_555 1_555
C11 C10 1_555 1_555
C12 C8 1_555 1_555
C13 C5 1_555 1_555
C14 C11 1_555 1_555
H8 C14 1_555 1_555
C15 C16 1_555 1_555
C16 H9 1_555 1_555
C17 C16 1_555 1_555
H10 C17 1_555 1_555
C18 C17 1_555 1_555
C19 C18 1_555 1_555
H11 C19 1_555 1_555
C20 C15 1_555 1_555
H12 C20 1_555 1_555
C21 H13 1_555 1_555
C22 C21 1_555 1_555
H14 C22 1_555 1_555
C23 C22 1_555 1_555
H15 C23 1_555 1_555
C24 C23 1_555 1_555
C25 C24 1_555 1_555
H16 C25 1_555 1_555
C26 C25 1_555 1_555
H17 C26 1_555 1_555
C27 C26 1_555 1_555
C28 C27 1_555 1_555
H18 C28 1_555 1_555
C29 C28 1_555 1_555
H19 C29 1_555 1_555
C30 C29 1_555 1_555
C31 C27 1_555 1_555
C32 C24 1_555 1_555
C33 C30 1_555 1_555
H20 C33 1_555 1_555
C34 C35 1_555 1_555
C35 H21 1_555 1_555
C36 C35 1_555 1_555
H22 C36 1_555 1_555
C37 C1 1_555 1_555
C38 C37 1_555 1_555
H23 C38 1_555 1_555
C39 C34 1_555 1_555
H24 C39 1_555 1_555
C40 H25 1_555 1_555
C41 C40 1_555 1_555
H26 C41 1_555 1_555
C42 C41 1_555 1_555
H27 C42 1_555 1_555
C43 C42 1_555 1_555
C44 C43 1_555 1_555
H28 C44 1_555 1_555
C45 C44 1_555 1_555
H29 C45 1_555 1_555
C46 C45 1_555 1_555
C47 C46 1_555 1_555
H30 C47 1_555 1_555
C48 C47 1_555 1_555
H31 C48 1_555 1_555
C49 C48 1_555 1_555
C50 C46 1_555 1_555
C51 C43 1_555 1_555
C52 C49 1_555 1_555
H32 C52 1_555 1_555
C53 C54 1_555 1_555
C54 H33 1_555 1_555
C55 C54 1_555 1_555
H34 C55 1_555 1_555
C56 C1 1_555 1_555
C57 C56 1_555 1_555
H35 C57 1_555 1_555
C58 C53 1_555 1_555
H36 C58 1_555 1_555
N1 C2 1_555 1_555
N2 Zn2 1_555 1_555
N3 Zn2 1_555 1_555
N4 C21 1_555 1_555
N5 Zn5 1_555 1_555
N6 Zn5 1_555 1_555
N7 C40 1_555 1_555
N8 Zn4 1_555 1_555
N9 Zn4 1_555 1_555
O1 C1 1_555 1_555
H37 O1 1_555 1_555
C59 C76 1_555 1_555
C60 H38 1_555 1_555
C61 C60 1_555 1_555
H39 C61 1_555 1_555
C62 C61 1_555 1_555
H40 C62 1_555 1_555
C63 C62 1_555 1_555
C64 C63 1_555 1_555
H41 C64 1_555 1_555
C65 C64 1_555 1_555
H42 C65 1_555 1_555
C66 C65 1_555 1_555
C67 C66 1_555 1_555
H43 C67 1_555 1_555
C68 C67 1_555 1_555
H44 C68 1_555 1_555
C69 C68 1_555 1_555
C70 C66 1_555 1_555
C71 C63 1_555 1_555
C72 C69 1_555 1_555
H45 C72 1_555 1_555
C73 C74 1_555 1_555
C74 H46 1_555 1_555
C75 C74 1_555 1_555
H47 C75 1_555 1_555
C76 C75 1_555 1_555
C77 C76 1_555 1_555
H48 C77 1_555 1_555
C78 C73 1_555 1_555
H49 C78 1_555 1_555
C79 H50 1_555 1_555
C80 C79 1_555 1_555
H51 C80 1_555 1_555
C81 C80 1_555 1_555
H52 C81 1_555 1_555
C82 C81 1_555 1_555
C83 C82 1_555 1_555
H53 C83 1_555 1_555
C84 C83 1_555 1_555
H54 C84 1_555 1_555
C85 C84 1_555 1_555
C86 C85 1_555 1_555
H55 C86 1_555 1_555
C87 C86 1_555 1_555
H56 C87 1_555 1_555
C88 C87 1_555 1_555
C89 C85 1_555 1_555
C90 C82 1_555 1_555
C91 C88 1_555 1_555
H57 C91 1_555 1_555
C92 C93 1_555 1_555
C93 H58 1_555 1_555
C94 C93 1_555 1_555
H59 C94 1_555 1_555
C95 C59 1_555 1_555
C96 C95 1_555 1_555
H60 C96 1_555 1_555
C97 C92 1_555 1_555
H61 C97 1_555 1_555
C98 H62 1_555 1_555
C99 C98 1_555 1_555
H63 C99 1_555 1_555
C100 C99 1_555 1_555
H64 C100 1_555 1_555
C101 C100 1_555 1_555
C102 C101 1_555 1_555
H65 C102 1_555 1_555
C103 C102 1_555 1_555
H66 C103 1_555 1_555
C104 C103 1_555 1_555
C105 C104 1_555 1_555
H67 C105 1_555 1_555
C106 C105 1_555 1_555
H68 C106 1_555 1_555
C107 C106 1_555 1_555
C108 C104 1_555 1_555
C109 C101 1_555 1_555
C110 C107 1_555 1_555
H69 C110 1_555 1_555
C111 C112 1_555 1_555
C112 H70 1_555 1_555
C113 C112 1_555 1_555
H71 C113 1_555 1_555
C114 C59 1_555 1_555
C115 C114 1_555 1_555
H72 C115 1_555 1_555
C116 C111 1_555 1_555
H73 C116 1_555 1_555
N10 C60 1_555 1_555
N11 Zn3 1_555 1_555
N12 Zn3 1_555 1_555
N13 C79 1_555 1_555
N14 Zn6 1_555 1_555
N15 Zn6 1_555 1_555
N16 Zn4 1_555 1_555
N17 Zn4 1_555 1_555
N18 Zn4 1_555 1_555
O2 C59 1_555 1_555
H74 O2 1_555 1_555
C117 C134 1_555 1_555
C118 H75 1_555 1_555
C119 C118 1_555 1_555
H76 C119 1_555 1_555
C120 C119 1_555 1_555
H77 C120 1_555 1_555
C121 C120 1_555 1_555
C122 C121 1_555 1_555
H78 C122 1_555 1_555
C123 C122 1_555 1_555
H79 C123 1_555 1_555
C124 C123 1_555 1_555
C125 C124 1_555 1_555
H80 C125 1_555 1_555
C126 C125 1_555 1_555
H81 C126 1_555 1_555
C127 C126 1_555 1_555
C128 C124 1_555 1_555
C129 C121 1_555 1_555
C130 C127 1_555 1_555
H82 C130 1_555 1_555
C131 C132 1_555 1_555
C132 H83 1_555 1_555
C133 C132 1_555 1_555
H84 C133 1_555 1_555
C134 C133 1_555 1_555
C135 C134 1_555 1_555
H85 C135 1_555 1_555
C136 C131 1_555 1_555
H86 C136 1_555 1_555
C137 H87 1_555 1_555
C138 C137 1_555 1_555
H88 C138 1_555 1_555
C139 C138 1_555 1_555
H89 C139 1_555 1_555
C140 C139 1_555 1_555
C141 C140 1_555 1_555
H90 C141 1_555 1_555
C142 C141 1_555 1_555
H91 C142 1_555 1_555
C143 C142 1_555 1_555
C144 C143 1_555 1_555
H92 C144 1_555 1_555
C145 C144 1_555 1_555
H93 C145 1_555 1_555
C146 C145 1_555 1_555
C147 C143 1_555 1_555
C148 C140 1_555 1_555
C149 C146 1_555 1_555
H94 C149 1_555 1_555
C150 C151 1_555 1_555
C151 H95 1_555 1_555
C152 C151 1_555 1_555
H96 C152 1_555 1_555
C153 C117 1_555 1_555
C154 C153 1_555 1_555
H97 C154 1_555 1_555
C155 C150 1_555 1_555
H98 C155 1_555 1_555
C156 H99 1_555 1_555
C157 C156 1_555 1_555
H100 C157 1_555 1_555
C158 C157 1_555 1_555
H101 C158 1_555 1_555
C159 C158 1_555 1_555
C160 C159 1_555 1_555
H102 C160 1_555 1_555
C161 C160 1_555 1_555
H103 C161 1_555 1_555
C162 C161 1_555 1_555
C163 C162 1_555 1_555
H104 C163 1_555 1_555
C164 C163 1_555 1_555
H105 C164 1_555 1_555
C165 C164 1_555 1_555
C166 C162 1_555 1_555
C167 C159 1_555 1_555
C168 C165 1_555 1_555
H106 C168 1_555 1_555
C169 C170 1_555 1_555
C170 H107 1_555 1_555
C171 C170 1_555 1_555
H108 C171 1_555 1_555
C172 C117 1_555 1_555
C173 C172 1_555 1_555
H109 C173 1_555 1_555
C174 C169 1_555 1_555
H110 C174 1_555 1_555
N19 Zn2 1_555 1_555
N20 Zn2 1_555 1_555
N21 Zn2 1_555 1_555
N22 Zn3 1_555 1_555
N23 Zn3 1_555 1_555
N24 Zn3 1_555 1_555
N25 C156 1_555 1_555
N26 Zn1 1_555 1_555
N27 Zn1 1_555 1_555
O3 C117 1_555 1_555
H111 O3 1_555 1_555
C175 C192 1_555 1_555
C176 H112 1_555 1_555
C177 C176 1_555 1_555
H113 C177 1_555 1_555
C178 C177 1_555 1_555
H114 C178 1_555 1_555
C179 C178 1_555 1_555
C180 C179 1_555 1_555
H115 C180 1_555 1_555
C181 C180 1_555 1_555
H116 C181 1_555 1_555
C182 C181 1_555 1_555
C183 C182 1_555 1_555
H117 C183 1_555 1_555
C184 C183 1_555 1_555
H118 C184 1_555 1_555
C185 C184 1_555 1_555
C186 C182 1_555 1_555
C187 C179 1_555 1_555
C188 C185 1_555 1_555
H119 C188 1_555 1_555
C189 C190 1_555 1_555
C190 H120 1_555 1_555
C191 C190 1_555 1_555
H121 C191 1_555 1_555
C192 C191 1_555 1_555
C193 C192 1_555 1_555
H122 C193 1_555 1_555
C194 C189 1_555 1_555
H123 C194 1_555 1_555
C195 H124 1_555 1_555
C196 C195 1_555 1_555
H125 C196 1_555 1_555
C197 C196 1_555 1_555
H126 C197 1_555 1_555
C198 C197 1_555 1_555
C199 C198 1_555 1_555
H127 C199 1_555 1_555
C200 C199 1_555 1_555
H128 C200 1_555 1_555
C201 C200 1_555 1_555
C202 C201 1_555 1_555
H129 C202 1_555 1_555
C203 C202 1_555 1_555
H130 C203 1_555 1_555
C204 C203 1_555 1_555
C205 C201 1_555 1_555
C206 C198 1_555 1_555
C207 C204 1_555 1_555
H131 C207 1_555 1_555
C208 C209 1_555 1_555
C209 H132 1_555 1_555
C210 C209 1_555 1_555
H133 C210 1_555 1_555
C211 C175 1_555 1_555
C212 C211 1_555 1_555
H134 C212 1_555 1_555
C213 C208 1_555 1_555
H135 C213 1_555 1_555
C214 H136 1_555 1_555
C215 C214 1_555 1_555
H137 C215 1_555 1_555
C216 C215 1_555 1_555
H138 C216 1_555 1_555
C217 C216 1_555 1_555
C218 C217 1_555 1_555
H139 C218 1_555 1_555
C219 C218 1_555 1_555
H140 C219 1_555 1_555
C220 C219 1_555 1_555
C221 C220 1_555 1_555
H141 C221 1_555 1_555
C222 C221 1_555 1_555
H142 C222 1_555 1_555
C223 C222 1_555 1_555
C224 C220 1_555 1_555
C225 C217 1_555 1_555
C226 C223 1_555 1_555
H143 C226 1_555 1_555
C227 C228 1_555 1_555
C228 H144 1_555 1_555
C229 C228 1_555 1_555
H145 C229 1_555 1_555
C230 C175 1_555 1_555
C231 C230 1_555 1_555
H146 C231 1_555 1_555
C232 C227 1_555 1_555
H147 C232 1_555 1_555
N28 Zn1 1_555 1_555
N29 Zn1 1_555 1_555
N30 Zn1 1_555 1_555
N31 Zn5 1_555 1_555
N32 Zn5 1_555 1_555
N33 Zn5 1_555 1_555
N34 Zn6 1_555 1_555
N35 Zn6 1_555 1_555
N36 Zn6 1_555 1_555
O4 C175 1_555 1_555
H148 O4 1_555 1_555
Zn7 N40 1_555 1_555
Zn8 N43 1_555 1_555
Zn9 N37 1_555 1_555
Zn10 N52 1_555 1_555
Zn11 N61 1_555 1_555
Zn12 N49 1_555 1_555
C233 C250 1_555 1_555
C234 H149 1_555 1_555
C235 C234 1_555 1_555
H150 C235 1_555 1_555
C236 C235 1_555 1_555
H151 C236 1_555 1_555
C237 C236 1_555 1_555
C238 C237 1_555 1_555
H152 C238 1_555 1_555
C239 C238 1_555 1_555
H153 C239 1_555 1_555
C240 C239 1_555 1_555
C241 C240 1_555 1_555
H154 C241 1_555 1_555
C242 C241 1_555 1_555
H155 C242 1_555 1_555
C243 C242 1_555 1_555
C244 C240 1_555 1_555
C245 C237 1_555 1_555
C246 C243 1_555 1_555
H156 C246 1_555 1_555
C247 C248 1_555 1_555
C248 H157 1_555 1_555
C249 C248 1_555 1_555
H158 C249 1_555 1_555
C250 C249 1_555 1_555
C251 C250 1_555 1_555
H159 C251 1_555 1_555
C252 C247 1_555 1_555
H160 C252 1_555 1_555
C253 H161 1_555 1_555
C254 C253 1_555 1_555
H162 C254 1_555 1_555
C255 C254 1_555 1_555
H163 C255 1_555 1_555
C256 C255 1_555 1_555
C257 C256 1_555 1_555
H164 C257 1_555 1_555
C258 C257 1_555 1_555
H165 C258 1_555 1_555
C259 C258 1_555 1_555
C260 C259 1_555 1_555
H166 C260 1_555 1_555
C261 C260 1_555 1_555
H167 C261 1_555 1_555
C262 C261 1_555 1_555
C263 C259 1_555 1_555
C264 C256 1_555 1_555
C265 C262 1_555 1_555
H168 C265 1_555 1_555
C266 C267 1_555 1_555
C267 H169 1_555 1_555
C268 C267 1_555 1_555
H170 C268 1_555 1_555
C269 C233 1_555 1_555
C270 C269 1_555 1_555
H171 C270 1_555 1_555
C271 C266 1_555 1_555
H172 C271 1_555 1_555
C272 H173 1_555 1_555
C273 C272 1_555 1_555
H174 C273 1_555 1_555
C274 C273 1_555 1_555
H175 C274 1_555 1_555
C275 C274 1_555 1_555
C276 C275 1_555 1_555
H176 C276 1_555 1_555
C277 C276 1_555 1_555
H177 C277 1_555 1_555
C278 C277 1_555 1_555
C279 C278 1_555 1_555
H178 C279 1_555 1_555
C280 C279 1_555 1_555
H179 C280 1_555 1_555
C281 C280 1_555 1_555
C282 C278 1_555 1_555
C283 C275 1_555 1_555
C284 C281 1_555 1_555
H180 C284 1_555 1_555
C285 C286 1_555 1_555
C286 H181 1_555 1_555
C287 C286 1_555 1_555
H182 C287 1_555 1_555
C288 C233 1_555 1_555
C289 C288 1_555 1_555
H183 C289 1_555 1_555
C290 C285 1_555 1_555
H184 C290 1_555 1_555
N37 C234 1_555 1_555
N38 Zn9 1_555 1_555
N39 Zn9 1_555 1_555
N40 C253 1_555 1_555
N41 Zn7 1_555 1_555
N42 Zn7 1_555 1_555
N43 C272 1_555 1_555
N44 Zn8 1_555 1_555
N45 Zn8 1_555 1_555
O5 C233 1_555 1_555
H185 O5 1_555 1_555
C291 C308 1_555 1_555
C292 H186 1_555 1_555
C293 C292 1_555 1_555
H187 C293 1_555 1_555
C294 C293 1_555 1_555
H188 C294 1_555 1_555
C295 C294 1_555 1_555
C296 C295 1_555 1_555
H189 C296 1_555 1_555
C297 C296 1_555 1_555
H190 C297 1_555 1_555
C298 C297 1_555 1_555
C299 C298 1_555 1_555
H191 C299 1_555 1_555
C300 C299 1_555 1_555
H192 C300 1_555 1_555
C301 C300 1_555 1_555
C302 C298 1_555 1_555
C303 C295 1_555 1_555
C304 C301 1_555 1_555
H193 C304 1_555 1_555
C305 C306 1_555 1_555
C306 H194 1_555 1_555
C307 C306 1_555 1_555
H195 C307 1_555 1_555
C308 C307 1_555 1_555
C309 C308 1_555 1_555
H196 C309 1_555 1_555
C310 C305 1_555 1_555
H197 C310 1_555 1_555
C311 H198 1_555 1_555
C312 C311 1_555 1_555
H199 C312 1_555 1_555
C313 C312 1_555 1_555
H200 C313 1_555 1_555
C314 C313 1_555 1_555
C315 C314 1_555 1_555
H201 C315 1_555 1_555
C316 C315 1_555 1_555
H202 C316 1_555 1_555
C317 C316 1_555 1_555
C318 C317 1_555 1_555
H203 C318 1_555 1_555
C319 C318 1_555 1_555
H204 C319 1_555 1_555
C320 C319 1_555 1_555
C321 C317 1_555 1_555
C322 C314 1_555 1_555
C323 C320 1_555 1_555
H205 C323 1_555 1_555
C324 C325 1_555 1_555
C325 H206 1_555 1_555
C326 C325 1_555 1_555
H207 C326 1_555 1_555
C327 C291 1_555 1_555
C328 C327 1_555 1_555
H208 C328 1_555 1_555
C329 C324 1_555 1_555
H209 C329 1_555 1_555
C330 H210 1_555 1_555
C331 C330 1_555 1_555
H211 C331 1_555 1_555
C332 C331 1_555 1_555
H212 C332 1_555 1_555
C333 C332 1_555 1_555
C334 C333 1_555 1_555
H213 C334 1_555 1_555
C335 C334 1_555 1_555
H214 C335 1_555 1_555
C336 C335 1_555 1_555
C337 C336 1_555 1_555
H215 C337 1_555 1_555
C338 C337 1_555 1_555
H216 C338 1_555 1_555
C339 C338 1_555 1_555
C340 C336 1_555 1_555
C341 C333 1_555 1_555
C342 C339 1_555 1_555
H217 C342 1_555 1_555
C343 C344 1_555 1_555
C344 H218 1_555 1_555
C345 C344 1_555 1_555
H219 C345 1_555 1_555
C346 C291 1_555 1_555
C347 C346 1_555 1_555
H220 C347 1_555 1_555
C348 C343 1_555 1_555
H221 C348 1_555 1_555
N46 Zn7 1_555 1_555
N47 Zn7 1_555 1_555
N48 Zn7 1_555 1_555
N49 C311 1_555 1_555
N50 Zn12 1_555 1_555
N51 Zn12 1_555 1_555
N52 C330 1_555 1_555
N53 Zn10 1_555 1_555
N54 Zn10 1_555 1_555
O6 C291 1_555 1_555
H222 O6 1_555 1_555
C349 C366 1_555 1_555
C350 H223 1_555 1_555
C351 C350 1_555 1_555
H224 C351 1_555 1_555
C352 C351 1_555 1_555
H225 C352 1_555 1_555
C353 C352 1_555 1_555
C354 C353 1_555 1_555
H226 C354 1_555 1_555
C355 C354 1_555 1_555
H227 C355 1_555 1_555
C356 C355 1_555 1_555
C357 C356 1_555 1_555
H228 C357 1_555 1_555
C358 C357 1_555 1_555
H229 C358 1_555 1_555
C359 C358 1_555 1_555
C360 C356 1_555 1_555
C361 C353 1_555 1_555
C362 C359 1_555 1_555
H230 C362 1_555 1_555
C363 C364 1_555 1_555
C364 H231 1_555 1_555
C365 C364 1_555 1_555
H232 C365 1_555 1_555
C366 C365 1_555 1_555
C367 C366 1_555 1_555
H233 C367 1_555 1_555
C368 C363 1_555 1_555
H234 C368 1_555 1_555
C369 H235 1_555 1_555
C370 C369 1_555 1_555
H236 C370 1_555 1_555
C371 C370 1_555 1_555
H237 C371 1_555 1_555
C372 C371 1_555 1_555
C373 C372 1_555 1_555
H238 C373 1_555 1_555
C374 C373 1_555 1_555
H239 C374 1_555 1_555
C375 C374 1_555 1_555
C376 C375 1_555 1_555
H240 C376 1_555 1_555
C377 C376 1_555 1_555
H241 C377 1_555 1_555
C378 C377 1_555 1_555
C379 C375 1_555 1_555
C380 C372 1_555 1_555
C381 C378 1_555 1_555
H242 C381 1_555 1_555
C382 C383 1_555 1_555
C383 H243 1_555 1_555
C384 C383 1_555 1_555
H244 C384 1_555 1_555
C385 C349 1_555 1_555
C386 C385 1_555 1_555
H245 C386 1_555 1_555
C387 C382 1_555 1_555
H246 C387 1_555 1_555
C388 H247 1_555 1_555
C389 C388 1_555 1_555
H248 C389 1_555 1_555
C390 C389 1_555 1_555
H249 C390 1_555 1_555
C391 C390 1_555 1_555
C392 C391 1_555 1_555
H250 C392 1_555 1_555
C393 C392 1_555 1_555
H251 C393 1_555 1_555
C394 C393 1_555 1_555
C395 C394 1_555 1_555
H252 C395 1_555 1_555
C396 C395 1_555 1_555
H253 C396 1_555 1_555
C397 C396 1_555 1_555
C398 C394 1_555 1_555
C399 C391 1_555 1_555
C400 C397 1_555 1_555
H254 C400 1_555 1_555
C401 C402 1_555 1_555
C402 H255 1_555 1_555
C403 C402 1_555 1_555
H256 C403 1_555 1_555
C404 C349 1_555 1_555
C405 C404 1_555 1_555
H257 C405 1_555 1_555
C406 C401 1_555 1_555
H258 C406 1_555 1_555
N55 Zn12 1_555 1_555
N56 Zn12 1_555 1_555
N57 Zn12 1_555 1_555
N58 Zn8 1_555 1_555
N59 Zn8 1_555 1_555
N60 Zn8 1_555 1_555
N61 C388 1_555 1_555
N62 Zn11 1_555 1_555
N63 Zn11 1_555 1_555
O7 C349 1_555 1_555
H259 O7 1_555 1_555
C407 C424 1_555 1_555
C408 H260 1_555 1_555
C409 C408 1_555 1_555
H261 C409 1_555 1_555
C410 C409 1_555 1_555
H262 C410 1_555 1_555
C411 C410 1_555 1_555
C412 C411 1_555 1_555
H263 C412 1_555 1_555
C413 C412 1_555 1_555
H264 C413 1_555 1_555
C414 C413 1_555 1_555
C415 C414 1_555 1_555
H265 C415 1_555 1_555
C416 C415 1_555 1_555
H266 C416 1_555 1_555
C417 C416 1_555 1_555
C418 C414 1_555 1_555
C419 C411 1_555 1_555
C420 C417 1_555 1_555
H267 C420 1_555 1_555
C421 C422 1_555 1_555
C422 H268 1_555 1_555
C423 C422 1_555 1_555
H269 C423 1_555 1_555
C424 C423 1_555 1_555
C425 C424 1_555 1_555
H270 C425 1_555 1_555
C426 C421 1_555 1_555
H271 C426 1_555 1_555
C427 H272 1_555 1_555
C428 C427 1_555 1_555
H273 C428 1_555 1_555
C429 C428 1_555 1_555
H274 C429 1_555 1_555
C430 C429 1_555 1_555
C431 C430 1_555 1_555
H275 C431 1_555 1_555
C432 C431 1_555 1_555
H276 C432 1_555 1_555
C433 C432 1_555 1_555
C434 C433 1_555 1_555
H277 C434 1_555 1_555
C435 C434 1_555 1_555
H278 C435 1_555 1_555
C436 C435 1_555 1_555
C437 C433 1_555 1_555
C438 C430 1_555 1_555
C439 C436 1_555 1_555
H279 C439 1_555 1_555
C440 C441 1_555 1_555
C441 H280 1_555 1_555
C442 C441 1_555 1_555
H281 C442 1_555 1_555
C443 C407 1_555 1_555
C444 C443 1_555 1_555
H282 C444 1_555 1_555
C445 C440 1_555 1_555
H283 C445 1_555 1_555
C446 H284 1_555 1_555
C447 C446 1_555 1_555
H285 C447 1_555 1_555
C448 C447 1_555 1_555
H286 C448 1_555 1_555
C449 C448 1_555 1_555
C450 C449 1_555 1_555
H287 C450 1_555 1_555
C451 C450 1_555 1_555
H288 C451 1_555 1_555
C452 C451 1_555 1_555
C453 C452 1_555 1_555
H289 C453 1_555 1_555
C454 C453 1_555 1_555
H290 C454 1_555 1_555
C455 C454 1_555 1_555
C456 C452 1_555 1_555
C457 C449 1_555 1_555
C458 C455 1_555 1_555
H291 C458 1_555 1_555
C459 C460 1_555 1_555
C460 H292 1_555 1_555
C461 C460 1_555 1_555
H293 C461 1_555 1_555
C462 C407 1_555 1_555
C463 C462 1_555 1_555
H294 C463 1_555 1_555
C464 C459 1_555 1_555
H295 C464 1_555 1_555
N64 Zn10 1_555 1_555
N65 Zn10 1_555 1_555
N66 Zn10 1_555 1_555
N67 Zn9 1_555 1_555
N68 Zn9 1_555 1_555
N69 Zn9 1_555 1_555
N70 Zn11 1_555 1_555
N71 Zn11 1_555 1_555
N72 Zn11 1_555 1_555
O8 C407 1_555 1_555
H296 O8 1_555 1_555
S1 O9 1_555 1_555
O10 S1 1_555 1_555
O11 S1 1_555 1_555
C465 S1 1_555 1_555
F1 C465 1_555 1_555
F2 C465 1_555 1_555
F3 C465 1_555 1_555
S2 O12 1_555 1_555
O13 S2 1_555 1_555
O14 S2 1_555 1_555
C466 S2 1_555 1_555
F4 C466 1_555 1_555
F5 C466 1_555 1_555
F6 C466 1_555 1_555
S3 O15 1_555 1_555
O16 S3 1_555 1_555
O17 S3 1_555 1_555
C467 S3 1_555 1_555
F7 C467 1_555 1_555
F8 C467 1_555 1_555
F9 C467 1_555 1_555
C468 S4 1_555 1_555
S4 O18 1_555 1_555
O19 S4 1_555 1_555
O20 S4 1_555 1_555
F10 C468 1_555 1_555
F11 C468 1_555 1_555
F12 C468 1_555 1_555
S5 O21 1_555 1_555
O22 S5 1_555 1_555
O23 S5 1_555 1_555
C469 S5 1_555 1_555
F13 C469 1_555 1_555
F14 C469 1_555 1_555
F15 C469 1_555 1_555
N73 C471 1_555 1_555
C470 H297 1_555 1_555
H298 C470 1_555 1_555
H299 C470 1_555 1_555
C471 C470 1_555 1_555
C11 N2 1_555 1_555
C12 C13 1_555 1_555
C12 N2 1_555 1_555
C13 N1 1_555 1_555
C14 N3 1_555 1_555
C15 N3 1_555 1_555
C19 C20 1_555 1_555
C30 N5 1_555 1_555
C31 C32 1_555 1_555
C31 N5 1_555 1_555
C32 N4 1_555 1_555
C33 N6 1_555 1_555
C34 N6 1_555 1_555
C36 C37 1_555 1_555
C38 C39 1_555 1_555
C49 N8 1_555 1_555
C50 C51 1_555 1_555
C50 N8 1_555 1_555
C51 N7 1_555 1_555
C52 N9 1_555 1_555
C53 N9 1_555 1_555
C55 C56 1_555 1_555
C57 C58 1_555 1_555
C69 N11 1_555 1_555
C70 C71 1_555 1_555
C70 N11 1_555 1_555
C71 N10 1_555 1_555
C72 N12 1_555 1_555
C73 N12 1_555 1_555
C77 C78 1_555 1_555
C88 N14 1_555 1_555
C89 C90 1_555 1_555
C89 N14 1_555 1_555
C90 N13 1_555 1_555
C91 N15 1_555 1_555
C92 N15 1_555 1_555
C94 C95 1_555 1_555
C96 C97 1_555 1_555
C98 N16 1_555 1_555
C107 N17 1_555 1_555
C108 C109 1_555 1_555
C108 N17 1_555 1_555
C109 N16 1_555 1_555
C110 N18 1_555 1_555
C111 N18 1_555 1_555
C113 C114 1_555 1_555
C115 C116 1_555 1_555
C118 N19 1_555 1_555
C127 N20 1_555 1_555
C128 C129 1_555 1_555
C128 N20 1_555 1_555
C129 N19 1_555 1_555
C130 N21 1_555 1_555
C131 N21 1_555 1_555
C135 C136 1_555 1_555
C137 N22 1_555 1_555
C146 N23 1_555 1_555
C147 C148 1_555 1_555
C147 N23 1_555 1_555
C148 N22 1_555 1_555
C149 N24 1_555 1_555
C150 N24 1_555 1_555
C152 C153 1_555 1_555
C154 C155 1_555 1_555
C165 N26 1_555 1_555
C166 C167 1_555 1_555
C166 N26 1_555 1_555
C167 N25 1_555 1_555
C168 N27 1_555 1_555
C169 N27 1_555 1_555
C171 C172 1_555 1_555
C173 C174 1_555 1_555
C176 N28 1_555 1_555
C185 N29 1_555 1_555
C186 C187 1_555 1_555
C186 N29 1_555 1_555
C187 N28 1_555 1_555
C188 N30 1_555 1_555
C189 N30 1_555 1_555
C193 C194 1_555 1_555
C195 N31 1_555 1_555
C204 N32 1_555 1_555
C205 C206 1_555 1_555
C205 N32 1_555 1_555
C206 N31 1_555 1_555
C207 N33 1_555 1_555
C208 N33 1_555 1_555
C210 C211 1_555 1_555
C212 C213 1_555 1_555
C214 N34 1_555 1_555
C223 N35 1_555 1_555
C224 C225 1_555 1_555
C224 N35 1_555 1_555
C225 N34 1_555 1_555
C226 N36 1_555 1_555
C227 N36 1_555 1_555
C229 C230 1_555 1_555
C231 C232 1_555 1_555
C243 N38 1_555 1_555
C244 C245 1_555 1_555
C244 N38 1_555 1_555
C245 N37 1_555 1_555
C246 N39 1_555 1_555
C247 N39 1_555 1_555
C251 C252 1_555 1_555
C262 N41 1_555 1_555
C263 C264 1_555 1_555
C263 N41 1_555 1_555
C264 N40 1_555 1_555
C265 N42 1_555 1_555
C266 N42 1_555 1_555
C268 C269 1_555 1_555
C270 C271 1_555 1_555
C281 N44 1_555 1_555
C282 C283 1_555 1_555
C282 N44 1_555 1_555
C283 N43 1_555 1_555
C284 N45 1_555 1_555
C285 N45 1_555 1_555
C287 C288 1_555 1_555
C289 C290 1_555 1_555
C292 N46 1_555 1_555
C301 N47 1_555 1_555
C302 C303 1_555 1_555
C302 N47 1_555 1_555
C303 N46 1_555 1_555
C304 N48 1_555 1_555
C305 N48 1_555 1_555
C309 C310 1_555 1_555
C320 N50 1_555 1_555
C321 C322 1_555 1_555
C321 N50 1_555 1_555
C322 N49 1_555 1_555
C323 N51 1_555 1_555
C324 N51 1_555 1_555
C326 C327 1_555 1_555
C328 C329 1_555 1_555
C339 N53 1_555 1_555
C340 C341 1_555 1_555
C340 N53 1_555 1_555
C341 N52 1_555 1_555
C342 N54 1_555 1_555
C343 N54 1_555 1_555
C345 C346 1_555 1_555
C347 C348 1_555 1_555
C350 N55 1_555 1_555
C359 N56 1_555 1_555
C360 C361 1_555 1_555
C360 N56 1_555 1_555
C361 N55 1_555 1_555
C362 N57 1_555 1_555
C363 N57 1_555 1_555
C367 C368 1_555 1_555
C369 N58 1_555 1_555
C378 N59 1_555 1_555
C379 C380 1_555 1_555
C379 N59 1_555 1_555
C380 N58 1_555 1_555
C381 N60 1_555 1_555
C382 N60 1_555 1_555
C384 C385 1_555 1_555
C386 C387 1_555 1_555
C397 N62 1_555 1_555
C398 C399 1_555 1_555
C398 N62 1_555 1_555
C399 N61 1_555 1_555
C400 N63 1_555 1_555
C401 N63 1_555 1_555
C403 C404 1_555 1_555
C405 C406 1_555 1_555
C408 N64 1_555 1_555
C417 N65 1_555 1_555
C418 C419 1_555 1_555
C418 N65 1_555 1_555
C419 N64 1_555 1_555
C420 N66 1_555 1_555
C421 N66 1_555 1_555
C425 C426 1_555 1_555
C427 N67 1_555 1_555
C436 N68 1_555 1_555
C437 C438 1_555 1_555
C437 N68 1_555 1_555
C438 N67 1_555 1_555
C439 N69 1_555 1_555
C440 N69 1_555 1_555
C442 C443 1_555 1_555
C444 C445 1_555 1_555
C446 N70 1_555 1_555
C455 N71 1_555 1_555
C456 C457 1_555 1_555
C456 N71 1_555 1_555
C457 N70 1_555 1_555
C458 N72 1_555 1_555
C459 N72 1_555 1_555
C461 C462 1_555 1_555
C463 C464 1_555 1_555

#END
