# generated using pymatgen
data_Zn24B34H659C962N181(OF68)2
_symmetry_space_group_name_H-M   'P 1'
_cell_length_a   21.29080000
_cell_length_b   34.42800000
_cell_length_c   40.37300000
_cell_angle_alpha   96.12800000
_cell_angle_beta   94.32700000
_cell_angle_gamma   101.21800000
_symmetry_Int_Tables_number   1
_chemical_formula_structural   Zn24B34H659C962N181(OF68)2
_chemical_formula_sum   'Zn24 B34 H659 C962 N181 O2 F136.0'
_cell_volume   28721.32264155
_cell_formula_units_Z   1
loop_
 _symmetry_equiv_pos_site_id
 _symmetry_equiv_pos_as_xyz
  1  'x, y, z'
loop_
 _atom_site_type_symbol
 _atom_site_label
 _atom_site_symmetry_multiplicity
 _atom_site_fract_x
 _atom_site_fract_y
 _atom_site_fract_z
 _atom_site_occupancy
  Zn  Zn1  1  0.609500  0.482470  0.859170  1.0
  Zn  Zn2  1  0.390500  0.517530  0.140830  1.0
  Zn  Zn3  1  0.263850  0.369530  0.615400  1.0
  Zn  Zn4  1  0.736150  0.630470  0.384600  1.0
  Zn  Zn5  1  0.161200  0.250970  0.893970  1.0
  Zn  Zn6  1  0.838800  0.749030  0.106030  1.0
  Zn  Zn7  1  0.275100  0.026610  0.645980  1.0
  Zn  Zn8  1  0.724900  0.973390  0.354020  1.0
  Zn  Zn9  1  0.739400  0.228440  0.619930  1.0
  Zn  Zn10  1  0.260600  0.771560  0.380070  1.0
  Zn  Zn11  1  0.678000  0.143320  0.913150  1.0
  Zn  Zn12  1  0.322000  0.856680  0.086850  1.0
  Zn  Zn13  1  0.159400  0.625800  0.912670  1.0
  Zn  Zn14  1  0.840600  0.374200  0.087330  1.0
  Zn  Zn15  1  0.252500  0.724460  0.618760  1.0
  Zn  Zn16  1  0.747500  0.275540  0.381240  1.0
  Zn  Zn17  1  0.770840  0.868470  0.610820  1.0
  Zn  Zn18  1  0.229160  0.131530  0.389180  1.0
  Zn  Zn19  1  0.664830  0.771230  0.885350  1.0
  Zn  Zn20  1  0.335170  0.228770  0.114650  1.0
  Zn  Zn21  1  0.174700  0.973550  0.856080  1.0
  Zn  Zn22  1  0.825300  0.026450  0.143920  1.0
  Zn  Zn23  1  0.778900  0.529310  0.646130  1.0
  Zn  Zn24  1  0.221100  0.470690  0.353870  1.0
  B  B25  1  0.322700  0.616500  0.700200  1.0
  B  B26  1  0.677300  0.383500  0.299800  1.0
  B  B27  1  0.421000  0.206600  0.589600  1.0
  B  B28  1  0.579000  0.793400  0.410400  1.0
  B  B29  1  0.353600  0.138700  0.890100  1.0
  B  B30  1  0.646400  0.861300  0.109900  1.0
  B  B31  1  0.243700  0.411600  0.944900  1.0
  B  B32  1  0.756300  0.588400  0.055100  1.0
  B  B33  1  0.834000  0.635900  0.896300  1.0
  B  B34  1  0.166000  0.364100  0.103700  1.0
  B  B35  1  0.783400  0.449600  0.763900  1.0
  B  B36  1  0.216600  0.550400  0.236100  1.0
  B  B37  1  0.373600  0.954400  0.949400  1.0
  B  B38  1  0.626400  0.045600  0.050600  1.0
  B  B39  1  0.788000  0.239300  0.768500  1.0
  B  B40  1  0.212000  0.760700  0.231500  1.0
  B  B41  1  0.934100  0.705300  0.588500  1.0
  B  B42  1  0.065900  0.294700  0.411500  1.0
  B  B43  1  0.106000  0.615900  0.121100  1.0
  B  B44  1  0.894000  0.384100  0.878900  1.0
  B  B45  1  0.780300  0.930400  0.935100  1.0
  B  B46  1  0.219700  0.069600  0.064900  1.0
  B  B47  1  0.262500  0.793000  0.865500  1.0
  B  B48  1  0.737500  0.207000  0.134500  1.0
  B  B49  1  0.080700  0.598900  0.526000  1.0
  B  B50  1  0.919300  0.401100  0.474000  1.0
  B  B51  1  0.574400  0.984000  0.800000  0.5
  B  B52  1  0.425600  0.016000  0.200000  0.5
  B  B53  1  0.522900  0.430400  0.484100  0.5
  B  B54  1  0.477100  0.569600  0.515900  0.5
  B  B55  1  0.046900  0.071300  0.867800  0.5
  B  B56  1  0.953100  0.928700  0.132200  0.5
  B  B57  1  0.279300  0.379000  0.808000  0.5
  B  B58  1  0.720700  0.621000  0.192000  0.5
  B  B59  1  0.960400  0.073100  0.516400  0.5
  B  B60  1  0.039600  0.926900  0.483600  0.5
  B  B61  1  0.839900  0.899300  0.797900  0.5
  B  B62  1  0.160100  0.100700  0.202100  0.5
  B  B63  1  0.422300  0.469000  0.731400  0.5
  B  B64  1  0.577700  0.531000  0.268600  0.5
  B  B65  1  0.059700  0.265900  0.620300  0.5
  B  B66  1  0.940300  0.734100  0.379700  0.5
  H  H67  1  0.408500  0.775500  0.615700  1.0
  H  H68  1  0.591500  0.224500  0.384300  1.0
  H  H69  1  0.465200  0.817300  0.580200  1.0
  H  H70  1  0.534800  0.182700  0.419800  1.0
  H  H71  1  0.409800  0.829900  0.532200  1.0
  H  H72  1  0.590200  0.170100  0.467800  1.0
  H  H73  1  0.303900  0.821200  0.495000  1.0
  H  H74  1  0.696100  0.178800  0.505000  1.0
  H  H75  1  0.196300  0.793300  0.484300  1.0
  H  H76  1  0.803700  0.206700  0.515700  1.0
  H  H77  1  0.097100  0.753400  0.504500  1.0
  H  H78  1  0.902900  0.246600  0.495500  1.0
  H  H79  1  0.051900  0.712900  0.542900  1.0
  H  H80  1  0.948100  0.287100  0.457100  1.0
  H  H81  1  0.068900  0.682600  0.599900  1.0
  H  H82  1  0.931100  0.317400  0.400100  1.0
  H  H83  1  0.039200  0.686100  0.649200  1.0
  H  H84  1  0.960800  0.313900  0.350800  1.0
  H  H85  1  0.009000  0.656800  0.696800  1.0
  H  H86  1  0.991000  0.343200  0.303200  1.0
  H  H87  1  0.186300  0.635100  0.715500  1.0
  H  H88  1  0.813700  0.364900  0.284500  1.0
  H  H89  1  0.220000  0.668400  0.670400  1.0
  H  H90  1  0.780000  0.331600  0.329600  1.0
  H  H91  1  0.102800  0.577700  0.977900  1.0
  H  H92  1  0.897200  0.422300  0.022100  1.0
  H  H93  1  0.117500  0.585300  0.036000  1.0
  H  H94  1  0.882500  0.414700  0.964000  1.0
  H  H95  1  0.203300  0.634400  0.062700  1.0
  H  H96  1  0.796700  0.365600  0.937300  1.0
  H  H97  1  0.299200  0.689900  0.057400  1.0
  H  H98  1  0.700800  0.310100  0.942600  1.0
  H  H99  1  0.348300  0.736100  0.025100  1.0
  H  H100  1  0.651700  0.263900  0.974900  1.0
  H  H101  1  0.366900  0.753300  0.966900  1.0
  H  H102  1  0.633100  0.246700  0.033100  1.0
  H  H103  1  0.339300  0.740700  0.909200  1.0
  H  H104  1  0.660700  0.259300  0.090800  1.0
  H  H105  1  0.257200  0.699900  0.859300  1.0
  H  H106  1  0.742800  0.300100  0.140700  1.0
  H  H107  1  0.196200  0.701500  0.819100  1.0
  H  H108  1  0.803800  0.298500  0.180900  1.0
  H  H109  1  0.149300  0.684700  0.764400  1.0
  H  H110  1  0.850700  0.315300  0.235600  1.0
  H  H111  1  0.062600  0.577500  0.785300  1.0
  H  H112  1  0.937400  0.422500  0.214700  1.0
  H  H113  1  0.114200  0.592100  0.838800  1.0
  H  H114  1  0.885800  0.407900  0.161200  1.0
  H  H115  1  0.734400  0.531800  0.565400  1.0
  H  H116  1  0.265600  0.468200  0.434600  1.0
  H  H117  1  0.637700  0.513500  0.529800  1.0
  H  H118  1  0.362300  0.486500  0.470200  1.0
  H  H119  1  0.541100  0.489500  0.550000  1.0
  H  H120  1  0.458900  0.510500  0.450000  1.0
  H  H121  1  0.480400  0.470400  0.601600  1.0
  H  H122  1  0.519600  0.529600  0.398400  1.0
  H  H123  1  0.486900  0.469500  0.658500  1.0
  H  H124  1  0.513100  0.530500  0.341500  1.0
  H  H125  1  0.556100  0.479500  0.715800  1.0
  H  H126  1  0.443900  0.520500  0.284200  1.0
  H  H127  1  0.658000  0.499400  0.744800  1.0
  H  H128  1  0.342000  0.500600  0.255200  1.0
  H  H129  1  0.782900  0.529700  0.742500  1.0
  H  H130  1  0.217100  0.470300  0.257500  1.0
  H  H131  1  0.862900  0.586700  0.753100  1.0
  H  H132  1  0.137100  0.413300  0.246900  1.0
  H  H133  1  0.967500  0.620800  0.768200  1.0
  H  H134  1  0.032500  0.379200  0.231800  1.0
  H  H135  1  0.025100  0.562200  0.687800  1.0
  H  H136  1  0.974900  0.437800  0.312200  1.0
  H  H137  1  0.918600  0.529900  0.671500  1.0
  H  H138  1  0.081400  0.470100  0.328500  1.0
  H  H139  1  0.661500  0.930700  0.618000  1.0
  H  H140  1  0.338500  0.069300  0.382000  1.0
  H  H141  1  0.569300  0.940400  0.584700  1.0
  H  H142  1  0.430700  0.059600  0.415300  1.0
  H  H143  1  0.528000  0.893700  0.539500  1.0
  H  H144  1  0.472000  0.106300  0.460500  1.0
  H  H145  1  0.524200  0.825600  0.505700  1.0
  H  H146  1  0.475800  0.174400  0.494300  1.0
  H  H147  1  0.573700  0.773700  0.492700  1.0
  H  H148  1  0.426300  0.226300  0.507300  1.0
  H  H149  1  0.661600  0.736900  0.509700  1.0
  H  H150  1  0.338400  0.263100  0.490300  1.0
  H  H151  1  0.754500  0.735300  0.543300  1.0
  H  H152  1  0.245500  0.264700  0.456700  1.0
  H  H153  1  0.846900  0.776300  0.589700  1.0
  H  H154  1  0.153100  0.223700  0.410300  1.0
  H  H155  1  0.914400  0.777400  0.625800  1.0
  H  H156  1  0.085600  0.222600  0.374200  1.0
  H  H157  1  0.011300  0.790900  0.659500  1.0
  H  H158  1  0.988700  0.209100  0.340500  1.0
  H  H159  1  0.995400  0.904300  0.682000  1.0
  H  H160  1  0.004600  0.095700  0.318000  1.0
  H  H161  1  0.900900  0.893200  0.646800  1.0
  H  H162  1  0.099100  0.106800  0.353200  1.0
  H  H163  1  0.308700  0.027000  0.902800  1.0
  H  H164  1  0.691300  0.973000  0.097200  1.0
  H  H165  1  0.339400  0.054500  0.958200  1.0
  H  H166  1  0.660600  0.945500  0.041800  1.0
  H  H167  1  0.256000  0.071400  0.989000  1.0
  H  H168  1  0.744000  0.928600  0.011000  1.0
  H  H169  1  0.141000  0.040100  0.003500  1.0
  H  H170  1  0.859000  0.959900  0.996500  1.0
  H  H171  1  0.036200  0.017100  0.980600  1.0
  H  H172  1  0.963800  0.982900  0.019400  1.0
  H  H173  1  0.962100  0.972300  0.934400  1.0
  H  H174  1  0.037900  0.027700  0.065600  1.0
  H  H175  1  0.944800  0.941900  0.878800  1.0
  H  H176  1  0.055200  0.058100  0.121200  1.0
  H  H177  1  0.993400  0.930600  0.822300  1.0
  H  H178  1  0.006600  0.069400  0.177700  1.0
  H  H179  1  0.176300  0.943600  0.780000  1.0
  H  H180  1  0.823700  0.056400  0.220000  1.0
  H  H181  1  0.170500  0.904400  0.728700  1.0
  H  H182  1  0.829500  0.095600  0.271300  1.0
  H  H183  1  0.986600  0.854700  0.736500  1.0
  H  H184  1  0.013400  0.145300  0.263500  1.0
  H  H185  1  0.989600  0.895300  0.786800  1.0
  H  H186  1  0.010400  0.104700  0.213200  1.0
  H  H187  1  0.204400  0.645400  0.560100  1.0
  H  H188  1  0.795600  0.354600  0.439900  1.0
  H  H189  1  0.258900  0.599700  0.531800  1.0
  H  H190  1  0.741100  0.400300  0.468200  1.0
  H  H191  1  0.360300  0.594500  0.552000  1.0
  H  H192  1  0.639700  0.405500  0.448000  1.0
  H  H193  1  0.453500  0.614700  0.600400  1.0
  H  H194  1  0.546500  0.385300  0.399600  1.0
  H  H195  1  0.494600  0.654600  0.649300  1.0
  H  H196  1  0.505400  0.345400  0.350700  1.0
  H  H197  1  0.487500  0.715000  0.692700  1.0
  H  H198  1  0.512500  0.285000  0.307300  1.0
  H  H199  1  0.427500  0.760800  0.712300  1.0
  H  H200  1  0.572500  0.239200  0.287700  1.0
  H  H201  1  0.316700  0.785900  0.705400  1.0
  H  H202  1  0.683300  0.214100  0.294600  1.0
  H  H203  1  0.194700  0.804300  0.624500  1.0
  H  H204  1  0.805300  0.195700  0.375500  1.0
  H  H205  1  0.117200  0.840200  0.637700  1.0
  H  H206  1  0.882800  0.159800  0.362300  1.0
  H  H207  1  0.138800  0.821200  0.734400  1.0
  H  H208  1  0.861200  0.178800  0.265600  1.0
  H  H209  1  0.217200  0.784800  0.721000  1.0
  H  H210  1  0.782800  0.215200  0.279000  1.0
  H  H211  1  0.650300  0.860800  0.925500  1.0
  H  H212  1  0.349700  0.139200  0.074500  1.0
  H  H213  1  0.637300  0.885500  0.981500  1.0
  H  H214  1  0.362700  0.114500  0.018500  1.0
  H  H215  1  0.635300  0.843200  0.021600  1.0
  H  H216  1  0.364700  0.156800  0.978400  1.0
  H  H217  1  0.655900  0.777400  0.040100  1.0
  H  H218  1  0.344100  0.222600  0.959900  1.0
  H  H219  1  0.671400  0.714100  0.026100  1.0
  H  H220  1  0.328600  0.285900  0.973900  1.0
  H  H221  1  0.688800  0.662400  0.980600  1.0
  H  H222  1  0.311200  0.337600  0.019400  1.0
  H  H223  1  0.694400  0.642000  0.923900  1.0
  H  H224  1  0.305600  0.358000  0.076100  1.0
  H  H225  1  0.701900  0.665100  0.862500  1.0
  H  H226  1  0.298100  0.334900  0.137500  1.0
  H  H227  1  0.765200  0.681900  0.821200  1.0
  H  H228  1  0.234800  0.318100  0.178800  1.0
  H  H229  1  0.782500  0.683800  0.765000  1.0
  H  H230  1  0.217500  0.316200  0.235000  1.0
  H  H231  1  0.647300  0.749200  0.753600  1.0
  H  H232  1  0.352700  0.250800  0.246400  1.0
  H  H233  1  0.631900  0.750100  0.809500  1.0
  H  H234  1  0.368100  0.249900  0.190500  1.0
  H  H235  1  0.752800  0.437900  0.669200  1.0
  H  H236  1  0.247200  0.562100  0.330800  1.0
  H  H237  1  0.777900  0.375600  0.653100  1.0
  H  H238  1  0.222100  0.624400  0.346900  1.0
  H  H239  1  0.840800  0.370400  0.608800  1.0
  H  H240  1  0.159200  0.629600  0.391200  1.0
  H  H241  1  0.908400  0.405100  0.565400  1.0
  H  H242  1  0.091600  0.594900  0.434600  1.0
  H  H243  1  0.946500  0.462200  0.542900  1.0
  H  H244  1  0.053500  0.537800  0.457100  1.0
  H  H245  1  0.959800  0.538700  0.547900  1.0
  H  H246  1  0.040200  0.461300  0.452100  1.0
  H  H247  1  0.928100  0.596200  0.570600  1.0
  H  H248  1  0.071900  0.403800  0.429400  1.0
  H  H249  1  0.875600  0.629100  0.621300  1.0
  H  H250  1  0.124400  0.370900  0.378700  1.0
  H  H251  1  0.715000  0.591500  0.678700  1.0
  H  H252  1  0.285000  0.408500  0.321300  1.0
  H  H253  1  0.683900  0.642100  0.712100  1.0
  H  H254  1  0.316100  0.357900  0.287900  1.0
  H  H255  1  0.823200  0.722500  0.681800  1.0
  H  H256  1  0.176800  0.277500  0.318200  1.0
  H  H257  1  0.860400  0.671600  0.651900  1.0
  H  H258  1  0.139600  0.328400  0.348100  1.0
  H  H259  1  0.837600  0.867400  0.537500  1.0
  H  H260  1  0.162400  0.132600  0.462500  1.0
  H  H261  1  0.890600  0.916400  0.506400  1.0
  H  H262  1  0.109400  0.083600  0.493600  1.0
  H  H263  1  0.899300  0.983100  0.523400  1.0
  H  H264  1  0.100700  0.016900  0.476600  1.0
  H  H265  1  0.882200  0.038000  0.569000  1.0
  H  H266  1  0.117800  0.962000  0.431000  1.0
  H  H267  1  0.836900  0.052700  0.617600  1.0
  H  H268  1  0.163100  0.947300  0.382400  1.0
  H  H269  1  0.789600  0.028000  0.671100  1.0
  H  H270  1  0.210400  0.972000  0.328900  1.0
  H  H271  1  0.758400  0.974700  0.701100  1.0
  H  H272  1  0.241600  0.025300  0.298900  1.0
  H  H273  1  0.741200  0.896700  0.702800  1.0
  H  H274  1  0.258800  0.103300  0.297200  1.0
  H  H275  1  0.786100  0.850900  0.723900  1.0
  H  H276  1  0.213900  0.149100  0.276100  1.0
  H  H277  1  0.781900  0.791500  0.747100  1.0
  H  H278  1  0.218100  0.208500  0.252900  1.0
  H  H279  1  0.690700  0.730300  0.659800  1.0
  H  H280  1  0.309300  0.269700  0.340200  1.0
  H  H281  1  0.695300  0.790200  0.637100  1.0
  H  H282  1  0.304700  0.209800  0.362900  1.0
  H  H283  1  0.304300  0.606900  0.898600  1.0
  H  H284  1  0.695700  0.393100  0.101400  1.0
  H  H285  1  0.346500  0.547800  0.888400  1.0
  H  H286  1  0.653500  0.452200  0.111600  1.0
  H  H287  1  0.278000  0.486900  0.879300  1.0
  H  H288  1  0.722000  0.513100  0.120700  1.0
  H  H289  1  0.166600  0.444800  0.885700  1.0
  H  H290  1  0.833400  0.555200  0.114300  1.0
  H  H291  1  0.061200  0.442100  0.893300  1.0
  H  H292  1  0.938800  0.557900  0.106700  1.0
  H  H293  1  0.972000  0.479600  0.904300  1.0
  H  H294  1  0.028000  0.520400  0.095700  1.0
  H  H295  1  0.938600  0.540600  0.913300  1.0
  H  H296  1  0.061400  0.459400  0.086700  1.0
  H  H297  1  0.975400  0.620000  0.921800  1.0
  H  H298  1  0.024600  0.380000  0.078200  1.0
  H  H299  1  0.983200  0.677900  0.953200  1.0
  H  H300  1  0.016800  0.322100  0.046800  1.0
  H  H301  1  0.966100  0.743100  0.955500  1.0
  H  H302  1  0.033900  0.256900  0.044500  1.0
  H  H303  1  0.099100  0.769900  0.891400  1.0
  H  H304  1  0.900900  0.230100  0.108600  1.0
  H  H305  1  0.122400  0.706900  0.891800  1.0
  H  H306  1  0.877600  0.293100  0.108200  1.0
  H  H307  1  0.532300  0.703900  0.890500  1.0
  H  H308  1  0.467700  0.296100  0.109500  1.0
  H  H309  1  0.422400  0.689400  0.868600  1.0
  H  H310  1  0.577600  0.310600  0.131400  1.0
  H  H311  1  0.383500  0.741400  0.847000  1.0
  H  H312  1  0.616500  0.258600  0.153000  1.0
  H  H313  1  0.405000  0.813100  0.830900  1.0
  H  H314  1  0.595000  0.186900  0.169100  1.0
  H  H315  1  0.478300  0.868000  0.822000  1.0
  H  H316  1  0.521700  0.132000  0.178000  1.0
  H  H317  1  0.597200  0.903600  0.826600  1.0
  H  H318  1  0.402800  0.096400  0.173400  1.0
  H  H319  1  0.705300  0.902300  0.839000  1.0
  H  H320  1  0.294700  0.097700  0.161000  1.0
  H  H321  1  0.788700  0.865300  0.866700  1.0
  H  H322  1  0.211300  0.134700  0.133300  1.0
  H  H323  1  0.852100  0.865300  0.911100  1.0
  H  H324  1  0.147900  0.134700  0.088900  1.0
  H  H325  1  0.954900  0.858800  0.929000  1.0
  H  H326  1  0.045100  0.141200  0.071000  1.0
  H  H327  1  0.913800  0.742200  0.893200  1.0
  H  H328  1  0.086200  0.257800  0.106800  1.0
  H  H329  1  0.808900  0.747800  0.877000  1.0
  H  H330  1  0.191100  0.252200  0.123000  1.0
  H  H331  1  0.134700  0.044600  0.821000  1.0
  H  H332  1  0.865300  0.955400  0.179000  1.0
  H  H333  1  0.189500  0.101100  0.798100  1.0
  H  H334  1  0.810500  0.898900  0.201900  1.0
  H  H335  1  0.298100  0.112500  0.794100  1.0
  H  H336  1  0.701900  0.887500  0.205900  1.0
  H  H337  1  0.406800  0.088200  0.805200  1.0
  H  H338  1  0.593200  0.911800  0.194800  1.0
  H  H339  1  0.452000  0.035500  0.818000  1.0
  H  H340  1  0.548000  0.964500  0.182000  1.0
  H  H341  1  0.443900  0.967400  0.840700  1.0
  H  H342  1  0.556100  0.032600  0.159300  1.0
  H  H343  1  0.380000  0.917700  0.865800  1.0
  H  H344  1  0.620000  0.082300  0.134200  1.0
  H  H345  1  0.263600  0.888800  0.883100  1.0
  H  H346  1  0.736400  0.111200  0.116900  1.0
  H  H347  1  0.192000  0.892400  0.932500  1.0
  H  H348  1  0.808000  0.107600  0.067500  1.0
  H  H349  1  0.117000  0.844800  0.952400  1.0
  H  H350  1  0.883000  0.155200  0.047600  1.0
  H  H351  1  0.011200  0.822800  0.862900  1.0
  H  H352  1  0.988800  0.177200  0.137100  1.0
  H  H353  1  0.088300  0.869900  0.842500  1.0
  H  H354  1  0.911700  0.130100  0.157500  1.0
  H  H355  1  0.687900  0.152300  0.556900  1.0
  H  H356  1  0.312100  0.847700  0.443100  1.0
  H  H357  1  0.733900  0.099400  0.532000  1.0
  H  H358  1  0.266100  0.900600  0.468000  1.0
  H  H359  1  0.836800  0.096100  0.549500  1.0
  H  H360  1  0.163200  0.903900  0.450500  1.0
  H  H361  1  0.933100  0.115700  0.596100  1.0
  H  H362  1  0.066900  0.884300  0.403900  1.0
  H  H363  1  0.984600  0.159300  0.640800  1.0
  H  H364  1  0.015400  0.840700  0.359200  1.0
  H  H365  1  0.978000  0.214700  0.685900  1.0
  H  H366  1  0.022000  0.785300  0.314100  1.0
  H  H367  1  0.922900  0.261600  0.709100  1.0
  H  H368  1  0.077100  0.738400  0.290900  1.0
  H  H369  1  0.815700  0.291100  0.704800  1.0
  H  H370  1  0.184300  0.708900  0.295200  1.0
  H  H371  1  0.682700  0.309200  0.629600  1.0
  H  H372  1  0.317300  0.690800  0.370400  1.0
  H  H373  1  0.604100  0.344300  0.645000  1.0
  H  H374  1  0.395900  0.655700  0.355000  1.0
  H  H375  1  0.635800  0.323500  0.740600  1.0
  H  H376  1  0.364200  0.676500  0.259400  1.0
  H  H377  1  0.712100  0.287200  0.725400  1.0
  H  H378  1  0.287900  0.712800  0.274600  1.0
  H  H379  1  0.158200  0.431500  0.623400  1.0
  H  H380  1  0.841800  0.568500  0.376600  1.0
  H  H381  1  0.064400  0.442000  0.595400  1.0
  H  H382  1  0.935600  0.558000  0.404600  1.0
  H  H383  1  0.020700  0.399000  0.547200  1.0
  H  H384  1  0.979300  0.601000  0.452800  1.0
  H  H385  1  0.021300  0.335500  0.508500  1.0
  H  H386  1  0.978700  0.664500  0.491500  1.0
  H  H387  1  0.070100  0.283900  0.493200  1.0
  H  H388  1  0.929900  0.716100  0.506800  1.0
  H  H389  1  0.154900  0.243400  0.509700  1.0
  H  H390  1  0.845100  0.756600  0.490300  1.0
  H  H391  1  0.251800  0.241700  0.540500  1.0
  H  H392  1  0.748200  0.758300  0.459500  1.0
  H  H393  1  0.336800  0.275200  0.592100  1.0
  H  H394  1  0.663200  0.724800  0.407900  1.0
  H  H395  1  0.401400  0.275500  0.630600  1.0
  H  H396  1  0.598600  0.724500  0.369400  1.0
  H  H397  1  0.497000  0.287900  0.666000  1.0
  H  H398  1  0.503000  0.712100  0.334000  1.0
  H  H399  1  0.490900  0.404200  0.682100  1.0
  H  H400  1  0.509100  0.595800  0.317900  1.0
  H  H401  1  0.394500  0.392400  0.648200  1.0
  H  H402  1  0.605500  0.607600  0.351800  1.0
  H  H403  1  0.728500  0.537100  0.909800  1.0
  H  H404  1  0.271500  0.462900  0.090200  1.0
  H  H405  1  0.741300  0.582500  0.959800  1.0
  H  H406  1  0.258700  0.417500  0.040200  1.0
  H  H407  1  0.655700  0.589400  0.989900  1.0
  H  H408  1  0.344300  0.410600  0.010100  1.0
  H  H409  1  0.536700  0.559700  0.998900  1.0
  H  H410  1  0.463300  0.440300  0.001100  1.0
  H  H411  1  0.439600  0.521000  0.974700  1.0
  H  H412  1  0.560400  0.479000  0.025300  1.0
  H  H413  1  0.378500  0.464400  0.929000  1.0
  H  H414  1  0.621500  0.535600  0.071000  1.0
  H  H415  1  0.378200  0.433400  0.874700  1.0
  H  H416  1  0.621800  0.566600  0.125300  1.0
  H  H417  1  0.445000  0.414900  0.825900  1.0
  H  H418  1  0.555000  0.585100  0.174100  1.0
  H  H419  1  0.448800  0.389200  0.784000  1.0
  H  H420  1  0.551200  0.610800  0.216000  1.0
  H  H421  1  0.461500  0.353500  0.734200  1.0
  H  H422  1  0.538500  0.646500  0.265800  1.0
  H  H423  1  0.651600  0.400200  0.744500  1.0
  H  H424  1  0.348400  0.599800  0.255500  1.0
  H  H425  1  0.636300  0.440800  0.792400  1.0
  H  H426  1  0.363700  0.559200  0.207600  1.0
  H  H427  1  0.322800  0.368900  0.538800  1.0
  H  H428  1  0.677200  0.631100  0.461200  1.0
  H  H429  1  0.384100  0.415900  0.509100  1.0
  H  H430  1  0.615900  0.584100  0.490900  1.0
  H  H431  1  0.400500  0.482900  0.529200  1.0
  H  H432  1  0.599500  0.517100  0.470800  1.0
  H  H433  1  0.385100  0.537300  0.574400  1.0
  H  H434  1  0.614900  0.462700  0.425600  1.0
  H  H435  1  0.359500  0.554400  0.627500  1.0
  H  H436  1  0.640500  0.445600  0.372500  1.0
  H  H437  1  0.306100  0.530800  0.678200  1.0
  H  H438  1  0.693900  0.469200  0.321800  1.0
  H  H439  1  0.273800  0.478500  0.709400  1.0
  H  H440  1  0.726200  0.521500  0.290600  1.0
  H  H441  1  0.247000  0.399200  0.709900  1.0
  H  H442  1  0.753000  0.600800  0.290100  1.0
  H  H443  1  0.285700  0.352300  0.730400  1.0
  H  H444  1  0.714300  0.647700  0.269600  1.0
  H  H445  1  0.278400  0.291100  0.751900  1.0
  H  H446  1  0.721600  0.708900  0.248100  1.0
  H  H447  1  0.191800  0.231800  0.663800  1.0
  H  H448  1  0.808200  0.768200  0.336200  1.0
  H  H449  1  0.196500  0.292100  0.642200  1.0
  H  H450  1  0.803500  0.707900  0.357800  1.0
  H  H451  1  0.150500  0.330500  0.947400  1.0
  H  H452  1  0.849500  0.669500  0.052600  1.0
  H  H453  1  0.142000  0.346400  0.004600  1.0
  H  H454  1  0.858000  0.653600  0.995400  1.0
  H  H455  1  0.146400  0.297400  0.039900  1.0
  H  H456  1  0.853600  0.702600  0.960100  1.0
  H  H457  1  0.172800  0.228000  0.047100  1.0
  H  H458  1  0.827200  0.772000  0.952900  1.0
  H  H459  1  0.174200  0.165100  0.022100  1.0
  H  H460  1  0.825800  0.834900  0.977900  1.0
  H  H461  1  0.196300  0.123600  0.969300  1.0
  H  H462  1  0.803700  0.876400  0.030700  1.0
  H  H463  1  0.198000  0.115600  0.911000  1.0
  H  H464  1  0.802000  0.884400  0.089000  1.0
  H  H465  1  0.209600  0.152000  0.857500  1.0
  H  H466  1  0.790400  0.848000  0.142500  1.0
  H  H467  1  0.271600  0.177100  0.822200  1.0
  H  H468  1  0.728400  0.822900  0.177800  1.0
  H  H469  1  0.291100  0.184500  0.767000  1.0
  H  H470  1  0.708900  0.815500  0.233000  1.0
  H  H471  1  0.150600  0.246300  0.758500  1.0
  H  H472  1  0.849400  0.753700  0.241500  1.0
  H  H473  1  0.135700  0.243300  0.814800  1.0
  H  H474  1  0.864300  0.756700  0.185200  1.0
  H  H475  1  0.243700  0.936000  0.669100  1.0
  H  H476  1  0.756300  0.064000  0.330900  1.0
  H  H477  1  0.280200  0.876400  0.655500  1.0
  H  H478  1  0.719800  0.123600  0.344500  1.0
  H  H479  1  0.342200  0.869000  0.611900  1.0
  H  H480  1  0.657800  0.131000  0.388100  1.0
  H  H481  1  0.418800  0.904700  0.571800  1.0
  H  H482  1  0.581200  0.095300  0.428200  1.0
  H  H483  1  0.455500  0.962600  0.549300  1.0
  H  H484  1  0.544500  0.037400  0.450700  1.0
  H  H485  1  0.464400  0.039000  0.551800  1.0
  H  H486  1  0.535600  0.961000  0.448200  1.0
  H  H487  1  0.433400  0.095800  0.576300  1.0
  H  H488  1  0.566600  0.904200  0.423700  1.0
  H  H489  1  0.370300  0.127500  0.622000  1.0
  H  H490  1  0.629700  0.872500  0.378000  1.0
  H  H491  1  0.212800  0.091700  0.681400  1.0
  H  H492  1  0.787200  0.908300  0.318600  1.0
  H  H493  1  0.182600  0.142200  0.714200  1.0
  H  H494  1  0.817400  0.857800  0.285800  1.0
  H  H495  1  0.326600  0.221800  0.685200  1.0
  H  H496  1  0.673400  0.778200  0.314800  1.0
  H  H497  1  0.359400  0.170000  0.653400  1.0
  H  H498  1  0.640600  0.830000  0.346600  1.0
  H  H499  1  0.044500  0.165800  0.889500  1.0
  H  H500  1  0.955500  0.834200  0.110500  1.0
  H  H501  1  0.935800  0.143700  0.866100  1.0
  H  H502  1  0.064200  0.856300  0.133900  1.0
  H  H503  1  0.880900  0.190800  0.849400  1.0
  H  H504  1  0.119100  0.809200  0.150600  1.0
  H  H505  1  0.887400  0.258500  0.827500  1.0
  H  H506  1  0.112600  0.741500  0.172500  1.0
  H  H507  1  0.943200  0.322500  0.827200  1.0
  H  H508  1  0.056800  0.677500  0.172800  1.0
  H  H509  1  0.052700  0.368600  0.834600  1.0
  H  H510  1  0.947300  0.631400  0.165400  1.0
  H  H511  1  0.161000  0.381700  0.852000  1.0
  H  H512  1  0.839000  0.618300  0.148000  1.0
  H  H513  1  0.260700  0.353200  0.877800  1.0
  H  H514  1  0.739300  0.646800  0.122200  1.0
  H  H515  1  0.334900  0.360100  0.921100  1.0
  H  H516  1  0.665100  0.639900  0.078900  1.0
  H  H517  1  0.441500  0.360200  0.938600  1.0
  H  H518  1  0.558500  0.639800  0.061400  1.0
  H  H519  1  0.414900  0.243500  0.905700  1.0
  H  H520  1  0.585100  0.756500  0.094300  1.0
  H  H521  1  0.307800  0.242100  0.888900  1.0
  H  H522  1  0.692200  0.757900  0.111100  1.0
  H  H523  1  0.524700  0.533700  0.815200  1.0
  H  H524  1  0.475300  0.466300  0.184800  1.0
  H  H525  1  0.543000  0.584600  0.781000  1.0
  H  H526  1  0.457000  0.415400  0.219000  1.0
  H  H527  1  0.650600  0.614600  0.776600  1.0
  H  H528  1  0.349400  0.385400  0.223400  1.0
  H  H529  1  0.769300  0.611800  0.785400  1.0
  H  H530  1  0.230700  0.388200  0.214600  1.0
  H  H531  1  0.847500  0.582300  0.808300  1.0
  H  H532  1  0.152500  0.417700  0.191700  1.0
  H  H533  1  0.874800  0.528500  0.841700  1.0
  H  H534  1  0.125200  0.471500  0.158300  1.0
  H  H535  1  0.839800  0.474600  0.871100  1.0
  H  H536  1  0.160200  0.525400  0.128900  1.0
  H  H537  1  0.743300  0.422100  0.886400  1.0
  H  H538  1  0.256700  0.577900  0.113600  1.0
  H  H539  1  0.563800  0.379300  0.849600  1.0
  H  H540  1  0.436200  0.620700  0.150400  1.0
  H  H541  1  0.501700  0.326300  0.871100  1.0
  H  H542  1  0.498300  0.673700  0.128900  1.0
  H  H543  1  0.604900  0.358600  0.960500  1.0
  H  H544  1  0.395100  0.641400  0.039500  1.0
  H  H545  1  0.670700  0.410700  0.938700  1.0
  H  H546  1  0.329300  0.589300  0.061300  1.0
  H  H547  1  0.826300  0.130800  0.905100  1.0
  H  H548  1  0.173700  0.869200  0.094900  1.0
  H  H549  1  0.876500  0.075300  0.893800  1.0
  H  H550  1  0.123500  0.924700  0.106200  1.0
  H  H551  1  0.819300  0.010900  0.890300  1.0
  H  H552  1  0.180700  0.989100  0.109700  1.0
  H  H553  1  0.707300  0.963700  0.888000  1.0
  H  H554  1  0.292700  0.036300  0.112000  1.0
  H  H555  1  0.600800  0.957600  0.897100  1.0
  H  H556  1  0.399200  0.042400  0.102900  1.0
  H  H557  1  0.506400  0.991500  0.910500  1.0
  H  H558  1  0.493600  0.008500  0.089500  1.0
  H  H559  1  0.466400  0.050000  0.914400  1.0
  H  H560  1  0.533600  0.950000  0.085600  1.0
  H  H561  1  0.492400  0.128400  0.920900  1.0
  H  H562  1  0.507600  0.871600  0.079100  1.0
  H  H563  1  0.501900  0.183700  0.959100  1.0
  H  H564  1  0.498100  0.816300  0.040900  1.0
  H  H565  1  0.474400  0.245400  0.963500  1.0
  H  H566  1  0.525600  0.754600  0.036500  1.0
  H  H567  1  0.599800  0.283400  0.898400  1.0
  H  H568  1  0.400200  0.716600  0.101600  1.0
  H  H569  1  0.629100  0.221300  0.894800  1.0
  H  H570  1  0.370900  0.778700  0.105200  1.0
  H  H571  1  0.635800  0.113300  0.985100  1.0
  H  H572  1  0.364200  0.886700  0.014900  1.0
  H  H573  1  0.670100  0.133500  0.043600  1.0
  H  H574  1  0.329900  0.866500  0.956400  1.0
  H  H575  1  0.752900  0.186400  0.057900  1.0
  H  H576  1  0.247100  0.813600  0.942100  1.0
  H  H577  1  0.838500  0.244200  0.042100  1.0
  H  H578  1  0.161500  0.755800  0.957900  1.0
  H  H579  1  0.880700  0.280100  0.001900  1.0
  H  H580  1  0.119300  0.719900  0.998100  1.0
  H  H581  1  0.874400  0.289000  0.939700  1.0
  H  H582  1  0.125600  0.711000  0.060300  1.0
  H  H583  1  0.826500  0.268300  0.885300  1.0
  H  H584  1  0.173500  0.731700  0.114700  1.0
  H  H585  1  0.748000  0.210400  0.844900  1.0
  H  H586  1  0.252000  0.789600  0.155100  1.0
  H  H587  1  0.678800  0.209800  0.811500  1.0
  H  H588  1  0.321200  0.790200  0.188500  1.0
  H  H589  1  0.621500  0.187600  0.758800  1.0
  H  H590  1  0.378500  0.812400  0.241200  1.0
  H  H591  1  0.571800  0.076800  0.783600  1.0
  H  H592  1  0.428200  0.923200  0.216400  1.0
  H  H593  1  0.621200  0.098700  0.837500  1.0
  H  H594  1  0.378800  0.901300  0.162500  1.0
  H  H595  1  0.898400  0.272900  0.612700  1.0
  H  H596  1  0.101600  0.727100  0.387300  1.0
  H  H597  1  0.959000  0.312700  0.578600  1.0
  H  H598  1  0.041000  0.687300  0.421400  1.0
  H  H599  1  0.904000  0.333900  0.534500  1.0
  H  H600  1  0.096000  0.666100  0.465500  1.0
  H  H601  1  0.796600  0.334700  0.501400  1.0
  H  H602  1  0.203400  0.665300  0.498600  1.0
  H  H603  1  0.690200  0.305800  0.488700  1.0
  H  H604  1  0.309800  0.694200  0.511300  1.0
  H  H605  1  0.589000  0.266600  0.508700  1.0
  H  H606  1  0.411000  0.733400  0.491300  1.0
  H  H607  1  0.539900  0.229100  0.548500  1.0
  H  H608  1  0.460100  0.770900  0.451500  1.0
  H  H609  1  0.556800  0.192700  0.600600  1.0
  H  H610  1  0.443200  0.807300  0.399400  1.0
  H  H611  1  0.524000  0.169800  0.638800  1.0
  H  H612  1  0.476000  0.830200  0.361200  1.0
  H  H613  1  0.494300  0.141200  0.686100  1.0
  H  H614  1  0.505700  0.858800  0.313900  1.0
  H  H615  1  0.679000  0.148900  0.719200  1.0
  H  H616  1  0.321000  0.851100  0.280800  1.0
  H  H617  1  0.708800  0.184800  0.675200  1.0
  H  H618  1  0.291200  0.815200  0.324800  1.0
  H  H619  1  0.235100  0.023500  0.565600  1.0
  H  H620  1  0.764900  0.976500  0.434400  1.0
  H  H621  1  0.136600  0.011300  0.530300  1.0
  H  H622  1  0.863400  0.988700  0.469700  1.0
  H  H623  1  0.039300  0.003200  0.552800  1.0
  H  H624  1  0.960700  0.996800  0.447200  1.0
  H  H625  1  0.977000  0.980200  0.603100  1.0
  H  H626  1  0.023000  0.019800  0.396900  1.0
  H  H627  1  0.980400  0.973600  0.659400  1.0
  H  H628  1  0.019600  0.026400  0.340600  1.0
  H  H629  1  0.047300  0.988400  0.717300  1.0
  H  H630  1  0.952700  0.011600  0.282700  1.0
  H  H631  1  0.150200  0.005400  0.746100  1.0
  H  H632  1  0.849800  0.994600  0.253900  1.0
  H  H633  1  0.274000  0.034200  0.744000  1.0
  H  H634  1  0.726000  0.965800  0.256000  1.0
  H  H635  1  0.413900  0.016600  0.680800  1.0
  H  H636  1  0.586100  0.983400  0.319200  1.0
  H  H637  1  0.519200  0.049700  0.694500  1.0
  H  H638  1  0.480800  0.950300  0.305500  1.0
  H  H639  1  0.462500  0.131300  0.758200  1.0
  H  H640  1  0.537500  0.868700  0.241800  1.0
  H  H641  1  0.354900  0.099200  0.742900  1.0
  H  H642  1  0.645100  0.900800  0.257100  1.0
  H  H643  1  0.277900  0.530100  0.001400  1.0
  H  H644  1  0.722100  0.469900  0.998600  1.0
  H  H645  1  0.277900  0.522000  0.961600  1.0
  H  H646  1  0.722100  0.478000  0.038400  1.0
  H  H647  1  0.226400  0.544900  0.977400  1.0
  H  H648  1  0.773600  0.455100  0.022600  1.0
  H  H649  1  0.045900  0.827500  0.541000  1.0
  H  H650  1  0.954100  0.172500  0.459000  1.0
  H  H651  1  0.027300  0.805800  0.573100  1.0
  H  H652  1  0.972700  0.194200  0.426900  1.0
  H  H653  1  0.023900  0.851800  0.572600  1.0
  H  H654  1  0.976100  0.148200  0.427400  1.0
  H  H655  1  0.418000  0.797600  0.935900  1.0
  H  H656  1  0.582000  0.202400  0.064100  1.0
  H  H657  1  0.472600  0.818100  0.965400  1.0
  H  H658  1  0.527400  0.181900  0.034600  1.0
  H  H659  1  0.491000  0.793200  0.933100  1.0
  H  H660  1  0.509000  0.206800  0.066900  1.0
  H  H661  1  0.541900  0.346200  0.561500  1.0
  H  H662  1  0.458100  0.653800  0.438500  1.0
  H  H663  1  0.498800  0.376300  0.575500  1.0
  H  H664  1  0.501200  0.623700  0.424500  1.0
  H  H665  1  0.498900  0.335700  0.591500  1.0
  H  H666  1  0.501100  0.664300  0.408500  1.0
  H  H667  1  0.748800  0.039300  0.968900  1.0
  H  H668  1  0.251200  0.960700  0.031100  1.0
  H  H669  1  0.742300  0.051900  0.007600  1.0
  H  H670  1  0.257700  0.948100  0.992400  1.0
  H  H671  1  0.802400  0.033600  0.997000  1.0
  H  H672  1  0.197600  0.966400  0.003000  1.0
  H  H673  1  0.534000  0.957400  0.962600  1.0
  H  H674  1  0.466000  0.042600  0.037400  1.0
  H  H675  1  0.599300  0.945800  0.976600  1.0
  H  H676  1  0.400700  0.054200  0.023400  1.0
  H  H677  1  0.569900  0.978500  0.998100  1.0
  H  H678  1  0.430100  0.021500  0.001900  1.0
  H  H679  1  0.362700  0.697500  0.757300  0.5
  H  H680  1  0.637300  0.302500  0.242700  0.5
  H  H681  1  0.322900  0.689600  0.788900  0.5
  H  H682  1  0.677100  0.310400  0.211100  0.5
  H  H683  1  0.373800  0.730600  0.789400  0.5
  H  H684  1  0.626200  0.269400  0.210600  0.5
  H  H685  1  0.005500  0.700800  0.843300  0.5
  H  H686  1  0.994500  0.299200  0.156700  0.5
  H  H687  1  0.003000  0.654000  0.835500  0.5
  H  H688  1  0.997000  0.346000  0.164500  0.5
  H  H689  1  0.958900  0.670000  0.862000  0.5
  H  H690  1  0.041100  0.330000  0.138000  0.5
  H  H691  1  0.554500  0.720000  0.585400  0.5
  H  H692  1  0.445500  0.280000  0.414600  0.5
  H  H693  1  0.568200  0.708400  0.547500  0.5
  H  H694  1  0.431800  0.291600  0.452500  0.5
  H  H695  1  0.537900  0.674300  0.569100  0.5
  H  H696  1  0.462100  0.325700  0.430900  0.5
  H  H697  1  0.962800  0.253800  0.972700  0.5
  H  H698  1  0.037200  0.746200  0.027300  0.5
  H  H699  1  0.983500  0.235400  0.938100  0.5
  H  H700  1  0.016500  0.764600  0.061900  0.5
  H  H701  1  0.036900  0.253400  0.968800  0.5
  H  H702  1  0.963100  0.746600  0.031200  0.5
  H  H703  1  0.588400  0.850800  0.725700  0.5
  H  H704  1  0.411600  0.149200  0.274300  0.5
  H  H705  1  0.617600  0.861800  0.764000  0.5
  H  H706  1  0.382400  0.138200  0.236000  0.5
  H  H707  1  0.647500  0.832500  0.739200  0.5
  H  H708  1  0.352500  0.167500  0.260800  0.5
  H  H709  1  0.745100  0.369300  0.837900  0.5
  H  H710  1  0.254900  0.630700  0.162100  0.5
  H  H711  1  0.694000  0.339600  0.811100  0.5
  H  H712  1  0.306000  0.660400  0.188900  0.5
  H  H713  1  0.767100  0.334200  0.815400  0.5
  H  H714  1  0.232900  0.665800  0.184600  0.5
  H  H715  1  0.867700  0.122700  0.731000  0.5
  H  H716  1  0.132300  0.877300  0.269000  0.5
  H  H717  1  0.800800  0.133900  0.739800  0.5
  H  H718  1  0.199200  0.866100  0.260200  0.5
  H  H719  1  0.856100  0.166800  0.728200  0.5
  H  H720  1  0.143900  0.833200  0.271800  0.5
  H  H721  1  0.992600  0.759800  0.758400  0.5
  H  H722  1  0.007400  0.240200  0.241600  0.5
  H  H723  1  0.003800  0.751800  0.796500  0.5
  H  H724  1  0.996200  0.248200  0.203500  0.5
  H  H725  1  0.029900  0.795200  0.786000  0.5
  H  H726  1  0.970100  0.204800  0.214000  0.5
  H  H727  1  0.122100  0.452600  0.713100  0.5
  H  H728  1  0.877900  0.547400  0.286900  0.5
  H  H729  1  0.107800  0.405000  0.711500  0.5
  H  H730  1  0.892200  0.595000  0.288500  0.5
  H  H731  1  0.180400  0.429800  0.717700  0.5
  H  H732  1  0.819600  0.570200  0.282300  0.5
  H  H733  1  0.845000  0.545100  0.493000  0.5
  H  H734  1  0.155000  0.454900  0.507000  0.5
  H  H735  1  0.779700  0.541700  0.470200  0.5
  H  H736  1  0.220300  0.458300  0.529800  0.5
  H  H737  1  0.801000  0.481500  0.474900  0.5
  H  H738  1  0.199000  0.518500  0.525100  0.5
  H  H739  1  0.802400  0.488800  0.514800  0.5
  H  H740  1  0.197600  0.511200  0.485200  0.5
  H  H741  1  0.736500  0.485300  0.491700  0.5
  H  H742  1  0.263500  0.514700  0.508300  0.5
  H  H743  1  0.805300  0.607400  0.488200  0.5
  H  H744  1  0.194700  0.392600  0.511800  0.5
  H  H745  1  0.857500  0.605300  0.519100  0.5
  H  H746  1  0.142500  0.394700  0.480900  0.5
  H  H747  1  0.791000  0.649300  0.535700  0.5
  H  H748  1  0.209000  0.350700  0.464300  0.5
  H  H749  1  0.729600  0.613700  0.525800  0.5
  H  H750  1  0.270400  0.386300  0.474200  0.5
  H  H751  1  0.781100  0.611600  0.556200  0.5
  H  H752  1  0.218900  0.388400  0.443800  0.5
  H  H753  1  0.398900  0.258500  0.774800  0.5
  H  H754  1  0.601100  0.741500  0.225200  0.5
  H  H755  1  0.421400  0.306300  0.777100  0.5
  H  H756  1  0.578600  0.693700  0.222900  0.5
  H  H757  1  0.336300  0.289900  0.808700  0.5
  H  H758  1  0.663700  0.710100  0.191300  0.5
  H  H759  1  0.377300  0.265100  0.829900  0.5
  H  H760  1  0.622700  0.734900  0.170100  0.5
  H  H761  1  0.399600  0.312500  0.832200  0.5
  H  H762  1  0.600400  0.687500  0.167800  0.5
  H  H763  1  0.514400  0.295100  0.765500  0.5
  H  H764  1  0.485600  0.704900  0.234500  0.5
  H  H765  1  0.497700  0.248200  0.768200  0.5
  H  H766  1  0.502300  0.751800  0.231800  0.5
  H  H767  1  0.606300  0.272500  0.778700  0.5
  H  H768  1  0.393700  0.727500  0.221300  0.5
  H  H769  1  0.594300  0.303600  0.808800  0.5
  H  H770  1  0.405700  0.696400  0.191200  0.5
  H  H771  1  0.577700  0.256700  0.811500  0.5
  H  H772  1  0.422300  0.743300  0.188500  0.5
  C  C773  1  0.385700  0.781500  0.596400  1.0
  C  C774  1  0.614300  0.218500  0.403600  1.0
  C  C775  1  0.420500  0.806300  0.575100  1.0
  C  C776  1  0.579500  0.193700  0.424900  1.0
  C  C777  1  0.387200  0.813700  0.546900  1.0
  C  C778  1  0.612800  0.186300  0.453100  1.0
  C  C779  1  0.321500  0.798600  0.538900  1.0
  C  C780  1  0.678500  0.201400  0.461100  1.0
  C  C781  1  0.283700  0.804900  0.510300  1.0
  C  C782  1  0.716300  0.195100  0.489700  1.0
  C  C783  1  0.220100  0.788900  0.504000  1.0
  C  C784  1  0.779900  0.211100  0.496000  1.0
  C  C785  1  0.189400  0.765100  0.527400  1.0
  C  C786  1  0.810600  0.234900  0.472600  1.0
  C  C787  1  0.123100  0.748400  0.523100  1.0
  C  C788  1  0.876900  0.251600  0.476900  1.0
  C  C789  1  0.096300  0.725100  0.545800  1.0
  C  C790  1  0.903700  0.274900  0.454200  1.0
  C  C791  1  0.136800  0.719500  0.574300  1.0
  C  C792  1  0.863200  0.280500  0.425700  1.0
  C  C793  1  0.225200  0.758300  0.555900  1.0
  C  C794  1  0.774800  0.241700  0.444100  1.0
  C  C795  1  0.291700  0.775400  0.562600  1.0
  C  C796  1  0.708300  0.224600  0.437400  1.0
  C  C797  1  0.112400  0.696400  0.601100  1.0
  C  C798  1  0.887600  0.303600  0.398900  1.0
  C  C799  1  0.132100  0.678100  0.654500  1.0
  C  C800  1  0.867900  0.321900  0.345500  1.0
  C  C801  1  0.069100  0.675700  0.662500  1.0
  C  C802  1  0.930900  0.324300  0.337500  1.0
  C  C803  1  0.051400  0.657700  0.690600  1.0
  C  C804  1  0.948600  0.342300  0.309400  1.0
  C  C805  1  0.093200  0.641300  0.709600  1.0
  C  C806  1  0.906800  0.358700  0.290400  1.0
  C  C807  1  0.156400  0.645400  0.702100  1.0
  C  C808  1  0.843600  0.354600  0.297900  1.0
  C  C809  1  0.176200  0.664600  0.674900  1.0
  C  C810  1  0.823800  0.335400  0.325100  1.0
  C  C811  1  0.135400  0.599200  0.988700  1.0
  C  C812  1  0.864600  0.400800  0.011300  1.0
  C  C813  1  0.144400  0.602500  0.023600  1.0
  C  C814  1  0.855600  0.397500  0.976400  1.0
  C  C815  1  0.194200  0.631800  0.039100  1.0
  C  C816  1  0.805800  0.368200  0.960900  1.0
  C  C817  1  0.231700  0.657900  0.020500  1.0
  C  C818  1  0.768300  0.342100  0.979500  1.0
  C  C819  1  0.285200  0.687800  0.034300  1.0
  C  C820  1  0.714800  0.312200  0.965700  1.0
  C  C821  1  0.317000  0.713600  0.015100  1.0
  C  C822  1  0.683000  0.286400  0.984900  1.0
  C  C823  1  0.302400  0.706200  0.979600  1.0
  C  C824  1  0.697600  0.293800  0.020400  1.0
  C  C825  1  0.333300  0.731500  0.957900  1.0
  C  C826  1  0.666700  0.268500  0.042100  1.0
  C  C827  1  0.315900  0.725100  0.923900  1.0
  C  C828  1  0.684100  0.274900  0.076100  1.0
  C  C829  1  0.261500  0.694400  0.911700  1.0
  C  C830  1  0.738500  0.305600  0.088300  1.0
  C  C831  1  0.249800  0.677400  0.965200  1.0
  C  C832  1  0.750200  0.322600  0.034800  1.0
  C  C833  1  0.216200  0.651400  0.985700  1.0
  C  C834  1  0.783800  0.348600  0.014300  1.0
  C  C835  1  0.237500  0.685200  0.875700  1.0
  C  C836  1  0.762500  0.314800  0.124300  1.0
  C  C837  1  0.158600  0.648700  0.835300  1.0
  C  C838  1  0.841400  0.351300  0.164700  1.0
  C  C839  1  0.169400  0.675900  0.812500  1.0
  C  C840  1  0.830600  0.324100  0.187500  1.0
  C  C841  1  0.140900  0.665600  0.779700  1.0
  C  C842  1  0.859100  0.334400  0.220300  1.0
  C  C843  1  0.100700  0.628900  0.768300  1.0
  C  C844  1  0.899300  0.371100  0.231700  1.0
  C  C845  1  0.090700  0.602700  0.791500  1.0
  C  C846  1  0.909300  0.397300  0.208500  1.0
  C  C847  1  0.120400  0.611800  0.823900  1.0
  C  C848  1  0.879600  0.388200  0.176100  1.0
  C  C849  1  0.695000  0.522100  0.574300  1.0
  C  C850  1  0.305000  0.477900  0.425700  1.0
  C  C851  1  0.636800  0.511000  0.553000  1.0
  C  C852  1  0.363200  0.489000  0.447000  1.0
  C  C853  1  0.579400  0.496700  0.564900  1.0
  C  C854  1  0.420600  0.503300  0.435100  1.0
  C  C855  1  0.576900  0.492700  0.598800  1.0
  C  C856  1  0.423100  0.507300  0.401200  1.0
  C  C857  1  0.520900  0.479000  0.614500  1.0
  C  C858  1  0.479100  0.521000  0.385500  1.0
  C  C859  1  0.525200  0.478200  0.648400  1.0
  C  C860  1  0.474800  0.521800  0.351600  1.0
  C  C861  1  0.585600  0.489900  0.669500  1.0
  C  C862  1  0.414400  0.510100  0.330500  1.0
  C  C863  1  0.592500  0.488300  0.704300  1.0
  C  C864  1  0.407500  0.511700  0.295700  1.0
  C  C865  1  0.652500  0.499800  0.721200  1.0
  C  C866  1  0.347500  0.500200  0.278800  1.0
  C  C867  1  0.706600  0.512100  0.703600  1.0
  C  C868  1  0.293400  0.487900  0.296400  1.0
  C  C869  1  0.640000  0.501900  0.653100  1.0
  C  C870  1  0.360000  0.498100  0.346900  1.0
  C  C871  1  0.636500  0.505300  0.618200  1.0
  C  C872  1  0.363500  0.494700  0.381800  1.0
  C  C873  1  0.772200  0.527300  0.719000  1.0
  C  C874  1  0.227800  0.472700  0.281000  1.0
  C  C875  1  0.879800  0.554100  0.711400  1.0
  C  C876  1  0.120200  0.445900  0.288600  1.0
  C  C877  1  0.895700  0.581600  0.739600  1.0
  C  C878  1  0.104300  0.418400  0.260400  1.0
  C  C879  1  0.958000  0.602000  0.748600  1.0
  C  C880  1  0.042000  0.398000  0.251400  1.0
  C  C881  1  0.007000  0.595200  0.729300  1.0
  C  C882  1  0.993000  0.404800  0.270700  1.0
  C  C883  1  0.992000  0.567700  0.701000  1.0
  C  C884  1  0.008000  0.432300  0.299000  1.0
  C  C885  1  0.928600  0.547900  0.691600  1.0
  C  C886  1  0.071400  0.452100  0.308400  1.0
  C  C887  1  0.644400  0.912400  0.598600  1.0
  C  C888  1  0.355600  0.087600  0.401400  1.0
  C  C889  1  0.588300  0.918000  0.579500  1.0
  C  C890  1  0.411700  0.082000  0.420500  1.0
  C  C891  1  0.563600  0.889600  0.553300  1.0
  C  C892  1  0.436400  0.110400  0.446700  1.0
  C  C893  1  0.586400  0.855200  0.545300  1.0
  C  C894  1  0.413600  0.144800  0.454700  1.0
  C  C895  1  0.562600  0.824400  0.518800  1.0
  C  C896  1  0.437400  0.175600  0.481200  1.0
  C  C897  1  0.591400  0.793600  0.510900  1.0
  C  C898  1  0.408600  0.206400  0.489100  1.0
  C  C899  1  0.648800  0.791500  0.530400  1.0
  C  C900  1  0.351200  0.208500  0.469600  1.0
  C  C901  1  0.679300  0.758700  0.526400  1.0
  C  C902  1  0.320700  0.241300  0.473600  1.0
  C  C903  1  0.734000  0.757400  0.546100  1.0
  C  C904  1  0.266000  0.242600  0.453900  1.0
  C  C905  1  0.759200  0.790900  0.571000  1.0
  C  C906  1  0.240800  0.209100  0.429000  1.0
  C  C907  1  0.674700  0.821800  0.556700  1.0
  C  C908  1  0.325300  0.178200  0.443300  1.0
  C  C909  1  0.645300  0.854600  0.564500  1.0
  C  C910  1  0.354700  0.145400  0.435500  1.0
  C  C911  1  0.821100  0.795900  0.591400  1.0
  C  C912  1  0.178900  0.204100  0.408600  1.0
  C  C913  1  0.897000  0.833900  0.633100  1.0
  C  C914  1  0.103000  0.166100  0.366900  1.0
  C  C915  1  0.931000  0.803600  0.636800  1.0
  C  C916  1  0.069000  0.196400  0.363200  1.0
  C  C917  1  0.989100  0.811900  0.656700  1.0
  C  C918  1  0.010900  0.188100  0.343300  1.0
  C  C919  1  0.015200  0.849300  0.672300  1.0
  C  C920  1  0.984800  0.150700  0.327700  1.0
  C  C921  1  0.979800  0.878700  0.669600  1.0
  C  C922  1  0.020200  0.121300  0.330400  1.0
  C  C923  1  0.922700  0.872000  0.649500  1.0
  C  C924  1  0.077300  0.128000  0.350500  1.0
  C  C925  1  0.276200  0.027900  0.917500  1.0
  C  C926  1  0.723800  0.972100  0.082500  1.0
  C  C927  1  0.295300  0.046400  0.949900  1.0
  C  C928  1  0.704700  0.953600  0.050100  1.0
  C  C929  1  0.246600  0.052500  0.969500  1.0
  C  C930  1  0.753400  0.947500  0.030500  1.0
  C  C931  1  0.183900  0.030900  0.960700  1.0
  C  C932  1  0.816100  0.969100  0.039300  1.0
  C  C933  1  0.132400  0.029200  0.980600  1.0
  C  C934  1  0.867600  0.970800  0.019400  1.0
  C  C935  1  0.071200  0.012700  0.968400  1.0
  C  C936  1  0.928800  0.987300  0.031600  1.0
  C  C937  1  0.060300  0.988400  0.936500  1.0
  C  C938  1  0.939700  0.011600  0.063500  1.0
  C  C939  1  0.997500  0.971800  0.921600  1.0
  C  C940  1  0.002500  0.028200  0.078400  1.0
  C  C941  1  0.986700  0.954600  0.888600  1.0
  C  C942  1  0.013300  0.045400  0.111400  1.0
  C  C943  1  0.041000  0.957000  0.870300  1.0
  C  C944  1  0.959000  0.043000  0.129700  1.0
  C  C945  1  0.107700  0.994800  0.914500  1.0
  C  C946  1  0.892300  0.005200  0.085500  1.0
  C  C947  1  0.170400  0.015000  0.926900  1.0
  C  C948  1  0.829600  0.985000  0.073100  1.0
  C  C949  1  0.034300  0.941200  0.834300  1.0
  C  C950  1  0.965700  0.058800  0.165700  1.0
  C  C951  1  0.083600  0.923100  0.788100  1.0
  C  C952  1  0.916400  0.076900  0.211900  1.0
  C  C953  1  0.137100  0.926100  0.771000  1.0
  C  C954  1  0.862900  0.073900  0.229000  1.0
  C  C955  1  0.133100  0.903200  0.740300  1.0
  C  C956  1  0.866900  0.096800  0.259700  1.0
  C  C957  1  0.076000  0.878400  0.726000  1.0
  C  C958  1  0.924000  0.121600  0.274000  1.0
  C  C959  1  0.024500  0.874000  0.744600  1.0
  C  C960  1  0.975500  0.126000  0.255400  1.0
  C  C961  1  0.026800  0.897100  0.775000  1.0
  C  C962  1  0.973200  0.102900  0.225000  1.0
  C  C963  1  0.247500  0.644600  0.567600  1.0
  C  C964  1  0.752500  0.355400  0.432400  1.0
  C  C965  1  0.279500  0.616400  0.551400  1.0
  C  C966  1  0.720500  0.383600  0.448600  1.0
  C  C967  1  0.339800  0.613200  0.563600  1.0
  C  C968  1  0.660200  0.386800  0.436400  1.0
  C  C969  1  0.371700  0.636400  0.592300  1.0
  C  C970  1  0.628300  0.363600  0.407700  1.0
  C  C971  1  0.430500  0.633800  0.609300  1.0
  C  C972  1  0.569500  0.366200  0.390700  1.0
  C  C973  1  0.455600  0.658100  0.638100  1.0
  C  C974  1  0.544400  0.341900  0.361900  1.0
  C  C975  1  0.424100  0.689000  0.651900  1.0
  C  C976  1  0.575900  0.311000  0.348100  1.0
  C  C977  1  0.447200  0.715600  0.681100  1.0
  C  C978  1  0.552800  0.284400  0.318900  1.0
  C  C979  1  0.411800  0.742300  0.692900  1.0
  C  C980  1  0.588200  0.257700  0.307100  1.0
  C  C981  1  0.351200  0.741600  0.675500  1.0
  C  C982  1  0.648800  0.258400  0.324500  1.0
  C  C983  1  0.364100  0.689000  0.636100  1.0
  C  C984  1  0.635900  0.311000  0.363900  1.0
  C  C985  1  0.336800  0.664000  0.606000  1.0
  C  C986  1  0.663200  0.336000  0.394000  1.0
  C  C987  1  0.308800  0.768500  0.685000  1.0
  C  C988  1  0.691200  0.231500  0.315000  1.0
  C  C989  1  0.214400  0.791300  0.671600  1.0
  C  C990  1  0.785600  0.208700  0.328400  1.0
  C  C991  1  0.184100  0.807900  0.646900  1.0
  C  C992  1  0.815900  0.192100  0.353100  1.0
  C  C993  1  0.138600  0.829400  0.655000  1.0
  C  C994  1  0.861400  0.170600  0.345000  1.0
  C  C995  1  0.122400  0.836200  0.687500  1.0
  C  C996  1  0.877600  0.163800  0.312500  1.0
  C  C997  1  0.150700  0.818500  0.712200  1.0
  C  C998  1  0.849300  0.181500  0.287800  1.0
  C  C999  1  0.197000  0.796600  0.704000  1.0
  C  C1000  1  0.803000  0.203400  0.296000  1.0
  C  C1001  1  0.650700  0.844000  0.942600  1.0
  C  C1002  1  0.349300  0.156000  0.057400  1.0
  C  C1003  1  0.642900  0.858900  0.976100  1.0
  C  C1004  1  0.357100  0.141100  0.023900  1.0
  C  C1005  1  0.643800  0.834100  0.999700  1.0
  C  C1006  1  0.356200  0.165900  0.000300  1.0
  C  C1007  1  0.656200  0.796300  0.994000  1.0
  C  C1008  1  0.343800  0.203700  0.006000  1.0
  C  C1009  1  0.659900  0.768900  0.017300  1.0
  C  C1010  1  0.340100  0.231100  0.982700  1.0
  C  C1011  1  0.668700  0.731300  0.009400  1.0
  C  C1012  1  0.331300  0.268700  0.990600  1.0
  C  C1013  1  0.674000  0.718300  0.975100  1.0
  C  C1014  1  0.326000  0.281700  0.024900  1.0
  C  C1015  1  0.684700  0.680200  0.964500  1.0
  C  C1016  1  0.315300  0.319800  0.035500  1.0
  C  C1017  1  0.689300  0.668200  0.931400  1.0
  C  C1018  1  0.310700  0.331800  0.068600  1.0
  C  C1019  1  0.685900  0.697200  0.908700  1.0
  C  C1020  1  0.314100  0.302800  0.091300  1.0
  C  C1021  1  0.669700  0.744300  0.950800  1.0
  C  C1022  1  0.330300  0.255700  0.049200  1.0
  C  C1023  1  0.661200  0.783600  0.959600  1.0
  C  C1024  1  0.338800  0.216400  0.040400  1.0
  C  C1025  1  0.693200  0.689500  0.872500  1.0
  C  C1026  1  0.306800  0.310500  0.127500  1.0
  C  C1027  1  0.696000  0.715600  0.820900  1.0
  C  C1028  1  0.304000  0.284400  0.179100  1.0
  C  C1029  1  0.741400  0.695900  0.807600  1.0
  C  C1030  1  0.258600  0.304100  0.192400  1.0
  C  C1031  1  0.751300  0.697000  0.774000  1.0
  C  C1032  1  0.248700  0.303000  0.226000  1.0
  C  C1033  1  0.717200  0.716700  0.753500  1.0
  C  C1034  1  0.282800  0.283300  0.246500  1.0
  C  C1035  1  0.672000  0.735900  0.767400  1.0
  C  C1036  1  0.328000  0.264100  0.232600  1.0
  C  C1037  1  0.662200  0.736000  0.800500  1.0
  C  C1038  1  0.337800  0.264000  0.199500  1.0
  C  C1039  1  0.779100  0.435500  0.651400  1.0
  C  C1040  1  0.220900  0.564500  0.348600  1.0
  C  C1041  1  0.793400  0.398100  0.642000  1.0
  C  C1042  1  0.206600  0.601900  0.358000  1.0
  C  C1043  1  0.831000  0.395600  0.615900  1.0
  C  C1044  1  0.169000  0.604400  0.384100  1.0
  C  C1045  1  0.855500  0.428000  0.599400  1.0
  C  C1046  1  0.144500  0.572000  0.400600  1.0
  C  C1047  1  0.896300  0.429200  0.573900  1.0
  C  C1048  1  0.103700  0.570800  0.426100  1.0
  C  C1049  1  0.919600  0.462900  0.560600  1.0
  C  C1050  1  0.080400  0.537100  0.439400  1.0
  C  C1051  1  0.903300  0.499300  0.573400  1.0
  C  C1052  1  0.096700  0.500700  0.426600  1.0
  C  C1053  1  0.929600  0.537000  0.564100  1.0
  C  C1054  1  0.070400  0.463000  0.435900  1.0
  C  C1055  1  0.912500  0.571200  0.578100  1.0
  C  C1056  1  0.087500  0.428800  0.421900  1.0
  C  C1057  1  0.871200  0.568000  0.603700  1.0
  C  C1058  1  0.128800  0.432000  0.396300  1.0
  C  C1059  1  0.864000  0.499300  0.599300  1.0
  C  C1060  1  0.136000  0.500700  0.400700  1.0
  C  C1061  1  0.837300  0.463600  0.611500  1.0
  C  C1062  1  0.162700  0.536400  0.388500  1.0
  C  C1063  1  0.853900  0.602600  0.623000  1.0
  C  C1064  1  0.146100  0.397400  0.377000  1.0
  C  C1065  1  0.789900  0.626700  0.661500  1.0
  C  C1066  1  0.210100  0.373300  0.338500  1.0
  C  C1067  1  0.738100  0.618200  0.679800  1.0
  C  C1068  1  0.261900  0.381800  0.320200  1.0
  C  C1069  1  0.719800  0.648400  0.699600  1.0
  C  C1070  1  0.280200  0.351600  0.300400  1.0
  C  C1071  1  0.752300  0.687800  0.701800  1.0
  C  C1072  1  0.247700  0.312200  0.298200  1.0
  C  C1073  1  0.802300  0.695600  0.682400  1.0
  C  C1074  1  0.197700  0.304400  0.317600  1.0
  C  C1075  1  0.823200  0.665500  0.663500  1.0
  C  C1076  1  0.176800  0.334500  0.336500  1.0
  C  C1077  1  0.843800  0.894900  0.545600  1.0
  C  C1078  1  0.156200  0.105100  0.454400  1.0
  C  C1079  1  0.874200  0.924500  0.526700  1.0
  C  C1080  1  0.125800  0.075500  0.473300  1.0
  C  C1081  1  0.880200  0.964100  0.536900  1.0
  C  C1082  1  0.119800  0.035900  0.463100  1.0
  C  C1083  1  0.858700  0.976900  0.567000  1.0
  C  C1084  1  0.141300  0.023100  0.433000  1.0
  C  C1085  1  0.862600  0.016900  0.580600  1.0
  C  C1086  1  0.137400  0.983100  0.419400  1.0
  C  C1087  1  0.838800  0.025800  0.610300  1.0
  C  C1088  1  0.161200  0.974200  0.389700  1.0
  C  C1089  1  0.816100  0.994800  0.630900  1.0
  C  C1090  1  0.183900  0.005200  0.369100  1.0
  C  C1091  1  0.791800  0.001700  0.662100  1.0
  C  C1092  1  0.208200  0.998300  0.337900  1.0
  C  C1093  1  0.771300  0.970300  0.679300  1.0
  C  C1094  1  0.228700  0.029700  0.320700  1.0
  C  C1095  1  0.769600  0.931000  0.664200  1.0
  C  C1096  1  0.230400  0.069000  0.335800  1.0
  C  C1097  1  0.813000  0.955700  0.617100  1.0
  C  C1098  1  0.187000  0.044300  0.382900  1.0
  C  C1099  1  0.833000  0.945900  0.585100  1.0
  C  C1100  1  0.167000  0.054100  0.414900  1.0
  C  C1101  1  0.751600  0.895400  0.680300  1.0
  C  C1102  1  0.248400  0.104600  0.319700  1.0
  C  C1103  1  0.740900  0.826300  0.678700  1.0
  C  C1104  1  0.259100  0.173700  0.321300  1.0
  C  C1105  1  0.766300  0.826300  0.710900  1.0
  C  C1106  1  0.233700  0.173700  0.289100  1.0
  C  C1107  1  0.763400  0.791200  0.724800  1.0
  C  C1108  1  0.236600  0.208800  0.275200  1.0
  C  C1109  1  0.733500  0.755300  0.706100  1.0
  C  C1110  1  0.266500  0.244700  0.293900  1.0
  C  C1111  1  0.709400  0.754900  0.673100  1.0
  C  C1112  1  0.290600  0.245100  0.326900  1.0
  C  C1113  1  0.712600  0.790400  0.659600  1.0
  C  C1114  1  0.287400  0.209600  0.340400  1.0
  C  C1115  1  0.276400  0.581400  0.896600  1.0
  C  C1116  1  0.723600  0.418600  0.103400  1.0
  C  C1117  1  0.301800  0.546000  0.889900  1.0
  C  C1118  1  0.698200  0.454000  0.110100  1.0
  C  C1119  1  0.261300  0.509900  0.885900  1.0
  C  C1120  1  0.738700  0.490100  0.114100  1.0
  C  C1121  1  0.197100  0.505000  0.890900  1.0
  C  C1122  1  0.802900  0.495000  0.109100  1.0
  C  C1123  1  0.152100  0.469200  0.889800  1.0
  C  C1124  1  0.847900  0.530800  0.110200  1.0
  C  C1125  1  0.089600  0.467200  0.894100  1.0
  C  C1126  1  0.910400  0.532800  0.105900  1.0
  C  C1127  1  0.066300  0.503100  0.900000  1.0
  C  C1128  1  0.933700  0.496900  0.100000  1.0
  C  C1129  1  0.002200  0.504000  0.904900  1.0
  C  C1130  1  0.997800  0.496000  0.095100  1.0
  C  C1131  1  0.982200  0.539700  0.910500  1.0
  C  C1132  1  0.017800  0.460300  0.089500  1.0
  C  C1133  1  0.030500  0.575600  0.912000  1.0
  C  C1134  1  0.969500  0.424400  0.088000  1.0
  C  C1135  1  0.110300  0.539600  0.901600  1.0
  C  C1136  1  0.889700  0.460400  0.098400  1.0
  C  C1137  1  0.176500  0.541800  0.898000  1.0
  C  C1138  1  0.823500  0.458200  0.102000  1.0
  C  C1139  1  0.017100  0.615900  0.917600  1.0
  C  C1140  1  0.982900  0.384100  0.082400  1.0
  C  C1141  1  0.053300  0.685400  0.920800  1.0
  C  C1142  1  0.946700  0.314600  0.079200  1.0
  C  C1143  1  0.007000  0.696400  0.940700  1.0
  C  C1144  1  0.993000  0.303600  0.059300  1.0
  C  C1145  1  0.996600  0.735200  0.941600  1.0
  C  C1146  1  0.003400  0.264800  0.058400  1.0
  C  C1147  1  0.029100  0.762500  0.923100  1.0
  C  C1148  1  0.970900  0.237500  0.076900  1.0
  C  C1149  1  0.075900  0.751500  0.904200  1.0
  C  C1150  1  0.924100  0.248500  0.095800  1.0
  C  C1151  1  0.088700  0.713700  0.903900  1.0
  C  C1152  1  0.911300  0.286300  0.096100  1.0
  C  C1153  1  0.516400  0.722200  0.877700  1.0
  C  C1154  1  0.483600  0.277800  0.122300  1.0
  C  C1155  1  0.450000  0.714200  0.866900  1.0
  C  C1156  1  0.550000  0.285800  0.133100  1.0
  C  C1157  1  0.428200  0.745100  0.853700  1.0
  C  C1158  1  0.571800  0.254900  0.146300  1.0
  C  C1159  1  0.467600  0.781300  0.849700  1.0
  C  C1160  1  0.532400  0.218700  0.150300  1.0
  C  C1161  1  0.449500  0.813800  0.836300  1.0
  C  C1162  1  0.550500  0.186200  0.163700  1.0
  C  C1163  1  0.492600  0.846400  0.830800  1.0
  C  C1164  1  0.507400  0.153600  0.169200  1.0
  C  C1165  1  0.559400  0.848100  0.838200  1.0
  C  C1166  1  0.440600  0.151900  0.161800  1.0
  C  C1167  1  0.608500  0.880700  0.834600  1.0
  C  C1168  1  0.391500  0.119300  0.165400  1.0
  C  C1169  1  0.672400  0.880500  0.842200  1.0
  C  C1170  1  0.327600  0.119500  0.157800  1.0
  C  C1171  1  0.687000  0.846300  0.855000  1.0
  C  C1172  1  0.313000  0.153700  0.145000  1.0
  C  C1173  1  0.579500  0.815300  0.849900  1.0
  C  C1174  1  0.420500  0.184700  0.150100  1.0
  C  C1175  1  0.533600  0.782600  0.857100  1.0
  C  C1176  1  0.466400  0.217400  0.142900  1.0
  C  C1177  1  0.753200  0.844000  0.867400  1.0
  C  C1178  1  0.246800  0.156000  0.132600  1.0
  C  C1179  1  0.820800  0.807100  0.891800  1.0
  C  C1180  1  0.179200  0.192900  0.108200  1.0
  C  C1181  1  0.864200  0.840200  0.907500  1.0
  C  C1182  1  0.135800  0.159800  0.092500  1.0
  C  C1183  1  0.925200  0.836200  0.917800  1.0
  C  C1184  1  0.074800  0.163800  0.082200  1.0
  C  C1185  1  0.945100  0.800100  0.912300  1.0
  C  C1186  1  0.054900  0.199900  0.087700  1.0
  C  C1187  1  0.901400  0.767200  0.897000  1.0
  C  C1188  1  0.098600  0.232800  0.103000  1.0
  C  C1189  1  0.839300  0.770800  0.887100  1.0
  C  C1190  1  0.160700  0.229200  0.112900  1.0
  C  C1191  1  0.179600  0.048400  0.818800  1.0
  C  C1192  1  0.820400  0.951600  0.181200  1.0
  C  C1193  1  0.213200  0.082400  0.805400  1.0
  C  C1194  1  0.786800  0.917600  0.194600  1.0
  C  C1195  1  0.277700  0.089000  0.802600  1.0
  C  C1196  1  0.722300  0.911000  0.197400  1.0
  C  C1197  1  0.313800  0.061900  0.812000  1.0
  C  C1198  1  0.686200  0.938100  0.188000  1.0
  C  C1199  1  0.380900  0.065100  0.811800  1.0
  C  C1200  1  0.619100  0.934900  0.188200  1.0
  C  C1201  1  0.408000  0.034600  0.821200  1.0
  C  C1202  1  0.592000  0.965400  0.178800  1.0
  C  C1203  1  0.374100  0.001100  0.835600  1.0
  C  C1204  1  0.625900  0.998900  0.164400  1.0
  C  C1205  1  0.400600  0.968500  0.844100  1.0
  C  C1206  1  0.599400  0.031500  0.155900  1.0
  C  C1207  1  0.362300  0.938500  0.857400  1.0
  C  C1208  1  0.637700  0.061500  0.142600  1.0
  C  C1209  1  0.296300  0.938900  0.858500  1.0
  C  C1210  1  0.703700  0.061100  0.141500  1.0
  C  C1211  1  0.308300  0.998600  0.835000  1.0
  C  C1212  1  0.691700  0.001400  0.165000  1.0
  C  C1213  1  0.277200  0.029000  0.824800  1.0
  C  C1214  1  0.722800  0.971000  0.175200  1.0
  C  C1215  1  0.250900  0.910200  0.873100  1.0
  C  C1216  1  0.749100  0.089800  0.126900  1.0
  C  C1217  1  0.147000  0.886600  0.885900  1.0
  C  C1218  1  0.853000  0.113400  0.114100  1.0
  C  C1219  1  0.155100  0.878500  0.918200  1.0
  C  C1220  1  0.844900  0.121500  0.081800  1.0
  C  C1221  1  0.110400  0.850400  0.930000  1.0
  C  C1222  1  0.889600  0.149600  0.070000  1.0
  C  C1223  1  0.055600  0.830100  0.910000  1.0
  C  C1224  1  0.944400  0.169900  0.090000  1.0
  C  C1225  1  0.047700  0.837100  0.877200  1.0
  C  C1226  1  0.952300  0.162900  0.122800  1.0
  C  C1227  1  0.093600  0.865200  0.865200  1.0
  C  C1228  1  0.906400  0.134800  0.134800  1.0
  C  C1229  1  0.728700  0.148900  0.565700  1.0
  C  C1230  1  0.271300  0.851100  0.434300  1.0
  C  C1231  1  0.757300  0.117900  0.550000  1.0
  C  C1232  1  0.242700  0.882100  0.450000  1.0
  C  C1233  1  0.817500  0.115400  0.561200  1.0
  C  C1234  1  0.182500  0.884600  0.438800  1.0
  C  C1235  1  0.853000  0.139500  0.588700  1.0
  C  C1236  1  0.147000  0.860500  0.411300  1.0
  C  C1237  1  0.912900  0.136300  0.604900  1.0
  C  C1238  1  0.087100  0.863700  0.395100  1.0
  C  C1239  1  0.942600  0.160800  0.632100  1.0
  C  C1240  1  0.057400  0.839200  0.367900  1.0
  C  C1241  1  0.909400  0.189200  0.647500  1.0
  C  C1242  1  0.090600  0.810800  0.352500  1.0
  C  C1243  1  0.936500  0.215700  0.676100  1.0
  C  C1244  1  0.063500  0.784300  0.323900  1.0
  C  C1245  1  0.904300  0.243200  0.690100  1.0
  C  C1246  1  0.095700  0.756800  0.309900  1.0
  C  C1247  1  0.841100  0.242800  0.674500  1.0
  C  C1248  1  0.158900  0.757200  0.325500  1.0
  C  C1249  1  0.847200  0.190600  0.634200  1.0
  C  C1250  1  0.152800  0.809400  0.365800  1.0
  C  C1251  1  0.818500  0.167100  0.604000  1.0
  C  C1252  1  0.181500  0.832900  0.396000  1.0
  C  C1253  1  0.802800  0.272300  0.685300  1.0
  C  C1254  1  0.197200  0.727700  0.314700  1.0
  C  C1255  1  0.706500  0.295400  0.676400  1.0
  C  C1256  1  0.293500  0.704600  0.323600  1.0
  C  C1257  1  0.673100  0.312000  0.652300  1.0
  C  C1258  1  0.326900  0.688000  0.347700  1.0
  C  C1259  1  0.626000  0.332600  0.661400  1.0
  C  C1260  1  0.374000  0.667400  0.338600  1.0
  C  C1261  1  0.610600  0.336300  0.694000  1.0
  C  C1262  1  0.389400  0.663700  0.306000  1.0
  C  C1263  1  0.644600  0.320100  0.717900  1.0
  C  C1264  1  0.355400  0.679900  0.282100  1.0
  C  C1265  1  0.690700  0.299200  0.709000  1.0
  C  C1266  1  0.309300  0.700800  0.291000  1.0
  C  C1267  1  0.138500  0.412900  0.604600  1.0
  C  C1268  1  0.861500  0.587100  0.395400  1.0
  C  C1269  1  0.083000  0.420100  0.587900  1.0
  C  C1270  1  0.917000  0.579900  0.412100  1.0
  C  C1271  1  0.056800  0.394100  0.560200  1.0
  C  C1272  1  0.943200  0.605900  0.439800  1.0
  C  C1273  1  0.081400  0.360300  0.550200  1.0
  C  C1274  1  0.918600  0.639700  0.449800  1.0
  C  C1275  1  0.058300  0.332500  0.521900  1.0
  C  C1276  1  0.941700  0.667500  0.478100  1.0
  C  C1277  1  0.086500  0.301700  0.512900  1.0
  C  C1278  1  0.913500  0.698300  0.487100  1.0
  C  C1279  1  0.141200  0.296200  0.533200  1.0
  C  C1280  1  0.858800  0.703800  0.466800  1.0
  C  C1281  1  0.173000  0.264500  0.527000  1.0
  C  C1282  1  0.827000  0.735500  0.473000  1.0
  C  C1283  1  0.229800  0.262800  0.545300  1.0
  C  C1284  1  0.770200  0.737200  0.454700  1.0
  C  C1285  1  0.253800  0.294300  0.571700  1.0
  C  C1286  1  0.746200  0.705700  0.428300  1.0
  C  C1287  1  0.167100  0.324200  0.560700  1.0
  C  C1288  1  0.832900  0.675800  0.439300  1.0
  C  C1289  1  0.137400  0.356500  0.569400  1.0
  C  C1290  1  0.862600  0.643500  0.430600  1.0
  C  C1291  1  0.313900  0.296300  0.593500  1.0
  C  C1292  1  0.686100  0.703700  0.406500  1.0
  C  C1293  1  0.389800  0.332900  0.635700  1.0
  C  C1294  1  0.610200  0.667100  0.364300  1.0
  C  C1295  1  0.419500  0.301800  0.641000  1.0
  C  C1296  1  0.580500  0.698200  0.359000  1.0
  C  C1297  1  0.476600  0.309400  0.662000  1.0
  C  C1298  1  0.523400  0.690600  0.338000  1.0
  C  C1299  1  0.504700  0.347600  0.677200  1.0
  C  C1300  1  0.495300  0.652400  0.322800  1.0
  C  C1301  1  0.472900  0.377900  0.671700  1.0
  C  C1302  1  0.527100  0.622100  0.328300  1.0
  C  C1303  1  0.415900  0.371100  0.651400  1.0
  C  C1304  1  0.584100  0.628900  0.348600  1.0
  C  C1305  1  0.692100  0.542000  0.920500  1.0
  C  C1306  1  0.307900  0.458000  0.079500  1.0
  C  C1307  1  0.699600  0.567800  0.951400  1.0
  C  C1308  1  0.300400  0.432200  0.048600  1.0
  C  C1309  1  0.648700  0.572000  0.969500  1.0
  C  C1310  1  0.351300  0.428000  0.030500  1.0
  C  C1311  1  0.587200  0.551000  0.958000  1.0
  C  C1312  1  0.412800  0.449000  0.042000  1.0
  C  C1313  1  0.533500  0.546200  0.976900  1.0
  C  C1314  1  0.466500  0.453800  0.023100  1.0
  C  C1315  1  0.476800  0.521800  0.963000  1.0
  C  C1316  1  0.523200  0.478200  0.037000  1.0
  C  C1317  1  0.471700  0.497300  0.931200  1.0
  C  C1318  1  0.528300  0.502700  0.068800  1.0
  C  C1319  1  0.415400  0.469600  0.917000  1.0
  C  C1320  1  0.584600  0.530400  0.083000  1.0
  C  C1321  1  0.416200  0.450700  0.885500  1.0
  C  C1322  1  0.583800  0.549300  0.114500  1.0
  C  C1323  1  0.473000  0.456500  0.869000  1.0
  C  C1324  1  0.527000  0.543500  0.131000  1.0
  C  C1325  1  0.527600  0.498700  0.915400  1.0
  C  C1326  1  0.472400  0.501300  0.084600  1.0
  C  C1327  1  0.584100  0.528100  0.926300  1.0
  C  C1328  1  0.415900  0.471900  0.073700  1.0
  C  C1329  1  0.480200  0.434000  0.837400  1.0
  C  C1330  1  0.519800  0.566000  0.162600  1.0
  C  C1331  1  0.541900  0.417500  0.794300  1.0
  C  C1332  1  0.458100  0.582500  0.205700  1.0
  C  C1333  1  0.490100  0.392300  0.775900  1.0
  C  C1334  1  0.509900  0.607700  0.224100  1.0
  C  C1335  1  0.497600  0.371700  0.746000  1.0
  C  C1336  1  0.502400  0.628300  0.254000  1.0
  C  C1337  1  0.556200  0.376300  0.732400  1.0
  C  C1338  1  0.443800  0.623700  0.267600  1.0
  C  C1339  1  0.609700  0.399500  0.751400  1.0
  C  C1340  1  0.390300  0.600500  0.248600  1.0
  C  C1341  1  0.600700  0.421800  0.781000  1.0
  C  C1342  1  0.399300  0.578200  0.219000  1.0
  C  C1343  1  0.333600  0.396100  0.548200  1.0
  C  C1344  1  0.666400  0.603900  0.451800  1.0
  C  C1345  1  0.368500  0.424300  0.529600  1.0
  C  C1346  1  0.631500  0.575700  0.470400  1.0
  C  C1347  1  0.379100  0.463600  0.541900  1.0
  C  C1348  1  0.620900  0.536400  0.458100  1.0
  C  C1349  1  0.359700  0.476400  0.572600  1.0
  C  C1350  1  0.640300  0.523600  0.427400  1.0
  C  C1351  1  0.367600  0.516800  0.587100  1.0
  C  C1352  1  0.632400  0.483200  0.412900  1.0
  C  C1353  1  0.351400  0.527200  0.618000  1.0
  C  C1354  1  0.648600  0.472800  0.382000  1.0
  C  C1355  1  0.321800  0.496200  0.636300  1.0
  C  C1356  1  0.678200  0.503800  0.363700  1.0
  C  C1357  1  0.303900  0.504000  0.668800  1.0
  C  C1358  1  0.696100  0.496000  0.331200  1.0
  C  C1359  1  0.283400  0.473400  0.686900  1.0
  C  C1360  1  0.716600  0.526600  0.313100  1.0
  C  C1361  1  0.276900  0.433500  0.670900  1.0
  C  C1362  1  0.723100  0.566500  0.329100  1.0
  C  C1363  1  0.313400  0.456400  0.622600  1.0
  C  C1364  1  0.686600  0.543600  0.377400  1.0
  C  C1365  1  0.329900  0.445500  0.590000  1.0
  C  C1366  1  0.670100  0.554500  0.410000  1.0
  C  C1367  1  0.255500  0.397700  0.687100  1.0
  C  C1368  1  0.744500  0.602300  0.312900  1.0
  C  C1369  1  0.241300  0.327900  0.683700  1.0
  C  C1370  1  0.758700  0.672100  0.316300  1.0
  C  C1371  1  0.266300  0.328000  0.716900  1.0
  C  C1372  1  0.733700  0.672000  0.283100  1.0
  C  C1373  1  0.261800  0.291400  0.729400  1.0
  C  C1374  1  0.738200  0.708600  0.270600  1.0
  C  C1375  1  0.234300  0.256000  0.710400  1.0
  C  C1376  1  0.765700  0.744000  0.289600  1.0
  C  C1377  1  0.210300  0.256200  0.677400  1.0
  C  C1378  1  0.789700  0.743800  0.322600  1.0
  C  C1379  1  0.213600  0.292100  0.664600  1.0
  C  C1380  1  0.786400  0.707900  0.335400  1.0
  C  C1381  1  0.151100  0.310300  0.961700  1.0
  C  C1382  1  0.848900  0.689700  0.038300  1.0
  C  C1383  1  0.147000  0.320500  0.996000  1.0
  C  C1384  1  0.853000  0.679500  0.004000  1.0
  C  C1385  1  0.150400  0.291500  0.016700  1.0
  C  C1386  1  0.849600  0.708500  0.983300  1.0
  C  C1387  1  0.159700  0.253700  0.004500  1.0
  C  C1388  1  0.840300  0.746300  0.995500  1.0
  C  C1389  1  0.169500  0.222900  0.023300  1.0
  C  C1390  1  0.830500  0.777100  0.976700  1.0
  C  C1391  1  0.174400  0.186400  0.009000  1.0
  C  C1392  1  0.825600  0.813600  0.991000  1.0
  C  C1393  1  0.179700  0.180400  0.973900  1.0
  C  C1394  1  0.820300  0.819600  0.026100  1.0
  C  C1395  1  0.190800  0.144900  0.956900  1.0
  C  C1396  1  0.809200  0.855100  0.043100  1.0
  C  C1397  1  0.193900  0.140300  0.922800  1.0
  C  C1398  1  0.806100  0.859700  0.077200  1.0
  C  C1399  1  0.190500  0.174400  0.906200  1.0
  C  C1400  1  0.809500  0.825600  0.093800  1.0
  C  C1401  1  0.172300  0.210400  0.954400  1.0
  C  C1402  1  0.827700  0.789600  0.045600  1.0
  C  C1403  1  0.163500  0.247500  0.969800  1.0
  C  C1404  1  0.836500  0.752500  0.030200  1.0
  C  C1405  1  0.197900  0.173900  0.870000  1.0
  C  C1406  1  0.802100  0.826100  0.130000  1.0
  C  C1407  1  0.200300  0.208300  0.823300  1.0
  C  C1408  1  0.799700  0.791700  0.176700  1.0
  C  C1409  1  0.247000  0.191500  0.809400  1.0
  C  C1410  1  0.753000  0.808500  0.190600  1.0
  C  C1411  1  0.258100  0.195800  0.776400  1.0
  C  C1412  1  0.741900  0.804200  0.223600  1.0
  C  C1413  1  0.222700  0.216000  0.756800  1.0
  C  C1414  1  0.777300  0.784000  0.243200  1.0
  C  C1415  1  0.176300  0.232700  0.771500  1.0
  C  C1416  1  0.823700  0.767300  0.228500  1.0
  C  C1417  1  0.166100  0.230100  0.804800  1.0
  C  C1418  1  0.833900  0.769900  0.195200  1.0
  C  C1419  1  0.272900  0.934400  0.652600  1.0
  C  C1420  1  0.727100  0.065600  0.347400  1.0
  C  C1421  1  0.293800  0.898500  0.643700  1.0
  C  C1422  1  0.706200  0.101500  0.356300  1.0
  C  C1423  1  0.332900  0.894400  0.618700  1.0
  C  C1424  1  0.667100  0.105600  0.381300  1.0
  C  C1425  1  0.359200  0.927300  0.603200  1.0
  C  C1426  1  0.640800  0.072700  0.396800  1.0
  C  C1427  1  0.404700  0.928300  0.579300  1.0
  C  C1428  1  0.595300  0.071700  0.420700  1.0
  C  C1429  1  0.428300  0.962900  0.566900  1.0
  C  C1430  1  0.571700  0.037100  0.433100  1.0
  C  C1431  1  0.412400  0.000200  0.580200  1.0
  C  C1432  1  0.587600  0.999800  0.419800  1.0
  C  C1433  1  0.436000  0.037200  0.568900  1.0
  C  C1434  1  0.564000  0.962800  0.431100  1.0
  C  C1435  1  0.417000  0.070400  0.583000  1.0
  C  C1436  1  0.583000  0.929600  0.417000  1.0
  C  C1437  1  0.372700  0.067100  0.607600  1.0
  C  C1438  1  0.627300  0.932900  0.392400  1.0
  C  C1439  1  0.364700  0.998100  0.602000  1.0
  C  C1440  1  0.635300  0.001900  0.398000  1.0
  C  C1441  1  0.338800  0.962200  0.614900  1.0
  C  C1442  1  0.661200  0.037800  0.385100  1.0
  C  C1443  1  0.351700  0.100800  0.624800  1.0
  C  C1444  1  0.648300  0.899200  0.375200  1.0
  C  C1445  1  0.288600  0.125300  0.663700  1.0
  C  C1446  1  0.711400  0.874700  0.336300  1.0
  C  C1447  1  0.236700  0.118200  0.682200  1.0
  C  C1448  1  0.763300  0.881800  0.317800  1.0
  C  C1449  1  0.218600  0.148200  0.701700  1.0
  C  C1450  1  0.781400  0.851800  0.298300  1.0
  C  C1451  1  0.252100  0.187400  0.703700  1.0
  C  C1452  1  0.747900  0.812600  0.296300  1.0
  C  C1453  1  0.303700  0.195100  0.684900  1.0
  C  C1454  1  0.696300  0.804900  0.315100  1.0
  C  C1455  1  0.322800  0.164300  0.665500  1.0
  C  C1456  1  0.677200  0.835700  0.334500  1.0
  C  C1457  1  0.022800  0.184300  0.880100  1.0
  C  C1458  1  0.977200  0.815700  0.119900  1.0
  C  C1459  1  0.956800  0.170900  0.867100  1.0
  C  C1460  1  0.043200  0.829100  0.132900  1.0
  C  C1461  1  0.925800  0.198500  0.856100  1.0
  C  C1462  1  0.074200  0.801500  0.143900  1.0
  C  C1463  1  0.956200  0.237600  0.854100  1.0
  C  C1464  1  0.043800  0.762400  0.145900  1.0
  C  C1465  1  0.930300  0.265900  0.837900  1.0
  C  C1466  1  0.069700  0.734100  0.162100  1.0
  C  C1467  1  0.963500  0.303200  0.836200  1.0
  C  C1468  1  0.036500  0.696800  0.163800  1.0
  C  C1469  1  0.030200  0.312900  0.848500  1.0
  C  C1470  1  0.969800  0.687100  0.151500  1.0
  C  C1471  1  0.070700  0.348800  0.844400  1.0
  C  C1472  1  0.929300  0.651200  0.155600  1.0
  C  C1473  1  0.134800  0.356500  0.853900  1.0
  C  C1474  1  0.865200  0.643500  0.146100  1.0
  C  C1475  1  0.161600  0.325600  0.866800  1.0
  C  C1476  1  0.838400  0.674400  0.133200  1.0
  C  C1477  1  0.059500  0.284400  0.862100  1.0
  C  C1478  1  0.940500  0.715600  0.137900  1.0
  C  C1479  1  0.022700  0.246700  0.866300  1.0
  C  C1480  1  0.977300  0.753300  0.133700  1.0
  C  C1481  1  0.229800  0.329600  0.878900  1.0
  C  C1482  1  0.770200  0.670400  0.121100  1.0
  C  C1483  1  0.310800  0.301000  0.902900  1.0
  C  C1484  1  0.689200  0.699000  0.097100  1.0
  C  C1485  1  0.350900  0.336200  0.917900  1.0
  C  C1486  1  0.649100  0.663800  0.082100  1.0
  C  C1487  1  0.414500  0.336100  0.928100  1.0
  C  C1488  1  0.585500  0.663900  0.071900  1.0
  C  C1489  1  0.439900  0.302300  0.923400  1.0
  C  C1490  1  0.560100  0.697700  0.076600  1.0
  C  C1491  1  0.398800  0.267300  0.908800  1.0
  C  C1492  1  0.601200  0.732700  0.091200  1.0
  C  C1493  1  0.335000  0.266500  0.898700  1.0
  C  C1494  1  0.665000  0.733500  0.101300  1.0
  C  C1495  1  0.567900  0.544600  0.811700  1.0
  C  C1496  1  0.432100  0.455400  0.188300  1.0
  C  C1497  1  0.577700  0.575500  0.791600  1.0
  C  C1498  1  0.422300  0.424500  0.208400  1.0
  C  C1499  1  0.641300  0.592000  0.788300  1.0
  C  C1500  1  0.358700  0.408000  0.211700  1.0
  C  C1501  1  0.692200  0.576400  0.801500  1.0
  C  C1502  1  0.307800  0.423600  0.198500  1.0
  C  C1503  1  0.757300  0.590000  0.797800  1.0
  C  C1504  1  0.242700  0.410000  0.202200  1.0
  C  C1505  1  0.803500  0.572900  0.811300  1.0
  C  C1506  1  0.196500  0.427100  0.188700  1.0
  C  C1507  1  0.785400  0.540600  0.830200  1.0
  C  C1508  1  0.214600  0.459400  0.169800  1.0
  C  C1509  1  0.830300  0.520100  0.844000  1.0
  C  C1510  1  0.169700  0.479900  0.156000  1.0
  C  C1511  1  0.809900  0.487900  0.860800  1.0
  C  C1512  1  0.190100  0.512100  0.139200  1.0
  C  C1513  1  0.743300  0.475200  0.862200  1.0
  C  C1514  1  0.256700  0.524800  0.137800  1.0
  C  C1515  1  0.721900  0.525800  0.833900  1.0
  C  C1516  1  0.278100  0.474200  0.166100  1.0
  C  C1517  1  0.675000  0.544000  0.819600  1.0
  C  C1518  1  0.325000  0.456000  0.180400  1.0
  C  C1519  1  0.716900  0.439000  0.878300  1.0
  C  C1520  1  0.283100  0.561000  0.121700  1.0
  C  C1521  1  0.622700  0.399600  0.892400  1.0
  C  C1522  1  0.377300  0.600400  0.107600  1.0
  C  C1523  1  0.572700  0.374900  0.872200  1.0
  C  C1524  1  0.427300  0.625100  0.127800  1.0
  C  C1525  1  0.536000  0.343700  0.885000  1.0
  C  C1526  1  0.464000  0.656300  0.115000  1.0
  C  C1527  1  0.547900  0.337100  0.917800  1.0
  C  C1528  1  0.452100  0.662900  0.082200  1.0
  C  C1529  1  0.597100  0.362400  0.937700  1.0
  C  C1530  1  0.402900  0.637600  0.062300  1.0
  C  C1531  1  0.635800  0.393700  0.925000  1.0
  C  C1532  1  0.364200  0.606300  0.075000  1.0
  C  C1533  1  0.801400  0.104400  0.901300  1.0
  C  C1534  1  0.198600  0.895600  0.098700  1.0
  C  C1535  1  0.831500  0.070700  0.895500  1.0
  C  C1536  1  0.168500  0.929300  0.104500  1.0
  C  C1537  1  0.797300  0.032500  0.892300  1.0
  C  C1538  1  0.202700  0.967500  0.107700  1.0
  C  C1539  1  0.730800  0.024600  0.892000  1.0
  C  C1540  1  0.269200  0.975400  0.108000  1.0
  C  C1541  1  0.690100  0.987100  0.891700  1.0
  C  C1542  1  0.309900  0.012900  0.108300  1.0
  C  C1543  1  0.626500  0.983400  0.896800  1.0
  C  C1544  1  0.373500  0.016600  0.103200  1.0
  C  C1545  1  0.597800  0.018000  0.901600  1.0
  C  C1546  1  0.402200  0.982000  0.098400  1.0
  C  C1547  1  0.533500  0.016300  0.908200  1.0
  C  C1548  1  0.466500  0.983700  0.091800  1.0
  C  C1549  1  0.510400  0.050700  0.911300  1.0
  C  C1550  1  0.489600  0.949300  0.088700  1.0
  C  C1551  1  0.552900  0.087600  0.909900  1.0
  C  C1552  1  0.447100  0.912400  0.090100  1.0
  C  C1553  1  0.638900  0.055100  0.903200  1.0
  C  C1554  1  0.361100  0.944900  0.096800  1.0
  C  C1555  1  0.705200  0.059600  0.898600  1.0
  C  C1556  1  0.294800  0.940400  0.101400  1.0
  C  C1557  1  0.535000  0.126100  0.916900  1.0
  C  C1558  1  0.465000  0.873900  0.083100  1.0
  C  C1559  1  0.567500  0.195800  0.925800  1.0
  C  C1560  1  0.432500  0.804200  0.074200  1.0
  C  C1561  1  0.521800  0.203600  0.946500  1.0
  C  C1562  1  0.478200  0.796400  0.053500  1.0
  C  C1563  1  0.505300  0.240200  0.948800  1.0
  C  C1564  1  0.494700  0.759800  0.051200  1.0
  C  C1565  1  0.532000  0.270000  0.930400  1.0
  C  C1566  1  0.468000  0.730000  0.069600  1.0
  C  C1567  1  0.579300  0.263200  0.910500  1.0
  C  C1568  1  0.420700  0.736800  0.089500  1.0
  C  C1569  1  0.596400  0.226000  0.908500  1.0
  C  C1570  1  0.403600  0.774000  0.091500  1.0
  C  C1571  1  0.670300  0.135500  0.991900  1.0
  C  C1572  1  0.329700  0.864500  0.008100  1.0
  C  C1573  1  0.690100  0.147500  0.026900  1.0
  C  C1574  1  0.309900  0.852500  0.973100  1.0
  C  C1575  1  0.738200  0.179400  0.034800  1.0
  C  C1576  1  0.261800  0.820600  0.965200  1.0
  C  C1577  1  0.768900  0.203400  0.012900  1.0
  C  C1578  1  0.231100  0.796600  0.987100  1.0
  C  C1579  1  0.820700  0.236300  0.019500  1.0
  C  C1580  1  0.179300  0.763700  0.980500  1.0
  C  C1581  1  0.846800  0.257400  0.996000  1.0
  C  C1582  1  0.153200  0.742600  0.004000  1.0
  C  C1583  1  0.821700  0.244700  0.961800  1.0
  C  C1584  1  0.178300  0.755300  0.038200  1.0
  C  C1585  1  0.841600  0.265500  0.935200  1.0
  C  C1586  1  0.158400  0.734500  0.064800  1.0
  C  C1587  1  0.815300  0.253100  0.903000  1.0
  C  C1588  1  0.184700  0.746900  0.097000  1.0
  C  C1589  1  0.769600  0.215600  0.897400  1.0
  C  C1590  1  0.230400  0.784400  0.102600  1.0
  C  C1591  1  0.774700  0.209300  0.954000  1.0
  C  C1592  1  0.225300  0.790700  0.046000  1.0
  C  C1593  1  0.744400  0.188900  0.978900  1.0
  C  C1594  1  0.255600  0.811100  0.021100  1.0
  C  C1595  1  0.735900  0.199000  0.864500  1.0
  C  C1596  1  0.264100  0.801000  0.135500  1.0
  C  C1597  1  0.657800  0.155400  0.829400  1.0
  C  C1598  1  0.342200  0.844600  0.170600  1.0
  C  C1599  1  0.657000  0.182700  0.806000  1.0
  C  C1600  1  0.343000  0.817300  0.194000  1.0
  C  C1601  1  0.623400  0.169100  0.774500  1.0
  C  C1602  1  0.376600  0.830900  0.225500  1.0
  C  C1603  1  0.593000  0.130200  0.765500  1.0
  C  C1604  1  0.407000  0.869800  0.234500  1.0
  C  C1605  1  0.593100  0.103900  0.789300  1.0
  C  C1606  1  0.406900  0.896100  0.210700  1.0
  C  C1607  1  0.623700  0.116700  0.821200  1.0
  C  C1608  1  0.376300  0.883300  0.178800  1.0
  C  C1609  1  0.876100  0.281900  0.594700  1.0
  C  C1610  1  0.123900  0.718100  0.405300  1.0
  C  C1611  1  0.913400  0.305400  0.574500  1.0
  C  C1612  1  0.086600  0.694600  0.425500  1.0
  C  C1613  1  0.880600  0.317200  0.548500  1.0
  C  C1614  1  0.119400  0.682800  0.451500  1.0
  C  C1615  1  0.814000  0.305900  0.541700  1.0
  C  C1616  1  0.186000  0.694100  0.458300  1.0
  C  C1617  1  0.776400  0.316300  0.515200  1.0
  C  C1618  1  0.223600  0.683700  0.484800  1.0
  C  C1619  1  0.712900  0.301200  0.508600  1.0
  C  C1620  1  0.287100  0.698800  0.491400  1.0
  C  C1621  1  0.680400  0.278300  0.531800  1.0
  C  C1622  1  0.319600  0.721700  0.468200  1.0
  C  C1623  1  0.614400  0.261800  0.527700  1.0
  C  C1624  1  0.385600  0.738200  0.472300  1.0
  C  C1625  1  0.585200  0.238700  0.550400  1.0
  C  C1626  1  0.414800  0.761300  0.449600  1.0
  C  C1627  1  0.626300  0.230000  0.576600  1.0
  C  C1628  1  0.373700  0.770000  0.423400  1.0
  C  C1629  1  0.715900  0.268400  0.558900  1.0
  C  C1630  1  0.284100  0.731600  0.441100  1.0
  C  C1631  1  0.782400  0.283000  0.564400  1.0
  C  C1632  1  0.217600  0.717000  0.435600  1.0
  C  C1633  1  0.601000  0.205000  0.602000  1.0
  C  C1634  1  0.399000  0.795000  0.398000  1.0
  C  C1635  1  0.620100  0.177700  0.651000  1.0
  C  C1636  1  0.379900  0.822300  0.349000  1.0
  C  C1637  1  0.556000  0.165800  0.655000  1.0
  C  C1638  1  0.444000  0.834200  0.345000  1.0
  C  C1639  1  0.538700  0.148000  0.683000  1.0
  C  C1640  1  0.461300  0.852000  0.317000  1.0
  C  C1641  1  0.583400  0.139700  0.706600  1.0
  C  C1642  1  0.416600  0.860300  0.293400  1.0
  C  C1643  1  0.646900  0.153300  0.703200  1.0
  C  C1644  1  0.353100  0.846700  0.296800  1.0
  C  C1645  1  0.664600  0.173500  0.676200  1.0
  C  C1646  1  0.335400  0.826500  0.323800  1.0
  C  C1647  1  0.194900  0.018100  0.574700  1.0
  C  C1648  1  0.805100  0.981900  0.425300  1.0
  C  C1649  1  0.135700  0.011300  0.553800  1.0
  C  C1650  1  0.864300  0.988700  0.446200  1.0
  C  C1651  1  0.077600  0.004600  0.567000  1.0
  C  C1652  1  0.922400  0.995400  0.433000  1.0
  C  C1653  1  0.073300  0.999800  0.600500  1.0
  C  C1654  1  0.926700  0.000200  0.399500  1.0
  C  C1655  1  0.017300  0.986800  0.616300  1.0
  C  C1656  1  0.982700  0.013200  0.383700  1.0
  C  C1657  1  0.018900  0.983400  0.649900  1.0
  C  C1658  1  0.981100  0.016600  0.350100  1.0
  C  C1659  1  0.079600  0.995000  0.670800  1.0
  C  C1660  1  0.920400  0.005000  0.329200  1.0
  C  C1661  1  0.084400  0.995100  0.705800  1.0
  C  C1662  1  0.915600  0.004900  0.294200  1.0
  C  C1663  1  0.144800  0.005200  0.722500  1.0
  C  C1664  1  0.855200  0.994800  0.277500  1.0
  C  C1665  1  0.199200  0.015400  0.704700  1.0
  C  C1666  1  0.800800  0.984600  0.295300  1.0
  C  C1667  1  0.134000  0.005100  0.654300  1.0
  C  C1668  1  0.866000  0.994900  0.345700  1.0
  C  C1669  1  0.133900  0.008400  0.619500  1.0
  C  C1670  1  0.866100  0.991600  0.380500  1.0
  C  C1671  1  0.264500  0.029600  0.720300  1.0
  C  C1672  1  0.735500  0.970400  0.279700  1.0
  C  C1673  1  0.373800  0.053700  0.711100  1.0
  C  C1674  1  0.626200  0.946300  0.288900  1.0
  C  C1675  1  0.423300  0.039900  0.696700  1.0
  C  C1676  1  0.576700  0.960100  0.303300  1.0
  C  C1677  1  0.485900  0.059400  0.705000  1.0
  C  C1678  1  0.514100  0.940600  0.295000  1.0
  C  C1679  1  0.501600  0.093100  0.728400  1.0
  C  C1680  1  0.498400  0.906900  0.271600  1.0
  C  C1681  1  0.452600  0.107900  0.742500  1.0
  C  C1682  1  0.547400  0.892100  0.257500  1.0
  C  C1683  1  0.388600  0.088600  0.733600  1.0
  C  C1684  1  0.611400  0.911400  0.266400  1.0
  C  C1685  1  0.271000  0.540900  0.980200  1.0
  C  C1686  1  0.729000  0.459100  0.019800  1.0
  C  C1687  1  0.316000  0.579000  0.980700  1.0
  C  C1688  1  0.684000  0.421000  0.019300  1.0
  C  C1689  1  0.017000  0.825700  0.559000  1.0
  C  C1690  1  0.983000  0.174300  0.441000  1.0
  C  C1691  1  0.950000  0.814000  0.544400  1.0
  C  C1692  1  0.050000  0.186000  0.455600  1.0
  C  C1693  1  0.463000  0.811100  0.941200  1.0
  C  C1694  1  0.537000  0.188900  0.058800  1.0
  C  C1695  1  0.475000  0.847400  0.924700  1.0
  C  C1696  1  0.525000  0.152600  0.075300  1.0
  C  C1697  1  0.501000  0.348200  0.570700  1.0
  C  C1698  1  0.499000  0.651800  0.429300  1.0
  C  C1699  1  0.447000  0.327600  0.546500  1.0
  C  C1700  1  0.553000  0.672400  0.453500  1.0
  C  C1701  1  0.773000  0.050600  0.990600  1.0
  C  C1702  1  0.227000  0.949400  0.009400  1.0
  C  C1703  1  0.809000  0.090800  0.988300  1.0
  C  C1704  1  0.191000  0.909200  0.011700  1.0
  C  C1705  1  0.559000  0.953600  0.982800  1.0
  C  C1706  1  0.441000  0.046400  0.017200  1.0
  C  C1707  1  0.523100  0.922900  0.998900  1.0
  C  C1708  1  0.476900  0.077100  0.001100  1.0
  C  C1709  1  0.342000  0.709900  0.775300  0.5
  C  C1710  1  0.658000  0.290100  0.224700  0.5
  C  C1711  1  0.291000  0.728000  0.760600  0.5
  C  C1712  1  0.709000  0.272000  0.239400  0.5
  C  C1713  1  0.978000  0.674300  0.840900  0.5
  C  C1714  1  0.022000  0.325700  0.159100  0.5
  C  C1715  1  0.926200  0.671300  0.814100  0.5
  C  C1716  1  0.073800  0.328700  0.185900  0.5
  C  C1717  1  0.539000  0.702000  0.564700  0.5
  C  C1718  1  0.461000  0.298000  0.435300  0.5
  C  C1719  1  0.474000  0.706300  0.553000  0.5
  C  C1720  1  0.526000  0.293700  0.447000  0.5
  C  C1721  1  0.993000  0.238800  0.962500  0.5
  C  C1722  1  0.007000  0.761200  0.037500  0.5
  C  C1723  1  0.985000  0.199800  0.974300  0.5
  C  C1724  1  0.015000  0.800200  0.025700  0.5
  C  C1725  1  0.608000  0.841000  0.745000  0.5
  C  C1726  1  0.392000  0.159000  0.255000  0.5
  C  C1727  1  0.562000  0.806200  0.753900  0.5
  C  C1728  1  0.438000  0.193800  0.246100  0.5
  C  C1729  1  0.732000  0.341800  0.827100  0.5
  C  C1730  1  0.268000  0.658200  0.172900  0.5
  C  C1731  1  0.716000  0.315300  0.852400  0.5
  C  C1732  1  0.284000  0.684700  0.147600  0.5
  C  C1733  1  0.836000  0.138000  0.725200  0.5
  C  C1734  1  0.164000  0.862000  0.274800  0.5
  C  C1735  1  0.809000  0.126300  0.690400  0.5
  C  C1736  1  0.191000  0.873700  0.309600  0.5
  C  C1737  1  0.995000  0.771000  0.782000  0.5
  C  C1738  1  0.005000  0.229000  0.218000  0.5
  C  C1739  1  0.934000  0.783000  0.788500  0.5
  C  C1740  1  0.066000  0.217000  0.211500  0.5
  C  C1741  1  0.136000  0.430000  0.722000  0.5
  C  C1742  1  0.864000  0.570000  0.278000  0.5
  C  C1743  1  0.131000  0.433000  0.758000  0.5
  C  C1744  1  0.869000  0.567000  0.242000  0.5
  C  C1745  1  0.798000  0.537400  0.492600  0.5
  C  C1746  1  0.202000  0.462600  0.507400  0.5
  C  C1747  1  0.783000  0.494900  0.493600  0.5
  C  C1748  1  0.217000  0.505100  0.506400  0.5
  C  C1749  1  0.811000  0.600600  0.511300  0.5
  C  C1750  1  0.189000  0.399400  0.488700  0.5
  C  C1751  1  0.775000  0.620300  0.534000  0.5
  C  C1752  1  0.225000  0.379700  0.466000  0.5
  C  C1753  1  0.418000  0.283000  0.790000  0.5
  C  C1754  1  0.582000  0.717000  0.210000  0.5
  C  C1755  1  0.380000  0.288100  0.817400  0.5
  C  C1756  1  0.620000  0.711900  0.182600  0.5
  C  C1757  1  0.514000  0.275000  0.781200  0.5
  C  C1758  1  0.486000  0.725000  0.218800  0.5
  C  C1759  1  0.578000  0.277000  0.796200  0.5
  C  C1760  1  0.422000  0.723000  0.203800  0.5
  N  N1761  1  0.323000  0.766300  0.590700  1.0
  N  N1762  1  0.677000  0.233700  0.409300  1.0
  N  N1763  1  0.198700  0.736300  0.579100  1.0
  N  N1764  1  0.801300  0.263700  0.420900  1.0
  N  N1765  1  0.153700  0.696200  0.626000  1.0
  N  N1766  1  0.846300  0.303800  0.374000  1.0
  N  N1767  1  0.167600  0.622800  0.969200  1.0
  N  N1768  1  0.832400  0.377200  0.030800  1.0
  N  N1769  1  0.231700  0.669800  0.931500  1.0
  N  N1770  1  0.768300  0.330200  0.068500  1.0
  N  N1771  1  0.188000  0.655900  0.867700  1.0
  N  N1772  1  0.812000  0.344100  0.132300  1.0
  N  N1773  1  0.694000  0.518900  0.606500  1.0
  N  N1774  1  0.306000  0.481100  0.393500  1.0
  N  N1775  1  0.698500  0.513900  0.670700  1.0
  N  N1776  1  0.301500  0.486100  0.329300  1.0
  N  N1777  1  0.814600  0.537000  0.698800  1.0
  N  N1778  1  0.185400  0.463000  0.301200  1.0
  N  N1779  1  0.069700  0.619200  0.735200  1.0
  N  N1780  1  0.930300  0.380800  0.264800  1.0
  N  N1781  1  0.673400  0.882400  0.590300  1.0
  N  N1782  1  0.326600  0.117600  0.409700  1.0
  N  N1783  1  0.727600  0.820600  0.576800  1.0
  N  N1784  1  0.272400  0.179400  0.423200  1.0
  N  N1785  1  0.838500  0.828500  0.611600  1.0
  N  N1786  1  0.161500  0.171500  0.388400  1.0
  N  N1787  1  0.216200  0.011200  0.905500  1.0
  N  N1788  1  0.783800  0.988800  0.094500  1.0
  N  N1789  1  0.101000  0.975000  0.882400  1.0
  N  N1790  1  0.899000  0.025000  0.117600  1.0
  N  N1791  1  0.087300  0.942700  0.820100  1.0
  N  N1792  1  0.912700  0.057300  0.179900  1.0
  N  N1793  1  0.278900  0.669500  0.593100  1.0
  N  N1794  1  0.721100  0.330500  0.406900  1.0
  N  N1795  1  0.330200  0.716100  0.647700  1.0
  N  N1796  1  0.669800  0.283900  0.352300  1.0
  N  N1797  1  0.260300  0.767200  0.663900  1.0
  N  N1798  1  0.739700  0.232800  0.336100  1.0
  N  N1799  1  0.072500  0.856700  0.693800  1.0
  N  N1800  1  0.927500  0.143300  0.306200  1.0
  N  N1801  1  0.658600  0.806900  0.935100  1.0
  N  N1802  1  0.341400  0.193100  0.064900  1.0
  N  N1803  1  0.674600  0.733300  0.918100  1.0
  N  N1804  1  0.325400  0.266700  0.081900  1.0
  N  N1805  1  0.686600  0.718600  0.855700  1.0
  N  N1806  1  0.313400  0.281400  0.144300  1.0
  N  N1807  1  0.799900  0.467700  0.637100  1.0
  N  N1808  1  0.200100  0.532300  0.362900  1.0
  N  N1809  1  0.844800  0.533000  0.612900  1.0
  N  N1810  1  0.155200  0.467000  0.387100  1.0
  N  N1811  1  0.808600  0.595700  0.642200  1.0
  N  N1812  1  0.191400  0.404300  0.357800  1.0
  N  N1813  1  0.824400  0.906200  0.574700  1.0
  N  N1814  1  0.175600  0.093800  0.425300  1.0
  N  N1815  1  0.791800  0.924900  0.634400  1.0
  N  N1816  1  0.208200  0.075100  0.365600  1.0
  N  N1817  1  0.750500  0.862000  0.662600  1.0
  N  N1818  1  0.249500  0.138000  0.337400  1.0
  N  N1819  1  0.730000  0.718900  0.719900  1.0
  N  N1820  1  0.270000  0.281100  0.280100  1.0
  N  N1821  1  0.214400  0.578800  0.900100  1.0
  N  N1822  1  0.785600  0.421200  0.099900  1.0
  N  N1823  1  0.091500  0.574700  0.907100  1.0
  N  N1824  1  0.908500  0.425300  0.092900  1.0
  N  N1825  1  0.064300  0.645400  0.916800  1.0
  N  N1826  1  0.935700  0.354600  0.083200  1.0
  N  N1827  1  0.557900  0.753900  0.871100  1.0
  N  N1828  1  0.442100  0.246100  0.128900  1.0
  N  N1829  1  0.642400  0.816500  0.861900  1.0
  N  N1830  1  0.357600  0.183500  0.138100  1.0
  N  N1831  1  0.760600  0.811500  0.879100  1.0
  N  N1832  1  0.239400  0.188500  0.120900  1.0
  N  N1833  1  0.213500  0.022700  0.828100  1.0
  N  N1834  1  0.786500  0.977300  0.171900  1.0
  N  N1835  1  0.271500  0.968700  0.848100  1.0
  N  N1836  1  0.728500  0.031300  0.151900  1.0
  N  N1837  1  0.192500  0.915200  0.872000  1.0
  N  N1838  1  0.807500  0.084800  0.128000  1.0
  N  N1839  1  0.010500  0.799500  0.921500  1.0
  N  N1840  1  0.989500  0.200500  0.078500  1.0
  N  N1841  1  0.759500  0.172500  0.592500  1.0
  N  N1842  1  0.240500  0.827500  0.407500  1.0
  N  N1843  1  0.816500  0.218500  0.646700  1.0
  N  N1844  1  0.183500  0.781500  0.353300  1.0
  N  N1845  1  0.750900  0.270900  0.666667  1.0
  N  N1846  1  0.249100  0.729100  0.333333  1.0
  N  N1847  1  0.166300  0.382200  0.596600  1.0
  N  N1848  1  0.833700  0.617800  0.403400  1.0
  N  N1849  1  0.222100  0.322800  0.580200  1.0
  N  N1850  1  0.777900  0.677200  0.419800  1.0
  N  N1851  1  0.333700  0.328400  0.614800  1.0
  N  N1852  1  0.666300  0.671600  0.385200  1.0
  N  N1853  1  0.633700  0.525500  0.907400  1.0
  N  N1854  1  0.366300  0.474500  0.092600  1.0
  N  N1855  1  0.528700  0.476000  0.885600  1.0
  N  N1856  1  0.471300  0.524000  0.114400  1.0
  N  N1857  1  0.534800  0.440400  0.825400  1.0
  N  N1858  1  0.465200  0.559600  0.174600  1.0
  N  N1859  1  0.559800  0.355400  0.700900  1.0
  N  N1860  1  0.440200  0.644600  0.299100  1.0
  N  N1861  1  0.315400  0.406200  0.578100  1.0
  N  N1862  1  0.684600  0.593800  0.421900  1.0
  N  N1863  1  0.289800  0.426000  0.639300  1.0
  N  N1864  1  0.710200  0.574000  0.360700  1.0
  N  N1865  1  0.249000  0.364000  0.668500  1.0
  N  N1866  1  0.751000  0.636000  0.331500  1.0
  N  N1867  1  0.155700  0.274300  0.947900  1.0
  N  N1868  1  0.844300  0.725700  0.052100  1.0
  N  N1869  1  0.178600  0.208300  0.920700  1.0
  N  N1870  1  0.821400  0.791700  0.079300  1.0
  N  N1871  1  0.187800  0.204600  0.856100  1.0
  N  N1872  1  0.812200  0.795400  0.143900  1.0
  N  N1873  1  0.294900  0.965700  0.637400  1.0
  N  N1874  1  0.705100  0.034300  0.362600  1.0
  N  N1875  1  0.345400  0.031300  0.615200  1.0
  N  N1876  1  0.654600  0.968700  0.384800  1.0
  N  N1877  1  0.306800  0.092900  0.644000  1.0
  N  N1878  1  0.693200  0.907100  0.356000  1.0
  N  N1879  1  0.233200  0.219200  0.723000  1.0
  N  N1880  1  0.766800  0.780800  0.277000  1.0
  N  N1881  1  0.055400  0.221300  0.879800  1.0
  N  N1882  1  0.944600  0.778700  0.120200  1.0
  N  N1883  1  0.123500  0.291800  0.872500  1.0
  N  N1884  1  0.876500  0.708200  0.127500  1.0
  N  N1885  1  0.245200  0.299100  0.891100  1.0
  N  N1886  1  0.754800  0.700900  0.108900  1.0
  N  N1887  1  0.613900  0.529100  0.826400  1.0
  N  N1888  1  0.386100  0.470900  0.173600  1.0
  N  N1889  1  0.697400  0.493000  0.851000  1.0
  N  N1890  1  0.302600  0.507000  0.149000  1.0
  N  N1891  1  0.655600  0.432700  0.880200  1.0
  N  N1892  1  0.344400  0.567300  0.119800  1.0
  N  N1893  1  0.738400  0.097800  0.901200  1.0
  N  N1894  1  0.261600  0.902200  0.098800  1.0
  N  N1895  1  0.615200  0.088800  0.906200  1.0
  N  N1896  1  0.384800  0.911200  0.093800  1.0
  N  N1897  1  0.580600  0.156700  0.917400  1.0
  N  N1898  1  0.419400  0.843300  0.082600  1.0
  N  N1899  1  0.506700  0.305300  0.930300  1.0
  N  N1900  1  0.493300  0.694700  0.069700  1.0
  N  N1901  1  0.699700  0.154900  0.969000  1.0
  N  N1902  1  0.300300  0.845100  0.031000  1.0
  N  N1903  1  0.748900  0.195500  0.922300  1.0
  N  N1904  1  0.251100  0.804500  0.077700  1.0
  N  N1905  1  0.689100  0.168300  0.862800  1.0
  N  N1906  1  0.310900  0.831700  0.137200  1.0
  N  N1907  1  0.812500  0.270800  0.591300  1.0
  N  N1908  1  0.187500  0.729200  0.408700  1.0
  N  N1909  1  0.689200  0.242900  0.580800  1.0
  N  N1910  1  0.310800  0.757100  0.419200  1.0
  N  N1911  1  0.641100  0.200300  0.626100  1.0
  N  N1912  1  0.358900  0.799700  0.373900  1.0
  N  N1913  1  0.191800  0.016700  0.607200  1.0
  N  N1914  1  0.808200  0.983300  0.392800  1.0
  N  N1915  1  0.192900  0.015000  0.671700  1.0
  N  N1916  1  0.807100  0.985000  0.328300  1.0
  N  N1917  1  0.308400  0.035700  0.700600  1.0
  N  N1918  1  0.691600  0.964300  0.299400  1.0
  N  N1919  1  0.565400  0.116200  0.732400  1.0
  N  N1920  1  0.434600  0.883800  0.267600  1.0
  N  N1921  1  0.342000  0.611200  0.977500  1.0
  N  N1922  1  0.658000  0.388800  0.022500  1.0
  N  N1923  1  0.900400  0.809600  0.530200  1.0
  N  N1924  1  0.099600  0.190400  0.469800  1.0
  N  N1925  1  0.511000  0.874100  0.914200  1.0
  N  N1926  1  0.489000  0.125900  0.085800  1.0
  N  N1927  1  0.399000  0.313100  0.530800  1.0
  N  N1928  1  0.601000  0.686900  0.469200  1.0
  N  N1929  1  0.829000  0.124000  0.986100  1.0
  N  N1930  1  0.171000  0.876000  0.013900  1.0
  N  N1931  1  0.509000  0.892800  0.013000  1.0
  N  N1932  1  0.491000  0.107200  0.987000  1.0
  N  N1933  1  0.247000  0.743300  0.757900  0.5
  N  N1934  1  0.753000  0.256700  0.242100  0.5
  N  N1935  1  0.885800  0.665400  0.792600  0.5
  N  N1936  1  0.114200  0.334600  0.207400  0.5
  N  N1937  1  0.423000  0.708900  0.545500  0.5
  N  N1938  1  0.577000  0.291100  0.454500  0.5
  N  N1939  1  0.986000  0.165800  0.975400  0.5
  N  N1940  1  0.014000  0.834200  0.024600  0.5
  N  N1941  1  0.534000  0.779300  0.764500  0.5
  N  N1942  1  0.466000  0.220700  0.235500  0.5
  N  N1943  1  0.707000  0.290500  0.869800  0.5
  N  N1944  1  0.293000  0.709500  0.130200  0.5
  N  N1945  1  0.792000  0.108000  0.664300  0.5
  N  N1946  1  0.208000  0.892000  0.335700  0.5
  N  N1947  1  0.895000  0.793300  0.805000  0.5
  N  N1948  1  0.105000  0.206700  0.195000  0.5
  N  N1949  1  0.130000  0.434000  0.787000  0.5
  N  N1950  1  0.870000  0.566000  0.213000  0.5
  O  O1951  1  0.780200  0.564100  0.514500  0.5
  O  O1952  1  0.219800  0.435900  0.485500  0.5
  O  O1953  1  0.475000  0.281100  0.804700  0.5
  O  O1954  1  0.525000  0.718900  0.195300  0.5
  F  F1955  1  0.339700  0.380300  0.798600  0.304
  F  F1956  1  0.660300  0.619700  0.201400  0.304
  F  F1957  1  0.281000  0.403500  0.836800  0.304
  F  F1958  1  0.719000  0.596500  0.163200  0.304
  F  F1959  1  0.252000  0.340500  0.811800  0.304
  F  F1960  1  0.748000  0.659500  0.188200  0.304
  F  F1961  1  0.243000  0.390400  0.782600  0.304
  F  F1962  1  0.757000  0.609600  0.217400  0.304
  F  F1963  1  0.575000  0.015300  0.824200  0.36
  F  F1964  1  0.425000  0.984700  0.175800  0.36
  F  F1965  1  0.560000  0.996000  0.769600  0.36
  F  F1966  1  0.440000  0.004000  0.230400  0.36
  F  F1967  1  0.530000  0.951500  0.805000  0.36
  F  F1968  1  0.470000  0.048500  0.195000  0.36
  F  F1969  1  0.286000  0.592800  0.719300  0.52
  F  F1970  1  0.714000  0.407200  0.280700  0.52
  F  F1971  1  0.304000  0.603700  0.667000  0.52
  F  F1972  1  0.696000  0.396300  0.333000  0.52
  F  F1973  1  0.386000  0.615600  0.707000  0.52
  F  F1974  1  0.614000  0.384400  0.293000  0.52
  F  F1975  1  0.840300  0.943400  0.925900  0.54
  F  F1976  1  0.159700  0.056600  0.074100  0.54
  F  F1977  1  0.740000  0.913900  0.906800  0.54
  F  F1978  1  0.260000  0.086100  0.093200  0.54
  F  F1979  1  0.781300  0.901400  0.955700  0.54
  F  F1980  1  0.218700  0.098600  0.044300  0.54
  F  F1981  1  0.757000  0.960600  0.950900  0.54
  F  F1982  1  0.243000  0.039400  0.049100  0.54
  F  F1983  1  0.314300  0.654900  0.705700  1.0
  F  F1984  1  0.685700  0.345100  0.294300  1.0
  F  F1985  1  0.356500  0.204800  0.590100  1.0
  F  F1986  1  0.643500  0.795200  0.409900  1.0
  F  F1987  1  0.432600  0.172400  0.572900  1.0
  F  F1988  1  0.567400  0.827600  0.427100  1.0
  F  F1989  1  0.445400  0.238500  0.573800  1.0
  F  F1990  1  0.554600  0.761500  0.426200  1.0
  F  F1991  1  0.448400  0.211900  0.621900  1.0
  F  F1992  1  0.551600  0.788100  0.378100  1.0
  F  F1993  1  0.383400  0.954000  0.983200  1.0
  F  F1994  1  0.616600  0.046000  0.016800  1.0
  F  F1995  1  0.399700  0.991500  0.941700  1.0
  F  F1996  1  0.600300  0.008500  0.058300  1.0
  F  F1997  1  0.308800  0.945200  0.940600  1.0
  F  F1998  1  0.691200  0.054800  0.059400  1.0
  F  F1999  1  0.402900  0.927200  0.933100  1.0
  F  F2000  1  0.597100  0.072800  0.066900  1.0
  F  F2001  1  0.764200  0.218400  0.738000  1.0
  F  F2002  1  0.235800  0.781600  0.262000  1.0
  F  F2003  1  0.801500  0.213200  0.789800  1.0
  F  F2004  1  0.198500  0.786800  0.210200  1.0
  F  F2005  1  0.842400  0.266300  0.764800  1.0
  F  F2006  1  0.157600  0.733700  0.235200  1.0
  F  F2007  1  0.742300  0.258400  0.780300  1.0
  F  F2008  1  0.257700  0.741600  0.219700  1.0
  F  F2009  1  0.944600  0.670800  0.572000  1.0
  F  F2010  1  0.055400  0.329200  0.428000  1.0
  F  F2011  1  0.312700  0.813900  0.887500  1.0
  F  F2012  1  0.687300  0.186100  0.112500  1.0
  F  F2013  1  0.217900  0.771100  0.882400  1.0
  F  F2014  1  0.782100  0.228900  0.117600  1.0
  F  F2015  1  0.234800  0.818900  0.849200  1.0
  F  F2016  1  0.765200  0.181100  0.150800  1.0
  F  F2017  1  0.284600  0.767900  0.842800  1.0
  F  F2018  1  0.715400  0.232100  0.157200  1.0
  F  F2019  1  0.580000  0.024100  0.807000  0.14
  F  F2020  1  0.420000  0.975900  0.193000  0.14
  F  F2021  1  0.538000  0.964000  0.822000  0.14
  F  F2022  1  0.462000  0.036000  0.178000  0.14
  F  F2023  1  0.546000  0.972000  0.768100  0.14
  F  F2024  1  0.454000  0.028000  0.231900  0.14
  F  F2025  1  0.865000  0.916000  0.829200  0.15
  F  F2026  1  0.135000  0.084000  0.170800  0.15
  F  F2027  1  0.822000  0.927000  0.780000  0.15
  F  F2028  1  0.178000  0.073000  0.220000  0.15
  F  F2029  1  0.787000  0.870000  0.800000  0.15
  F  F2030  1  0.213000  0.130000  0.200000  0.15
  F  F2031  1  0.884000  0.883000  0.781000  0.15
  F  F2032  1  0.116000  0.117000  0.219000  0.15
  F  F2033  1  0.332000  0.370600  0.825300  0.196
  F  F2034  1  0.668000  0.629400  0.174700  0.196
  F  F2035  1  0.297000  0.394200  0.779500  0.196
  F  F2036  1  0.703000  0.605800  0.220500  0.196
  F  F2037  1  0.258000  0.407300  0.828200  0.196
  F  F2038  1  0.742000  0.592700  0.171800  0.196
  F  F2039  1  0.233000  0.345400  0.801100  0.196
  F  F2040  1  0.767000  0.654600  0.198900  0.196
  F  F2041  1  0.870000  0.608000  0.890000  0.21
  F  F2042  1  0.130000  0.392000  0.110000  0.21
  F  F2043  1  0.847000  0.653000  0.928800  0.21
  F  F2044  1  0.153000  0.347000  0.071200  0.21
  F  F2045  1  0.849000  0.665000  0.876000  0.21
  F  F2046  1  0.151000  0.335000  0.124000  0.21
  F  F2047  1  0.770400  0.618000  0.889900  0.21
  F  F2048  1  0.229600  0.382000  0.110100  0.21
  F  F2049  1  0.062000  0.615000  0.498200  0.25
  F  F2050  1  0.938000  0.385000  0.501800  0.25
  F  F2051  1  0.052000  0.613000  0.552500  0.25
  F  F2052  1  0.948000  0.387000  0.447500  0.25
  F  F2053  1  0.146100  0.610000  0.533000  0.25
  F  F2054  1  0.853900  0.390000  0.467000  0.25
  F  F2055  1  0.064000  0.558200  0.520600  0.25
  F  F2056  1  0.936000  0.441800  0.479400  0.25
  F  F2057  1  0.247000  0.377600  0.959200  0.31
  F  F2058  1  0.753000  0.622400  0.040800  0.31
  F  F2059  1  0.237000  0.404100  0.910900  0.31
  F  F2060  1  0.763000  0.595900  0.089100  0.31
  F  F2061  1  0.300000  0.438700  0.954400  0.31
  F  F2062  1  0.700000  0.561300  0.045600  0.31
  F  F2063  1  0.194000  0.427000  0.956400  0.31
  F  F2064  1  0.806000  0.573000  0.043600  0.31
  F  F2065  1  0.833000  0.480000  0.759000  0.31
  F  F2066  1  0.167000  0.520000  0.241000  0.31
  F  F2067  1  0.732000  0.466000  0.772000  0.31
  F  F2068  1  0.268000  0.534000  0.228000  0.31
  F  F2069  1  0.767000  0.423000  0.735500  0.31
  F  F2070  1  0.233000  0.577000  0.264500  0.31
  F  F2071  1  0.802000  0.430000  0.789800  0.31
  F  F2072  1  0.198000  0.570000  0.210200  0.31
  F  F2073  1  0.090000  0.625900  0.554200  0.31
  F  F2074  1  0.910000  0.374100  0.445800  0.31
  F  F2075  1  0.086000  0.562400  0.535000  0.31
  F  F2076  1  0.914000  0.437600  0.465000  0.31
  F  F2077  1  0.020400  0.596300  0.510700  0.31
  F  F2078  1  0.979600  0.403700  0.489300  0.31
  F  F2079  1  0.126000  0.610600  0.505000  0.31
  F  F2080  1  0.874000  0.389400  0.495000  0.31
  F  F2081  1  0.344000  0.176500  0.899300  0.33
  F  F2082  1  0.656000  0.823500  0.100700  0.33
  F  F2083  1  0.370000  0.123100  0.918500  0.33
  F  F2084  1  0.630000  0.876900  0.081500  0.33
  F  F2085  1  0.402000  0.140400  0.869700  0.33
  F  F2086  1  0.598000  0.859600  0.130300  0.33
  F  F2087  1  0.297300  0.115800  0.874600  0.33
  F  F2088  1  0.702700  0.884200  0.125400  0.33
  F  F2089  1  0.115000  0.654300  0.113900  0.38
  F  F2090  1  0.885000  0.345700  0.886100  0.38
  F  F2091  1  0.163900  0.604200  0.119800  0.38
  F  F2092  1  0.836100  0.395800  0.880200  0.38
  F  F2093  1  0.085000  0.612900  0.152000  0.38
  F  F2094  1  0.915000  0.387100  0.848000  0.38
  F  F2095  1  0.062000  0.592100  0.097400  0.38
  F  F2096  1  0.938000  0.407900  0.902600  0.38
  F  F2097  1  0.880000  0.715300  0.574600  0.41
  F  F2098  1  0.120000  0.284700  0.425400  0.41
  F  F2099  1  0.986400  0.735400  0.587800  0.41
  F  F2100  1  0.013600  0.264600  0.412200  0.41
  F  F2101  1  0.928000  0.699000  0.621200  0.41
  F  F2102  1  0.072000  0.301000  0.378800  0.41
  F  F2103  1  0.080000  0.606800  0.559800  0.44
  F  F2104  1  0.920000  0.393200  0.440200  0.44
  F  F2105  1  0.136200  0.587100  0.518400  0.44
  F  F2106  1  0.863800  0.412900  0.481600  0.44
  F  F2107  1  0.028600  0.569600  0.513500  0.44
  F  F2108  1  0.971400  0.430400  0.486500  0.44
  F  F2109  1  0.077000  0.632300  0.510900  0.44
  F  F2110  1  0.923000  0.367700  0.489100  0.44
  F  F2111  1  0.778000  0.919600  0.901600  0.46
  F  F2112  1  0.222000  0.080400  0.098400  0.46
  F  F2113  1  0.720900  0.932100  0.945100  0.46
  F  F2114  1  0.279100  0.067900  0.054900  0.46
  F  F2115  1  0.818000  0.968100  0.942800  0.46
  F  F2116  1  0.182000  0.031900  0.057200  0.46
  F  F2117  1  0.807100  0.904800  0.952500  0.46
  F  F2118  1  0.192900  0.095200  0.047500  0.46
  F  F2119  1  0.343000  0.609000  0.669500  0.48
  F  F2120  1  0.657000  0.391000  0.330500  0.48
  F  F2121  1  0.266800  0.590500  0.703000  0.48
  F  F2122  1  0.733200  0.409500  0.297000  0.48
  F  F2123  1  0.369000  0.612000  0.724400  0.48
  F  F2124  1  0.631000  0.388000  0.275600  0.48
  F  F2125  1  0.634100  0.974800  0.801700  0.5
  F  F2126  1  0.365900  0.025200  0.198300  0.5
  F  F2127  1  0.492700  0.461300  0.491500  0.5
  F  F2128  1  0.507300  0.538700  0.508500  0.5
  F  F2129  1  0.499600  0.411600  0.452900  0.5
  F  F2130  1  0.500400  0.588400  0.547100  0.5
  F  F2131  1  0.512500  0.405000  0.507800  0.5
  F  F2132  1  0.487500  0.595000  0.492200  0.5
  F  F2133  1  0.587400  0.444300  0.484600  0.5
  F  F2134  1  0.412600  0.555700  0.515400  0.5
  F  F2135  1  0.036900  0.038300  0.844500  0.5
  F  F2136  1  0.963100  0.961700  0.155500  0.5
  F  F2137  1  0.988800  0.079700  0.874500  0.5
  F  F2138  1  0.011200  0.920300  0.125500  0.5
  F  F2139  1  0.082300  0.103000  0.855400  0.5
  F  F2140  1  0.917700  0.897000  0.144600  0.5
  F  F2141  1  0.078700  0.064300  0.896400  0.5
  F  F2142  1  0.921300  0.935700  0.103600  0.5
  F  F2143  1  0.895400  0.060100  0.514400  0.5
  F  F2144  1  0.104600  0.939900  0.485600  0.5
  F  F2145  1  0.983200  0.087600  0.548700  0.5
  F  F2146  1  0.016800  0.912400  0.451300  0.5
  F  F2147  1  0.974200  0.101800  0.495800  0.5
  F  F2148  1  0.025800  0.898200  0.504200  0.5
  F  F2149  1  0.988300  0.041800  0.506500  0.5
  F  F2150  1  0.011700  0.958200  0.493500  0.5
  F  F2151  1  0.427100  0.464900  0.697700  0.5
  F  F2152  1  0.572900  0.535100  0.302300  0.5
  F  F2153  1  0.479700  0.467800  0.748200  0.5
  F  F2154  1  0.520300  0.532200  0.251800  0.5
  F  F2155  1  0.375600  0.438400  0.738100  0.5
  F  F2156  1  0.624400  0.561600  0.261900  0.5
  F  F2157  1  0.406000  0.504700  0.741100  0.5
  F  F2158  1  0.594000  0.495300  0.258900  0.5
  F  F2159  1  0.071000  0.304900  0.614900  0.5
  F  F2160  1  0.929000  0.695100  0.385100  0.5
  F  F2161  1  0.107400  0.248300  0.608800  0.5
  F  F2162  1  0.892600  0.751700  0.391200  0.5
  F  F2163  1  0.058000  0.264100  0.653900  0.5
  F  F2164  1  0.942000  0.735900  0.346100  0.5
  F  F2165  1  0.002200  0.246700  0.603600  0.5
  F  F2166  1  0.997800  0.753300  0.396400  0.5
  F  F2167  1  0.870000  0.702200  0.592500  0.59
  F  F2168  1  0.130000  0.297800  0.407500  0.59
  F  F2169  1  0.968200  0.713400  0.619200  0.59
  F  F2170  1  0.031800  0.286600  0.380800  0.59
  F  F2171  1  0.952000  0.735000  0.569100  0.59
  F  F2172  1  0.048000  0.265000  0.430900  0.59
  F  F2173  1  0.042100  0.603400  0.124700  0.62
  F  F2174  1  0.957900  0.396600  0.875300  0.62
  F  F2175  1  0.137200  0.629400  0.152300  0.62
  F  F2176  1  0.862800  0.370600  0.847700  0.62
  F  F2177  1  0.114100  0.646800  0.102200  0.62
  F  F2178  1  0.885900  0.353200  0.897800  0.62
  F  F2179  1  0.130000  0.585200  0.106000  0.62
  F  F2180  1  0.870000  0.414800  0.894000  0.62
  F  F2181  1  0.839600  0.628100  0.928900  0.79
  F  F2182  1  0.160400  0.371900  0.071100  0.79
  F  F2183  1  0.838200  0.675900  0.895900  0.79
  F  F2184  1  0.161800  0.324100  0.104100  0.79
  F  F2185  1  0.881000  0.623700  0.879200  0.79
  F  F2186  1  0.119000  0.376300  0.120800  0.79
  F  F2187  1  0.775000  0.616100  0.881400  0.79
  F  F2188  1  0.225000  0.383900  0.118600  0.79
  F  F2189  1  0.795500  0.864200  0.793900  0.35
  F  F2190  1  0.204500  0.135800  0.206100  0.35
  F  F2191  1  0.884000  0.898500  0.824300  0.35
  F  F2192  1  0.116000  0.101500  0.175700  0.35
  F  F2193  1  0.870000  0.903800  0.769400  0.35
  F  F2194  1  0.130000  0.096200  0.230600  0.35
  F  F2195  1  0.810000  0.930400  0.805700  0.35
  F  F2196  1  0.190000  0.069600  0.194300  0.35
  F  F2197  1  0.405800  0.124000  0.880700  0.67
  F  F2198  1  0.594200  0.876000  0.119300  0.67
  F  F2199  1  0.299100  0.109400  0.885200  0.67
  F  F2200  1  0.700900  0.890600  0.114800  0.67
  F  F2201  1  0.364200  0.153800  0.923000  0.67
  F  F2202  1  0.635800  0.846200  0.077000  0.67
  F  F2203  1  0.345700  0.167800  0.870500  0.67
  F  F2204  1  0.654300  0.832200  0.129500  0.67
  F  F2205  1  0.243600  0.446200  0.964800  0.69
  F  F2206  1  0.756400  0.553800  0.035200  0.69
  F  F2207  1  0.278600  0.419000  0.918500  0.69
  F  F2208  1  0.721400  0.581000  0.081500  0.69
  F  F2209  1  0.268500  0.386200  0.963500  0.69
  F  F2210  1  0.731500  0.613800  0.036500  0.69
  F  F2211  1  0.180900  0.395000  0.933100  0.69
  F  F2212  1  0.819100  0.605000  0.066900  0.69
  F  F2213  1  0.846600  0.468400  0.768600  0.69
  F  F2214  1  0.153400  0.531600  0.231400  0.69
  F  F2215  1  0.766900  0.437400  0.730400  0.69
  F  F2216  1  0.233100  0.562600  0.269600  0.69
  F  F2217  1  0.773000  0.416900  0.780800  0.69
  F  F2218  1  0.227000  0.583100  0.219200  0.69
  F  F2219  1  0.745300  0.475000  0.774900  0.69
  F  F2220  1  0.254700  0.525000  0.225100  0.69
