
#######################################################################
#
#                 Cambridge Crystallographic Data Centre
#                                CCDC 
#
#######################################################################
#
# If this CIF has been generated from an entry in the Cambridge 
# Structural Database, then it will include bibliographic, chemical, 
# crystal, experimental, refinement or atomic coordinate data resulting 
# from the CCDC's data processing and validation procedures.
#
#######################################################################

data_INERUO
_chemical_formula_moiety         
'C40 H52 N4 P4 Pt2 4+,4(C1 F3 O3 S1 1-),C1 H3 N1 O2'
_chemical_name_systematic        
'bis(\m-1,4-bis(3-Pyridyl)buta-1,3-diyne)-tetrakis(trimethylphosphine)-di-platinum(ii) tetrakis(trifluoromethanesulfonate) nitromethane solvate'
_symmetry_cell_setting           triclinic
_symmetry_space_group_name_H-M   'P -1'
_symmetry_Int_Tables_number      2
_space_group_name_Hall           '-P 1'
loop_
_symmetry_equiv_pos_site_id
_symmetry_equiv_pos_as_xyz
1 x,y,z
2 -x,-y,-z
_cell_length_a                   8.7232(3)
_cell_length_b                   8.9406(2)
_cell_length_c                   21.7964(6)
_cell_angle_alpha                96.0857(16)
_cell_angle_beta                 99.7545(12)
_cell_angle_gamma                100.5578(16)
_cell_volume                     1630.41
_exptl_crystal_colour            colorless
_exptl_crystal_description       plate
_cell_formula_units_Z            1
_exptl_crystal_recrystallization_method nitromethane/ether
loop_
_atom_site_label
_atom_site_type_symbol
_atom_site_fract_x
_atom_site_fract_y
_atom_site_fract_z
S2 S 0.2201(3) 0.7294(2) 0.30222(12)
O4 O 0.2856(9) 0.6547(8) 0.2568(3)
O5 O 0.3397(14) 0.737(2) 0.3654(8)
O6 O 0.1835(19) 0.8669(11) 0.2939(9)
F4 F -0.0164(7) 0.6463(7) 0.3557(3)
F5 F 0.077(4) 0.4669(16) 0.3194(17)
F6 F -0.039(3) 0.621(5) 0.2614(14)
C2 C 0.0580(11) 0.5940(11) 0.3105(5)
O7 O 0.781(3) 0.290(3) 0.5000(13)
O8 O 0.799(2) 0.305(2) 0.4101(9)
N1 N 0.863(3) 0.334(3) 0.4648(12)
C3 C 1.018(5) 0.447(6) 0.491(4)
H1 H 1.0934 0.4376 0.4626
H2 H 1.0636 0.4259 0.5326
H3 H 0.9988 0.5522 0.4944
C3A C 0.982(5) 0.553(6) 0.509(4)
N1A N 1.137(3) 0.666(3) 0.5352(12)
O7A O 1.219(3) 0.710(3) 0.5000(13)
O8A O 1.201(2) 0.695(2) 0.5899(9)
H1A H 0.9066 0.5624 0.5374
H2A H 0.9364 0.5741 0.4674
H3A H 1.0012 0.4478 0.5056
Pt1 Pt 0.48456(2) 0.04343(2) 0.209523(8)
P1 P 0.49941(16) -0.17046(14) 0.14727(6)
P2 P 0.27260(15) 0.09392(14) 0.14626(6)
N2 N 0.4875(5) 0.2320(5) 0.27745(19)
N3 N 0.6840(5) 0.0206(5) 0.27492(18)
C4 C 0.5739(7) 0.3717(6) 0.2779(2)
H4 H 0.6268 0.3916 0.2441
C5 C 0.5874(9) 0.4875(7) 0.3266(3)
H5 H 0.6464 0.5873 0.3254
C6 C 0.5162(9) 0.4596(7) 0.3767(3)
H6 H 0.5247 0.5395 0.4103
C7 C 0.4311(8) 0.3122(6) 0.3778(2)
C8 C 0.4178(6) 0.2024(6) 0.3266(2)
H7 H 0.3573 0.1023 0.3261
C9 C 0.3634(8) 0.2698(7) 0.4306(3)
C10 C 0.3180(8) 0.2268(7) 0.4755(2)
C11 C 0.2724(8) 0.1718(7) 0.5275(3)
C12 C 0.2390(7) 0.1227(7) 0.5732(3)
C13 C 0.2070(7) 0.0518(6) 0.6270(2)
C14 C 0.0562(7) -0.0190(7) 0.6330(3)
H8 H -0.0338 -0.0168 0.6020
C15 C 0.0381(7) -0.0928(7) 0.6848(3)
H9 H -0.0645 -0.1424 0.6894
C16 C 0.8306(7) 0.0940(6) 0.2706(3)
H10 H 0.8433 0.1478 0.2359
C17 C 0.6652(7) -0.0498(6) 0.3251(2)
H11 H 0.5616 -0.0999 0.3283
C18 C 0.6042(8) -0.2918(6) 0.1919(3)
H12 H 0.5525 -0.3165 0.2272
H13 H 0.7145 -0.2380 0.2080
H14 H 0.6027 -0.3869 0.1647
C19 C 0.3161(7) -0.2999(6) 0.1096(3)
H15 H 0.3395 -0.3944 0.0896
H16 H 0.2581 -0.2509 0.0776
H17 H 0.2510 -0.3249 0.1410
C20 C 0.6096(7) -0.1316(6) 0.0857(3)
H18 H 0.6208 -0.2288 0.0633
H19 H 0.7151 -0.0691 0.1041
H20 H 0.5526 -0.0759 0.0561
C21 C 0.0862(7) -0.0280(7) 0.1506(3)
H21 H 0.0778 -0.0303 0.1948
H22 H 0.0817 -0.1324 0.1304
H23 H -0.0020 0.0126 0.1291
C22 C 0.2442(7) 0.2864(6) 0.1674(3)
H24 H 0.3393 0.3608 0.1644
H25 H 0.2258 0.2984 0.2106
H26 H 0.1522 0.3044 0.1387
C23 C 0.2759(7) 0.0873(6) 0.0635(2)
H27 H 0.1783 0.1129 0.0417
H28 H 0.2832 -0.0163 0.0460
H29 H 0.3681 0.1616 0.0577
C16A C 0.1694(7) -0.0940(6) 0.7294(3)
N3A N 0.3160(5) -0.0206(5) 0.72508(18)
Pt1A Pt 0.51544(2) -0.04343(2) 0.790477(8)
P1A P 0.50059(16) 0.17046(14) 0.85273(6)
C18A C 0.3958(8) 0.2918(6) 0.8081(3)
H12A H 0.4475 0.3165 0.7728
H13A H 0.2855 0.2380 0.7920
H14A H 0.3973 0.3869 0.8353
C19A C 0.6839(7) 0.2999(6) 0.8904(3)
H15A H 0.6605 0.3944 0.9104
H16A H 0.7419 0.2509 0.9224
H17A H 0.7490 0.3249 0.8590
C20A C 0.3904(7) 0.1316(6) 0.9143(3)
H18A H 0.3792 0.2288 0.9367
H19A H 0.2849 0.0691 0.8959
H20A H 0.4474 0.0759 0.9439
P2A P 0.72740(15) -0.09392(14) 0.85374(6)
C21A C 0.9138(7) 0.0280(7) 0.8494(3)
H21A H 0.9222 0.0303 0.8052
H22A H 0.9183 0.1324 0.8696
H23A H 1.0020 -0.0126 0.8709
C22A C 0.7558(7) -0.2864(6) 0.8326(3)
H24A H 0.6607 -0.3608 0.8356
H25A H 0.7742 -0.2984 0.7894
H26A H 0.8478 -0.3044 0.8613
C23A C 0.7241(7) -0.0873(6) 0.9365(2)
H27A H 0.8217 -0.1129 0.9583
H28A H 0.7168 0.0163 0.9540
H29A H 0.6319 -0.1616 0.9423
N2A N 0.5125(5) -0.2320(5) 0.72255(19)
C4A C 0.4261(7) -0.3717(6) 0.7221(2)
H4A H 0.3732 -0.3916 0.7559
C5A C 0.4126(9) -0.4875(7) 0.6734(3)
H5A H 0.3536 -0.5873 0.6746
C6A C 0.4838(9) -0.4596(7) 0.6233(3)
H6A H 0.4753 -0.5395 0.5897
C7A C 0.5689(8) -0.3122(6) 0.6222(2)
C8A C 0.5822(6) -0.2024(6) 0.6734(2)
H7A H 0.6427 -0.1023 0.6739
C9A C 0.6366(8) -0.2698(7) 0.5694(3)
C10A C 0.6820(8) -0.2268(7) 0.5245(2)
C11A C 0.7276(8) -0.1718(7) 0.4725(3)
C12A C 0.7610(7) -0.1227(7) 0.4268(3)
C13A C 0.7930(7) -0.0518(6) 0.3730(2)
C14A C 0.9438(7) 0.0190(7) 0.3670(3)
H8A H 1.0338 0.0168 0.3980
C15A C 0.9619(7) 0.0928(7) 0.3152(3)
H9A H 1.0645 0.1424 0.3106
C17A C 0.3348(7) 0.0498(6) 0.6749(2)
H11A H 0.4384 0.0999 0.6717
H10A H 0.1567 -0.1478 0.7641
S1 S 0.73232(15) 0.30048(14) 0.09848(6)
O1 O 0.8420(5) 0.2375(5) 0.1400(2)
O2 O 0.6157(5) 0.3589(5) 0.1272(2)
O3 O 0.6725(5) 0.2103(5) 0.03792(19)
F1 F 0.9755(5) 0.4354(5) 0.0552(2)
F2 F 0.9178(6) 0.5735(5) 0.1307(2)
F3 F 0.7731(5) 0.5399(4) 0.03861(19)
C1 C 0.8555(7) 0.4718(7) 0.0803(3)
O9? O 0.262(3) 0.829(4) 0.3460(11)
O10? O 0.100(5) 0.811(5) 0.2630(18)
F7? F 0.116(4) 0.482(3) 0.3404(14)
F8? F -0.043(3) 0.533(4) 0.2629(9)
loop_
_geom_bond_atom_site_label_1
_geom_bond_atom_site_label_2
_geom_bond_site_symmetry_1
_geom_bond_site_symmetry_2
S1 O1 1_555 1_555
O2 S1 1_555 1_555
O3 S1 1_555 1_555
F1 C1 1_555 1_555
F2 C1 1_555 1_555
F3 C1 1_555 1_555
C1 S1 1_555 1_555
S2 O4 1_555 1_555
O5 S2 1_555 1_555
O6 S2 1_555 1_555
F4 C2 1_555 1_555
F5 C2 1_555 1_555
F6 C2 1_555 1_555
C2 S2 1_555 1_555
O7 N1 1_555 1_555
O8 N1 1_555 1_555
N1 C3 1_555 1_555
C3 H1 1_555 1_555
H2 C3 1_555 1_555
H3 C3 1_555 1_555
Pt1 P1 1_555 1_555
P1 C18 1_555 1_555
P2 Pt1 1_555 1_555
N2 Pt1 1_555 1_555
N3 Pt1 1_555 1_555
C4 N2 1_555 1_555
H4 C4 1_555 1_555
C5 C4 1_555 1_555
H5 C5 1_555 1_555
C6 C5 1_555 1_555
H6 C6 1_555 1_555
C7 C6 1_555 1_555
C8 N2 1_555 1_555
H7 C8 1_555 1_555
C9 C7 1_555 1_555
C10 C9 1_555 1_555
C11 C10 1_555 1_555
C12 C11 1_555 1_555
C13 C12 1_555 1_555
C14 C13 1_555 1_555
H8 C14 1_555 1_555
C15 C14 1_555 1_555
H9 C15 1_555 1_555
C16 N3 1_555 1_555
H10 C16 1_555 1_555
C17 N3 1_555 1_555
H11 C17 1_555 1_555
C18 H12 1_555 1_555
H13 C18 1_555 1_555
H14 C18 1_555 1_555
C19 P1 1_555 1_555
H15 C19 1_555 1_555
H16 C19 1_555 1_555
H17 C19 1_555 1_555
C20 P1 1_555 1_555
H18 C20 1_555 1_555
H19 C20 1_555 1_555
H20 C20 1_555 1_555
C21 P2 1_555 1_555
H21 C21 1_555 1_555
H22 C21 1_555 1_555
H23 C21 1_555 1_555
C22 P2 1_555 1_555
H24 C22 1_555 1_555
H25 C22 1_555 1_555
H26 C22 1_555 1_555
C23 P2 1_555 1_555
H27 C23 1_555 1_555
H28 C23 1_555 1_555
H29 C23 1_555 1_555
C3A C3 1_555 1_555
N1A C3A 1_555 1_555
O7A N1A 1_555 1_555
O8A N1A 1_555 1_555
H1A C3A 1_555 1_555
H2A C3A 1_555 1_555
H3A C3 1_555 1_555
C16A C15 1_555 1_555
N3A C16A 1_555 1_555
Pt1A N3A 1_555 1_555
P1A Pt1A 1_555 1_555
C18A P1A 1_555 1_555
H12A C18A 1_555 1_555
H13A C18A 1_555 1_555
H14A C18A 1_555 1_555
C19A P1A 1_555 1_555
H15A C19A 1_555 1_555
H16A C19A 1_555 1_555
H17A C19A 1_555 1_555
C20A P1A 1_555 1_555
H18A C20A 1_555 1_555
H19A C20A 1_555 1_555
H20A C20A 1_555 1_555
P2A Pt1A 1_555 1_555
C21A P2A 1_555 1_555
H21A C21A 1_555 1_555
H22A C21A 1_555 1_555
H23A C21A 1_555 1_555
C22A P2A 1_555 1_555
H24A C22A 1_555 1_555
H25A C22A 1_555 1_555
H26A C22A 1_555 1_555
C23A P2A 1_555 1_555
H27A C23A 1_555 1_555
H28A C23A 1_555 1_555
H29A C23A 1_555 1_555
N2A Pt1A 1_555 1_555
C4A N2A 1_555 1_555
H4A C4A 1_555 1_555
C5A C4A 1_555 1_555
H5A C5A 1_555 1_555
C6A C5A 1_555 1_555
H6A C6A 1_555 1_555
C7A C6A 1_555 1_555
C8A N2A 1_555 1_555
H7A C8A 1_555 1_555
C9A C7A 1_555 1_555
C10A C9A 1_555 1_555
C11A C10A 1_555 1_555
C12A C11A 1_555 1_555
C13A C17 1_555 1_555
C14A C13A 1_555 1_555
H8A C14A 1_555 1_555
C15A C16 1_555 1_555
H9A C15A 1_555 1_555
C17A C13 1_555 1_555
H11A C17A 1_555 1_555
H10A C16A 1_555 1_555
H3 C3A 1_555 1_555
C7 C8 1_555 1_555
C3A H3A 1_555 1_555
N3A C17A 1_555 1_555
C7A C8A 1_555 1_555
C12A C13A 1_555 1_555
C14A C15A 1_555 1_555

#END
