
#######################################################################
#
#                 Cambridge Crystallographic Data Centre
#                                CCDC 
#
#######################################################################
#
# If this CIF has been generated from an entry in the Cambridge 
# Structural Database, then it will include bibliographic, chemical, 
# crystal, experimental, refinement or atomic coordinate data resulting 
# from the CCDC's data processing and validation procedures.
#
#######################################################################

data_INUNUA
_chemical_formula_moiety         'C190 H184 N16 Zn2,5.5(C1 H1 Cl3)'
_chemical_name_systematic        
"(\m~2~-20,20'-(2,9-bis(p-Phenylene)-1,10-phenanthroline)-bis(5,10,15-tris(3,5-di-t-butylphenyl)porphyrinato))-(\m~2~-5,10-di(4'-pyridyl)-15,20-diphenylporphyrin)-di-zinc(ii) chloroform solvate"
_symmetry_cell_setting           triclinic
_symmetry_space_group_name_H-M   'P -1'
_symmetry_Int_Tables_number      2
_space_group_name_Hall           '-P 1'
loop_
_symmetry_equiv_pos_site_id
_symmetry_equiv_pos_as_xyz
1 x,y,z
2 -x,-y,-z
_cell_length_a                   16.396(4)
_cell_length_b                   26.852(5)
_cell_length_c                   26.946(5)
_cell_angle_alpha                68.49(2)
_cell_angle_beta                 85.94(2)
_cell_angle_gamma                75.03(2)
_cell_volume                     10658.8
_exptl_crystal_colour            purple
_cell_formula_units_Z            2
loop_
_atom_site_label
_atom_site_type_symbol
_atom_site_fract_x
_atom_site_fract_y
_atom_site_fract_z
Zn1 Zn 0.07109(13) 0.09935(8) 0.28628(8)
N1 N 0.0180(7) 0.0337(4) 0.3121(5)
N2 N -0.0098(8) 0.1341(5) 0.2224(5)
N3 N 0.1031(8) 0.1727(5) 0.2686(6)
N4 N 0.1259(7) 0.0720(5) 0.3618(4)
C1 C -0.0318(9) 0.0220(6) 0.2848(6)
C2 C -0.0457(13) -0.0333(9) 0.3168(9)
H1 H -0.0779 -0.0517 0.3048
C3 C -0.0079(10) -0.0532(7) 0.3635(7)
H2 H -0.0074 -0.0874 0.3915
C4 C 0.0330(11) -0.0115(8) 0.3629(8)
C5 C 0.0816(11) -0.0138(7) 0.4004(7)
C6 C 0.1261(9) 0.0255(7) 0.4027(7)
C7 C 0.1742(10) 0.0171(7) 0.4480(7)
H3 H 0.1827 -0.0135 0.4808
C8 C 0.2087(11) 0.0670(8) 0.4331(8)
H4 H 0.2435 0.0754 0.4541
C9 C 0.1763(11) 0.0996(8) 0.3787(8)
C10 C 0.1861(11) 0.1496(8) 0.3459(8)
C11 C 0.1525(11) 0.1853(7) 0.2938(7)
C12 C 0.1692(11) 0.2391(7) 0.2631(7)
H5 H 0.2056 0.2562 0.2735
C13 C 0.1265(9) 0.2582(6) 0.2212(6)
H6 H 0.1245 0.2931 0.1939
C14 C 0.0799(11) 0.2193(8) 0.2196(8)
C15 C 0.0290(11) 0.2223(7) 0.1820(7)
C16 C -0.0187(12) 0.1858(9) 0.1798(8)
C17 C -0.0724(12) 0.1920(9) 0.1369(8)
H7 H -0.0870 0.2231 0.1047
C18 C -0.0989(12) 0.1436(8) 0.1518(8)
H8 H -0.1330 0.1334 0.1319
C19 C -0.0600(11) 0.1107(8) 0.2076(7)
C20 C -0.0720(12) 0.0549(9) 0.2351(8)
Zn2 Zn 0.69615(14) -0.38379(8) 0.32557(10)
N5 N 0.5797(7) -0.4058(4) 0.3390(6)
N6 N 0.6929(10) -0.3821(5) 0.4043(4)
N7 N 0.8240(7) -0.3817(5) 0.3218(6)
N8 N 0.7132(9) -0.4108(4) 0.2605(5)
C21 C 0.5427(11) -0.4213(7) 0.3076(7)
C22 C 0.4640(11) -0.4294(7) 0.3274(7)
H9 H 0.4259 -0.4417 0.3124
C23 C 0.4527(11) -0.4168(7) 0.3698(7)
H10 H 0.4027 -0.4180 0.3899
C24 C 0.5259(13) -0.4002(8) 0.3844(10)
C25 C 0.5511(10) -0.3926(6) 0.4230(7)
C26 C 0.6219(12) -0.3808(7) 0.4359(8)
C27 C 0.6361(12) -0.3680(7) 0.4776(8)
H11 H 0.5969 -0.3627 0.5040
C28 C 0.7165(12) -0.3642(7) 0.4748(8)
H12 H 0.7448 -0.3587 0.5012
C29 C 0.7515(11) -0.3692(7) 0.4294(8)
C30 C 0.8361(10) -0.3710(7) 0.4051(7)
C31 C 0.8656(10) -0.3745(6) 0.3593(7)
C32 C 0.9420(12) -0.3728(7) 0.3368(8)
H13 H 0.9843 -0.3680 0.3556
C33 C 0.9599(10) -0.3774(6) 0.2916(7)
H14 H 1.0096 -0.3750 0.2715
C34 C 0.8811(12) -0.3877(7) 0.2797(8)
C35 C 0.8564(11) -0.4001(7) 0.2391(8)
C36 C 0.7800(11) -0.4128(7) 0.2258(7)
C37 C 0.7647(12) -0.4304(7) 0.1855(8)
H15 H 0.8004 -0.4359 0.1576
C38 C 0.6908(12) -0.4371(7) 0.1957(8)
H16 H 0.6641 -0.4478 0.1724
C39 C 0.6476(15) -0.4296(9) 0.2393(9)
C40 C 0.5763(10) -0.4320(6) 0.2644(7)
N9 N 0.4839(8) -0.0464(5) 0.1313(5)
H17 H 0.5025 -0.0293 0.0998
N10 N 0.6331(8) -0.0718(5) 0.0705(5)
N11 N 0.6019(9) 0.0396(5) -0.0017(5)
H18 H 0.5845 0.0221 0.0301
N12 N 0.4537(8) 0.0675(5) 0.0600(5)
C41 C 0.4184(12) -0.0248(8) 0.1568(7)
C42 C 0.4035(12) -0.0670(8) 0.2059(7)
H19 H 0.3610 -0.0630 0.2310
C43 C 0.4628(10) -0.1127(8) 0.2084(7)
H20 H 0.4682 -0.1481 0.2357
C44 C 0.5159(10) -0.1004(7) 0.1642(6)
C45 C 0.5892(10) -0.1347(7) 0.1545(7)
C46 C 0.6456(10) -0.1216(7) 0.1117(7)
C47 C 0.7252(11) -0.1590(8) 0.1052(7)
H21 H 0.7460 -0.1965 0.1277
C48 C 0.7648(11) -0.1305(7) 0.0606(7)
H22 H 0.8195 -0.1425 0.0484
C49 C 0.7035(11) -0.0785(7) 0.0371(7)
C50 C 0.7169(11) -0.0350(8) -0.0093(7)
C51 C 0.6659(13) 0.0179(9) -0.0288(8)
C52 C 0.6806(13) 0.0635(9) -0.0769(8)
H23 H 0.7275 0.0612 -0.0995
C53 C 0.6201(13) 0.1065(9) -0.0832(8)
H24 H 0.6108 0.1393 -0.1141
C54 C 0.5669(11) 0.0984(8) -0.0359(7)
C55 C 0.5045(10) 0.1309(6) -0.0180(7)
C56 C 0.4565(12) 0.1222(8) 0.0239(8)
C57 C 0.3955(12) 0.1580(9) 0.0429(8)
H25 H 0.3847 0.1971 0.0261
C58 C 0.3525(13) 0.1338(8) 0.0865(8)
H26 H 0.3075 0.1494 0.1048
C59 C 0.3995(10) 0.0735(6) 0.0966(7)
C60 C 0.3781(10) 0.0316(8) 0.1410(7)
N13 N 0.1740(7) 0.0710(5) 0.2432(5)
C61 C 0.1717(11) 0.0436(7) 0.2145(7)
H27 H 0.1214 0.0315 0.2172
C62 C 0.2292(10) 0.0281(6) 0.1800(6)
H28 H 0.2192 0.0088 0.1587
C63 C 0.3075(10) 0.0446(7) 0.1797(6)
C64 C 0.3100(10) 0.0752(7) 0.2079(6)
H29 H 0.3583 0.0892 0.2058
C65 C 0.2441(11) 0.0882(7) 0.2411(6)
H30 H 0.2494 0.1091 0.2619
N14 N 0.6567(9) -0.3002(5) 0.2753(6)
C66 C 0.7066(11) -0.2660(7) 0.2712(7)
H31 H 0.7550 -0.2790 0.2942
C67 C 0.6879(12) -0.2095(8) 0.2325(8)
H32 H 0.7223 -0.1854 0.2304
C68 C 0.6180(12) -0.1925(8) 0.1989(7)
C69 C 0.5580(10) -0.2279(6) 0.1993(6)
H33 H 0.5110 -0.2178 0.1759
C70 C 0.5896(12) -0.2823(8) 0.2448(7)
H34 H 0.5547 -0.3073 0.2523
C71 C 0.0854(12) -0.0652(8) 0.4493(7)
C72 C 0.0201(12) -0.0663(8) 0.4881(8)
H35 H -0.0253 -0.0343 0.4815
C73 C 0.0197(11) -0.1119(7) 0.5346(7)
H36 H -0.0253 -0.1113 0.5588
C74 C 0.0863(11) -0.1574(7) 0.5444(7)
C75 C 0.1541(13) -0.1575(9) 0.5104(8)
H37 H 0.2016 -0.1885 0.5194
C76 C 0.1528(14) -0.1093(10) 0.4600(9)
H38 H 0.1982 -0.1096 0.4361
C77 C 0.4833(12) -0.3936(8) 0.4619(8)
C78 C 0.4003(12) -0.3515(8) 0.4577(8)
H39 H 0.3868 -0.3202 0.4256
C79 C 0.3433(11) -0.3562(8) 0.4980(7)
H40 H 0.2915 -0.3287 0.4932
C80 C 0.3609(14) -0.4008(9) 0.5457(8)
C81 C 0.4314(12) -0.4436(8) 0.5559(8)
H41 H 0.4401 -0.4745 0.5885
C82 C 0.4923(11) -0.4388(7) 0.5138(7)
H42 H 0.5427 -0.4676 0.5205
C83 C 0.4865(13) 0.1953(8) -0.0549(8)
C84 C 0.4062(13) 0.2250(9) -0.0753(8)
H43 H 0.3612 0.2072 -0.0666
C85 C 0.3880(17) 0.2866(11) -0.1121(10)
H44 H 0.3355 0.3089 -0.1294
C86 C 0.4586(18) 0.3028(11) -0.1151(10)
H45 H 0.4522 0.3396 -0.1397
C87 C 0.553(2) 0.2768(16) -0.0883(14)
H46 H 0.5966 0.2949 -0.0897
C88 C 0.5546(15) 0.2195(11) -0.0620(9)
H47 H 0.6078 0.1952 -0.0477
C89 C 0.8008(11) -0.0519(8) -0.0369(7)
C90 C 0.8188(11) -0.0936(8) -0.0518(7)
H48 H 0.7810 -0.1169 -0.0434
C91 C 0.8968(11) -0.1073(8) -0.0821(7)
H49 H 0.9078 -0.1347 -0.0978
C92 C 0.9530(14) -0.0728(10) -0.0839(8)
H50 H 1.0077 -0.0803 -0.0979
C93 C 0.9295(15) -0.0303(10) -0.0663(9)
H51 H 0.9686 -0.0085 -0.0703
C94 C 0.8541(11) -0.0157(7) -0.0429(7)
H52 H 0.8392 0.0152 -0.0319
N15 N 0.1438(11) -0.2597(9) 0.5909(6)
N16 N 0.2489(14) -0.3573(8) 0.5915(7)
C95 C 0.0865(14) -0.2130(9) 0.5935(8)
C96 C 0.0338(14) -0.2050(10) 0.6365(10)
H53 H 0.0011 -0.1705 0.6374
C97 C 0.0389(18) -0.2569(12) 0.6770(9)
H54 H 0.0023 -0.2578 0.7061
C98 C 0.0898(15) -0.3051(14) 0.6788(11)
C99 C 0.1406(15) -0.3048(10) 0.6323(14)
C100 C 0.1939(15) -0.3542(12) 0.6322(10)
C101 C 0.1973(17) -0.4101(11) 0.6714(10)
C102 C 0.2435(17) -0.4558(11) 0.6680(12)
H55 H 0.2407 -0.4899 0.6950
C103 C 0.2974(15) -0.4559(10) 0.6253(12)
H56 H 0.3276 -0.4897 0.6219
C104 C 0.3061(14) -0.4039(10) 0.5869(11)
C105 C 0.0963(16) -0.3613(13) 0.7211(9)
H57 H 0.0610 -0.3640 0.7510
C106 C 0.148(2) -0.4071(10) 0.7192(13)
H58 H 0.1549 -0.4399 0.7499
C107 C 0.9238(12) -0.4014(8) 0.1999(7)
C108 C 0.9777(12) -0.4494(11) 0.1977(9)
H59 H 0.9701 -0.4826 0.2244
C109 C 1.0492(13) -0.4049(8) 0.1272(9)
H60 H 1.0940 -0.4052 0.1029
C110 C 0.9395(11) -0.3532(8) 0.1612(7)
H61 H 0.9063 -0.3187 0.1616
C111 C 1.0424(10) -0.4564(6) 0.1617(7)
C112 C 1.0861(7) -0.5147(6) 0.1628(5)
C113 C 1.1600(10) -0.5126(9) 0.1269(8)
H62 H 1.2038 -0.5029 0.1420
H63 H 1.1420 -0.4846 0.0916
H64 H 1.1827 -0.5488 0.1238
C114 C 1.0243(11) -0.5375(8) 0.1404(7)
H65 H 1.0534 -0.5740 0.1397
H66 H 1.0054 -0.5122 0.1042
H67 H 0.9753 -0.5406 0.1633
C115 C 1.1064(12) -0.5535(7) 0.2191(6)
H68 H 1.1171 -0.5917 0.2206
H69 H 1.0588 -0.5461 0.2416
H70 H 1.1568 -0.5482 0.2320
C116 C 0.9996(11) -0.3524(6) 0.1227(6)
C117 C 1.0080(8) -0.2958(5) 0.0835(5)
C118 C 0.9255(10) -0.2635(7) 0.0546(8)
H71 H 0.8907 -0.2431 0.0754
H72 H 0.8960 -0.2888 0.0497
H73 H 0.9358 -0.2373 0.0197
C119 C 1.0734(12) -0.3034(8) 0.0401(7)
H74 H 1.0900 -0.2688 0.0215
H75 H 1.0478 -0.3134 0.0145
H76 H 1.1234 -0.3329 0.0572
C120 C 1.0432(13) -0.2672(8) 0.1120(8)
H77 H 1.0151 -0.2277 0.0983
H78 H 1.1040 -0.2723 0.1060
H79 H 1.0336 -0.2830 0.1503
C121 C 0.2514(12) 0.1663(8) 0.3682(6)
C122 C 0.3369(13) 0.1357(9) 0.3806(7)
H80 H 0.3546 0.1010 0.3760
C123 C 0.3717(13) 0.2039(9) 0.4071(7)
H81 H 0.4114 0.2151 0.4220
C124 C 0.2334(12) 0.2161(8) 0.3780(7)
H82 H 0.1763 0.2370 0.3731
C125 C 0.3963(14) 0.1547(9) 0.3993(8)
C126 C 0.4831(16) 0.1116(11) 0.4172(11)
C127 C 0.5494(18) 0.1355(14) 0.4276(13)
H83 H 0.5236 0.1641 0.4425
H84 H 0.5767 0.1520 0.3942
H85 H 0.5917 0.1063 0.4532
C128 C 0.5155(16) 0.0912(12) 0.3711(11)
H86 H 0.4701 0.0811 0.3581
H87 H 0.5635 0.0588 0.3840
H88 H 0.5334 0.1207 0.3420
C129 C 0.472(2) 0.0602(12) 0.4629(12)
H89 H 0.5238 0.0432 0.4853
H90 H 0.4611 0.0338 0.4485
H91 H 0.4245 0.0704 0.4843
C130 C 0.2907(10) 0.2380(6) 0.3942(6)
C131 C 0.2598(7) 0.2957(5) 0.3976(5)
C132 C 0.2343(11) 0.3380(6) 0.3431(6)
H92 H 0.1728 0.3471 0.3384
H93 H 0.2614 0.3232 0.3161
H94 H 0.2519 0.3714 0.3392
C133 C 0.3335(9) 0.3111(8) 0.4179(7)
H95 H 0.3143 0.3488 0.4178
H96 H 0.3815 0.3088 0.3943
H97 H 0.3508 0.2852 0.4542
C134 C 0.1929(9) 0.2955(8) 0.4382(7)
H98 H 0.1889 0.3265 0.4501
H99 H 0.2074 0.2606 0.4688
H100 H 0.1386 0.2994 0.4224
C135 C 0.0171(12) 0.2769(8) 0.1285(7)
C136 C 0.0876(12) 0.2840(7) 0.0987(6)
H101 H 0.1388 0.2558 0.1065
C137 C 0.0022(12) 0.3728(10) 0.0477(9)
H102 H -0.0015 0.4064 0.0182
C138 C -0.0611(13) 0.3172(8) 0.1198(8)
H103 H -0.1064 0.3101 0.1430
C139 C 0.0812(10) 0.3339(7) 0.0567(6)
C140 C 0.1605(8) 0.3487(6) 0.0275(6)
C141 C 0.1930(14) 0.3828(10) 0.0508(9)
H104 H 0.2330 0.3584 0.0804
H105 H 0.1457 0.4049 0.0641
H106 H 0.2217 0.4074 0.0233
C142 C 0.1377(13) 0.3851(9) -0.0324(6)
H107 H 0.1893 0.3919 -0.0514
H108 H 0.0987 0.4205 -0.0349
H109 H 0.1108 0.3658 -0.0485
C143 C 0.2234(12) 0.2975(8) 0.0272(10)
H110 H 0.2806 0.3024 0.0272
H111 H 0.2140 0.2904 -0.0048
H112 H 0.2169 0.2661 0.0590
C144 C -0.0713(8) 0.3680(7) 0.0765(7)
C145 C -0.1596(8) 0.4078(5) 0.0683(5)
C146 C -0.2192(11) 0.3871(10) 0.0459(8)
H113 H -0.2050 0.3466 0.0612
H114 H -0.2145 0.3993 0.0071
H115 H -0.2772 0.4017 0.0549
C147 C -0.1566(15) 0.4657(6) 0.0261(8)
H116 H -0.1099 0.4776 0.0353
H117 H -0.2100 0.4926 0.0259
H118 H -0.1480 0.4632 -0.0093
C148 C -0.1870(11) 0.4175(8) 0.1187(7)
H119 H -0.2484 0.4325 0.1171
H120 H -0.1592 0.4440 0.1229
H121 H -0.1716 0.3825 0.1491
C149 C -0.1256(10) 0.0309(6) 0.2084(6)
C150 C -0.2111(13) 0.0507(9) 0.2089(7)
H122 H -0.2373 0.0797 0.2213
C151 C -0.2156(11) -0.0206(9) 0.1752(8)
H123 H -0.2492 -0.0395 0.1651
C152 C -0.0825(11) -0.0114(7) 0.1924(6)
H124 H -0.0225 -0.0215 0.1930
C153 C -0.2563(13) 0.0237(9) 0.1890(7)
C154 C -0.3554(16) 0.0421(12) 0.1840(11)
C155 C -0.3838(18) 0.0871(12) 0.1308(11)
H125 H -0.3807 0.0706 0.1035
H126 H -0.3470 0.1126 0.1213
H127 H -0.4421 0.1074 0.1329
C156 C -0.3940(16) 0.0655(12) 0.2269(11)
H128 H -0.4546 0.0673 0.2289
H129 H -0.3858 0.1027 0.2177
H130 H -0.3664 0.0415 0.2616
C157 C -0.390(2) -0.0087(13) 0.1974(15)
H131 H -0.4451 -0.0023 0.2135
H132 H -0.3508 -0.0408 0.2227
H133 H -0.3953 -0.0157 0.1648
C158 C -0.1289(7) -0.0395(5) 0.1751(5)
C159 C -0.0857(7) -0.0906(4) 0.1613(4)
C160 C 0.0075(7) -0.1049(4) 0.1718(5)
H134 H 0.0197 -0.1243 0.2101
H135 H 0.0272 -0.0710 0.1595
H136 H 0.0366 -0.1289 0.1526
C161 C -0.0981(8) -0.0775(5) 0.1004(5)
H137 H -0.0441 -0.0757 0.0827
H138 H -0.1394 -0.0419 0.0847
H139 H -0.1186 -0.1067 0.0956
C162 C -0.1271(6) -0.1365(5) 0.1895(6)
H140 H -0.0930 -0.1627 0.2212
H141 H -0.1320 -0.1556 0.1655
H142 H -0.1835 -0.1213 0.2003
C163 C 0.5376(6) -0.4597(5) 0.2344(5)
C164 C 0.5619(7) -0.5131(5) 0.2339(5)
H143 H 0.6147 -0.5366 0.2498
C165 C 0.4324(7) -0.4967(5) 0.1868(7)
H144 H 0.3958 -0.5096 0.1714
C166 C 0.4608(6) -0.4248(4) 0.2110(4)
H145 H 0.4436 -0.3886 0.2123
C167 C 0.5077(13) -0.5340(9) 0.2096(9)
C168 C 0.5464(17) -0.5949(9) 0.2184(12)
C169 C 0.579(3) -0.5983(17) 0.1643(16)
H146 H 0.5498 -0.6207 0.1539
H147 H 0.6399 -0.6154 0.1676
H148 H 0.5683 -0.5610 0.1371
C170 C 0.618(3) -0.6210(15) 0.2548(17)
H149 H 0.6061 -0.6100 0.2860
H150 H 0.6675 -0.6097 0.2370
H151 H 0.6276 -0.6613 0.2662
C171 C 0.483(3) -0.6286(16) 0.231(3)
H152 H 0.4603 -0.6275 0.1979
H153 H 0.4365 -0.6133 0.2506
H154 H 0.5097 -0.6669 0.2531
C172 C 0.4057(10) -0.4436(8) 0.1843(7)
C173 C 0.3118(10) -0.4146(9) 0.1743(8)
C174 C 0.2560(11) -0.4505(10) 0.1915(8)
H155 H 0.2668 -0.4729 0.2295
H156 H 0.2657 -0.4748 0.1709
H157 H 0.1974 -0.4284 0.1859
C175 C 0.2967(12) -0.3854(9) 0.1134(8)
H158 H 0.3481 -0.3751 0.0970
H159 H 0.2502 -0.3520 0.1060
H160 H 0.2822 -0.4104 0.0986
C176 C 0.2850(9) -0.3673(9) 0.1934(9)
H161 H 0.3263 -0.3448 0.1827
H162 H 0.2817 -0.3815 0.2324
H163 H 0.2295 -0.3445 0.1776
C177 C 0.8947(5) -0.3566(4) 0.4412(3)
C178 C 0.9178(6) -0.4010(4) 0.4902(4)
H164 H 0.8970 -0.4333 0.5014
C179 C 1.0054(5) -0.3453(4) 0.5050(4)
H165 H 1.0439 -0.3415 0.5273
C180 C 0.9225(7) -0.3081(4) 0.4233(4)
H166 H 0.9032 -0.2795 0.3901
C181 C 0.9783(8) -0.3034(4) 0.4552(5)
C182 C 1.0004(6) -0.2476(4) 0.4381(4)
C183 C 1.0964(7) -0.2593(7) 0.4471(7)
H167 H 1.1266 -0.2735 0.4205
H168 H 1.1129 -0.2867 0.4829
H169 H 1.1109 -0.2249 0.4436
C184 C 0.9837(11) -0.2138(6) 0.3829(5)
H170 H 0.9285 -0.2147 0.3721
H171 H 1.0276 -0.2278 0.3613
H172 H 0.9835 -0.1757 0.3776
C185 C 0.9653(11) -0.2159(6) 0.4735(6)
H173 H 1.0019 -0.1921 0.4732
H174 H 0.9626 -0.2418 0.5100
H175 H 0.9085 -0.1930 0.4606
C186 C 0.9750(6) -0.3921(5) 0.5208(4)
C187 C 1.0092(6) -0.4408(4) 0.5720(5)
C188 C 1.0216(6) -0.4170(7) 0.6142(5)
H176 H 0.9671 -0.4063 0.6299
H177 H 1.0443 -0.3845 0.5974
H178 H 1.0611 -0.4451 0.6423
C189 C 0.9542(6) -0.4765(4) 0.5950(7)
H179 H 0.9785 -0.5124 0.5915
H180 H 0.8990 -0.4599 0.5765
H181 H 0.9474 -0.4817 0.6329
C190 C 1.0968(6) -0.4728(5) 0.5672(6)
H182 H 1.1116 -0.5067 0.5989
H183 H 1.1365 -0.4502 0.5644
H184 H 1.0997 -0.4824 0.5353
C191 C 0.3682(7) -0.2717(8) 0.5691(7)
H185 H 0.3207 -0.2866 0.5641
Cl1 Cl 0.3336(5) -0.2386(4) 0.6125(4)
Cl2 Cl 0.3867(5) -0.2283(3) 0.5072(4)
Cl3 Cl 0.4515(5) -0.3278(4) 0.5942(5)
C192 C 0.3512(14) -0.0326(11) 0.3672(7)
H186 H 0.3116 0.0023 0.3682
Cl4 Cl 0.3749(7) -0.0705(4) 0.4313(4)
Cl5 Cl 0.2924(7) -0.0578(4) 0.3367(4)
Cl6 Cl 0.4281(6) -0.0109(4) 0.3297(4)
C193 C 0.813(2) 0.1382(8) -0.0035(10)
H187 H 0.7581 0.1397 -0.0184
Cl7 Cl 0.8150(8) 0.0844(5) 0.0501(5)
Cl8 Cl 0.7850(9) 0.1991(5) 0.0012(6)
Cl9 Cl 0.8704(12) 0.1307(6) -0.0535(6)
loop_
_geom_bond_atom_site_label_1
_geom_bond_atom_site_label_2
_geom_bond_site_symmetry_1
_geom_bond_site_symmetry_2
Zn1 N1 1_555 1_555
N1 C1 1_555 1_555
N2 Zn1 1_555 1_555
N3 Zn1 1_555 1_555
N4 Zn1 1_555 1_555
C1 C2 1_555 1_555
C2 H1 1_555 1_555
C3 C2 1_555 1_555
H2 C3 1_555 1_555
C4 N1 1_555 1_555
C5 C4 1_555 1_555
C6 N4 1_555 1_555
C7 C6 1_555 1_555
H3 C7 1_555 1_555
C8 C7 1_555 1_555
H4 C8 1_555 1_555
C9 N4 1_555 1_555
C10 C9 1_555 1_555
C11 N3 1_555 1_555
C12 C11 1_555 1_555
H5 C12 1_555 1_555
C13 C12 1_555 1_555
H6 C13 1_555 1_555
C14 N3 1_555 1_555
C15 C14 1_555 1_555
C16 N2 1_555 1_555
C17 C16 1_555 1_555
H7 C17 1_555 1_555
C18 C17 1_555 1_555
H8 C18 1_555 1_555
C19 N2 1_555 1_555
C20 C1 1_555 1_555
Zn2 N5 1_555 1_555
N5 C21 1_555 1_555
N6 Zn2 1_555 1_555
N7 Zn2 1_555 1_555
N8 Zn2 1_555 1_555
C21 C22 1_555 1_555
C22 H9 1_555 1_555
C23 C22 1_555 1_555
H10 C23 1_555 1_555
C24 N5 1_555 1_555
C25 C24 1_555 1_555
C26 N6 1_555 1_555
C27 C26 1_555 1_555
H11 C27 1_555 1_555
C28 C27 1_555 1_555
H12 C28 1_555 1_555
C29 N6 1_555 1_555
C30 C29 1_555 1_555
C31 N7 1_555 1_555
C32 C31 1_555 1_555
H13 C32 1_555 1_555
C33 C32 1_555 1_555
H14 C33 1_555 1_555
C34 N7 1_555 1_555
C35 C34 1_555 1_555
C36 N8 1_555 1_555
C37 C36 1_555 1_555
H15 C37 1_555 1_555
C38 C37 1_555 1_555
H16 C38 1_555 1_555
C39 N8 1_555 1_555
C40 C21 1_555 1_555
N9 H17 1_555 1_555
N10 C46 1_555 1_555
N11 H18 1_555 1_555
N12 C56 1_555 1_555
C41 N9 1_555 1_555
C42 C41 1_555 1_555
H19 C42 1_555 1_555
C43 C42 1_555 1_555
H20 C43 1_555 1_555
C44 N9 1_555 1_555
C45 C44 1_555 1_555
C46 C45 1_555 1_555
C47 C46 1_555 1_555
H21 C47 1_555 1_555
C48 C47 1_555 1_555
H22 C48 1_555 1_555
C49 N10 1_555 1_555
C50 C49 1_555 1_555
C51 N11 1_555 1_555
C52 C51 1_555 1_555
H23 C52 1_555 1_555
C53 C52 1_555 1_555
H24 C53 1_555 1_555
C54 N11 1_555 1_555
C55 C54 1_555 1_555
C56 C55 1_555 1_555
C57 C56 1_555 1_555
H25 C57 1_555 1_555
C58 C57 1_555 1_555
H26 C58 1_555 1_555
C59 N12 1_555 1_555
C60 C41 1_555 1_555
N13 Zn1 1_555 1_555
C61 N13 1_555 1_555
H27 C61 1_555 1_555
C62 C61 1_555 1_555
H28 C62 1_555 1_555
C63 C60 1_555 1_555
C64 C63 1_555 1_555
H29 C64 1_555 1_555
C65 N13 1_555 1_555
H30 C65 1_555 1_555
N14 Zn2 1_555 1_555
C66 N14 1_555 1_555
H31 C66 1_555 1_555
C67 C66 1_555 1_555
H32 C67 1_555 1_555
C68 C45 1_555 1_555
C69 C68 1_555 1_555
H33 C69 1_555 1_555
C70 N14 1_555 1_555
H34 C70 1_555 1_555
C71 C5 1_555 1_555
C72 C71 1_555 1_555
H35 C72 1_555 1_555
C73 C72 1_555 1_555
H36 C73 1_555 1_555
C74 C73 1_555 1_555
C75 C74 1_555 1_555
H37 C75 1_555 1_555
C76 C71 1_555 1_555
H38 C76 1_555 1_555
C77 C25 1_555 1_555
C78 C77 1_555 1_555
H39 C78 1_555 1_555
C79 C78 1_555 1_555
H40 C79 1_555 1_555
C80 C79 1_555 1_555
C81 C80 1_555 1_555
H41 C81 1_555 1_555
C82 C77 1_555 1_555
H42 C82 1_555 1_555
C83 C55 1_555 1_555
C84 C83 1_555 1_555
H43 C84 1_555 1_555
C85 C84 1_555 1_555
H44 C85 1_555 1_555
C86 C85 1_555 1_555
H45 C86 1_555 1_555
C87 C86 1_555 1_555
H46 C87 1_555 1_555
C88 C83 1_555 1_555
H47 C88 1_555 1_555
C89 C50 1_555 1_555
C90 C89 1_555 1_555
H48 C90 1_555 1_555
C91 C90 1_555 1_555
H49 C91 1_555 1_555
C92 C91 1_555 1_555
H50 C92 1_555 1_555
C93 C92 1_555 1_555
H51 C93 1_555 1_555
C94 C89 1_555 1_555
H52 C94 1_555 1_555
N15 C95 1_555 1_555
N16 C100 1_555 1_555
C95 C74 1_555 1_555
C96 C95 1_555 1_555
H53 C96 1_555 1_555
C97 C96 1_555 1_555
H54 C97 1_555 1_555
C98 C97 1_555 1_555
C99 N15 1_555 1_555
C100 C99 1_555 1_555
C101 C100 1_555 1_555
C102 C101 1_555 1_555
H55 C102 1_555 1_555
C103 C102 1_555 1_555
H56 C103 1_555 1_555
C104 C80 1_555 1_555
C105 C98 1_555 1_555
H57 C105 1_555 1_555
C106 C101 1_555 1_555
H58 C106 1_555 1_555
C107 C35 1_555 1_555
C108 C107 1_555 1_555
H59 C108 1_555 1_555
C109 H60 1_555 1_555
C110 C107 1_555 1_555
H61 C110 1_555 1_555
C111 C108 1_555 1_555
C112 C111 1_555 1_555
C113 C112 1_555 1_555
H62 C113 1_555 1_555
H63 C113 1_555 1_555
H64 C113 1_555 1_555
C114 C112 1_555 1_555
H65 C114 1_555 1_555
H66 C114 1_555 1_555
H67 C114 1_555 1_555
C115 C112 1_555 1_555
H68 C115 1_555 1_555
H69 C115 1_555 1_555
H70 C115 1_555 1_555
C116 C109 1_555 1_555
C117 C116 1_555 1_555
C118 C117 1_555 1_555
H71 C118 1_555 1_555
H72 C118 1_555 1_555
H73 C118 1_555 1_555
C119 C117 1_555 1_555
H74 C119 1_555 1_555
H75 C119 1_555 1_555
H76 C119 1_555 1_555
C120 C117 1_555 1_555
H77 C120 1_555 1_555
H78 C120 1_555 1_555
H79 C120 1_555 1_555
C121 C10 1_555 1_555
C122 C121 1_555 1_555
H80 C122 1_555 1_555
C123 H81 1_555 1_555
C124 C121 1_555 1_555
H82 C124 1_555 1_555
C125 C122 1_555 1_555
C126 C125 1_555 1_555
C127 C126 1_555 1_555
H83 C127 1_555 1_555
H84 C127 1_555 1_555
H85 C127 1_555 1_555
C128 C126 1_555 1_555
H86 C128 1_555 1_555
H87 C128 1_555 1_555
H88 C128 1_555 1_555
C129 C126 1_555 1_555
H89 C129 1_555 1_555
H90 C129 1_555 1_555
H91 C129 1_555 1_555
C130 C123 1_555 1_555
C131 C130 1_555 1_555
C132 C131 1_555 1_555
H92 C132 1_555 1_555
H93 C132 1_555 1_555
H94 C132 1_555 1_555
C133 C131 1_555 1_555
H95 C133 1_555 1_555
H96 C133 1_555 1_555
H97 C133 1_555 1_555
C134 C131 1_555 1_555
H98 C134 1_555 1_555
H99 C134 1_555 1_555
H100 C134 1_555 1_555
C135 C15 1_555 1_555
C136 C135 1_555 1_555
H101 C136 1_555 1_555
C137 H102 1_555 1_555
C138 C135 1_555 1_555
H103 C138 1_555 1_555
C139 C136 1_555 1_555
C140 C139 1_555 1_555
C141 C140 1_555 1_555
H104 C141 1_555 1_555
H105 C141 1_555 1_555
H106 C141 1_555 1_555
C142 C140 1_555 1_555
H107 C142 1_555 1_555
H108 C142 1_555 1_555
H109 C142 1_555 1_555
C143 C140 1_555 1_555
H110 C143 1_555 1_555
H111 C143 1_555 1_555
H112 C143 1_555 1_555
C144 C137 1_555 1_555
C145 C144 1_555 1_555
C146 C145 1_555 1_555
H113 C146 1_555 1_555
H114 C146 1_555 1_555
H115 C146 1_555 1_555
C147 C145 1_555 1_555
H116 C147 1_555 1_555
H117 C147 1_555 1_555
H118 C147 1_555 1_555
C148 C145 1_555 1_555
H119 C148 1_555 1_555
H120 C148 1_555 1_555
H121 C148 1_555 1_555
C149 C20 1_555 1_555
C150 C149 1_555 1_555
H122 C150 1_555 1_555
C151 H123 1_555 1_555
C152 C149 1_555 1_555
H124 C152 1_555 1_555
C153 C150 1_555 1_555
C154 C153 1_555 1_555
C155 C154 1_555 1_555
H125 C155 1_555 1_555
H126 C155 1_555 1_555
H127 C155 1_555 1_555
C156 C154 1_555 1_555
H128 C156 1_555 1_555
H129 C156 1_555 1_555
H130 C156 1_555 1_555
C157 C154 1_555 1_555
H131 C157 1_555 1_555
H132 C157 1_555 1_555
H133 C157 1_555 1_555
C158 C151 1_555 1_555
C159 C158 1_555 1_555
C160 C159 1_555 1_555
H134 C160 1_555 1_555
H135 C160 1_555 1_555
H136 C160 1_555 1_555
C161 C159 1_555 1_555
H137 C161 1_555 1_555
H138 C161 1_555 1_555
H139 C161 1_555 1_555
C162 C159 1_555 1_555
H140 C162 1_555 1_555
H141 C162 1_555 1_555
H142 C162 1_555 1_555
C163 C40 1_555 1_555
C164 C163 1_555 1_555
H143 C164 1_555 1_555
C165 H144 1_555 1_555
C166 C163 1_555 1_555
H145 C166 1_555 1_555
C167 C164 1_555 1_555
C168 C167 1_555 1_555
C169 C168 1_555 1_555
H146 C169 1_555 1_555
H147 C169 1_555 1_555
H148 C169 1_555 1_555
C170 C168 1_555 1_555
H149 C170 1_555 1_555
H150 C170 1_555 1_555
H151 C170 1_555 1_555
C171 C168 1_555 1_555
H152 C171 1_555 1_555
H153 C171 1_555 1_555
H154 C171 1_555 1_555
C172 C165 1_555 1_555
C173 C172 1_555 1_555
C174 C173 1_555 1_555
H155 C174 1_555 1_555
H156 C174 1_555 1_555
H157 C174 1_555 1_555
C175 C173 1_555 1_555
H158 C175 1_555 1_555
H159 C175 1_555 1_555
H160 C175 1_555 1_555
C176 C173 1_555 1_555
H161 C176 1_555 1_555
H162 C176 1_555 1_555
H163 C176 1_555 1_555
C177 C30 1_555 1_555
C178 C177 1_555 1_555
H164 C178 1_555 1_555
C179 H165 1_555 1_555
C180 C177 1_555 1_555
H166 C180 1_555 1_555
C181 C179 1_555 1_555
C182 C181 1_555 1_555
C183 C182 1_555 1_555
H167 C183 1_555 1_555
H168 C183 1_555 1_555
H169 C183 1_555 1_555
C184 C182 1_555 1_555
H170 C184 1_555 1_555
H171 C184 1_555 1_555
H172 C184 1_555 1_555
C185 C182 1_555 1_555
H173 C185 1_555 1_555
H174 C185 1_555 1_555
H175 C185 1_555 1_555
C186 C178 1_555 1_555
C187 C186 1_555 1_555
C188 C187 1_555 1_555
H176 C188 1_555 1_555
H177 C188 1_555 1_555
H178 C188 1_555 1_555
C189 C187 1_555 1_555
H179 C189 1_555 1_555
H180 C189 1_555 1_555
H181 C189 1_555 1_555
C190 C187 1_555 1_555
H182 C190 1_555 1_555
H183 C190 1_555 1_555
H184 C190 1_555 1_555
C191 H185 1_555 1_555
Cl1 C191 1_555 1_555
Cl2 C191 1_555 1_555
Cl3 C191 1_555 1_555
C192 H186 1_555 1_555
Cl4 C192 1_555 1_555
Cl5 C192 1_555 1_555
Cl6 C192 1_555 1_555
C193 H187 1_555 1_555
Cl7 C193 1_555 1_555
Cl8 C193 1_555 1_555
Cl9 C193 1_555 1_555
C3 C4 1_555 1_555
C5 C6 1_555 1_555
C8 C9 1_555 1_555
C10 C11 1_555 1_555
C13 C14 1_555 1_555
C15 C16 1_555 1_555
C18 C19 1_555 1_555
C19 C20 1_555 1_555
C23 C24 1_555 1_555
C25 C26 1_555 1_555
C28 C29 1_555 1_555
C30 C31 1_555 1_555
C33 C34 1_555 1_555
C35 C36 1_555 1_555
C38 C39 1_555 1_555
C39 C40 1_555 1_555
C43 C44 1_555 1_555
C48 C49 1_555 1_555
C50 C51 1_555 1_555
C53 C54 1_555 1_555
C58 C59 1_555 1_555
C59 C60 1_555 1_555
C62 C63 1_555 1_555
C64 C65 1_555 1_555
C67 C68 1_555 1_555
C69 C70 1_555 1_555
C75 C76 1_555 1_555
C81 C82 1_555 1_555
C87 C88 1_555 1_555
C93 C94 1_555 1_555
N16 C104 1_555 1_555
C98 C99 1_555 1_555
C103 C104 1_555 1_555
C105 C106 1_555 1_555
C109 C111 1_555 1_555
C110 C116 1_555 1_555
C123 C125 1_555 1_555
C124 C130 1_555 1_555
C137 C139 1_555 1_555
C138 C144 1_555 1_555
C151 C153 1_555 1_555
C152 C158 1_555 1_555
C165 C167 1_555 1_555
C166 C172 1_555 1_555
C179 C186 1_555 1_555
C180 C181 1_555 1_555

#END
