
#######################################################################
#
#                 Cambridge Crystallographic Data Centre
#                                CCDC 
#
#######################################################################
#
# If this CIF has been generated from an entry in the Cambridge 
# Structural Database, then it will include bibliographic, chemical, 
# crystal, experimental, refinement or atomic coordinate data resulting 
# from the CCDC's data processing and validation procedures.
#
#######################################################################

data_IQANET
_chemical_formula_moiety         'C66 H78 Cl6 Ge3 Si6,4.5(C7 H8)'
_chemical_name_systematic        
'3^2^,3^5^,6^2^,6^5^,9^2^,9^5^-hexakis(Trimethylsilyl)-3^1^,3^1^,6^1^,6^1^,9^1^,9^1^-hexachloro-3,6,9(3,4)-trigermola-1,2,4,5,7,8(1,4)-hexabenzenacyclononaphane toluene solvate'
_symmetry_cell_setting           monoclinic
_symmetry_space_group_name_H-M   'P 21'
_symmetry_Int_Tables_number      4
_space_group_name_Hall           'P 2yb'
loop_
_symmetry_equiv_pos_site_id
_symmetry_equiv_pos_as_xyz
1 x,y,z
2 -x,1/2+y,-z
_cell_length_a                   18.8975(3)
_cell_length_b                   20.7900(3)
_cell_length_c                   24.3797(7)
_cell_angle_alpha                90
_cell_angle_beta                 90.229(2)
_cell_angle_gamma                90
_cell_volume                     9578.2
_exptl_crystal_colour            colorless
_exptl_crystal_description       block
_cell_formula_units_Z            4
_exptl_crystal_recrystallization_method hexamethyldisiloxane/toluene
loop_
_atom_site_label
_atom_site_type_symbol
_atom_site_fract_x
_atom_site_fract_y
_atom_site_fract_z
Ge1 Ge 1.31474(10) 0.079 0.75584(7)
Ge2 Ge 0.66943(10) 0.5016(1) 0.75023(8)
Ge3 Ge 0.97272(10) 0.2634(1) 0.21226(7)
Cl1 Cl 1.4089(2) 0.1307(2) 0.7787(2)
Cl2 Cl 1.3284(3) -0.0135(2) 0.7945(2)
Cl3 Cl 0.6793(2) 0.5944(2) 0.7894(2)
Cl4 Cl 0.5645(2) 0.4724(2) 0.7720(2)
Cl5 Cl 0.8973(3) 0.2009(2) 0.1717(2)
Cl6 Cl 1.0298(3) 0.3081(2) 0.1467(2)
Si1 Si 1.1986(3) 0.1477(3) 0.8447(2)
Si2 Si 0.7677(3) 0.4102(3) 0.8386(2)
Si3 Si 0.6381(3) 0.5460(3) 0.6179(2)
Si4 Si 0.8598(3) 0.3826(3) 0.2495(2)
Si5 Si 1.1071(3) 0.1660(2) 0.2443(2)
Si6 Si 1.3528(3) 0.0372(3) 0.6232(2)
C1 C 1.2270(8) 0.1229(7) 0.7742(6)
C2 C 1.2010(9) 0.1362(8) 0.7257(7)
C3 C 1.1338(8) 0.1741(7) 0.7187(6)
C4 C 1.1387(10) 0.2383(9) 0.6996(7)
C5 C 1.0683(8) 0.1519(7) 0.7269(6)
C6 C 1.0777(10) 0.2764(9) 0.6989(7)
C7 C 1.0098(9) 0.1888(8) 0.7238(7)
C8 C 1.0119(8) 0.2570(8) 0.7116(6)
C9 C 0.9526(8) 0.2976(7) 0.7121(6)
C10 C 0.9581(9) 0.3635(8) 0.7259(7)
C11 C 0.8863(10) 0.2782(9) 0.6958(7)
C12 C 0.9006(9) 0.4043(8) 0.7279(7)
C13 C 0.8259(9) 0.3202(9) 0.6974(7)
C14 C 0.8344(8) 0.3851(8) 0.7140(6)
C15 C 0.7707(9) 0.4294(8) 0.7198(7)
C16 C 0.7454(8) 0.4402(7) 0.7690(6)
C17 C 0.6889(8) 0.5007(8) 0.6727(6)
C18 C 0.7406(8) 0.4594(7) 0.6678(6)
C19 C 0.7716(8) 0.4391(7) 0.6148(6)
C20 C 0.741(1) 0.3916(9) 0.5841(8)
C21 C 0.8297(9) 0.4700(8) 0.5909(7)
C22 C 0.8578(9) 0.4476(8) 0.5437(7)
C23 C 0.7736(10) 0.3664(9) 0.5358(8)
C24 C 0.8342(8) 0.3978(7) 0.5136(6)
C25 C 0.8637(7) 0.3730(7) 0.4648(5)
C26 C 0.848(1) 0.315(1) 0.446(1)
C27 C 0.917(1) 0.396(1) 0.440(1)
C28 C 0.870(2) 0.300(1) 0.388(1)
C29 C 0.945(1) 0.379(1) 0.391(1)
C30 C 0.9276(8) 0.3201(7) 0.3638(6)
C31 C 0.9534(8) 0.2957(7) 0.3136(6)
C32 C 0.9282(8) 0.3190(7) 0.2665(6)
C33 C 1.0315(8) 0.2200(7) 0.2648(6)
C34 C 1.0103(8) 0.2441(7) 0.3132(6)
C35 C 1.0438(8) 0.2254(7) 0.3652(6)
C36 C 1.100(1) 0.2501(9) 0.3833(8)
C37 C 1.018(1) 0.181(1) 0.398(1)
C38 C 1.046(1) 0.162(1) 0.4479(9)
C39 C 1.131(1) 0.230(1) 0.4329(9)
C40 C 1.1129(8) 0.1813(7) 0.4666(6)
C41 C 1.1421(8) 0.1628(7) 0.5163(6)
C42 C 1.202(1) 0.193(1) 0.5372(9)
C43 C 1.1182(9) 0.1169(8) 0.5476(7)
C44 C 1.1492(8) 0.0963(8) 0.5980(7)
C45 C 1.234(1) 0.174(1) 0.5873(9)
C46 C 1.2039(8) 0.1256(7) 0.6173(6)
C47 C 1.2368(8) 0.1122(7) 0.6729(6)
C48 C 1.2974(8) 0.0792(8) 0.6775(6)
C49 C 1.2707(10) 0.1266(9) 0.8914(8)
C50 C 1.185(1) 0.239(1) 0.8485(9)
C51 C 1.116(1) 0.102(1) 0.863(1)
C52 C 0.780(1) 0.321(1) 0.8350(9)
C53 C 0.850(1) 0.446(1) 0.8639(8)
C54 C 0.694(1) 0.4296(9) 0.8846(8)
C55 C 0.575(2) 0.601(2) 0.658(1)
C56 C 0.594(1) 0.493(1) 0.571(1)
C57 C 0.696(1) 0.602(1) 0.5822(9)
C58 C 0.776(2) 0.368(2) 0.303(1)
C59 C 0.870(2) 0.457(2) 0.297(1)
C60 C 0.825(2) 0.367(2) 0.177(2)
C61 C 1.0816(9) 0.1256(8) 0.1762(7)
C62 C 1.184(1) 0.2220(9) 0.2286(8)
C63 C 1.1302(9) 0.1012(8) 0.2971(7)
C64 C 1.296(2) -0.015(2) 0.573(1)
C65 C 1.371(2) 0.103(2) 0.565(1)
C66 C 1.444(2) 0.025(2) 0.654(1)
Ge4 Ge 0.82893(10) 0.0299(1) 0.25227(8)
Ge5 Ge 0.18497(10) 0.4542(1) 0.25292(8)
Ge6 Ge 0.52924(9) 0.2682(1) -0.28809(6)
Cl7 Cl 0.8188(2) -0.0611(2) 0.2936(2)
Cl8 Cl 0.9344(2) 0.0605(3) 0.2738(2)
Cl9 Cl 0.0905(2) 0.4035(2) 0.2760(2)
Cl10 Cl 0.1725(3) 0.5465(2) 0.2915(2)
Cl11 Cl 0.6034(3) 0.3315(2) -0.3290(2)
Cl12 Cl 0.4746(3) 0.2201(2) -0.3535(2)
Si7 Si 0.7303(3) 0.1218(3) 0.3386(2)
Si8 Si 0.3016(3) 0.3847(3) 0.3417(2)
Si9 Si 0.1471(3) 0.4979(3) 0.1212(2)
Si10 Si 0.3937(3) 0.3638(3) -0.2578(2)
Si11 Si 0.6439(3) 0.1510(3) -0.2492(2)
Si12 Si 0.8600(3) -0.0178(3) 0.1214(2)
C74 C 0.7534(8) 0.0902(8) 0.2700(6)
C75 C 0.7247(8) 0.1020(7) 0.2203(6)
C76 C 0.6647(8) 0.1448(8) 0.2155(6)
C77 C 0.5955(8) 0.1264(7) 0.2280(6)
C78 C 0.6697(9) 0.2092(8) 0.1944(7)
C79 C 0.5388(8) 0.1677(8) 0.2256(6)
C80 C 0.6113(9) 0.2515(8) 0.1933(6)
C81 C 0.5461(8) 0.2310(7) 0.2122(6)
C82 C 0.4844(9) 0.2735(9) 0.2116(6)
C83 C 0.4193(10) 0.2563(9) 0.1973(7)
C84 C 0.4898(9) 0.3400(9) 0.2249(7)
C85 C 0.3592(9) 0.2940(8) 0.1971(6)
C86 C 0.4296(9) 0.3792(8) 0.2278(7)
C87 C 0.3645(8) 0.3556(7) 0.2169(6)
C88 C 0.2984(8) 0.3967(7) 0.2225(6)
C89 C 0.2711(8) 0.4082(8) 0.2711(7)
C90 C 0.1991(9) 0.4546(8) 0.1745(7)
C91 C 0.2636(8) 0.4214(7) 0.1706(6)
C92 C 0.2962(8) 0.4062(7) 0.1148(6)
C93 C 0.3563(9) 0.4337(8) 0.0982(7)
C94 C 0.264(1) 0.363(1) 0.0818(9)
C95 C 0.3877(9) 0.4155(8) 0.0487(7)
C96 C 0.295(1) 0.3500(9) 0.0316(8)
C97 C 0.3590(8) 0.3716(7) 0.0146(6)
C98 C 0.3926(8) 0.3507(8) -0.0361(7)
C99 C 0.3760(10) 0.2963(9) -0.0622(8)
C100 C 0.445(1) 0.3896(9) -0.0642(8)
C101 C 0.4753(9) 0.3679(9) -0.1095(8)
C102 C 0.4068(9) 0.2763(8) -0.1112(7)
C103 C 0.4584(8) 0.3100(7) -0.1344(6)
C104 C 0.4917(7) 0.2888(6) -0.1882(6)
C105 C 0.4700(8) 0.3122(7) -0.2372(6)
C106 C 0.5742(7) 0.2128(7) -0.2325(6)
C107 C 0.5494(7) 0.2358(7) -0.1880(6)
C108 C 0.5733(7) 0.2137(7) -0.1363(6)
C109 C 0.611(1) 0.249(1) -0.1000(9)
C110 C 0.5628(10) 0.1486(9) -0.1167(8)
C111 C 0.644(1) 0.223(1) -0.0492(9)
C112 C 0.5886(9) 0.1267(8) -0.0680(7)
C113 C 0.6345(7) 0.1591(7) -0.0347(6)
C114 C 0.6662(7) 0.1344(7) 0.0143(5)
C115 C 0.7312(9) 0.1594(9) 0.0327(8)
C116 C 0.6336(8) 0.0832(8) 0.0456(7)
C117 C 0.7590(9) 0.1348(9) 0.0845(7)
C118 C 0.6641(9) 0.0653(8) 0.0939(7)
C119 C 0.7258(8) 0.0901(7) 0.1154(6)
C120 C 0.7580(8) 0.0702(7) 0.1694(6)
C121 C 0.8102(8) 0.0288(8) 0.1751(6)
C122 C 0.807(1) 0.107(1) 0.3861(9)
C123 C 0.651(1) 0.075(1) 0.3659(8)
C124 C 0.710(1) 0.210(1) 0.3356(9)
C125 C 0.327(1) 0.301(1) 0.3439(9)
C126 C 0.377(1) 0.436(1) 0.3630(10)
C127 C 0.2291(10) 0.4008(9) 0.3913(8)
C128 C 0.094(2) 0.568(2) 0.162(1)
C129 C 0.204(1) 0.5488(9) 0.0777(8)
C130 C 0.099(1) 0.448(1) 0.074(1)
C131 C 0.3681(9) 0.4268(9) -0.2063(7)
C132 C 0.319(1) 0.308(1) -0.2703(8)
C133 C 0.4208(9) 0.4062(8) -0.3233(7)
C134 C 0.673(1) 0.164(1) -0.319(1)
C135 C 0.606(1) 0.074(1) -0.2408(9)
C136 C 0.721(1) 0.160(1) -0.2055(10)
C137 C 0.911(1) 0.037(1) 0.0756(10)
C138 C 0.801(1) -0.069(1) 0.0820(9)
C139 C 0.924(1) -0.072(1) 0.160(1)
C151 C 1.0162(10) 0.3061(7) 0.5604(9)
C152 C 1.0378(6) 0.3747(6) 0.5519(5)
C153 C 1.0257(8) 0.4201(8) 0.5929(5)
C154 C 1.0458(9) 0.4840(7) 0.5849(7)
C155 C 1.0780(8) 0.5024(7) 0.5360(8)
C156 C 1.0900(9) 0.4569(9) 0.4950(6)
C157 C 1.0699(8) 0.3931(8) 0.5029(5)
C158 C 0.416(2) 0.512(2) 0.495(1)
C160 C 0.2922(7) 0.373(1) 0.5482(7)
C161 C 0.338(1) 0.3204(8) 0.5435(7)
C162 C 0.408(1) 0.3303(9) 0.5271(7)
C163 C 0.4318(7) 0.392(1) 0.5155(7)
C164 C 0.386(1) 0.4445(8) 0.5202(8)
C165 C 0.316(1) 0.4345(9) 0.5366(8)
C166 C 0.554(1) 0.327(1) 0.3709(8)
C167 C 0.5573(8) 0.2849(7) 0.4205(6)
C168 C 0.5187(9) 0.2277(8) 0.4218(8)
C169 C 0.522(1) 0.1882(7) 0.4680(9)
C170 C 0.564(1) 0.2058(10) 0.5128(7)
C171 C 0.602(1) 0.263(1) 0.5115(7)
C172 C 0.5992(9) 0.3025(8) 0.4653(8)
C173 C 0.4883(8) 0.2270(5) 0.0589(7)
C174 C 0.4663(5) 0.1586(5) 0.0498(4)
C175 C 0.4422(6) 0.1389(6) -0.0017(4)
C176 C 0.4217(7) 0.0752(6) -0.0101(4)
C177 C 0.4254(6) 0.0311(5) 0.0329(6)
C178 C 0.4495(7) 0.0508(5) 0.0844(5)
C179 C 0.4700(6) 0.1145(6) 0.0929(4)
C180 C 0.081(1) 0.049(1) 0.0066(10)
C181 C 0.1319(8) 0.1004(8) 0.0249(6)
C182 C 0.1110(9) 0.1648(9) 0.0240(7)
C183 C 0.158(1) 0.2126(8) 0.0410(8)
C184 C 0.226(1) 0.196(1) 0.0588(7)
C185 C 0.2467(8) 0.132(1) 0.0597(8)
C186 C 0.1997(9) 0.0839(9) 0.0427(8)
C187 C 0.5886(9) 0.389(2) 0.076(1)
C188 C 0.6667(9) 0.3855(9) 0.0658(7)
C189 C 0.702(1) 0.3267(8) 0.0689(9)
C190 C 0.775(1) 0.324(1) 0.0594(9)
C191 C 0.8120(9) 0.380(1) 0.0469(9)
C192 C 0.704(1) 0.4414(8) 0.0533(9)
C193 C 0.777(1) 0.438(1) 0.0438(10)
C194 C 0.885(3) 0.098(2) 0.581(2)
C195 C 0.942(5) 0.117(5) 0.602(3)
C196 C 0.958(3) 0.184(3) 0.583(2)
C197 C 0.892(3) 0.209(3) 0.550(2)
C198 C 0.841(4) 0.193(4) 0.533(3)
C199 C 0.821(3) 0.139(3) 0.558(2)
C200 C 0.782(3) 0.104(2) 0.548(2)
C67? C 1.414(2) -0.027(2) 0.661(2)
C68? C 1.407(2) 0.077(2) 0.579(1)
C69? C 1.302(2) -0.029(2) 0.598(1)
C70? C 0.893(2) 0.466(2) 0.259(2)
C71? C 0.882(2) 0.417(2) 0.177(2)
C72? C 0.772(2) 0.349(2) 0.250(2)
C73? C 0.551(2) 0.560(2) 0.649(2)
C140? C 0.066(2) 0.524(2) 0.155(2)
C141? C 0.919(2) 0.221(2) 0.934(2)
C142? C 0.976(2) 0.267(3) 0.849(2)
C143? C 0.963(2) 0.268(2) 0.912(1)
C144? C 0.987(2) 0.315(2) 0.947(2)
C145? C 1.005(3) 0.291(3) 0.999(3)
C146? C 0.901(2) 0.277(2) 1.015(2)
C147? C 0.949(4) 0.201(4) 0.876(3)
C148? C 0.913(2) 0.216(2) 0.983(2)
C149? C 0.953(3) 0.243(2) 1.025(2)
C150? C 0.937(3) 0.334(3) 1.005(2)
C159? C 0.236(3) 0.344(2) 0.570(2)
C201? C 0.952(2) 0.046(2) 0.606(2)
C202? C 0.906(4) 0.143(4) 0.573(3)
C203? C 0.718(3) 0.207(2) 0.553(2)
C204? C 0.682(3) 0.143(3) 0.542(3)
C205? C 0.826(3) 0.078(2) 0.570(2)
C206? C 0.737(4) 0.100(3) 0.546(3)
C207? C 0.794(3) 0.190(2) 0.560(2)
loop_
_geom_bond_atom_site_label_1
_geom_bond_atom_site_label_2
_geom_bond_site_symmetry_1
_geom_bond_site_symmetry_2
Ge1 Cl1 1_555 1_555
Ge2 Cl3 1_555 1_555
Ge3 Cl5 1_555 1_555
Ge4 Cl7 1_555 1_555
Ge5 Cl9 1_555 1_555
Ge6 Cl11 1_555 1_555
Cl2 Ge1 1_555 1_555
Cl4 Ge2 1_555 1_555
Cl6 Ge3 1_555 1_555
Cl8 Ge4 1_555 1_555
Cl10 Ge5 1_555 1_555
Cl12 Ge6 1_555 1_555
Si1 C1 1_555 1_555
Si2 C16 1_555 1_555
Si3 C17 1_555 1_555
Si4 C32 1_555 1_555
Si5 C33 1_555 1_555
Si6 C48 1_555 1_555
Si7 C74 1_555 1_555
Si8 C89 1_555 1_555
Si9 C90 1_555 1_555
Si10 C105 1_555 1_555
Si11 C106 1_555 1_555
Si12 C121 1_555 1_555
C1 Ge1 1_555 1_555
C2 C1 1_555 1_555
C3 C2 1_555 1_555
C4 C3 1_555 1_555
C5 C3 1_555 1_555
C6 C4 1_555 1_555
C7 C5 1_555 1_555
C8 C6 1_555 1_555
C9 C8 1_555 1_555
C10 C9 1_555 1_555
C11 C9 1_555 1_555
C12 C10 1_555 1_555
C13 C11 1_555 1_555
C14 C12 1_555 1_555
C15 C14 1_555 1_555
C16 Ge2 1_555 1_555
C17 Ge2 1_555 1_555
C18 C15 1_555 1_555
C19 C18 1_555 1_555
C20 C19 1_555 1_555
C21 C19 1_555 1_555
C22 C21 1_555 1_555
C23 C20 1_555 1_555
C24 C22 1_555 1_555
C25 C24 1_555 1_555
C26 C25 1_555 1_555
C27 C25 1_555 1_555
C28 C26 1_555 1_555
C29 C27 1_555 1_555
C30 C28 1_555 1_555
C31 C30 1_555 1_555
C32 Ge3 1_555 1_555
C33 Ge3 1_555 1_555
C34 C31 1_555 1_555
C35 C34 1_555 1_555
C36 C35 1_555 1_555
C37 C35 1_555 1_555
C38 C37 1_555 1_555
C39 C36 1_555 1_555
C40 C38 1_555 1_555
C41 C40 1_555 1_555
C42 C41 1_555 1_555
C43 C41 1_555 1_555
C44 C43 1_555 1_555
C45 C42 1_555 1_555
C46 C44 1_555 1_555
C47 C2 1_555 1_555
C48 Ge1 1_555 1_555
C49 Si1 1_555 1_555
C50 Si1 1_555 1_555
C51 Si1 1_555 1_555
C52 Si2 1_555 1_555
C53 Si2 1_555 1_555
C54 Si2 1_555 1_555
C55 Si3 1_555 1_555
C56 Si3 1_555 1_555
C57 Si3 1_555 1_555
C58 Si4 1_555 1_555
C59 Si4 1_555 1_555
C60 Si4 1_555 1_555
C61 Si5 1_555 1_555
C62 Si5 1_555 1_555
C63 Si5 1_555 1_555
C64 Si6 1_555 1_555
C65 Si6 1_555 1_555
C66 Si6 1_555 1_555
C74 Ge4 1_555 1_555
C75 C74 1_555 1_555
C76 C75 1_555 1_555
C77 C76 1_555 1_555
C78 C76 1_555 1_555
C79 C77 1_555 1_555
C80 C78 1_555 1_555
C81 C79 1_555 1_555
C82 C81 1_555 1_555
C83 C82 1_555 1_555
C84 C82 1_555 1_555
C85 C83 1_555 1_555
C86 C84 1_555 1_555
C87 C85 1_555 1_555
C88 C87 1_555 1_555
C89 Ge5 1_555 1_555
C90 Ge5 1_555 1_555
C91 C88 1_555 1_555
C92 C91 1_555 1_555
C93 C92 1_555 1_555
C94 C92 1_555 1_555
C95 C93 1_555 1_555
C96 C94 1_555 1_555
C97 C95 1_555 1_555
C98 C97 1_555 1_555
C99 C98 1_555 1_555
C100 C98 1_555 1_555
C101 C100 1_555 1_555
C102 C99 1_555 1_555
C103 C101 1_555 1_555
C104 C103 1_555 1_555
C105 Ge6 1_555 1_555
C106 Ge6 1_555 1_555
C107 C104 1_555 1_555
C108 C107 1_555 1_555
C109 C108 1_555 1_555
C110 C108 1_555 1_555
C111 C109 1_555 1_555
C112 C110 1_555 1_555
C113 C111 1_555 1_555
C114 C113 1_555 1_555
C115 C114 1_555 1_555
C116 C114 1_555 1_555
C117 C115 1_555 1_555
C118 C116 1_555 1_555
C119 C117 1_555 1_555
C120 C75 1_555 1_555
C121 Ge4 1_555 1_555
C122 Si7 1_555 1_555
C123 Si7 1_555 1_555
C124 Si7 1_555 1_555
C125 Si8 1_555 1_555
C126 Si8 1_555 1_555
C127 Si8 1_555 1_555
C128 Si9 1_555 1_555
C129 Si9 1_555 1_555
C130 Si9 1_555 1_555
C131 Si10 1_555 1_555
C132 Si10 1_555 1_555
C133 Si10 1_555 1_555
C134 Si11 1_555 1_555
C135 Si11 1_555 1_555
C136 Si11 1_555 1_555
C137 Si12 1_555 1_555
C138 Si12 1_555 1_555
C139 Si12 1_555 1_555
C151 C152 1_555 1_555
C152 C153 1_555 1_555
C153 C154 1_555 1_555
C154 C155 1_555 1_555
C155 C156 1_555 1_555
C156 C157 1_555 1_555
C157 C152 1_555 1_555
C158 C164 1_555 1_555
C160 C161 1_555 1_555
C161 C162 1_555 1_555
C162 C163 1_555 1_555
C163 C164 1_555 1_555
C164 C165 1_555 1_555
C165 C160 1_555 1_555
C166 C167 1_555 1_555
C167 C168 1_555 1_555
C168 C169 1_555 1_555
C169 C170 1_555 1_555
C170 C171 1_555 1_555
C171 C172 1_555 1_555
C172 C167 1_555 1_555
C173 C174 1_555 1_555
C174 C175 1_555 1_555
C175 C176 1_555 1_555
C176 C177 1_555 1_555
C177 C178 1_555 1_555
C178 C179 1_555 1_555
C179 C174 1_555 1_555
C180 C181 1_555 1_555
C181 C182 1_555 1_555
C182 C183 1_555 1_555
C183 C184 1_555 1_555
C184 C185 1_555 1_555
C185 C186 1_555 1_555
C186 C181 1_555 1_555
C187 C188 1_555 1_555
C188 C189 1_555 1_555
C189 C190 1_555 1_555
C190 C191 1_555 1_555
C191 C193 1_555 1_555
C192 C188 1_555 1_555
C193 C192 1_555 1_555
C194 C195 1_555 1_555
C195 C196 1_555 1_555
C196 C197 1_555 1_555
C197 C198 1_555 1_555
C198 C199 1_555 1_555
C199 C194 1_555 1_555
C200 C199 1_555 1_555
C7 C8 1_555 1_555
C13 C14 1_555 1_555
C15 C16 1_555 1_555
C17 C18 1_555 1_555
C23 C24 1_555 1_555
C29 C30 1_555 1_555
C31 C32 1_555 1_555
C33 C34 1_555 1_555
C39 C40 1_555 1_555
C45 C46 1_555 1_555
C46 C47 1_555 1_555
C47 C48 1_555 1_555
C80 C81 1_555 1_555
C86 C87 1_555 1_555
C88 C89 1_555 1_555
C90 C91 1_555 1_555
C96 C97 1_555 1_555
C102 C103 1_555 1_555
C104 C105 1_555 1_555
C106 C107 1_555 1_555
C112 C113 1_555 1_555
C118 C119 1_555 1_555
C119 C120 1_555 1_555
C120 C121 1_555 1_555

#END
