# generated using pymatgen
data_B57Pd30C2040S60N120(O79F57)4
_symmetry_space_group_name_H-M   'P 1'
_cell_length_a   78.33000000
_cell_length_b   78.81000000
_cell_length_c   104.90587446
_cell_angle_alpha   97.81780292
_cell_angle_beta   90.00000000
_cell_angle_gamma   90.00000000
_symmetry_Int_Tables_number   1
_chemical_formula_structural   B57Pd30C2040S60N120(O79F57)4
_chemical_formula_sum   'B114 Pd60 C4080 S120 N240 O632 F456'
_cell_volume   641584.53989990
_cell_formula_units_Z   2
loop_
 _symmetry_equiv_pos_site_id
 _symmetry_equiv_pos_as_xyz
  1  'x, y, z'
loop_
 _atom_site_type_symbol
 _atom_site_label
 _atom_site_symmetry_multiplicity
 _atom_site_fract_x
 _atom_site_fract_y
 _atom_site_fract_z
 _atom_site_occupancy
  B  B1  1  0.847100  0.538000  0.310000  1.0
  B  B2  1  0.847100  0.462000  0.690000  1.0
  B  B3  1  0.347100  0.038000  0.810000  1.0
  B  B4  1  0.347100  0.962000  0.190000  1.0
  B  B5  1  0.152900  0.462000  0.690000  1.0
  B  B6  1  0.152900  0.538000  0.310000  1.0
  B  B7  1  0.652900  0.962000  0.190000  1.0
  B  B8  1  0.652900  0.038000  0.810000  1.0
  B  B9  1  0.860100  0.644400  0.349300  1.0
  B  B10  1  0.860100  0.355600  0.650700  1.0
  B  B11  1  0.360100  0.144400  0.849300  1.0
  B  B12  1  0.360100  0.855600  0.150700  1.0
  B  B13  1  0.139900  0.355600  0.650700  1.0
  B  B14  1  0.139900  0.644400  0.349300  1.0
  B  B15  1  0.639900  0.855600  0.150700  1.0
  B  B16  1  0.639900  0.144400  0.849300  1.0
  B  B17  1  0.836000  0.971400  0.120100  1.0
  B  B18  1  0.836000  0.028600  0.879900  1.0
  B  B19  1  0.336000  0.471400  0.620100  1.0
  B  B20  1  0.336000  0.528600  0.379900  1.0
  B  B21  1  0.164000  0.028600  0.879900  1.0
  B  B22  1  0.164000  0.971400  0.120100  1.0
  B  B23  1  0.664000  0.528600  0.379900  1.0
  B  B24  1  0.664000  0.471400  0.620100  1.0
  B  B25  1  0.877100  0.977500  0.200200  1.0
  B  B26  1  0.877100  0.022500  0.799800  1.0
  B  B27  1  0.377100  0.477500  0.700200  1.0
  B  B28  1  0.377100  0.522500  0.299800  1.0
  B  B29  1  0.122900  0.022500  0.799800  1.0
  B  B30  1  0.122900  0.977500  0.200200  1.0
  B  B31  1  0.622900  0.522500  0.299800  1.0
  B  B32  1  0.622900  0.477500  0.700200  1.0
  B  B33  1  0.000000  0.698600  0.154900  1.0
  B  B34  1  0.000000  0.301400  0.845100  1.0
  B  B35  1  0.500000  0.198600  0.654900  1.0
  B  B36  1  0.500000  0.801400  0.345100  1.0
  B  B37  1  0.000000  0.771800  0.228100  1.0
  B  B38  1  0.000000  0.228200  0.771900  1.0
  B  B39  1  0.500000  0.271800  0.728100  1.0
  B  B40  1  0.500000  0.728200  0.271900  1.0
  B  B41  1  0.586200  0.979700  0.267100  1.0
  B  B42  1  0.586200  0.020300  0.732900  1.0
  B  B43  1  0.086200  0.479700  0.767100  1.0
  B  B44  1  0.086200  0.520300  0.232900  1.0
  B  B45  1  0.413800  0.020300  0.732900  1.0
  B  B46  1  0.413800  0.979700  0.267100  1.0
  B  B47  1  0.913800  0.520300  0.232900  1.0
  B  B48  1  0.913800  0.479700  0.767100  1.0
  B  B49  1  0.681300  0.983200  0.314500  1.0
  B  B50  1  0.681300  0.016800  0.685500  1.0
  B  B51  1  0.181300  0.483200  0.814500  1.0
  B  B52  1  0.181300  0.516800  0.185500  1.0
  B  B53  1  0.318700  0.016800  0.685500  1.0
  B  B54  1  0.318700  0.983200  0.314500  1.0
  B  B55  1  0.818700  0.516800  0.185500  1.0
  B  B56  1  0.818700  0.483200  0.814500  1.0
  B  B57  1  0.571900  0.717100  0.384100  1.0
  B  B58  1  0.571900  0.282900  0.615900  1.0
  B  B59  1  0.071900  0.217100  0.884100  1.0
  B  B60  1  0.071900  0.782900  0.115900  1.0
  B  B61  1  0.428100  0.282900  0.615900  1.0
  B  B62  1  0.428100  0.717100  0.384100  1.0
  B  B63  1  0.928100  0.782900  0.115900  1.0
  B  B64  1  0.928100  0.217100  0.884100  1.0
  B  B65  1  0.675200  0.764100  0.400000  1.0
  B  B66  1  0.675200  0.235900  0.600000  1.0
  B  B67  1  0.175200  0.264100  0.900000  1.0
  B  B68  1  0.175200  0.735900  0.100000  1.0
  B  B69  1  0.324800  0.235900  0.600000  1.0
  B  B70  1  0.324800  0.764100  0.400000  1.0
  B  B71  1  0.824800  0.735900  0.100000  1.0
  B  B72  1  0.824800  0.264100  0.900000  1.0
  B  B73  1  0.740900  0.559200  0.537500  1.0
  B  B74  1  0.740900  0.440800  0.462500  1.0
  B  B75  1  0.240900  0.059200  0.037500  1.0
  B  B76  1  0.240900  0.940800  0.962500  1.0
  B  B77  1  0.259100  0.440800  0.462500  1.0
  B  B78  1  0.259100  0.559200  0.537500  1.0
  B  B79  1  0.759100  0.940800  0.962500  1.0
  B  B80  1  0.759100  0.059200  0.037500  1.0
  B  B81  1  0.793600  0.655100  0.525200  1.0
  B  B82  1  0.793600  0.344900  0.474800  1.0
  B  B83  1  0.293600  0.155100  0.025200  1.0
  B  B84  1  0.293600  0.844900  0.974800  1.0
  B  B85  1  0.206400  0.344900  0.474800  1.0
  B  B86  1  0.206400  0.655100  0.525200  1.0
  B  B87  1  0.706400  0.844900  0.974800  1.0
  B  B88  1  0.706400  0.155100  0.025200  1.0
  B  B89  1  0.750000  0.750000  0.750000  1.0
  B  B90  1  0.750000  0.250000  0.250000  1.0
  B  B91  1  0.250000  0.250000  0.250000  1.0
  B  B92  1  0.250000  0.750000  0.750000  1.0
  B  B93  1  0.806600  0.807300  0.698800  1.0
  B  B94  1  0.806600  0.192700  0.301200  1.0
  B  B95  1  0.306600  0.307300  0.198800  1.0
  B  B96  1  0.306600  0.692700  0.801200  1.0
  B  B97  1  0.193400  0.192700  0.301200  1.0
  B  B98  1  0.193400  0.807300  0.698800  1.0
  B  B99  1  0.693400  0.692700  0.801200  1.0
  B  B100  1  0.693400  0.307300  0.198800  1.0
  B  B101  1  0.500000  0.000000  0.500000  1.0
  B  B102  1  0.000000  0.500000  0.000000  1.0
  B  B103  1  0.611600  0.000000  0.500000  1.0
  B  B104  1  0.111600  0.500000  0.000000  1.0
  B  B105  1  0.388400  0.000000  0.500000  1.0
  B  B106  1  0.888400  0.500000  0.000000  1.0
  B  B107  1  0.000000  0.653500  0.633400  1.0
  B  B108  1  0.000000  0.346500  0.366600  1.0
  B  B109  1  0.500000  0.153500  0.133400  1.0
  B  B110  1  0.500000  0.846500  0.866600  1.0
  B  B111  1  0.997100  0.564200  0.677600  0.5
  B  B112  1  0.997100  0.435800  0.322400  0.5
  B  B113  1  0.497100  0.064200  0.177600  0.5
  B  B114  1  0.497100  0.935800  0.822400  0.5
  B  B115  1  0.002900  0.435800  0.322400  0.5
  B  B116  1  0.002900  0.564200  0.677600  0.5
  B  B117  1  0.502900  0.935800  0.822400  0.5
  B  B118  1  0.502900  0.064200  0.177600  0.5
  Pd  Pd119  1  0.853120  0.592460  0.327360  1.0
  Pd  Pd120  1  0.853120  0.407540  0.672640  1.0
  Pd  Pd121  1  0.353120  0.092460  0.827360  1.0
  Pd  Pd122  1  0.353120  0.907540  0.172640  1.0
  Pd  Pd123  1  0.146880  0.407540  0.672640  1.0
  Pd  Pd124  1  0.146880  0.592460  0.327360  1.0
  Pd  Pd125  1  0.646880  0.907540  0.172640  1.0
  Pd  Pd126  1  0.646880  0.092460  0.827360  1.0
  Pd  Pd127  1  0.857200  0.975340  0.160090  1.0
  Pd  Pd128  1  0.857200  0.024660  0.839910  1.0
  Pd  Pd129  1  0.357200  0.475340  0.660090  1.0
  Pd  Pd130  1  0.357200  0.524660  0.339910  1.0
  Pd  Pd131  1  0.142800  0.024660  0.839910  1.0
  Pd  Pd132  1  0.142800  0.975340  0.160090  1.0
  Pd  Pd133  1  0.642800  0.524660  0.339910  1.0
  Pd  Pd134  1  0.642800  0.475340  0.660090  1.0
  Pd  Pd135  1  0.000000  0.737440  0.190270  1.0
  Pd  Pd136  1  0.000000  0.262560  0.809730  1.0
  Pd  Pd137  1  0.500000  0.237440  0.690270  1.0
  Pd  Pd138  1  0.500000  0.762560  0.309730  1.0
  Pd  Pd139  1  0.633040  0.979230  0.291510  1.0
  Pd  Pd140  1  0.633040  0.020770  0.708490  1.0
  Pd  Pd141  1  0.133040  0.479230  0.791510  1.0
  Pd  Pd142  1  0.133040  0.520770  0.208490  1.0
  Pd  Pd143  1  0.366960  0.020770  0.708490  1.0
  Pd  Pd144  1  0.366960  0.979230  0.291510  1.0
  Pd  Pd145  1  0.866960  0.520770  0.208490  1.0
  Pd  Pd146  1  0.866960  0.479230  0.791510  1.0
  Pd  Pd147  1  0.624020  0.741380  0.389130  1.0
  Pd  Pd148  1  0.624020  0.258620  0.610870  1.0
  Pd  Pd149  1  0.124020  0.241380  0.889130  1.0
  Pd  Pd150  1  0.124020  0.758620  0.110870  1.0
  Pd  Pd151  1  0.375980  0.258620  0.610870  1.0
  Pd  Pd152  1  0.375980  0.741380  0.389130  1.0
  Pd  Pd153  1  0.875980  0.758620  0.110870  1.0
  Pd  Pd154  1  0.875980  0.241380  0.889130  1.0
  Pd  Pd155  1  0.766910  0.607520  0.532110  1.0
  Pd  Pd156  1  0.766910  0.392480  0.467890  1.0
  Pd  Pd157  1  0.266910  0.107520  0.032110  1.0
  Pd  Pd158  1  0.266910  0.892480  0.967890  1.0
  Pd  Pd159  1  0.233090  0.392480  0.467890  1.0
  Pd  Pd160  1  0.233090  0.607520  0.532110  1.0
  Pd  Pd161  1  0.733090  0.892480  0.967890  1.0
  Pd  Pd162  1  0.733090  0.107520  0.032110  1.0
  Pd  Pd163  1  0.777610  0.776710  0.724030  1.0
  Pd  Pd164  1  0.777610  0.223290  0.275970  1.0
  Pd  Pd165  1  0.277610  0.276710  0.224030  1.0
  Pd  Pd166  1  0.277610  0.723290  0.775970  1.0
  Pd  Pd167  1  0.222390  0.223290  0.275970  1.0
  Pd  Pd168  1  0.222390  0.776710  0.724030  1.0
  Pd  Pd169  1  0.722390  0.723290  0.775970  1.0
  Pd  Pd170  1  0.722390  0.276710  0.224030  1.0
  Pd  Pd171  1  0.554450  0.000000  0.500000  1.0
  Pd  Pd172  1  0.054450  0.500000  0.000000  1.0
  Pd  Pd173  1  0.445550  0.000000  0.500000  1.0
  Pd  Pd174  1  0.945550  0.500000  0.000000  1.0
  Pd  Pd175  1  0.000000  0.609170  0.656070  1.0
  Pd  Pd176  1  0.000000  0.390830  0.343930  1.0
  Pd  Pd177  1  0.500000  0.109170  0.156070  1.0
  Pd  Pd178  1  0.500000  0.890830  0.843930  1.0
  C  C179  1  0.636900  0.971600  0.264800  1.0
  C  C180  1  0.636900  0.028400  0.735200  1.0
  C  C181  1  0.136900  0.471600  0.764800  1.0
  C  C182  1  0.136900  0.528400  0.235200  1.0
  C  C183  1  0.363100  0.028400  0.735200  1.0
  C  C184  1  0.363100  0.971600  0.264800  1.0
  C  C185  1  0.863100  0.528400  0.235200  1.0
  C  C186  1  0.863100  0.471600  0.764800  1.0
  C  C187  1  0.647000  0.968600  0.253000  1.0
  C  C188  1  0.647000  0.031400  0.747000  1.0
  C  C189  1  0.147000  0.468600  0.753000  1.0
  C  C190  1  0.147000  0.531400  0.247000  1.0
  C  C191  1  0.353000  0.031400  0.747000  1.0
  C  C192  1  0.353000  0.968600  0.253000  1.0
  C  C193  1  0.853000  0.531400  0.247000  1.0
  C  C194  1  0.853000  0.468600  0.753000  1.0
  C  C195  1  0.664800  0.966200  0.253600  1.0
  C  C196  1  0.664800  0.033800  0.746400  1.0
  C  C197  1  0.164800  0.466200  0.753600  1.0
  C  C198  1  0.164800  0.533800  0.246400  1.0
  C  C199  1  0.335200  0.033800  0.746400  1.0
  C  C200  1  0.335200  0.966200  0.253600  1.0
  C  C201  1  0.835200  0.533800  0.246400  1.0
  C  C202  1  0.835200  0.466200  0.753600  1.0
  C  C203  1  0.673500  0.967000  0.265400  1.0
  C  C204  1  0.673500  0.033000  0.734600  1.0
  C  C205  1  0.173500  0.467000  0.765400  1.0
  C  C206  1  0.173500  0.533000  0.234600  1.0
  C  C207  1  0.326500  0.033000  0.734600  1.0
  C  C208  1  0.326500  0.967000  0.265400  1.0
  C  C209  1  0.826500  0.533000  0.234600  1.0
  C  C210  1  0.826500  0.467000  0.765400  1.0
  C  C211  1  0.662800  0.970400  0.276800  1.0
  C  C212  1  0.662800  0.029600  0.723200  1.0
  C  C213  1  0.162800  0.470400  0.776800  1.0
  C  C214  1  0.162800  0.529600  0.223200  1.0
  C  C215  1  0.337200  0.029600  0.723200  1.0
  C  C216  1  0.337200  0.970400  0.276800  1.0
  C  C217  1  0.837200  0.529600  0.223200  1.0
  C  C218  1  0.837200  0.470400  0.776800  1.0
  C  C219  1  0.674800  0.964500  0.241400  1.0
  C  C220  1  0.674800  0.035500  0.758600  1.0
  C  C221  1  0.174800  0.464500  0.741400  1.0
  C  C222  1  0.174800  0.535500  0.258600  1.0
  C  C223  1  0.325200  0.035500  0.758600  1.0
  C  C224  1  0.325200  0.964500  0.241400  1.0
  C  C225  1  0.825200  0.535500  0.258600  1.0
  C  C226  1  0.825200  0.464500  0.741400  1.0
  C  C227  1  0.681400  0.979800  0.237100  1.0
  C  C228  1  0.681400  0.020200  0.762900  1.0
  C  C229  1  0.181400  0.479800  0.737100  1.0
  C  C230  1  0.181400  0.520200  0.262900  1.0
  C  C231  1  0.318600  0.020200  0.762900  1.0
  C  C232  1  0.318600  0.979800  0.237100  1.0
  C  C233  1  0.818600  0.520200  0.262900  1.0
  C  C234  1  0.818600  0.479800  0.737100  1.0
  C  C235  1  0.691300  0.978600  0.225600  1.0
  C  C236  1  0.691300  0.021400  0.774400  1.0
  C  C237  1  0.191300  0.478600  0.725600  1.0
  C  C238  1  0.191300  0.521400  0.274400  1.0
  C  C239  1  0.308700  0.021400  0.774400  1.0
  C  C240  1  0.308700  0.978600  0.225600  1.0
  C  C241  1  0.808700  0.521400  0.274400  1.0
  C  C242  1  0.808700  0.478600  0.725600  1.0
  C  C243  1  0.694900  0.962000  0.218300  1.0
  C  C244  1  0.694900  0.038000  0.781700  1.0
  C  C245  1  0.194900  0.462000  0.718300  1.0
  C  C246  1  0.194900  0.538000  0.281700  1.0
  C  C247  1  0.305100  0.038000  0.781700  1.0
  C  C248  1  0.305100  0.962000  0.218300  1.0
  C  C249  1  0.805100  0.538000  0.281700  1.0
  C  C250  1  0.805100  0.462000  0.718300  1.0
  C  C251  1  0.688200  0.946700  0.222300  1.0
  C  C252  1  0.688200  0.053300  0.777700  1.0
  C  C253  1  0.188200  0.446700  0.722300  1.0
  C  C254  1  0.188200  0.553300  0.277700  1.0
  C  C255  1  0.311800  0.053300  0.777700  1.0
  C  C256  1  0.311800  0.946700  0.222300  1.0
  C  C257  1  0.811800  0.553300  0.277700  1.0
  C  C258  1  0.811800  0.446700  0.722300  1.0
  C  C259  1  0.678800  0.948100  0.234200  1.0
  C  C260  1  0.678800  0.051900  0.765800  1.0
  C  C261  1  0.178800  0.448100  0.734200  1.0
  C  C262  1  0.178800  0.551900  0.265800  1.0
  C  C263  1  0.321200  0.051900  0.765800  1.0
  C  C264  1  0.321200  0.948100  0.234200  1.0
  C  C265  1  0.821200  0.551900  0.265800  1.0
  C  C266  1  0.821200  0.448100  0.734200  1.0
  C  C267  1  0.676600  0.996600  0.244400  1.0
  C  C268  1  0.676600  0.003400  0.755600  1.0
  C  C269  1  0.176600  0.496600  0.744400  1.0
  C  C270  1  0.176600  0.503400  0.255600  1.0
  C  C271  1  0.323400  0.003400  0.755600  1.0
  C  C272  1  0.323400  0.996600  0.244400  1.0
  C  C273  1  0.823400  0.503400  0.255600  1.0
  C  C274  1  0.823400  0.496600  0.744400  1.0
  C  C275  1  0.698000  0.993400  0.219800  1.0
  C  C276  1  0.698000  0.006600  0.780200  1.0
  C  C277  1  0.198000  0.493400  0.719800  1.0
  C  C278  1  0.198000  0.506600  0.280200  1.0
  C  C279  1  0.302000  0.006600  0.780200  1.0
  C  C280  1  0.302000  0.993400  0.219800  1.0
  C  C281  1  0.802000  0.506600  0.280200  1.0
  C  C282  1  0.802000  0.493400  0.719800  1.0
  C  C283  1  0.692200  0.929900  0.214800  1.0
  C  C284  1  0.692200  0.070100  0.785200  1.0
  C  C285  1  0.192200  0.429900  0.714800  1.0
  C  C286  1  0.192200  0.570100  0.285200  1.0
  C  C287  1  0.307800  0.070100  0.785200  1.0
  C  C288  1  0.307800  0.929900  0.214800  1.0
  C  C289  1  0.807800  0.570100  0.285200  1.0
  C  C290  1  0.807800  0.429900  0.714800  1.0
  C  C291  1  0.670400  0.932400  0.237400  1.0
  C  C292  1  0.670400  0.067600  0.762600  1.0
  C  C293  1  0.170400  0.432400  0.737400  1.0
  C  C294  1  0.170400  0.567600  0.262600  1.0
  C  C295  1  0.329600  0.067600  0.762600  1.0
  C  C296  1  0.329600  0.932400  0.237400  1.0
  C  C297  1  0.829600  0.567600  0.262600  1.0
  C  C298  1  0.829600  0.432400  0.737400  1.0
  C  C299  1  0.707000  0.961600  0.207600  1.0
  C  C300  1  0.707000  0.038400  0.792400  1.0
  C  C301  1  0.207000  0.461600  0.707600  1.0
  C  C302  1  0.207000  0.538400  0.292400  1.0
  C  C303  1  0.293000  0.038400  0.792400  1.0
  C  C304  1  0.293000  0.961600  0.207600  1.0
  C  C305  1  0.793000  0.538400  0.292400  1.0
  C  C306  1  0.793000  0.461600  0.707600  1.0
  C  C307  1  0.702100  0.961200  0.194700  1.0
  C  C308  1  0.702100  0.038800  0.805300  1.0
  C  C309  1  0.202100  0.461200  0.694700  1.0
  C  C310  1  0.202100  0.538800  0.305300  1.0
  C  C311  1  0.297900  0.038800  0.805300  1.0
  C  C312  1  0.297900  0.961200  0.194700  1.0
  C  C313  1  0.797900  0.538800  0.305300  1.0
  C  C314  1  0.797900  0.461200  0.694700  1.0
  C  C315  1  0.822400  0.969100  0.156500  1.0
  C  C316  1  0.822400  0.030900  0.843500  1.0
  C  C317  1  0.322400  0.469100  0.656500  1.0
  C  C318  1  0.322400  0.530900  0.343500  1.0
  C  C319  1  0.177600  0.030900  0.843500  1.0
  C  C320  1  0.177600  0.969100  0.156500  1.0
  C  C321  1  0.677600  0.530900  0.343500  1.0
  C  C322  1  0.677600  0.469100  0.656500  1.0
  C  C323  1  0.804700  0.967000  0.160800  1.0
  C  C324  1  0.804700  0.033000  0.839200  1.0
  C  C325  1  0.304700  0.467000  0.660800  1.0
  C  C326  1  0.304700  0.533000  0.339200  1.0
  C  C327  1  0.195300  0.033000  0.839200  1.0
  C  C328  1  0.195300  0.967000  0.160800  1.0
  C  C329  1  0.695300  0.533000  0.339200  1.0
  C  C330  1  0.695300  0.467000  0.660800  1.0
  C  C331  1  0.801200  0.966100  0.174000  1.0
  C  C332  1  0.801200  0.033900  0.826000  1.0
  C  C333  1  0.301200  0.466100  0.674000  1.0
  C  C334  1  0.301200  0.533900  0.326000  1.0
  C  C335  1  0.198800  0.033900  0.826000  1.0
  C  C336  1  0.198800  0.966100  0.174000  1.0
  C  C337  1  0.698800  0.533900  0.326000  1.0
  C  C338  1  0.698800  0.466100  0.674000  1.0
  C  C339  1  0.814600  0.968100  0.183100  1.0
  C  C340  1  0.814600  0.031900  0.816900  1.0
  C  C341  1  0.314600  0.468100  0.683100  1.0
  C  C342  1  0.314600  0.531900  0.316900  1.0
  C  C343  1  0.185400  0.031900  0.816900  1.0
  C  C344  1  0.185400  0.968100  0.183100  1.0
  C  C345  1  0.685400  0.531900  0.316900  1.0
  C  C346  1  0.685400  0.468100  0.683100  1.0
  C  C347  1  0.832000  0.970000  0.178600  1.0
  C  C348  1  0.832000  0.030000  0.821400  1.0
  C  C349  1  0.332000  0.470000  0.678600  1.0
  C  C350  1  0.332000  0.530000  0.321400  1.0
  C  C351  1  0.168000  0.030000  0.821400  1.0
  C  C352  1  0.168000  0.970000  0.178600  1.0
  C  C353  1  0.668000  0.530000  0.321400  1.0
  C  C354  1  0.668000  0.470000  0.678600  1.0
  C  C355  1  0.783300  0.964300  0.178600  1.0
  C  C356  1  0.783300  0.035700  0.821400  1.0
  C  C357  1  0.283300  0.464300  0.678600  1.0
  C  C358  1  0.283300  0.535700  0.321400  1.0
  C  C359  1  0.216700  0.035700  0.821400  1.0
  C  C360  1  0.216700  0.964300  0.178600  1.0
  C  C361  1  0.716700  0.535700  0.321400  1.0
  C  C362  1  0.716700  0.464300  0.678600  1.0
  C  C363  1  0.775900  0.947800  0.179700  1.0
  C  C364  1  0.775900  0.052200  0.820300  1.0
  C  C365  1  0.275900  0.447800  0.679700  1.0
  C  C366  1  0.275900  0.552200  0.320300  1.0
  C  C367  1  0.224100  0.052200  0.820300  1.0
  C  C368  1  0.224100  0.947800  0.179700  1.0
  C  C369  1  0.724100  0.552200  0.320300  1.0
  C  C370  1  0.724100  0.447800  0.679700  1.0
  C  C371  1  0.758700  0.946500  0.184600  1.0
  C  C372  1  0.758700  0.053500  0.815400  1.0
  C  C373  1  0.258700  0.446500  0.684600  1.0
  C  C374  1  0.258700  0.553500  0.315400  1.0
  C  C375  1  0.241300  0.053500  0.815400  1.0
  C  C376  1  0.241300  0.946500  0.184600  1.0
  C  C377  1  0.741300  0.553500  0.315400  1.0
  C  C378  1  0.741300  0.446500  0.684600  1.0
  C  C379  1  0.749400  0.962100  0.188000  1.0
  C  C380  1  0.749400  0.037900  0.812000  1.0
  C  C381  1  0.249400  0.462100  0.688000  1.0
  C  C382  1  0.249400  0.537900  0.312000  1.0
  C  C383  1  0.250600  0.037900  0.812000  1.0
  C  C384  1  0.250600  0.962100  0.188000  1.0
  C  C385  1  0.750600  0.537900  0.312000  1.0
  C  C386  1  0.750600  0.462100  0.688000  1.0
  C  C387  1  0.756800  0.978600  0.187500  1.0
  C  C388  1  0.756800  0.021400  0.812500  1.0
  C  C389  1  0.256800  0.478600  0.687500  1.0
  C  C390  1  0.256800  0.521400  0.312500  1.0
  C  C391  1  0.243200  0.021400  0.812500  1.0
  C  C392  1  0.243200  0.978600  0.187500  1.0
  C  C393  1  0.743200  0.521400  0.312500  1.0
  C  C394  1  0.743200  0.478600  0.687500  1.0
  C  C395  1  0.773700  0.979900  0.182400  1.0
  C  C396  1  0.773700  0.020100  0.817600  1.0
  C  C397  1  0.273700  0.479900  0.682400  1.0
  C  C398  1  0.273700  0.520100  0.317600  1.0
  C  C399  1  0.226300  0.020100  0.817600  1.0
  C  C400  1  0.226300  0.979900  0.182400  1.0
  C  C401  1  0.726300  0.520100  0.317600  1.0
  C  C402  1  0.726300  0.479900  0.682400  1.0
  C  C403  1  0.785300  0.931600  0.175800  1.0
  C  C404  1  0.785300  0.068400  0.824200  1.0
  C  C405  1  0.285300  0.431600  0.675800  1.0
  C  C406  1  0.285300  0.568400  0.324200  1.0
  C  C407  1  0.214700  0.068400  0.824200  1.0
  C  C408  1  0.214700  0.931600  0.175800  1.0
  C  C409  1  0.714700  0.568400  0.324200  1.0
  C  C410  1  0.714700  0.431600  0.675800  1.0
  C  C411  1  0.750600  0.929700  0.185600  1.0
  C  C412  1  0.750600  0.070300  0.814400  1.0
  C  C413  1  0.250600  0.429700  0.685600  1.0
  C  C414  1  0.250600  0.570300  0.314400  1.0
  C  C415  1  0.249400  0.070300  0.814400  1.0
  C  C416  1  0.249400  0.929700  0.185600  1.0
  C  C417  1  0.749400  0.570300  0.314400  1.0
  C  C418  1  0.749400  0.429700  0.685600  1.0
  C  C419  1  0.745900  0.994000  0.190800  1.0
  C  C420  1  0.745900  0.006000  0.809200  1.0
  C  C421  1  0.245900  0.494000  0.690800  1.0
  C  C422  1  0.245900  0.506000  0.309200  1.0
  C  C423  1  0.254100  0.006000  0.809200  1.0
  C  C424  1  0.254100  0.994000  0.190800  1.0
  C  C425  1  0.754100  0.506000  0.309200  1.0
  C  C426  1  0.754100  0.494000  0.690800  1.0
  C  C427  1  0.781000  0.997100  0.181100  1.0
  C  C428  1  0.781000  0.002900  0.818900  1.0
  C  C429  1  0.281000  0.497100  0.681100  1.0
  C  C430  1  0.281000  0.502900  0.318900  1.0
  C  C431  1  0.219000  0.002900  0.818900  1.0
  C  C432  1  0.219000  0.997100  0.181100  1.0
  C  C433  1  0.719000  0.502900  0.318900  1.0
  C  C434  1  0.719000  0.497100  0.681100  1.0
  C  C435  1  0.731900  0.962000  0.193300  1.0
  C  C436  1  0.731900  0.038000  0.806700  1.0
  C  C437  1  0.231900  0.462000  0.693300  1.0
  C  C438  1  0.231900  0.538000  0.306700  1.0
  C  C439  1  0.268100  0.038000  0.806700  1.0
  C  C440  1  0.268100  0.962000  0.193300  1.0
  C  C441  1  0.768100  0.538000  0.306700  1.0
  C  C442  1  0.768100  0.462000  0.693300  1.0
  C  C443  1  0.716800  0.961000  0.186500  1.0
  C  C444  1  0.716800  0.039000  0.813500  1.0
  C  C445  1  0.216800  0.461000  0.686500  1.0
  C  C446  1  0.216800  0.539000  0.313500  1.0
  C  C447  1  0.283200  0.039000  0.813500  1.0
  C  C448  1  0.283200  0.961000  0.186500  1.0
  C  C449  1  0.783200  0.539000  0.313500  1.0
  C  C450  1  0.783200  0.461000  0.686500  1.0
  C  C451  1  0.977700  0.747500  0.171000  1.0
  C  C452  1  0.977700  0.252500  0.829000  1.0
  C  C453  1  0.477700  0.247500  0.671000  1.0
  C  C454  1  0.477700  0.752500  0.329000  1.0
  C  C455  1  0.022300  0.252500  0.829000  1.0
  C  C456  1  0.022300  0.747500  0.171000  1.0
  C  C457  1  0.522300  0.752500  0.329000  1.0
  C  C458  1  0.522300  0.247500  0.671000  1.0
  C  C459  1  0.966600  0.758800  0.164900  1.0
  C  C460  1  0.966600  0.241200  0.835100  1.0
  C  C461  1  0.466600  0.258800  0.664900  1.0
  C  C462  1  0.466600  0.741200  0.335100  1.0
  C  C463  1  0.033400  0.241200  0.835100  1.0
  C  C464  1  0.033400  0.758800  0.164900  1.0
  C  C465  1  0.533400  0.741200  0.335100  1.0
  C  C466  1  0.533400  0.258800  0.664900  1.0
  C  C467  1  0.959700  0.773600  0.172800  1.0
  C  C468  1  0.959700  0.226400  0.827200  1.0
  C  C469  1  0.459700  0.273600  0.672800  1.0
  C  C470  1  0.459700  0.726400  0.327200  1.0
  C  C471  1  0.040300  0.226400  0.827200  1.0
  C  C472  1  0.040300  0.773600  0.172800  1.0
  C  C473  1  0.540300  0.726400  0.327200  1.0
  C  C474  1  0.540300  0.273600  0.672800  1.0
  C  C475  1  0.965500  0.777000  0.185600  1.0
  C  C476  1  0.965500  0.223000  0.814400  1.0
  C  C477  1  0.465500  0.277000  0.685600  1.0
  C  C478  1  0.465500  0.723000  0.314400  1.0
  C  C479  1  0.034500  0.223000  0.814400  1.0
  C  C480  1  0.034500  0.777000  0.185600  1.0
  C  C481  1  0.534500  0.723000  0.314400  1.0
  C  C482  1  0.534500  0.277000  0.685600  1.0
  C  C483  1  0.976900  0.765000  0.191200  1.0
  C  C484  1  0.976900  0.235000  0.808800  1.0
  C  C485  1  0.476900  0.265000  0.691200  1.0
  C  C486  1  0.476900  0.735000  0.308800  1.0
  C  C487  1  0.023100  0.235000  0.808800  1.0
  C  C488  1  0.023100  0.765000  0.191200  1.0
  C  C489  1  0.523100  0.735000  0.308800  1.0
  C  C490  1  0.523100  0.265000  0.691200  1.0
  C  C491  1  0.949600  0.785900  0.166500  1.0
  C  C492  1  0.949600  0.214100  0.833500  1.0
  C  C493  1  0.449600  0.285900  0.666500  1.0
  C  C494  1  0.449600  0.714100  0.333500  1.0
  C  C495  1  0.050400  0.214100  0.833500  1.0
  C  C496  1  0.050400  0.785900  0.166500  1.0
  C  C497  1  0.550400  0.714100  0.333500  1.0
  C  C498  1  0.550400  0.285900  0.666500  1.0
  C  C499  1  0.931500  0.783600  0.165800  1.0
  C  C500  1  0.931500  0.216400  0.834200  1.0
  C  C501  1  0.431500  0.283600  0.665800  1.0
  C  C502  1  0.431500  0.716400  0.334200  1.0
  C  C503  1  0.068500  0.216400  0.834200  1.0
  C  C504  1  0.068500  0.783600  0.165800  1.0
  C  C505  1  0.568500  0.716400  0.334200  1.0
  C  C506  1  0.568500  0.283600  0.665800  1.0
  C  C507  1  0.921100  0.795500  0.160200  1.0
  C  C508  1  0.921100  0.204500  0.839800  1.0
  C  C509  1  0.421100  0.295500  0.660200  1.0
  C  C510  1  0.421100  0.704500  0.339800  1.0
  C  C511  1  0.078900  0.204500  0.839800  1.0
  C  C512  1  0.078900  0.795500  0.160200  1.0
  C  C513  1  0.578900  0.704500  0.339800  1.0
  C  C514  1  0.578900  0.295500  0.660200  1.0
  C  C515  1  0.929300  0.809700  0.155700  1.0
  C  C516  1  0.929300  0.190300  0.844300  1.0
  C  C517  1  0.429300  0.309700  0.655700  1.0
  C  C518  1  0.429300  0.690300  0.344300  1.0
  C  C519  1  0.070700  0.190300  0.844300  1.0
  C  C520  1  0.070700  0.809700  0.155700  1.0
  C  C521  1  0.570700  0.690300  0.344300  1.0
  C  C522  1  0.570700  0.309700  0.655700  1.0
  C  C523  1  0.947300  0.812400  0.156600  1.0
  C  C524  1  0.947300  0.187600  0.843400  1.0
  C  C525  1  0.447300  0.312400  0.656600  1.0
  C  C526  1  0.447300  0.687600  0.343400  1.0
  C  C527  1  0.052700  0.187600  0.843400  1.0
  C  C528  1  0.052700  0.812400  0.156600  1.0
  C  C529  1  0.552700  0.687600  0.343400  1.0
  C  C530  1  0.552700  0.312400  0.656600  1.0
  C  C531  1  0.957600  0.800000  0.161800  1.0
  C  C532  1  0.957600  0.200000  0.838200  1.0
  C  C533  1  0.457600  0.300000  0.661800  1.0
  C  C534  1  0.457600  0.700000  0.338200  1.0
  C  C535  1  0.042400  0.200000  0.838200  1.0
  C  C536  1  0.042400  0.800000  0.161800  1.0
  C  C537  1  0.542400  0.700000  0.338200  1.0
  C  C538  1  0.542400  0.300000  0.661800  1.0
  C  C539  1  0.923200  0.768600  0.170300  1.0
  C  C540  1  0.923200  0.231400  0.829700  1.0
  C  C541  1  0.423200  0.268600  0.670300  1.0
  C  C542  1  0.423200  0.731400  0.329700  1.0
  C  C543  1  0.076800  0.231400  0.829700  1.0
  C  C544  1  0.076800  0.768600  0.170300  1.0
  C  C545  1  0.576800  0.731400  0.329700  1.0
  C  C546  1  0.576800  0.268600  0.670300  1.0
  C  C547  1  0.902200  0.793800  0.158900  1.0
  C  C548  1  0.902200  0.206200  0.841100  1.0
  C  C549  1  0.402200  0.293800  0.658900  1.0
  C  C550  1  0.402200  0.706200  0.341100  1.0
  C  C551  1  0.097800  0.206200  0.841100  1.0
  C  C552  1  0.097800  0.793800  0.158900  1.0
  C  C553  1  0.597800  0.706200  0.341100  1.0
  C  C554  1  0.597800  0.293800  0.658900  1.0
  C  C555  1  0.954700  0.826700  0.150500  1.0
  C  C556  1  0.954700  0.173300  0.849500  1.0
  C  C557  1  0.454700  0.326700  0.650500  1.0
  C  C558  1  0.454700  0.673300  0.349500  1.0
  C  C559  1  0.045300  0.173300  0.849500  1.0
  C  C560  1  0.045300  0.826700  0.150500  1.0
  C  C561  1  0.545300  0.673300  0.349500  1.0
  C  C562  1  0.545300  0.326700  0.650500  1.0
  C  C563  1  0.976600  0.802500  0.162700  1.0
  C  C564  1  0.976600  0.197500  0.837300  1.0
  C  C565  1  0.476600  0.302500  0.662700  1.0
  C  C566  1  0.476600  0.697500  0.337300  1.0
  C  C567  1  0.023400  0.197500  0.837300  1.0
  C  C568  1  0.023400  0.802500  0.162700  1.0
  C  C569  1  0.523400  0.697500  0.337300  1.0
  C  C570  1  0.523400  0.302500  0.662700  1.0
  C  C571  1  0.918600  0.822600  0.150800  1.0
  C  C572  1  0.918600  0.177400  0.849200  1.0
  C  C573  1  0.418600  0.322600  0.650800  1.0
  C  C574  1  0.418600  0.677400  0.349200  1.0
  C  C575  1  0.081400  0.177400  0.849200  1.0
  C  C576  1  0.081400  0.822600  0.150800  1.0
  C  C577  1  0.581400  0.677400  0.349200  1.0
  C  C578  1  0.581400  0.322600  0.650800  1.0
  C  C579  1  0.912400  0.822000  0.138200  1.0
  C  C580  1  0.912400  0.178000  0.861800  1.0
  C  C581  1  0.412400  0.322000  0.638200  1.0
  C  C582  1  0.412400  0.678000  0.361800  1.0
  C  C583  1  0.087600  0.178000  0.861800  1.0
  C  C584  1  0.087600  0.822000  0.138200  1.0
  C  C585  1  0.587600  0.678000  0.361800  1.0
  C  C586  1  0.587600  0.322000  0.638200  1.0
  C  C587  1  0.861100  0.943700  0.145800  1.0
  C  C588  1  0.861100  0.056300  0.854200  1.0
  C  C589  1  0.361100  0.443700  0.645800  1.0
  C  C590  1  0.361100  0.556300  0.354200  1.0
  C  C591  1  0.138900  0.056300  0.854200  1.0
  C  C592  1  0.138900  0.943700  0.145800  1.0
  C  C593  1  0.638900  0.556300  0.354200  1.0
  C  C594  1  0.638900  0.443700  0.645800  1.0
  C  C595  1  0.867400  0.925900  0.143200  1.0
  C  C596  1  0.867400  0.074100  0.856800  1.0
  C  C597  1  0.367400  0.425900  0.643200  1.0
  C  C598  1  0.367400  0.574100  0.356800  1.0
  C  C599  1  0.132600  0.074100  0.856800  1.0
  C  C600  1  0.132600  0.925900  0.143200  1.0
  C  C601  1  0.632600  0.574100  0.356800  1.0
  C  C602  1  0.632600  0.425900  0.643200  1.0
  C  C603  1  0.873800  0.917900  0.153500  1.0
  C  C604  1  0.873800  0.082100  0.846500  1.0
  C  C605  1  0.373800  0.417900  0.653500  1.0
  C  C606  1  0.373800  0.582100  0.346500  1.0
  C  C607  1  0.126200  0.082100  0.846500  1.0
  C  C608  1  0.126200  0.917900  0.153500  1.0
  C  C609  1  0.626200  0.582100  0.346500  1.0
  C  C610  1  0.626200  0.417900  0.653500  1.0
  C  C611  1  0.875100  0.927400  0.165900  1.0
  C  C612  1  0.875100  0.072600  0.834100  1.0
  C  C613  1  0.375100  0.427400  0.665900  1.0
  C  C614  1  0.375100  0.572600  0.334100  1.0
  C  C615  1  0.124900  0.072600  0.834100  1.0
  C  C616  1  0.124900  0.927400  0.165900  1.0
  C  C617  1  0.624900  0.572600  0.334100  1.0
  C  C618  1  0.624900  0.427400  0.665900  1.0
  C  C619  1  0.869100  0.945200  0.168100  1.0
  C  C620  1  0.869100  0.054800  0.831900  1.0
  C  C621  1  0.369100  0.445200  0.668100  1.0
  C  C622  1  0.369100  0.554800  0.331900  1.0
  C  C623  1  0.130900  0.054800  0.831900  1.0
  C  C624  1  0.130900  0.945200  0.168100  1.0
  C  C625  1  0.630900  0.554800  0.331900  1.0
  C  C626  1  0.630900  0.445200  0.668100  1.0
  C  C627  1  0.880300  0.899800  0.151500  1.0
  C  C628  1  0.880300  0.100200  0.848500  1.0
  C  C629  1  0.380300  0.399800  0.651500  1.0
  C  C630  1  0.380300  0.600200  0.348500  1.0
  C  C631  1  0.119700  0.100200  0.848500  1.0
  C  C632  1  0.119700  0.899800  0.151500  1.0
  C  C633  1  0.619700  0.600200  0.348500  1.0
  C  C634  1  0.619700  0.399800  0.651500  1.0
  C  C635  1  0.897900  0.896900  0.147600  1.0
  C  C636  1  0.897900  0.103100  0.852400  1.0
  C  C637  1  0.397900  0.396900  0.647600  1.0
  C  C638  1  0.397900  0.603100  0.352400  1.0
  C  C639  1  0.102100  0.103100  0.852400  1.0
  C  C640  1  0.102100  0.896900  0.147600  1.0
  C  C641  1  0.602100  0.603100  0.352400  1.0
  C  C642  1  0.602100  0.396900  0.647600  1.0
  C  C643  1  0.905200  0.880000  0.146100  1.0
  C  C644  1  0.905200  0.120000  0.853900  1.0
  C  C645  1  0.405200  0.380000  0.646100  1.0
  C  C646  1  0.405200  0.620000  0.353900  1.0
  C  C647  1  0.094800  0.120000  0.853900  1.0
  C  C648  1  0.094800  0.880000  0.146100  1.0
  C  C649  1  0.594800  0.620000  0.353900  1.0
  C  C650  1  0.594800  0.380000  0.646100  1.0
  C  C651  1  0.894700  0.866200  0.148800  1.0
  C  C652  1  0.894700  0.133800  0.851200  1.0
  C  C653  1  0.394700  0.366200  0.648800  1.0
  C  C654  1  0.394700  0.633800  0.351200  1.0
  C  C655  1  0.105300  0.133800  0.851200  1.0
  C  C656  1  0.105300  0.866200  0.148800  1.0
  C  C657  1  0.605300  0.633800  0.351200  1.0
  C  C658  1  0.605300  0.366200  0.648800  1.0
  C  C659  1  0.877100  0.868500  0.152500  1.0
  C  C660  1  0.877100  0.131500  0.847500  1.0
  C  C661  1  0.377100  0.368500  0.652500  1.0
  C  C662  1  0.377100  0.631500  0.347500  1.0
  C  C663  1  0.122900  0.131500  0.847500  1.0
  C  C664  1  0.122900  0.868500  0.152500  1.0
  C  C665  1  0.622900  0.631500  0.347500  1.0
  C  C666  1  0.622900  0.368500  0.652500  1.0
  C  C667  1  0.870100  0.885600  0.154000  1.0
  C  C668  1  0.870100  0.114400  0.846000  1.0
  C  C669  1  0.370100  0.385600  0.654000  1.0
  C  C670  1  0.370100  0.614400  0.346000  1.0
  C  C671  1  0.129900  0.114400  0.846000  1.0
  C  C672  1  0.129900  0.885600  0.154000  1.0
  C  C673  1  0.629900  0.614400  0.346000  1.0
  C  C674  1  0.629900  0.385600  0.654000  1.0
  C  C675  1  0.909000  0.911300  0.144900  1.0
  C  C676  1  0.909000  0.088700  0.855100  1.0
  C  C677  1  0.409000  0.411300  0.644900  1.0
  C  C678  1  0.409000  0.588700  0.355100  1.0
  C  C679  1  0.091000  0.088700  0.855100  1.0
  C  C680  1  0.091000  0.911300  0.144900  1.0
  C  C681  1  0.591000  0.588700  0.355100  1.0
  C  C682  1  0.591000  0.411300  0.644900  1.0
  C  C683  1  0.923200  0.876500  0.141500  1.0
  C  C684  1  0.923200  0.123500  0.858500  1.0
  C  C685  1  0.423200  0.376500  0.641500  1.0
  C  C686  1  0.423200  0.623500  0.358500  1.0
  C  C687  1  0.076800  0.123500  0.858500  1.0
  C  C688  1  0.076800  0.876500  0.141500  1.0
  C  C689  1  0.576800  0.623500  0.358500  1.0
  C  C690  1  0.576800  0.376500  0.641500  1.0
  C  C691  1  0.867300  0.853100  0.154900  1.0
  C  C692  1  0.867300  0.146900  0.845100  1.0
  C  C693  1  0.367300  0.353100  0.654900  1.0
  C  C694  1  0.367300  0.646900  0.345100  1.0
  C  C695  1  0.132700  0.146900  0.845100  1.0
  C  C696  1  0.132700  0.853100  0.154900  1.0
  C  C697  1  0.632700  0.646900  0.345100  1.0
  C  C698  1  0.632700  0.353100  0.654900  1.0
  C  C699  1  0.851700  0.888100  0.157700  1.0
  C  C700  1  0.851700  0.111900  0.842300  1.0
  C  C701  1  0.351700  0.388100  0.657700  1.0
  C  C702  1  0.351700  0.611900  0.342300  1.0
  C  C703  1  0.148300  0.111900  0.842300  1.0
  C  C704  1  0.148300  0.888100  0.157700  1.0
  C  C705  1  0.648300  0.611900  0.342300  1.0
  C  C706  1  0.648300  0.388100  0.657700  1.0
  C  C707  1  0.902800  0.849200  0.147700  1.0
  C  C708  1  0.902800  0.150800  0.852300  1.0
  C  C709  1  0.402800  0.349200  0.647700  1.0
  C  C710  1  0.402800  0.650800  0.352300  1.0
  C  C711  1  0.097200  0.150800  0.852300  1.0
  C  C712  1  0.097200  0.849200  0.147700  1.0
  C  C713  1  0.597200  0.650800  0.352300  1.0
  C  C714  1  0.597200  0.349200  0.647700  1.0
  C  C715  1  0.903700  0.837600  0.136200  1.0
  C  C716  1  0.903700  0.162400  0.863800  1.0
  C  C717  1  0.403700  0.337600  0.636200  1.0
  C  C718  1  0.403700  0.662400  0.363800  1.0
  C  C719  1  0.096300  0.162400  0.863800  1.0
  C  C720  1  0.096300  0.837600  0.136200  1.0
  C  C721  1  0.596300  0.662400  0.363800  1.0
  C  C722  1  0.596300  0.337600  0.636200  1.0
  C  C723  1  0.977400  0.711000  0.190100  1.0
  C  C724  1  0.977400  0.289000  0.809900  1.0
  C  C725  1  0.477400  0.211000  0.690100  1.0
  C  C726  1  0.477400  0.789000  0.309900  1.0
  C  C727  1  0.022600  0.289000  0.809900  1.0
  C  C728  1  0.022600  0.711000  0.190100  1.0
  C  C729  1  0.522600  0.789000  0.309900  1.0
  C  C730  1  0.522600  0.211000  0.690100  1.0
  C  C731  1  0.967300  0.697900  0.195500  1.0
  C  C732  1  0.967300  0.302100  0.804500  1.0
  C  C733  1  0.467300  0.197900  0.695500  1.0
  C  C734  1  0.467300  0.802100  0.304500  1.0
  C  C735  1  0.032700  0.302100  0.804500  1.0
  C  C736  1  0.032700  0.697900  0.195500  1.0
  C  C737  1  0.532700  0.802100  0.304500  1.0
  C  C738  1  0.532700  0.197900  0.695500  1.0
  C  C739  1  0.961300  0.701600  0.208300  1.0
  C  C740  1  0.961300  0.298400  0.791700  1.0
  C  C741  1  0.461300  0.201600  0.708300  1.0
  C  C742  1  0.461300  0.798400  0.291700  1.0
  C  C743  1  0.038700  0.298400  0.791700  1.0
  C  C744  1  0.038700  0.701600  0.208300  1.0
  C  C745  1  0.538700  0.798400  0.291700  1.0
  C  C746  1  0.538700  0.201600  0.708300  1.0
  C  C747  1  0.967300  0.716300  0.216200  1.0
  C  C748  1  0.967300  0.283700  0.783800  1.0
  C  C749  1  0.467300  0.216300  0.716200  1.0
  C  C750  1  0.467300  0.783700  0.283800  1.0
  C  C751  1  0.032700  0.283700  0.783800  1.0
  C  C752  1  0.032700  0.716300  0.216200  1.0
  C  C753  1  0.532700  0.783700  0.283800  1.0
  C  C754  1  0.532700  0.216300  0.716200  1.0
  C  C755  1  0.978300  0.727900  0.210500  1.0
  C  C756  1  0.978300  0.272100  0.789500  1.0
  C  C757  1  0.478300  0.227900  0.710500  1.0
  C  C758  1  0.478300  0.772100  0.289500  1.0
  C  C759  1  0.021700  0.272100  0.789500  1.0
  C  C760  1  0.021700  0.727900  0.210500  1.0
  C  C761  1  0.521700  0.772100  0.289500  1.0
  C  C762  1  0.521700  0.227900  0.710500  1.0
  C  C763  1  0.950400  0.689100  0.214000  1.0
  C  C764  1  0.950400  0.310900  0.786000  1.0
  C  C765  1  0.450400  0.189100  0.714000  1.0
  C  C766  1  0.450400  0.810900  0.286000  1.0
  C  C767  1  0.049600  0.310900  0.786000  1.0
  C  C768  1  0.049600  0.689100  0.214000  1.0
  C  C769  1  0.549600  0.810900  0.286000  1.0
  C  C770  1  0.549600  0.189100  0.714000  1.0
  C  C771  1  0.958100  0.674800  0.218900  1.0
  C  C772  1  0.958100  0.325200  0.781100  1.0
  C  C773  1  0.458100  0.174800  0.718900  1.0
  C  C774  1  0.458100  0.825200  0.281100  1.0
  C  C775  1  0.041900  0.325200  0.781100  1.0
  C  C776  1  0.041900  0.674800  0.218900  1.0
  C  C777  1  0.541900  0.825200  0.281100  1.0
  C  C778  1  0.541900  0.174800  0.718900  1.0
  C  C779  1  0.947900  0.662200  0.224100  1.0
  C  C780  1  0.947900  0.337800  0.775900  1.0
  C  C781  1  0.447900  0.162200  0.724100  1.0
  C  C782  1  0.447900  0.837800  0.275900  1.0
  C  C783  1  0.052100  0.337800  0.775900  1.0
  C  C784  1  0.052100  0.662200  0.224100  1.0
  C  C785  1  0.552100  0.837800  0.275900  1.0
  C  C786  1  0.552100  0.162200  0.724100  1.0
  C  C787  1  0.929800  0.664100  0.224500  1.0
  C  C788  1  0.929800  0.335900  0.775500  1.0
  C  C789  1  0.429800  0.164100  0.724500  1.0
  C  C790  1  0.429800  0.835900  0.275500  1.0
  C  C791  1  0.070200  0.335900  0.775500  1.0
  C  C792  1  0.070200  0.664100  0.224500  1.0
  C  C793  1  0.570200  0.835900  0.275500  1.0
  C  C794  1  0.570200  0.164100  0.724500  1.0
  C  C795  1  0.921800  0.678200  0.219600  1.0
  C  C796  1  0.921800  0.321800  0.780400  1.0
  C  C797  1  0.421800  0.178200  0.719600  1.0
  C  C798  1  0.421800  0.821800  0.280400  1.0
  C  C799  1  0.078200  0.321800  0.780400  1.0
  C  C800  1  0.078200  0.678200  0.219600  1.0
  C  C801  1  0.578200  0.821800  0.280400  1.0
  C  C802  1  0.578200  0.178200  0.719600  1.0
  C  C803  1  0.932200  0.690900  0.214800  1.0
  C  C804  1  0.932200  0.309100  0.785200  1.0
  C  C805  1  0.432200  0.190900  0.714800  1.0
  C  C806  1  0.432200  0.809100  0.285200  1.0
  C  C807  1  0.067800  0.309100  0.785200  1.0
  C  C808  1  0.067800  0.690900  0.214800  1.0
  C  C809  1  0.567800  0.809100  0.285200  1.0
  C  C810  1  0.567800  0.190900  0.714800  1.0
  C  C811  1  0.977200  0.672900  0.218200  1.0
  C  C812  1  0.977200  0.327100  0.781800  1.0
  C  C813  1  0.477200  0.172900  0.718200  1.0
  C  C814  1  0.477200  0.827100  0.281800  1.0
  C  C815  1  0.022800  0.327100  0.781800  1.0
  C  C816  1  0.022800  0.672900  0.218200  1.0
  C  C817  1  0.522800  0.827100  0.281800  1.0
  C  C818  1  0.522800  0.172900  0.718200  1.0
  C  C819  1  0.955900  0.646800  0.228900  1.0
  C  C820  1  0.955900  0.353200  0.771100  1.0
  C  C821  1  0.455900  0.146800  0.728900  1.0
  C  C822  1  0.455900  0.853200  0.271100  1.0
  C  C823  1  0.044100  0.353200  0.771100  1.0
  C  C824  1  0.044100  0.646800  0.228900  1.0
  C  C825  1  0.544100  0.853200  0.271100  1.0
  C  C826  1  0.544100  0.146800  0.728900  1.0
  C  C827  1  0.902600  0.679500  0.219900  1.0
  C  C828  1  0.902600  0.320500  0.780100  1.0
  C  C829  1  0.402600  0.179500  0.719900  1.0
  C  C830  1  0.402600  0.820500  0.280100  1.0
  C  C831  1  0.097400  0.320500  0.780100  1.0
  C  C832  1  0.097400  0.679500  0.219900  1.0
  C  C833  1  0.597400  0.820500  0.280100  1.0
  C  C834  1  0.597400  0.179500  0.719900  1.0
  C  C835  1  0.923500  0.705100  0.209400  1.0
  C  C836  1  0.923500  0.294900  0.790600  1.0
  C  C837  1  0.423500  0.205100  0.709400  1.0
  C  C838  1  0.423500  0.794900  0.290600  1.0
  C  C839  1  0.076500  0.294900  0.790600  1.0
  C  C840  1  0.076500  0.705100  0.209400  1.0
  C  C841  1  0.576500  0.794900  0.290600  1.0
  C  C842  1  0.576500  0.205100  0.709400  1.0
  C  C843  1  0.918700  0.651700  0.229900  1.0
  C  C844  1  0.918700  0.348300  0.770100  1.0
  C  C845  1  0.418700  0.151700  0.729900  1.0
  C  C846  1  0.418700  0.848300  0.270100  1.0
  C  C847  1  0.081300  0.348300  0.770100  1.0
  C  C848  1  0.081300  0.651700  0.229900  1.0
  C  C849  1  0.581300  0.848300  0.270100  1.0
  C  C850  1  0.581300  0.151700  0.729900  1.0
  C  C851  1  0.913300  0.635700  0.223300  1.0
  C  C852  1  0.913300  0.364300  0.776700  1.0
  C  C853  1  0.413300  0.135700  0.723300  1.0
  C  C854  1  0.413300  0.864300  0.276700  1.0
  C  C855  1  0.086700  0.364300  0.776700  1.0
  C  C856  1  0.086700  0.635700  0.223300  1.0
  C  C857  1  0.586700  0.864300  0.276700  1.0
  C  C858  1  0.586700  0.135700  0.723300  1.0
  C  C859  1  0.859300  0.589000  0.300600  1.0
  C  C860  1  0.859300  0.411000  0.699400  1.0
  C  C861  1  0.359300  0.089000  0.800600  1.0
  C  C862  1  0.359300  0.911000  0.199400  1.0
  C  C863  1  0.140700  0.411000  0.699400  1.0
  C  C864  1  0.140700  0.589000  0.300600  1.0
  C  C865  1  0.640700  0.911000  0.199400  1.0
  C  C866  1  0.640700  0.089000  0.800600  1.0
  C  C867  1  0.865300  0.595700  0.289100  1.0
  C  C868  1  0.865300  0.404300  0.710900  1.0
  C  C869  1  0.365300  0.095700  0.789100  1.0
  C  C870  1  0.365300  0.904300  0.210900  1.0
  C  C871  1  0.134700  0.404300  0.710900  1.0
  C  C872  1  0.134700  0.595700  0.289100  1.0
  C  C873  1  0.634700  0.904300  0.210900  1.0
  C  C874  1  0.634700  0.095700  0.789100  1.0
  C  C875  1  0.870500  0.612900  0.289200  1.0
  C  C876  1  0.870500  0.387100  0.710800  1.0
  C  C877  1  0.370500  0.112900  0.789200  1.0
  C  C878  1  0.370500  0.887100  0.210800  1.0
  C  C879  1  0.129500  0.387100  0.710800  1.0
  C  C880  1  0.129500  0.612900  0.289200  1.0
  C  C881  1  0.629500  0.887100  0.210800  1.0
  C  C882  1  0.629500  0.112900  0.789200  1.0
  C  C883  1  0.868500  0.624400  0.301000  1.0
  C  C884  1  0.868500  0.375600  0.699000  1.0
  C  C885  1  0.368500  0.124400  0.801000  1.0
  C  C886  1  0.368500  0.875600  0.199000  1.0
  C  C887  1  0.131500  0.375600  0.699000  1.0
  C  C888  1  0.131500  0.624400  0.301000  1.0
  C  C889  1  0.631500  0.875600  0.199000  1.0
  C  C890  1  0.631500  0.124400  0.801000  1.0
  C  C891  1  0.863500  0.616700  0.312200  1.0
  C  C892  1  0.863500  0.383300  0.687800  1.0
  C  C893  1  0.363500  0.116700  0.812200  1.0
  C  C894  1  0.363500  0.883300  0.187800  1.0
  C  C895  1  0.136500  0.383300  0.687800  1.0
  C  C896  1  0.136500  0.616700  0.312200  1.0
  C  C897  1  0.636500  0.883300  0.187800  1.0
  C  C898  1  0.636500  0.116700  0.812200  1.0
  C  C899  1  0.879500  0.618800  0.278100  1.0
  C  C900  1  0.879500  0.381200  0.721900  1.0
  C  C901  1  0.379500  0.118800  0.778100  1.0
  C  C902  1  0.379500  0.881200  0.221900  1.0
  C  C903  1  0.120500  0.381200  0.721900  1.0
  C  C904  1  0.120500  0.618800  0.278100  1.0
  C  C905  1  0.620500  0.881200  0.221900  1.0
  C  C906  1  0.620500  0.118800  0.778100  1.0
  C  C907  1  0.870000  0.627400  0.269200  1.0
  C  C908  1  0.870000  0.372600  0.730800  1.0
  C  C909  1  0.370000  0.127400  0.769200  1.0
  C  C910  1  0.370000  0.872600  0.230800  1.0
  C  C911  1  0.130000  0.372600  0.730800  1.0
  C  C912  1  0.130000  0.627400  0.269200  1.0
  C  C913  1  0.630000  0.872600  0.230800  1.0
  C  C914  1  0.630000  0.127400  0.769200  1.0
  C  C915  1  0.878100  0.632700  0.258200  1.0
  C  C916  1  0.878100  0.367300  0.741800  1.0
  C  C917  1  0.378100  0.132700  0.758200  1.0
  C  C918  1  0.378100  0.867300  0.241800  1.0
  C  C919  1  0.121900  0.367300  0.741800  1.0
  C  C920  1  0.121900  0.632700  0.258200  1.0
  C  C921  1  0.621900  0.867300  0.241800  1.0
  C  C922  1  0.621900  0.132700  0.758200  1.0
  C  C923  1  0.895800  0.628500  0.255700  1.0
  C  C924  1  0.895800  0.371500  0.744300  1.0
  C  C925  1  0.395800  0.128500  0.755700  1.0
  C  C926  1  0.395800  0.871500  0.244300  1.0
  C  C927  1  0.104200  0.371500  0.744300  1.0
  C  C928  1  0.104200  0.628500  0.255700  1.0
  C  C929  1  0.604200  0.871500  0.244300  1.0
  C  C930  1  0.604200  0.128500  0.755700  1.0
  C  C931  1  0.905700  0.620600  0.264500  1.0
  C  C932  1  0.905700  0.379400  0.735500  1.0
  C  C933  1  0.405700  0.120600  0.764500  1.0
  C  C934  1  0.405700  0.879400  0.235500  1.0
  C  C935  1  0.094300  0.379400  0.735500  1.0
  C  C936  1  0.094300  0.620600  0.264500  1.0
  C  C937  1  0.594300  0.879400  0.235500  1.0
  C  C938  1  0.594300  0.120600  0.764500  1.0
  C  C939  1  0.897500  0.616100  0.275800  1.0
  C  C940  1  0.897500  0.383900  0.724200  1.0
  C  C941  1  0.397500  0.116100  0.775800  1.0
  C  C942  1  0.397500  0.883900  0.224200  1.0
  C  C943  1  0.102500  0.383900  0.724200  1.0
  C  C944  1  0.102500  0.616100  0.275800  1.0
  C  C945  1  0.602500  0.883900  0.224200  1.0
  C  C946  1  0.602500  0.116100  0.775800  1.0
  C  C947  1  0.851300  0.630100  0.271600  1.0
  C  C948  1  0.851300  0.369900  0.728400  1.0
  C  C949  1  0.351300  0.130100  0.771600  1.0
  C  C950  1  0.351300  0.869900  0.228400  1.0
  C  C951  1  0.148700  0.369900  0.728400  1.0
  C  C952  1  0.148700  0.630100  0.271600  1.0
  C  C953  1  0.648700  0.869900  0.228400  1.0
  C  C954  1  0.648700  0.130100  0.771600  1.0
  C  C955  1  0.868000  0.641100  0.248900  1.0
  C  C956  1  0.868000  0.358900  0.751100  1.0
  C  C957  1  0.368000  0.141100  0.748900  1.0
  C  C958  1  0.368000  0.858900  0.251100  1.0
  C  C959  1  0.132000  0.358900  0.751100  1.0
  C  C960  1  0.132000  0.641100  0.248900  1.0
  C  C961  1  0.632000  0.858900  0.251100  1.0
  C  C962  1  0.632000  0.141100  0.748900  1.0
  C  C963  1  0.924500  0.617300  0.262700  1.0
  C  C964  1  0.924500  0.382700  0.737300  1.0
  C  C965  1  0.424500  0.117300  0.762700  1.0
  C  C966  1  0.424500  0.882700  0.237300  1.0
  C  C967  1  0.075500  0.382700  0.737300  1.0
  C  C968  1  0.075500  0.617300  0.262700  1.0
  C  C969  1  0.575500  0.882700  0.237300  1.0
  C  C970  1  0.575500  0.117300  0.762700  1.0
  C  C971  1  0.908300  0.606800  0.284500  1.0
  C  C972  1  0.908300  0.393200  0.715500  1.0
  C  C973  1  0.408300  0.106800  0.784500  1.0
  C  C974  1  0.408300  0.893200  0.215500  1.0
  C  C975  1  0.091700  0.393200  0.715500  1.0
  C  C976  1  0.091700  0.606800  0.284500  1.0
  C  C977  1  0.591700  0.893200  0.215500  1.0
  C  C978  1  0.591700  0.106800  0.784500  1.0
  C  C979  1  0.904400  0.634100  0.244600  1.0
  C  C980  1  0.904400  0.365900  0.755400  1.0
  C  C981  1  0.404400  0.134100  0.744600  1.0
  C  C982  1  0.404400  0.865900  0.255400  1.0
  C  C983  1  0.095600  0.365900  0.755400  1.0
  C  C984  1  0.095600  0.634100  0.244600  1.0
  C  C985  1  0.595600  0.865900  0.255400  1.0
  C  C986  1  0.595600  0.134100  0.744600  1.0
  C  C987  1  0.904500  0.625700  0.232000  1.0
  C  C988  1  0.904500  0.374300  0.768000  1.0
  C  C989  1  0.404500  0.125700  0.732000  1.0
  C  C990  1  0.404500  0.874300  0.268000  1.0
  C  C991  1  0.095500  0.374300  0.768000  1.0
  C  C992  1  0.095500  0.625700  0.232000  1.0
  C  C993  1  0.595500  0.874300  0.268000  1.0
  C  C994  1  0.595500  0.125700  0.732000  1.0
  C  C995  1  0.626200  0.710000  0.373200  1.0
  C  C996  1  0.626200  0.290000  0.626800  1.0
  C  C997  1  0.126200  0.210000  0.873200  1.0
  C  C998  1  0.126200  0.790000  0.126800  1.0
  C  C999  1  0.373800  0.290000  0.626800  1.0
  C  C1000  1  0.373800  0.710000  0.373200  1.0
  C  C1001  1  0.873800  0.790000  0.126800  1.0
  C  C1002  1  0.873800  0.210000  0.873200  1.0
  C  C1003  1  0.635800  0.695500  0.365900  1.0
  C  C1004  1  0.635800  0.304500  0.634100  1.0
  C  C1005  1  0.135800  0.195500  0.865900  1.0
  C  C1006  1  0.135800  0.804500  0.134100  1.0
  C  C1007  1  0.364200  0.304500  0.634100  1.0
  C  C1008  1  0.364200  0.695500  0.365900  1.0
  C  C1009  1  0.864200  0.804500  0.134100  1.0
  C  C1010  1  0.864200  0.195500  0.865900  1.0
  C  C1011  1  0.653900  0.697000  0.364600  1.0
  C  C1012  1  0.653900  0.303000  0.635400  1.0
  C  C1013  1  0.153900  0.197000  0.864600  1.0
  C  C1014  1  0.153900  0.803000  0.135400  1.0
  C  C1015  1  0.346100  0.303000  0.635400  1.0
  C  C1016  1  0.346100  0.697000  0.364600  1.0
  C  C1017  1  0.846100  0.803000  0.135400  1.0
  C  C1018  1  0.846100  0.197000  0.864600  1.0
  C  C1019  1  0.662000  0.712500  0.369500  1.0
  C  C1020  1  0.662000  0.287500  0.630500  1.0
  C  C1021  1  0.162000  0.212500  0.869500  1.0
  C  C1022  1  0.162000  0.787500  0.130500  1.0
  C  C1023  1  0.338000  0.287500  0.630500  1.0
  C  C1024  1  0.338000  0.712500  0.369500  1.0
  C  C1025  1  0.838000  0.787500  0.130500  1.0
  C  C1026  1  0.838000  0.212500  0.869500  1.0
  C  C1027  1  0.651600  0.726200  0.377300  1.0
  C  C1028  1  0.651600  0.273800  0.622700  1.0
  C  C1029  1  0.151600  0.226200  0.877300  1.0
  C  C1030  1  0.151600  0.773800  0.122700  1.0
  C  C1031  1  0.348400  0.273800  0.622700  1.0
  C  C1032  1  0.348400  0.726200  0.377300  1.0
  C  C1033  1  0.848400  0.773800  0.122700  1.0
  C  C1034  1  0.848400  0.226200  0.877300  1.0
  C  C1035  1  0.664100  0.681900  0.358600  1.0
  C  C1036  1  0.664100  0.318100  0.641400  1.0
  C  C1037  1  0.164100  0.181900  0.858600  1.0
  C  C1038  1  0.164100  0.818100  0.141400  1.0
  C  C1039  1  0.335900  0.318100  0.641400  1.0
  C  C1040  1  0.335900  0.681900  0.358600  1.0
  C  C1041  1  0.835900  0.818100  0.141400  1.0
  C  C1042  1  0.835900  0.181900  0.858600  1.0
  C  C1043  1  0.667200  0.679600  0.345100  1.0
  C  C1044  1  0.667200  0.320400  0.654900  1.0
  C  C1045  1  0.167200  0.179600  0.845100  1.0
  C  C1046  1  0.167200  0.820400  0.154900  1.0
  C  C1047  1  0.332800  0.320400  0.654900  1.0
  C  C1048  1  0.332800  0.679600  0.345100  1.0
  C  C1049  1  0.832800  0.820400  0.154900  1.0
  C  C1050  1  0.832800  0.179600  0.845100  1.0
  C  C1051  1  0.677100  0.665400  0.339300  1.0
  C  C1052  1  0.677100  0.334600  0.660700  1.0
  C  C1053  1  0.177100  0.165400  0.839300  1.0
  C  C1054  1  0.177100  0.834600  0.160700  1.0
  C  C1055  1  0.322900  0.334600  0.660700  1.0
  C  C1056  1  0.322900  0.665400  0.339300  1.0
  C  C1057  1  0.822900  0.834600  0.160700  1.0
  C  C1058  1  0.822900  0.165400  0.839300  1.0
  C  C1059  1  0.684300  0.653400  0.346800  1.0
  C  C1060  1  0.684300  0.346600  0.653200  1.0
  C  C1061  1  0.184300  0.153400  0.846800  1.0
  C  C1062  1  0.184300  0.846600  0.153200  1.0
  C  C1063  1  0.315700  0.346600  0.653200  1.0
  C  C1064  1  0.315700  0.653400  0.346800  1.0
  C  C1065  1  0.815700  0.846600  0.153200  1.0
  C  C1066  1  0.815700  0.153400  0.846800  1.0
  C  C1067  1  0.681800  0.655600  0.360200  1.0
  C  C1068  1  0.681800  0.344400  0.639800  1.0
  C  C1069  1  0.181800  0.155600  0.860200  1.0
  C  C1070  1  0.181800  0.844400  0.139800  1.0
  C  C1071  1  0.318200  0.344400  0.639800  1.0
  C  C1072  1  0.318200  0.655600  0.360200  1.0
  C  C1073  1  0.818200  0.844400  0.139800  1.0
  C  C1074  1  0.818200  0.155600  0.860200  1.0
  C  C1075  1  0.670400  0.669100  0.365600  1.0
  C  C1076  1  0.670400  0.330900  0.634400  1.0
  C  C1077  1  0.170400  0.169100  0.865600  1.0
  C  C1078  1  0.170400  0.830900  0.134400  1.0
  C  C1079  1  0.329600  0.330900  0.634400  1.0
  C  C1080  1  0.329600  0.669100  0.365600  1.0
  C  C1081  1  0.829600  0.830900  0.134400  1.0
  C  C1082  1  0.829600  0.169100  0.865600  1.0
  C  C1083  1  0.659000  0.691500  0.337100  1.0
  C  C1084  1  0.659000  0.308500  0.662900  1.0
  C  C1085  1  0.159000  0.191500  0.837100  1.0
  C  C1086  1  0.159000  0.808500  0.162900  1.0
  C  C1087  1  0.341000  0.308500  0.662900  1.0
  C  C1088  1  0.341000  0.691500  0.337100  1.0
  C  C1089  1  0.841000  0.808500  0.162900  1.0
  C  C1090  1  0.841000  0.191500  0.837100  1.0
  C  C1091  1  0.680200  0.661900  0.325200  1.0
  C  C1092  1  0.680200  0.338100  0.674800  1.0
  C  C1093  1  0.180200  0.161900  0.825200  1.0
  C  C1094  1  0.180200  0.838100  0.174800  1.0
  C  C1095  1  0.319800  0.338100  0.674800  1.0
  C  C1096  1  0.319800  0.661900  0.325200  1.0
  C  C1097  1  0.819800  0.838100  0.174800  1.0
  C  C1098  1  0.819800  0.161900  0.825200  1.0
  C  C1099  1  0.688200  0.642800  0.368100  1.0
  C  C1100  1  0.688200  0.357200  0.631900  1.0
  C  C1101  1  0.188200  0.142800  0.868100  1.0
  C  C1102  1  0.188200  0.857200  0.131900  1.0
  C  C1103  1  0.311800  0.357200  0.631900  1.0
  C  C1104  1  0.311800  0.642800  0.368100  1.0
  C  C1105  1  0.811800  0.857200  0.131900  1.0
  C  C1106  1  0.811800  0.142800  0.868100  1.0
  C  C1107  1  0.668000  0.670700  0.379800  1.0
  C  C1108  1  0.668000  0.329300  0.620200  1.0
  C  C1109  1  0.168000  0.170700  0.879800  1.0
  C  C1110  1  0.168000  0.829300  0.120200  1.0
  C  C1111  1  0.332000  0.329300  0.620200  1.0
  C  C1112  1  0.332000  0.670700  0.379800  1.0
  C  C1113  1  0.832000  0.829300  0.120200  1.0
  C  C1114  1  0.832000  0.170700  0.879800  1.0
  C  C1115  1  0.696500  0.640900  0.340500  1.0
  C  C1116  1  0.696500  0.359100  0.659500  1.0
  C  C1117  1  0.196500  0.140900  0.840500  1.0
  C  C1118  1  0.196500  0.859100  0.159500  1.0
  C  C1119  1  0.303500  0.359100  0.659500  1.0
  C  C1120  1  0.303500  0.640900  0.340500  1.0
  C  C1121  1  0.803500  0.859100  0.159500  1.0
  C  C1122  1  0.803500  0.140900  0.840500  1.0
  C  C1123  1  0.692200  0.624300  0.334500  1.0
  C  C1124  1  0.692200  0.375700  0.665500  1.0
  C  C1125  1  0.192200  0.124300  0.834500  1.0
  C  C1126  1  0.192200  0.875700  0.165500  1.0
  C  C1127  1  0.307800  0.375700  0.665500  1.0
  C  C1128  1  0.307800  0.624300  0.334500  1.0
  C  C1129  1  0.807800  0.875700  0.165500  1.0
  C  C1130  1  0.807800  0.124300  0.834500  1.0
  C  C1131  1  0.817800  0.584300  0.321600  1.0
  C  C1132  1  0.817800  0.415700  0.678400  1.0
  C  C1133  1  0.317800  0.084300  0.821600  1.0
  C  C1134  1  0.317800  0.915700  0.178400  1.0
  C  C1135  1  0.182200  0.415700  0.678400  1.0
  C  C1136  1  0.182200  0.584300  0.321600  1.0
  C  C1137  1  0.682200  0.915700  0.178400  1.0
  C  C1138  1  0.682200  0.084300  0.821600  1.0
  C  C1139  1  0.799700  0.588400  0.321400  1.0
  C  C1140  1  0.799700  0.411600  0.678600  1.0
  C  C1141  1  0.299700  0.088400  0.821400  1.0
  C  C1142  1  0.299700  0.911600  0.178600  1.0
  C  C1143  1  0.200300  0.411600  0.678600  1.0
  C  C1144  1  0.200300  0.588400  0.321400  1.0
  C  C1145  1  0.700300  0.911600  0.178600  1.0
  C  C1146  1  0.700300  0.088400  0.821400  1.0
  C  C1147  1  0.793900  0.605300  0.325900  1.0
  C  C1148  1  0.793900  0.394700  0.674100  1.0
  C  C1149  1  0.293900  0.105300  0.825900  1.0
  C  C1150  1  0.293900  0.894700  0.174100  1.0
  C  C1151  1  0.206100  0.394700  0.674100  1.0
  C  C1152  1  0.206100  0.605300  0.325900  1.0
  C  C1153  1  0.706100  0.894700  0.174100  1.0
  C  C1154  1  0.706100  0.105300  0.825900  1.0
  C  C1155  1  0.806000  0.617700  0.330600  1.0
  C  C1156  1  0.806000  0.382300  0.669400  1.0
  C  C1157  1  0.306000  0.117700  0.830600  1.0
  C  C1158  1  0.306000  0.882300  0.169400  1.0
  C  C1159  1  0.194000  0.382300  0.669400  1.0
  C  C1160  1  0.194000  0.617700  0.330600  1.0
  C  C1161  1  0.694000  0.882300  0.169400  1.0
  C  C1162  1  0.694000  0.117700  0.830600  1.0
  C  C1163  1  0.823900  0.612400  0.329300  1.0
  C  C1164  1  0.823900  0.387600  0.670700  1.0
  C  C1165  1  0.323900  0.112400  0.829300  1.0
  C  C1166  1  0.323900  0.887600  0.170700  1.0
  C  C1167  1  0.176100  0.387600  0.670700  1.0
  C  C1168  1  0.176100  0.612400  0.329300  1.0
  C  C1169  1  0.676100  0.887600  0.170700  1.0
  C  C1170  1  0.676100  0.112400  0.829300  1.0
  C  C1171  1  0.775300  0.608700  0.328200  1.0
  C  C1172  1  0.775300  0.391300  0.671800  1.0
  C  C1173  1  0.275300  0.108700  0.828200  1.0
  C  C1174  1  0.275300  0.891300  0.171800  1.0
  C  C1175  1  0.224700  0.391300  0.671800  1.0
  C  C1176  1  0.224700  0.608700  0.328200  1.0
  C  C1177  1  0.724700  0.891300  0.171800  1.0
  C  C1178  1  0.724700  0.108700  0.828200  1.0
  C  C1179  1  0.767100  0.606700  0.340100  1.0
  C  C1180  1  0.767100  0.393300  0.659900  1.0
  C  C1181  1  0.267100  0.106700  0.840100  1.0
  C  C1182  1  0.267100  0.893300  0.159900  1.0
  C  C1183  1  0.232900  0.393300  0.659900  1.0
  C  C1184  1  0.232900  0.606700  0.340100  1.0
  C  C1185  1  0.732900  0.893300  0.159900  1.0
  C  C1186  1  0.732900  0.106700  0.840100  1.0
  C  C1187  1  0.749300  0.611000  0.342100  1.0
  C  C1188  1  0.749300  0.389000  0.657900  1.0
  C  C1189  1  0.249300  0.111000  0.842100  1.0
  C  C1190  1  0.249300  0.889000  0.157900  1.0
  C  C1191  1  0.250700  0.389000  0.657900  1.0
  C  C1192  1  0.250700  0.611000  0.342100  1.0
  C  C1193  1  0.750700  0.889000  0.157900  1.0
  C  C1194  1  0.750700  0.111000  0.842100  1.0
  C  C1195  1  0.740200  0.616900  0.331800  1.0
  C  C1196  1  0.740200  0.383100  0.668200  1.0
  C  C1197  1  0.240200  0.116900  0.831800  1.0
  C  C1198  1  0.240200  0.883100  0.168200  1.0
  C  C1199  1  0.259800  0.383100  0.668200  1.0
  C  C1200  1  0.259800  0.616900  0.331800  1.0
  C  C1201  1  0.759800  0.883100  0.168200  1.0
  C  C1202  1  0.759800  0.116900  0.831800  1.0
  C  C1203  1  0.748400  0.619600  0.320100  1.0
  C  C1204  1  0.748400  0.380400  0.679900  1.0
  C  C1205  1  0.248400  0.119600  0.820100  1.0
  C  C1206  1  0.248400  0.880400  0.179900  1.0
  C  C1207  1  0.251600  0.380400  0.679900  1.0
  C  C1208  1  0.251600  0.619600  0.320100  1.0
  C  C1209  1  0.751600  0.880400  0.179900  1.0
  C  C1210  1  0.751600  0.119600  0.820100  1.0
  C  C1211  1  0.765900  0.614300  0.317900  1.0
  C  C1212  1  0.765900  0.385700  0.682100  1.0
  C  C1213  1  0.265900  0.114300  0.817900  1.0
  C  C1214  1  0.265900  0.885700  0.182100  1.0
  C  C1215  1  0.234100  0.385700  0.682100  1.0
  C  C1216  1  0.234100  0.614300  0.317900  1.0
  C  C1217  1  0.734100  0.885700  0.182100  1.0
  C  C1218  1  0.734100  0.114300  0.817900  1.0
  C  C1219  1  0.776700  0.600000  0.350600  1.0
  C  C1220  1  0.776700  0.400000  0.649400  1.0
  C  C1221  1  0.276700  0.100000  0.850600  1.0
  C  C1222  1  0.276700  0.900000  0.149400  1.0
  C  C1223  1  0.223300  0.400000  0.649400  1.0
  C  C1224  1  0.223300  0.600000  0.350600  1.0
  C  C1225  1  0.723300  0.900000  0.149400  1.0
  C  C1226  1  0.723300  0.100000  0.850600  1.0
  C  C1227  1  0.739800  0.609200  0.354000  1.0
  C  C1228  1  0.739800  0.390800  0.646000  1.0
  C  C1229  1  0.239800  0.109200  0.854000  1.0
  C  C1230  1  0.239800  0.890800  0.146000  1.0
  C  C1231  1  0.260200  0.390800  0.646000  1.0
  C  C1232  1  0.260200  0.609200  0.354000  1.0
  C  C1233  1  0.760200  0.890800  0.146000  1.0
  C  C1234  1  0.760200  0.109200  0.854000  1.0
  C  C1235  1  0.738500  0.625800  0.309400  1.0
  C  C1236  1  0.738500  0.374200  0.690600  1.0
  C  C1237  1  0.238500  0.125800  0.809400  1.0
  C  C1238  1  0.238500  0.874200  0.190600  1.0
  C  C1239  1  0.261500  0.374200  0.690600  1.0
  C  C1240  1  0.261500  0.625800  0.309400  1.0
  C  C1241  1  0.761500  0.874200  0.190600  1.0
  C  C1242  1  0.761500  0.125800  0.809400  1.0
  C  C1243  1  0.774700  0.616000  0.305500  1.0
  C  C1244  1  0.774700  0.384000  0.694500  1.0
  C  C1245  1  0.274700  0.116000  0.805500  1.0
  C  C1246  1  0.274700  0.884000  0.194500  1.0
  C  C1247  1  0.225300  0.384000  0.694500  1.0
  C  C1248  1  0.225300  0.616000  0.305500  1.0
  C  C1249  1  0.725300  0.884000  0.194500  1.0
  C  C1250  1  0.725300  0.116000  0.805500  1.0
  C  C1251  1  0.722600  0.623000  0.334700  1.0
  C  C1252  1  0.722600  0.377000  0.665300  1.0
  C  C1253  1  0.222600  0.123000  0.834700  1.0
  C  C1254  1  0.222600  0.877000  0.165300  1.0
  C  C1255  1  0.277400  0.377000  0.665300  1.0
  C  C1256  1  0.277400  0.623000  0.334700  1.0
  C  C1257  1  0.777400  0.877000  0.165300  1.0
  C  C1258  1  0.777400  0.123000  0.834700  1.0
  C  C1259  1  0.707700  0.614200  0.330700  1.0
  C  C1260  1  0.707700  0.385800  0.669300  1.0
  C  C1261  1  0.207700  0.114200  0.830700  1.0
  C  C1262  1  0.207700  0.885800  0.169300  1.0
  C  C1263  1  0.292300  0.385800  0.669300  1.0
  C  C1264  1  0.292300  0.614200  0.330700  1.0
  C  C1265  1  0.792300  0.885800  0.169300  1.0
  C  C1266  1  0.792300  0.114200  0.830700  1.0
  C  C1267  1  0.613900  0.949400  0.289700  1.0
  C  C1268  1  0.613900  0.050600  0.710300  1.0
  C  C1269  1  0.113900  0.449400  0.789700  1.0
  C  C1270  1  0.113900  0.550600  0.210300  1.0
  C  C1271  1  0.386100  0.050600  0.710300  1.0
  C  C1272  1  0.386100  0.949400  0.289700  1.0
  C  C1273  1  0.886100  0.550600  0.210300  1.0
  C  C1274  1  0.886100  0.449400  0.789700  1.0
  C  C1275  1  0.610400  0.932100  0.292500  1.0
  C  C1276  1  0.610400  0.067900  0.707500  1.0
  C  C1277  1  0.110400  0.432100  0.792500  1.0
  C  C1278  1  0.110400  0.567900  0.207500  1.0
  C  C1279  1  0.389600  0.067900  0.707500  1.0
  C  C1280  1  0.389600  0.932100  0.292500  1.0
  C  C1281  1  0.889600  0.567900  0.207500  1.0
  C  C1282  1  0.889600  0.432100  0.792500  1.0
  C  C1283  1  0.621600  0.923500  0.300000  1.0
  C  C1284  1  0.621600  0.076500  0.700000  1.0
  C  C1285  1  0.121600  0.423500  0.800000  1.0
  C  C1286  1  0.121600  0.576500  0.200000  1.0
  C  C1287  1  0.378400  0.076500  0.700000  1.0
  C  C1288  1  0.378400  0.923500  0.300000  1.0
  C  C1289  1  0.878400  0.576500  0.200000  1.0
  C  C1290  1  0.878400  0.423500  0.800000  1.0
  C  C1291  1  0.637000  0.931700  0.304500  1.0
  C  C1292  1  0.637000  0.068300  0.695500  1.0
  C  C1293  1  0.137000  0.431700  0.804500  1.0
  C  C1294  1  0.137000  0.568300  0.195500  1.0
  C  C1295  1  0.363000  0.068300  0.695500  1.0
  C  C1296  1  0.363000  0.931700  0.304500  1.0
  C  C1297  1  0.863000  0.568300  0.195500  1.0
  C  C1298  1  0.863000  0.431700  0.804500  1.0
  C  C1299  1  0.640000  0.948600  0.300600  1.0
  C  C1300  1  0.640000  0.051400  0.699400  1.0
  C  C1301  1  0.140000  0.448600  0.800600  1.0
  C  C1302  1  0.140000  0.551400  0.199400  1.0
  C  C1303  1  0.360000  0.051400  0.699400  1.0
  C  C1304  1  0.360000  0.948600  0.300600  1.0
  C  C1305  1  0.860000  0.551400  0.199400  1.0
  C  C1306  1  0.860000  0.448600  0.800600  1.0
  C  C1307  1  0.616800  0.906600  0.303900  1.0
  C  C1308  1  0.616800  0.093400  0.696100  1.0
  C  C1309  1  0.116800  0.406600  0.803900  1.0
  C  C1310  1  0.116800  0.593400  0.196100  1.0
  C  C1311  1  0.383200  0.093400  0.696100  1.0
  C  C1312  1  0.383200  0.906600  0.303900  1.0
  C  C1313  1  0.883200  0.593400  0.196100  1.0
  C  C1314  1  0.883200  0.406600  0.803900  1.0
  C  C1315  1  0.623600  0.891000  0.297300  1.0
  C  C1316  1  0.623600  0.109000  0.702700  1.0
  C  C1317  1  0.123600  0.391000  0.797300  1.0
  C  C1318  1  0.123600  0.609000  0.202700  1.0
  C  C1319  1  0.376400  0.109000  0.702700  1.0
  C  C1320  1  0.376400  0.891000  0.297300  1.0
  C  C1321  1  0.876400  0.609000  0.202700  1.0
  C  C1322  1  0.876400  0.391000  0.797300  1.0
  C  C1323  1  0.618800  0.874700  0.300800  1.0
  C  C1324  1  0.618800  0.125300  0.699200  1.0
  C  C1325  1  0.118800  0.374700  0.800800  1.0
  C  C1326  1  0.118800  0.625300  0.199200  1.0
  C  C1327  1  0.381200  0.125300  0.699200  1.0
  C  C1328  1  0.381200  0.874700  0.300800  1.0
  C  C1329  1  0.881200  0.625300  0.199200  1.0
  C  C1330  1  0.881200  0.374700  0.800800  1.0
  C  C1331  1  0.606800  0.874100  0.311000  1.0
  C  C1332  1  0.606800  0.125900  0.689000  1.0
  C  C1333  1  0.106800  0.374100  0.811000  1.0
  C  C1334  1  0.106800  0.625900  0.189000  1.0
  C  C1335  1  0.393200  0.125900  0.689000  1.0
  C  C1336  1  0.393200  0.874100  0.311000  1.0
  C  C1337  1  0.893200  0.625900  0.189000  1.0
  C  C1338  1  0.893200  0.374100  0.811000  1.0
  C  C1339  1  0.601400  0.889600  0.318600  1.0
  C  C1340  1  0.601400  0.110400  0.681400  1.0
  C  C1341  1  0.101400  0.389600  0.818600  1.0
  C  C1342  1  0.101400  0.610400  0.181400  1.0
  C  C1343  1  0.398600  0.110400  0.681400  1.0
  C  C1344  1  0.398600  0.889600  0.318600  1.0
  C  C1345  1  0.898600  0.610400  0.181400  1.0
  C  C1346  1  0.898600  0.389600  0.818600  1.0
  C  C1347  1  0.604800  0.905800  0.314200  1.0
  C  C1348  1  0.604800  0.094200  0.685800  1.0
  C  C1349  1  0.104800  0.405800  0.814200  1.0
  C  C1350  1  0.104800  0.594200  0.185800  1.0
  C  C1351  1  0.395200  0.094200  0.685800  1.0
  C  C1352  1  0.395200  0.905800  0.314200  1.0
  C  C1353  1  0.895200  0.594200  0.185800  1.0
  C  C1354  1  0.895200  0.405800  0.814200  1.0
  C  C1355  1  0.635700  0.891500  0.286400  1.0
  C  C1356  1  0.635700  0.108500  0.713600  1.0
  C  C1357  1  0.135700  0.391500  0.786400  1.0
  C  C1358  1  0.135700  0.608500  0.213600  1.0
  C  C1359  1  0.364300  0.108500  0.713600  1.0
  C  C1360  1  0.364300  0.891500  0.286400  1.0
  C  C1361  1  0.864300  0.608500  0.213600  1.0
  C  C1362  1  0.864300  0.391500  0.786400  1.0
  C  C1363  1  0.625200  0.858100  0.294300  1.0
  C  C1364  1  0.625200  0.141900  0.705700  1.0
  C  C1365  1  0.125200  0.358100  0.794300  1.0
  C  C1366  1  0.125200  0.641900  0.205700  1.0
  C  C1367  1  0.374800  0.141900  0.705700  1.0
  C  C1368  1  0.374800  0.858100  0.294300  1.0
  C  C1369  1  0.874800  0.641900  0.205700  1.0
  C  C1370  1  0.874800  0.358100  0.794300  1.0
  C  C1371  1  0.587300  0.888000  0.328000  1.0
  C  C1372  1  0.587300  0.112000  0.672000  1.0
  C  C1373  1  0.087300  0.388000  0.828000  1.0
  C  C1374  1  0.087300  0.612000  0.172000  1.0
  C  C1375  1  0.412700  0.112000  0.672000  1.0
  C  C1376  1  0.412700  0.888000  0.328000  1.0
  C  C1377  1  0.912700  0.612000  0.172000  1.0
  C  C1378  1  0.912700  0.388000  0.828000  1.0
  C  C1379  1  0.596600  0.921400  0.321300  1.0
  C  C1380  1  0.596600  0.078600  0.678700  1.0
  C  C1381  1  0.096600  0.421400  0.821300  1.0
  C  C1382  1  0.096600  0.578600  0.178700  1.0
  C  C1383  1  0.403400  0.078600  0.678700  1.0
  C  C1384  1  0.403400  0.921400  0.321300  1.0
  C  C1385  1  0.903400  0.578600  0.178700  1.0
  C  C1386  1  0.903400  0.421400  0.821300  1.0
  C  C1387  1  0.602600  0.857500  0.315400  1.0
  C  C1388  1  0.602600  0.142500  0.684600  1.0
  C  C1389  1  0.102600  0.357500  0.815400  1.0
  C  C1390  1  0.102600  0.642500  0.184600  1.0
  C  C1391  1  0.397400  0.142500  0.684600  1.0
  C  C1392  1  0.397400  0.857500  0.315400  1.0
  C  C1393  1  0.897400  0.642500  0.184600  1.0
  C  C1394  1  0.897400  0.357500  0.815400  1.0
  C  C1395  1  0.587600  0.848100  0.311600  1.0
  C  C1396  1  0.587600  0.151900  0.688400  1.0
  C  C1397  1  0.087600  0.348100  0.811600  1.0
  C  C1398  1  0.087600  0.651900  0.188400  1.0
  C  C1399  1  0.412400  0.151900  0.688400  1.0
  C  C1400  1  0.412400  0.848100  0.311600  1.0
  C  C1401  1  0.912400  0.651900  0.188400  1.0
  C  C1402  1  0.912400  0.348100  0.811600  1.0
  C  C1403  1  0.606300  0.754600  0.369200  1.0
  C  C1404  1  0.606300  0.245400  0.630800  1.0
  C  C1405  1  0.106300  0.254600  0.869200  1.0
  C  C1406  1  0.106300  0.745400  0.130800  1.0
  C  C1407  1  0.393700  0.245400  0.630800  1.0
  C  C1408  1  0.393700  0.754600  0.369200  1.0
  C  C1409  1  0.893700  0.745400  0.130800  1.0
  C  C1410  1  0.893700  0.254600  0.869200  1.0
  C  C1411  1  0.603000  0.766300  0.359900  1.0
  C  C1412  1  0.603000  0.233700  0.640100  1.0
  C  C1413  1  0.103000  0.266300  0.859900  1.0
  C  C1414  1  0.103000  0.733700  0.140100  1.0
  C  C1415  1  0.397000  0.233700  0.640100  1.0
  C  C1416  1  0.397000  0.766300  0.359900  1.0
  C  C1417  1  0.897000  0.733700  0.140100  1.0
  C  C1418  1  0.897000  0.266300  0.859900  1.0
  C  C1419  1  0.615800  0.778500  0.357800  1.0
  C  C1420  1  0.615800  0.221500  0.642200  1.0
  C  C1421  1  0.115800  0.278500  0.857800  1.0
  C  C1422  1  0.115800  0.721500  0.142200  1.0
  C  C1423  1  0.384200  0.221500  0.642200  1.0
  C  C1424  1  0.384200  0.778500  0.357800  1.0
  C  C1425  1  0.884200  0.721500  0.142200  1.0
  C  C1426  1  0.884200  0.278500  0.857800  1.0
  C  C1427  1  0.631300  0.778700  0.364600  1.0
  C  C1428  1  0.631300  0.221300  0.635400  1.0
  C  C1429  1  0.131300  0.278700  0.864600  1.0
  C  C1430  1  0.131300  0.721300  0.135400  1.0
  C  C1431  1  0.368700  0.221300  0.635400  1.0
  C  C1432  1  0.368700  0.778700  0.364600  1.0
  C  C1433  1  0.868700  0.721300  0.135400  1.0
  C  C1434  1  0.868700  0.278700  0.864600  1.0
  C  C1435  1  0.633600  0.766900  0.373900  1.0
  C  C1436  1  0.633600  0.233100  0.626100  1.0
  C  C1437  1  0.133600  0.266900  0.873900  1.0
  C  C1438  1  0.133600  0.733100  0.126100  1.0
  C  C1439  1  0.366400  0.233100  0.626100  1.0
  C  C1440  1  0.366400  0.766900  0.373900  1.0
  C  C1441  1  0.866400  0.733100  0.126100  1.0
  C  C1442  1  0.866400  0.266900  0.873900  1.0
  C  C1443  1  0.612300  0.792100  0.349600  1.0
  C  C1444  1  0.612300  0.207900  0.650400  1.0
  C  C1445  1  0.112300  0.292100  0.849600  1.0
  C  C1446  1  0.112300  0.707900  0.150400  1.0
  C  C1447  1  0.387700  0.207900  0.650400  1.0
  C  C1448  1  0.387700  0.792100  0.349600  1.0
  C  C1449  1  0.887700  0.707900  0.150400  1.0
  C  C1450  1  0.887700  0.292100  0.849600  1.0
  C  C1451  1  0.603700  0.807500  0.355100  1.0
  C  C1452  1  0.603700  0.192500  0.644900  1.0
  C  C1453  1  0.103700  0.307500  0.855100  1.0
  C  C1454  1  0.103700  0.692500  0.144900  1.0
  C  C1455  1  0.396300  0.192500  0.644900  1.0
  C  C1456  1  0.396300  0.807500  0.355100  1.0
  C  C1457  1  0.896300  0.692500  0.144900  1.0
  C  C1458  1  0.896300  0.307500  0.855100  1.0
  C  C1459  1  0.600200  0.820600  0.347300  1.0
  C  C1460  1  0.600200  0.179400  0.652700  1.0
  C  C1461  1  0.100200  0.320600  0.847300  1.0
  C  C1462  1  0.100200  0.679400  0.152700  1.0
  C  C1463  1  0.399800  0.179400  0.652700  1.0
  C  C1464  1  0.399800  0.820600  0.347300  1.0
  C  C1465  1  0.899800  0.679400  0.152700  1.0
  C  C1466  1  0.899800  0.320600  0.847300  1.0
  C  C1467  1  0.604300  0.817500  0.333800  1.0
  C  C1468  1  0.604300  0.182500  0.666200  1.0
  C  C1469  1  0.104300  0.317500  0.833800  1.0
  C  C1470  1  0.104300  0.682500  0.166200  1.0
  C  C1471  1  0.395700  0.182500  0.666200  1.0
  C  C1472  1  0.395700  0.817500  0.333800  1.0
  C  C1473  1  0.895700  0.682500  0.166200  1.0
  C  C1474  1  0.895700  0.317500  0.833800  1.0
  C  C1475  1  0.614500  0.803200  0.328700  1.0
  C  C1476  1  0.614500  0.196800  0.671300  1.0
  C  C1477  1  0.114500  0.303200  0.828700  1.0
  C  C1478  1  0.114500  0.696800  0.171300  1.0
  C  C1479  1  0.385500  0.196800  0.671300  1.0
  C  C1480  1  0.385500  0.803200  0.328700  1.0
  C  C1481  1  0.885500  0.696800  0.171300  1.0
  C  C1482  1  0.885500  0.303200  0.828700  1.0
  C  C1483  1  0.617400  0.789700  0.336300  1.0
  C  C1484  1  0.617400  0.210300  0.663700  1.0
  C  C1485  1  0.117400  0.289700  0.836300  1.0
  C  C1486  1  0.117400  0.710300  0.163700  1.0
  C  C1487  1  0.382600  0.210300  0.663700  1.0
  C  C1488  1  0.382600  0.789700  0.336300  1.0
  C  C1489  1  0.882600  0.710300  0.163700  1.0
  C  C1490  1  0.882600  0.289700  0.836300  1.0
  C  C1491  1  0.598000  0.809400  0.368900  1.0
  C  C1492  1  0.598000  0.190600  0.631100  1.0
  C  C1493  1  0.098000  0.309400  0.868900  1.0
  C  C1494  1  0.098000  0.690600  0.131100  1.0
  C  C1495  1  0.402000  0.190600  0.631100  1.0
  C  C1496  1  0.402000  0.809400  0.368900  1.0
  C  C1497  1  0.902000  0.690600  0.131100  1.0
  C  C1498  1  0.902000  0.309400  0.868900  1.0
  C  C1499  1  0.591000  0.837000  0.351700  1.0
  C  C1500  1  0.591000  0.163000  0.648300  1.0
  C  C1501  1  0.091000  0.337000  0.851700  1.0
  C  C1502  1  0.091000  0.663000  0.148300  1.0
  C  C1503  1  0.409000  0.163000  0.648300  1.0
  C  C1504  1  0.409000  0.837000  0.351700  1.0
  C  C1505  1  0.909000  0.663000  0.148300  1.0
  C  C1506  1  0.909000  0.337000  0.851700  1.0
  C  C1507  1  0.619000  0.800700  0.314800  1.0
  C  C1508  1  0.619000  0.199300  0.685200  1.0
  C  C1509  1  0.119000  0.300700  0.814800  1.0
  C  C1510  1  0.119000  0.699300  0.185200  1.0
  C  C1511  1  0.381000  0.199300  0.685200  1.0
  C  C1512  1  0.381000  0.800700  0.314800  1.0
  C  C1513  1  0.881000  0.699300  0.185200  1.0
  C  C1514  1  0.881000  0.300700  0.814800  1.0
  C  C1515  1  0.626400  0.773800  0.330600  1.0
  C  C1516  1  0.626400  0.226200  0.669400  1.0
  C  C1517  1  0.126400  0.273800  0.830600  1.0
  C  C1518  1  0.126400  0.726200  0.169400  1.0
  C  C1519  1  0.373600  0.226200  0.669400  1.0
  C  C1520  1  0.373600  0.773800  0.330600  1.0
  C  C1521  1  0.873600  0.726200  0.169400  1.0
  C  C1522  1  0.873600  0.273800  0.830600  1.0
  C  C1523  1  0.600400  0.831700  0.326500  1.0
  C  C1524  1  0.600400  0.168300  0.673500  1.0
  C  C1525  1  0.100400  0.331700  0.826500  1.0
  C  C1526  1  0.100400  0.668300  0.173500  1.0
  C  C1527  1  0.399600  0.168300  0.673500  1.0
  C  C1528  1  0.399600  0.831700  0.326500  1.0
  C  C1529  1  0.899600  0.668300  0.173500  1.0
  C  C1530  1  0.899600  0.331700  0.826500  1.0
  C  C1531  1  0.586900  0.833000  0.318100  1.0
  C  C1532  1  0.586900  0.167000  0.681900  1.0
  C  C1533  1  0.086900  0.333000  0.818100  1.0
  C  C1534  1  0.086900  0.667000  0.181900  1.0
  C  C1535  1  0.413100  0.167000  0.681900  1.0
  C  C1536  1  0.413100  0.833000  0.318100  1.0
  C  C1537  1  0.913100  0.667000  0.181900  1.0
  C  C1538  1  0.913100  0.333000  0.818100  1.0
  C  C1539  1  0.539500  0.969900  0.492100  1.0
  C  C1540  1  0.539500  0.030100  0.507900  1.0
  C  C1541  1  0.039500  0.469900  0.992100  1.0
  C  C1542  1  0.039500  0.530100  0.007900  1.0
  C  C1543  1  0.460500  0.030100  0.507900  1.0
  C  C1544  1  0.460500  0.969900  0.492100  1.0
  C  C1545  1  0.960500  0.530100  0.007900  1.0
  C  C1546  1  0.960500  0.469900  0.992100  1.0
  C  C1547  1  0.538900  0.951900  0.486200  1.0
  C  C1548  1  0.538900  0.048100  0.513800  1.0
  C  C1549  1  0.038900  0.451900  0.986200  1.0
  C  C1550  1  0.038900  0.548100  0.013800  1.0
  C  C1551  1  0.461100  0.048100  0.513800  1.0
  C  C1552  1  0.461100  0.951900  0.486200  1.0
  C  C1553  1  0.961100  0.548100  0.013800  1.0
  C  C1554  1  0.961100  0.451900  0.986200  1.0
  C  C1555  1  0.554200  0.942500  0.483200  1.0
  C  C1556  1  0.554200  0.057500  0.516800  1.0
  C  C1557  1  0.054200  0.442500  0.983200  1.0
  C  C1558  1  0.054200  0.557500  0.016800  1.0
  C  C1559  1  0.445800  0.057500  0.516800  1.0
  C  C1560  1  0.445800  0.942500  0.483200  1.0
  C  C1561  1  0.945800  0.557500  0.016800  1.0
  C  C1562  1  0.945800  0.442500  0.983200  1.0
  C  C1563  1  0.569900  0.950800  0.486300  1.0
  C  C1564  1  0.569900  0.049200  0.513700  1.0
  C  C1565  1  0.069900  0.450800  0.986300  1.0
  C  C1566  1  0.069900  0.549200  0.013700  1.0
  C  C1567  1  0.430100  0.049200  0.513700  1.0
  C  C1568  1  0.430100  0.950800  0.486300  1.0
  C  C1569  1  0.930100  0.549200  0.013700  1.0
  C  C1570  1  0.930100  0.450800  0.986300  1.0
  C  C1571  1  0.569800  0.969100  0.491000  1.0
  C  C1572  1  0.569800  0.030900  0.509000  1.0
  C  C1573  1  0.069800  0.469100  0.991000  1.0
  C  C1574  1  0.069800  0.530900  0.009000  1.0
  C  C1575  1  0.430200  0.030900  0.509000  1.0
  C  C1576  1  0.430200  0.969100  0.491000  1.0
  C  C1577  1  0.930200  0.530900  0.009000  1.0
  C  C1578  1  0.930200  0.469100  0.991000  1.0
  C  C1579  1  0.554500  0.924900  0.476200  1.0
  C  C1580  1  0.554500  0.075100  0.523800  1.0
  C  C1581  1  0.054500  0.424900  0.976200  1.0
  C  C1582  1  0.054500  0.575100  0.023800  1.0
  C  C1583  1  0.445500  0.075100  0.523800  1.0
  C  C1584  1  0.445500  0.924900  0.476200  1.0
  C  C1585  1  0.945500  0.575100  0.023800  1.0
  C  C1586  1  0.945500  0.424900  0.976200  1.0
  C  C1587  1  0.553400  0.921800  0.462400  1.0
  C  C1588  1  0.553400  0.078200  0.537600  1.0
  C  C1589  1  0.053400  0.421800  0.962400  1.0
  C  C1590  1  0.053400  0.578200  0.037600  1.0
  C  C1591  1  0.446600  0.078200  0.537600  1.0
  C  C1592  1  0.446600  0.921800  0.462400  1.0
  C  C1593  1  0.946600  0.578200  0.037600  1.0
  C  C1594  1  0.946600  0.421800  0.962400  1.0
  C  C1595  1  0.552500  0.904600  0.455900  1.0
  C  C1596  1  0.552500  0.095400  0.544100  1.0
  C  C1597  1  0.052500  0.404600  0.955900  1.0
  C  C1598  1  0.052500  0.595400  0.044100  1.0
  C  C1599  1  0.447500  0.095400  0.544100  1.0
  C  C1600  1  0.447500  0.904600  0.455900  1.0
  C  C1601  1  0.947500  0.595400  0.044100  1.0
  C  C1602  1  0.947500  0.404600  0.955900  1.0
  C  C1603  1  0.552000  0.890300  0.462900  1.0
  C  C1604  1  0.552000  0.109700  0.537100  1.0
  C  C1605  1  0.052000  0.390300  0.962900  1.0
  C  C1606  1  0.052000  0.609700  0.037100  1.0
  C  C1607  1  0.448000  0.109700  0.537100  1.0
  C  C1608  1  0.448000  0.890300  0.462900  1.0
  C  C1609  1  0.948000  0.609700  0.037100  1.0
  C  C1610  1  0.948000  0.390300  0.962900  1.0
  C  C1611  1  0.554300  0.893400  0.476500  1.0
  C  C1612  1  0.554300  0.106600  0.523500  1.0
  C  C1613  1  0.054300  0.393400  0.976500  1.0
  C  C1614  1  0.054300  0.606600  0.023500  1.0
  C  C1615  1  0.445700  0.106600  0.523500  1.0
  C  C1616  1  0.445700  0.893400  0.476500  1.0
  C  C1617  1  0.945700  0.606600  0.023500  1.0
  C  C1618  1  0.945700  0.393400  0.976500  1.0
  C  C1619  1  0.553600  0.910500  0.483200  1.0
  C  C1620  1  0.553600  0.089500  0.516800  1.0
  C  C1621  1  0.053600  0.410500  0.983200  1.0
  C  C1622  1  0.053600  0.589500  0.016800  1.0
  C  C1623  1  0.446400  0.089500  0.516800  1.0
  C  C1624  1  0.446400  0.910500  0.483200  1.0
  C  C1625  1  0.946400  0.589500  0.016800  1.0
  C  C1626  1  0.946400  0.410500  0.983200  1.0
  C  C1627  1  0.552800  0.936000  0.454300  1.0
  C  C1628  1  0.552800  0.064000  0.545700  1.0
  C  C1629  1  0.052800  0.436000  0.954300  1.0
  C  C1630  1  0.052800  0.564000  0.045700  1.0
  C  C1631  1  0.447200  0.064000  0.545700  1.0
  C  C1632  1  0.447200  0.936000  0.454300  1.0
  C  C1633  1  0.947200  0.564000  0.045700  1.0
  C  C1634  1  0.947200  0.436000  0.954300  1.0
  C  C1635  1  0.551400  0.900400  0.441800  1.0
  C  C1636  1  0.551400  0.099600  0.558200  1.0
  C  C1637  1  0.051400  0.400400  0.941800  1.0
  C  C1638  1  0.051400  0.599600  0.058200  1.0
  C  C1639  1  0.448600  0.099600  0.558200  1.0
  C  C1640  1  0.448600  0.900400  0.441800  1.0
  C  C1641  1  0.948600  0.599600  0.058200  1.0
  C  C1642  1  0.948600  0.400400  0.941800  1.0
  C  C1643  1  0.553900  0.877900  0.482900  1.0
  C  C1644  1  0.553900  0.122100  0.517100  1.0
  C  C1645  1  0.053900  0.377900  0.982900  1.0
  C  C1646  1  0.053900  0.622100  0.017100  1.0
  C  C1647  1  0.446100  0.122100  0.517100  1.0
  C  C1648  1  0.446100  0.877900  0.482900  1.0
  C  C1649  1  0.946100  0.622100  0.017100  1.0
  C  C1650  1  0.946100  0.377900  0.982900  1.0
  C  C1651  1  0.556500  0.913300  0.497300  1.0
  C  C1652  1  0.556500  0.086700  0.502700  1.0
  C  C1653  1  0.056500  0.413300  0.997300  1.0
  C  C1654  1  0.056500  0.586700  0.002700  1.0
  C  C1655  1  0.443500  0.086700  0.502700  1.0
  C  C1656  1  0.443500  0.913300  0.497300  1.0
  C  C1657  1  0.943500  0.586700  0.002700  1.0
  C  C1658  1  0.943500  0.413300  0.997300  1.0
  C  C1659  1  0.553300  0.873000  0.455700  1.0
  C  C1660  1  0.553300  0.127000  0.544300  1.0
  C  C1661  1  0.053300  0.373000  0.955700  1.0
  C  C1662  1  0.053300  0.627000  0.044300  1.0
  C  C1663  1  0.446700  0.127000  0.544300  1.0
  C  C1664  1  0.446700  0.873000  0.455700  1.0
  C  C1665  1  0.946700  0.627000  0.044300  1.0
  C  C1666  1  0.946700  0.373000  0.955700  1.0
  C  C1667  1  0.539000  0.862800  0.452000  1.0
  C  C1668  1  0.539000  0.137200  0.548000  1.0
  C  C1669  1  0.039000  0.362800  0.952000  1.0
  C  C1670  1  0.039000  0.637200  0.048000  1.0
  C  C1671  1  0.461000  0.137200  0.548000  1.0
  C  C1672  1  0.461000  0.862800  0.452000  1.0
  C  C1673  1  0.961000  0.637200  0.048000  1.0
  C  C1674  1  0.961000  0.362800  0.952000  1.0
  C  C1675  1  0.597200  0.758300  0.400800  1.0
  C  C1676  1  0.597200  0.241700  0.599200  1.0
  C  C1677  1  0.097200  0.258300  0.900800  1.0
  C  C1678  1  0.097200  0.741700  0.099200  1.0
  C  C1679  1  0.402800  0.241700  0.599200  1.0
  C  C1680  1  0.402800  0.758300  0.400800  1.0
  C  C1681  1  0.902800  0.741700  0.099200  1.0
  C  C1682  1  0.902800  0.258300  0.900800  1.0
  C  C1683  1  0.588000  0.772500  0.408100  1.0
  C  C1684  1  0.588000  0.227500  0.591900  1.0
  C  C1685  1  0.088000  0.272500  0.908100  1.0
  C  C1686  1  0.088000  0.727500  0.091900  1.0
  C  C1687  1  0.412000  0.227500  0.591900  1.0
  C  C1688  1  0.412000  0.772500  0.408100  1.0
  C  C1689  1  0.912000  0.727500  0.091900  1.0
  C  C1690  1  0.912000  0.272500  0.908100  1.0
  C  C1691  1  0.597400  0.786400  0.415000  1.0
  C  C1692  1  0.597400  0.213600  0.585000  1.0
  C  C1693  1  0.097400  0.286400  0.915000  1.0
  C  C1694  1  0.097400  0.713600  0.085000  1.0
  C  C1695  1  0.402600  0.213600  0.585000  1.0
  C  C1696  1  0.402600  0.786400  0.415000  1.0
  C  C1697  1  0.902600  0.713600  0.085000  1.0
  C  C1698  1  0.902600  0.286400  0.915000  1.0
  C  C1699  1  0.614900  0.785700  0.413400  1.0
  C  C1700  1  0.614900  0.214300  0.586600  1.0
  C  C1701  1  0.114900  0.285700  0.913400  1.0
  C  C1702  1  0.114900  0.714300  0.086600  1.0
  C  C1703  1  0.385100  0.214300  0.586600  1.0
  C  C1704  1  0.385100  0.785700  0.413400  1.0
  C  C1705  1  0.885100  0.714300  0.086600  1.0
  C  C1706  1  0.885100  0.285700  0.913400  1.0
  C  C1707  1  0.623700  0.771900  0.405100  1.0
  C  C1708  1  0.623700  0.228100  0.594900  1.0
  C  C1709  1  0.123700  0.271900  0.905100  1.0
  C  C1710  1  0.123700  0.728100  0.094900  1.0
  C  C1711  1  0.376300  0.228100  0.594900  1.0
  C  C1712  1  0.376300  0.771900  0.405100  1.0
  C  C1713  1  0.876300  0.728100  0.094900  1.0
  C  C1714  1  0.876300  0.271900  0.905100  1.0
  C  C1715  1  0.588300  0.801400  0.422100  1.0
  C  C1716  1  0.588300  0.198600  0.577900  1.0
  C  C1717  1  0.088300  0.301400  0.922100  1.0
  C  C1718  1  0.088300  0.698600  0.077900  1.0
  C  C1719  1  0.411700  0.198600  0.577900  1.0
  C  C1720  1  0.411700  0.801400  0.422100  1.0
  C  C1721  1  0.911700  0.698600  0.077900  1.0
  C  C1722  1  0.911700  0.301400  0.922100  1.0
  C  C1723  1  0.584200  0.802100  0.435400  1.0
  C  C1724  1  0.584200  0.197900  0.564600  1.0
  C  C1725  1  0.084200  0.302100  0.935400  1.0
  C  C1726  1  0.084200  0.697900  0.064600  1.0
  C  C1727  1  0.415800  0.197900  0.564600  1.0
  C  C1728  1  0.415800  0.802100  0.435400  1.0
  C  C1729  1  0.915800  0.697900  0.064600  1.0
  C  C1730  1  0.915800  0.302100  0.935400  1.0
  C  C1731  1  0.574500  0.815600  0.442300  1.0
  C  C1732  1  0.574500  0.184400  0.557700  1.0
  C  C1733  1  0.074500  0.315600  0.942300  1.0
  C  C1734  1  0.074500  0.684400  0.057700  1.0
  C  C1735  1  0.425500  0.184400  0.557700  1.0
  C  C1736  1  0.425500  0.815600  0.442300  1.0
  C  C1737  1  0.925500  0.684400  0.057700  1.0
  C  C1738  1  0.925500  0.315600  0.942300  1.0
  C  C1739  1  0.568300  0.828800  0.435400  1.0
  C  C1740  1  0.568300  0.171200  0.564600  1.0
  C  C1741  1  0.068300  0.328800  0.935400  1.0
  C  C1742  1  0.068300  0.671200  0.064600  1.0
  C  C1743  1  0.431700  0.171200  0.564600  1.0
  C  C1744  1  0.431700  0.828800  0.435400  1.0
  C  C1745  1  0.931700  0.671200  0.064600  1.0
  C  C1746  1  0.931700  0.328800  0.935400  1.0
  C  C1747  1  0.574300  0.829500  0.422600  1.0
  C  C1748  1  0.574300  0.170500  0.577400  1.0
  C  C1749  1  0.074300  0.329500  0.922600  1.0
  C  C1750  1  0.074300  0.670500  0.077400  1.0
  C  C1751  1  0.425700  0.170500  0.577400  1.0
  C  C1752  1  0.425700  0.829500  0.422600  1.0
  C  C1753  1  0.925700  0.670500  0.077400  1.0
  C  C1754  1  0.925700  0.329500  0.922600  1.0
  C  C1755  1  0.580900  0.814100  0.415300  1.0
  C  C1756  1  0.580900  0.185900  0.584700  1.0
  C  C1757  1  0.080900  0.314100  0.915300  1.0
  C  C1758  1  0.080900  0.685900  0.084700  1.0
  C  C1759  1  0.419100  0.185900  0.584700  1.0
  C  C1760  1  0.419100  0.814100  0.415300  1.0
  C  C1761  1  0.919100  0.685900  0.084700  1.0
  C  C1762  1  0.919100  0.314100  0.915300  1.0
  C  C1763  1  0.589200  0.787500  0.442100  1.0
  C  C1764  1  0.589200  0.212500  0.557900  1.0
  C  C1765  1  0.089200  0.287500  0.942100  1.0
  C  C1766  1  0.089200  0.712500  0.057900  1.0
  C  C1767  1  0.410800  0.212500  0.557900  1.0
  C  C1768  1  0.410800  0.787500  0.442100  1.0
  C  C1769  1  0.910800  0.712500  0.057900  1.0
  C  C1770  1  0.910800  0.287500  0.942100  1.0
  C  C1771  1  0.569600  0.817000  0.456100  1.0
  C  C1772  1  0.569600  0.183000  0.543900  1.0
  C  C1773  1  0.069600  0.317000  0.956100  1.0
  C  C1774  1  0.069600  0.683000  0.043900  1.0
  C  C1775  1  0.430400  0.183000  0.543900  1.0
  C  C1776  1  0.430400  0.817000  0.456100  1.0
  C  C1777  1  0.930400  0.683000  0.043900  1.0
  C  C1778  1  0.930400  0.317000  0.956100  1.0
  C  C1779  1  0.565500  0.842700  0.416100  1.0
  C  C1780  1  0.565500  0.157300  0.583900  1.0
  C  C1781  1  0.065500  0.342700  0.916100  1.0
  C  C1782  1  0.065500  0.657300  0.083900  1.0
  C  C1783  1  0.434500  0.157300  0.583900  1.0
  C  C1784  1  0.434500  0.842700  0.416100  1.0
  C  C1785  1  0.934500  0.657300  0.083900  1.0
  C  C1786  1  0.934500  0.342700  0.916100  1.0
  C  C1787  1  0.585900  0.815200  0.401900  1.0
  C  C1788  1  0.585900  0.184800  0.598100  1.0
  C  C1789  1  0.085900  0.315200  0.901900  1.0
  C  C1790  1  0.085900  0.684800  0.098100  1.0
  C  C1791  1  0.414100  0.184800  0.598100  1.0
  C  C1792  1  0.414100  0.815200  0.401900  1.0
  C  C1793  1  0.914100  0.684800  0.098100  1.0
  C  C1794  1  0.914100  0.315200  0.901900  1.0
  C  C1795  1  0.561000  0.844400  0.442800  1.0
  C  C1796  1  0.561000  0.155600  0.557200  1.0
  C  C1797  1  0.061000  0.344400  0.942800  1.0
  C  C1798  1  0.061000  0.655600  0.057200  1.0
  C  C1799  1  0.439000  0.155600  0.557200  1.0
  C  C1800  1  0.439000  0.844400  0.442800  1.0
  C  C1801  1  0.939000  0.655600  0.057200  1.0
  C  C1802  1  0.939000  0.344400  0.942800  1.0
  C  C1803  1  0.543500  0.846800  0.444800  1.0
  C  C1804  1  0.543500  0.153200  0.555200  1.0
  C  C1805  1  0.043500  0.346800  0.944800  1.0
  C  C1806  1  0.043500  0.653200  0.055200  1.0
  C  C1807  1  0.456500  0.153200  0.555200  1.0
  C  C1808  1  0.456500  0.846800  0.444800  1.0
  C  C1809  1  0.956500  0.653200  0.055200  1.0
  C  C1810  1  0.956500  0.346800  0.944800  1.0
  C  C1811  1  0.539000  0.004500  0.476100  1.0
  C  C1812  1  0.539000  0.995500  0.523900  1.0
  C  C1813  1  0.039000  0.504500  0.976100  1.0
  C  C1814  1  0.039000  0.495500  0.023900  1.0
  C  C1815  1  0.461000  0.995500  0.523900  1.0
  C  C1816  1  0.461000  0.004500  0.476100  1.0
  C  C1817  1  0.961000  0.495500  0.023900  1.0
  C  C1818  1  0.961000  0.504500  0.976100  1.0
  C  C1819  1  0.538100  0.005900  0.462500  1.0
  C  C1820  1  0.538100  0.994100  0.537500  1.0
  C  C1821  1  0.038100  0.505900  0.962500  1.0
  C  C1822  1  0.038100  0.494100  0.037500  1.0
  C  C1823  1  0.461900  0.994100  0.537500  1.0
  C  C1824  1  0.461900  0.005900  0.462500  1.0
  C  C1825  1  0.961900  0.494100  0.037500  1.0
  C  C1826  1  0.961900  0.505900  0.962500  1.0
  C  C1827  1  0.553800  0.006500  0.455700  1.0
  C  C1828  1  0.553800  0.993500  0.544300  1.0
  C  C1829  1  0.053800  0.506500  0.955700  1.0
  C  C1830  1  0.053800  0.493500  0.044300  1.0
  C  C1831  1  0.446200  0.993500  0.544300  1.0
  C  C1832  1  0.446200  0.006500  0.455700  1.0
  C  C1833  1  0.946200  0.493500  0.044300  1.0
  C  C1834  1  0.946200  0.506500  0.955700  1.0
  C  C1835  1  0.569300  0.005600  0.462500  1.0
  C  C1836  1  0.569300  0.994400  0.537500  1.0
  C  C1837  1  0.069300  0.505600  0.962500  1.0
  C  C1838  1  0.069300  0.494400  0.037500  1.0
  C  C1839  1  0.430700  0.994400  0.537500  1.0
  C  C1840  1  0.430700  0.005600  0.462500  1.0
  C  C1841  1  0.930700  0.494400  0.037500  1.0
  C  C1842  1  0.930700  0.505600  0.962500  1.0
  C  C1843  1  0.569300  0.003300  0.475900  1.0
  C  C1844  1  0.569300  0.996700  0.524100  1.0
  C  C1845  1  0.069300  0.503300  0.975900  1.0
  C  C1846  1  0.069300  0.496700  0.024100  1.0
  C  C1847  1  0.430700  0.996700  0.524100  1.0
  C  C1848  1  0.430700  0.003300  0.475900  1.0
  C  C1849  1  0.930700  0.496700  0.024100  1.0
  C  C1850  1  0.930700  0.503300  0.975900  1.0
  C  C1851  1  0.554100  0.005400  0.441600  1.0
  C  C1852  1  0.554100  0.994600  0.558400  1.0
  C  C1853  1  0.054100  0.505400  0.941600  1.0
  C  C1854  1  0.054100  0.494600  0.058400  1.0
  C  C1855  1  0.445900  0.994600  0.558400  1.0
  C  C1856  1  0.445900  0.005400  0.441600  1.0
  C  C1857  1  0.945900  0.494600  0.058400  1.0
  C  C1858  1  0.945900  0.505400  0.941600  1.0
  C  C1859  1  0.554900  0.020800  0.436100  1.0
  C  C1860  1  0.554900  0.979200  0.563900  1.0
  C  C1861  1  0.054900  0.520800  0.936100  1.0
  C  C1862  1  0.054900  0.479200  0.063900  1.0
  C  C1863  1  0.445100  0.979200  0.563900  1.0
  C  C1864  1  0.445100  0.020800  0.436100  1.0
  C  C1865  1  0.945100  0.479200  0.063900  1.0
  C  C1866  1  0.945100  0.520800  0.936100  1.0
  C  C1867  1  0.555100  0.020300  0.422500  1.0
  C  C1868  1  0.555100  0.979700  0.577500  1.0
  C  C1869  1  0.055100  0.520300  0.922500  1.0
  C  C1870  1  0.055100  0.479700  0.077500  1.0
  C  C1871  1  0.444900  0.979700  0.577500  1.0
  C  C1872  1  0.444900  0.020300  0.422500  1.0
  C  C1873  1  0.944900  0.479700  0.077500  1.0
  C  C1874  1  0.944900  0.520300  0.922500  1.0
  C  C1875  1  0.553300  0.004200  0.414600  1.0
  C  C1876  1  0.553300  0.995800  0.585400  1.0
  C  C1877  1  0.053300  0.504200  0.914600  1.0
  C  C1878  1  0.053300  0.495800  0.085400  1.0
  C  C1879  1  0.446700  0.995800  0.585400  1.0
  C  C1880  1  0.446700  0.004200  0.414600  1.0
  C  C1881  1  0.946700  0.495800  0.085400  1.0
  C  C1882  1  0.946700  0.504200  0.914600  1.0
  C  C1883  1  0.553700  0.988400  0.419800  1.0
  C  C1884  1  0.553700  0.011600  0.580200  1.0
  C  C1885  1  0.053700  0.488400  0.919800  1.0
  C  C1886  1  0.053700  0.511600  0.080200  1.0
  C  C1887  1  0.446300  0.011600  0.580200  1.0
  C  C1888  1  0.446300  0.988400  0.419800  1.0
  C  C1889  1  0.946300  0.511600  0.080200  1.0
  C  C1890  1  0.946300  0.488400  0.919800  1.0
  C  C1891  1  0.553800  0.989100  0.433500  1.0
  C  C1892  1  0.553800  0.010900  0.566500  1.0
  C  C1893  1  0.053800  0.489100  0.933500  1.0
  C  C1894  1  0.053800  0.510900  0.066500  1.0
  C  C1895  1  0.446200  0.010900  0.566500  1.0
  C  C1896  1  0.446200  0.989100  0.433500  1.0
  C  C1897  1  0.946200  0.510900  0.066500  1.0
  C  C1898  1  0.946200  0.489100  0.933500  1.0
  C  C1899  1  0.555100  0.037300  0.444400  1.0
  C  C1900  1  0.555100  0.962700  0.555600  1.0
  C  C1901  1  0.055100  0.537300  0.944400  1.0
  C  C1902  1  0.055100  0.462700  0.055600  1.0
  C  C1903  1  0.444900  0.962700  0.555600  1.0
  C  C1904  1  0.444900  0.037300  0.444400  1.0
  C  C1905  1  0.944900  0.462700  0.055600  1.0
  C  C1906  1  0.944900  0.537300  0.944400  1.0
  C  C1907  1  0.556900  0.036200  0.416700  1.0
  C  C1908  1  0.556900  0.963800  0.583300  1.0
  C  C1909  1  0.056900  0.536200  0.916700  1.0
  C  C1910  1  0.056900  0.463800  0.083300  1.0
  C  C1911  1  0.443100  0.963800  0.583300  1.0
  C  C1912  1  0.443100  0.036200  0.416700  1.0
  C  C1913  1  0.943100  0.463800  0.083300  1.0
  C  C1914  1  0.943100  0.536200  0.916700  1.0
  C  C1915  1  0.552600  0.972500  0.410400  1.0
  C  C1916  1  0.552600  0.027500  0.589600  1.0
  C  C1917  1  0.052600  0.472500  0.910400  1.0
  C  C1918  1  0.052600  0.527500  0.089600  1.0
  C  C1919  1  0.447400  0.027500  0.589600  1.0
  C  C1920  1  0.447400  0.972500  0.410400  1.0
  C  C1921  1  0.947400  0.527500  0.089600  1.0
  C  C1922  1  0.947400  0.472500  0.910400  1.0
  C  C1923  1  0.553300  0.972900  0.439300  1.0
  C  C1924  1  0.553300  0.027100  0.560700  1.0
  C  C1925  1  0.053300  0.472900  0.939300  1.0
  C  C1926  1  0.053300  0.527100  0.060700  1.0
  C  C1927  1  0.446700  0.027100  0.560700  1.0
  C  C1928  1  0.446700  0.972900  0.439300  1.0
  C  C1929  1  0.946700  0.527100  0.060700  1.0
  C  C1930  1  0.946700  0.472900  0.939300  1.0
  C  C1931  1  0.555100  0.002800  0.400500  1.0
  C  C1932  1  0.555100  0.997200  0.599500  1.0
  C  C1933  1  0.055100  0.502800  0.900500  1.0
  C  C1934  1  0.055100  0.497200  0.099500  1.0
  C  C1935  1  0.444900  0.997200  0.599500  1.0
  C  C1936  1  0.444900  0.002800  0.400500  1.0
  C  C1937  1  0.944900  0.497200  0.099500  1.0
  C  C1938  1  0.944900  0.502800  0.900500  1.0
  C  C1939  1  0.541400  0.004800  0.392100  1.0
  C  C1940  1  0.541400  0.995200  0.607900  1.0
  C  C1941  1  0.041400  0.504800  0.892100  1.0
  C  C1942  1  0.041400  0.495200  0.107900  1.0
  C  C1943  1  0.458600  0.995200  0.607900  1.0
  C  C1944  1  0.458600  0.004800  0.392100  1.0
  C  C1945  1  0.958600  0.495200  0.107900  1.0
  C  C1946  1  0.958600  0.504800  0.892100  1.0
  C  C1947  1  0.603600  0.988300  0.305900  1.0
  C  C1948  1  0.603600  0.011700  0.694100  1.0
  C  C1949  1  0.103600  0.488300  0.805900  1.0
  C  C1950  1  0.103600  0.511700  0.194100  1.0
  C  C1951  1  0.396400  0.011700  0.694100  1.0
  C  C1952  1  0.396400  0.988300  0.305900  1.0
  C  C1953  1  0.896400  0.511700  0.194100  1.0
  C  C1954  1  0.896400  0.488300  0.805900  1.0
  C  C1955  1  0.593300  0.991700  0.317500  1.0
  C  C1956  1  0.593300  0.008300  0.682500  1.0
  C  C1957  1  0.093300  0.491700  0.817500  1.0
  C  C1958  1  0.093300  0.508300  0.182500  1.0
  C  C1959  1  0.406700  0.008300  0.682500  1.0
  C  C1960  1  0.406700  0.991700  0.317500  1.0
  C  C1961  1  0.906700  0.508300  0.182500  1.0
  C  C1962  1  0.906700  0.491700  0.817500  1.0
  C  C1963  1  0.602800  0.993000  0.329200  1.0
  C  C1964  1  0.602800  0.007000  0.670800  1.0
  C  C1965  1  0.102800  0.493000  0.829200  1.0
  C  C1966  1  0.102800  0.507000  0.170800  1.0
  C  C1967  1  0.397200  0.007000  0.670800  1.0
  C  C1968  1  0.397200  0.993000  0.329200  1.0
  C  C1969  1  0.897200  0.507000  0.170800  1.0
  C  C1970  1  0.897200  0.493000  0.829200  1.0
  C  C1971  1  0.620500  0.991400  0.329300  1.0
  C  C1972  1  0.620500  0.008600  0.670700  1.0
  C  C1973  1  0.120500  0.491400  0.829300  1.0
  C  C1974  1  0.120500  0.508600  0.170700  1.0
  C  C1975  1  0.379500  0.008600  0.670700  1.0
  C  C1976  1  0.379500  0.991400  0.329300  1.0
  C  C1977  1  0.879500  0.508600  0.170700  1.0
  C  C1978  1  0.879500  0.491400  0.829300  1.0
  C  C1979  1  0.630100  0.987600  0.317300  1.0
  C  C1980  1  0.630100  0.012400  0.682700  1.0
  C  C1981  1  0.130100  0.487600  0.817300  1.0
  C  C1982  1  0.130100  0.512400  0.182700  1.0
  C  C1983  1  0.369900  0.012400  0.682700  1.0
  C  C1984  1  0.369900  0.987600  0.317300  1.0
  C  C1985  1  0.869900  0.512400  0.182700  1.0
  C  C1986  1  0.869900  0.487600  0.817300  1.0
  C  C1987  1  0.593300  0.995500  0.341600  1.0
  C  C1988  1  0.593300  0.004500  0.658400  1.0
  C  C1989  1  0.093300  0.495500  0.841600  1.0
  C  C1990  1  0.093300  0.504500  0.158400  1.0
  C  C1991  1  0.406700  0.004500  0.658400  1.0
  C  C1992  1  0.406700  0.995500  0.341600  1.0
  C  C1993  1  0.906700  0.504500  0.158400  1.0
  C  C1994  1  0.906700  0.495500  0.841600  1.0
  C  C1995  1  0.585200  0.981600  0.346700  1.0
  C  C1996  1  0.585200  0.018400  0.653300  1.0
  C  C1997  1  0.085200  0.481600  0.846700  1.0
  C  C1998  1  0.085200  0.518400  0.153300  1.0
  C  C1999  1  0.414800  0.018400  0.653300  1.0
  C  C2000  1  0.414800  0.981600  0.346700  1.0
  C  C2001  1  0.914800  0.518400  0.153300  1.0
  C  C2002  1  0.914800  0.481600  0.846700  1.0
  C  C2003  1  0.575200  0.983900  0.358200  1.0
  C  C2004  1  0.575200  0.016100  0.641800  1.0
  C  C2005  1  0.075200  0.483900  0.858200  1.0
  C  C2006  1  0.075200  0.516100  0.141800  1.0
  C  C2007  1  0.424800  0.016100  0.641800  1.0
  C  C2008  1  0.424800  0.983900  0.358200  1.0
  C  C2009  1  0.924800  0.516100  0.141800  1.0
  C  C2010  1  0.924800  0.483900  0.858200  1.0
  C  C2011  1  0.572700  0.000900  0.364800  1.0
  C  C2012  1  0.572700  0.999100  0.635200  1.0
  C  C2013  1  0.072700  0.500900  0.864800  1.0
  C  C2014  1  0.072700  0.499100  0.135200  1.0
  C  C2015  1  0.427300  0.999100  0.635200  1.0
  C  C2016  1  0.427300  0.000900  0.364800  1.0
  C  C2017  1  0.927300  0.499100  0.135200  1.0
  C  C2018  1  0.927300  0.500900  0.864800  1.0
  C  C2019  1  0.581600  0.014700  0.360200  1.0
  C  C2020  1  0.581600  0.985300  0.639800  1.0
  C  C2021  1  0.081600  0.514700  0.860200  1.0
  C  C2022  1  0.081600  0.485300  0.139800  1.0
  C  C2023  1  0.418400  0.985300  0.639800  1.0
  C  C2024  1  0.418400  0.014700  0.360200  1.0
  C  C2025  1  0.918400  0.485300  0.139800  1.0
  C  C2026  1  0.918400  0.514700  0.860200  1.0
  C  C2027  1  0.590700  0.012300  0.348300  1.0
  C  C2028  1  0.590700  0.987700  0.651700  1.0
  C  C2029  1  0.090700  0.512300  0.848300  1.0
  C  C2030  1  0.090700  0.487700  0.151700  1.0
  C  C2031  1  0.409300  0.987700  0.651700  1.0
  C  C2032  1  0.409300  0.012300  0.348300  1.0
  C  C2033  1  0.909300  0.487700  0.151700  1.0
  C  C2034  1  0.909300  0.512300  0.848300  1.0
  C  C2035  1  0.588400  0.964200  0.339600  1.0
  C  C2036  1  0.588400  0.035800  0.660400  1.0
  C  C2037  1  0.088400  0.464200  0.839600  1.0
  C  C2038  1  0.088400  0.535800  0.160400  1.0
  C  C2039  1  0.411600  0.035800  0.660400  1.0
  C  C2040  1  0.411600  0.964200  0.339600  1.0
  C  C2041  1  0.911600  0.535800  0.160400  1.0
  C  C2042  1  0.911600  0.464200  0.839600  1.0
  C  C2043  1  0.566200  0.970100  0.363900  1.0
  C  C2044  1  0.566200  0.029900  0.636100  1.0
  C  C2045  1  0.066200  0.470100  0.863900  1.0
  C  C2046  1  0.066200  0.529900  0.136100  1.0
  C  C2047  1  0.433800  0.029900  0.636100  1.0
  C  C2048  1  0.433800  0.970100  0.363900  1.0
  C  C2049  1  0.933800  0.529900  0.136100  1.0
  C  C2050  1  0.933800  0.470100  0.863900  1.0
  C  C2051  1  0.579700  0.031800  0.367900  1.0
  C  C2052  1  0.579700  0.968200  0.632100  1.0
  C  C2053  1  0.079700  0.531800  0.867900  1.0
  C  C2054  1  0.079700  0.468200  0.132100  1.0
  C  C2055  1  0.420300  0.968200  0.632100  1.0
  C  C2056  1  0.420300  0.031800  0.367900  1.0
  C  C2057  1  0.920300  0.468200  0.132100  1.0
  C  C2058  1  0.920300  0.531800  0.867900  1.0
  C  C2059  1  0.599300  0.026800  0.343400  1.0
  C  C2060  1  0.599300  0.973200  0.656600  1.0
  C  C2061  1  0.099300  0.526800  0.843400  1.0
  C  C2062  1  0.099300  0.473200  0.156600  1.0
  C  C2063  1  0.400700  0.973200  0.656600  1.0
  C  C2064  1  0.400700  0.026800  0.343400  1.0
  C  C2065  1  0.900700  0.473200  0.156600  1.0
  C  C2066  1  0.900700  0.526800  0.843400  1.0
  C  C2067  1  0.564400  0.003200  0.377600  1.0
  C  C2068  1  0.564400  0.996800  0.622400  1.0
  C  C2069  1  0.064400  0.503200  0.877600  1.0
  C  C2070  1  0.064400  0.496800  0.122400  1.0
  C  C2071  1  0.435600  0.996800  0.622400  1.0
  C  C2072  1  0.435600  0.003200  0.377600  1.0
  C  C2073  1  0.935600  0.496800  0.122400  1.0
  C  C2074  1  0.935600  0.503200  0.877600  1.0
  C  C2075  1  0.546500  0.005100  0.379100  1.0
  C  C2076  1  0.546500  0.994900  0.620900  1.0
  C  C2077  1  0.046500  0.505100  0.879100  1.0
  C  C2078  1  0.046500  0.494900  0.120900  1.0
  C  C2079  1  0.453500  0.994900  0.620900  1.0
  C  C2080  1  0.453500  0.005100  0.379100  1.0
  C  C2081  1  0.953500  0.494900  0.120900  1.0
  C  C2082  1  0.953500  0.505100  0.879100  1.0
  C  C2083  1  0.732100  0.606800  0.522000  1.0
  C  C2084  1  0.732100  0.393200  0.478000  1.0
  C  C2085  1  0.232100  0.106800  0.022000  1.0
  C  C2086  1  0.232100  0.893200  0.978000  1.0
  C  C2087  1  0.267900  0.393200  0.478000  1.0
  C  C2088  1  0.267900  0.606800  0.522000  1.0
  C  C2089  1  0.767900  0.893200  0.978000  1.0
  C  C2090  1  0.767900  0.106800  0.022000  1.0
  C  C2091  1  0.717700  0.612200  0.515100  1.0
  C  C2092  1  0.717700  0.387800  0.484900  1.0
  C  C2093  1  0.217700  0.112200  0.015100  1.0
  C  C2094  1  0.217700  0.887800  0.984900  1.0
  C  C2095  1  0.282300  0.387800  0.484900  1.0
  C  C2096  1  0.282300  0.612200  0.515100  1.0
  C  C2097  1  0.782300  0.887800  0.984900  1.0
  C  C2098  1  0.782300  0.112200  0.015100  1.0
  C  C2099  1  0.720200  0.627300  0.509300  1.0
  C  C2100  1  0.720200  0.372700  0.490700  1.0
  C  C2101  1  0.220200  0.127300  0.009300  1.0
  C  C2102  1  0.220200  0.872700  0.990700  1.0
  C  C2103  1  0.279800  0.372700  0.490700  1.0
  C  C2104  1  0.279800  0.627300  0.509300  1.0
  C  C2105  1  0.779800  0.872700  0.990700  1.0
  C  C2106  1  0.779800  0.127300  0.009300  1.0
  C  C2107  1  0.736000  0.635600  0.511500  1.0
  C  C2108  1  0.736000  0.364400  0.488500  1.0
  C  C2109  1  0.236000  0.135600  0.011500  1.0
  C  C2110  1  0.236000  0.864400  0.988500  1.0
  C  C2111  1  0.264000  0.364400  0.488500  1.0
  C  C2112  1  0.264000  0.635600  0.511500  1.0
  C  C2113  1  0.764000  0.864400  0.988500  1.0
  C  C2114  1  0.764000  0.135600  0.011500  1.0
  C  C2115  1  0.750500  0.628600  0.517500  1.0
  C  C2116  1  0.750500  0.371400  0.482500  1.0
  C  C2117  1  0.250500  0.128600  0.017500  1.0
  C  C2118  1  0.250500  0.871400  0.982500  1.0
  C  C2119  1  0.249500  0.371400  0.482500  1.0
  C  C2120  1  0.249500  0.628600  0.517500  1.0
  C  C2121  1  0.749500  0.871400  0.982500  1.0
  C  C2122  1  0.749500  0.128600  0.017500  1.0
  C  C2123  1  0.707600  0.632600  0.500200  1.0
  C  C2124  1  0.707600  0.367400  0.499800  1.0
  C  C2125  1  0.207600  0.132600  0.000200  1.0
  C  C2126  1  0.207600  0.867400  0.999800  1.0
  C  C2127  1  0.292400  0.367400  0.499800  1.0
  C  C2128  1  0.292400  0.632600  0.500200  1.0
  C  C2129  1  0.792400  0.867400  0.999800  1.0
  C  C2130  1  0.792400  0.132600  0.000200  1.0
  C  C2131  1  0.694200  0.644100  0.505000  1.0
  C  C2132  1  0.694200  0.355900  0.495000  1.0
  C  C2133  1  0.194200  0.144100  0.005000  1.0
  C  C2134  1  0.194200  0.855900  0.995000  1.0
  C  C2135  1  0.305800  0.355900  0.495000  1.0
  C  C2136  1  0.305800  0.644100  0.505000  1.0
  C  C2137  1  0.805800  0.855900  0.995000  1.0
  C  C2138  1  0.805800  0.144100  0.005000  1.0
  C  C2139  1  0.680800  0.647700  0.496500  1.0
  C  C2140  1  0.680800  0.352300  0.503500  1.0
  C  C2141  1  0.180800  0.147700  0.996500  1.0
  C  C2142  1  0.180800  0.852300  0.003500  1.0
  C  C2143  1  0.319200  0.352300  0.503500  1.0
  C  C2144  1  0.319200  0.647700  0.496500  1.0
  C  C2145  1  0.819200  0.852300  0.003500  1.0
  C  C2146  1  0.819200  0.147700  0.996500  1.0
  C  C2147  1  0.681300  0.640100  0.483300  1.0
  C  C2148  1  0.681300  0.359900  0.516700  1.0
  C  C2149  1  0.181300  0.140100  0.983300  1.0
  C  C2150  1  0.181300  0.859900  0.016700  1.0
  C  C2151  1  0.318700  0.359900  0.516700  1.0
  C  C2152  1  0.318700  0.640100  0.483300  1.0
  C  C2153  1  0.818700  0.859900  0.016700  1.0
  C  C2154  1  0.818700  0.140100  0.983300  1.0
  C  C2155  1  0.693700  0.627600  0.478700  1.0
  C  C2156  1  0.693700  0.372400  0.521300  1.0
  C  C2157  1  0.193700  0.127600  0.978700  1.0
  C  C2158  1  0.193700  0.872400  0.021300  1.0
  C  C2159  1  0.306300  0.372400  0.521300  1.0
  C  C2160  1  0.306300  0.627600  0.478700  1.0
  C  C2161  1  0.806300  0.872400  0.021300  1.0
  C  C2162  1  0.806300  0.127600  0.978700  1.0
  C  C2163  1  0.707700  0.625100  0.487000  1.0
  C  C2164  1  0.707700  0.374900  0.513000  1.0
  C  C2165  1  0.207700  0.125100  0.987000  1.0
  C  C2166  1  0.207700  0.874900  0.013000  1.0
  C  C2167  1  0.292300  0.374900  0.513000  1.0
  C  C2168  1  0.292300  0.625100  0.487000  1.0
  C  C2169  1  0.792300  0.874900  0.013000  1.0
  C  C2170  1  0.792300  0.125100  0.987000  1.0
  C  C2171  1  0.694600  0.651900  0.518600  1.0
  C  C2172  1  0.694600  0.348100  0.481400  1.0
  C  C2173  1  0.194600  0.151900  0.018600  1.0
  C  C2174  1  0.194600  0.848100  0.981400  1.0
  C  C2175  1  0.305400  0.348100  0.481400  1.0
  C  C2176  1  0.305400  0.651900  0.518600  1.0
  C  C2177  1  0.805400  0.848100  0.981400  1.0
  C  C2178  1  0.805400  0.151900  0.018600  1.0
  C  C2179  1  0.666300  0.659400  0.500100  1.0
  C  C2180  1  0.666300  0.340600  0.499900  1.0
  C  C2181  1  0.166300  0.159400  0.000100  1.0
  C  C2182  1  0.166300  0.840600  0.999900  1.0
  C  C2183  1  0.333700  0.340600  0.499900  1.0
  C  C2184  1  0.333700  0.659400  0.500100  1.0
  C  C2185  1  0.833700  0.840600  0.999900  1.0
  C  C2186  1  0.833700  0.159400  0.000100  1.0
  C  C2187  1  0.693200  0.620600  0.464900  1.0
  C  C2188  1  0.693200  0.379400  0.535100  1.0
  C  C2189  1  0.193200  0.120600  0.964900  1.0
  C  C2190  1  0.193200  0.879400  0.035100  1.0
  C  C2191  1  0.306800  0.379400  0.535100  1.0
  C  C2192  1  0.306800  0.620600  0.464900  1.0
  C  C2193  1  0.806800  0.879400  0.035100  1.0
  C  C2194  1  0.806800  0.120600  0.964900  1.0
  C  C2195  1  0.721400  0.613400  0.481600  1.0
  C  C2196  1  0.721400  0.386600  0.518400  1.0
  C  C2197  1  0.221400  0.113400  0.981600  1.0
  C  C2198  1  0.221400  0.886600  0.018400  1.0
  C  C2199  1  0.278600  0.386600  0.518400  1.0
  C  C2200  1  0.278600  0.613400  0.481600  1.0
  C  C2201  1  0.778600  0.886600  0.018400  1.0
  C  C2202  1  0.778600  0.113400  0.981600  1.0
  C  C2203  1  0.670500  0.646600  0.473800  1.0
  C  C2204  1  0.670500  0.353400  0.526200  1.0
  C  C2205  1  0.170500  0.146600  0.973800  1.0
  C  C2206  1  0.170500  0.853400  0.026200  1.0
  C  C2207  1  0.329500  0.353400  0.526200  1.0
  C  C2208  1  0.329500  0.646600  0.473800  1.0
  C  C2209  1  0.829500  0.853400  0.026200  1.0
  C  C2210  1  0.829500  0.146600  0.973800  1.0
  C  C2211  1  0.654100  0.639600  0.471200  1.0
  C  C2212  1  0.654100  0.360400  0.528800  1.0
  C  C2213  1  0.154100  0.139600  0.971200  1.0
  C  C2214  1  0.154100  0.860400  0.028800  1.0
  C  C2215  1  0.345900  0.360400  0.528800  1.0
  C  C2216  1  0.345900  0.639600  0.471200  1.0
  C  C2217  1  0.845900  0.860400  0.028800  1.0
  C  C2218  1  0.845900  0.139600  0.971200  1.0
  C  C2219  1  0.616000  0.717000  0.405500  1.0
  C  C2220  1  0.616000  0.283000  0.594500  1.0
  C  C2221  1  0.116000  0.217000  0.905500  1.0
  C  C2222  1  0.116000  0.783000  0.094500  1.0
  C  C2223  1  0.384000  0.283000  0.594500  1.0
  C  C2224  1  0.384000  0.717000  0.405500  1.0
  C  C2225  1  0.884000  0.783000  0.094500  1.0
  C  C2226  1  0.884000  0.217000  0.905500  1.0
  C  C2227  1  0.619000  0.706200  0.415200  1.0
  C  C2228  1  0.619000  0.293800  0.584800  1.0
  C  C2229  1  0.119000  0.206200  0.915200  1.0
  C  C2230  1  0.119000  0.793800  0.084800  1.0
  C  C2231  1  0.381000  0.293800  0.584800  1.0
  C  C2232  1  0.381000  0.706200  0.415200  1.0
  C  C2233  1  0.881000  0.793800  0.084800  1.0
  C  C2234  1  0.881000  0.206200  0.915200  1.0
  C  C2235  1  0.634700  0.707100  0.421600  1.0
  C  C2236  1  0.634700  0.292900  0.578400  1.0
  C  C2237  1  0.134700  0.207100  0.921600  1.0
  C  C2238  1  0.134700  0.792900  0.078400  1.0
  C  C2239  1  0.365300  0.292900  0.578400  1.0
  C  C2240  1  0.365300  0.707100  0.421600  1.0
  C  C2241  1  0.865300  0.792900  0.078400  1.0
  C  C2242  1  0.865300  0.207100  0.921600  1.0
  C  C2243  1  0.646300  0.719700  0.419300  1.0
  C  C2244  1  0.646300  0.280300  0.580700  1.0
  C  C2245  1  0.146300  0.219700  0.919300  1.0
  C  C2246  1  0.146300  0.780300  0.080700  1.0
  C  C2247  1  0.353700  0.280300  0.580700  1.0
  C  C2248  1  0.353700  0.719700  0.419300  1.0
  C  C2249  1  0.853700  0.780300  0.080700  1.0
  C  C2250  1  0.853700  0.219700  0.919300  1.0
  C  C2251  1  0.643700  0.729400  0.408600  1.0
  C  C2252  1  0.643700  0.270600  0.591400  1.0
  C  C2253  1  0.143700  0.229400  0.908600  1.0
  C  C2254  1  0.143700  0.770600  0.091400  1.0
  C  C2255  1  0.356300  0.270600  0.591400  1.0
  C  C2256  1  0.356300  0.729400  0.408600  1.0
  C  C2257  1  0.856300  0.770600  0.091400  1.0
  C  C2258  1  0.856300  0.229400  0.908600  1.0
  C  C2259  1  0.638300  0.695100  0.431000  1.0
  C  C2260  1  0.638300  0.304900  0.569000  1.0
  C  C2261  1  0.138300  0.195100  0.931000  1.0
  C  C2262  1  0.138300  0.804900  0.069000  1.0
  C  C2263  1  0.361700  0.304900  0.569000  1.0
  C  C2264  1  0.361700  0.695100  0.431000  1.0
  C  C2265  1  0.861700  0.804900  0.069000  1.0
  C  C2266  1  0.861700  0.195100  0.931000  1.0
  C  C2267  1  0.646900  0.679200  0.427000  1.0
  C  C2268  1  0.646900  0.320800  0.573000  1.0
  C  C2269  1  0.146900  0.179200  0.927000  1.0
  C  C2270  1  0.146900  0.820800  0.073000  1.0
  C  C2271  1  0.353100  0.320800  0.573000  1.0
  C  C2272  1  0.353100  0.679200  0.427000  1.0
  C  C2273  1  0.853100  0.820800  0.073000  1.0
  C  C2274  1  0.853100  0.179200  0.927000  1.0
  C  C2275  1  0.651900  0.668500  0.436200  1.0
  C  C2276  1  0.651900  0.331500  0.563800  1.0
  C  C2277  1  0.151900  0.168500  0.936200  1.0
  C  C2278  1  0.151900  0.831500  0.063800  1.0
  C  C2279  1  0.348100  0.331500  0.563800  1.0
  C  C2280  1  0.348100  0.668500  0.436200  1.0
  C  C2281  1  0.848100  0.831500  0.063800  1.0
  C  C2282  1  0.848100  0.168500  0.936200  1.0
  C  C2283  1  0.647400  0.673300  0.449400  1.0
  C  C2284  1  0.647400  0.326700  0.550600  1.0
  C  C2285  1  0.147400  0.173300  0.949400  1.0
  C  C2286  1  0.147400  0.826700  0.050600  1.0
  C  C2287  1  0.352600  0.326700  0.550600  1.0
  C  C2288  1  0.352600  0.673300  0.449400  1.0
  C  C2289  1  0.852600  0.826700  0.050600  1.0
  C  C2290  1  0.852600  0.173300  0.949400  1.0
  C  C2291  1  0.639800  0.689400  0.453600  1.0
  C  C2292  1  0.639800  0.310600  0.546400  1.0
  C  C2293  1  0.139800  0.189400  0.953600  1.0
  C  C2294  1  0.139800  0.810600  0.046400  1.0
  C  C2295  1  0.360200  0.310600  0.546400  1.0
  C  C2296  1  0.360200  0.689400  0.453600  1.0
  C  C2297  1  0.860200  0.810600  0.046400  1.0
  C  C2298  1  0.860200  0.189400  0.953600  1.0
  C  C2299  1  0.635000  0.700100  0.444300  1.0
  C  C2300  1  0.635000  0.299900  0.555700  1.0
  C  C2301  1  0.135000  0.200100  0.944300  1.0
  C  C2302  1  0.135000  0.799900  0.055700  1.0
  C  C2303  1  0.365000  0.299900  0.555700  1.0
  C  C2304  1  0.365000  0.700100  0.444300  1.0
  C  C2305  1  0.865000  0.799900  0.055700  1.0
  C  C2306  1  0.865000  0.200100  0.944300  1.0
  C  C2307  1  0.651100  0.674000  0.413200  1.0
  C  C2308  1  0.651100  0.326000  0.586800  1.0
  C  C2309  1  0.151100  0.174000  0.913200  1.0
  C  C2310  1  0.151100  0.826000  0.086800  1.0
  C  C2311  1  0.348900  0.326000  0.586800  1.0
  C  C2312  1  0.348900  0.674000  0.413200  1.0
  C  C2313  1  0.848900  0.826000  0.086800  1.0
  C  C2314  1  0.848900  0.174000  0.913200  1.0
  C  C2315  1  0.661600  0.652400  0.432700  1.0
  C  C2316  1  0.661600  0.347600  0.567300  1.0
  C  C2317  1  0.161600  0.152400  0.932700  1.0
  C  C2318  1  0.161600  0.847600  0.067300  1.0
  C  C2319  1  0.338400  0.347600  0.567300  1.0
  C  C2320  1  0.338400  0.652400  0.432700  1.0
  C  C2321  1  0.838400  0.847600  0.067300  1.0
  C  C2322  1  0.838400  0.152400  0.932700  1.0
  C  C2323  1  0.637100  0.694100  0.467500  1.0
  C  C2324  1  0.637100  0.305900  0.532500  1.0
  C  C2325  1  0.137100  0.194100  0.967500  1.0
  C  C2326  1  0.137100  0.805900  0.032500  1.0
  C  C2327  1  0.362900  0.305900  0.532500  1.0
  C  C2328  1  0.362900  0.694100  0.467500  1.0
  C  C2329  1  0.862900  0.805900  0.032500  1.0
  C  C2330  1  0.862900  0.194100  0.967500  1.0
  C  C2331  1  0.626400  0.716600  0.448500  1.0
  C  C2332  1  0.626400  0.283400  0.551500  1.0
  C  C2333  1  0.126400  0.216600  0.948500  1.0
  C  C2334  1  0.126400  0.783400  0.051500  1.0
  C  C2335  1  0.373600  0.283400  0.551500  1.0
  C  C2336  1  0.373600  0.716600  0.448500  1.0
  C  C2337  1  0.873600  0.783400  0.051500  1.0
  C  C2338  1  0.873600  0.216600  0.948500  1.0
  C  C2339  1  0.653700  0.662800  0.459000  1.0
  C  C2340  1  0.653700  0.337200  0.541000  1.0
  C  C2341  1  0.153700  0.162800  0.959000  1.0
  C  C2342  1  0.153700  0.837200  0.041000  1.0
  C  C2343  1  0.346300  0.337200  0.541000  1.0
  C  C2344  1  0.346300  0.662800  0.459000  1.0
  C  C2345  1  0.846300  0.837200  0.041000  1.0
  C  C2346  1  0.846300  0.162800  0.959000  1.0
  C  C2347  1  0.644600  0.648600  0.462500  1.0
  C  C2348  1  0.644600  0.351400  0.537500  1.0
  C  C2349  1  0.144600  0.148600  0.962500  1.0
  C  C2350  1  0.144600  0.851400  0.037500  1.0
  C  C2351  1  0.355400  0.351400  0.537500  1.0
  C  C2352  1  0.355400  0.648600  0.462500  1.0
  C  C2353  1  0.855400  0.851400  0.037500  1.0
  C  C2354  1  0.855400  0.148600  0.962500  1.0
  C  C2355  1  0.768300  0.581800  0.511500  1.0
  C  C2356  1  0.768300  0.418200  0.488500  1.0
  C  C2357  1  0.268300  0.081800  0.011500  1.0
  C  C2358  1  0.268300  0.918200  0.988500  1.0
  C  C2359  1  0.231700  0.418200  0.488500  1.0
  C  C2360  1  0.231700  0.581800  0.511500  1.0
  C  C2361  1  0.731700  0.918200  0.988500  1.0
  C  C2362  1  0.731700  0.081800  0.011500  1.0
  C  C2363  1  0.774000  0.574100  0.499000  1.0
  C  C2364  1  0.774000  0.425900  0.501000  1.0
  C  C2365  1  0.274000  0.074100  0.999000  1.0
  C  C2366  1  0.274000  0.925900  0.001000  1.0
  C  C2367  1  0.226000  0.425900  0.501000  1.0
  C  C2368  1  0.226000  0.574100  0.499000  1.0
  C  C2369  1  0.726000  0.925900  0.001000  1.0
  C  C2370  1  0.726000  0.074100  0.999000  1.0
  C  C2371  1  0.783900  0.583600  0.491100  1.0
  C  C2372  1  0.783900  0.416400  0.508900  1.0
  C  C2373  1  0.283900  0.083600  0.991100  1.0
  C  C2374  1  0.283900  0.916400  0.008900  1.0
  C  C2375  1  0.216100  0.416400  0.508900  1.0
  C  C2376  1  0.216100  0.583600  0.491100  1.0
  C  C2377  1  0.716100  0.916400  0.008900  1.0
  C  C2378  1  0.716100  0.083600  0.991100  1.0
  C  C2379  1  0.789400  0.599800  0.497200  1.0
  C  C2380  1  0.789400  0.400200  0.502800  1.0
  C  C2381  1  0.289400  0.099800  0.997200  1.0
  C  C2382  1  0.289400  0.900200  0.002800  1.0
  C  C2383  1  0.210600  0.400200  0.502800  1.0
  C  C2384  1  0.210600  0.599800  0.497200  1.0
  C  C2385  1  0.710600  0.900200  0.002800  1.0
  C  C2386  1  0.710600  0.099800  0.997200  1.0
  C  C2387  1  0.782800  0.607300  0.509600  1.0
  C  C2388  1  0.782800  0.392700  0.490400  1.0
  C  C2389  1  0.282800  0.107300  0.009600  1.0
  C  C2390  1  0.282800  0.892700  0.990400  1.0
  C  C2391  1  0.217200  0.392700  0.490400  1.0
  C  C2392  1  0.217200  0.607300  0.509600  1.0
  C  C2393  1  0.717200  0.892700  0.990400  1.0
  C  C2394  1  0.717200  0.107300  0.009600  1.0
  C  C2395  1  0.787800  0.577400  0.477500  1.0
  C  C2396  1  0.787800  0.422600  0.522500  1.0
  C  C2397  1  0.287800  0.077400  0.977500  1.0
  C  C2398  1  0.287800  0.922600  0.022500  1.0
  C  C2399  1  0.212200  0.422600  0.522500  1.0
  C  C2400  1  0.212200  0.577400  0.477500  1.0
  C  C2401  1  0.712200  0.922600  0.022500  1.0
  C  C2402  1  0.712200  0.077400  0.977500  1.0
  C  C2403  1  0.775700  0.578400  0.467300  1.0
  C  C2404  1  0.775700  0.421600  0.532700  1.0
  C  C2405  1  0.275700  0.078400  0.967300  1.0
  C  C2406  1  0.275700  0.921600  0.032700  1.0
  C  C2407  1  0.224300  0.421600  0.532700  1.0
  C  C2408  1  0.224300  0.578400  0.467300  1.0
  C  C2409  1  0.724300  0.921600  0.032700  1.0
  C  C2410  1  0.724300  0.078400  0.967300  1.0
  C  C2411  1  0.779600  0.571700  0.454300  1.0
  C  C2412  1  0.779600  0.428300  0.545700  1.0
  C  C2413  1  0.279600  0.071700  0.954300  1.0
  C  C2414  1  0.279600  0.928300  0.045700  1.0
  C  C2415  1  0.220400  0.428300  0.545700  1.0
  C  C2416  1  0.220400  0.571700  0.454300  1.0
  C  C2417  1  0.720400  0.928300  0.045700  1.0
  C  C2418  1  0.720400  0.071700  0.954300  1.0
  C  C2419  1  0.795500  0.563300  0.451100  1.0
  C  C2420  1  0.795500  0.436700  0.548900  1.0
  C  C2421  1  0.295500  0.063300  0.951100  1.0
  C  C2422  1  0.295500  0.936700  0.048900  1.0
  C  C2423  1  0.204500  0.436700  0.548900  1.0
  C  C2424  1  0.204500  0.563300  0.451100  1.0
  C  C2425  1  0.704500  0.936700  0.048900  1.0
  C  C2426  1  0.704500  0.063300  0.951100  1.0
  C  C2427  1  0.807900  0.562500  0.461000  1.0
  C  C2428  1  0.807900  0.437500  0.539000  1.0
  C  C2429  1  0.307900  0.062500  0.961000  1.0
  C  C2430  1  0.307900  0.937500  0.039000  1.0
  C  C2431  1  0.192100  0.437500  0.539000  1.0
  C  C2432  1  0.192100  0.562500  0.461000  1.0
  C  C2433  1  0.692100  0.937500  0.039000  1.0
  C  C2434  1  0.692100  0.062500  0.961000  1.0
  C  C2435  1  0.803500  0.568700  0.474000  1.0
  C  C2436  1  0.803500  0.431300  0.526000  1.0
  C  C2437  1  0.303500  0.068700  0.974000  1.0
  C  C2438  1  0.303500  0.931300  0.026000  1.0
  C  C2439  1  0.196500  0.431300  0.526000  1.0
  C  C2440  1  0.196500  0.568700  0.474000  1.0
  C  C2441  1  0.696500  0.931300  0.026000  1.0
  C  C2442  1  0.696500  0.068700  0.974000  1.0
  C  C2443  1  0.759200  0.587300  0.470600  1.0
  C  C2444  1  0.759200  0.412700  0.529400  1.0
  C  C2445  1  0.259200  0.087300  0.970600  1.0
  C  C2446  1  0.259200  0.912700  0.029400  1.0
  C  C2447  1  0.240800  0.412700  0.529400  1.0
  C  C2448  1  0.240800  0.587300  0.470600  1.0
  C  C2449  1  0.740800  0.912700  0.029400  1.0
  C  C2450  1  0.740800  0.087300  0.970600  1.0
  C  C2451  1  0.768000  0.572700  0.443200  1.0
  C  C2452  1  0.768000  0.427300  0.556800  1.0
  C  C2453  1  0.268000  0.072700  0.943200  1.0
  C  C2454  1  0.268000  0.927300  0.056800  1.0
  C  C2455  1  0.232000  0.427300  0.556800  1.0
  C  C2456  1  0.232000  0.572700  0.443200  1.0
  C  C2457  1  0.732000  0.927300  0.056800  1.0
  C  C2458  1  0.732000  0.072700  0.943200  1.0
  C  C2459  1  0.824400  0.554600  0.456700  1.0
  C  C2460  1  0.824400  0.445400  0.543300  1.0
  C  C2461  1  0.324400  0.054600  0.956700  1.0
  C  C2462  1  0.324400  0.945400  0.043300  1.0
  C  C2463  1  0.175600  0.445400  0.543300  1.0
  C  C2464  1  0.175600  0.554600  0.456700  1.0
  C  C2465  1  0.675600  0.945400  0.043300  1.0
  C  C2466  1  0.675600  0.054600  0.956700  1.0
  C  C2467  1  0.817000  0.568700  0.483800  1.0
  C  C2468  1  0.817000  0.431300  0.516200  1.0
  C  C2469  1  0.317000  0.068700  0.983800  1.0
  C  C2470  1  0.317000  0.931300  0.016200  1.0
  C  C2471  1  0.183000  0.431300  0.516200  1.0
  C  C2472  1  0.183000  0.568700  0.483800  1.0
  C  C2473  1  0.683000  0.931300  0.016200  1.0
  C  C2474  1  0.683000  0.068700  0.983800  1.0
  C  C2475  1  0.801600  0.559100  0.437800  1.0
  C  C2476  1  0.801600  0.440900  0.562200  1.0
  C  C2477  1  0.301600  0.059100  0.937800  1.0
  C  C2478  1  0.301600  0.940900  0.062200  1.0
  C  C2479  1  0.198400  0.440900  0.562200  1.0
  C  C2480  1  0.198400  0.559100  0.437800  1.0
  C  C2481  1  0.698400  0.940900  0.062200  1.0
  C  C2482  1  0.698400  0.059100  0.937800  1.0
  C  C2483  1  0.799200  0.542700  0.430600  1.0
  C  C2484  1  0.799200  0.457300  0.569400  1.0
  C  C2485  1  0.299200  0.042700  0.930600  1.0
  C  C2486  1  0.299200  0.957300  0.069400  1.0
  C  C2487  1  0.200800  0.457300  0.569400  1.0
  C  C2488  1  0.200800  0.542700  0.430600  1.0
  C  C2489  1  0.700800  0.957300  0.069400  1.0
  C  C2490  1  0.700800  0.042700  0.930600  1.0
  C  C2491  1  0.844000  0.569200  0.343200  1.0
  C  C2492  1  0.844000  0.430800  0.656800  1.0
  C  C2493  1  0.344000  0.069200  0.843200  1.0
  C  C2494  1  0.344000  0.930800  0.156800  1.0
  C  C2495  1  0.156000  0.430800  0.656800  1.0
  C  C2496  1  0.156000  0.569200  0.343200  1.0
  C  C2497  1  0.656000  0.930800  0.156800  1.0
  C  C2498  1  0.656000  0.069200  0.843200  1.0
  C  C2499  1  0.838300  0.563000  0.354900  1.0
  C  C2500  1  0.838300  0.437000  0.645100  1.0
  C  C2501  1  0.338300  0.063000  0.854900  1.0
  C  C2502  1  0.338300  0.937000  0.145100  1.0
  C  C2503  1  0.161700  0.437000  0.645100  1.0
  C  C2504  1  0.161700  0.563000  0.354900  1.0
  C  C2505  1  0.661700  0.937000  0.145100  1.0
  C  C2506  1  0.661700  0.063000  0.854900  1.0
  C  C2507  1  0.836900  0.575100  0.366300  1.0
  C  C2508  1  0.836900  0.424900  0.633700  1.0
  C  C2509  1  0.336900  0.075100  0.866300  1.0
  C  C2510  1  0.336900  0.924900  0.133700  1.0
  C  C2511  1  0.163100  0.424900  0.633700  1.0
  C  C2512  1  0.163100  0.575100  0.366300  1.0
  C  C2513  1  0.663100  0.924900  0.133700  1.0
  C  C2514  1  0.663100  0.075100  0.866300  1.0
  C  C2515  1  0.842500  0.591900  0.365300  1.0
  C  C2516  1  0.842500  0.408100  0.634700  1.0
  C  C2517  1  0.342500  0.091900  0.865300  1.0
  C  C2518  1  0.342500  0.908100  0.134700  1.0
  C  C2519  1  0.157500  0.408100  0.634700  1.0
  C  C2520  1  0.157500  0.591900  0.365300  1.0
  C  C2521  1  0.657500  0.908100  0.134700  1.0
  C  C2522  1  0.657500  0.091900  0.865300  1.0
  C  C2523  1  0.847200  0.597600  0.353200  1.0
  C  C2524  1  0.847200  0.402400  0.646800  1.0
  C  C2525  1  0.347200  0.097600  0.853200  1.0
  C  C2526  1  0.347200  0.902400  0.146800  1.0
  C  C2527  1  0.152800  0.402400  0.646800  1.0
  C  C2528  1  0.152800  0.597600  0.353200  1.0
  C  C2529  1  0.652800  0.902400  0.146800  1.0
  C  C2530  1  0.652800  0.097600  0.853200  1.0
  C  C2531  1  0.829900  0.570200  0.378400  1.0
  C  C2532  1  0.829900  0.429800  0.621600  1.0
  C  C2533  1  0.329900  0.070200  0.878400  1.0
  C  C2534  1  0.329900  0.929800  0.121600  1.0
  C  C2535  1  0.170100  0.429800  0.621600  1.0
  C  C2536  1  0.170100  0.570200  0.378400  1.0
  C  C2537  1  0.670100  0.929800  0.121600  1.0
  C  C2538  1  0.670100  0.070200  0.878400  1.0
  C  C2539  1  0.841000  0.563400  0.387400  1.0
  C  C2540  1  0.841000  0.436600  0.612600  1.0
  C  C2541  1  0.341000  0.063400  0.887400  1.0
  C  C2542  1  0.341000  0.936600  0.112600  1.0
  C  C2543  1  0.159000  0.436600  0.612600  1.0
  C  C2544  1  0.159000  0.563400  0.387400  1.0
  C  C2545  1  0.659000  0.936600  0.112600  1.0
  C  C2546  1  0.659000  0.063400  0.887400  1.0
  C  C2547  1  0.834400  0.558700  0.399100  1.0
  C  C2548  1  0.834400  0.441300  0.600900  1.0
  C  C2549  1  0.334400  0.058700  0.899100  1.0
  C  C2550  1  0.334400  0.941300  0.100900  1.0
  C  C2551  1  0.165600  0.441300  0.600900  1.0
  C  C2552  1  0.165600  0.558700  0.399100  1.0
  C  C2553  1  0.665600  0.941300  0.100900  1.0
  C  C2554  1  0.665600  0.058700  0.899100  1.0
  C  C2555  1  0.816600  0.560300  0.401800  1.0
  C  C2556  1  0.816600  0.439700  0.598200  1.0
  C  C2557  1  0.316600  0.060300  0.901800  1.0
  C  C2558  1  0.316600  0.939700  0.098200  1.0
  C  C2559  1  0.183400  0.439700  0.598200  1.0
  C  C2560  1  0.183400  0.560300  0.401800  1.0
  C  C2561  1  0.683400  0.939700  0.098200  1.0
  C  C2562  1  0.683400  0.060300  0.901800  1.0
  C  C2563  1  0.805500  0.567800  0.393300  1.0
  C  C2564  1  0.805500  0.432200  0.606700  1.0
  C  C2565  1  0.305500  0.067800  0.893300  1.0
  C  C2566  1  0.305500  0.932200  0.106700  1.0
  C  C2567  1  0.194500  0.432200  0.606700  1.0
  C  C2568  1  0.194500  0.567800  0.393300  1.0
  C  C2569  1  0.694500  0.932200  0.106700  1.0
  C  C2570  1  0.694500  0.067800  0.893300  1.0
  C  C2571  1  0.811900  0.571500  0.381200  1.0
  C  C2572  1  0.811900  0.428500  0.618800  1.0
  C  C2573  1  0.311900  0.071500  0.881200  1.0
  C  C2574  1  0.311900  0.928500  0.118800  1.0
  C  C2575  1  0.188100  0.428500  0.618800  1.0
  C  C2576  1  0.188100  0.571500  0.381200  1.0
  C  C2577  1  0.688100  0.928500  0.118800  1.0
  C  C2578  1  0.688100  0.071500  0.881200  1.0
  C  C2579  1  0.859500  0.561400  0.384500  1.0
  C  C2580  1  0.859500  0.438600  0.615500  1.0
  C  C2581  1  0.359500  0.061400  0.884500  1.0
  C  C2582  1  0.359500  0.938600  0.115500  1.0
  C  C2583  1  0.140500  0.438600  0.615500  1.0
  C  C2584  1  0.140500  0.561400  0.384500  1.0
  C  C2585  1  0.640500  0.938600  0.115500  1.0
  C  C2586  1  0.640500  0.061400  0.884500  1.0
  C  C2587  1  0.845400  0.551800  0.408700  1.0
  C  C2588  1  0.845400  0.448200  0.591300  1.0
  C  C2589  1  0.345400  0.051800  0.908700  1.0
  C  C2590  1  0.345400  0.948200  0.091300  1.0
  C  C2591  1  0.154600  0.448200  0.591300  1.0
  C  C2592  1  0.154600  0.551800  0.408700  1.0
  C  C2593  1  0.654600  0.948200  0.091300  1.0
  C  C2594  1  0.654600  0.051800  0.908700  1.0
  C  C2595  1  0.787400  0.568800  0.397100  1.0
  C  C2596  1  0.787400  0.431200  0.602900  1.0
  C  C2597  1  0.287400  0.068800  0.897100  1.0
  C  C2598  1  0.287400  0.931200  0.102900  1.0
  C  C2599  1  0.212600  0.431200  0.602900  1.0
  C  C2600  1  0.212600  0.568800  0.397100  1.0
  C  C2601  1  0.712600  0.931200  0.102900  1.0
  C  C2602  1  0.712600  0.068800  0.897100  1.0
  C  C2603  1  0.800500  0.579100  0.372200  1.0
  C  C2604  1  0.800500  0.420900  0.627800  1.0
  C  C2605  1  0.300500  0.079100  0.872200  1.0
  C  C2606  1  0.300500  0.920900  0.127800  1.0
  C  C2607  1  0.199500  0.420900  0.627800  1.0
  C  C2608  1  0.199500  0.579100  0.372200  1.0
  C  C2609  1  0.699500  0.920900  0.127800  1.0
  C  C2610  1  0.699500  0.079100  0.872200  1.0
  C  C2611  1  0.810200  0.557900  0.414500  1.0
  C  C2612  1  0.810200  0.442100  0.585500  1.0
  C  C2613  1  0.310200  0.057900  0.914500  1.0
  C  C2614  1  0.310200  0.942100  0.085500  1.0
  C  C2615  1  0.189800  0.442100  0.585500  1.0
  C  C2616  1  0.189800  0.557900  0.414500  1.0
  C  C2617  1  0.689800  0.942100  0.085500  1.0
  C  C2618  1  0.689800  0.057900  0.914500  1.0
  C  C2619  1  0.804300  0.541900  0.417400  1.0
  C  C2620  1  0.804300  0.458100  0.582600  1.0
  C  C2621  1  0.304300  0.041900  0.917400  1.0
  C  C2622  1  0.304300  0.958100  0.082600  1.0
  C  C2623  1  0.195700  0.458100  0.582600  1.0
  C  C2624  1  0.195700  0.541900  0.417400  1.0
  C  C2625  1  0.695700  0.958100  0.082600  1.0
  C  C2626  1  0.695700  0.041900  0.917400  1.0
  C  C2627  1  0.782800  0.585000  0.545300  1.0
  C  C2628  1  0.782800  0.415000  0.454700  1.0
  C  C2629  1  0.282800  0.085000  0.045300  1.0
  C  C2630  1  0.282800  0.915000  0.954700  1.0
  C  C2631  1  0.217200  0.415000  0.454700  1.0
  C  C2632  1  0.217200  0.585000  0.545300  1.0
  C  C2633  1  0.717200  0.915000  0.954700  1.0
  C  C2634  1  0.717200  0.085000  0.045300  1.0
  C  C2635  1  0.796000  0.578000  0.552500  1.0
  C  C2636  1  0.796000  0.422000  0.447500  1.0
  C  C2637  1  0.296000  0.078000  0.052500  1.0
  C  C2638  1  0.296000  0.922000  0.947500  1.0
  C  C2639  1  0.204000  0.422000  0.447500  1.0
  C  C2640  1  0.204000  0.578000  0.552500  1.0
  C  C2641  1  0.704000  0.922000  0.947500  1.0
  C  C2642  1  0.704000  0.078000  0.052500  1.0
  C  C2643  1  0.811400  0.587200  0.555000  1.0
  C  C2644  1  0.811400  0.412800  0.445000  1.0
  C  C2645  1  0.311400  0.087200  0.055000  1.0
  C  C2646  1  0.311400  0.912800  0.945000  1.0
  C  C2647  1  0.188600  0.412800  0.445000  1.0
  C  C2648  1  0.188600  0.587200  0.555000  1.0
  C  C2649  1  0.688600  0.912800  0.945000  1.0
  C  C2650  1  0.688600  0.087200  0.055000  1.0
  C  C2651  1  0.813000  0.602600  0.549500  1.0
  C  C2652  1  0.813000  0.397400  0.450500  1.0
  C  C2653  1  0.313000  0.102600  0.049500  1.0
  C  C2654  1  0.313000  0.897400  0.950500  1.0
  C  C2655  1  0.187000  0.397400  0.450500  1.0
  C  C2656  1  0.187000  0.602600  0.549500  1.0
  C  C2657  1  0.687000  0.897400  0.950500  1.0
  C  C2658  1  0.687000  0.102600  0.049500  1.0
  C  C2659  1  0.798900  0.609300  0.542900  1.0
  C  C2660  1  0.798900  0.390700  0.457100  1.0
  C  C2661  1  0.298900  0.109300  0.042900  1.0
  C  C2662  1  0.298900  0.890700  0.957100  1.0
  C  C2663  1  0.201100  0.390700  0.457100  1.0
  C  C2664  1  0.201100  0.609300  0.542900  1.0
  C  C2665  1  0.701100  0.890700  0.957100  1.0
  C  C2666  1  0.701100  0.109300  0.042900  1.0
  C  C2667  1  0.824100  0.582300  0.564200  1.0
  C  C2668  1  0.824100  0.417700  0.435800  1.0
  C  C2669  1  0.324100  0.082300  0.064200  1.0
  C  C2670  1  0.324100  0.917700  0.935800  1.0
  C  C2671  1  0.175900  0.417700  0.435800  1.0
  C  C2672  1  0.175900  0.582300  0.564200  1.0
  C  C2673  1  0.675900  0.917700  0.935800  1.0
  C  C2674  1  0.675900  0.082300  0.064200  1.0
  C  C2675  1  0.838300  0.572100  0.559000  1.0
  C  C2676  1  0.838300  0.427900  0.441000  1.0
  C  C2677  1  0.338300  0.072100  0.059000  1.0
  C  C2678  1  0.338300  0.927900  0.941000  1.0
  C  C2679  1  0.161700  0.427900  0.441000  1.0
  C  C2680  1  0.161700  0.572100  0.559000  1.0
  C  C2681  1  0.661700  0.927900  0.941000  1.0
  C  C2682  1  0.661700  0.072100  0.059000  1.0
  C  C2683  1  0.851200  0.566800  0.567400  1.0
  C  C2684  1  0.851200  0.433200  0.432600  1.0
  C  C2685  1  0.351200  0.066800  0.067400  1.0
  C  C2686  1  0.351200  0.933200  0.932600  1.0
  C  C2687  1  0.148800  0.433200  0.432600  1.0
  C  C2688  1  0.148800  0.566800  0.567400  1.0
  C  C2689  1  0.648800  0.933200  0.932600  1.0
  C  C2690  1  0.648800  0.066800  0.067400  1.0
  C  C2691  1  0.849800  0.571400  0.581000  1.0
  C  C2692  1  0.849800  0.428600  0.419000  1.0
  C  C2693  1  0.349800  0.071400  0.081000  1.0
  C  C2694  1  0.349800  0.928600  0.919000  1.0
  C  C2695  1  0.150200  0.428600  0.419000  1.0
  C  C2696  1  0.150200  0.571400  0.581000  1.0
  C  C2697  1  0.650200  0.928600  0.919000  1.0
  C  C2698  1  0.650200  0.071400  0.081000  1.0
  C  C2699  1  0.836000  0.582400  0.586300  1.0
  C  C2700  1  0.836000  0.417600  0.413700  1.0
  C  C2701  1  0.336000  0.082400  0.086300  1.0
  C  C2702  1  0.336000  0.917600  0.913700  1.0
  C  C2703  1  0.164000  0.417600  0.413700  1.0
  C  C2704  1  0.164000  0.582400  0.586300  1.0
  C  C2705  1  0.664000  0.917600  0.913700  1.0
  C  C2706  1  0.664000  0.082400  0.086300  1.0
  C  C2707  1  0.822800  0.587300  0.578000  1.0
  C  C2708  1  0.822800  0.412700  0.422000  1.0
  C  C2709  1  0.322800  0.087300  0.078000  1.0
  C  C2710  1  0.322800  0.912700  0.922000  1.0
  C  C2711  1  0.177200  0.412700  0.422000  1.0
  C  C2712  1  0.177200  0.587300  0.578000  1.0
  C  C2713  1  0.677200  0.912700  0.922000  1.0
  C  C2714  1  0.677200  0.087300  0.078000  1.0
  C  C2715  1  0.840400  0.566900  0.545100  1.0
  C  C2716  1  0.840400  0.433100  0.454900  1.0
  C  C2717  1  0.340400  0.066900  0.045100  1.0
  C  C2718  1  0.340400  0.933100  0.954900  1.0
  C  C2719  1  0.159600  0.433100  0.454900  1.0
  C  C2720  1  0.159600  0.566900  0.545100  1.0
  C  C2721  1  0.659600  0.933100  0.954900  1.0
  C  C2722  1  0.659600  0.066900  0.045100  1.0
  C  C2723  1  0.865000  0.556000  0.561000  1.0
  C  C2724  1  0.865000  0.444000  0.439000  1.0
  C  C2725  1  0.365000  0.056000  0.061000  1.0
  C  C2726  1  0.365000  0.944000  0.939000  1.0
  C  C2727  1  0.135000  0.444000  0.439000  1.0
  C  C2728  1  0.135000  0.556000  0.561000  1.0
  C  C2729  1  0.635000  0.944000  0.939000  1.0
  C  C2730  1  0.635000  0.056000  0.061000  1.0
  C  C2731  1  0.836300  0.586500  0.600500  1.0
  C  C2732  1  0.836300  0.413500  0.399500  1.0
  C  C2733  1  0.336300  0.086500  0.100500  1.0
  C  C2734  1  0.336300  0.913500  0.899500  1.0
  C  C2735  1  0.163700  0.413500  0.399500  1.0
  C  C2736  1  0.163700  0.586500  0.600500  1.0
  C  C2737  1  0.663700  0.913500  0.899500  1.0
  C  C2738  1  0.663700  0.086500  0.100500  1.0
  C  C2739  1  0.807900  0.597500  0.583600  1.0
  C  C2740  1  0.807900  0.402500  0.416400  1.0
  C  C2741  1  0.307900  0.097500  0.083600  1.0
  C  C2742  1  0.307900  0.902500  0.916400  1.0
  C  C2743  1  0.192100  0.402500  0.416400  1.0
  C  C2744  1  0.192100  0.597500  0.583600  1.0
  C  C2745  1  0.692100  0.902500  0.916400  1.0
  C  C2746  1  0.692100  0.097500  0.083600  1.0
  C  C2747  1  0.863600  0.569000  0.590100  1.0
  C  C2748  1  0.863600  0.431000  0.409900  1.0
  C  C2749  1  0.363600  0.069000  0.090100  1.0
  C  C2750  1  0.363600  0.931000  0.909900  1.0
  C  C2751  1  0.136400  0.431000  0.409900  1.0
  C  C2752  1  0.136400  0.569000  0.590100  1.0
  C  C2753  1  0.636400  0.931000  0.909900  1.0
  C  C2754  1  0.636400  0.069000  0.090100  1.0
  C  C2755  1  0.864500  0.554400  0.596700  1.0
  C  C2756  1  0.864500  0.445600  0.403300  1.0
  C  C2757  1  0.364500  0.054400  0.096700  1.0
  C  C2758  1  0.364500  0.945600  0.903300  1.0
  C  C2759  1  0.135500  0.445600  0.403300  1.0
  C  C2760  1  0.135500  0.554400  0.596700  1.0
  C  C2761  1  0.635500  0.945600  0.903300  1.0
  C  C2762  1  0.635500  0.054400  0.096700  1.0
  C  C2763  1  0.974700  0.585200  0.647300  1.0
  C  C2764  1  0.974700  0.414800  0.352700  1.0
  C  C2765  1  0.474700  0.085200  0.147300  1.0
  C  C2766  1  0.474700  0.914800  0.852700  1.0
  C  C2767  1  0.025300  0.414800  0.352700  1.0
  C  C2768  1  0.025300  0.585200  0.647300  1.0
  C  C2769  1  0.525300  0.914800  0.852700  1.0
  C  C2770  1  0.525300  0.085200  0.147300  1.0
  C  C2771  1  0.960700  0.579100  0.638700  1.0
  C  C2772  1  0.960700  0.420900  0.361300  1.0
  C  C2773  1  0.460700  0.079100  0.138700  1.0
  C  C2774  1  0.460700  0.920900  0.861300  1.0
  C  C2775  1  0.039300  0.420900  0.361300  1.0
  C  C2776  1  0.039300  0.579100  0.638700  1.0
  C  C2777  1  0.539300  0.920900  0.861300  1.0
  C  C2778  1  0.539300  0.079100  0.138700  1.0
  C  C2779  1  0.954300  0.588600  0.629300  1.0
  C  C2780  1  0.954300  0.411400  0.370700  1.0
  C  C2781  1  0.454300  0.088600  0.129300  1.0
  C  C2782  1  0.454300  0.911400  0.870700  1.0
  C  C2783  1  0.045700  0.411400  0.370700  1.0
  C  C2784  1  0.045700  0.588600  0.629300  1.0
  C  C2785  1  0.545700  0.911400  0.870700  1.0
  C  C2786  1  0.545700  0.088600  0.129300  1.0
  C  C2787  1  0.963400  0.603700  0.627500  1.0
  C  C2788  1  0.963400  0.396300  0.372500  1.0
  C  C2789  1  0.463400  0.103700  0.127500  1.0
  C  C2790  1  0.463400  0.896300  0.872500  1.0
  C  C2791  1  0.036600  0.396300  0.372500  1.0
  C  C2792  1  0.036600  0.603700  0.627500  1.0
  C  C2793  1  0.536600  0.896300  0.872500  1.0
  C  C2794  1  0.536600  0.103700  0.127500  1.0
  C  C2795  1  0.976700  0.609300  0.636500  1.0
  C  C2796  1  0.976700  0.390700  0.363500  1.0
  C  C2797  1  0.476700  0.109300  0.136500  1.0
  C  C2798  1  0.476700  0.890700  0.863500  1.0
  C  C2799  1  0.023300  0.390700  0.363500  1.0
  C  C2800  1  0.023300  0.609300  0.636500  1.0
  C  C2801  1  0.523300  0.890700  0.863500  1.0
  C  C2802  1  0.523300  0.109300  0.136500  1.0
  C  C2803  1  0.937700  0.584700  0.622900  1.0
  C  C2804  1  0.937700  0.415300  0.377100  1.0
  C  C2805  1  0.437700  0.084700  0.122900  1.0
  C  C2806  1  0.437700  0.915300  0.877100  1.0
  C  C2807  1  0.062300  0.415300  0.377100  1.0
  C  C2808  1  0.062300  0.584700  0.622900  1.0
  C  C2809  1  0.562300  0.915300  0.877100  1.0
  C  C2810  1  0.562300  0.084700  0.122900  1.0
  C  C2811  1  0.921500  0.588100  0.629100  1.0
  C  C2812  1  0.921500  0.411900  0.370900  1.0
  C  C2813  1  0.421500  0.088100  0.129100  1.0
  C  C2814  1  0.421500  0.911900  0.870900  1.0
  C  C2815  1  0.078500  0.411900  0.370900  1.0
  C  C2816  1  0.078500  0.588100  0.629100  1.0
  C  C2817  1  0.578500  0.911900  0.870900  1.0
  C  C2818  1  0.578500  0.088100  0.129100  1.0
  C  C2819  1  0.905900  0.582200  0.622800  1.0
  C  C2820  1  0.905900  0.417800  0.377200  1.0
  C  C2821  1  0.405900  0.082200  0.122800  1.0
  C  C2822  1  0.405900  0.917800  0.877200  1.0
  C  C2823  1  0.094100  0.417800  0.377200  1.0
  C  C2824  1  0.094100  0.582200  0.622800  1.0
  C  C2825  1  0.594100  0.917800  0.877200  1.0
  C  C2826  1  0.594100  0.082200  0.122800  1.0
  C  C2827  1  0.906500  0.571700  0.610500  1.0
  C  C2828  1  0.906500  0.428300  0.389500  1.0
  C  C2829  1  0.406500  0.071700  0.110500  1.0
  C  C2830  1  0.406500  0.928300  0.889500  1.0
  C  C2831  1  0.093500  0.428300  0.389500  1.0
  C  C2832  1  0.093500  0.571700  0.610500  1.0
  C  C2833  1  0.593500  0.928300  0.889500  1.0
  C  C2834  1  0.593500  0.071700  0.110500  1.0
  C  C2835  1  0.922400  0.570400  0.603600  1.0
  C  C2836  1  0.922400  0.429600  0.396400  1.0
  C  C2837  1  0.422400  0.070400  0.103600  1.0
  C  C2838  1  0.422400  0.929600  0.896400  1.0
  C  C2839  1  0.077600  0.429600  0.396400  1.0
  C  C2840  1  0.077600  0.570400  0.603600  1.0
  C  C2841  1  0.577600  0.929600  0.896400  1.0
  C  C2842  1  0.577600  0.070400  0.103600  1.0
  C  C2843  1  0.938000  0.575500  0.610000  1.0
  C  C2844  1  0.938000  0.424500  0.390000  1.0
  C  C2845  1  0.438000  0.075500  0.110000  1.0
  C  C2846  1  0.438000  0.924500  0.890000  1.0
  C  C2847  1  0.062000  0.424500  0.390000  1.0
  C  C2848  1  0.062000  0.575500  0.610000  1.0
  C  C2849  1  0.562000  0.924500  0.890000  1.0
  C  C2850  1  0.562000  0.075500  0.110000  1.0
  C  C2851  1  0.920600  0.598300  0.642000  1.0
  C  C2852  1  0.920600  0.401700  0.358000  1.0
  C  C2853  1  0.420600  0.098300  0.142000  1.0
  C  C2854  1  0.420600  0.901700  0.858000  1.0
  C  C2855  1  0.079400  0.401700  0.358000  1.0
  C  C2856  1  0.079400  0.598300  0.642000  1.0
  C  C2857  1  0.579400  0.901700  0.858000  1.0
  C  C2858  1  0.579400  0.098300  0.142000  1.0
  C  C2859  1  0.889100  0.585000  0.629100  1.0
  C  C2860  1  0.889100  0.415000  0.370900  1.0
  C  C2861  1  0.389100  0.085000  0.129100  1.0
  C  C2862  1  0.389100  0.915000  0.870900  1.0
  C  C2863  1  0.110900  0.415000  0.370900  1.0
  C  C2864  1  0.110900  0.585000  0.629100  1.0
  C  C2865  1  0.610900  0.915000  0.870900  1.0
  C  C2866  1  0.610900  0.085000  0.129100  1.0
  C  C2867  1  0.922300  0.560500  0.590600  1.0
  C  C2868  1  0.922300  0.439500  0.409400  1.0
  C  C2869  1  0.422300  0.060500  0.090600  1.0
  C  C2870  1  0.422300  0.939500  0.909400  1.0
  C  C2871  1  0.077700  0.439500  0.409400  1.0
  C  C2872  1  0.077700  0.560500  0.590600  1.0
  C  C2873  1  0.577700  0.939500  0.909400  1.0
  C  C2874  1  0.577700  0.060500  0.090600  1.0
  C  C2875  1  0.954600  0.570500  0.603800  1.0
  C  C2876  1  0.954600  0.429500  0.396200  1.0
  C  C2877  1  0.454600  0.070500  0.103800  1.0
  C  C2878  1  0.454600  0.929500  0.896200  1.0
  C  C2879  1  0.045400  0.429500  0.396200  1.0
  C  C2880  1  0.045400  0.570500  0.603800  1.0
  C  C2881  1  0.545400  0.929500  0.896200  1.0
  C  C2882  1  0.545400  0.070500  0.103800  1.0
  C  C2883  1  0.890900  0.567700  0.602900  1.0
  C  C2884  1  0.890900  0.432300  0.397100  1.0
  C  C2885  1  0.390900  0.067700  0.102900  1.0
  C  C2886  1  0.390900  0.932300  0.897100  1.0
  C  C2887  1  0.109100  0.432300  0.397100  1.0
  C  C2888  1  0.109100  0.567700  0.602900  1.0
  C  C2889  1  0.609100  0.932300  0.897100  1.0
  C  C2890  1  0.609100  0.067700  0.102900  1.0
  C  C2891  1  0.880100  0.553500  0.603800  1.0
  C  C2892  1  0.880100  0.446500  0.396200  1.0
  C  C2893  1  0.380100  0.053500  0.103800  1.0
  C  C2894  1  0.380100  0.946500  0.896200  1.0
  C  C2895  1  0.119900  0.446500  0.396200  1.0
  C  C2896  1  0.119900  0.553500  0.603800  1.0
  C  C2897  1  0.619900  0.946500  0.896200  1.0
  C  C2898  1  0.619900  0.053500  0.103800  1.0
  C  C2899  1  0.750000  0.609300  0.555700  1.0
  C  C2900  1  0.750000  0.390700  0.444300  1.0
  C  C2901  1  0.250000  0.109300  0.055700  1.0
  C  C2902  1  0.250000  0.890700  0.944300  1.0
  C  C2903  1  0.250000  0.390700  0.444300  1.0
  C  C2904  1  0.250000  0.609300  0.555700  1.0
  C  C2905  1  0.750000  0.890700  0.944300  1.0
  C  C2906  1  0.750000  0.109300  0.055700  1.0
  C  C2907  1  0.745300  0.617200  0.568400  1.0
  C  C2908  1  0.745300  0.382800  0.431600  1.0
  C  C2909  1  0.245300  0.117200  0.068400  1.0
  C  C2910  1  0.245300  0.882800  0.931600  1.0
  C  C2911  1  0.254700  0.382800  0.431600  1.0
  C  C2912  1  0.254700  0.617200  0.568400  1.0
  C  C2913  1  0.754700  0.882800  0.931600  1.0
  C  C2914  1  0.754700  0.117200  0.068400  1.0
  C  C2915  1  0.751200  0.634100  0.572900  1.0
  C  C2916  1  0.751200  0.365900  0.427100  1.0
  C  C2917  1  0.251200  0.134100  0.072900  1.0
  C  C2918  1  0.251200  0.865900  0.927100  1.0
  C  C2919  1  0.248800  0.365900  0.427100  1.0
  C  C2920  1  0.248800  0.634100  0.572900  1.0
  C  C2921  1  0.748800  0.865900  0.927100  1.0
  C  C2922  1  0.748800  0.134100  0.072900  1.0
  C  C2923  1  0.761300  0.642400  0.564400  1.0
  C  C2924  1  0.761300  0.357600  0.435600  1.0
  C  C2925  1  0.261300  0.142400  0.064400  1.0
  C  C2926  1  0.261300  0.857600  0.935600  1.0
  C  C2927  1  0.238700  0.357600  0.435600  1.0
  C  C2928  1  0.238700  0.642400  0.564400  1.0
  C  C2929  1  0.738700  0.857600  0.935600  1.0
  C  C2930  1  0.738700  0.142400  0.064400  1.0
  C  C2931  1  0.767000  0.632800  0.552400  1.0
  C  C2932  1  0.767000  0.367200  0.447600  1.0
  C  C2933  1  0.267000  0.132800  0.052400  1.0
  C  C2934  1  0.267000  0.867200  0.947600  1.0
  C  C2935  1  0.233000  0.367200  0.447600  1.0
  C  C2936  1  0.233000  0.632800  0.552400  1.0
  C  C2937  1  0.733000  0.867200  0.947600  1.0
  C  C2938  1  0.733000  0.132800  0.052400  1.0
  C  C2939  1  0.748600  0.641600  0.586500  1.0
  C  C2940  1  0.748600  0.358400  0.413500  1.0
  C  C2941  1  0.248600  0.141600  0.086500  1.0
  C  C2942  1  0.248600  0.858400  0.913500  1.0
  C  C2943  1  0.251400  0.358400  0.413500  1.0
  C  C2944  1  0.251400  0.641600  0.586500  1.0
  C  C2945  1  0.751400  0.858400  0.913500  1.0
  C  C2946  1  0.751400  0.141600  0.086500  1.0
  C  C2947  1  0.760000  0.637700  0.596400  1.0
  C  C2948  1  0.760000  0.362300  0.403600  1.0
  C  C2949  1  0.260000  0.137700  0.096400  1.0
  C  C2950  1  0.260000  0.862300  0.903600  1.0
  C  C2951  1  0.240000  0.362300  0.403600  1.0
  C  C2952  1  0.240000  0.637700  0.596400  1.0
  C  C2953  1  0.740000  0.862300  0.903600  1.0
  C  C2954  1  0.740000  0.137700  0.096400  1.0
  C  C2955  1  0.757500  0.645800  0.609400  1.0
  C  C2956  1  0.757500  0.354200  0.390600  1.0
  C  C2957  1  0.257500  0.145800  0.109400  1.0
  C  C2958  1  0.257500  0.854200  0.890600  1.0
  C  C2959  1  0.242500  0.354200  0.390600  1.0
  C  C2960  1  0.242500  0.645800  0.609400  1.0
  C  C2961  1  0.742500  0.854200  0.890600  1.0
  C  C2962  1  0.742500  0.145800  0.109400  1.0
  C  C2963  1  0.742700  0.656200  0.612500  1.0
  C  C2964  1  0.742700  0.343800  0.387500  1.0
  C  C2965  1  0.242700  0.156200  0.112500  1.0
  C  C2966  1  0.242700  0.843800  0.887500  1.0
  C  C2967  1  0.257300  0.343800  0.387500  1.0
  C  C2968  1  0.257300  0.656200  0.612500  1.0
  C  C2969  1  0.757300  0.843800  0.887500  1.0
  C  C2970  1  0.757300  0.156200  0.112500  1.0
  C  C2971  1  0.732300  0.661600  0.602600  1.0
  C  C2972  1  0.732300  0.338400  0.397400  1.0
  C  C2973  1  0.232300  0.161600  0.102600  1.0
  C  C2974  1  0.232300  0.838400  0.897400  1.0
  C  C2975  1  0.267700  0.338400  0.397400  1.0
  C  C2976  1  0.267700  0.661600  0.602600  1.0
  C  C2977  1  0.767700  0.838400  0.897400  1.0
  C  C2978  1  0.767700  0.161600  0.102600  1.0
  C  C2979  1  0.734700  0.653400  0.589700  1.0
  C  C2980  1  0.734700  0.346600  0.410300  1.0
  C  C2981  1  0.234700  0.153400  0.089700  1.0
  C  C2982  1  0.234700  0.846600  0.910300  1.0
  C  C2983  1  0.265300  0.346600  0.410300  1.0
  C  C2984  1  0.265300  0.653400  0.589700  1.0
  C  C2985  1  0.765300  0.846600  0.910300  1.0
  C  C2986  1  0.765300  0.153400  0.089700  1.0
  C  C2987  1  0.774300  0.625300  0.593800  1.0
  C  C2988  1  0.774300  0.374700  0.406200  1.0
  C  C2989  1  0.274300  0.125300  0.093800  1.0
  C  C2990  1  0.274300  0.874700  0.906200  1.0
  C  C2991  1  0.225700  0.374700  0.406200  1.0
  C  C2992  1  0.225700  0.625300  0.593800  1.0
  C  C2993  1  0.725700  0.874700  0.906200  1.0
  C  C2994  1  0.725700  0.125300  0.093800  1.0
  C  C2995  1  0.768800  0.643600  0.620300  1.0
  C  C2996  1  0.768800  0.356400  0.379700  1.0
  C  C2997  1  0.268800  0.143600  0.120300  1.0
  C  C2998  1  0.268800  0.856400  0.879700  1.0
  C  C2999  1  0.231200  0.356400  0.379700  1.0
  C  C3000  1  0.231200  0.643600  0.620300  1.0
  C  C3001  1  0.731200  0.856400  0.879700  1.0
  C  C3002  1  0.731200  0.143600  0.120300  1.0
  C  C3003  1  0.718500  0.674000  0.606500  1.0
  C  C3004  1  0.718500  0.326000  0.393500  1.0
  C  C3005  1  0.218500  0.174000  0.106500  1.0
  C  C3006  1  0.218500  0.826000  0.893500  1.0
  C  C3007  1  0.281500  0.326000  0.393500  1.0
  C  C3008  1  0.281500  0.674000  0.606500  1.0
  C  C3009  1  0.781500  0.826000  0.893500  1.0
  C  C3010  1  0.781500  0.174000  0.106500  1.0
  C  C3011  1  0.722900  0.657300  0.579500  1.0
  C  C3012  1  0.722900  0.342700  0.420500  1.0
  C  C3013  1  0.222900  0.157300  0.079500  1.0
  C  C3014  1  0.222900  0.842700  0.920500  1.0
  C  C3015  1  0.277100  0.342700  0.420500  1.0
  C  C3016  1  0.277100  0.657300  0.579500  1.0
  C  C3017  1  0.777100  0.842700  0.920500  1.0
  C  C3018  1  0.777100  0.157300  0.079500  1.0
  C  C3019  1  0.741400  0.664500  0.625800  1.0
  C  C3020  1  0.741400  0.335500  0.374200  1.0
  C  C3021  1  0.241400  0.164500  0.125800  1.0
  C  C3022  1  0.241400  0.835500  0.874200  1.0
  C  C3023  1  0.258600  0.335500  0.374200  1.0
  C  C3024  1  0.258600  0.664500  0.625800  1.0
  C  C3025  1  0.758600  0.835500  0.874200  1.0
  C  C3026  1  0.758600  0.164500  0.125800  1.0
  C  C3027  1  0.730600  0.658800  0.635200  1.0
  C  C3028  1  0.730600  0.341200  0.364800  1.0
  C  C3029  1  0.230600  0.158800  0.135200  1.0
  C  C3030  1  0.230600  0.841200  0.864800  1.0
  C  C3031  1  0.269400  0.341200  0.364800  1.0
  C  C3032  1  0.269400  0.658800  0.635200  1.0
  C  C3033  1  0.769400  0.841200  0.864800  1.0
  C  C3034  1  0.769400  0.158800  0.135200  1.0
  C  C3035  1  0.759000  0.749100  0.711400  1.0
  C  C3036  1  0.759000  0.250900  0.288600  1.0
  C  C3037  1  0.259000  0.249100  0.211400  1.0
  C  C3038  1  0.259000  0.750900  0.788600  1.0
  C  C3039  1  0.241000  0.250900  0.288600  1.0
  C  C3040  1  0.241000  0.749100  0.711400  1.0
  C  C3041  1  0.741000  0.750900  0.788600  1.0
  C  C3042  1  0.741000  0.249100  0.211400  1.0
  C  C3043  1  0.752800  0.735900  0.701500  1.0
  C  C3044  1  0.752800  0.264100  0.298500  1.0
  C  C3045  1  0.252800  0.235900  0.201500  1.0
  C  C3046  1  0.252800  0.764100  0.798500  1.0
  C  C3047  1  0.247200  0.264100  0.298500  1.0
  C  C3048  1  0.247200  0.735900  0.701500  1.0
  C  C3049  1  0.747200  0.764100  0.798500  1.0
  C  C3050  1  0.747200  0.235900  0.201500  1.0
  C  C3051  1  0.758100  0.736800  0.688700  1.0
  C  C3052  1  0.758100  0.263200  0.311300  1.0
  C  C3053  1  0.258100  0.236800  0.188700  1.0
  C  C3054  1  0.258100  0.763200  0.811300  1.0
  C  C3055  1  0.241900  0.263200  0.311300  1.0
  C  C3056  1  0.241900  0.736800  0.688700  1.0
  C  C3057  1  0.741900  0.763200  0.811300  1.0
  C  C3058  1  0.741900  0.236800  0.188700  1.0
  C  C3059  1  0.768400  0.750700  0.686900  1.0
  C  C3060  1  0.768400  0.249300  0.313100  1.0
  C  C3061  1  0.268400  0.250700  0.186900  1.0
  C  C3062  1  0.268400  0.749300  0.813100  1.0
  C  C3063  1  0.231600  0.249300  0.313100  1.0
  C  C3064  1  0.231600  0.750700  0.686900  1.0
  C  C3065  1  0.731600  0.749300  0.813100  1.0
  C  C3066  1  0.731600  0.250700  0.186900  1.0
  C  C3067  1  0.776200  0.761700  0.697500  1.0
  C  C3068  1  0.776200  0.238300  0.302500  1.0
  C  C3069  1  0.276200  0.261700  0.197500  1.0
  C  C3070  1  0.276200  0.738300  0.802500  1.0
  C  C3071  1  0.223800  0.238300  0.302500  1.0
  C  C3072  1  0.223800  0.761700  0.697500  1.0
  C  C3073  1  0.723800  0.738300  0.802500  1.0
  C  C3074  1  0.723800  0.261700  0.197500  1.0
  C  C3075  1  0.754800  0.722700  0.678100  1.0
  C  C3076  1  0.754800  0.277300  0.321900  1.0
  C  C3077  1  0.254800  0.222700  0.178100  1.0
  C  C3078  1  0.254800  0.777300  0.821900  1.0
  C  C3079  1  0.245200  0.277300  0.321900  1.0
  C  C3080  1  0.245200  0.722700  0.678100  1.0
  C  C3081  1  0.745200  0.777300  0.821900  1.0
  C  C3082  1  0.745200  0.222700  0.178100  1.0
  C  C3083  1  0.739900  0.723900  0.670500  1.0
  C  C3084  1  0.739900  0.276100  0.329500  1.0
  C  C3085  1  0.239900  0.223900  0.170500  1.0
  C  C3086  1  0.239900  0.776100  0.829500  1.0
  C  C3087  1  0.260100  0.276100  0.329500  1.0
  C  C3088  1  0.260100  0.723900  0.670500  1.0
  C  C3089  1  0.760100  0.776100  0.829500  1.0
  C  C3090  1  0.760100  0.223900  0.170500  1.0
  C  C3091  1  0.735500  0.710600  0.660500  1.0
  C  C3092  1  0.735500  0.289400  0.339500  1.0
  C  C3093  1  0.235500  0.210600  0.160500  1.0
  C  C3094  1  0.235500  0.789400  0.839500  1.0
  C  C3095  1  0.264500  0.289400  0.339500  1.0
  C  C3096  1  0.264500  0.710600  0.660500  1.0
  C  C3097  1  0.764500  0.789400  0.839500  1.0
  C  C3098  1  0.764500  0.210600  0.160500  1.0
  C  C3099  1  0.746700  0.696100  0.658200  1.0
  C  C3100  1  0.746700  0.303900  0.341800  1.0
  C  C3101  1  0.246700  0.196100  0.158200  1.0
  C  C3102  1  0.246700  0.803900  0.841800  1.0
  C  C3103  1  0.253300  0.303900  0.341800  1.0
  C  C3104  1  0.253300  0.696100  0.658200  1.0
  C  C3105  1  0.753300  0.803900  0.841800  1.0
  C  C3106  1  0.753300  0.196100  0.158200  1.0
  C  C3107  1  0.761500  0.694600  0.665700  1.0
  C  C3108  1  0.761500  0.305400  0.334300  1.0
  C  C3109  1  0.261500  0.194600  0.165700  1.0
  C  C3110  1  0.261500  0.805400  0.834300  1.0
  C  C3111  1  0.238500  0.305400  0.334300  1.0
  C  C3112  1  0.238500  0.694600  0.665700  1.0
  C  C3113  1  0.738500  0.805400  0.834300  1.0
  C  C3114  1  0.738500  0.194600  0.165700  1.0
  C  C3115  1  0.765300  0.707900  0.676000  1.0
  C  C3116  1  0.765300  0.292100  0.324000  1.0
  C  C3117  1  0.265300  0.207900  0.176000  1.0
  C  C3118  1  0.265300  0.792100  0.824000  1.0
  C  C3119  1  0.234700  0.292100  0.324000  1.0
  C  C3120  1  0.234700  0.707900  0.676000  1.0
  C  C3121  1  0.734700  0.792100  0.824000  1.0
  C  C3122  1  0.734700  0.207900  0.176000  1.0
  C  C3123  1  0.729800  0.739600  0.673900  1.0
  C  C3124  1  0.729800  0.260400  0.326100  1.0
  C  C3125  1  0.229800  0.239600  0.173900  1.0
  C  C3126  1  0.229800  0.760400  0.826100  1.0
  C  C3127  1  0.270200  0.260400  0.326100  1.0
  C  C3128  1  0.270200  0.739600  0.673900  1.0
  C  C3129  1  0.770200  0.760400  0.826100  1.0
  C  C3130  1  0.770200  0.239600  0.173900  1.0
  C  C3131  1  0.720100  0.709900  0.652300  1.0
  C  C3132  1  0.720100  0.290100  0.347700  1.0
  C  C3133  1  0.220100  0.209900  0.152300  1.0
  C  C3134  1  0.220100  0.790100  0.847700  1.0
  C  C3135  1  0.279900  0.290100  0.347700  1.0
  C  C3136  1  0.279900  0.709900  0.652300  1.0
  C  C3137  1  0.779900  0.790100  0.847700  1.0
  C  C3138  1  0.779900  0.209900  0.152300  1.0
  C  C3139  1  0.772400  0.679100  0.663400  1.0
  C  C3140  1  0.772400  0.320900  0.336600  1.0
  C  C3141  1  0.272400  0.179100  0.163400  1.0
  C  C3142  1  0.272400  0.820900  0.836600  1.0
  C  C3143  1  0.227600  0.320900  0.336600  1.0
  C  C3144  1  0.227600  0.679100  0.663400  1.0
  C  C3145  1  0.727600  0.820900  0.836600  1.0
  C  C3146  1  0.727600  0.179100  0.163400  1.0
  C  C3147  1  0.781200  0.706900  0.683500  1.0
  C  C3148  1  0.781200  0.293100  0.316500  1.0
  C  C3149  1  0.281200  0.206900  0.183500  1.0
  C  C3150  1  0.281200  0.793100  0.816500  1.0
  C  C3151  1  0.218800  0.293100  0.316500  1.0
  C  C3152  1  0.218800  0.706900  0.683500  1.0
  C  C3153  1  0.718800  0.793100  0.816500  1.0
  C  C3154  1  0.718800  0.206900  0.183500  1.0
  C  C3155  1  0.742600  0.683800  0.646800  1.0
  C  C3156  1  0.742600  0.316200  0.353200  1.0
  C  C3157  1  0.242600  0.183800  0.146800  1.0
  C  C3158  1  0.242600  0.816200  0.853200  1.0
  C  C3159  1  0.257400  0.316200  0.353200  1.0
  C  C3160  1  0.257400  0.683800  0.646800  1.0
  C  C3161  1  0.757400  0.816200  0.853200  1.0
  C  C3162  1  0.757400  0.183800  0.146800  1.0
  C  C3163  1  0.731200  0.669900  0.647200  1.0
  C  C3164  1  0.731200  0.330100  0.352800  1.0
  C  C3165  1  0.231200  0.169900  0.147200  1.0
  C  C3166  1  0.231200  0.830100  0.852800  1.0
  C  C3167  1  0.268800  0.330100  0.352800  1.0
  C  C3168  1  0.268800  0.669900  0.647200  1.0
  C  C3169  1  0.768800  0.830100  0.852800  1.0
  C  C3170  1  0.768800  0.169900  0.147200  1.0
  C  C3171  1  0.744900  0.790700  0.729600  1.0
  C  C3172  1  0.744900  0.209300  0.270400  1.0
  C  C3173  1  0.244900  0.290700  0.229600  1.0
  C  C3174  1  0.244900  0.709300  0.770400  1.0
  C  C3175  1  0.255100  0.209300  0.270400  1.0
  C  C3176  1  0.255100  0.790700  0.729600  1.0
  C  C3177  1  0.755100  0.709300  0.770400  1.0
  C  C3178  1  0.755100  0.290700  0.229600  1.0
  C  C3179  1  0.731000  0.802700  0.731000  1.0
  C  C3180  1  0.731000  0.197300  0.269000  1.0
  C  C3181  1  0.231000  0.302700  0.231000  1.0
  C  C3182  1  0.231000  0.697300  0.769000  1.0
  C  C3183  1  0.269000  0.197300  0.269000  1.0
  C  C3184  1  0.269000  0.802700  0.731000  1.0
  C  C3185  1  0.769000  0.697300  0.769000  1.0
  C  C3186  1  0.769000  0.302700  0.231000  1.0
  C  C3187  1  0.732300  0.816700  0.723700  1.0
  C  C3188  1  0.732300  0.183300  0.276300  1.0
  C  C3189  1  0.232300  0.316700  0.223700  1.0
  C  C3190  1  0.232300  0.683300  0.776300  1.0
  C  C3191  1  0.267700  0.183300  0.276300  1.0
  C  C3192  1  0.267700  0.816700  0.723700  1.0
  C  C3193  1  0.767700  0.683300  0.776300  1.0
  C  C3194  1  0.767700  0.316700  0.223700  1.0
  C  C3195  1  0.747200  0.816900  0.716400  1.0
  C  C3196  1  0.747200  0.183100  0.283600  1.0
  C  C3197  1  0.247200  0.316900  0.216400  1.0
  C  C3198  1  0.247200  0.683100  0.783600  1.0
  C  C3199  1  0.252800  0.183100  0.283600  1.0
  C  C3200  1  0.252800  0.816900  0.716400  1.0
  C  C3201  1  0.752800  0.683100  0.783600  1.0
  C  C3202  1  0.752800  0.316900  0.216400  1.0
  C  C3203  1  0.761700  0.805800  0.717100  1.0
  C  C3204  1  0.761700  0.194200  0.282900  1.0
  C  C3205  1  0.261700  0.305800  0.217100  1.0
  C  C3206  1  0.261700  0.694200  0.782900  1.0
  C  C3207  1  0.238300  0.194200  0.282900  1.0
  C  C3208  1  0.238300  0.805800  0.717100  1.0
  C  C3209  1  0.738300  0.694200  0.782900  1.0
  C  C3210  1  0.738300  0.305800  0.217100  1.0
  C  C3211  1  0.719100  0.830200  0.724100  1.0
  C  C3212  1  0.719100  0.169800  0.275900  1.0
  C  C3213  1  0.219100  0.330200  0.224100  1.0
  C  C3214  1  0.219100  0.669800  0.775900  1.0
  C  C3215  1  0.280900  0.169800  0.275900  1.0
  C  C3216  1  0.280900  0.830200  0.724100  1.0
  C  C3217  1  0.780900  0.669800  0.775900  1.0
  C  C3218  1  0.780900  0.330200  0.224100  1.0
  C  C3219  1  0.719900  0.844000  0.734500  1.0
  C  C3220  1  0.719900  0.156000  0.265500  1.0
  C  C3221  1  0.219900  0.344000  0.234500  1.0
  C  C3222  1  0.219900  0.656000  0.765500  1.0
  C  C3223  1  0.280100  0.156000  0.265500  1.0
  C  C3224  1  0.280100  0.844000  0.734500  1.0
  C  C3225  1  0.780100  0.656000  0.765500  1.0
  C  C3226  1  0.780100  0.344000  0.234500  1.0
  C  C3227  1  0.707000  0.856800  0.736200  1.0
  C  C3228  1  0.707000  0.143200  0.263800  1.0
  C  C3229  1  0.207000  0.356800  0.236200  1.0
  C  C3230  1  0.207000  0.643200  0.763800  1.0
  C  C3231  1  0.293000  0.143200  0.263800  1.0
  C  C3232  1  0.293000  0.856800  0.736200  1.0
  C  C3233  1  0.793000  0.643200  0.763800  1.0
  C  C3234  1  0.793000  0.356800  0.236200  1.0
  C  C3235  1  0.692600  0.855400  0.727800  1.0
  C  C3236  1  0.692600  0.144600  0.272200  1.0
  C  C3237  1  0.192600  0.355400  0.227800  1.0
  C  C3238  1  0.192600  0.644600  0.772200  1.0
  C  C3239  1  0.307400  0.144600  0.272200  1.0
  C  C3240  1  0.307400  0.855400  0.727800  1.0
  C  C3241  1  0.807400  0.644600  0.772200  1.0
  C  C3242  1  0.807400  0.355400  0.227800  1.0
  C  C3243  1  0.692800  0.843600  0.716300  1.0
  C  C3244  1  0.692800  0.156400  0.283700  1.0
  C  C3245  1  0.192800  0.343600  0.216300  1.0
  C  C3246  1  0.192800  0.656400  0.783700  1.0
  C  C3247  1  0.307200  0.156400  0.283700  1.0
  C  C3248  1  0.307200  0.843600  0.716300  1.0
  C  C3249  1  0.807200  0.656400  0.783700  1.0
  C  C3250  1  0.807200  0.343600  0.216300  1.0
  C  C3251  1  0.704900  0.829800  0.715500  1.0
  C  C3252  1  0.704900  0.170200  0.284500  1.0
  C  C3253  1  0.204900  0.329800  0.215500  1.0
  C  C3254  1  0.204900  0.670200  0.784500  1.0
  C  C3255  1  0.295100  0.170200  0.284500  1.0
  C  C3256  1  0.295100  0.829800  0.715500  1.0
  C  C3257  1  0.795100  0.670200  0.784500  1.0
  C  C3258  1  0.795100  0.329800  0.215500  1.0
  C  C3259  1  0.735100  0.844700  0.743000  1.0
  C  C3260  1  0.735100  0.155300  0.257000  1.0
  C  C3261  1  0.235100  0.344700  0.243000  1.0
  C  C3262  1  0.235100  0.655300  0.757000  1.0
  C  C3263  1  0.264900  0.155300  0.257000  1.0
  C  C3264  1  0.264900  0.844700  0.743000  1.0
  C  C3265  1  0.764900  0.655300  0.757000  1.0
  C  C3266  1  0.764900  0.344700  0.243000  1.0
  C  C3267  1  0.707200  0.871300  0.747000  1.0
  C  C3268  1  0.707200  0.128700  0.253000  1.0
  C  C3269  1  0.207200  0.371300  0.247000  1.0
  C  C3270  1  0.207200  0.628700  0.753000  1.0
  C  C3271  1  0.292800  0.128700  0.253000  1.0
  C  C3272  1  0.292800  0.871300  0.747000  1.0
  C  C3273  1  0.792800  0.628700  0.753000  1.0
  C  C3274  1  0.792800  0.371300  0.247000  1.0
  C  C3275  1  0.676700  0.842300  0.708800  1.0
  C  C3276  1  0.676700  0.157700  0.291200  1.0
  C  C3277  1  0.176700  0.342300  0.208800  1.0
  C  C3278  1  0.176700  0.657700  0.791200  1.0
  C  C3279  1  0.323300  0.157700  0.291200  1.0
  C  C3280  1  0.323300  0.842300  0.708800  1.0
  C  C3281  1  0.823300  0.657700  0.791200  1.0
  C  C3282  1  0.823300  0.342300  0.208800  1.0
  C  C3283  1  0.703100  0.816000  0.704700  1.0
  C  C3284  1  0.703100  0.184000  0.295300  1.0
  C  C3285  1  0.203100  0.316000  0.204700  1.0
  C  C3286  1  0.203100  0.684000  0.795300  1.0
  C  C3287  1  0.296900  0.184000  0.295300  1.0
  C  C3288  1  0.296900  0.816000  0.704700  1.0
  C  C3289  1  0.796900  0.684000  0.795300  1.0
  C  C3290  1  0.796900  0.316000  0.204700  1.0
  C  C3291  1  0.680500  0.869900  0.728800  1.0
  C  C3292  1  0.680500  0.130100  0.271200  1.0
  C  C3293  1  0.180500  0.369900  0.228800  1.0
  C  C3294  1  0.180500  0.630100  0.771200  1.0
  C  C3295  1  0.319500  0.130100  0.271200  1.0
  C  C3296  1  0.319500  0.869900  0.728800  1.0
  C  C3297  1  0.819500  0.630100  0.771200  1.0
  C  C3298  1  0.819500  0.369900  0.228800  1.0
  C  C3299  1  0.664900  0.871100  0.735300  1.0
  C  C3300  1  0.664900  0.128900  0.264700  1.0
  C  C3301  1  0.164900  0.371100  0.235300  1.0
  C  C3302  1  0.164900  0.628900  0.764700  1.0
  C  C3303  1  0.335100  0.128900  0.264700  1.0
  C  C3304  1  0.335100  0.871100  0.735300  1.0
  C  C3305  1  0.835100  0.628900  0.764700  1.0
  C  C3306  1  0.835100  0.371100  0.235300  1.0
  C  C3307  1  0.625800  0.989700  0.717500  1.0
  C  C3308  1  0.625800  0.010300  0.282500  1.0
  C  C3309  1  0.125800  0.489700  0.217500  1.0
  C  C3310  1  0.125800  0.510300  0.782500  1.0
  C  C3311  1  0.374200  0.010300  0.282500  1.0
  C  C3312  1  0.374200  0.989700  0.717500  1.0
  C  C3313  1  0.874200  0.510300  0.782500  1.0
  C  C3314  1  0.874200  0.489700  0.217500  1.0
  C  C3315  1  0.630000  0.972500  0.720100  1.0
  C  C3316  1  0.630000  0.027500  0.279900  1.0
  C  C3317  1  0.130000  0.472500  0.220100  1.0
  C  C3318  1  0.130000  0.527500  0.779900  1.0
  C  C3319  1  0.370000  0.027500  0.279900  1.0
  C  C3320  1  0.370000  0.972500  0.720100  1.0
  C  C3321  1  0.870000  0.527500  0.779900  1.0
  C  C3322  1  0.870000  0.472500  0.220100  1.0
  C  C3323  1  0.645800  0.964700  0.715500  1.0
  C  C3324  1  0.645800  0.035300  0.284500  1.0
  C  C3325  1  0.145800  0.464700  0.215500  1.0
  C  C3326  1  0.145800  0.535300  0.784500  1.0
  C  C3327  1  0.354200  0.035300  0.284500  1.0
  C  C3328  1  0.354200  0.964700  0.715500  1.0
  C  C3329  1  0.854200  0.535300  0.784500  1.0
  C  C3330  1  0.854200  0.464700  0.215500  1.0
  C  C3331  1  0.657100  0.973600  0.708100  1.0
  C  C3332  1  0.657100  0.026400  0.291900  1.0
  C  C3333  1  0.157100  0.473600  0.208100  1.0
  C  C3334  1  0.157100  0.526400  0.791900  1.0
  C  C3335  1  0.342900  0.026400  0.291900  1.0
  C  C3336  1  0.342900  0.973600  0.708100  1.0
  C  C3337  1  0.842900  0.526400  0.791900  1.0
  C  C3338  1  0.842900  0.473600  0.208100  1.0
  C  C3339  1  0.652100  0.991000  0.705900  1.0
  C  C3340  1  0.652100  0.009000  0.294100  1.0
  C  C3341  1  0.152100  0.491000  0.205900  1.0
  C  C3342  1  0.152100  0.509000  0.794100  1.0
  C  C3343  1  0.347900  0.009000  0.294100  1.0
  C  C3344  1  0.347900  0.991000  0.705900  1.0
  C  C3345  1  0.847900  0.509000  0.794100  1.0
  C  C3346  1  0.847900  0.491000  0.205900  1.0
  C  C3347  1  0.650300  0.947400  0.718600  1.0
  C  C3348  1  0.650300  0.052600  0.281400  1.0
  C  C3349  1  0.150300  0.447400  0.218600  1.0
  C  C3350  1  0.150300  0.552600  0.781400  1.0
  C  C3351  1  0.349700  0.052600  0.281400  1.0
  C  C3352  1  0.349700  0.947400  0.718600  1.0
  C  C3353  1  0.849700  0.552600  0.781400  1.0
  C  C3354  1  0.849700  0.447400  0.218600  1.0
  C  C3355  1  0.645000  0.932200  0.710500  1.0
  C  C3356  1  0.645000  0.067800  0.289500  1.0
  C  C3357  1  0.145000  0.432200  0.210500  1.0
  C  C3358  1  0.145000  0.567800  0.789500  1.0
  C  C3359  1  0.355000  0.067800  0.289500  1.0
  C  C3360  1  0.355000  0.932200  0.710500  1.0
  C  C3361  1  0.855000  0.567800  0.789500  1.0
  C  C3362  1  0.855000  0.432200  0.210500  1.0
  C  C3363  1  0.649600  0.915500  0.713100  1.0
  C  C3364  1  0.649600  0.084500  0.286900  1.0
  C  C3365  1  0.149600  0.415500  0.213100  1.0
  C  C3366  1  0.149600  0.584500  0.786900  1.0
  C  C3367  1  0.350400  0.084500  0.286900  1.0
  C  C3368  1  0.350400  0.915500  0.713100  1.0
  C  C3369  1  0.850400  0.584500  0.786900  1.0
  C  C3370  1  0.850400  0.415500  0.213100  1.0
  C  C3371  1  0.659300  0.914300  0.724400  1.0
  C  C3372  1  0.659300  0.085700  0.275600  1.0
  C  C3373  1  0.159300  0.414300  0.224400  1.0
  C  C3374  1  0.159300  0.585700  0.775600  1.0
  C  C3375  1  0.340700  0.085700  0.275600  1.0
  C  C3376  1  0.340700  0.914300  0.724400  1.0
  C  C3377  1  0.840700  0.585700  0.775600  1.0
  C  C3378  1  0.840700  0.414300  0.224400  1.0
  C  C3379  1  0.665300  0.929100  0.732400  1.0
  C  C3380  1  0.665300  0.070900  0.267600  1.0
  C  C3381  1  0.165300  0.429100  0.232400  1.0
  C  C3382  1  0.165300  0.570900  0.767600  1.0
  C  C3383  1  0.334700  0.070900  0.267600  1.0
  C  C3384  1  0.334700  0.929100  0.732400  1.0
  C  C3385  1  0.834700  0.570900  0.767600  1.0
  C  C3386  1  0.834700  0.429100  0.232400  1.0
  C  C3387  1  0.660200  0.945800  0.729800  1.0
  C  C3388  1  0.660200  0.054200  0.270200  1.0
  C  C3389  1  0.160200  0.445800  0.229800  1.0
  C  C3390  1  0.160200  0.554200  0.770200  1.0
  C  C3391  1  0.339800  0.054200  0.270200  1.0
  C  C3392  1  0.339800  0.945800  0.729800  1.0
  C  C3393  1  0.839800  0.554200  0.770200  1.0
  C  C3394  1  0.839800  0.445800  0.229800  1.0
  C  C3395  1  0.633600  0.933100  0.699400  1.0
  C  C3396  1  0.633600  0.066900  0.300600  1.0
  C  C3397  1  0.133600  0.433100  0.199400  1.0
  C  C3398  1  0.133600  0.566900  0.800600  1.0
  C  C3399  1  0.366400  0.066900  0.300600  1.0
  C  C3400  1  0.366400  0.933100  0.699400  1.0
  C  C3401  1  0.866400  0.566900  0.800600  1.0
  C  C3402  1  0.866400  0.433100  0.199400  1.0
  C  C3403  1  0.644700  0.899900  0.704200  1.0
  C  C3404  1  0.644700  0.100100  0.295800  1.0
  C  C3405  1  0.144700  0.399900  0.204200  1.0
  C  C3406  1  0.144700  0.600100  0.795800  1.0
  C  C3407  1  0.355300  0.100100  0.295800  1.0
  C  C3408  1  0.355300  0.899900  0.704200  1.0
  C  C3409  1  0.855300  0.600100  0.795800  1.0
  C  C3410  1  0.855300  0.399900  0.204200  1.0
  C  C3411  1  0.675200  0.926600  0.744000  1.0
  C  C3412  1  0.675200  0.073400  0.256000  1.0
  C  C3413  1  0.175200  0.426600  0.244000  1.0
  C  C3414  1  0.175200  0.573400  0.756000  1.0
  C  C3415  1  0.324800  0.073400  0.256000  1.0
  C  C3416  1  0.324800  0.926600  0.744000  1.0
  C  C3417  1  0.824800  0.573400  0.756000  1.0
  C  C3418  1  0.824800  0.426600  0.244000  1.0
  C  C3419  1  0.666900  0.961000  0.738100  1.0
  C  C3420  1  0.666900  0.039000  0.261900  1.0
  C  C3421  1  0.166900  0.461000  0.238100  1.0
  C  C3422  1  0.166900  0.539000  0.761900  1.0
  C  C3423  1  0.333100  0.039000  0.261900  1.0
  C  C3424  1  0.333100  0.961000  0.738100  1.0
  C  C3425  1  0.833100  0.539000  0.761900  1.0
  C  C3426  1  0.833100  0.461000  0.238100  1.0
  C  C3427  1  0.665500  0.897700  0.727400  1.0
  C  C3428  1  0.665500  0.102300  0.272600  1.0
  C  C3429  1  0.165500  0.397700  0.227400  1.0
  C  C3430  1  0.165500  0.602300  0.772600  1.0
  C  C3431  1  0.334500  0.102300  0.272600  1.0
  C  C3432  1  0.334500  0.897700  0.727400  1.0
  C  C3433  1  0.834500  0.602300  0.772600  1.0
  C  C3434  1  0.834500  0.397700  0.227400  1.0
  C  C3435  1  0.656300  0.887100  0.734800  1.0
  C  C3436  1  0.656300  0.112900  0.265200  1.0
  C  C3437  1  0.156300  0.387100  0.234800  1.0
  C  C3438  1  0.156300  0.612900  0.765200  1.0
  C  C3439  1  0.343700  0.112900  0.265200  1.0
  C  C3440  1  0.343700  0.887100  0.734800  1.0
  C  C3441  1  0.843700  0.612900  0.765200  1.0
  C  C3442  1  0.843700  0.387100  0.234800  1.0
  C  C3443  1  0.975700  0.608900  0.677600  1.0
  C  C3444  1  0.975700  0.391100  0.322400  1.0
  C  C3445  1  0.475700  0.108900  0.177600  1.0
  C  C3446  1  0.475700  0.891100  0.822400  1.0
  C  C3447  1  0.024300  0.391100  0.322400  1.0
  C  C3448  1  0.024300  0.608900  0.677600  1.0
  C  C3449  1  0.524300  0.891100  0.822400  1.0
  C  C3450  1  0.524300  0.108900  0.177600  1.0
  C  C3451  1  0.962400  0.618200  0.685100  1.0
  C  C3452  1  0.962400  0.381800  0.314900  1.0
  C  C3453  1  0.462400  0.118200  0.185100  1.0
  C  C3454  1  0.462400  0.881800  0.814900  1.0
  C  C3455  1  0.037600  0.381800  0.314900  1.0
  C  C3456  1  0.037600  0.618200  0.685100  1.0
  C  C3457  1  0.537600  0.881800  0.814900  1.0
  C  C3458  1  0.537600  0.118200  0.185100  1.0
  C  C3459  1  0.956000  0.634300  0.682500  1.0
  C  C3460  1  0.956000  0.365700  0.317500  1.0
  C  C3461  1  0.456000  0.134300  0.182500  1.0
  C  C3462  1  0.456000  0.865700  0.817500  1.0
  C  C3463  1  0.044000  0.365700  0.317500  1.0
  C  C3464  1  0.044000  0.634300  0.682500  1.0
  C  C3465  1  0.544000  0.865700  0.817500  1.0
  C  C3466  1  0.544000  0.134300  0.182500  1.0
  C  C3467  1  0.963200  0.641000  0.671900  1.0
  C  C3468  1  0.963200  0.359000  0.328100  1.0
  C  C3469  1  0.463200  0.141000  0.171900  1.0
  C  C3470  1  0.463200  0.859000  0.828100  1.0
  C  C3471  1  0.036800  0.359000  0.328100  1.0
  C  C3472  1  0.036800  0.641000  0.671900  1.0
  C  C3473  1  0.536800  0.859000  0.828100  1.0
  C  C3474  1  0.536800  0.141000  0.171900  1.0
  C  C3475  1  0.976900  0.631100  0.664900  1.0
  C  C3476  1  0.976900  0.368900  0.335100  1.0
  C  C3477  1  0.476900  0.131100  0.164900  1.0
  C  C3478  1  0.476900  0.868900  0.835100  1.0
  C  C3479  1  0.023100  0.368900  0.335100  1.0
  C  C3480  1  0.023100  0.631100  0.664900  1.0
  C  C3481  1  0.523100  0.868900  0.835100  1.0
  C  C3482  1  0.523100  0.131100  0.164900  1.0
  C  C3483  1  0.941100  0.642200  0.689600  1.0
  C  C3484  1  0.941100  0.357800  0.310400  1.0
  C  C3485  1  0.441100  0.142200  0.189600  1.0
  C  C3486  1  0.441100  0.857800  0.810400  1.0
  C  C3487  1  0.058900  0.357800  0.310400  1.0
  C  C3488  1  0.058900  0.642200  0.689600  1.0
  C  C3489  1  0.558900  0.857800  0.810400  1.0
  C  C3490  1  0.558900  0.142200  0.189600  1.0
  C  C3491  1  0.943500  0.653800  0.701300  1.0
  C  C3492  1  0.943500  0.346200  0.298700  1.0
  C  C3493  1  0.443500  0.153800  0.201300  1.0
  C  C3494  1  0.443500  0.846200  0.798700  1.0
  C  C3495  1  0.056500  0.346200  0.298700  1.0
  C  C3496  1  0.056500  0.653800  0.701300  1.0
  C  C3497  1  0.556500  0.846200  0.798700  1.0
  C  C3498  1  0.556500  0.153800  0.201300  1.0
  C  C3499  1  0.929200  0.660300  0.708700  1.0
  C  C3500  1  0.929200  0.339700  0.291300  1.0
  C  C3501  1  0.429200  0.160300  0.208700  1.0
  C  C3502  1  0.429200  0.839700  0.791300  1.0
  C  C3503  1  0.070800  0.339700  0.291300  1.0
  C  C3504  1  0.070800  0.660300  0.708700  1.0
  C  C3505  1  0.570800  0.839700  0.791300  1.0
  C  C3506  1  0.570800  0.160300  0.208700  1.0
  C  C3507  1  0.912400  0.654800  0.704700  1.0
  C  C3508  1  0.912400  0.345200  0.295300  1.0
  C  C3509  1  0.412400  0.154800  0.204700  1.0
  C  C3510  1  0.412400  0.845200  0.795300  1.0
  C  C3511  1  0.087600  0.345200  0.295300  1.0
  C  C3512  1  0.087600  0.654800  0.704700  1.0
  C  C3513  1  0.587600  0.845200  0.795300  1.0
  C  C3514  1  0.587600  0.154800  0.204700  1.0
  C  C3515  1  0.909800  0.644500  0.692700  1.0
  C  C3516  1  0.909800  0.355500  0.307300  1.0
  C  C3517  1  0.409800  0.144500  0.192700  1.0
  C  C3518  1  0.409800  0.855500  0.807300  1.0
  C  C3519  1  0.090200  0.355500  0.307300  1.0
  C  C3520  1  0.090200  0.644500  0.692700  1.0
  C  C3521  1  0.590200  0.855500  0.807300  1.0
  C  C3522  1  0.590200  0.144500  0.192700  1.0
  C  C3523  1  0.924100  0.637200  0.685400  1.0
  C  C3524  1  0.924100  0.362800  0.314600  1.0
  C  C3525  1  0.424100  0.137200  0.185400  1.0
  C  C3526  1  0.424100  0.862800  0.814600  1.0
  C  C3527  1  0.075900  0.362800  0.314600  1.0
  C  C3528  1  0.075900  0.637200  0.685400  1.0
  C  C3529  1  0.575900  0.862800  0.814600  1.0
  C  C3530  1  0.575900  0.137200  0.185400  1.0
  C  C3531  1  0.960900  0.659400  0.705700  1.0
  C  C3532  1  0.960900  0.340600  0.294300  1.0
  C  C3533  1  0.460900  0.159400  0.205700  1.0
  C  C3534  1  0.460900  0.840600  0.794300  1.0
  C  C3535  1  0.039100  0.340600  0.294300  1.0
  C  C3536  1  0.039100  0.659400  0.705700  1.0
  C  C3537  1  0.539100  0.840600  0.794300  1.0
  C  C3538  1  0.539100  0.159400  0.205700  1.0
  C  C3539  1  0.931200  0.673200  0.720300  1.0
  C  C3540  1  0.931200  0.326800  0.279700  1.0
  C  C3541  1  0.431200  0.173200  0.220300  1.0
  C  C3542  1  0.431200  0.826800  0.779700  1.0
  C  C3543  1  0.068800  0.326800  0.279700  1.0
  C  C3544  1  0.068800  0.673200  0.720300  1.0
  C  C3545  1  0.568800  0.826800  0.779700  1.0
  C  C3546  1  0.568800  0.173200  0.220300  1.0
  C  C3547  1  0.892300  0.638500  0.689000  1.0
  C  C3548  1  0.892300  0.361500  0.311000  1.0
  C  C3549  1  0.392300  0.138500  0.189000  1.0
  C  C3550  1  0.392300  0.861500  0.811000  1.0
  C  C3551  1  0.107700  0.361500  0.311000  1.0
  C  C3552  1  0.107700  0.638500  0.689000  1.0
  C  C3553  1  0.607700  0.861500  0.811000  1.0
  C  C3554  1  0.607700  0.138500  0.189000  1.0
  C  C3555  1  0.920900  0.625500  0.673200  1.0
  C  C3556  1  0.920900  0.374500  0.326800  1.0
  C  C3557  1  0.420900  0.125500  0.173200  1.0
  C  C3558  1  0.420900  0.874500  0.826800  1.0
  C  C3559  1  0.079100  0.374500  0.326800  1.0
  C  C3560  1  0.079100  0.625500  0.673200  1.0
  C  C3561  1  0.579100  0.874500  0.826800  1.0
  C  C3562  1  0.579100  0.125500  0.173200  1.0
  C  C3563  1  0.897800  0.664000  0.711200  1.0
  C  C3564  1  0.897800  0.336000  0.288800  1.0
  C  C3565  1  0.397800  0.164000  0.211200  1.0
  C  C3566  1  0.397800  0.836000  0.788800  1.0
  C  C3567  1  0.102200  0.336000  0.288800  1.0
  C  C3568  1  0.102200  0.664000  0.711200  1.0
  C  C3569  1  0.602200  0.836000  0.788800  1.0
  C  C3570  1  0.602200  0.164000  0.211200  1.0
  C  C3571  1  0.888200  0.657300  0.720800  1.0
  C  C3572  1  0.888200  0.342700  0.279200  1.0
  C  C3573  1  0.388200  0.157300  0.220800  1.0
  C  C3574  1  0.388200  0.842700  0.779200  1.0
  C  C3575  1  0.111800  0.342700  0.279200  1.0
  C  C3576  1  0.111800  0.657300  0.720800  1.0
  C  C3577  1  0.611800  0.842700  0.779200  1.0
  C  C3578  1  0.611800  0.157300  0.220800  1.0
  C  C3579  1  0.794400  0.748300  0.732300  1.0
  C  C3580  1  0.794400  0.251700  0.267700  1.0
  C  C3581  1  0.294400  0.248300  0.232300  1.0
  C  C3582  1  0.294400  0.751700  0.767700  1.0
  C  C3583  1  0.205600  0.251700  0.267700  1.0
  C  C3584  1  0.205600  0.748300  0.732300  1.0
  C  C3585  1  0.705600  0.751700  0.767700  1.0
  C  C3586  1  0.705600  0.248300  0.232300  1.0
  C  C3587  1  0.808100  0.735800  0.731900  1.0
  C  C3588  1  0.808100  0.264200  0.268100  1.0
  C  C3589  1  0.308100  0.235800  0.231900  1.0
  C  C3590  1  0.308100  0.764200  0.768100  1.0
  C  C3591  1  0.191900  0.264200  0.268100  1.0
  C  C3592  1  0.191900  0.735800  0.731900  1.0
  C  C3593  1  0.691900  0.764200  0.768100  1.0
  C  C3594  1  0.691900  0.235800  0.231900  1.0
  C  C3595  1  0.822800  0.737400  0.724400  1.0
  C  C3596  1  0.822800  0.262600  0.275600  1.0
  C  C3597  1  0.322800  0.237400  0.224400  1.0
  C  C3598  1  0.322800  0.762600  0.775600  1.0
  C  C3599  1  0.177200  0.262600  0.275600  1.0
  C  C3600  1  0.177200  0.737400  0.724400  1.0
  C  C3601  1  0.677200  0.762600  0.775600  1.0
  C  C3602  1  0.677200  0.237400  0.224400  1.0
  C  C3603  1  0.823300  0.750800  0.716800  1.0
  C  C3604  1  0.823300  0.249200  0.283200  1.0
  C  C3605  1  0.323300  0.250800  0.216800  1.0
  C  C3606  1  0.323300  0.749200  0.783200  1.0
  C  C3607  1  0.176700  0.249200  0.283200  1.0
  C  C3608  1  0.176700  0.750800  0.716800  1.0
  C  C3609  1  0.676700  0.749200  0.783200  1.0
  C  C3610  1  0.676700  0.250800  0.216800  1.0
  C  C3611  1  0.809500  0.763100  0.717800  1.0
  C  C3612  1  0.809500  0.236900  0.282200  1.0
  C  C3613  1  0.309500  0.263100  0.217800  1.0
  C  C3614  1  0.309500  0.736900  0.782200  1.0
  C  C3615  1  0.190500  0.236900  0.282200  1.0
  C  C3616  1  0.190500  0.763100  0.717800  1.0
  C  C3617  1  0.690500  0.736900  0.782200  1.0
  C  C3618  1  0.690500  0.263100  0.217800  1.0
  C  C3619  1  0.835200  0.723300  0.722600  1.0
  C  C3620  1  0.835200  0.276700  0.277400  1.0
  C  C3621  1  0.335200  0.223300  0.222600  1.0
  C  C3622  1  0.335200  0.776700  0.777400  1.0
  C  C3623  1  0.164800  0.276700  0.277400  1.0
  C  C3624  1  0.164800  0.723300  0.722600  1.0
  C  C3625  1  0.664800  0.776700  0.777400  1.0
  C  C3626  1  0.664800  0.223300  0.222600  1.0
  C  C3627  1  0.833000  0.708400  0.713200  1.0
  C  C3628  1  0.833000  0.291600  0.286800  1.0
  C  C3629  1  0.333000  0.208400  0.213200  1.0
  C  C3630  1  0.333000  0.791600  0.786800  1.0
  C  C3631  1  0.167000  0.291600  0.286800  1.0
  C  C3632  1  0.167000  0.708400  0.713200  1.0
  C  C3633  1  0.667000  0.791600  0.786800  1.0
  C  C3634  1  0.667000  0.208400  0.213200  1.0
  C  C3635  1  0.845400  0.694900  0.711800  1.0
  C  C3636  1  0.845400  0.305100  0.288200  1.0
  C  C3637  1  0.345400  0.194900  0.211800  1.0
  C  C3638  1  0.345400  0.805100  0.788200  1.0
  C  C3639  1  0.154600  0.305100  0.288200  1.0
  C  C3640  1  0.154600  0.694900  0.711800  1.0
  C  C3641  1  0.654600  0.805100  0.788200  1.0
  C  C3642  1  0.654600  0.194900  0.211800  1.0
  C  C3643  1  0.859400  0.695700  0.720500  1.0
  C  C3644  1  0.859400  0.304300  0.279500  1.0
  C  C3645  1  0.359400  0.195700  0.220500  1.0
  C  C3646  1  0.359400  0.804300  0.779500  1.0
  C  C3647  1  0.140600  0.304300  0.279500  1.0
  C  C3648  1  0.140600  0.695700  0.720500  1.0
  C  C3649  1  0.640600  0.804300  0.779500  1.0
  C  C3650  1  0.640600  0.195700  0.220500  1.0
  C  C3651  1  0.862300  0.711300  0.729100  1.0
  C  C3652  1  0.862300  0.288700  0.270900  1.0
  C  C3653  1  0.362300  0.211300  0.229100  1.0
  C  C3654  1  0.362300  0.788700  0.770900  1.0
  C  C3655  1  0.137700  0.288700  0.270900  1.0
  C  C3656  1  0.137700  0.711300  0.729100  1.0
  C  C3657  1  0.637700  0.788700  0.770900  1.0
  C  C3658  1  0.637700  0.211300  0.229100  1.0
  C  C3659  1  0.849300  0.724100  0.731300  1.0
  C  C3660  1  0.849300  0.275900  0.268700  1.0
  C  C3661  1  0.349300  0.224100  0.231300  1.0
  C  C3662  1  0.349300  0.775900  0.768700  1.0
  C  C3663  1  0.150700  0.275900  0.268700  1.0
  C  C3664  1  0.150700  0.724100  0.731300  1.0
  C  C3665  1  0.650700  0.775900  0.768700  1.0
  C  C3666  1  0.650700  0.224100  0.231300  1.0
  C  C3667  1  0.817800  0.706100  0.704600  1.0
  C  C3668  1  0.817800  0.293900  0.295400  1.0
  C  C3669  1  0.317800  0.206100  0.204600  1.0
  C  C3670  1  0.317800  0.793900  0.795400  1.0
  C  C3671  1  0.182200  0.293900  0.295400  1.0
  C  C3672  1  0.182200  0.706100  0.704600  1.0
  C  C3673  1  0.682200  0.793900  0.795400  1.0
  C  C3674  1  0.682200  0.206100  0.204600  1.0
  C  C3675  1  0.842500  0.679800  0.702100  1.0
  C  C3676  1  0.842500  0.320200  0.297900  1.0
  C  C3677  1  0.342500  0.179800  0.202100  1.0
  C  C3678  1  0.342500  0.820200  0.797900  1.0
  C  C3679  1  0.157500  0.320200  0.297900  1.0
  C  C3680  1  0.157500  0.679800  0.702100  1.0
  C  C3681  1  0.657500  0.820200  0.797900  1.0
  C  C3682  1  0.657500  0.179800  0.202100  1.0
  C  C3683  1  0.878300  0.712500  0.736700  1.0
  C  C3684  1  0.878300  0.287500  0.263300  1.0
  C  C3685  1  0.378300  0.212500  0.236700  1.0
  C  C3686  1  0.378300  0.787500  0.763300  1.0
  C  C3687  1  0.121700  0.287500  0.263300  1.0
  C  C3688  1  0.121700  0.712500  0.736700  1.0
  C  C3689  1  0.621700  0.787500  0.763300  1.0
  C  C3690  1  0.621700  0.212500  0.236700  1.0
  C  C3691  1  0.851600  0.740200  0.740100  1.0
  C  C3692  1  0.851600  0.259800  0.259900  1.0
  C  C3693  1  0.351600  0.240200  0.240100  1.0
  C  C3694  1  0.351600  0.759800  0.759900  1.0
  C  C3695  1  0.148400  0.259800  0.259900  1.0
  C  C3696  1  0.148400  0.740200  0.740100  1.0
  C  C3697  1  0.648400  0.759800  0.759900  1.0
  C  C3698  1  0.648400  0.240200  0.240100  1.0
  C  C3699  1  0.873100  0.682800  0.718600  1.0
  C  C3700  1  0.873100  0.317200  0.281400  1.0
  C  C3701  1  0.373100  0.182800  0.218600  1.0
  C  C3702  1  0.373100  0.817200  0.781400  1.0
  C  C3703  1  0.126900  0.317200  0.281400  1.0
  C  C3704  1  0.126900  0.682800  0.718600  1.0
  C  C3705  1  0.626900  0.817200  0.781400  1.0
  C  C3706  1  0.626900  0.182800  0.218600  1.0
  C  C3707  1  0.873900  0.668000  0.725100  1.0
  C  C3708  1  0.873900  0.332000  0.274900  1.0
  C  C3709  1  0.373900  0.168000  0.225100  1.0
  C  C3710  1  0.373900  0.832000  0.774900  1.0
  C  C3711  1  0.126100  0.332000  0.274900  1.0
  C  C3712  1  0.126100  0.668000  0.725100  1.0
  C  C3713  1  0.626100  0.832000  0.774900  1.0
  C  C3714  1  0.626100  0.168000  0.225100  1.0
  C  C3715  1  0.780400  0.790900  0.750600  1.0
  C  C3716  1  0.780400  0.209100  0.249400  1.0
  C  C3717  1  0.280400  0.290900  0.250600  1.0
  C  C3718  1  0.280400  0.709100  0.749400  1.0
  C  C3719  1  0.219600  0.209100  0.249400  1.0
  C  C3720  1  0.219600  0.790900  0.750600  1.0
  C  C3721  1  0.719600  0.709100  0.749400  1.0
  C  C3722  1  0.719600  0.290900  0.250600  1.0
  C  C3723  1  0.784900  0.802700  0.761900  1.0
  C  C3724  1  0.784900  0.197300  0.238100  1.0
  C  C3725  1  0.284900  0.302700  0.261900  1.0
  C  C3726  1  0.284900  0.697300  0.738100  1.0
  C  C3727  1  0.215100  0.197300  0.238100  1.0
  C  C3728  1  0.215100  0.802700  0.761900  1.0
  C  C3729  1  0.715100  0.697300  0.738100  1.0
  C  C3730  1  0.715100  0.302700  0.261900  1.0
  C  C3731  1  0.795500  0.816800  0.759600  1.0
  C  C3732  1  0.795500  0.183200  0.240400  1.0
  C  C3733  1  0.295500  0.316800  0.259600  1.0
  C  C3734  1  0.295500  0.683200  0.740400  1.0
  C  C3735  1  0.204500  0.183200  0.240400  1.0
  C  C3736  1  0.204500  0.816800  0.759600  1.0
  C  C3737  1  0.704500  0.683200  0.740400  1.0
  C  C3738  1  0.704500  0.316800  0.259600  1.0
  C  C3739  1  0.800000  0.817600  0.746700  1.0
  C  C3740  1  0.800000  0.182400  0.253300  1.0
  C  C3741  1  0.300000  0.317600  0.246700  1.0
  C  C3742  1  0.300000  0.682400  0.753300  1.0
  C  C3743  1  0.200000  0.182400  0.253300  1.0
  C  C3744  1  0.200000  0.817600  0.746700  1.0
  C  C3745  1  0.700000  0.682400  0.753300  1.0
  C  C3746  1  0.700000  0.317600  0.246700  1.0
  C  C3747  1  0.795600  0.805000  0.735900  1.0
  C  C3748  1  0.795600  0.195000  0.264100  1.0
  C  C3749  1  0.295600  0.305000  0.235900  1.0
  C  C3750  1  0.295600  0.695000  0.764100  1.0
  C  C3751  1  0.204400  0.195000  0.264100  1.0
  C  C3752  1  0.204400  0.805000  0.735900  1.0
  C  C3753  1  0.704400  0.695000  0.764100  1.0
  C  C3754  1  0.704400  0.305000  0.235900  1.0
  C  C3755  1  0.798800  0.831200  0.770000  1.0
  C  C3756  1  0.798800  0.168800  0.230000  1.0
  C  C3757  1  0.298800  0.331200  0.270000  1.0
  C  C3758  1  0.298800  0.668800  0.730000  1.0
  C  C3759  1  0.201200  0.168800  0.230000  1.0
  C  C3760  1  0.201200  0.831200  0.770000  1.0
  C  C3761  1  0.701200  0.668800  0.730000  1.0
  C  C3762  1  0.701200  0.331200  0.270000  1.0
  C  C3763  1  0.813700  0.831300  0.777700  1.0
  C  C3764  1  0.813700  0.168700  0.222300  1.0
  C  C3765  1  0.313700  0.331300  0.277700  1.0
  C  C3766  1  0.313700  0.668700  0.722300  1.0
  C  C3767  1  0.186300  0.168700  0.222300  1.0
  C  C3768  1  0.186300  0.831300  0.777700  1.0
  C  C3769  1  0.686300  0.668700  0.722300  1.0
  C  C3770  1  0.686300  0.331300  0.277700  1.0
  C  C3771  1  0.816700  0.844200  0.788400  1.0
  C  C3772  1  0.816700  0.155800  0.211600  1.0
  C  C3773  1  0.316700  0.344200  0.288400  1.0
  C  C3774  1  0.316700  0.655800  0.711600  1.0
  C  C3775  1  0.183300  0.155800  0.211600  1.0
  C  C3776  1  0.183300  0.844200  0.788400  1.0
  C  C3777  1  0.683300  0.655800  0.711600  1.0
  C  C3778  1  0.683300  0.344200  0.288400  1.0
  C  C3779  1  0.803800  0.856600  0.791400  1.0
  C  C3780  1  0.803800  0.143400  0.208600  1.0
  C  C3781  1  0.303800  0.356600  0.291400  1.0
  C  C3782  1  0.303800  0.643400  0.708600  1.0
  C  C3783  1  0.196200  0.143400  0.208600  1.0
  C  C3784  1  0.196200  0.856600  0.791400  1.0
  C  C3785  1  0.696200  0.643400  0.708600  1.0
  C  C3786  1  0.696200  0.356600  0.291400  1.0
  C  C3787  1  0.789800  0.858100  0.783200  1.0
  C  C3788  1  0.789800  0.141900  0.216800  1.0
  C  C3789  1  0.289800  0.358100  0.283200  1.0
  C  C3790  1  0.289800  0.641900  0.716800  1.0
  C  C3791  1  0.210200  0.141900  0.216800  1.0
  C  C3792  1  0.210200  0.858100  0.783200  1.0
  C  C3793  1  0.710200  0.641900  0.716800  1.0
  C  C3794  1  0.710200  0.358100  0.283200  1.0
  C  C3795  1  0.786200  0.844200  0.773500  1.0
  C  C3796  1  0.786200  0.155800  0.226500  1.0
  C  C3797  1  0.286200  0.344200  0.273500  1.0
  C  C3798  1  0.286200  0.655800  0.726500  1.0
  C  C3799  1  0.213800  0.155800  0.226500  1.0
  C  C3800  1  0.213800  0.844200  0.773500  1.0
  C  C3801  1  0.713800  0.655800  0.726500  1.0
  C  C3802  1  0.713800  0.344200  0.273500  1.0
  C  C3803  1  0.826200  0.817500  0.773800  1.0
  C  C3804  1  0.826200  0.182500  0.226200  1.0
  C  C3805  1  0.326200  0.317500  0.273800  1.0
  C  C3806  1  0.326200  0.682500  0.726200  1.0
  C  C3807  1  0.173800  0.182500  0.226200  1.0
  C  C3808  1  0.173800  0.817500  0.773800  1.0
  C  C3809  1  0.673800  0.682500  0.726200  1.0
  C  C3810  1  0.673800  0.317500  0.273800  1.0
  C  C3811  1  0.832000  0.845100  0.796700  1.0
  C  C3812  1  0.832000  0.154900  0.203300  1.0
  C  C3813  1  0.332000  0.345100  0.296700  1.0
  C  C3814  1  0.332000  0.654900  0.703300  1.0
  C  C3815  1  0.168000  0.154900  0.203300  1.0
  C  C3816  1  0.168000  0.845100  0.796700  1.0
  C  C3817  1  0.668000  0.654900  0.703300  1.0
  C  C3818  1  0.668000  0.345100  0.296700  1.0
  C  C3819  1  0.776900  0.871500  0.787500  1.0
  C  C3820  1  0.776900  0.128500  0.212500  1.0
  C  C3821  1  0.276900  0.371500  0.287500  1.0
  C  C3822  1  0.276900  0.628500  0.712500  1.0
  C  C3823  1  0.223100  0.128500  0.212500  1.0
  C  C3824  1  0.223100  0.871500  0.787500  1.0
  C  C3825  1  0.723100  0.628500  0.712500  1.0
  C  C3826  1  0.723100  0.371500  0.287500  1.0
  C  C3827  1  0.771200  0.845200  0.765000  1.0
  C  C3828  1  0.771200  0.154800  0.235000  1.0
  C  C3829  1  0.271200  0.345200  0.265000  1.0
  C  C3830  1  0.271200  0.654800  0.735000  1.0
  C  C3831  1  0.228800  0.154800  0.235000  1.0
  C  C3832  1  0.228800  0.845200  0.765000  1.0
  C  C3833  1  0.728800  0.654800  0.735000  1.0
  C  C3834  1  0.728800  0.345200  0.265000  1.0
  C  C3835  1  0.806900  0.871100  0.801400  1.0
  C  C3836  1  0.806900  0.128900  0.198600  1.0
  C  C3837  1  0.306900  0.371100  0.301400  1.0
  C  C3838  1  0.306900  0.628900  0.698600  1.0
  C  C3839  1  0.193100  0.128900  0.198600  1.0
  C  C3840  1  0.193100  0.871100  0.801400  1.0
  C  C3841  1  0.693100  0.628900  0.698600  1.0
  C  C3842  1  0.693100  0.371100  0.301400  1.0
  C  C3843  1  0.802700  0.871200  0.814500  1.0
  C  C3844  1  0.802700  0.128800  0.185500  1.0
  C  C3845  1  0.302700  0.371200  0.314500  1.0
  C  C3846  1  0.302700  0.628800  0.685500  1.0
  C  C3847  1  0.197300  0.128800  0.185500  1.0
  C  C3848  1  0.197300  0.871200  0.814500  1.0
  C  C3849  1  0.697300  0.628800  0.685500  1.0
  C  C3850  1  0.697300  0.371200  0.314500  1.0
  C  C3851  1  0.844100  0.993300  0.846800  1.0
  C  C3852  1  0.844100  0.006700  0.153200  1.0
  C  C3853  1  0.344100  0.493300  0.346800  1.0
  C  C3854  1  0.344100  0.506700  0.653200  1.0
  C  C3855  1  0.155900  0.006700  0.153200  1.0
  C  C3856  1  0.155900  0.993300  0.846800  1.0
  C  C3857  1  0.655900  0.506700  0.653200  1.0
  C  C3858  1  0.655900  0.493300  0.346800  1.0
  C  C3859  1  0.838800  0.975500  0.843100  1.0
  C  C3860  1  0.838800  0.024500  0.156900  1.0
  C  C3861  1  0.338800  0.475500  0.343100  1.0
  C  C3862  1  0.338800  0.524500  0.656900  1.0
  C  C3863  1  0.161200  0.024500  0.156900  1.0
  C  C3864  1  0.161200  0.975500  0.843100  1.0
  C  C3865  1  0.661200  0.524500  0.656900  1.0
  C  C3866  1  0.661200  0.475500  0.343100  1.0
  C  C3867  1  0.841500  0.967400  0.830200  1.0
  C  C3868  1  0.841500  0.032600  0.169800  1.0
  C  C3869  1  0.341500  0.467400  0.330200  1.0
  C  C3870  1  0.341500  0.532600  0.669800  1.0
  C  C3871  1  0.158500  0.032600  0.169800  1.0
  C  C3872  1  0.158500  0.967400  0.830200  1.0
  C  C3873  1  0.658500  0.532600  0.669800  1.0
  C  C3874  1  0.658500  0.467400  0.330200  1.0
  C  C3875  1  0.849200  0.976800  0.821100  1.0
  C  C3876  1  0.849200  0.023200  0.178900  1.0
  C  C3877  1  0.349200  0.476800  0.321100  1.0
  C  C3878  1  0.349200  0.523200  0.678900  1.0
  C  C3879  1  0.150800  0.023200  0.178900  1.0
  C  C3880  1  0.150800  0.976800  0.821100  1.0
  C  C3881  1  0.650800  0.523200  0.678900  1.0
  C  C3882  1  0.650800  0.476800  0.321100  1.0
  C  C3883  1  0.854700  0.994500  0.825400  1.0
  C  C3884  1  0.854700  0.005500  0.174600  1.0
  C  C3885  1  0.354700  0.494500  0.325400  1.0
  C  C3886  1  0.354700  0.505500  0.674600  1.0
  C  C3887  1  0.145300  0.005500  0.174600  1.0
  C  C3888  1  0.145300  0.994500  0.825400  1.0
  C  C3889  1  0.645300  0.505500  0.674600  1.0
  C  C3890  1  0.645300  0.494500  0.325400  1.0
  C  C3891  1  0.833900  0.950000  0.826400  1.0
  C  C3892  1  0.833900  0.050000  0.173600  1.0
  C  C3893  1  0.333900  0.450000  0.326400  1.0
  C  C3894  1  0.333900  0.550000  0.673600  1.0
  C  C3895  1  0.166100  0.050000  0.173600  1.0
  C  C3896  1  0.166100  0.950000  0.826400  1.0
  C  C3897  1  0.666100  0.550000  0.673600  1.0
  C  C3898  1  0.666100  0.450000  0.326400  1.0
  C  C3899  1  0.816400  0.947600  0.822100  1.0
  C  C3900  1  0.816400  0.052400  0.177900  1.0
  C  C3901  1  0.316400  0.447600  0.322100  1.0
  C  C3902  1  0.316400  0.552400  0.677900  1.0
  C  C3903  1  0.183600  0.052400  0.177900  1.0
  C  C3904  1  0.183600  0.947600  0.822100  1.0
  C  C3905  1  0.683600  0.552400  0.677900  1.0
  C  C3906  1  0.683600  0.447600  0.322100  1.0
  C  C3907  1  0.809900  0.930300  0.818400  1.0
  C  C3908  1  0.809900  0.069700  0.181600  1.0
  C  C3909  1  0.309900  0.430300  0.318400  1.0
  C  C3910  1  0.309900  0.569700  0.681600  1.0
  C  C3911  1  0.190100  0.069700  0.181600  1.0
  C  C3912  1  0.190100  0.930300  0.818400  1.0
  C  C3913  1  0.690100  0.569700  0.681600  1.0
  C  C3914  1  0.690100  0.430300  0.318400  1.0
  C  C3915  1  0.820800  0.916100  0.819200  1.0
  C  C3916  1  0.820800  0.083900  0.180800  1.0
  C  C3917  1  0.320800  0.416100  0.319200  1.0
  C  C3918  1  0.320800  0.583900  0.680800  1.0
  C  C3919  1  0.179200  0.083900  0.180800  1.0
  C  C3920  1  0.179200  0.916100  0.819200  1.0
  C  C3921  1  0.679200  0.583900  0.680800  1.0
  C  C3922  1  0.679200  0.416100  0.319200  1.0
  C  C3923  1  0.838500  0.918200  0.823000  1.0
  C  C3924  1  0.838500  0.081800  0.177000  1.0
  C  C3925  1  0.338500  0.418200  0.323000  1.0
  C  C3926  1  0.338500  0.581800  0.677000  1.0
  C  C3927  1  0.161500  0.081800  0.177000  1.0
  C  C3928  1  0.161500  0.918200  0.823000  1.0
  C  C3929  1  0.661500  0.581800  0.677000  1.0
  C  C3930  1  0.661500  0.418200  0.323000  1.0
  C  C3931  1  0.844500  0.935200  0.827500  1.0
  C  C3932  1  0.844500  0.064800  0.172500  1.0
  C  C3933  1  0.344500  0.435200  0.327500  1.0
  C  C3934  1  0.344500  0.564800  0.672500  1.0
  C  C3935  1  0.155500  0.064800  0.172500  1.0
  C  C3936  1  0.155500  0.935200  0.827500  1.0
  C  C3937  1  0.655500  0.564800  0.672500  1.0
  C  C3938  1  0.655500  0.435200  0.327500  1.0
  C  C3939  1  0.804800  0.962300  0.821200  1.0
  C  C3940  1  0.804800  0.037700  0.178800  1.0
  C  C3941  1  0.304800  0.462300  0.321200  1.0
  C  C3942  1  0.304800  0.537700  0.678800  1.0
  C  C3943  1  0.195200  0.037700  0.178800  1.0
  C  C3944  1  0.195200  0.962300  0.821200  1.0
  C  C3945  1  0.695200  0.537700  0.678800  1.0
  C  C3946  1  0.695200  0.462300  0.321200  1.0
  C  C3947  1  0.792100  0.927700  0.813700  1.0
  C  C3948  1  0.792100  0.072300  0.186300  1.0
  C  C3949  1  0.292100  0.427700  0.313700  1.0
  C  C3950  1  0.292100  0.572300  0.686300  1.0
  C  C3951  1  0.207900  0.072300  0.186300  1.0
  C  C3952  1  0.207900  0.927700  0.813700  1.0
  C  C3953  1  0.707900  0.572300  0.686300  1.0
  C  C3954  1  0.707900  0.427700  0.313700  1.0
  C  C3955  1  0.848000  0.902000  0.823500  1.0
  C  C3956  1  0.848000  0.098000  0.176500  1.0
  C  C3957  1  0.348000  0.402000  0.323500  1.0
  C  C3958  1  0.348000  0.598000  0.676500  1.0
  C  C3959  1  0.152000  0.098000  0.176500  1.0
  C  C3960  1  0.152000  0.902000  0.823500  1.0
  C  C3961  1  0.652000  0.598000  0.676500  1.0
  C  C3962  1  0.652000  0.402000  0.323500  1.0
  C  C3963  1  0.862700  0.938100  0.831400  1.0
  C  C3964  1  0.862700  0.061900  0.168600  1.0
  C  C3965  1  0.362700  0.438100  0.331400  1.0
  C  C3966  1  0.362700  0.561900  0.668600  1.0
  C  C3967  1  0.137300  0.061900  0.168600  1.0
  C  C3968  1  0.137300  0.938100  0.831400  1.0
  C  C3969  1  0.637300  0.561900  0.668600  1.0
  C  C3970  1  0.637300  0.438100  0.331400  1.0
  C  C3971  1  0.816200  0.898300  0.814500  1.0
  C  C3972  1  0.816200  0.101700  0.185500  1.0
  C  C3973  1  0.316200  0.398300  0.314500  1.0
  C  C3974  1  0.316200  0.601700  0.685500  1.0
  C  C3975  1  0.183800  0.101700  0.185500  1.0
  C  C3976  1  0.183800  0.898300  0.814500  1.0
  C  C3977  1  0.683800  0.601700  0.685500  1.0
  C  C3978  1  0.683800  0.398300  0.314500  1.0
  C  C3979  1  0.808700  0.886600  0.821900  1.0
  C  C3980  1  0.808700  0.113400  0.178100  1.0
  C  C3981  1  0.308700  0.386600  0.321900  1.0
  C  C3982  1  0.308700  0.613400  0.678100  1.0
  C  C3983  1  0.191300  0.113400  0.178100  1.0
  C  C3984  1  0.191300  0.886600  0.821900  1.0
  C  C3985  1  0.691300  0.613400  0.678100  1.0
  C  C3986  1  0.691300  0.386600  0.321900  1.0
  C  C3987  1  0.114700  0.983900  0.140800  0.5
  C  C3988  1  0.114700  0.016100  0.859200  0.5
  C  C3989  1  0.614700  0.483900  0.640800  0.5
  C  C3990  1  0.614700  0.516100  0.359200  0.5
  C  C3991  1  0.885300  0.016100  0.859200  0.5
  C  C3992  1  0.885300  0.983900  0.140800  0.5
  C  C3993  1  0.385300  0.516100  0.359200  0.5
  C  C3994  1  0.385300  0.483900  0.640800  0.5
  C  C3995  1  0.097000  0.982100  0.136900  0.5
  C  C3996  1  0.097000  0.017900  0.863100  0.5
  C  C3997  1  0.597000  0.482100  0.636900  0.5
  C  C3998  1  0.597000  0.517900  0.363100  0.5
  C  C3999  1  0.903000  0.017900  0.863100  0.5
  C  C4000  1  0.903000  0.982100  0.136900  0.5
  C  C4001  1  0.403000  0.517900  0.363100  0.5
  C  C4002  1  0.403000  0.482100  0.636900  0.5
  C  C4003  1  0.084700  0.980700  0.146500  0.5
  C  C4004  1  0.084700  0.019300  0.853500  0.5
  C  C4005  1  0.584700  0.480700  0.646500  0.5
  C  C4006  1  0.584700  0.519300  0.353500  0.5
  C  C4007  1  0.915300  0.019300  0.853500  0.5
  C  C4008  1  0.915300  0.980700  0.146500  0.5
  C  C4009  1  0.415300  0.519300  0.353500  0.5
  C  C4010  1  0.415300  0.480700  0.646500  0.5
  C  C4011  1  0.089200  0.981200  0.159600  0.5
  C  C4012  1  0.089200  0.018800  0.840400  0.5
  C  C4013  1  0.589200  0.481200  0.659600  0.5
  C  C4014  1  0.589200  0.518800  0.340400  0.5
  C  C4015  1  0.910800  0.018800  0.840400  0.5
  C  C4016  1  0.910800  0.981200  0.159600  0.5
  C  C4017  1  0.410800  0.518800  0.340400  0.5
  C  C4018  1  0.410800  0.481200  0.659600  0.5
  C  C4019  1  0.107200  0.983000  0.162800  0.5
  C  C4020  1  0.107200  0.017000  0.837200  0.5
  C  C4021  1  0.607200  0.483000  0.662800  0.5
  C  C4022  1  0.607200  0.517000  0.337200  0.5
  C  C4023  1  0.892800  0.017000  0.837200  0.5
  C  C4024  1  0.892800  0.983000  0.162800  0.5
  C  C4025  1  0.392800  0.517000  0.337200  0.5
  C  C4026  1  0.392800  0.483000  0.662800  0.5
  C  C4027  1  0.066600  0.981800  0.143000  0.5
  C  C4028  1  0.066600  0.018200  0.857000  0.5
  C  C4029  1  0.566600  0.481800  0.643000  0.5
  C  C4030  1  0.566600  0.518200  0.357000  0.5
  C  C4031  1  0.933400  0.018200  0.857000  0.5
  C  C4032  1  0.933400  0.981800  0.143000  0.5
  C  C4033  1  0.433400  0.518200  0.357000  0.5
  C  C4034  1  0.433400  0.481800  0.643000  0.5
  C  C4035  1  0.059300  0.967200  0.135400  0.5
  C  C4036  1  0.059300  0.032800  0.864600  0.5
  C  C4037  1  0.559300  0.467200  0.635400  0.5
  C  C4038  1  0.559300  0.532800  0.364600  0.5
  C  C4039  1  0.940700  0.032800  0.864600  0.5
  C  C4040  1  0.940700  0.967200  0.135400  0.5
  C  C4041  1  0.440700  0.532800  0.364600  0.5
  C  C4042  1  0.440700  0.467200  0.635400  0.5
  C  C4043  1  0.042000  0.968500  0.130800  0.5
  C  C4044  1  0.042000  0.031500  0.869200  0.5
  C  C4045  1  0.542000  0.468500  0.630800  0.5
  C  C4046  1  0.542000  0.531500  0.369200  0.5
  C  C4047  1  0.958000  0.031500  0.869200  0.5
  C  C4048  1  0.958000  0.968500  0.130800  0.5
  C  C4049  1  0.458000  0.531500  0.369200  0.5
  C  C4050  1  0.458000  0.468500  0.630800  0.5
  C  C4051  1  0.033400  0.984800  0.133200  0.5
  C  C4052  1  0.033400  0.015200  0.866800  0.5
  C  C4053  1  0.533400  0.484800  0.633200  0.5
  C  C4054  1  0.533400  0.515200  0.366800  0.5
  C  C4055  1  0.966600  0.015200  0.866800  0.5
  C  C4056  1  0.966600  0.984800  0.133200  0.5
  C  C4057  1  0.466600  0.515200  0.366800  0.5
  C  C4058  1  0.466600  0.484800  0.633200  0.5
  C  C4059  1  0.040100  0.998500  0.142500  0.5
  C  C4060  1  0.040100  0.001500  0.857500  0.5
  C  C4061  1  0.540100  0.498500  0.642500  0.5
  C  C4062  1  0.540100  0.501500  0.357500  0.5
  C  C4063  1  0.959900  0.001500  0.857500  0.5
  C  C4064  1  0.959900  0.998500  0.142500  0.5
  C  C4065  1  0.459900  0.501500  0.357500  0.5
  C  C4066  1  0.459900  0.498500  0.642500  0.5
  C  C4067  1  0.057600  0.997600  0.146400  0.5
  C  C4068  1  0.057600  0.002400  0.853600  0.5
  C  C4069  1  0.557600  0.497600  0.646400  0.5
  C  C4070  1  0.557600  0.502400  0.353600  0.5
  C  C4071  1  0.942400  0.002400  0.853600  0.5
  C  C4072  1  0.942400  0.997600  0.146400  0.5
  C  C4073  1  0.442400  0.502400  0.353600  0.5
  C  C4074  1  0.442400  0.497600  0.646400  0.5
  C  C4075  1  0.069200  0.950900  0.133100  0.5
  C  C4076  1  0.069200  0.049100  0.866900  0.5
  C  C4077  1  0.569200  0.450900  0.633100  0.5
  C  C4078  1  0.569200  0.549100  0.366900  0.5
  C  C4079  1  0.930800  0.049100  0.866900  0.5
  C  C4080  1  0.930800  0.950900  0.133100  0.5
  C  C4081  1  0.430800  0.549100  0.366900  0.5
  C  C4082  1  0.430800  0.450900  0.633100  0.5
  C  C4083  1  0.033900  0.953300  0.123500  0.5
  C  C4084  1  0.033900  0.046700  0.876500  0.5
  C  C4085  1  0.533900  0.453300  0.623500  0.5
  C  C4086  1  0.533900  0.546700  0.376500  0.5
  C  C4087  1  0.966100  0.046700  0.876500  0.5
  C  C4088  1  0.966100  0.953300  0.123500  0.5
  C  C4089  1  0.466100  0.546700  0.376500  0.5
  C  C4090  1  0.466100  0.453300  0.623500  0.5
  C  C4091  1  0.031600  0.015400  0.145800  0.5
  C  C4092  1  0.031600  0.984600  0.854200  0.5
  C  C4093  1  0.531600  0.515400  0.645800  0.5
  C  C4094  1  0.531600  0.484600  0.354200  0.5
  C  C4095  1  0.968400  0.984600  0.854200  0.5
  C  C4096  1  0.968400  0.015400  0.145800  0.5
  C  C4097  1  0.468400  0.484600  0.354200  0.5
  C  C4098  1  0.468400  0.515400  0.645800  0.5
  C  C4099  1  0.065700  0.012500  0.154300  0.5
  C  C4100  1  0.065700  0.987500  0.845700  0.5
  C  C4101  1  0.565700  0.512500  0.654300  0.5
  C  C4102  1  0.565700  0.487500  0.345700  0.5
  C  C4103  1  0.934300  0.987500  0.845700  0.5
  C  C4104  1  0.934300  0.012500  0.154300  0.5
  C  C4105  1  0.434300  0.487500  0.345700  0.5
  C  C4106  1  0.434300  0.512500  0.654300  0.5
  C  C4107  1  0.014900  0.984900  0.130500  0.5
  C  C4108  1  0.014900  0.015100  0.869500  0.5
  C  C4109  1  0.514900  0.484900  0.630500  0.5
  C  C4110  1  0.514900  0.515100  0.369500  0.5
  C  C4111  1  0.985100  0.015100  0.869500  0.5
  C  C4112  1  0.985100  0.984900  0.130500  0.5
  C  C4113  1  0.485100  0.515100  0.369500  0.5
  C  C4114  1  0.485100  0.484900  0.630500  0.5
  C  C4115  1  0.007200  0.983100  0.118200  0.5
  C  C4116  1  0.007200  0.016900  0.881800  0.5
  C  C4117  1  0.507200  0.483100  0.618200  0.5
  C  C4118  1  0.507200  0.516900  0.381800  0.5
  C  C4119  1  0.992800  0.016900  0.881800  0.5
  C  C4120  1  0.992800  0.983100  0.118200  0.5
  C  C4121  1  0.492800  0.516900  0.381800  0.5
  C  C4122  1  0.492800  0.483100  0.618200  0.5
  C  C4123  1  0.883400  0.973600  0.144100  0.5
  C  C4124  1  0.883400  0.026400  0.855900  0.5
  C  C4125  1  0.383400  0.473600  0.644100  0.5
  C  C4126  1  0.383400  0.526400  0.355900  0.5
  C  C4127  1  0.116600  0.026400  0.855900  0.5
  C  C4128  1  0.116600  0.973600  0.144100  0.5
  C  C4129  1  0.616600  0.526400  0.355900  0.5
  C  C4130  1  0.616600  0.473600  0.644100  0.5
  C  C4131  1  0.899200  0.981000  0.140500  0.5
  C  C4132  1  0.899200  0.019000  0.859500  0.5
  C  C4133  1  0.399200  0.481000  0.640500  0.5
  C  C4134  1  0.399200  0.519000  0.359500  0.5
  C  C4135  1  0.100800  0.019000  0.859500  0.5
  C  C4136  1  0.100800  0.981000  0.140500  0.5
  C  C4137  1  0.600800  0.519000  0.359500  0.5
  C  C4138  1  0.600800  0.481000  0.640500  0.5
  C  C4139  1  0.912600  0.984400  0.149600  0.5
  C  C4140  1  0.912600  0.015600  0.850400  0.5
  C  C4141  1  0.412600  0.484400  0.649600  0.5
  C  C4142  1  0.412600  0.515600  0.350400  0.5
  C  C4143  1  0.087400  0.015600  0.850400  0.5
  C  C4144  1  0.087400  0.984400  0.149600  0.5
  C  C4145  1  0.587400  0.515600  0.350400  0.5
  C  C4146  1  0.587400  0.484400  0.649600  0.5
  C  C4147  1  0.908300  0.982300  0.162400  0.5
  C  C4148  1  0.908300  0.017700  0.837600  0.5
  C  C4149  1  0.408300  0.482300  0.662400  0.5
  C  C4150  1  0.408300  0.517700  0.337600  0.5
  C  C4151  1  0.091700  0.017700  0.837600  0.5
  C  C4152  1  0.091700  0.982300  0.162400  0.5
  C  C4153  1  0.591700  0.517700  0.337600  0.5
  C  C4154  1  0.591700  0.482300  0.662400  0.5
  C  C4155  1  0.891100  0.977200  0.165700  0.5
  C  C4156  1  0.891100  0.022800  0.834300  0.5
  C  C4157  1  0.391100  0.477200  0.665700  0.5
  C  C4158  1  0.391100  0.522800  0.334300  0.5
  C  C4159  1  0.108900  0.022800  0.834300  0.5
  C  C4160  1  0.108900  0.977200  0.165700  0.5
  C  C4161  1  0.608900  0.522800  0.334300  0.5
  C  C4162  1  0.608900  0.477200  0.665700  0.5
  C  C4163  1  0.930400  0.983800  0.144700  0.5
  C  C4164  1  0.930400  0.016200  0.855300  0.5
  C  C4165  1  0.430400  0.483800  0.644700  0.5
  C  C4166  1  0.430400  0.516200  0.355300  0.5
  C  C4167  1  0.069600  0.016200  0.855300  0.5
  C  C4168  1  0.069600  0.983800  0.144700  0.5
  C  C4169  1  0.569600  0.516200  0.355300  0.5
  C  C4170  1  0.569600  0.483800  0.644700  0.5
  C  C4171  1  0.938300  0.998700  0.140700  0.5
  C  C4172  1  0.938300  0.001300  0.859300  0.5
  C  C4173  1  0.438300  0.498700  0.640700  0.5
  C  C4174  1  0.438300  0.501300  0.359300  0.5
  C  C4175  1  0.061700  0.001300  0.859300  0.5
  C  C4176  1  0.061700  0.998700  0.140700  0.5
  C  C4177  1  0.561700  0.501300  0.359300  0.5
  C  C4178  1  0.561700  0.498700  0.640700  0.5
  C  C4179  1  0.955500  0.997700  0.135700  0.5
  C  C4180  1  0.955500  0.002300  0.864300  0.5
  C  C4181  1  0.455500  0.497700  0.635700  0.5
  C  C4182  1  0.455500  0.502300  0.364300  0.5
  C  C4183  1  0.044500  0.002300  0.864300  0.5
  C  C4184  1  0.044500  0.997700  0.135700  0.5
  C  C4185  1  0.544500  0.502300  0.364300  0.5
  C  C4186  1  0.544500  0.497700  0.635700  0.5
  C  C4187  1  0.964900  0.981900  0.134800  0.5
  C  C4188  1  0.964900  0.018100  0.865200  0.5
  C  C4189  1  0.464900  0.481900  0.634800  0.5
  C  C4190  1  0.464900  0.518100  0.365200  0.5
  C  C4191  1  0.035100  0.018100  0.865200  0.5
  C  C4192  1  0.035100  0.981900  0.134800  0.5
  C  C4193  1  0.535100  0.518100  0.365200  0.5
  C  C4194  1  0.535100  0.481900  0.634800  0.5
  C  C4195  1  0.957700  0.967300  0.139500  0.5
  C  C4196  1  0.957700  0.032700  0.860500  0.5
  C  C4197  1  0.457700  0.467300  0.639500  0.5
  C  C4198  1  0.457700  0.532700  0.360500  0.5
  C  C4199  1  0.042300  0.032700  0.860500  0.5
  C  C4200  1  0.042300  0.967300  0.139500  0.5
  C  C4201  1  0.542300  0.532700  0.360500  0.5
  C  C4202  1  0.542300  0.467300  0.639500  0.5
  C  C4203  1  0.940200  0.968100  0.143900  0.5
  C  C4204  1  0.940200  0.031900  0.856100  0.5
  C  C4205  1  0.440200  0.468100  0.643900  0.5
  C  C4206  1  0.440200  0.531900  0.356100  0.5
  C  C4207  1  0.059800  0.031900  0.856100  0.5
  C  C4208  1  0.059800  0.968100  0.143900  0.5
  C  C4209  1  0.559800  0.531900  0.356100  0.5
  C  C4210  1  0.559800  0.468100  0.643900  0.5
  C  C4211  1  0.930200  0.015900  0.141000  0.5
  C  C4212  1  0.930200  0.984100  0.859000  0.5
  C  C4213  1  0.430200  0.515900  0.641000  0.5
  C  C4214  1  0.430200  0.484100  0.359000  0.5
  C  C4215  1  0.069800  0.984100  0.859000  0.5
  C  C4216  1  0.069800  0.015900  0.141000  0.5
  C  C4217  1  0.569800  0.484100  0.359000  0.5
  C  C4218  1  0.569800  0.515900  0.641000  0.5
  C  C4219  1  0.963700  0.013200  0.131800  0.5
  C  C4220  1  0.963700  0.986800  0.868200  0.5
  C  C4221  1  0.463700  0.513200  0.631800  0.5
  C  C4222  1  0.463700  0.486800  0.368200  0.5
  C  C4223  1  0.036300  0.986800  0.868200  0.5
  C  C4224  1  0.036300  0.013200  0.131800  0.5
  C  C4225  1  0.536300  0.486800  0.368200  0.5
  C  C4226  1  0.536300  0.513200  0.631800  0.5
  C  C4227  1  0.967000  0.950700  0.137000  0.5
  C  C4228  1  0.967000  0.049300  0.863000  0.5
  C  C4229  1  0.467000  0.450700  0.637000  0.5
  C  C4230  1  0.467000  0.549300  0.363000  0.5
  C  C4231  1  0.033000  0.049300  0.863000  0.5
  C  C4232  1  0.033000  0.950700  0.137000  0.5
  C  C4233  1  0.533000  0.549300  0.363000  0.5
  C  C4234  1  0.533000  0.450700  0.637000  0.5
  C  C4235  1  0.933100  0.951700  0.146900  0.5
  C  C4236  1  0.933100  0.048300  0.853100  0.5
  C  C4237  1  0.433100  0.451700  0.646900  0.5
  C  C4238  1  0.433100  0.548300  0.353100  0.5
  C  C4239  1  0.066900  0.048300  0.853100  0.5
  C  C4240  1  0.066900  0.951700  0.146900  0.5
  C  C4241  1  0.566900  0.548300  0.353100  0.5
  C  C4242  1  0.566900  0.451700  0.646900  0.5
  C  C4243  1  0.983200  0.981700  0.131900  0.5
  C  C4244  1  0.983200  0.018300  0.868100  0.5
  C  C4245  1  0.483200  0.481700  0.631900  0.5
  C  C4246  1  0.483200  0.518300  0.368100  0.5
  C  C4247  1  0.016800  0.018300  0.868100  0.5
  C  C4248  1  0.016800  0.981700  0.131900  0.5
  C  C4249  1  0.516800  0.518300  0.368100  0.5
  C  C4250  1  0.516800  0.481700  0.631900  0.5
  C  C4251  1  0.989000  0.981100  0.119000  0.5
  C  C4252  1  0.989000  0.018900  0.881000  0.5
  C  C4253  1  0.489000  0.481100  0.619000  0.5
  C  C4254  1  0.489000  0.518900  0.381000  0.5
  C  C4255  1  0.011000  0.018900  0.881000  0.5
  C  C4256  1  0.011000  0.981100  0.119000  0.5
  C  C4257  1  0.511000  0.518900  0.381000  0.5
  C  C4258  1  0.511000  0.481100  0.619000  0.5
  C  C4259  1  0.119600  0.578400  0.322400  0.5
  C  C4260  1  0.119600  0.421600  0.677600  0.5
  C  C4261  1  0.619600  0.078400  0.822400  0.5
  C  C4262  1  0.619600  0.921600  0.177600  0.5
  C  C4263  1  0.880400  0.421600  0.677600  0.5
  C  C4264  1  0.880400  0.578400  0.322400  0.5
  C  C4265  1  0.380400  0.921600  0.177600  0.5
  C  C4266  1  0.380400  0.078400  0.822400  0.5
  C  C4267  1  0.102600  0.572200  0.324300  0.5
  C  C4268  1  0.102600  0.427800  0.675700  0.5
  C  C4269  1  0.602600  0.072200  0.824300  0.5
  C  C4270  1  0.602600  0.927800  0.175700  0.5
  C  C4271  1  0.897400  0.427800  0.675700  0.5
  C  C4272  1  0.897400  0.572200  0.324300  0.5
  C  C4273  1  0.397400  0.927800  0.175700  0.5
  C  C4274  1  0.397400  0.072200  0.824300  0.5
  C  C4275  1  0.089500  0.583600  0.329900  0.5
  C  C4276  1  0.089500  0.416400  0.670100  0.5
  C  C4277  1  0.589500  0.083600  0.829900  0.5
  C  C4278  1  0.589500  0.916400  0.170100  0.5
  C  C4279  1  0.910500  0.416400  0.670100  0.5
  C  C4280  1  0.910500  0.583600  0.329900  0.5
  C  C4281  1  0.410500  0.916400  0.170100  0.5
  C  C4282  1  0.410500  0.083600  0.829900  0.5
  C  C4283  1  0.095500  0.600300  0.335000  0.5
  C  C4284  1  0.095500  0.399700  0.665000  0.5
  C  C4285  1  0.595500  0.100300  0.835000  0.5
  C  C4286  1  0.595500  0.899700  0.165000  0.5
  C  C4287  1  0.904500  0.399700  0.665000  0.5
  C  C4288  1  0.904500  0.600300  0.335000  0.5
  C  C4289  1  0.404500  0.899700  0.165000  0.5
  C  C4290  1  0.404500  0.100300  0.835000  0.5
  C  C4291  1  0.112700  0.606300  0.332400  0.5
  C  C4292  1  0.112700  0.393700  0.667600  0.5
  C  C4293  1  0.612700  0.106300  0.832400  0.5
  C  C4294  1  0.612700  0.893700  0.167600  0.5
  C  C4295  1  0.887300  0.393700  0.667600  0.5
  C  C4296  1  0.887300  0.606300  0.332400  0.5
  C  C4297  1  0.387300  0.893700  0.167600  0.5
  C  C4298  1  0.387300  0.106300  0.832400  0.5
  C  C4299  1  0.071200  0.578900  0.329700  0.5
  C  C4300  1  0.071200  0.421100  0.670300  0.5
  C  C4301  1  0.571200  0.078900  0.829700  0.5
  C  C4302  1  0.571200  0.921100  0.170300  0.5
  C  C4303  1  0.928800  0.421100  0.670300  0.5
  C  C4304  1  0.928800  0.578900  0.329700  0.5
  C  C4305  1  0.428800  0.921100  0.170300  0.5
  C  C4306  1  0.428800  0.078900  0.829700  0.5
  C  C4307  1  0.062000  0.576800  0.341300  0.5
  C  C4308  1  0.062000  0.423200  0.658700  0.5
  C  C4309  1  0.562000  0.076800  0.841300  0.5
  C  C4310  1  0.562000  0.923200  0.158700  0.5
  C  C4311  1  0.938000  0.423200  0.658700  0.5
  C  C4312  1  0.938000  0.576800  0.341300  0.5
  C  C4313  1  0.438000  0.923200  0.158700  0.5
  C  C4314  1  0.438000  0.076800  0.841300  0.5
  C  C4315  1  0.044100  0.572100  0.341100  0.5
  C  C4316  1  0.044100  0.427900  0.658900  0.5
  C  C4317  1  0.544100  0.072100  0.841100  0.5
  C  C4318  1  0.544100  0.927900  0.158900  0.5
  C  C4319  1  0.955900  0.427900  0.658900  0.5
  C  C4320  1  0.955900  0.572100  0.341100  0.5
  C  C4321  1  0.455900  0.927900  0.158900  0.5
  C  C4322  1  0.455900  0.072100  0.841100  0.5
  C  C4323  1  0.035100  0.569600  0.329100  0.5
  C  C4324  1  0.035100  0.430400  0.670900  0.5
  C  C4325  1  0.535100  0.069600  0.829100  0.5
  C  C4326  1  0.535100  0.930400  0.170900  0.5
  C  C4327  1  0.964900  0.430400  0.670900  0.5
  C  C4328  1  0.964900  0.569600  0.329100  0.5
  C  C4329  1  0.464900  0.930400  0.170900  0.5
  C  C4330  1  0.464900  0.069600  0.829100  0.5
  C  C4331  1  0.044000  0.570600  0.317200  0.5
  C  C4332  1  0.044000  0.429400  0.682800  0.5
  C  C4333  1  0.544000  0.070600  0.817200  0.5
  C  C4334  1  0.544000  0.929400  0.182800  0.5
  C  C4335  1  0.956000  0.429400  0.682800  0.5
  C  C4336  1  0.956000  0.570600  0.317200  0.5
  C  C4337  1  0.456000  0.929400  0.182800  0.5
  C  C4338  1  0.456000  0.070600  0.817200  0.5
  C  C4339  1  0.061700  0.575900  0.317700  0.5
  C  C4340  1  0.061700  0.424100  0.682300  0.5
  C  C4341  1  0.561700  0.075900  0.817700  0.5
  C  C4342  1  0.561700  0.924100  0.182300  0.5
  C  C4343  1  0.938300  0.424100  0.682300  0.5
  C  C4344  1  0.938300  0.575900  0.317700  0.5
  C  C4345  1  0.438300  0.924100  0.182300  0.5
  C  C4346  1  0.438300  0.075900  0.817700  0.5
  C  C4347  1  0.070500  0.579000  0.354100  0.5
  C  C4348  1  0.070500  0.421000  0.645900  0.5
  C  C4349  1  0.570500  0.079000  0.854100  0.5
  C  C4350  1  0.570500  0.921000  0.145900  0.5
  C  C4351  1  0.929500  0.421000  0.645900  0.5
  C  C4352  1  0.929500  0.579000  0.354100  0.5
  C  C4353  1  0.429500  0.921000  0.145900  0.5
  C  C4354  1  0.429500  0.079000  0.854100  0.5
  C  C4355  1  0.035000  0.570100  0.353200  0.5
  C  C4356  1  0.035000  0.429900  0.646800  0.5
  C  C4357  1  0.535000  0.070100  0.853200  0.5
  C  C4358  1  0.535000  0.929900  0.146800  0.5
  C  C4359  1  0.965000  0.429900  0.646800  0.5
  C  C4360  1  0.965000  0.570100  0.353200  0.5
  C  C4361  1  0.465000  0.929900  0.146800  0.5
  C  C4362  1  0.465000  0.070100  0.853200  0.5
  C  C4363  1  0.034400  0.568000  0.304800  0.5
  C  C4364  1  0.034400  0.432000  0.695200  0.5
  C  C4365  1  0.534400  0.068000  0.804800  0.5
  C  C4366  1  0.534400  0.932000  0.195200  0.5
  C  C4367  1  0.965600  0.432000  0.695200  0.5
  C  C4368  1  0.965600  0.568000  0.304800  0.5
  C  C4369  1  0.465600  0.932000  0.195200  0.5
  C  C4370  1  0.465600  0.068000  0.804800  0.5
  C  C4371  1  0.069300  0.578300  0.305100  0.5
  C  C4372  1  0.069300  0.421700  0.694900  0.5
  C  C4373  1  0.569300  0.078300  0.805100  0.5
  C  C4374  1  0.569300  0.921700  0.194900  0.5
  C  C4375  1  0.930700  0.421700  0.694900  0.5
  C  C4376  1  0.930700  0.578300  0.305100  0.5
  C  C4377  1  0.430700  0.921700  0.194900  0.5
  C  C4378  1  0.430700  0.078300  0.805100  0.5
  C  C4379  1  0.017100  0.564500  0.328400  0.5
  C  C4380  1  0.017100  0.435500  0.671600  0.5
  C  C4381  1  0.517100  0.064500  0.828400  0.5
  C  C4382  1  0.517100  0.935500  0.171600  0.5
  C  C4383  1  0.982900  0.435500  0.671600  0.5
  C  C4384  1  0.982900  0.564500  0.328400  0.5
  C  C4385  1  0.482900  0.935500  0.171600  0.5
  C  C4386  1  0.482900  0.064500  0.828400  0.5
  C  C4387  1  0.011500  0.548000  0.322500  0.5
  C  C4388  1  0.011500  0.452000  0.677500  0.5
  C  C4389  1  0.511500  0.048000  0.822500  0.5
  C  C4390  1  0.511500  0.952000  0.177500  0.5
  C  C4391  1  0.988500  0.452000  0.677500  0.5
  C  C4392  1  0.988500  0.548000  0.322500  0.5
  C  C4393  1  0.488500  0.952000  0.177500  0.5
  C  C4394  1  0.488500  0.048000  0.822500  0.5
  C  C4395  1  0.883500  0.568400  0.324400  0.5
  C  C4396  1  0.883500  0.431600  0.675600  0.5
  C  C4397  1  0.383500  0.068400  0.824400  0.5
  C  C4398  1  0.383500  0.931600  0.175600  0.5
  C  C4399  1  0.116500  0.431600  0.675600  0.5
  C  C4400  1  0.116500  0.568400  0.324400  0.5
  C  C4401  1  0.616500  0.931600  0.175600  0.5
  C  C4402  1  0.616500  0.068400  0.824400  0.5
  C  C4403  1  0.902000  0.566800  0.323300  0.5
  C  C4404  1  0.902000  0.433200  0.676700  0.5
  C  C4405  1  0.402000  0.066800  0.823300  0.5
  C  C4406  1  0.402000  0.933200  0.176700  0.5
  C  C4407  1  0.098000  0.433200  0.676700  0.5
  C  C4408  1  0.098000  0.566800  0.323300  0.5
  C  C4409  1  0.598000  0.933200  0.176700  0.5
  C  C4410  1  0.598000  0.066800  0.823300  0.5
  C  C4411  1  0.912900  0.579800  0.329700  0.5
  C  C4412  1  0.912900  0.420200  0.670300  0.5
  C  C4413  1  0.412900  0.079800  0.829700  0.5
  C  C4414  1  0.412900  0.920200  0.170300  0.5
  C  C4415  1  0.087100  0.420200  0.670300  0.5
  C  C4416  1  0.087100  0.579800  0.329700  0.5
  C  C4417  1  0.587100  0.920200  0.170300  0.5
  C  C4418  1  0.587100  0.079800  0.829700  0.5
  C  C4419  1  0.904400  0.594800  0.335600  0.5
  C  C4420  1  0.904400  0.405200  0.664400  0.5
  C  C4421  1  0.404400  0.094800  0.835600  0.5
  C  C4422  1  0.404400  0.905200  0.164400  0.5
  C  C4423  1  0.095600  0.405200  0.664400  0.5
  C  C4424  1  0.095600  0.594800  0.335600  0.5
  C  C4425  1  0.595600  0.905200  0.164400  0.5
  C  C4426  1  0.595600  0.094800  0.835600  0.5
  C  C4427  1  0.885700  0.595000  0.336700  0.5
  C  C4428  1  0.885700  0.405000  0.663300  0.5
  C  C4429  1  0.385700  0.095000  0.836700  0.5
  C  C4430  1  0.385700  0.905000  0.163300  0.5
  C  C4431  1  0.114300  0.405000  0.663300  0.5
  C  C4432  1  0.114300  0.595000  0.336700  0.5
  C  C4433  1  0.614300  0.905000  0.163300  0.5
  C  C4434  1  0.614300  0.095000  0.836700  0.5
  C  C4435  1  0.931500  0.577200  0.329800  0.5
  C  C4436  1  0.931500  0.422800  0.670200  0.5
  C  C4437  1  0.431500  0.077200  0.829800  0.5
  C  C4438  1  0.431500  0.922800  0.170200  0.5
  C  C4439  1  0.068500  0.422800  0.670200  0.5
  C  C4440  1  0.068500  0.577200  0.329800  0.5
  C  C4441  1  0.568500  0.922800  0.170200  0.5
  C  C4442  1  0.568500  0.077200  0.829800  0.5
  C  C4443  1  0.941900  0.583700  0.320200  0.5
  C  C4444  1  0.941900  0.416300  0.679800  0.5
  C  C4445  1  0.441900  0.083700  0.820200  0.5
  C  C4446  1  0.441900  0.916300  0.179800  0.5
  C  C4447  1  0.058100  0.416300  0.679800  0.5
  C  C4448  1  0.058100  0.583700  0.320200  0.5
  C  C4449  1  0.558100  0.916300  0.179800  0.5
  C  C4450  1  0.558100  0.083700  0.820200  0.5
  C  C4451  1  0.959500  0.579000  0.317900  0.5
  C  C4452  1  0.959500  0.421000  0.682100  0.5
  C  C4453  1  0.459500  0.079000  0.817900  0.5
  C  C4454  1  0.459500  0.921000  0.182100  0.5
  C  C4455  1  0.040500  0.421000  0.682100  0.5
  C  C4456  1  0.040500  0.579000  0.317900  0.5
  C  C4457  1  0.540500  0.921000  0.182100  0.5
  C  C4458  1  0.540500  0.079000  0.817900  0.5
  C  C4459  1  0.966700  0.566000  0.324700  0.5
  C  C4460  1  0.966700  0.434000  0.675300  0.5
  C  C4461  1  0.466700  0.066000  0.824700  0.5
  C  C4462  1  0.466700  0.934000  0.175300  0.5
  C  C4463  1  0.033300  0.434000  0.675300  0.5
  C  C4464  1  0.033300  0.566000  0.324700  0.5
  C  C4465  1  0.533300  0.934000  0.175300  0.5
  C  C4466  1  0.533300  0.066000  0.824700  0.5
  C  C4467  1  0.957000  0.560400  0.335100  0.5
  C  C4468  1  0.957000  0.439600  0.664900  0.5
  C  C4469  1  0.457000  0.060400  0.835100  0.5
  C  C4470  1  0.457000  0.939600  0.164900  0.5
  C  C4471  1  0.043000  0.439600  0.664900  0.5
  C  C4472  1  0.043000  0.560400  0.335100  0.5
  C  C4473  1  0.543000  0.939600  0.164900  0.5
  C  C4474  1  0.543000  0.060400  0.835100  0.5
  C  C4475  1  0.939100  0.564600  0.336800  0.5
  C  C4476  1  0.939100  0.435400  0.663200  0.5
  C  C4477  1  0.439100  0.064600  0.836800  0.5
  C  C4478  1  0.439100  0.935400  0.163200  0.5
  C  C4479  1  0.060900  0.435400  0.663200  0.5
  C  C4480  1  0.060900  0.564600  0.336800  0.5
  C  C4481  1  0.560900  0.935400  0.163200  0.5
  C  C4482  1  0.560900  0.064600  0.836800  0.5
  C  C4483  1  0.934500  0.596100  0.312300  0.5
  C  C4484  1  0.934500  0.403900  0.687700  0.5
  C  C4485  1  0.434500  0.096100  0.812300  0.5
  C  C4486  1  0.434500  0.903900  0.187700  0.5
  C  C4487  1  0.065500  0.403900  0.687700  0.5
  C  C4488  1  0.065500  0.596100  0.312300  0.5
  C  C4489  1  0.565500  0.903900  0.187700  0.5
  C  C4490  1  0.565500  0.096100  0.812300  0.5
  C  C4491  1  0.968500  0.586300  0.307400  0.5
  C  C4492  1  0.968500  0.413700  0.692600  0.5
  C  C4493  1  0.468500  0.086300  0.807400  0.5
  C  C4494  1  0.468500  0.913700  0.192600  0.5
  C  C4495  1  0.031500  0.413700  0.692600  0.5
  C  C4496  1  0.031500  0.586300  0.307400  0.5
  C  C4497  1  0.531500  0.913700  0.192600  0.5
  C  C4498  1  0.531500  0.086300  0.807400  0.5
  C  C4499  1  0.965200  0.549000  0.343400  0.5
  C  C4500  1  0.965200  0.451000  0.656600  0.5
  C  C4501  1  0.465200  0.049000  0.843400  0.5
  C  C4502  1  0.465200  0.951000  0.156600  0.5
  C  C4503  1  0.034800  0.451000  0.656600  0.5
  C  C4504  1  0.034800  0.549000  0.343400  0.5
  C  C4505  1  0.534800  0.951000  0.156600  0.5
  C  C4506  1  0.534800  0.049000  0.843400  0.5
  C  C4507  1  0.929300  0.558000  0.347200  0.5
  C  C4508  1  0.929300  0.442000  0.652800  0.5
  C  C4509  1  0.429300  0.058000  0.847200  0.5
  C  C4510  1  0.429300  0.942000  0.152800  0.5
  C  C4511  1  0.070700  0.442000  0.652800  0.5
  C  C4512  1  0.070700  0.558000  0.347200  0.5
  C  C4513  1  0.570700  0.942000  0.152800  0.5
  C  C4514  1  0.570700  0.058000  0.847200  0.5
  C  C4515  1  0.985200  0.563100  0.324100  0.5
  C  C4516  1  0.985200  0.436900  0.675900  0.5
  C  C4517  1  0.485200  0.063100  0.824100  0.5
  C  C4518  1  0.485200  0.936900  0.175900  0.5
  C  C4519  1  0.014800  0.436900  0.675900  0.5
  C  C4520  1  0.014800  0.563100  0.324100  0.5
  C  C4521  1  0.514800  0.936900  0.175900  0.5
  C  C4522  1  0.514800  0.063100  0.824100  0.5
  C  C4523  1  0.993500  0.547200  0.319900  0.5
  C  C4524  1  0.993500  0.452800  0.680100  0.5
  C  C4525  1  0.493500  0.047200  0.819900  0.5
  C  C4526  1  0.493500  0.952800  0.180100  0.5
  C  C4527  1  0.006500  0.452800  0.680100  0.5
  C  C4528  1  0.006500  0.547200  0.319900  0.5
  C  C4529  1  0.506500  0.952800  0.180100  0.5
  C  C4530  1  0.506500  0.047200  0.819900  0.5
  S  S4531  1  0.728400  0.962200  0.209100  1.0
  S  S4532  1  0.728400  0.037800  0.790900  1.0
  S  S4533  1  0.228400  0.462200  0.709100  1.0
  S  S4534  1  0.228400  0.537800  0.290900  1.0
  S  S4535  1  0.271600  0.037800  0.790900  1.0
  S  S4536  1  0.271600  0.962200  0.209100  1.0
  S  S4537  1  0.771600  0.537800  0.290900  1.0
  S  S4538  1  0.771600  0.462200  0.709100  1.0
  S  S4539  1  0.913400  0.841560  0.159560  1.0
  S  S4540  1  0.913400  0.158440  0.840440  1.0
  S  S4541  1  0.413400  0.341560  0.659560  1.0
  S  S4542  1  0.413400  0.658440  0.340440  1.0
  S  S4543  1  0.086600  0.158440  0.840440  1.0
  S  S4544  1  0.086600  0.841560  0.159560  1.0
  S  S4545  1  0.586600  0.658440  0.340440  1.0
  S  S4546  1  0.586600  0.341560  0.659560  1.0
  S  S4547  1  0.913500  0.654000  0.245700  1.0
  S  S4548  1  0.913500  0.346000  0.754300  1.0
  S  S4549  1  0.413500  0.154000  0.745700  1.0
  S  S4550  1  0.413500  0.846000  0.254300  1.0
  S  S4551  1  0.086500  0.346000  0.754300  1.0
  S  S4552  1  0.086500  0.654000  0.245700  1.0
  S  S4553  1  0.586500  0.846000  0.254300  1.0
  S  S4554  1  0.586500  0.154000  0.745700  1.0
  S  S4555  1  0.718100  0.643430  0.341530  1.0
  S  S4556  1  0.718100  0.356570  0.658470  1.0
  S  S4557  1  0.218100  0.143430  0.841530  1.0
  S  S4558  1  0.218100  0.856570  0.158470  1.0
  S  S4559  1  0.281900  0.356570  0.658470  1.0
  S  S4560  1  0.281900  0.643430  0.341530  1.0
  S  S4561  1  0.781900  0.856570  0.158470  1.0
  S  S4562  1  0.781900  0.143430  0.841530  1.0
  S  S4563  1  0.614400  0.848240  0.326140  1.0
  S  S4564  1  0.614400  0.151760  0.673860  1.0
  S  S4565  1  0.114400  0.348240  0.826140  1.0
  S  S4566  1  0.114400  0.651760  0.173860  1.0
  S  S4567  1  0.385600  0.151760  0.673860  1.0
  S  S4568  1  0.385600  0.848240  0.326140  1.0
  S  S4569  1  0.885600  0.651760  0.173860  1.0
  S  S4570  1  0.885600  0.348240  0.826140  1.0
  S  S4571  1  0.570800  0.862100  0.449900  1.0
  S  S4572  1  0.570800  0.137900  0.550100  1.0
  S  S4573  1  0.070800  0.362100  0.949900  1.0
  S  S4574  1  0.070800  0.637900  0.050100  1.0
  S  S4575  1  0.429200  0.137900  0.550100  1.0
  S  S4576  1  0.429200  0.862100  0.449900  1.0
  S  S4577  1  0.929200  0.637900  0.050100  1.0
  S  S4578  1  0.929200  0.362100  0.949900  1.0
  S  S4579  1  0.573400  0.001400  0.392100  1.0
  S  S4580  1  0.573400  0.998600  0.607900  1.0
  S  S4581  1  0.073400  0.501400  0.892100  1.0
  S  S4582  1  0.073400  0.498600  0.107900  1.0
  S  S4583  1  0.426600  0.998600  0.607900  1.0
  S  S4584  1  0.426600  0.001400  0.392100  1.0
  S  S4585  1  0.926600  0.498600  0.107900  1.0
  S  S4586  1  0.926600  0.501400  0.892100  1.0
  S  S4587  1  0.673000  0.663400  0.465700  1.0
  S  S4588  1  0.673000  0.336600  0.534300  1.0
  S  S4589  1  0.173000  0.163400  0.965700  1.0
  S  S4590  1  0.173000  0.836600  0.034300  1.0
  S  S4591  1  0.327000  0.336600  0.534300  1.0
  S  S4592  1  0.327000  0.663400  0.465700  1.0
  S  S4593  1  0.827000  0.836600  0.034300  1.0
  S  S4594  1  0.827000  0.163400  0.965700  1.0
  S  S4595  1  0.809800  0.572100  0.428000  1.0
  S  S4596  1  0.809800  0.427900  0.572000  1.0
  S  S4597  1  0.309800  0.072100  0.928000  1.0
  S  S4598  1  0.309800  0.927900  0.072000  1.0
  S  S4599  1  0.190200  0.427900  0.572000  1.0
  S  S4600  1  0.190200  0.572100  0.428000  1.0
  S  S4601  1  0.690200  0.927900  0.072000  1.0
  S  S4602  1  0.690200  0.072100  0.928000  1.0
  S  S4603  1  0.881600  0.580300  0.593300  1.0
  S  S4604  1  0.881600  0.419700  0.406700  1.0
  S  S4605  1  0.381600  0.080300  0.093300  1.0
  S  S4606  1  0.381600  0.919700  0.906700  1.0
  S  S4607  1  0.118400  0.419700  0.406700  1.0
  S  S4608  1  0.118400  0.580300  0.593300  1.0
  S  S4609  1  0.618400  0.919700  0.906700  1.0
  S  S4610  1  0.618400  0.080300  0.093300  1.0
  S  S4611  1  0.751400  0.682500  0.632200  1.0
  S  S4612  1  0.751400  0.317500  0.367800  1.0
  S  S4613  1  0.251400  0.182500  0.132200  1.0
  S  S4614  1  0.251400  0.817500  0.867800  1.0
  S  S4615  1  0.248600  0.317500  0.367800  1.0
  S  S4616  1  0.248600  0.682500  0.632200  1.0
  S  S4617  1  0.748600  0.817500  0.867800  1.0
  S  S4618  1  0.748600  0.182500  0.132200  1.0
  S  S4619  1  0.683800  0.888000  0.722300  1.0
  S  S4620  1  0.683800  0.112000  0.277700  1.0
  S  S4621  1  0.183800  0.388000  0.222300  1.0
  S  S4622  1  0.183800  0.612000  0.777700  1.0
  S  S4623  1  0.316200  0.112000  0.277700  1.0
  S  S4624  1  0.316200  0.888000  0.722300  1.0
  S  S4625  1  0.816200  0.612000  0.777700  1.0
  S  S4626  1  0.816200  0.388000  0.222300  1.0
  S  S4627  1  0.889200  0.682500  0.707900  1.0
  S  S4628  1  0.889200  0.317500  0.292100  1.0
  S  S4629  1  0.389200  0.182500  0.207900  1.0
  S  S4630  1  0.389200  0.817500  0.792100  1.0
  S  S4631  1  0.110800  0.317500  0.292100  1.0
  S  S4632  1  0.110800  0.682500  0.707900  1.0
  S  S4633  1  0.610800  0.817500  0.792100  1.0
  S  S4634  1  0.610800  0.182500  0.207900  1.0
  S  S4635  1  0.817100  0.889300  0.799200  1.0
  S  S4636  1  0.817100  0.110700  0.200800  1.0
  S  S4637  1  0.317100  0.389300  0.299200  1.0
  S  S4638  1  0.317100  0.610700  0.700800  1.0
  S  S4639  1  0.182900  0.110700  0.200800  1.0
  S  S4640  1  0.182900  0.889300  0.799200  1.0
  S  S4641  1  0.682900  0.610700  0.700800  1.0
  S  S4642  1  0.682900  0.389300  0.299200  1.0
  S  S4643  1  0.000000  0.984200  0.141900  1.0
  S  S4644  1  0.000000  0.015800  0.858100  1.0
  S  S4645  1  0.500000  0.484200  0.641900  1.0
  S  S4646  1  0.500000  0.515800  0.358100  1.0
  S  S4647  1  0.000000  0.577500  0.330300  1.0
  S  S4648  1  0.000000  0.422500  0.669700  1.0
  S  S4649  1  0.500000  0.077500  0.830300  1.0
  S  S4650  1  0.500000  0.922500  0.169700  1.0
  N  N4651  1  0.645800  0.972200  0.275900  1.0
  N  N4652  1  0.645800  0.027800  0.724100  1.0
  N  N4653  1  0.145800  0.472200  0.775900  1.0
  N  N4654  1  0.145800  0.527800  0.224100  1.0
  N  N4655  1  0.354200  0.027800  0.724100  1.0
  N  N4656  1  0.354200  0.972200  0.275900  1.0
  N  N4657  1  0.854200  0.527800  0.224100  1.0
  N  N4658  1  0.854200  0.472200  0.775900  1.0
  N  N4659  1  0.833600  0.970400  0.166100  1.0
  N  N4660  1  0.833600  0.029600  0.833900  1.0
  N  N4661  1  0.333600  0.470400  0.666100  1.0
  N  N4662  1  0.333600  0.529600  0.333900  1.0
  N  N4663  1  0.166400  0.029600  0.833900  1.0
  N  N4664  1  0.166400  0.970400  0.166100  1.0
  N  N4665  1  0.666400  0.529600  0.333900  1.0
  N  N4666  1  0.666400  0.470400  0.666100  1.0
  N  N4667  1  0.982300  0.750700  0.183700  1.0
  N  N4668  1  0.982300  0.249300  0.816300  1.0
  N  N4669  1  0.482300  0.250700  0.683700  1.0
  N  N4670  1  0.482300  0.749300  0.316300  1.0
  N  N4671  1  0.017700  0.249300  0.816300  1.0
  N  N4672  1  0.017700  0.750700  0.183700  1.0
  N  N4673  1  0.517700  0.749300  0.316300  1.0
  N  N4674  1  0.517700  0.250700  0.683700  1.0
  N  N4675  1  0.862200  0.951600  0.158100  1.0
  N  N4676  1  0.862200  0.048400  0.841900  1.0
  N  N4677  1  0.362200  0.451600  0.658100  1.0
  N  N4678  1  0.362200  0.548400  0.341900  1.0
  N  N4679  1  0.137800  0.048400  0.841900  1.0
  N  N4680  1  0.137800  0.951600  0.158100  1.0
  N  N4681  1  0.637800  0.548400  0.341900  1.0
  N  N4682  1  0.637800  0.451600  0.658100  1.0
  N  N4683  1  0.981400  0.725300  0.197900  1.0
  N  N4684  1  0.981400  0.274700  0.802100  1.0
  N  N4685  1  0.481400  0.225300  0.697900  1.0
  N  N4686  1  0.481400  0.774700  0.302100  1.0
  N  N4687  1  0.018600  0.274700  0.802100  1.0
  N  N4688  1  0.018600  0.725300  0.197900  1.0
  N  N4689  1  0.518600  0.774700  0.302100  1.0
  N  N4690  1  0.518600  0.225300  0.697900  1.0
  N  N4691  1  0.858400  0.600200  0.311600  1.0
  N  N4692  1  0.858400  0.399800  0.688400  1.0
  N  N4693  1  0.358400  0.100200  0.811600  1.0
  N  N4694  1  0.358400  0.899800  0.188400  1.0
  N  N4695  1  0.141600  0.399800  0.688400  1.0
  N  N4696  1  0.141600  0.600200  0.311600  1.0
  N  N4697  1  0.641600  0.899800  0.188400  1.0
  N  N4698  1  0.641600  0.100200  0.811600  1.0
  N  N4699  1  0.634500  0.724600  0.378200  1.0
  N  N4700  1  0.634500  0.275400  0.621800  1.0
  N  N4701  1  0.134500  0.224600  0.878200  1.0
  N  N4702  1  0.134500  0.775400  0.121800  1.0
  N  N4703  1  0.365500  0.275400  0.621800  1.0
  N  N4704  1  0.365500  0.724600  0.378200  1.0
  N  N4705  1  0.865500  0.775400  0.121800  1.0
  N  N4706  1  0.865500  0.224600  0.878200  1.0
  N  N4707  1  0.829500  0.596200  0.325800  1.0
  N  N4708  1  0.829500  0.403800  0.674200  1.0
  N  N4709  1  0.329500  0.096200  0.825800  1.0
  N  N4710  1  0.329500  0.903800  0.174200  1.0
  N  N4711  1  0.170500  0.403800  0.674200  1.0
  N  N4712  1  0.170500  0.596200  0.325800  1.0
  N  N4713  1  0.670500  0.903800  0.174200  1.0
  N  N4714  1  0.670500  0.096200  0.825800  1.0
  N  N4715  1  0.628300  0.956700  0.294300  1.0
  N  N4716  1  0.628300  0.043300  0.705700  1.0
  N  N4717  1  0.128300  0.456700  0.794300  1.0
  N  N4718  1  0.128300  0.543300  0.205700  1.0
  N  N4719  1  0.371700  0.043300  0.705700  1.0
  N  N4720  1  0.371700  0.956700  0.294300  1.0
  N  N4721  1  0.871700  0.543300  0.205700  1.0
  N  N4722  1  0.871700  0.456700  0.794300  1.0
  N  N4723  1  0.621500  0.755700  0.375600  1.0
  N  N4724  1  0.621500  0.244300  0.624400  1.0
  N  N4725  1  0.121500  0.255700  0.875600  1.0
  N  N4726  1  0.121500  0.744300  0.124400  1.0
  N  N4727  1  0.378500  0.244300  0.624400  1.0
  N  N4728  1  0.378500  0.755700  0.375600  1.0
  N  N4729  1  0.878500  0.744300  0.124400  1.0
  N  N4730  1  0.878500  0.255700  0.875600  1.0
  N  N4731  1  0.555100  0.977000  0.494500  1.0
  N  N4732  1  0.555100  0.023000  0.505500  1.0
  N  N4733  1  0.055100  0.477000  0.994500  1.0
  N  N4734  1  0.055100  0.523000  0.005500  1.0
  N  N4735  1  0.444900  0.023000  0.505500  1.0
  N  N4736  1  0.444900  0.977000  0.494500  1.0
  N  N4737  1  0.944900  0.523000  0.005500  1.0
  N  N4738  1  0.944900  0.477000  0.994500  1.0
  N  N4739  1  0.614300  0.758000  0.399900  1.0
  N  N4740  1  0.614300  0.242000  0.600100  1.0
  N  N4741  1  0.114300  0.258000  0.899900  1.0
  N  N4742  1  0.114300  0.742000  0.100100  1.0
  N  N4743  1  0.385700  0.242000  0.600100  1.0
  N  N4744  1  0.385700  0.758000  0.399900  1.0
  N  N4745  1  0.885700  0.742000  0.100100  1.0
  N  N4746  1  0.885700  0.258000  0.899900  1.0
  N  N4747  1  0.554000  0.003600  0.482100  1.0
  N  N4748  1  0.554000  0.996400  0.517900  1.0
  N  N4749  1  0.054000  0.503600  0.982100  1.0
  N  N4750  1  0.054000  0.496400  0.017900  1.0
  N  N4751  1  0.446000  0.996400  0.517900  1.0
  N  N4752  1  0.446000  0.003600  0.482100  1.0
  N  N4753  1  0.946000  0.496400  0.017900  1.0
  N  N4754  1  0.946000  0.503600  0.982100  1.0
  N  N4755  1  0.620400  0.986700  0.306600  1.0
  N  N4756  1  0.620400  0.013300  0.693400  1.0
  N  N4757  1  0.120400  0.486700  0.806600  1.0
  N  N4758  1  0.120400  0.513300  0.193400  1.0
  N  N4759  1  0.379600  0.013300  0.693400  1.0
  N  N4760  1  0.379600  0.986700  0.306600  1.0
  N  N4761  1  0.879600  0.513300  0.193400  1.0
  N  N4762  1  0.879600  0.486700  0.806600  1.0
  N  N4763  1  0.747500  0.614600  0.523400  1.0
  N  N4764  1  0.747500  0.385400  0.476600  1.0
  N  N4765  1  0.247500  0.114600  0.023400  1.0
  N  N4766  1  0.247500  0.885400  0.976600  1.0
  N  N4767  1  0.252500  0.385400  0.476600  1.0
  N  N4768  1  0.252500  0.614600  0.523400  1.0
  N  N4769  1  0.752500  0.885400  0.976600  1.0
  N  N4770  1  0.752500  0.114600  0.023400  1.0
  N  N4771  1  0.628400  0.727800  0.403400  1.0
  N  N4772  1  0.628400  0.272200  0.596600  1.0
  N  N4773  1  0.128400  0.227800  0.903400  1.0
  N  N4774  1  0.128400  0.772200  0.096600  1.0
  N  N4775  1  0.371600  0.272200  0.596600  1.0
  N  N4776  1  0.371600  0.727800  0.403400  1.0
  N  N4777  1  0.871600  0.772200  0.096600  1.0
  N  N4778  1  0.871600  0.227800  0.903400  1.0
  N  N4779  1  0.772700  0.598000  0.516600  1.0
  N  N4780  1  0.772700  0.402000  0.483400  1.0
  N  N4781  1  0.272700  0.098000  0.016600  1.0
  N  N4782  1  0.272700  0.902000  0.983400  1.0
  N  N4783  1  0.227300  0.402000  0.483400  1.0
  N  N4784  1  0.227300  0.598000  0.516600  1.0
  N  N4785  1  0.727300  0.902000  0.983400  1.0
  N  N4786  1  0.727300  0.098000  0.016600  1.0
  N  N4787  1  0.848400  0.585600  0.342600  1.0
  N  N4788  1  0.848400  0.414400  0.657400  1.0
  N  N4789  1  0.348400  0.085600  0.842600  1.0
  N  N4790  1  0.348400  0.914400  0.157400  1.0
  N  N4791  1  0.151600  0.414400  0.657400  1.0
  N  N4792  1  0.151600  0.585600  0.342600  1.0
  N  N4793  1  0.651600  0.914400  0.157400  1.0
  N  N4794  1  0.651600  0.085600  0.842600  1.0
  N  N4795  1  0.784400  0.600100  0.540500  1.0
  N  N4796  1  0.784400  0.399900  0.459500  1.0
  N  N4797  1  0.284400  0.100100  0.040500  1.0
  N  N4798  1  0.284400  0.899900  0.959500  1.0
  N  N4799  1  0.215600  0.399900  0.459500  1.0
  N  N4800  1  0.215600  0.600100  0.540500  1.0
  N  N4801  1  0.715600  0.899900  0.959500  1.0
  N  N4802  1  0.715600  0.100100  0.040500  1.0
  N  N4803  1  0.982200  0.600300  0.645900  1.0
  N  N4804  1  0.982200  0.399700  0.354100  1.0
  N  N4805  1  0.482200  0.100300  0.145900  1.0
  N  N4806  1  0.482200  0.899700  0.854100  1.0
  N  N4807  1  0.017800  0.399700  0.354100  1.0
  N  N4808  1  0.017800  0.600300  0.645900  1.0
  N  N4809  1  0.517800  0.899700  0.854100  1.0
  N  N4810  1  0.517800  0.100300  0.145900  1.0
  N  N4811  1  0.760100  0.617300  0.547800  1.0
  N  N4812  1  0.760100  0.382700  0.452200  1.0
  N  N4813  1  0.260100  0.117300  0.047800  1.0
  N  N4814  1  0.260100  0.882700  0.952200  1.0
  N  N4815  1  0.239900  0.382700  0.452200  1.0
  N  N4816  1  0.239900  0.617300  0.547800  1.0
  N  N4817  1  0.739900  0.882700  0.952200  1.0
  N  N4818  1  0.739900  0.117300  0.047800  1.0
  N  N4819  1  0.769600  0.761900  0.709300  1.0
  N  N4820  1  0.769600  0.238100  0.290700  1.0
  N  N4821  1  0.269600  0.261900  0.209300  1.0
  N  N4822  1  0.269600  0.738100  0.790700  1.0
  N  N4823  1  0.230400  0.238100  0.290700  1.0
  N  N4824  1  0.230400  0.761900  0.709300  1.0
  N  N4825  1  0.730400  0.738100  0.790700  1.0
  N  N4826  1  0.730400  0.261900  0.209300  1.0
  N  N4827  1  0.759200  0.791500  0.722600  1.0
  N  N4828  1  0.759200  0.208500  0.277400  1.0
  N  N4829  1  0.259200  0.291500  0.222600  1.0
  N  N4830  1  0.259200  0.708500  0.777400  1.0
  N  N4831  1  0.240800  0.208500  0.277400  1.0
  N  N4832  1  0.240800  0.791500  0.722600  1.0
  N  N4833  1  0.740800  0.708500  0.777400  1.0
  N  N4834  1  0.740800  0.291500  0.222600  1.0
  N  N4835  1  0.637000  0.997800  0.710600  1.0
  N  N4836  1  0.637000  0.002200  0.289400  1.0
  N  N4837  1  0.137000  0.497800  0.210600  1.0
  N  N4838  1  0.137000  0.502200  0.789400  1.0
  N  N4839  1  0.363000  0.002200  0.289400  1.0
  N  N4840  1  0.363000  0.997800  0.710600  1.0
  N  N4841  1  0.863000  0.502200  0.789400  1.0
  N  N4842  1  0.863000  0.497800  0.210600  1.0
  N  N4843  1  0.982500  0.615600  0.667500  1.0
  N  N4844  1  0.982500  0.384400  0.332500  1.0
  N  N4845  1  0.482500  0.115600  0.167500  1.0
  N  N4846  1  0.482500  0.884400  0.832500  1.0
  N  N4847  1  0.017500  0.384400  0.332500  1.0
  N  N4848  1  0.017500  0.615600  0.667500  1.0
  N  N4849  1  0.517500  0.884400  0.832500  1.0
  N  N4850  1  0.517500  0.115600  0.167500  1.0
  N  N4851  1  0.795800  0.761100  0.725200  1.0
  N  N4852  1  0.795800  0.238900  0.274800  1.0
  N  N4853  1  0.295800  0.261100  0.225200  1.0
  N  N4854  1  0.295800  0.738900  0.774800  1.0
  N  N4855  1  0.204200  0.238900  0.274800  1.0
  N  N4856  1  0.204200  0.761100  0.725200  1.0
  N  N4857  1  0.704200  0.738900  0.774800  1.0
  N  N4858  1  0.704200  0.261100  0.225200  1.0
  N  N4859  1  0.785300  0.792000  0.738400  1.0
  N  N4860  1  0.785300  0.208000  0.261600  1.0
  N  N4861  1  0.285300  0.292000  0.238400  1.0
  N  N4862  1  0.285300  0.708000  0.761600  1.0
  N  N4863  1  0.214700  0.208000  0.261600  1.0
  N  N4864  1  0.214700  0.792000  0.738400  1.0
  N  N4865  1  0.714700  0.708000  0.761600  1.0
  N  N4866  1  0.714700  0.292000  0.238400  1.0
  N  N4867  1  0.851600  0.001500  0.837800  1.0
  N  N4868  1  0.851600  0.998500  0.162200  1.0
  N  N4869  1  0.351600  0.501500  0.337800  1.0
  N  N4870  1  0.351600  0.498500  0.662200  1.0
  N  N4871  1  0.148400  0.998500  0.162200  1.0
  N  N4872  1  0.148400  0.001500  0.837800  1.0
  N  N4873  1  0.648400  0.498500  0.662200  1.0
  N  N4874  1  0.648400  0.501500  0.337800  1.0
  N  N4875  1  0.118400  0.984200  0.153400  0.5
  N  N4876  1  0.118400  0.015800  0.846600  0.5
  N  N4877  1  0.618400  0.484200  0.653400  0.5
  N  N4878  1  0.618400  0.515800  0.346600  0.5
  N  N4879  1  0.881600  0.015800  0.846600  0.5
  N  N4880  1  0.881600  0.984200  0.153400  0.5
  N  N4881  1  0.381600  0.515800  0.346600  0.5
  N  N4882  1  0.381600  0.484200  0.653400  0.5
  N  N4883  1  0.879800  0.970700  0.156400  0.5
  N  N4884  1  0.879800  0.029300  0.843600  0.5
  N  N4885  1  0.379800  0.470700  0.656400  0.5
  N  N4886  1  0.379800  0.529300  0.343600  0.5
  N  N4887  1  0.120200  0.029300  0.843600  0.5
  N  N4888  1  0.120200  0.970700  0.156400  0.5
  N  N4889  1  0.620200  0.529300  0.343600  0.5
  N  N4890  1  0.620200  0.470700  0.656400  0.5
  N  N4891  1  0.124400  0.595200  0.326300  0.5
  N  N4892  1  0.124400  0.404800  0.673700  0.5
  N  N4893  1  0.624400  0.095200  0.826300  0.5
  N  N4894  1  0.624400  0.904800  0.173700  0.5
  N  N4895  1  0.875600  0.404800  0.673700  0.5
  N  N4896  1  0.875600  0.595200  0.326300  0.5
  N  N4897  1  0.375600  0.904800  0.173700  0.5
  N  N4898  1  0.375600  0.095200  0.826300  0.5
  N  N4899  1  0.875600  0.582000  0.331000  0.5
  N  N4900  1  0.875600  0.418000  0.669000  0.5
  N  N4901  1  0.375600  0.082000  0.831000  0.5
  N  N4902  1  0.375600  0.918000  0.169000  0.5
  N  N4903  1  0.124400  0.418000  0.669000  0.5
  N  N4904  1  0.124400  0.582000  0.331000  0.5
  N  N4905  1  0.624400  0.918000  0.169000  0.5
  N  N4906  1  0.624400  0.082000  0.831000  0.5
  O  O4907  1  0.727000  0.960900  0.255600  1.0
  O  O4908  1  0.727000  0.039100  0.744400  1.0
  O  O4909  1  0.227000  0.460900  0.755600  1.0
  O  O4910  1  0.227000  0.539100  0.244400  1.0
  O  O4911  1  0.273000  0.039100  0.744400  1.0
  O  O4912  1  0.273000  0.960900  0.255600  1.0
  O  O4913  1  0.773000  0.539100  0.244400  1.0
  O  O4914  1  0.773000  0.460900  0.755600  1.0
  O  O4915  1  0.783800  0.963100  0.221100  1.0
  O  O4916  1  0.783800  0.036900  0.778900  1.0
  O  O4917  1  0.283800  0.463100  0.721100  1.0
  O  O4918  1  0.283800  0.536900  0.278900  1.0
  O  O4919  1  0.216200  0.036900  0.778900  1.0
  O  O4920  1  0.216200  0.963100  0.221100  1.0
  O  O4921  1  0.716200  0.536900  0.278900  1.0
  O  O4922  1  0.716200  0.463100  0.721100  1.0
  O  O4923  1  0.748100  0.949900  0.143300  1.0
  O  O4924  1  0.748100  0.050100  0.856700  1.0
  O  O4925  1  0.248100  0.449900  0.643300  1.0
  O  O4926  1  0.248100  0.550100  0.356700  1.0
  O  O4927  1  0.251900  0.050100  0.856700  1.0
  O  O4928  1  0.251900  0.949900  0.143300  1.0
  O  O4929  1  0.751900  0.550100  0.356700  1.0
  O  O4930  1  0.751900  0.449900  0.643300  1.0
  O  O4931  1  0.942700  0.830800  0.194100  1.0
  O  O4932  1  0.942700  0.169200  0.805900  1.0
  O  O4933  1  0.442700  0.330800  0.694100  1.0
  O  O4934  1  0.442700  0.669200  0.305900  1.0
  O  O4935  1  0.057300  0.169200  0.805900  1.0
  O  O4936  1  0.057300  0.830800  0.194100  1.0
  O  O4937  1  0.557300  0.669200  0.305900  1.0
  O  O4938  1  0.557300  0.330800  0.694100  1.0
  O  O4939  1  0.886600  0.886100  0.194500  1.0
  O  O4940  1  0.886600  0.113900  0.805500  1.0
  O  O4941  1  0.386600  0.386100  0.694500  1.0
  O  O4942  1  0.386600  0.613900  0.305500  1.0
  O  O4943  1  0.113400  0.113900  0.805500  1.0
  O  O4944  1  0.113400  0.886100  0.194500  1.0
  O  O4945  1  0.613400  0.613900  0.305500  1.0
  O  O4946  1  0.613400  0.386100  0.694500  1.0
  O  O4947  1  0.865900  0.875300  0.112200  1.0
  O  O4948  1  0.865900  0.124700  0.887800  1.0
  O  O4949  1  0.365900  0.375300  0.612200  1.0
  O  O4950  1  0.365900  0.624700  0.387800  1.0
  O  O4951  1  0.134100  0.124700  0.887800  1.0
  O  O4952  1  0.134100  0.875300  0.112200  1.0
  O  O4953  1  0.634100  0.624700  0.387800  1.0
  O  O4954  1  0.634100  0.375300  0.612200  1.0
  O  O4955  1  0.941400  0.710700  0.253400  1.0
  O  O4956  1  0.941400  0.289300  0.746600  1.0
  O  O4957  1  0.441400  0.210700  0.753400  1.0
  O  O4958  1  0.441400  0.789300  0.246600  1.0
  O  O4959  1  0.058600  0.289300  0.746600  1.0
  O  O4960  1  0.058600  0.710700  0.253400  1.0
  O  O4961  1  0.558600  0.789300  0.246600  1.0
  O  O4962  1  0.558600  0.210700  0.753400  1.0
  O  O4963  1  0.889000  0.674400  0.285300  1.0
  O  O4964  1  0.889000  0.325600  0.714700  1.0
  O  O4965  1  0.389000  0.174400  0.785300  1.0
  O  O4966  1  0.389000  0.825600  0.214700  1.0
  O  O4967  1  0.111000  0.325600  0.714700  1.0
  O  O4968  1  0.111000  0.674400  0.285300  1.0
  O  O4969  1  0.611000  0.825600  0.214700  1.0
  O  O4970  1  0.611000  0.174400  0.785300  1.0
  O  O4971  1  0.883700  0.575400  0.246400  1.0
  O  O4972  1  0.883700  0.424600  0.753600  1.0
  O  O4973  1  0.383700  0.075400  0.746400  1.0
  O  O4974  1  0.383700  0.924600  0.253600  1.0
  O  O4975  1  0.116300  0.424600  0.753600  1.0
  O  O4976  1  0.116300  0.575400  0.246400  1.0
  O  O4977  1  0.616300  0.924600  0.253600  1.0
  O  O4978  1  0.616300  0.075400  0.746400  1.0
  O  O4979  1  0.713300  0.702900  0.360900  1.0
  O  O4980  1  0.713300  0.297100  0.639100  1.0
  O  O4981  1  0.213300  0.202900  0.860900  1.0
  O  O4982  1  0.213300  0.797100  0.139100  1.0
  O  O4983  1  0.286700  0.297100  0.639100  1.0
  O  O4984  1  0.286700  0.702900  0.360900  1.0
  O  O4985  1  0.786700  0.797100  0.139100  1.0
  O  O4986  1  0.786700  0.202900  0.860900  1.0
  O  O4987  1  0.769300  0.665400  0.341000  1.0
  O  O4988  1  0.769300  0.334600  0.659000  1.0
  O  O4989  1  0.269300  0.165400  0.841000  1.0
  O  O4990  1  0.269300  0.834600  0.159000  1.0
  O  O4991  1  0.230700  0.334600  0.659000  1.0
  O  O4992  1  0.230700  0.665400  0.341000  1.0
  O  O4993  1  0.730700  0.834600  0.159000  1.0
  O  O4994  1  0.730700  0.165400  0.841000  1.0
  O  O4995  1  0.656400  0.891900  0.330000  1.0
  O  O4996  1  0.656400  0.108100  0.670000  1.0
  O  O4997  1  0.156400  0.391900  0.830000  1.0
  O  O4998  1  0.156400  0.608100  0.170000  1.0
  O  O4999  1  0.343600  0.108100  0.670000  1.0
  O  O5000  1  0.343600  0.891900  0.330000  1.0
  O  O5001  1  0.843600  0.608100  0.170000  1.0
  O  O5002  1  0.843600  0.391900  0.830000  1.0
  O  O5003  1  0.646500  0.830800  0.357700  1.0
  O  O5004  1  0.646500  0.169200  0.642300  1.0
  O  O5005  1  0.146500  0.330800  0.857700  1.0
  O  O5006  1  0.146500  0.669200  0.142300  1.0
  O  O5007  1  0.353500  0.169200  0.642300  1.0
  O  O5008  1  0.353500  0.830800  0.357700  1.0
  O  O5009  1  0.853500  0.669200  0.142300  1.0
  O  O5010  1  0.853500  0.330800  0.857700  1.0
  O  O5011  1  0.562800  0.784200  0.332600  1.0
  O  O5012  1  0.562800  0.215800  0.667400  1.0
  O  O5013  1  0.062800  0.284200  0.832600  1.0
  O  O5014  1  0.062800  0.715800  0.167400  1.0
  O  O5015  1  0.437200  0.215800  0.667400  1.0
  O  O5016  1  0.437200  0.784200  0.332600  1.0
  O  O5017  1  0.937200  0.715800  0.167400  1.0
  O  O5018  1  0.937200  0.284200  0.832600  1.0
  O  O5019  1  0.604300  0.911400  0.466200  1.0
  O  O5020  1  0.604300  0.088600  0.533800  1.0
  O  O5021  1  0.104300  0.411400  0.966200  1.0
  O  O5022  1  0.104300  0.588600  0.033800  1.0
  O  O5023  1  0.395700  0.088600  0.533800  1.0
  O  O5024  1  0.395700  0.911400  0.466200  1.0
  O  O5025  1  0.895700  0.588600  0.033800  1.0
  O  O5026  1  0.895700  0.411400  0.966200  1.0
  O  O5027  1  0.614600  0.837600  0.438000  1.0
  O  O5028  1  0.614600  0.162400  0.562000  1.0
  O  O5029  1  0.114600  0.337600  0.938000  1.0
  O  O5030  1  0.114600  0.662400  0.062000  1.0
  O  O5031  1  0.385400  0.162400  0.562000  1.0
  O  O5032  1  0.385400  0.837600  0.438000  1.0
  O  O5033  1  0.885400  0.662400  0.062000  1.0
  O  O5034  1  0.885400  0.337600  0.938000  1.0
  O  O5035  1  0.533400  0.783400  0.427100  1.0
  O  O5036  1  0.533400  0.216600  0.572900  1.0
  O  O5037  1  0.033400  0.283400  0.927100  1.0
  O  O5038  1  0.033400  0.716600  0.072900  1.0
  O  O5039  1  0.466600  0.216600  0.572900  1.0
  O  O5040  1  0.466600  0.783400  0.427100  1.0
  O  O5041  1  0.966600  0.716600  0.072900  1.0
  O  O5042  1  0.966600  0.283400  0.927100  1.0
  O  O5043  1  0.500000  0.907400  0.467300  1.0
  O  O5044  1  0.500000  0.092600  0.532700  1.0
  O  O5045  1  0.000000  0.407400  0.967300  1.0
  O  O5046  1  0.000000  0.592600  0.032700  1.0
  O  O5047  1  0.628800  0.007900  0.376100  1.0
  O  O5048  1  0.628800  0.992100  0.623900  1.0
  O  O5049  1  0.128800  0.507900  0.876100  1.0
  O  O5050  1  0.128800  0.492100  0.123900  1.0
  O  O5051  1  0.371200  0.992100  0.623900  1.0
  O  O5052  1  0.371200  0.007900  0.376100  1.0
  O  O5053  1  0.871200  0.492100  0.123900  1.0
  O  O5054  1  0.871200  0.507900  0.876100  1.0
  O  O5055  1  0.597700  0.990300  0.424100  1.0
  O  O5056  1  0.597700  0.009700  0.575900  1.0
  O  O5057  1  0.097700  0.490300  0.924100  1.0
  O  O5058  1  0.097700  0.509700  0.075900  1.0
  O  O5059  1  0.402300  0.009700  0.575900  1.0
  O  O5060  1  0.402300  0.990300  0.424100  1.0
  O  O5061  1  0.902300  0.509700  0.075900  1.0
  O  O5062  1  0.902300  0.490300  0.924100  1.0
  O  O5063  1  0.500000  0.008800  0.427200  1.0
  O  O5064  1  0.500000  0.991200  0.572800  1.0
  O  O5065  1  0.000000  0.508800  0.927200  1.0
  O  O5066  1  0.000000  0.491200  0.072800  1.0
  O  O5067  1  0.538000  0.001900  0.334800  1.0
  O  O5068  1  0.538000  0.998100  0.665200  1.0
  O  O5069  1  0.038000  0.501900  0.834800  1.0
  O  O5070  1  0.038000  0.498100  0.165200  1.0
  O  O5071  1  0.462000  0.998100  0.665200  1.0
  O  O5072  1  0.462000  0.001900  0.334800  1.0
  O  O5073  1  0.962000  0.498100  0.165200  1.0
  O  O5074  1  0.962000  0.501900  0.834800  1.0
  O  O5075  1  0.719000  0.687600  0.489700  1.0
  O  O5076  1  0.719000  0.312400  0.510300  1.0
  O  O5077  1  0.219000  0.187600  0.989700  1.0
  O  O5078  1  0.219000  0.812400  0.010300  1.0
  O  O5079  1  0.281000  0.312400  0.510300  1.0
  O  O5080  1  0.281000  0.687600  0.489700  1.0
  O  O5081  1  0.781000  0.812400  0.010300  1.0
  O  O5082  1  0.781000  0.187600  0.989700  1.0
  O  O5083  1  0.676000  0.713800  0.459800  1.0
  O  O5084  1  0.676000  0.286200  0.540200  1.0
  O  O5085  1  0.176000  0.213800  0.959800  1.0
  O  O5086  1  0.176000  0.786200  0.040200  1.0
  O  O5087  1  0.324000  0.286200  0.540200  1.0
  O  O5088  1  0.324000  0.713800  0.459800  1.0
  O  O5089  1  0.824000  0.786200  0.040200  1.0
  O  O5090  1  0.824000  0.213800  0.959800  1.0
  O  O5091  1  0.606000  0.668800  0.443800  1.0
  O  O5092  1  0.606000  0.331200  0.556200  1.0
  O  O5093  1  0.106000  0.168800  0.943800  1.0
  O  O5094  1  0.106000  0.831200  0.056200  1.0
  O  O5095  1  0.394000  0.331200  0.556200  1.0
  O  O5096  1  0.394000  0.668800  0.443800  1.0
  O  O5097  1  0.894000  0.831200  0.056200  1.0
  O  O5098  1  0.894000  0.168800  0.943800  1.0
  O  O5099  1  0.677900  0.592300  0.495300  1.0
  O  O5100  1  0.677900  0.407700  0.504700  1.0
  O  O5101  1  0.177900  0.092300  0.995300  1.0
  O  O5102  1  0.177900  0.907700  0.004700  1.0
  O  O5103  1  0.322100  0.407700  0.504700  1.0
  O  O5104  1  0.322100  0.592300  0.495300  1.0
  O  O5105  1  0.822100  0.907700  0.004700  1.0
  O  O5106  1  0.822100  0.092300  0.995300  1.0
  O  O5107  1  0.825400  0.615400  0.459900  1.0
  O  O5108  1  0.825400  0.384600  0.540100  1.0
  O  O5109  1  0.325400  0.115400  0.959900  1.0
  O  O5110  1  0.325400  0.884600  0.040100  1.0
  O  O5111  1  0.174600  0.384600  0.540100  1.0
  O  O5112  1  0.174600  0.615400  0.459900  1.0
  O  O5113  1  0.674600  0.884600  0.040100  1.0
  O  O5114  1  0.674600  0.115400  0.959900  1.0
  O  O5115  1  0.841700  0.607800  0.412800  1.0
  O  O5116  1  0.841700  0.392200  0.587200  1.0
  O  O5117  1  0.341700  0.107800  0.912800  1.0
  O  O5118  1  0.341700  0.892200  0.087200  1.0
  O  O5119  1  0.158300  0.392200  0.587200  1.0
  O  O5120  1  0.158300  0.607800  0.412800  1.0
  O  O5121  1  0.658300  0.892200  0.087200  1.0
  O  O5122  1  0.658300  0.107800  0.912800  1.0
  O  O5123  1  0.784000  0.525000  0.466800  1.0
  O  O5124  1  0.784000  0.475000  0.533200  1.0
  O  O5125  1  0.284000  0.025000  0.966800  1.0
  O  O5126  1  0.284000  0.975000  0.033200  1.0
  O  O5127  1  0.216000  0.475000  0.533200  1.0
  O  O5128  1  0.216000  0.525000  0.466800  1.0
  O  O5129  1  0.716000  0.975000  0.033200  1.0
  O  O5130  1  0.716000  0.025000  0.966800  1.0
  O  O5131  1  0.925800  0.616600  0.597300  1.0
  O  O5132  1  0.925800  0.383400  0.402700  1.0
  O  O5133  1  0.425800  0.116600  0.097300  1.0
  O  O5134  1  0.425800  0.883400  0.902700  1.0
  O  O5135  1  0.074200  0.383400  0.402700  1.0
  O  O5136  1  0.074200  0.616600  0.597300  1.0
  O  O5137  1  0.574200  0.883400  0.902700  1.0
  O  O5138  1  0.574200  0.116600  0.097300  1.0
  O  O5139  1  0.863800  0.624800  0.563500  1.0
  O  O5140  1  0.863800  0.375200  0.436500  1.0
  O  O5141  1  0.363800  0.124800  0.063500  1.0
  O  O5142  1  0.363800  0.875200  0.936500  1.0
  O  O5143  1  0.136200  0.375200  0.436500  1.0
  O  O5144  1  0.136200  0.624800  0.563500  1.0
  O  O5145  1  0.636200  0.875200  0.936500  1.0
  O  O5146  1  0.636200  0.124800  0.063500  1.0
  O  O5147  1  0.779400  0.737700  0.643700  1.0
  O  O5148  1  0.779400  0.262300  0.356300  1.0
  O  O5149  1  0.279400  0.237700  0.143700  1.0
  O  O5150  1  0.279400  0.762300  0.856300  1.0
  O  O5151  1  0.220600  0.262300  0.356300  1.0
  O  O5152  1  0.220600  0.737700  0.643700  1.0
  O  O5153  1  0.720600  0.762300  0.856300  1.0
  O  O5154  1  0.720600  0.237700  0.143700  1.0
  O  O5155  1  0.769000  0.695000  0.596000  1.0
  O  O5156  1  0.769000  0.305000  0.404000  1.0
  O  O5157  1  0.269000  0.195000  0.096000  1.0
  O  O5158  1  0.269000  0.805000  0.904000  1.0
  O  O5159  1  0.231000  0.305000  0.404000  1.0
  O  O5160  1  0.231000  0.695000  0.596000  1.0
  O  O5161  1  0.731000  0.805000  0.904000  1.0
  O  O5162  1  0.731000  0.195000  0.096000  1.0
  O  O5163  1  0.712400  0.605500  0.605500  1.0
  O  O5164  1  0.712400  0.394500  0.394500  1.0
  O  O5165  1  0.212400  0.105500  0.105500  1.0
  O  O5166  1  0.212400  0.894500  0.894500  1.0
  O  O5167  1  0.287600  0.394500  0.394500  1.0
  O  O5168  1  0.287600  0.605500  0.605500  1.0
  O  O5169  1  0.787600  0.894500  0.894500  1.0
  O  O5170  1  0.787600  0.105500  0.105500  1.0
  O  O5171  1  0.720200  0.686800  0.694400  1.0
  O  O5172  1  0.720200  0.313200  0.305600  1.0
  O  O5173  1  0.220200  0.186800  0.194400  1.0
  O  O5174  1  0.220200  0.813200  0.805600  1.0
  O  O5175  1  0.279800  0.313200  0.305600  1.0
  O  O5176  1  0.279800  0.686800  0.694400  1.0
  O  O5177  1  0.779800  0.813200  0.805600  1.0
  O  O5178  1  0.779800  0.186800  0.194400  1.0
  O  O5179  1  0.700600  0.932100  0.696200  1.0
  O  O5180  1  0.700600  0.067900  0.303800  1.0
  O  O5181  1  0.200600  0.432100  0.196200  1.0
  O  O5182  1  0.200600  0.567900  0.803800  1.0
  O  O5183  1  0.299400  0.067900  0.303800  1.0
  O  O5184  1  0.299400  0.932100  0.696200  1.0
  O  O5185  1  0.799400  0.567900  0.803800  1.0
  O  O5186  1  0.799400  0.432100  0.196200  1.0
  O  O5187  1  0.727800  0.864400  0.699100  1.0
  O  O5188  1  0.727800  0.135600  0.300900  1.0
  O  O5189  1  0.227800  0.364400  0.199100  1.0
  O  O5190  1  0.227800  0.635600  0.800900  1.0
  O  O5191  1  0.272200  0.135600  0.300900  1.0
  O  O5192  1  0.272200  0.864400  0.699100  1.0
  O  O5193  1  0.772200  0.635600  0.800900  1.0
  O  O5194  1  0.772200  0.364400  0.199100  1.0
  O  O5195  1  0.677200  0.815800  0.751600  1.0
  O  O5196  1  0.677200  0.184200  0.248400  1.0
  O  O5197  1  0.177200  0.315800  0.251600  1.0
  O  O5198  1  0.177200  0.684200  0.748400  1.0
  O  O5199  1  0.322800  0.184200  0.248400  1.0
  O  O5200  1  0.322800  0.815800  0.751600  1.0
  O  O5201  1  0.822800  0.684200  0.748400  1.0
  O  O5202  1  0.822800  0.315800  0.251600  1.0
  O  O5203  1  0.611100  0.925500  0.743700  1.0
  O  O5204  1  0.611100  0.074500  0.256300  1.0
  O  O5205  1  0.111100  0.425500  0.243700  1.0
  O  O5206  1  0.111100  0.574500  0.756300  1.0
  O  O5207  1  0.388900  0.074500  0.256300  1.0
  O  O5208  1  0.388900  0.925500  0.743700  1.0
  O  O5209  1  0.888900  0.574500  0.756300  1.0
  O  O5210  1  0.888900  0.425500  0.243700  1.0
  O  O5211  1  0.893400  0.740500  0.708500  1.0
  O  O5212  1  0.893400  0.259500  0.291500  1.0
  O  O5213  1  0.393400  0.240500  0.208500  1.0
  O  O5214  1  0.393400  0.759500  0.791500  1.0
  O  O5215  1  0.106600  0.259500  0.291500  1.0
  O  O5216  1  0.106600  0.740500  0.708500  1.0
  O  O5217  1  0.606600  0.759500  0.791500  1.0
  O  O5218  1  0.606600  0.240500  0.208500  1.0
  O  O5219  1  0.925300  0.687400  0.675400  1.0
  O  O5220  1  0.925300  0.312600  0.324600  1.0
  O  O5221  1  0.425300  0.187400  0.175400  1.0
  O  O5222  1  0.425300  0.812600  0.824600  1.0
  O  O5223  1  0.074700  0.312600  0.324600  1.0
  O  O5224  1  0.074700  0.687400  0.675400  1.0
  O  O5225  1  0.574700  0.812600  0.824600  1.0
  O  O5226  1  0.574700  0.187400  0.175400  1.0
  O  O5227  1  0.919400  0.606700  0.715700  1.0
  O  O5228  1  0.919400  0.393300  0.284300  1.0
  O  O5229  1  0.419400  0.106700  0.215700  1.0
  O  O5230  1  0.419400  0.893300  0.784300  1.0
  O  O5231  1  0.080600  0.393300  0.284300  1.0
  O  O5232  1  0.080600  0.606700  0.715700  1.0
  O  O5233  1  0.580600  0.893300  0.784300  1.0
  O  O5234  1  0.580600  0.106700  0.215700  1.0
  O  O5235  1  0.847200  0.929400  0.784400  1.0
  O  O5236  1  0.847200  0.070600  0.215600  1.0
  O  O5237  1  0.347200  0.429400  0.284400  1.0
  O  O5238  1  0.347200  0.570600  0.715600  1.0
  O  O5239  1  0.152800  0.070600  0.215600  1.0
  O  O5240  1  0.152800  0.929400  0.784400  1.0
  O  O5241  1  0.652800  0.570600  0.715600  1.0
  O  O5242  1  0.652800  0.429400  0.284400  1.0
  O  O5243  1  0.828600  0.872700  0.759700  1.0
  O  O5244  1  0.828600  0.127300  0.240300  1.0
  O  O5245  1  0.328600  0.372700  0.259700  1.0
  O  O5246  1  0.328600  0.627300  0.740300  1.0
  O  O5247  1  0.171400  0.127300  0.240300  1.0
  O  O5248  1  0.171400  0.872700  0.759700  1.0
  O  O5249  1  0.671400  0.627300  0.740300  1.0
  O  O5250  1  0.671400  0.372700  0.259700  1.0
  O  O5251  1  0.806100  0.932000  0.863000  1.0
  O  O5252  1  0.806100  0.068000  0.137000  1.0
  O  O5253  1  0.306100  0.432000  0.363000  1.0
  O  O5254  1  0.306100  0.568000  0.637000  1.0
  O  O5255  1  0.193900  0.068000  0.137000  1.0
  O  O5256  1  0.193900  0.932000  0.863000  1.0
  O  O5257  1  0.693900  0.568000  0.637000  1.0
  O  O5258  1  0.693900  0.432000  0.363000  1.0
  O  O5259  1  0.965900  0.995400  0.175400  1.0
  O  O5260  1  0.965900  0.004600  0.824600  1.0
  O  O5261  1  0.465900  0.495400  0.675400  1.0
  O  O5262  1  0.465900  0.504600  0.324600  1.0
  O  O5263  1  0.034100  0.004600  0.824600  1.0
  O  O5264  1  0.034100  0.995400  0.175400  1.0
  O  O5265  1  0.534100  0.504600  0.324600  1.0
  O  O5266  1  0.534100  0.495400  0.675400  1.0
  O  O5267  1  0.939600  0.972400  0.093900  1.0
  O  O5268  1  0.939600  0.027600  0.906100  1.0
  O  O5269  1  0.439600  0.472400  0.593900  1.0
  O  O5270  1  0.439600  0.527600  0.406100  1.0
  O  O5271  1  0.060400  0.027600  0.906100  1.0
  O  O5272  1  0.060400  0.972400  0.093900  1.0
  O  O5273  1  0.560400  0.527600  0.406100  1.0
  O  O5274  1  0.560400  0.472400  0.593900  1.0
  O  O5275  1  0.960200  0.612900  0.346500  1.0
  O  O5276  1  0.960200  0.387100  0.653500  1.0
  O  O5277  1  0.460200  0.112900  0.846500  1.0
  O  O5278  1  0.460200  0.887100  0.153500  1.0
  O  O5279  1  0.039800  0.387100  0.653500  1.0
  O  O5280  1  0.039800  0.612900  0.346500  1.0
  O  O5281  1  0.539800  0.887100  0.153500  1.0
  O  O5282  1  0.539800  0.112900  0.846500  1.0
  O  O5283  1  0.886300  0.534200  0.353000  1.0
  O  O5284  1  0.886300  0.465800  0.647000  1.0
  O  O5285  1  0.386300  0.034200  0.853000  1.0
  O  O5286  1  0.386300  0.965800  0.147000  1.0
  O  O5287  1  0.113700  0.465800  0.647000  1.0
  O  O5288  1  0.113700  0.534200  0.353000  1.0
  O  O5289  1  0.613700  0.965800  0.147000  1.0
  O  O5290  1  0.613700  0.034200  0.853000  1.0
  O  O5291  1  0.895400  0.608100  0.377000  1.0
  O  O5292  1  0.895400  0.391900  0.623000  1.0
  O  O5293  1  0.395400  0.108100  0.877000  1.0
  O  O5294  1  0.395400  0.891900  0.123000  1.0
  O  O5295  1  0.104600  0.391900  0.623000  1.0
  O  O5296  1  0.104600  0.608100  0.377000  1.0
  O  O5297  1  0.604600  0.891900  0.123000  1.0
  O  O5298  1  0.604600  0.108100  0.877000  1.0
  O  O5299  1  0.890000  0.548100  0.276700  1.0
  O  O5300  1  0.890000  0.451900  0.723300  1.0
  O  O5301  1  0.390000  0.048100  0.776700  1.0
  O  O5302  1  0.390000  0.951900  0.223300  1.0
  O  O5303  1  0.110000  0.451900  0.723300  1.0
  O  O5304  1  0.110000  0.548100  0.276700  1.0
  O  O5305  1  0.610000  0.951900  0.223300  1.0
  O  O5306  1  0.610000  0.048100  0.776700  1.0
  O  O5307  1  0.938900  0.521400  0.314400  1.0
  O  O5308  1  0.938900  0.478600  0.685600  1.0
  O  O5309  1  0.438900  0.021400  0.814400  1.0
  O  O5310  1  0.438900  0.978600  0.185600  1.0
  O  O5311  1  0.061100  0.478600  0.685600  1.0
  O  O5312  1  0.061100  0.521400  0.314400  1.0
  O  O5313  1  0.561100  0.978600  0.185600  1.0
  O  O5314  1  0.561100  0.021400  0.814400  1.0
  O  O5315  1  0.811000  0.523300  0.342100  1.0
  O  O5316  1  0.811000  0.476700  0.657900  1.0
  O  O5317  1  0.311000  0.023300  0.842100  1.0
  O  O5318  1  0.311000  0.976700  0.157900  1.0
  O  O5319  1  0.189000  0.476700  0.657900  1.0
  O  O5320  1  0.189000  0.523300  0.342100  1.0
  O  O5321  1  0.689000  0.976700  0.157900  1.0
  O  O5322  1  0.689000  0.023300  0.842100  1.0
  O  O5323  1  0.812900  0.920500  0.134800  1.0
  O  O5324  1  0.812900  0.079500  0.865200  1.0
  O  O5325  1  0.312900  0.420500  0.634800  1.0
  O  O5326  1  0.312900  0.579500  0.365200  1.0
  O  O5327  1  0.187100  0.079500  0.865200  1.0
  O  O5328  1  0.187100  0.920500  0.134800  1.0
  O  O5329  1  0.687100  0.579500  0.365200  1.0
  O  O5330  1  0.687100  0.420500  0.634800  1.0
  O  O5331  1  0.882900  0.029500  0.131500  1.0
  O  O5332  1  0.882900  0.970500  0.868500  1.0
  O  O5333  1  0.382900  0.529500  0.631500  1.0
  O  O5334  1  0.382900  0.470500  0.368500  1.0
  O  O5335  1  0.117100  0.970500  0.868500  1.0
  O  O5336  1  0.117100  0.029500  0.131500  1.0
  O  O5337  1  0.617100  0.470500  0.368500  1.0
  O  O5338  1  0.617100  0.529500  0.631500  1.0
  O  O5339  1  0.789900  0.004600  0.138000  1.0
  O  O5340  1  0.789900  0.995400  0.862000  1.0
  O  O5341  1  0.289900  0.504600  0.638000  1.0
  O  O5342  1  0.289900  0.495400  0.362000  1.0
  O  O5343  1  0.210100  0.995400  0.862000  1.0
  O  O5344  1  0.210100  0.004600  0.138000  1.0
  O  O5345  1  0.710100  0.495400  0.362000  1.0
  O  O5346  1  0.710100  0.504600  0.638000  1.0
  O  O5347  1  0.888200  0.937000  0.108500  1.0
  O  O5348  1  0.888200  0.063000  0.891500  1.0
  O  O5349  1  0.388200  0.437000  0.608500  1.0
  O  O5350  1  0.388200  0.563000  0.391500  1.0
  O  O5351  1  0.111800  0.063000  0.891500  1.0
  O  O5352  1  0.111800  0.937000  0.108500  1.0
  O  O5353  1  0.611800  0.563000  0.391500  1.0
  O  O5354  1  0.611800  0.437000  0.608500  1.0
  O  O5355  1  0.832900  0.916600  0.193500  1.0
  O  O5356  1  0.832900  0.083400  0.806500  1.0
  O  O5357  1  0.332900  0.416600  0.693500  1.0
  O  O5358  1  0.332900  0.583400  0.306500  1.0
  O  O5359  1  0.167100  0.083400  0.806500  1.0
  O  O5360  1  0.167100  0.916600  0.193500  1.0
  O  O5361  1  0.667100  0.583400  0.306500  1.0
  O  O5362  1  0.667100  0.416600  0.693500  1.0
  O  O5363  1  0.902000  0.033300  0.183500  1.0
  O  O5364  1  0.902000  0.966700  0.816500  1.0
  O  O5365  1  0.402000  0.533300  0.683500  1.0
  O  O5366  1  0.402000  0.466700  0.316500  1.0
  O  O5367  1  0.098000  0.966700  0.816500  1.0
  O  O5368  1  0.098000  0.033300  0.183500  1.0
  O  O5369  1  0.598000  0.466700  0.316500  1.0
  O  O5370  1  0.598000  0.533300  0.683500  1.0
  O  O5371  1  0.946600  0.727900  0.126800  1.0
  O  O5372  1  0.946600  0.272100  0.873200  1.0
  O  O5373  1  0.446600  0.227900  0.626800  1.0
  O  O5374  1  0.446600  0.772100  0.373200  1.0
  O  O5375  1  0.053400  0.272100  0.873200  1.0
  O  O5376  1  0.053400  0.727900  0.126800  1.0
  O  O5377  1  0.553400  0.772100  0.373200  1.0
  O  O5378  1  0.553400  0.227900  0.626800  1.0
  O  O5379  1  0.962100  0.645300  0.172900  1.0
  O  O5380  1  0.962100  0.354700  0.827100  1.0
  O  O5381  1  0.462100  0.145300  0.672900  1.0
  O  O5382  1  0.462100  0.854700  0.327100  1.0
  O  O5383  1  0.037900  0.354700  0.827100  1.0
  O  O5384  1  0.037900  0.645300  0.172900  1.0
  O  O5385  1  0.537900  0.854700  0.327100  1.0
  O  O5386  1  0.537900  0.145300  0.672900  1.0
  O  O5387  1  0.000000  0.719600  0.248600  1.0
  O  O5388  1  0.000000  0.280400  0.751400  1.0
  O  O5389  1  0.500000  0.219600  0.748600  1.0
  O  O5390  1  0.500000  0.780400  0.251400  1.0
  O  O5391  1  0.000000  0.822700  0.202700  1.0
  O  O5392  1  0.000000  0.177300  0.797300  1.0
  O  O5393  1  0.500000  0.322700  0.702700  1.0
  O  O5394  1  0.500000  0.677300  0.297300  1.0
  O  O5395  1  0.558900  0.955900  0.300000  1.0
  O  O5396  1  0.558900  0.044100  0.700000  1.0
  O  O5397  1  0.058900  0.455900  0.800000  1.0
  O  O5398  1  0.058900  0.544100  0.200000  1.0
  O  O5399  1  0.441100  0.044100  0.700000  1.0
  O  O5400  1  0.441100  0.955900  0.300000  1.0
  O  O5401  1  0.941100  0.544100  0.200000  1.0
  O  O5402  1  0.941100  0.455900  0.800000  1.0
  O  O5403  1  0.621000  0.007600  0.236800  1.0
  O  O5404  1  0.621000  0.992400  0.763200  1.0
  O  O5405  1  0.121000  0.507600  0.736800  1.0
  O  O5406  1  0.121000  0.492400  0.263200  1.0
  O  O5407  1  0.379000  0.992400  0.763200  1.0
  O  O5408  1  0.379000  0.007600  0.236800  1.0
  O  O5409  1  0.879000  0.492400  0.263200  1.0
  O  O5410  1  0.879000  0.507600  0.736800  1.0
  O  O5411  1  0.585000  0.041400  0.304100  1.0
  O  O5412  1  0.585000  0.958600  0.695900  1.0
  O  O5413  1  0.085000  0.541400  0.804100  1.0
  O  O5414  1  0.085000  0.458600  0.195900  1.0
  O  O5415  1  0.415000  0.958600  0.695900  1.0
  O  O5416  1  0.415000  0.041400  0.304100  1.0
  O  O5417  1  0.915000  0.458600  0.195900  1.0
  O  O5418  1  0.915000  0.541400  0.804100  1.0
  O  O5419  1  0.558100  0.910000  0.287200  1.0
  O  O5420  1  0.558100  0.090000  0.712800  1.0
  O  O5421  1  0.058100  0.410000  0.787200  1.0
  O  O5422  1  0.058100  0.590000  0.212800  1.0
  O  O5423  1  0.441900  0.090000  0.712800  1.0
  O  O5424  1  0.441900  0.910000  0.287200  1.0
  O  O5425  1  0.941900  0.590000  0.212800  1.0
  O  O5426  1  0.941900  0.410000  0.787200  1.0
  O  O5427  1  0.576400  0.734500  0.433700  1.0
  O  O5428  1  0.576400  0.265500  0.566300  1.0
  O  O5429  1  0.076400  0.234500  0.933700  1.0
  O  O5430  1  0.076400  0.765500  0.066300  1.0
  O  O5431  1  0.423600  0.265500  0.566300  1.0
  O  O5432  1  0.423600  0.734500  0.433700  1.0
  O  O5433  1  0.923600  0.765500  0.066300  1.0
  O  O5434  1  0.923600  0.234500  0.933700  1.0
  O  O5435  1  0.659700  0.741100  0.341600  1.0
  O  O5436  1  0.659700  0.258900  0.658400  1.0
  O  O5437  1  0.159700  0.241100  0.841600  1.0
  O  O5438  1  0.159700  0.758900  0.158400  1.0
  O  O5439  1  0.340300  0.258900  0.658400  1.0
  O  O5440  1  0.340300  0.741100  0.341600  1.0
  O  O5441  1  0.840300  0.758900  0.158400  1.0
  O  O5442  1  0.840300  0.241100  0.841600  1.0
  O  O5443  1  0.752600  0.571400  0.583300  1.0
  O  O5444  1  0.752600  0.428600  0.416700  1.0
  O  O5445  1  0.252600  0.071400  0.083300  1.0
  O  O5446  1  0.252600  0.928600  0.916700  1.0
  O  O5447  1  0.247400  0.428600  0.416700  1.0
  O  O5448  1  0.247400  0.571400  0.583300  1.0
  O  O5449  1  0.747400  0.928600  0.916700  1.0
  O  O5450  1  0.747400  0.071400  0.083300  1.0
  O  O5451  1  0.720000  0.557700  0.496200  1.0
  O  O5452  1  0.720000  0.442300  0.503800  1.0
  O  O5453  1  0.220000  0.057700  0.996200  1.0
  O  O5454  1  0.220000  0.942300  0.003800  1.0
  O  O5455  1  0.280000  0.442300  0.503800  1.0
  O  O5456  1  0.280000  0.557700  0.496200  1.0
  O  O5457  1  0.780000  0.942300  0.003800  1.0
  O  O5458  1  0.780000  0.057700  0.996200  1.0
  O  O5459  1  0.790100  0.537400  0.521600  1.0
  O  O5460  1  0.790100  0.462600  0.478400  1.0
  O  O5461  1  0.290100  0.037400  0.021600  1.0
  O  O5462  1  0.290100  0.962600  0.978400  1.0
  O  O5463  1  0.209900  0.462600  0.478400  1.0
  O  O5464  1  0.209900  0.537400  0.521600  1.0
  O  O5465  1  0.709900  0.962600  0.978400  1.0
  O  O5466  1  0.709900  0.037400  0.021600  1.0
  O  O5467  1  0.693300  0.619300  0.551700  1.0
  O  O5468  1  0.693300  0.380700  0.448300  1.0
  O  O5469  1  0.193300  0.119300  0.051700  1.0
  O  O5470  1  0.193300  0.880700  0.948300  1.0
  O  O5471  1  0.306700  0.380700  0.448300  1.0
  O  O5472  1  0.306700  0.619300  0.551700  1.0
  O  O5473  1  0.806700  0.880700  0.948300  1.0
  O  O5474  1  0.806700  0.119300  0.051700  1.0
  O  O5475  1  0.854400  0.798500  0.738300  1.0
  O  O5476  1  0.854400  0.201500  0.261700  1.0
  O  O5477  1  0.354400  0.298500  0.238300  1.0
  O  O5478  1  0.354400  0.701500  0.761700  1.0
  O  O5479  1  0.145600  0.201500  0.261700  1.0
  O  O5480  1  0.145600  0.798500  0.738300  1.0
  O  O5481  1  0.645600  0.701500  0.761700  1.0
  O  O5482  1  0.645600  0.298500  0.238300  1.0
  O  O5483  1  0.742200  0.793300  0.674000  1.0
  O  O5484  1  0.742200  0.206700  0.326000  1.0
  O  O5485  1  0.242200  0.293300  0.174000  1.0
  O  O5486  1  0.242200  0.706700  0.826000  1.0
  O  O5487  1  0.257800  0.206700  0.326000  1.0
  O  O5488  1  0.257800  0.793300  0.674000  1.0
  O  O5489  1  0.757800  0.706700  0.826000  1.0
  O  O5490  1  0.757800  0.293300  0.174000  1.0
  O  O5491  1  0.699900  0.750300  0.723600  1.0
  O  O5492  1  0.699900  0.249700  0.276400  1.0
  O  O5493  1  0.199900  0.250300  0.223600  1.0
  O  O5494  1  0.199900  0.749700  0.776400  1.0
  O  O5495  1  0.300100  0.249700  0.276400  1.0
  O  O5496  1  0.300100  0.750300  0.723600  1.0
  O  O5497  1  0.800100  0.749700  0.776400  1.0
  O  O5498  1  0.800100  0.250300  0.223600  1.0
  O  O5499  1  0.768900  0.696300  0.727300  1.0
  O  O5500  1  0.768900  0.303700  0.272700  1.0
  O  O5501  1  0.268900  0.196300  0.227300  1.0
  O  O5502  1  0.268900  0.803700  0.772700  1.0
  O  O5503  1  0.231100  0.303700  0.272700  1.0
  O  O5504  1  0.231100  0.696300  0.727300  1.0
  O  O5505  1  0.731100  0.803700  0.772700  1.0
  O  O5506  1  0.731100  0.196300  0.227300  1.0
  O  O5507  1  0.604800  0.047100  0.480800  1.0
  O  O5508  1  0.604800  0.952900  0.519200  1.0
  O  O5509  1  0.104800  0.547100  0.980800  1.0
  O  O5510  1  0.104800  0.452900  0.019200  1.0
  O  O5511  1  0.395200  0.952900  0.519200  1.0
  O  O5512  1  0.395200  0.047100  0.480800  1.0
  O  O5513  1  0.895200  0.452900  0.019200  1.0
  O  O5514  1  0.895200  0.547100  0.980800  1.0
  O  O5515  1  0.500000  0.048700  0.477300  1.0
  O  O5516  1  0.500000  0.951300  0.522700  1.0
  O  O5517  1  0.000000  0.548700  0.977300  1.0
  O  O5518  1  0.000000  0.451300  0.022700  1.0
  O  O5519  1  0.500000  0.964400  0.458500  1.0
  O  O5520  1  0.500000  0.035600  0.541500  1.0
  O  O5521  1  0.000000  0.464400  0.958500  1.0
  O  O5522  1  0.000000  0.535600  0.041500  1.0
  O  O5523  1  0.000000  0.537400  0.614000  1.0
  O  O5524  1  0.000000  0.462600  0.386000  1.0
  O  O5525  1  0.500000  0.037400  0.114000  1.0
  O  O5526  1  0.500000  0.962600  0.886000  1.0
  O  O5527  1  0.000000  0.618900  0.716400  1.0
  O  O5528  1  0.000000  0.381100  0.283600  1.0
  O  O5529  1  0.500000  0.118900  0.216400  1.0
  O  O5530  1  0.500000  0.881100  0.783600  1.0
  O  O5531  1  0.937800  0.564600  0.679500  1.0
  O  O5532  1  0.937800  0.435400  0.320500  1.0
  O  O5533  1  0.437800  0.064600  0.179500  1.0
  O  O5534  1  0.437800  0.935400  0.820500  1.0
  O  O5535  1  0.062200  0.435400  0.320500  1.0
  O  O5536  1  0.062200  0.564600  0.679500  1.0
  O  O5537  1  0.562200  0.935400  0.820500  1.0
  O  O5538  1  0.562200  0.064600  0.179500  1.0
  F  F5539  1  0.846400  0.557300  0.312300  1.0
  F  F5540  1  0.846400  0.442700  0.687700  1.0
  F  F5541  1  0.346400  0.057300  0.812300  1.0
  F  F5542  1  0.346400  0.942700  0.187700  1.0
  F  F5543  1  0.153600  0.442700  0.687700  1.0
  F  F5544  1  0.153600  0.557300  0.312300  1.0
  F  F5545  1  0.653600  0.942700  0.187700  1.0
  F  F5546  1  0.653600  0.057300  0.812300  1.0
  F  F5547  1  0.862200  0.534500  0.317400  1.0
  F  F5548  1  0.862200  0.465500  0.682600  1.0
  F  F5549  1  0.362200  0.034500  0.817400  1.0
  F  F5550  1  0.362200  0.965500  0.182600  1.0
  F  F5551  1  0.137800  0.465500  0.682600  1.0
  F  F5552  1  0.137800  0.534500  0.317400  1.0
  F  F5553  1  0.637800  0.965500  0.182600  1.0
  F  F5554  1  0.637800  0.034500  0.817400  1.0
  F  F5555  1  0.849100  0.535600  0.296400  1.0
  F  F5556  1  0.849100  0.464400  0.703600  1.0
  F  F5557  1  0.349100  0.035600  0.796400  1.0
  F  F5558  1  0.349100  0.964400  0.203600  1.0
  F  F5559  1  0.150900  0.464400  0.703600  1.0
  F  F5560  1  0.150900  0.535600  0.296400  1.0
  F  F5561  1  0.650900  0.964400  0.203600  1.0
  F  F5562  1  0.650900  0.035600  0.796400  1.0
  F  F5563  1  0.831600  0.532600  0.315700  1.0
  F  F5564  1  0.831600  0.467400  0.684300  1.0
  F  F5565  1  0.331600  0.032600  0.815700  1.0
  F  F5566  1  0.331600  0.967400  0.184300  1.0
  F  F5567  1  0.168400  0.467400  0.684300  1.0
  F  F5568  1  0.168400  0.532600  0.315700  1.0
  F  F5569  1  0.668400  0.967400  0.184300  1.0
  F  F5570  1  0.668400  0.032600  0.815700  1.0
  F  F5571  1  0.861100  0.626900  0.341900  1.0
  F  F5572  1  0.861100  0.373100  0.658100  1.0
  F  F5573  1  0.361100  0.126900  0.841900  1.0
  F  F5574  1  0.361100  0.873100  0.158100  1.0
  F  F5575  1  0.138900  0.373100  0.658100  1.0
  F  F5576  1  0.138900  0.626900  0.341900  1.0
  F  F5577  1  0.638900  0.873100  0.158100  1.0
  F  F5578  1  0.638900  0.126900  0.841900  1.0
  F  F5579  1  0.842400  0.646600  0.352600  1.0
  F  F5580  1  0.842400  0.353400  0.647400  1.0
  F  F5581  1  0.342400  0.146600  0.852600  1.0
  F  F5582  1  0.342400  0.853400  0.147400  1.0
  F  F5583  1  0.157600  0.353400  0.647400  1.0
  F  F5584  1  0.157600  0.646600  0.352600  1.0
  F  F5585  1  0.657600  0.853400  0.147400  1.0
  F  F5586  1  0.657600  0.146600  0.852600  1.0
  F  F5587  1  0.865300  0.655100  0.340100  1.0
  F  F5588  1  0.865300  0.344900  0.659900  1.0
  F  F5589  1  0.365300  0.155100  0.840100  1.0
  F  F5590  1  0.365300  0.844900  0.159900  1.0
  F  F5591  1  0.134700  0.344900  0.659900  1.0
  F  F5592  1  0.134700  0.655100  0.340100  1.0
  F  F5593  1  0.634700  0.844900  0.159900  1.0
  F  F5594  1  0.634700  0.155100  0.840100  1.0
  F  F5595  1  0.872300  0.642500  0.359300  1.0
  F  F5596  1  0.872300  0.357500  0.640700  1.0
  F  F5597  1  0.372300  0.142500  0.859300  1.0
  F  F5598  1  0.372300  0.857500  0.140700  1.0
  F  F5599  1  0.127700  0.357500  0.640700  1.0
  F  F5600  1  0.127700  0.642500  0.359300  1.0
  F  F5601  1  0.627700  0.857500  0.140700  1.0
  F  F5602  1  0.627700  0.142500  0.859300  1.0
  F  F5603  1  0.845100  0.973800  0.132300  1.0
  F  F5604  1  0.845100  0.026200  0.867700  1.0
  F  F5605  1  0.345100  0.473800  0.632300  1.0
  F  F5606  1  0.345100  0.526200  0.367700  1.0
  F  F5607  1  0.154900  0.026200  0.867700  1.0
  F  F5608  1  0.154900  0.973800  0.132300  1.0
  F  F5609  1  0.654900  0.526200  0.367700  1.0
  F  F5610  1  0.654900  0.473800  0.632300  1.0
  F  F5611  1  0.819600  0.979700  0.122700  1.0
  F  F5612  1  0.819600  0.020300  0.877300  1.0
  F  F5613  1  0.319600  0.479700  0.622700  1.0
  F  F5614  1  0.319600  0.520300  0.377300  1.0
  F  F5615  1  0.180400  0.020300  0.877300  1.0
  F  F5616  1  0.180400  0.979700  0.122700  1.0
  F  F5617  1  0.680400  0.520300  0.377300  1.0
  F  F5618  1  0.680400  0.479700  0.622700  1.0
  F  F5619  1  0.833900  0.953100  0.117300  1.0
  F  F5620  1  0.833900  0.046900  0.882700  1.0
  F  F5621  1  0.333900  0.453100  0.617300  1.0
  F  F5622  1  0.333900  0.546900  0.382700  1.0
  F  F5623  1  0.166100  0.046900  0.882700  1.0
  F  F5624  1  0.166100  0.953100  0.117300  1.0
  F  F5625  1  0.666100  0.546900  0.382700  1.0
  F  F5626  1  0.666100  0.453100  0.617300  1.0
  F  F5627  1  0.846300  0.979700  0.111900  1.0
  F  F5628  1  0.846300  0.020300  0.888100  1.0
  F  F5629  1  0.346300  0.479700  0.611900  1.0
  F  F5630  1  0.346300  0.520300  0.388100  1.0
  F  F5631  1  0.153700  0.020300  0.888100  1.0
  F  F5632  1  0.153700  0.979700  0.111900  1.0
  F  F5633  1  0.653700  0.520300  0.388100  1.0
  F  F5634  1  0.653700  0.479700  0.611900  1.0
  F  F5635  1  0.866800  0.977200  0.188300  1.0
  F  F5636  1  0.866800  0.022800  0.811700  1.0
  F  F5637  1  0.366800  0.477200  0.688300  1.0
  F  F5638  1  0.366800  0.522800  0.311700  1.0
  F  F5639  1  0.133200  0.022800  0.811700  1.0
  F  F5640  1  0.133200  0.977200  0.188300  1.0
  F  F5641  1  0.633200  0.522800  0.311700  1.0
  F  F5642  1  0.633200  0.477200  0.688300  1.0
  F  F5643  1  0.882500  0.994900  0.204000  1.0
  F  F5644  1  0.882500  0.005100  0.796000  1.0
  F  F5645  1  0.382500  0.494900  0.704000  1.0
  F  F5646  1  0.382500  0.505100  0.296000  1.0
  F  F5647  1  0.117500  0.005100  0.796000  1.0
  F  F5648  1  0.117500  0.994900  0.204000  1.0
  F  F5649  1  0.617500  0.505100  0.296000  1.0
  F  F5650  1  0.617500  0.494900  0.704000  1.0
  F  F5651  1  0.891200  0.965700  0.197100  1.0
  F  F5652  1  0.891200  0.034300  0.802900  1.0
  F  F5653  1  0.391200  0.465700  0.697100  1.0
  F  F5654  1  0.391200  0.534300  0.302900  1.0
  F  F5655  1  0.108800  0.034300  0.802900  1.0
  F  F5656  1  0.108800  0.965700  0.197100  1.0
  F  F5657  1  0.608800  0.534300  0.302900  1.0
  F  F5658  1  0.608800  0.465700  0.697100  1.0
  F  F5659  1  0.866400  0.971300  0.209600  1.0
  F  F5660  1  0.866400  0.028700  0.790400  1.0
  F  F5661  1  0.366400  0.471300  0.709600  1.0
  F  F5662  1  0.366400  0.528700  0.290400  1.0
  F  F5663  1  0.133600  0.028700  0.790400  1.0
  F  F5664  1  0.133600  0.971300  0.209600  1.0
  F  F5665  1  0.633600  0.528700  0.290400  1.0
  F  F5666  1  0.633600  0.471300  0.709600  1.0
  F  F5667  1  0.000000  0.714000  0.164600  1.0
  F  F5668  1  0.000000  0.286000  0.835400  1.0
  F  F5669  1  0.500000  0.214000  0.664600  1.0
  F  F5670  1  0.500000  0.786000  0.335400  1.0
  F  F5671  1  0.000000  0.704800  0.142800  1.0
  F  F5672  1  0.000000  0.295200  0.857200  1.0
  F  F5673  1  0.500000  0.204800  0.642800  1.0
  F  F5674  1  0.500000  0.795200  0.357200  1.0
  F  F5675  1  0.000000  0.761600  0.215300  1.0
  F  F5676  1  0.000000  0.238400  0.784700  1.0
  F  F5677  1  0.500000  0.261600  0.715300  1.0
  F  F5678  1  0.500000  0.738400  0.284700  1.0
  F  F5679  1  0.599500  0.980100  0.277300  1.0
  F  F5680  1  0.599500  0.019900  0.722700  1.0
  F  F5681  1  0.099500  0.480100  0.777300  1.0
  F  F5682  1  0.099500  0.519900  0.222700  1.0
  F  F5683  1  0.400500  0.019900  0.722700  1.0
  F  F5684  1  0.400500  0.980100  0.277300  1.0
  F  F5685  1  0.900500  0.519900  0.222700  1.0
  F  F5686  1  0.900500  0.480100  0.777300  1.0
  F  F5687  1  0.589400  0.994200  0.260400  1.0
  F  F5688  1  0.589400  0.005800  0.739600  1.0
  F  F5689  1  0.089400  0.494200  0.760400  1.0
  F  F5690  1  0.089400  0.505800  0.239600  1.0
  F  F5691  1  0.410600  0.005800  0.739600  1.0
  F  F5692  1  0.410600  0.994200  0.260400  1.0
  F  F5693  1  0.910600  0.505800  0.239600  1.0
  F  F5694  1  0.910600  0.494200  0.760400  1.0
  F  F5695  1  0.570900  0.980800  0.274200  1.0
  F  F5696  1  0.570900  0.019200  0.725800  1.0
  F  F5697  1  0.070900  0.480800  0.774200  1.0
  F  F5698  1  0.070900  0.519200  0.225800  1.0
  F  F5699  1  0.429100  0.019200  0.725800  1.0
  F  F5700  1  0.429100  0.980800  0.274200  1.0
  F  F5701  1  0.929100  0.519200  0.225800  1.0
  F  F5702  1  0.929100  0.480800  0.774200  1.0
  F  F5703  1  0.589800  0.963200  0.259200  1.0
  F  F5704  1  0.589800  0.036800  0.740800  1.0
  F  F5705  1  0.089800  0.463200  0.759200  1.0
  F  F5706  1  0.089800  0.536800  0.240800  1.0
  F  F5707  1  0.410200  0.036800  0.740800  1.0
  F  F5708  1  0.410200  0.963200  0.259200  1.0
  F  F5709  1  0.910200  0.536800  0.240800  1.0
  F  F5710  1  0.910200  0.463200  0.759200  1.0
  F  F5711  1  0.666800  0.980000  0.305400  1.0
  F  F5712  1  0.666800  0.020000  0.694600  1.0
  F  F5713  1  0.166800  0.480000  0.805400  1.0
  F  F5714  1  0.166800  0.520000  0.194600  1.0
  F  F5715  1  0.333200  0.020000  0.694600  1.0
  F  F5716  1  0.333200  0.980000  0.305400  1.0
  F  F5717  1  0.833200  0.520000  0.194600  1.0
  F  F5718  1  0.833200  0.480000  0.805400  1.0
  F  F5719  1  0.688400  0.966300  0.313800  1.0
  F  F5720  1  0.688400  0.033700  0.686200  1.0
  F  F5721  1  0.188400  0.466300  0.813800  1.0
  F  F5722  1  0.188400  0.533700  0.186200  1.0
  F  F5723  1  0.311600  0.033700  0.686200  1.0
  F  F5724  1  0.311600  0.966300  0.313800  1.0
  F  F5725  1  0.811600  0.533700  0.186200  1.0
  F  F5726  1  0.811600  0.466300  0.813800  1.0
  F  F5727  1  0.673100  0.989500  0.326500  1.0
  F  F5728  1  0.673100  0.010500  0.673500  1.0
  F  F5729  1  0.173100  0.489500  0.826500  1.0
  F  F5730  1  0.173100  0.510500  0.173500  1.0
  F  F5731  1  0.326900  0.010500  0.673500  1.0
  F  F5732  1  0.326900  0.989500  0.326500  1.0
  F  F5733  1  0.826900  0.510500  0.173500  1.0
  F  F5734  1  0.826900  0.489500  0.826500  1.0
  F  F5735  1  0.692700  0.995300  0.309500  1.0
  F  F5736  1  0.692700  0.004700  0.690500  1.0
  F  F5737  1  0.192700  0.495300  0.809500  1.0
  F  F5738  1  0.192700  0.504700  0.190500  1.0
  F  F5739  1  0.307300  0.004700  0.690500  1.0
  F  F5740  1  0.307300  0.995300  0.309500  1.0
  F  F5741  1  0.807300  0.504700  0.190500  1.0
  F  F5742  1  0.807300  0.495300  0.809500  1.0
  F  F5743  1  0.589300  0.724400  0.382800  1.0
  F  F5744  1  0.589300  0.275600  0.617200  1.0
  F  F5745  1  0.089300  0.224400  0.882800  1.0
  F  F5746  1  0.089300  0.775600  0.117200  1.0
  F  F5747  1  0.410700  0.275600  0.617200  1.0
  F  F5748  1  0.410700  0.724400  0.382800  1.0
  F  F5749  1  0.910700  0.775600  0.117200  1.0
  F  F5750  1  0.910700  0.224400  0.882800  1.0
  F  F5751  1  0.562100  0.723400  0.374100  1.0
  F  F5752  1  0.562100  0.276600  0.625900  1.0
  F  F5753  1  0.062100  0.223400  0.874100  1.0
  F  F5754  1  0.062100  0.776600  0.125900  1.0
  F  F5755  1  0.437900  0.276600  0.625900  1.0
  F  F5756  1  0.437900  0.723400  0.374100  1.0
  F  F5757  1  0.937900  0.776600  0.125900  1.0
  F  F5758  1  0.937900  0.223400  0.874100  1.0
  F  F5759  1  0.566700  0.723900  0.397100  1.0
  F  F5760  1  0.566700  0.276100  0.602900  1.0
  F  F5761  1  0.066700  0.223900  0.897100  1.0
  F  F5762  1  0.066700  0.776100  0.102900  1.0
  F  F5763  1  0.433300  0.276100  0.602900  1.0
  F  F5764  1  0.433300  0.723900  0.397100  1.0
  F  F5765  1  0.933300  0.776100  0.102900  1.0
  F  F5766  1  0.933300  0.223900  0.897100  1.0
  F  F5767  1  0.573400  0.698700  0.383400  1.0
  F  F5768  1  0.573400  0.301300  0.616600  1.0
  F  F5769  1  0.073400  0.198700  0.883400  1.0
  F  F5770  1  0.073400  0.801300  0.116600  1.0
  F  F5771  1  0.426600  0.301300  0.616600  1.0
  F  F5772  1  0.426600  0.698700  0.383400  1.0
  F  F5773  1  0.926600  0.801300  0.116600  1.0
  F  F5774  1  0.926600  0.198700  0.883400  1.0
  F  F5775  1  0.658300  0.758400  0.394600  1.0
  F  F5776  1  0.658300  0.241600  0.605400  1.0
  F  F5777  1  0.158300  0.258400  0.894600  1.0
  F  F5778  1  0.158300  0.741600  0.105400  1.0
  F  F5779  1  0.341700  0.241600  0.605400  1.0
  F  F5780  1  0.341700  0.758400  0.394600  1.0
  F  F5781  1  0.841700  0.741600  0.105400  1.0
  F  F5782  1  0.841700  0.258400  0.894600  1.0
  F  F5783  1  0.685100  0.749000  0.402500  1.0
  F  F5784  1  0.685100  0.251000  0.597500  1.0
  F  F5785  1  0.185100  0.249000  0.902500  1.0
  F  F5786  1  0.185100  0.751000  0.097500  1.0
  F  F5787  1  0.314900  0.251000  0.597500  1.0
  F  F5788  1  0.314900  0.749000  0.402500  1.0
  F  F5789  1  0.814900  0.751000  0.097500  1.0
  F  F5790  1  0.814900  0.249000  0.902500  1.0
  F  F5791  1  0.672500  0.776000  0.411400  1.0
  F  F5792  1  0.672500  0.224000  0.588600  1.0
  F  F5793  1  0.172500  0.276000  0.911400  1.0
  F  F5794  1  0.172500  0.724000  0.088600  1.0
  F  F5795  1  0.327500  0.224000  0.588600  1.0
  F  F5796  1  0.327500  0.776000  0.411400  1.0
  F  F5797  1  0.827500  0.724000  0.088600  1.0
  F  F5798  1  0.827500  0.276000  0.911400  1.0
  F  F5799  1  0.683400  0.770800  0.389700  1.0
  F  F5800  1  0.683400  0.229200  0.610300  1.0
  F  F5801  1  0.183400  0.270800  0.889700  1.0
  F  F5802  1  0.183400  0.729200  0.110300  1.0
  F  F5803  1  0.316600  0.229200  0.610300  1.0
  F  F5804  1  0.316600  0.770800  0.389700  1.0
  F  F5805  1  0.816600  0.729200  0.110300  1.0
  F  F5806  1  0.816600  0.270800  0.889700  1.0
  F  F5807  1  0.744400  0.577700  0.536700  1.0
  F  F5808  1  0.744400  0.422300  0.463300  1.0
  F  F5809  1  0.244400  0.077700  0.036700  1.0
  F  F5810  1  0.244400  0.922300  0.963300  1.0
  F  F5811  1  0.255600  0.422300  0.463300  1.0
  F  F5812  1  0.255600  0.577700  0.536700  1.0
  F  F5813  1  0.755600  0.922300  0.963300  1.0
  F  F5814  1  0.755600  0.077700  0.036700  1.0
  F  F5815  1  0.748800  0.550800  0.525800  1.0
  F  F5816  1  0.748800  0.449200  0.474200  1.0
  F  F5817  1  0.248800  0.050800  0.025800  1.0
  F  F5818  1  0.248800  0.949200  0.974200  1.0
  F  F5819  1  0.251200  0.449200  0.474200  1.0
  F  F5820  1  0.251200  0.550800  0.525800  1.0
  F  F5821  1  0.751200  0.949200  0.974200  1.0
  F  F5822  1  0.751200  0.050800  0.025800  1.0
  F  F5823  1  0.722800  0.559900  0.537200  1.0
  F  F5824  1  0.722800  0.440100  0.462800  1.0
  F  F5825  1  0.222800  0.059900  0.037200  1.0
  F  F5826  1  0.222800  0.940100  0.962800  1.0
  F  F5827  1  0.277200  0.440100  0.462800  1.0
  F  F5828  1  0.277200  0.559900  0.537200  1.0
  F  F5829  1  0.777200  0.940100  0.962800  1.0
  F  F5830  1  0.777200  0.059900  0.037200  1.0
  F  F5831  1  0.749700  0.556500  0.549100  1.0
  F  F5832  1  0.749700  0.443500  0.450900  1.0
  F  F5833  1  0.249700  0.056500  0.049100  1.0
  F  F5834  1  0.249700  0.943500  0.950900  1.0
  F  F5835  1  0.250300  0.443500  0.450900  1.0
  F  F5836  1  0.250300  0.556500  0.549100  1.0
  F  F5837  1  0.750300  0.943500  0.950900  1.0
  F  F5838  1  0.750300  0.056500  0.049100  1.0
  F  F5839  1  0.789100  0.638000  0.529100  1.0
  F  F5840  1  0.789100  0.362000  0.470900  1.0
  F  F5841  1  0.289100  0.138000  0.029100  1.0
  F  F5842  1  0.289100  0.862000  0.970900  1.0
  F  F5843  1  0.210900  0.362000  0.470900  1.0
  F  F5844  1  0.210900  0.638000  0.529100  1.0
  F  F5845  1  0.710900  0.862000  0.970900  1.0
  F  F5846  1  0.710900  0.138000  0.029100  1.0
  F  F5847  1  0.811700  0.654800  0.527800  1.0
  F  F5848  1  0.811700  0.345200  0.472200  1.0
  F  F5849  1  0.311700  0.154800  0.027800  1.0
  F  F5850  1  0.311700  0.845200  0.972200  1.0
  F  F5851  1  0.188300  0.345200  0.472200  1.0
  F  F5852  1  0.188300  0.654800  0.527800  1.0
  F  F5853  1  0.688300  0.845200  0.972200  1.0
  F  F5854  1  0.688300  0.154800  0.027800  1.0
  F  F5855  1  0.783000  0.667000  0.533000  1.0
  F  F5856  1  0.783000  0.333000  0.467000  1.0
  F  F5857  1  0.283000  0.167000  0.033000  1.0
  F  F5858  1  0.283000  0.833000  0.967000  1.0
  F  F5859  1  0.217000  0.333000  0.467000  1.0
  F  F5860  1  0.217000  0.667000  0.533000  1.0
  F  F5861  1  0.717000  0.833000  0.967000  1.0
  F  F5862  1  0.717000  0.167000  0.033000  1.0
  F  F5863  1  0.788000  0.653500  0.511800  1.0
  F  F5864  1  0.788000  0.346500  0.488200  1.0
  F  F5865  1  0.288000  0.153500  0.011800  1.0
  F  F5866  1  0.288000  0.846500  0.988200  1.0
  F  F5867  1  0.212000  0.346500  0.488200  1.0
  F  F5868  1  0.212000  0.653500  0.511800  1.0
  F  F5869  1  0.712000  0.846500  0.988200  1.0
  F  F5870  1  0.712000  0.153500  0.011800  1.0
  F  F5871  1  0.795800  0.794500  0.704200  1.0
  F  F5872  1  0.795800  0.205500  0.295800  1.0
  F  F5873  1  0.295800  0.294500  0.204200  1.0
  F  F5874  1  0.295800  0.705500  0.795800  1.0
  F  F5875  1  0.204200  0.205500  0.295800  1.0
  F  F5876  1  0.204200  0.794500  0.704200  1.0
  F  F5877  1  0.704200  0.705500  0.795800  1.0
  F  F5878  1  0.704200  0.294500  0.204200  1.0
  F  F5879  1  0.804400  0.801000  0.685500  1.0
  F  F5880  1  0.804400  0.199000  0.314500  1.0
  F  F5881  1  0.304400  0.301000  0.185500  1.0
  F  F5882  1  0.304400  0.699000  0.814500  1.0
  F  F5883  1  0.195600  0.199000  0.314500  1.0
  F  F5884  1  0.195600  0.801000  0.685500  1.0
  F  F5885  1  0.695600  0.699000  0.814500  1.0
  F  F5886  1  0.695600  0.301000  0.185500  1.0
  F  F5887  1  0.822900  0.805000  0.705100  1.0
  F  F5888  1  0.822900  0.195000  0.294900  1.0
  F  F5889  1  0.322900  0.305000  0.205100  1.0
  F  F5890  1  0.322900  0.695000  0.794900  1.0
  F  F5891  1  0.177100  0.195000  0.294900  1.0
  F  F5892  1  0.177100  0.805000  0.705100  1.0
  F  F5893  1  0.677100  0.695000  0.794900  1.0
  F  F5894  1  0.677100  0.305000  0.205100  1.0
  F  F5895  1  0.798600  0.823300  0.704100  1.0
  F  F5896  1  0.798600  0.176700  0.295900  1.0
  F  F5897  1  0.298600  0.323300  0.204100  1.0
  F  F5898  1  0.298600  0.676700  0.795900  1.0
  F  F5899  1  0.201400  0.176700  0.295900  1.0
  F  F5900  1  0.201400  0.823300  0.704100  1.0
  F  F5901  1  0.701400  0.676700  0.795900  1.0
  F  F5902  1  0.701400  0.323300  0.204100  1.0
  F  F5903  1  0.592900  0.000000  0.500000  1.0
  F  F5904  1  0.092900  0.500000  0.000000  1.0
  F  F5905  1  0.407100  0.000000  0.500000  1.0
  F  F5906  1  0.907100  0.500000  0.000000  1.0
  F  F5907  1  0.000000  0.641800  0.643300  1.0
  F  F5908  1  0.000000  0.358200  0.356700  1.0
  F  F5909  1  0.500000  0.141800  0.143300  1.0
  F  F5910  1  0.500000  0.858200  0.856700  1.0
  F  F5911  1  0.984800  0.664100  0.634900  1.0
  F  F5912  1  0.984800  0.335900  0.365100  1.0
  F  F5913  1  0.484800  0.164100  0.134900  1.0
  F  F5914  1  0.484800  0.835900  0.865100  1.0
  F  F5915  1  0.015200  0.335900  0.365100  1.0
  F  F5916  1  0.015200  0.664100  0.634900  1.0
  F  F5917  1  0.515200  0.835900  0.865100  1.0
  F  F5918  1  0.515200  0.164100  0.134900  1.0
  F  F5919  1  0.000000  0.642700  0.620700  1.0
  F  F5920  1  0.000000  0.357300  0.379300  1.0
  F  F5921  1  0.500000  0.142700  0.120700  1.0
  F  F5922  1  0.500000  0.857300  0.879300  1.0
  F  F5923  1  0.000000  0.577000  0.668800  1.0
  F  F5924  1  0.000000  0.423000  0.331200  1.0
  F  F5925  1  0.500000  0.077000  0.168800  1.0
  F  F5926  1  0.500000  0.923000  0.831200  1.0
  F  F5927  1  0.000000  0.548500  0.669000  1.0
  F  F5928  1  0.000000  0.451500  0.331000  1.0
  F  F5929  1  0.500000  0.048500  0.169000  1.0
  F  F5930  1  0.500000  0.951500  0.831000  1.0
  F  F5931  1  0.491300  0.988500  0.507700  0.25
  F  F5932  1  0.491300  0.011500  0.492300  0.25
  F  F5933  1  0.991300  0.488500  0.007700  0.25
  F  F5934  1  0.991300  0.511500  0.992300  0.25
  F  F5935  1  0.508700  0.011500  0.492300  0.25
  F  F5936  1  0.508700  0.988500  0.507700  0.25
  F  F5937  1  0.008700  0.511500  0.992300  0.25
  F  F5938  1  0.008700  0.488500  0.007700  0.25
  F  F5939  1  0.493000  0.995900  0.486900  0.25
  F  F5940  1  0.493000  0.004100  0.513100  0.25
  F  F5941  1  0.993000  0.495900  0.986900  0.25
  F  F5942  1  0.993000  0.504100  0.013100  0.25
  F  F5943  1  0.507000  0.004100  0.513100  0.25
  F  F5944  1  0.507000  0.995900  0.486900  0.25
  F  F5945  1  0.007000  0.504100  0.013100  0.25
  F  F5946  1  0.007000  0.495900  0.986900  0.25
  F  F5947  1  0.493200  0.017000  0.505000  0.25
  F  F5948  1  0.493200  0.983000  0.495000  0.25
  F  F5949  1  0.993200  0.517000  0.005000  0.25
  F  F5950  1  0.993200  0.483000  0.995000  0.25
  F  F5951  1  0.506800  0.983000  0.495000  0.25
  F  F5952  1  0.506800  0.017000  0.505000  0.25
  F  F5953  1  0.006800  0.483000  0.995000  0.25
  F  F5954  1  0.006800  0.517000  0.005000  0.25
  F  F5955  1  0.014600  0.688400  0.157600  0.5
  F  F5956  1  0.014600  0.311600  0.842400  0.5
  F  F5957  1  0.514600  0.188400  0.657600  0.5
  F  F5958  1  0.514600  0.811600  0.342400  0.5
  F  F5959  1  0.985400  0.311600  0.842400  0.5
  F  F5960  1  0.985400  0.688400  0.157600  0.5
  F  F5961  1  0.485400  0.811600  0.342400  0.5
  F  F5962  1  0.485400  0.188400  0.657600  0.5
  F  F5963  1  0.983700  0.690500  0.157000  0.5
  F  F5964  1  0.983700  0.309500  0.843000  0.5
  F  F5965  1  0.483700  0.190500  0.657000  0.5
  F  F5966  1  0.483700  0.809500  0.343000  0.5
  F  F5967  1  0.016300  0.309500  0.843000  0.5
  F  F5968  1  0.016300  0.690500  0.157000  0.5
  F  F5969  1  0.516300  0.809500  0.343000  0.5
  F  F5970  1  0.516300  0.190500  0.657000  0.5
  F  F5971  1  0.990000  0.762600  0.236600  0.5
  F  F5972  1  0.990000  0.237400  0.763400  0.5
  F  F5973  1  0.490000  0.262600  0.736600  0.5
  F  F5974  1  0.490000  0.737400  0.263400  0.5
  F  F5975  1  0.010000  0.237400  0.763400  0.5
  F  F5976  1  0.010000  0.762600  0.236600  0.5
  F  F5977  1  0.510000  0.737400  0.263400  0.5
  F  F5978  1  0.510000  0.262600  0.736600  0.5
  F  F5979  1  0.992000  0.788000  0.227000  0.5
  F  F5980  1  0.992000  0.212000  0.773000  0.5
  F  F5981  1  0.492000  0.288000  0.727000  0.5
  F  F5982  1  0.492000  0.712000  0.273000  0.5
  F  F5983  1  0.008000  0.212000  0.773000  0.5
  F  F5984  1  0.008000  0.788000  0.227000  0.5
  F  F5985  1  0.508000  0.712000  0.273000  0.5
  F  F5986  1  0.508000  0.288000  0.727000  0.5
  F  F5987  1  0.017600  0.773200  0.232200  0.5
  F  F5988  1  0.017600  0.226800  0.767800  0.5
  F  F5989  1  0.517600  0.273200  0.732200  0.5
  F  F5990  1  0.517600  0.726800  0.267800  0.5
  F  F5991  1  0.982400  0.226800  0.767800  0.5
  F  F5992  1  0.982400  0.773200  0.232200  0.5
  F  F5993  1  0.482400  0.726800  0.267800  0.5
  F  F5994  1  0.482400  0.273200  0.732200  0.5
  F  F5995  1  0.759600  0.757300  0.741400  0.5
  F  F5996  1  0.759600  0.242700  0.258600  0.5
  F  F5997  1  0.259600  0.257300  0.241400  0.5
  F  F5998  1  0.259600  0.742700  0.758600  0.5
  F  F5999  1  0.240400  0.242700  0.258600  0.5
  F  F6000  1  0.240400  0.757300  0.741400  0.5
  F  F6001  1  0.740400  0.742700  0.758600  0.5
  F  F6002  1  0.740400  0.257300  0.241400  0.5
  F  F6003  1  0.757800  0.735000  0.754400  0.5
  F  F6004  1  0.757800  0.265000  0.245600  0.5
  F  F6005  1  0.257800  0.235000  0.254400  0.5
  F  F6006  1  0.257800  0.765000  0.745600  0.5
  F  F6007  1  0.242200  0.265000  0.245600  0.5
  F  F6008  1  0.242200  0.735000  0.754400  0.5
  F  F6009  1  0.742200  0.765000  0.745600  0.5
  F  F6010  1  0.742200  0.235000  0.254400  0.5
  F  F6011  1  0.733100  0.745300  0.744800  0.5
  F  F6012  1  0.733100  0.254700  0.255200  0.5
  F  F6013  1  0.233100  0.245300  0.244800  0.5
  F  F6014  1  0.233100  0.754700  0.755200  0.5
  F  F6015  1  0.266900  0.254700  0.255200  0.5
  F  F6016  1  0.266900  0.745300  0.744800  0.5
  F  F6017  1  0.766900  0.754700  0.755200  0.5
  F  F6018  1  0.766900  0.245300  0.244800  0.5
  F  F6019  1  0.747200  0.761800  0.761800  0.5
  F  F6020  1  0.747200  0.238200  0.238200  0.5
  F  F6021  1  0.247200  0.261800  0.261800  0.5
  F  F6022  1  0.247200  0.738200  0.738200  0.5
  F  F6023  1  0.252800  0.238200  0.238200  0.5
  F  F6024  1  0.252800  0.761800  0.761800  0.5
  F  F6025  1  0.752800  0.738200  0.738200  0.5
  F  F6026  1  0.752800  0.261800  0.261800  0.5
  F  F6027  1  0.517500  0.000000  0.500000  0.5
  F  F6028  1  0.017500  0.500000  0.000000  0.5
  F  F6029  1  0.482500  0.000000  0.500000  0.5
  F  F6030  1  0.982500  0.500000  0.000000  0.5
  F  F6031  1  0.616000  0.996500  0.486500  0.5
  F  F6032  1  0.616000  0.003500  0.513500  0.5
  F  F6033  1  0.116000  0.496500  0.986500  0.5
  F  F6034  1  0.116000  0.503500  0.013500  0.5
  F  F6035  1  0.384000  0.003500  0.513500  0.5
  F  F6036  1  0.384000  0.996500  0.486500  0.5
  F  F6037  1  0.884000  0.503500  0.013500  0.5
  F  F6038  1  0.884000  0.496500  0.986500  0.5
  F  F6039  1  0.615400  0.985700  0.507000  0.5
  F  F6040  1  0.615400  0.014300  0.493000  0.5
  F  F6041  1  0.115400  0.485700  0.007000  0.5
  F  F6042  1  0.115400  0.514300  0.993000  0.5
  F  F6043  1  0.384600  0.014300  0.493000  0.5
  F  F6044  1  0.384600  0.985700  0.507000  0.5
  F  F6045  1  0.884600  0.514300  0.993000  0.5
  F  F6046  1  0.884600  0.485700  0.007000  0.5
  F  F6047  1  0.616300  0.017000  0.507000  0.5
  F  F6048  1  0.616300  0.983000  0.493000  0.5
  F  F6049  1  0.116300  0.517000  0.007000  0.5
  F  F6050  1  0.116300  0.483000  0.993000  0.5
  F  F6051  1  0.383700  0.983000  0.493000  0.5
  F  F6052  1  0.383700  0.017000  0.507000  0.5
  F  F6053  1  0.883700  0.483000  0.993000  0.5
  F  F6054  1  0.883700  0.517000  0.007000  0.5
  F  F6055  1  0.979000  0.566000  0.682000  0.5
  F  F6056  1  0.979000  0.434000  0.318000  0.5
  F  F6057  1  0.479000  0.066000  0.182000  0.5
  F  F6058  1  0.479000  0.934000  0.818000  0.5
  F  F6059  1  0.021000  0.434000  0.318000  0.5
  F  F6060  1  0.021000  0.566000  0.682000  0.5
  F  F6061  1  0.521000  0.934000  0.818000  0.5
  F  F6062  1  0.521000  0.066000  0.182000  0.5
  F  F6063  1  0.009000  0.568500  0.688200  0.5
  F  F6064  1  0.009000  0.431500  0.311800  0.5
  F  F6065  1  0.509000  0.068500  0.188200  0.5
  F  F6066  1  0.509000  0.931500  0.811800  0.5
  F  F6067  1  0.991000  0.431500  0.311800  0.5
  F  F6068  1  0.991000  0.568500  0.688200  0.5
  F  F6069  1  0.491000  0.931500  0.811800  0.5
  F  F6070  1  0.491000  0.068500  0.188200  0.5
