
#######################################################################
#
#                 Cambridge Crystallographic Data Centre
#                                CCDC 
#
#######################################################################
#
# If this CIF has been generated from an entry in the Cambridge 
# Structural Database, then it will include bibliographic, chemical, 
# crystal, experimental, refinement or atomic coordinate data resulting 
# from the CCDC's data processing and validation procedures.
#
#######################################################################

data_IRANAS
_chemical_formula_moiety         
'C216 H188 N20 O64 Pd2 4+,C6 N6 Pt1 2-,15(C3 H6 O1),4(H2 O1),2(Cl1 1-)'
_chemical_name_systematic        
'tetrakis(\m-tetramethyl (1 ,2 ,3 ,9 ,10 ,11 ,12 ,13 ,14 ,18 ,19 ,20 ,21 ,22 ,23 ,24 ,25 ,26 ,27 ,28 ,29 ,30 ,31 ,35 ,36 ,37 )-5,7,15,17,32,34-hexaoxo-16,33-bis(pyridin-4-yl)-38,40-dioxa-6,16,33-triazahexadecacyclo[26.9.1.1^11,21^.1^13,19^.1^30,36^.0^2,27^.0^3,25^.0^4,8^.0^4,23^.0^8,26^.0^9,24^.0^10,22^.0^12,20^.0^14,18^.0^29,37^.0^31,35^]hentetraconta-1,11,21,28-tetracarboxylate)-di-palladium hexacyano-platinum dichloride acetone solvate tetrahydrate'
_symmetry_cell_setting           monoclinic
_symmetry_space_group_name_H-M   'C 2/c'
_symmetry_Int_Tables_number      15
_space_group_name_Hall           '-C 2yn'
loop_
_symmetry_equiv_pos_site_id
_symmetry_equiv_pos_as_xyz
1 x,y,z
2 -x,y,1/2-z
3 1/2+x,1/2+y,z
4 1/2-x,1/2+y,1/2-z
5 -x,-y,-z
6 x,-y,1/2+z
7 1/2-x,1/2-y,-z
8 1/2+x,1/2-y,1/2+z
_cell_length_a                   41.03(10)
_cell_length_b                   23.27(8)
_cell_length_c                   39.83(12)
_cell_angle_alpha                90
_cell_angle_beta                 109.64(13)
_cell_angle_gamma                90
_cell_volume                     35816
_exptl_crystal_colour            colorless
_exptl_crystal_description       block
_cell_formula_units_Z            4
_chemical_properties_physical    Air-sensitive
_exptl_crystal_recrystallization_method acetone/acetonitrile
loop_
_atom_site_label
_atom_site_type_symbol
_atom_site_fract_x
_atom_site_fract_y
_atom_site_fract_z
Pd1 Pd 0.5000 0.07084(15) 0.2500
Pd2 Pd 0.5000 0.63886(14) 0.2500
C1 C 0.4365(3) 0.0270(8) 0.1979(6)
H1 H 0.4518 -0.0015 0.1946
C2 C 0.4013(3) 0.0198(8) 0.1803(6)
H2 H 0.3924 -0.0128 0.1657
C3 C 0.3795(3) 0.0627(7) 0.1851(4)
C4 C 0.3932(3) 0.1094(8) 0.2062(5)
H3 H 0.3788 0.1396 0.2091
C5 C 0.4289(3) 0.1113(8) 0.2233(5)
H4 H 0.4384 0.1428 0.2386
N1 N 0.4502(3) 0.0712(8) 0.2191(5)
N2 N 0.3428(2) 0.0578(6) 0.1670(3)
C6 C 0.3290(3) 0.0425(7) 0.1310(3)
O1 O 0.3459(3) 0.0323(7) 0.1119(4)
C7 C 0.3177(3) 0.0666(8) 0.1828(4)
O2 O 0.3238(3) 0.0819(8) 0.2135(4)
C8 C 0.2901(3) 0.0413(8) 0.1209(4)
H5 H 0.2809 0.0025 0.1117
C9 C 0.2826(3) 0.0549(8) 0.1555(4)
H6 H 0.2713 0.0213 0.1629
C10 C 0.2701(4) 0.0883(7) 0.0953(4)
H7 H 0.2656 0.0801 0.0695
C11 C 0.2373(4) 0.0928(10) 0.1058(5)
H8 H 0.2243 0.0562 0.1027
H9 H 0.2218 0.1245 0.0935
C12 C 0.2576(4) 0.1064(7) 0.1451(5)
H10 H 0.2429 0.1119 0.1605
C13 C 0.2890(4) 0.1449(7) 0.1086(5)
H11 H 0.3146 0.1417 0.1139
C14 C 0.2795(4) 0.1598(7) 0.1426(5)
H12 H 0.3002 0.1658 0.1644
C15 C 0.2732(3) 0.1968(7) 0.0849(4)
O3 O 0.2424(2) 0.2077(6) 0.0923(3)
C16 C 0.2577(3) 0.2156(7) 0.1296(4)
C17 C 0.2667(3) 0.1871(7) 0.0457(4)
O4 O 0.2385(3) 0.1872(7) 0.0232(4)
O5 O 0.2967(3) 0.1764(7) 0.0408(4)
C18 C 0.2938(5) 0.1641(11) 0.0040(5)
H13 H 0.3168 0.1567 0.0027
H14 H 0.2791 0.1301 -0.0043
H15 H 0.2834 0.1971 -0.0111
C19 C 0.2307(3) 0.2278(7) 0.1470(4)
O6 O 0.2006(3) 0.2285(7) 0.1310(4)
O7 O 0.2454(3) 0.2369(7) 0.1818(3)
C20 C 0.2215(5) 0.2467(11) 0.2008(5)
H16 H 0.2344 0.2530 0.2262
H17 H 0.2074 0.2808 0.1911
H18 H 0.2064 0.2132 0.1982
C21 C 0.2961(4) 0.2501(7) 0.1015(5)
H19 H 0.3214 0.2417 0.1088
C22 C 0.2843(4) 0.2636(7) 0.1331(5)
H20 H 0.3038 0.2621 0.1563
C23 C 0.2855(3) 0.3039(7) 0.0774(5)
H21 H 0.2829 0.2976 0.0518
C24 C 0.2542(3) 0.3322(7) 0.0841(5)
H22 H 0.2314 0.3136 0.0716
C25 C 0.2682(4) 0.3240(7) 0.1249(4)
H23 H 0.2513 0.3337 0.1373
C26 C 0.3078(3) 0.3575(7) 0.0952(4)
C27 C 0.2959(3) 0.3706(7) 0.1277(4)
C28 C 0.3469(3) 0.3515(6) 0.1123(4)
C29 C 0.3280(3) 0.3741(7) 0.1590(4)
O8 O 0.3668(2) 0.3404(6) 0.0963(3)
O9 O 0.3306(3) 0.3847(6) 0.1900(3)
N3 N 0.3557(3) 0.3620(6) 0.1479(3)
H24 H 0.3772 0.3611 0.1626
C30 C 0.2905(3) 0.4038(7) 0.0685(4)
H25 H 0.2883 0.3943 0.0433
C31 C 0.2559(3) 0.3969(7) 0.0771(4)
H26 H 0.2347 0.4153 0.0602
C32 C 0.2708(4) 0.4227(7) 0.1144(5)
H27 H 0.2536 0.4279 0.1271
C33 C 0.3045(4) 0.4629(7) 0.0803(4)
H28 H 0.3304 0.4633 0.0886
C34 C 0.2908(4) 0.4783(7) 0.1111(5)
H29 H 0.3097 0.4883 0.1337
C35 C 0.2890(3) 0.5123(7) 0.0535(4)
O10 O 0.2564(2) 0.5175(6) 0.0577(3)
C36 C 0.2671(3) 0.5309(7) 0.0943(4)
C37 C 0.2863(3) 0.5006(7) 0.0152(4)
O11 O 0.2601(3) 0.4959(6) -0.0095(3)
O12 O 0.3174(2) 0.4952(6) 0.0129(3)
C38 C 0.3182(4) 0.4840(10) -0.0229(4)
H30 H 0.3423 0.4806 -0.0220
H31 H 0.3059 0.4482 -0.0320
H32 H 0.3070 0.5158 -0.0387
C39 C 0.2353(3) 0.5369(7) 0.1061(4)
O13 O 0.2065(3) 0.5252(6) 0.0872(4)
O14 O 0.2447(3) 0.5530(6) 0.1398(3)
C40 C 0.2187(5) 0.5586(10) 0.1561(5)
H33 H 0.2295 0.5707 0.1810
H34 H 0.2016 0.5873 0.1432
H35 H 0.2072 0.5215 0.1554
C41 C 0.3082(4) 0.5683(7) 0.0696(5)
H36 H 0.3338 0.5623 0.0799
C42 C 0.2920(4) 0.5819(7) 0.0995(5)
H37 H 0.3095 0.5844 0.1241
C43 C 0.2993(4) 0.6212(7) 0.0455(5)
H38 H 0.3012 0.6150 0.0214
C44 C 0.2630(4) 0.6378(9) 0.0448(5)
H39 H 0.2552 0.6754 0.0334
H40 H 0.2454 0.6078 0.0340
C45 C 0.2738(4) 0.6399(7) 0.0852(5)
H41 H 0.2544 0.6494 0.0942
C46 C 0.3204(3) 0.6729(8) 0.0660(4)
H42 H 0.3192 0.7059 0.0496
C47 C 0.3021(3) 0.6874(8) 0.0928(4)
H43 H 0.2916 0.7266 0.0886
C48 C 0.3573(3) 0.6603(7) 0.0885(3)
O15 O 0.3810(3) 0.6486(7) 0.0780(4)
C49 C 0.3296(3) 0.6830(7) 0.1291(4)
O16 O 0.3265(3) 0.6913(7) 0.1578(4)
N4 N 0.3606(3) 0.6664(6) 0.1243(3)
C50 C 0.4343(4) 0.6897(8) 0.2074(5)
H44 H 0.4416 0.7175 0.2259
C51 C 0.4032(4) 0.6991(8) 0.1803(5)
H45 H 0.3896 0.7322 0.1802
C52 C 0.3925(3) 0.6587(8) 0.1531(4)
C53 C 0.4135(4) 0.6114(8) 0.1548(5)
H46 H 0.4072 0.5834 0.1363
C54 C 0.4436(4) 0.6052(8) 0.1834(5)
H47 H 0.4571 0.5716 0.1848
N5 N 0.4546(4) 0.6441(9) 0.2094(5)
C55 C 0.4707(5) 0.0223(8) 0.3012(5)
H48 H 0.4623 -0.0049 0.2825
C56 C 0.4627(5) 0.0135(8) 0.3318(5)
H49 H 0.4496 -0.0189 0.3342
C57 C 0.4747(4) 0.0539(7) 0.3593(4)
C58 C 0.4932(4) 0.1004(8) 0.3538(5)
H50 H 0.5014 0.1290 0.3717
C59 C 0.4996(4) 0.1052(8) 0.3219(5)
H51 H 0.5120 0.1378 0.3184
N6 N 0.4893(4) 0.0664(9) 0.2958(5)
N7 N 0.4680(3) 0.0448(6) 0.3919(3)
C60 C 0.4361(3) 0.0272(8) 0.3936(4)
O17 O 0.4104(3) 0.0177(7) 0.3677(4)
C61 C 0.4932(3) 0.0509(8) 0.4256(4)
O18 O 0.5223(3) 0.0666(7) 0.4295(4)
C62 C 0.4386(4) 0.0232(8) 0.4321(4)
H52 H 0.4332 -0.0167 0.4380
C63 C 0.4768(4) 0.0389(9) 0.4534(3)
H53 H 0.4887 0.0061 0.4689
C64 C 0.4177(4) 0.0674(8) 0.4452(5)
H54 H 0.3932 0.0564 0.4415
C65 C 0.4414(5) 0.0736(10) 0.4847(5)
H55 H 0.4335 0.1042 0.4975
H56 H 0.4443 0.0369 0.4980
C66 C 0.4738(5) 0.0906(8) 0.4763(5)
H57 H 0.4947 0.0981 0.4976
C67 C 0.4225(4) 0.1261(8) 0.4294(6)
H58 H 0.4198 0.1221 0.4036
C68 C 0.4602(5) 0.1436(8) 0.4515(6)
H59 H 0.4743 0.1505 0.4358
C69 C 0.4025(3) 0.1786(8) 0.4354(5)
O19 O 0.4205(3) 0.1933(7) 0.4720(4)
C70 C 0.4538(4) 0.1995(8) 0.4686(4)
C71 C 0.3645(4) 0.1668(7) 0.4280(4)
O20 O 0.3453(4) 0.1529(7) 0.3992(4)
O21 O 0.3555(3) 0.1738(7) 0.4567(4)
C72 C 0.3191(4) 0.1641(12) 0.4517(8)
H60 H 0.3150 0.1703 0.4743
H61 H 0.3048 0.1908 0.4337
H62 H 0.3129 0.1245 0.4437
C73 C 0.4806(4) 0.2150(7) 0.5043(4)
O22 O 0.4746(3) 0.2165(7) 0.5316(4)
O23 O 0.5104(3) 0.2287(7) 0.4999(4)
C74 C 0.5383(5) 0.2455(11) 0.5320(6)
H63 H 0.5590 0.2547 0.5260
H64 H 0.5313 0.2793 0.5426
H65 H 0.5435 0.2137 0.5492
C75 C 0.4094(4) 0.2305(8) 0.4152(5)
H66 H 0.4088 0.2199 0.3907
C76 C 0.4473(4) 0.2470(8) 0.4402(5)
H67 H 0.4646 0.2469 0.4275
C77 C 0.3880(4) 0.2847(7) 0.4150(5)
H68 H 0.3624 0.2783 0.4066
C78 C 0.4030(3) 0.3118(8) 0.4525(5)
H69 H 0.3970 0.2931 0.4723
C79 C 0.4414(4) 0.3075(8) 0.4535(5)
H70 H 0.4587 0.3184 0.4771
C80 C 0.3998(3) 0.3357(7) 0.3966(4)
C81 C 0.4355(3) 0.3544(7) 0.4245(4)
C82 C 0.4066(3) 0.3315(7) 0.3623(4)
O24 O 0.3860(3) 0.3184(6) 0.3331(3)
C83 C 0.4592(3) 0.3590(6) 0.4025(4)
O25 O 0.4895(2) 0.3735(6) 0.4141(3)
N8 N 0.4405(3) 0.3459(6) 0.3684(3)
H71 H 0.4495 0.3466 0.3512
C84 C 0.3757(4) 0.3806(7) 0.4032(4)
H72 H 0.3507 0.3694 0.3944
C85 C 0.3936(3) 0.3764(7) 0.4450(4)
H73 H 0.3813 0.3952 0.4599
C86 C 0.4273(3) 0.4050(7) 0.4445(5)
H74 H 0.4447 0.4121 0.4686
C87 C 0.3830(3) 0.4403(7) 0.3911(5)
H75 H 0.3860 0.4389 0.3672
C88 C 0.4169(3) 0.4588(7) 0.4208(5)
H76 H 0.4352 0.4699 0.4106
C89 C 0.3581(3) 0.4886(7) 0.3932(4)
O26 O 0.3681(2) 0.4976(5) 0.4305(3)
C90 C 0.4036(3) 0.5113(7) 0.4363(4)
C91 C 0.3206(3) 0.4692(6) 0.3783(4)
O27 O 0.3018(2) 0.4632(6) 0.3955(3)
O28 O 0.3120(2) 0.4600(6) 0.3435(3)
C92 C 0.2776(3) 0.4371(9) 0.3258(5)
H77 H 0.2739 0.4321 0.3003
H78 H 0.2753 0.3999 0.3363
H79 H 0.2603 0.4639 0.3287
C93 C 0.4224(3) 0.5260(6) 0.4750(4)
O29 O 0.4103(3) 0.5249(7) 0.4983(3)
O30 O 0.4548(2) 0.5413(6) 0.4794(3)
C94 C 0.4757(4) 0.5578(10) 0.5155(4)
H80 H 0.4990 0.5683 0.5160
H81 H 0.4650 0.5907 0.5231
H82 H 0.4772 0.5255 0.5317
C95 C 0.3685(3) 0.5446(6) 0.3783(4)
H83 H 0.3746 0.5383 0.3563
C96 C 0.3999(3) 0.5622(7) 0.4111(4)
H84 H 0.4211 0.5661 0.4042
C97 C 0.3439(3) 0.5961(6) 0.3752(4)
H85 H 0.3191 0.5878 0.3613
C98 C 0.3505(3) 0.6136(9) 0.4132(4)
H86 H 0.3445 0.5830 0.4274
H87 H 0.3387 0.6499 0.4153
C99 C 0.3896(3) 0.6210(7) 0.4223(4)
H88 H 0.4024 0.6324 0.4475
C100 C 0.3591(3) 0.6473(7) 0.3610(3)
H89 H 0.3416 0.6789 0.3536
C101 C 0.3895(3) 0.6660(7) 0.3941(3)
H90 H 0.3856 0.7054 0.4019
C102 C 0.3741(3) 0.6358(7) 0.3321(3)
O31 O 0.3588(3) 0.6192(7) 0.3020(3)
C103 C 0.4203(3) 0.6652(7) 0.3815(3)
O32 O 0.4499(2) 0.6784(6) 0.3982(3)
N9 N 0.4096(2) 0.6468(6) 0.3461(3)
C104 C 0.4549(4) 0.5929(7) 0.2861(5)
H91 H 0.4546 0.5599 0.2720
C105 C 0.4336(4) 0.5930(7) 0.3066(5)
H92 H 0.4197 0.5605 0.3071
C106 C 0.4330(3) 0.6415(7) 0.3266(4)
C107 C 0.4551(4) 0.6869(7) 0.3267(5)
H93 H 0.4561 0.7203 0.3407
C108 C 0.4758(4) 0.6815(8) 0.3055(5)
H94 H 0.4912 0.7121 0.3057
N10 N 0.4756(4) 0.6361(8) 0.2849(5)
C1A C 0.5635(3) 0.0270(8) 0.3021(6)
H1A H 0.5482 -0.0015 0.3054
C2A C 0.5987(3) 0.0198(8) 0.3197(6)
H2A H 0.6076 -0.0128 0.3343
C3A C 0.6205(3) 0.0627(7) 0.3149(4)
C4A C 0.6068(3) 0.1094(8) 0.2938(5)
H3A H 0.6212 0.1396 0.2909
C5A C 0.5711(3) 0.1113(8) 0.2767(5)
H4A H 0.5616 0.1428 0.2614
N1A N 0.5498(3) 0.0712(8) 0.2809(5)
N2A N 0.6572(2) 0.0578(6) 0.3330(3)
C6A C 0.6710(3) 0.0425(7) 0.3690(3)
O1A O 0.6541(3) 0.0323(7) 0.3881(4)
C7A C 0.6823(3) 0.0666(8) 0.3172(4)
O2A O 0.6762(3) 0.0819(8) 0.2865(4)
C8A C 0.7099(3) 0.0413(8) 0.3791(4)
H5A H 0.7191 0.0025 0.3883
C9A C 0.7174(3) 0.0549(8) 0.3445(4)
H6A H 0.7287 0.0213 0.3371
C10A C 0.7299(4) 0.0883(7) 0.4047(4)
H7A H 0.7344 0.0801 0.4305
C11A C 0.7627(4) 0.0928(10) 0.3942(5)
H8A H 0.7757 0.0562 0.3973
H9A H 0.7782 0.1245 0.4065
C12A C 0.7424(4) 0.1064(7) 0.3549(5)
H10A H 0.7571 0.1119 0.3395
C13A C 0.7110(4) 0.1449(7) 0.3914(5)
H11A H 0.6854 0.1417 0.3861
C14A C 0.7205(4) 0.1598(7) 0.3574(5)
H12A H 0.6998 0.1658 0.3356
C15A C 0.7268(3) 0.1968(7) 0.4151(4)
O3A O 0.7576(2) 0.2077(6) 0.4077(3)
C16A C 0.7423(3) 0.2156(7) 0.3704(4)
C17A C 0.7333(3) 0.1871(7) 0.4543(4)
O4A O 0.7615(3) 0.1872(7) 0.4768(4)
O5A O 0.7033(3) 0.1764(7) 0.4592(4)
C18A C 0.7062(5) 0.1641(11) 0.4960(5)
H13A H 0.6832 0.1567 0.4973
H14A H 0.7209 0.1301 0.5043
H15A H 0.7166 0.1971 0.5111
C19A C 0.7693(3) 0.2278(7) 0.3530(4)
O6A O 0.7994(3) 0.2285(7) 0.3690(4)
O7A O 0.7546(3) 0.2369(7) 0.3182(3)
C20A C 0.7785(5) 0.2467(11) 0.2992(5)
H16A H 0.7656 0.2530 0.2738
H17A H 0.7926 0.2808 0.3089
H18A H 0.7936 0.2132 0.3018
C21A C 0.7039(4) 0.2501(7) 0.3985(5)
H19A H 0.6786 0.2417 0.3912
C22A C 0.7157(4) 0.2636(7) 0.3669(5)
H20A H 0.6962 0.2621 0.3437
C23A C 0.7145(3) 0.3039(7) 0.4226(5)
H21A H 0.7171 0.2976 0.4482
C24A C 0.7458(3) 0.3322(7) 0.4159(5)
H22A H 0.7686 0.3136 0.4284
C25A C 0.7318(4) 0.3240(7) 0.3751(4)
H23A H 0.7487 0.3337 0.3627
C26A C 0.6922(3) 0.3575(7) 0.4048(4)
C27A C 0.7041(3) 0.3706(7) 0.3723(4)
C28A C 0.6531(3) 0.3515(6) 0.3877(4)
C29A C 0.6720(3) 0.3741(7) 0.3410(4)
O8A O 0.6332(2) 0.3404(6) 0.4037(3)
O9A O 0.6694(3) 0.3847(6) 0.3100(3)
N3A N 0.6443(3) 0.3620(6) 0.3521(3)
H24A H 0.6228 0.3611 0.3374
C30A C 0.7095(3) 0.4038(7) 0.4315(4)
H25A H 0.7117 0.3943 0.4567
C31A C 0.7441(3) 0.3969(7) 0.4229(4)
H26A H 0.7653 0.4153 0.4398
C32A C 0.7292(4) 0.4227(7) 0.3856(5)
H27A H 0.7464 0.4279 0.3729
C33A C 0.6955(4) 0.4629(7) 0.4197(4)
H28A H 0.6696 0.4633 0.4114
C34A C 0.7092(4) 0.4783(7) 0.3889(5)
H29A H 0.6903 0.4883 0.3663
C35A C 0.7110(3) 0.5123(7) 0.4465(4)
O10A O 0.7436(2) 0.5175(6) 0.4423(3)
C36A C 0.7329(3) 0.5309(7) 0.4057(4)
C37A C 0.7137(3) 0.5006(7) 0.4848(4)
O11A O 0.7399(3) 0.4959(6) 0.5095(3)
O12A O 0.6826(2) 0.4952(6) 0.4871(3)
C38A C 0.6818(4) 0.4840(10) 0.5229(4)
H30A H 0.6577 0.4806 0.5220
H31A H 0.6941 0.4482 0.5320
H32A H 0.6930 0.5158 0.5387
C39A C 0.7647(3) 0.5369(7) 0.3939(4)
O13A O 0.7935(3) 0.5252(6) 0.4128(4)
O14A O 0.7553(3) 0.5530(6) 0.3602(3)
C40A C 0.7813(5) 0.5586(10) 0.3439(5)
H33A H 0.7705 0.5707 0.3190
H34A H 0.7984 0.5873 0.3568
H35A H 0.7928 0.5215 0.3446
C41A C 0.6918(4) 0.5683(7) 0.4304(5)
H36A H 0.6662 0.5623 0.4201
C42A C 0.7080(4) 0.5819(7) 0.4005(5)
H37A H 0.6905 0.5844 0.3759
C43A C 0.7007(4) 0.6212(7) 0.4545(5)
H38A H 0.6988 0.6150 0.4786
C44A C 0.7370(4) 0.6378(9) 0.4552(5)
H39A H 0.7448 0.6754 0.4666
H40A H 0.7546 0.6078 0.4660
C45A C 0.7262(4) 0.6399(7) 0.4148(5)
H41A H 0.7456 0.6494 0.4058
C46A C 0.6796(3) 0.6729(8) 0.4340(4)
H42A H 0.6808 0.7059 0.4504
C47A C 0.6979(3) 0.6874(8) 0.4072(4)
H43A H 0.7084 0.7266 0.4114
C48A C 0.6427(3) 0.6603(7) 0.4115(3)
O15A O 0.6190(3) 0.6486(7) 0.4220(4)
C49A C 0.6704(3) 0.6830(7) 0.3709(4)
O16A O 0.6735(3) 0.6913(7) 0.3422(4)
N4A N 0.6394(3) 0.6664(6) 0.3757(3)
C50A C 0.5657(4) 0.6897(8) 0.2926(5)
H44A H 0.5584 0.7175 0.2741
C51A C 0.5968(4) 0.6991(8) 0.3197(5)
H45A H 0.6104 0.7322 0.3198
C52A C 0.6075(3) 0.6587(8) 0.3469(4)
C53A C 0.5865(4) 0.6114(8) 0.3452(5)
H46A H 0.5928 0.5834 0.3637
C54A C 0.5564(4) 0.6052(8) 0.3166(5)
H47A H 0.5429 0.5716 0.3152
N5A N 0.5454(4) 0.6441(9) 0.2906(5)
C55A C 0.5293(5) 0.0223(8) 0.1988(5)
H48A H 0.5377 -0.0049 0.2175
C56A C 0.5373(5) 0.0135(8) 0.1682(5)
H49A H 0.5504 -0.0189 0.1658
C57A C 0.5253(4) 0.0539(7) 0.1407(4)
C58A C 0.5068(4) 0.1004(8) 0.1462(5)
H50A H 0.4986 0.1290 0.1283
C59A C 0.5004(4) 0.1052(8) 0.1781(5)
H51A H 0.4880 0.1378 0.1816
N6A N 0.5107(4) 0.0664(9) 0.2042(5)
N7A N 0.5320(3) 0.0448(6) 0.1081(3)
C60A C 0.5639(3) 0.0272(8) 0.1064(4)
O17A O 0.5896(3) 0.0177(7) 0.1323(4)
C61A C 0.5068(3) 0.0509(8) 0.0744(4)
O18A O 0.4777(3) 0.0666(7) 0.0705(4)
C62A C 0.5614(4) 0.0232(8) 0.0679(4)
H52A H 0.5668 -0.0167 0.0620
C63A C 0.5232(4) 0.0389(9) 0.0466(3)
H53A H 0.5113 0.0061 0.0311
C64A C 0.5823(4) 0.0674(8) 0.0548(5)
H54A H 0.6068 0.0564 0.0585
C65A C 0.5586(5) 0.0736(10) 0.0153(5)
H55A H 0.5665 0.1042 0.0025
H56A H 0.5557 0.0369 0.0020
C66A C 0.5262(5) 0.0906(8) 0.0237(5)
H57A H 0.5053 0.0981 0.0024
C67A C 0.5775(4) 0.1261(8) 0.0706(6)
H58A H 0.5802 0.1221 0.0964
C68A C 0.5398(5) 0.1436(8) 0.0485(6)
H59A H 0.5257 0.1505 0.0642
C69A C 0.5975(3) 0.1786(8) 0.0646(5)
O19A O 0.5795(3) 0.1933(7) 0.0280(4)
C70A C 0.5462(4) 0.1995(8) 0.0314(4)
C71A C 0.6355(4) 0.1668(7) 0.0720(4)
O20A O 0.6547(4) 0.1529(7) 0.1008(4)
O21A O 0.6445(3) 0.1738(7) 0.0433(4)
C72A C 0.6809(4) 0.1641(12) 0.0483(8)
H60A H 0.6850 0.1703 0.0257
H61A H 0.6952 0.1908 0.0663
H62A H 0.6871 0.1245 0.0563
C73A C 0.5194(4) 0.2150(7) -0.0043(4)
O22A O 0.5254(3) 0.2165(7) -0.0316(4)
O23A O 0.4896(3) 0.2287(7) 0.0001(4)
C74A C 0.4617(5) 0.2455(11) -0.0320(6)
H63A H 0.4410 0.2547 -0.0260
H64A H 0.4687 0.2793 -0.0426
H65A H 0.4565 0.2137 -0.0492
C75A C 0.5906(4) 0.2305(8) 0.0848(5)
H66A H 0.5912 0.2199 0.1093
C76A C 0.5527(4) 0.2470(8) 0.0598(5)
H67A H 0.5354 0.2469 0.0725
C77A C 0.6120(4) 0.2847(7) 0.0850(5)
H68A H 0.6376 0.2783 0.0934
C78A C 0.5970(3) 0.3118(8) 0.0475(5)
H69A H 0.6030 0.2931 0.0277
C79A C 0.5586(4) 0.3075(8) 0.0465(5)
H70A H 0.5413 0.3184 0.0229
C80A C 0.6002(3) 0.3357(7) 0.1034(4)
C81A C 0.5645(3) 0.3544(7) 0.0755(4)
C82A C 0.5934(3) 0.3315(7) 0.1377(4)
O24A O 0.6140(3) 0.3184(6) 0.1669(3)
C83A C 0.5408(3) 0.3590(6) 0.0975(4)
O25A O 0.5105(2) 0.3735(6) 0.0859(3)
N8A N 0.5595(3) 0.3459(6) 0.1316(3)
H71A H 0.5505 0.3466 0.1488
C84A C 0.6243(4) 0.3806(7) 0.0968(4)
H72A H 0.6493 0.3694 0.1056
C85A C 0.6064(3) 0.3764(7) 0.0550(4)
H73A H 0.6187 0.3952 0.0401
C86A C 0.5727(3) 0.4050(7) 0.0555(5)
H74A H 0.5553 0.4121 0.0314
C87A C 0.6170(3) 0.4403(7) 0.1089(5)
H75A H 0.6140 0.4389 0.1328
C88A C 0.5831(3) 0.4588(7) 0.0792(5)
H76A H 0.5648 0.4699 0.0894
C89A C 0.6419(3) 0.4886(7) 0.1068(4)
O26A O 0.6319(2) 0.4976(5) 0.0695(3)
C90A C 0.5964(3) 0.5113(7) 0.0637(4)
C91A C 0.6794(3) 0.4692(6) 0.1217(4)
O27A O 0.6982(2) 0.4632(6) 0.1045(3)
O28A O 0.6880(2) 0.4600(6) 0.1565(3)
C92A C 0.7224(3) 0.4371(9) 0.1742(5)
H77A H 0.7261 0.4321 0.1997
H78A H 0.7247 0.3999 0.1637
H79A H 0.7397 0.4639 0.1713
C93A C 0.5776(3) 0.5260(6) 0.0250(4)
O29A O 0.5897(3) 0.5249(7) 0.0017(3)
O30A O 0.5452(2) 0.5413(6) 0.0206(3)
C94A C 0.5243(4) 0.5578(10) -0.0155(4)
H80A H 0.5010 0.5683 -0.0160
H81A H 0.5350 0.5907 -0.0231
H82A H 0.5228 0.5255 -0.0317
C95A C 0.6315(3) 0.5446(6) 0.1217(4)
H83A H 0.6254 0.5383 0.1437
C96A C 0.6001(3) 0.5622(7) 0.0889(4)
H84A H 0.5789 0.5661 0.0958
C97A C 0.6561(3) 0.5961(6) 0.1248(4)
H85A H 0.6809 0.5878 0.1387
C98A C 0.6495(3) 0.6136(9) 0.0868(4)
H86A H 0.6555 0.5830 0.0726
H87A H 0.6613 0.6499 0.0847
C99A C 0.6104(3) 0.6210(7) 0.0777(4)
H88A H 0.5976 0.6324 0.0525
C100A C 0.6409(3) 0.6473(7) 0.1390(3)
H89A H 0.6584 0.6789 0.1464
C101A C 0.6105(3) 0.6660(7) 0.1059(3)
H90A H 0.6144 0.7054 0.0981
C102A C 0.6259(3) 0.6358(7) 0.1679(3)
O31A O 0.6412(3) 0.6192(7) 0.1980(3)
C103A C 0.5797(3) 0.6652(7) 0.1185(3)
O32A O 0.5501(2) 0.6784(6) 0.1018(3)
N9A N 0.5904(2) 0.6468(6) 0.1539(3)
C104A C 0.5451(4) 0.5929(7) 0.2139(5)
H91A H 0.5454 0.5599 0.2280
C105A C 0.5664(4) 0.5930(7) 0.1934(5)
H92A H 0.5803 0.5605 0.1929
C106A C 0.5670(3) 0.6415(7) 0.1734(4)
C107A C 0.5449(4) 0.6869(7) 0.1733(5)
H93A H 0.5439 0.7203 0.1593
C108A C 0.5242(4) 0.6815(8) 0.1945(5)
H94A H 0.5088 0.7121 0.1943
N10A N 0.5244(4) 0.6361(8) 0.2151(5)
Pt1 Pt 0.5000 0.35299(8) 0.2500
N11 N 0.5000 0.4781(13) 0.2500
C109 C 0.4569(4) 0.3524(10) 0.2175(5)
N12 N 0.4264(4) 0.3538(9) 0.1951(5)
C110 C 0.4837(4) 0.3483(10) 0.2849(5)
N13 N 0.4702(4) 0.3505(9) 0.3087(5)
C111 C 0.5000 0.2871(16) 0.2500
N14 N 0.5000 0.2289(13) 0.2500
C112 C 0.5000 0.4195(16) 0.2500
C109A C 0.5431(4) 0.3524(10) 0.2825(5)
N12A N 0.5736(4) 0.3538(9) 0.3049(5)
C110A C 0.5163(4) 0.3483(10) 0.2151(5)
N13A N 0.5298(4) 0.3505(9) 0.1913(5)
C113 C 0.3587(7) 0.2536(11) 0.2341(8)
C114 C 0.3944(6) 0.2725(15) 0.2526(8)
H95 H 0.3956 0.2931 0.2744
H96 H 0.4097 0.2389 0.2587
H97 H 0.4018 0.2981 0.2369
C115 C 0.3310(7) 0.2690(15) 0.2490(8)
H98 H 0.3411 0.2902 0.2714
H99 H 0.3136 0.2931 0.2319
H100 H 0.3199 0.2339 0.2536
O33 O 0.3505(5) 0.2272(11) 0.2064(6)
C116 C 0.3821(8) 0.4509(12) 0.2835(8)
C117 C 0.4012(8) 0.4531(19) 0.2565(8)
H101 H 0.3867 0.4360 0.2339
H102 H 0.4063 0.4932 0.2524
H103 H 0.4230 0.4316 0.2657
C118 C 0.3467(8) 0.4258(18) 0.2729(9)
H104 H 0.3398 0.4125 0.2482
H105 H 0.3466 0.3933 0.2886
H106 H 0.3303 0.4551 0.2751
O34 O 0.3983(5) 0.4713(11) 0.3125(6)
C119 C 0.3374(10) 0.8984(19) 0.3865(13)
C120 C 0.3433(13) 0.850(2) 0.4119(15)
H107 H 0.3250 0.8214 0.4026
H108 H 0.3658 0.8324 0.4148
H109 H 0.3431 0.8642 0.4350
C121 C 0.3059(10) 0.894(2) 0.3541(13)
H110 H 0.2939 0.8581 0.3546
H111 H 0.2905 0.9267 0.3536
H112 H 0.3128 0.8954 0.3328
O35 O 0.3566(8) 0.9393(17) 0.3920(13)
C122 C 0.2762(8) 0.3264(15) 0.4484(7)
C123 C 0.3136(6) 0.3315(15) 0.4587(11)
H113 H 0.3195 0.3689 0.4510
H114 H 0.3239 0.3282 0.4847
H115 H 0.3225 0.3008 0.4473
C124 C 0.2497(7) 0.3699(15) 0.4298(11)
H116 H 0.2612 0.4040 0.4247
H117 H 0.2342 0.3537 0.4075
H118 H 0.2363 0.3806 0.4451
O36 O 0.2655(6) 0.2819(12) 0.4564(8)
C125 C 0.2897(8) 0.2614(15) 0.3483(10)
C126 C 0.3118(9) 0.258(2) 0.3242(11)
H119 H 0.3030 0.2279 0.3065
H120 H 0.3107 0.2953 0.3121
H121 H 0.3358 0.2500 0.3387
C127 C 0.2604(9) 0.2179(18) 0.3404(13)
H122 H 0.2602 0.1942 0.3199
H123 H 0.2639 0.1932 0.3612
H124 H 0.2383 0.2382 0.3348
O37 O 0.2972(6) 0.2977(15) 0.3724(10)
C128 C 0.5341(8) 0.2524(15) 0.4007(11)
C129 C 0.5541(10) 0.2860(18) 0.4333(11)
H125 H 0.5688 0.3143 0.4270
H126 H 0.5380 0.3058 0.4427
H127 H 0.5687 0.2598 0.4514
C130 C 0.5382(11) 0.264(2) 0.3651(11)
H128 H 0.5550 0.2951 0.3676
H129 H 0.5466 0.2292 0.3567
H130 H 0.5159 0.2752 0.3478
O38 O 0.5145(8) 0.2153(14) 0.4022(9)
C131 C 0.5842(9) 0.4627(12) 0.3869(11)
C132 C 0.5513(9) 0.4409(19) 0.3606(11)
H131 H 0.5369 0.4240 0.3733
H132 H 0.5388 0.4727 0.3457
H133 H 0.5565 0.4116 0.3455
C133 C 0.5886(8) 0.4550(18) 0.4242(10)
H134 H 0.5681 0.4358 0.4264
H135 H 0.6091 0.4313 0.4355
H136 H 0.5915 0.4925 0.4360
O39 O 0.6078(6) 0.4866(12) 0.3788(9)
C134 C 0.4734(7) 0.372(2) 0.5749(14)
C135 C 0.4646(10) 0.315(2) 0.5874(16)
H137 H 0.4676 0.3177 0.6129
H138 H 0.4405 0.3057 0.5739
H139 H 0.4799 0.2855 0.5836
C136 C 0.4840(13) 0.417(3) 0.6037(15)
H140 H 0.4834 0.4005 0.6262
H141 H 0.5075 0.4302 0.6068
H142 H 0.4679 0.4494 0.5969
O40 O 0.4718(8) 0.381(2) 0.5442(13)
Cl1 Cl 0.47616(9) 0.14598(16) 0.69850(11)
O41 O 0.4457(2) 0.1472(5) 0.7561(5)
O42 O 0.3186(10) -0.077(2) 0.1685(13)
O43 O 0.3424(5) -0.1459(7) 0.2562(5)
loop_
_geom_bond_atom_site_label_1
_geom_bond_atom_site_label_2
_geom_bond_site_symmetry_1
_geom_bond_site_symmetry_2
Pd1 N1 1_555 1_555
Pd2 N5 1_555 1_555
C1 H1 1_555 1_555
C2 C1 1_555 1_555
H2 C2 1_555 1_555
C3 C2 1_555 1_555
C4 C3 1_555 1_555
H3 C4 1_555 1_555
C5 C4 1_555 1_555
H4 C5 1_555 1_555
N1 C1 1_555 1_555
N2 C3 1_555 1_555
C6 N2 1_555 1_555
O1 C6 1_555 1_555
C7 N2 1_555 1_555
O2 C7 1_555 1_555
C8 C6 1_555 1_555
H5 C8 1_555 1_555
C9 C7 1_555 1_555
H6 C9 1_555 1_555
C10 C8 1_555 1_555
H7 C10 1_555 1_555
C11 C10 1_555 1_555
H8 C11 1_555 1_555
H9 C11 1_555 1_555
C12 C9 1_555 1_555
H10 C12 1_555 1_555
C13 C10 1_555 1_555
H11 C13 1_555 1_555
C14 C12 1_555 1_555
H12 C14 1_555 1_555
C15 C13 1_555 1_555
O3 C15 1_555 1_555
C16 C14 1_555 1_555
C17 C15 1_555 1_555
O4 C17 1_555 1_555
O5 C17 1_555 1_555
C18 O5 1_555 1_555
H13 C18 1_555 1_555
H14 C18 1_555 1_555
H15 C18 1_555 1_555
C19 C16 1_555 1_555
O6 C19 1_555 1_555
O7 C19 1_555 1_555
C20 O7 1_555 1_555
H16 C20 1_555 1_555
H17 C20 1_555 1_555
H18 C20 1_555 1_555
C21 C15 1_555 1_555
H19 C21 1_555 1_555
C22 C16 1_555 1_555
H20 C22 1_555 1_555
C23 C21 1_555 1_555
H21 C23 1_555 1_555
C24 C23 1_555 1_555
H22 C24 1_555 1_555
C25 C22 1_555 1_555
H23 C25 1_555 1_555
C26 C23 1_555 1_555
C27 C25 1_555 1_555
C28 C26 1_555 1_555
C29 C27 1_555 1_555
O8 C28 1_555 1_555
O9 C29 1_555 1_555
N3 C28 1_555 1_555
H24 N3 1_555 1_555
C30 C26 1_555 1_555
H25 C30 1_555 1_555
C31 C24 1_555 1_555
H26 C31 1_555 1_555
C32 C27 1_555 1_555
H27 C32 1_555 1_555
C33 C30 1_555 1_555
H28 C33 1_555 1_555
C34 C32 1_555 1_555
H29 C34 1_555 1_555
C35 C33 1_555 1_555
O10 C35 1_555 1_555
C36 C34 1_555 1_555
C37 C35 1_555 1_555
O11 C37 1_555 1_555
O12 C37 1_555 1_555
C38 O12 1_555 1_555
H30 C38 1_555 1_555
H31 C38 1_555 1_555
H32 C38 1_555 1_555
C39 C36 1_555 1_555
O13 C39 1_555 1_555
O14 C39 1_555 1_555
C40 O14 1_555 1_555
H33 C40 1_555 1_555
H34 C40 1_555 1_555
H35 C40 1_555 1_555
C41 C35 1_555 1_555
H36 C41 1_555 1_555
C42 C36 1_555 1_555
H37 C42 1_555 1_555
C43 C41 1_555 1_555
H38 C43 1_555 1_555
C44 C43 1_555 1_555
H39 C44 1_555 1_555
H40 C44 1_555 1_555
C45 C42 1_555 1_555
H41 C45 1_555 1_555
C46 C43 1_555 1_555
H42 C46 1_555 1_555
C47 C45 1_555 1_555
H43 C47 1_555 1_555
C48 C46 1_555 1_555
O15 C48 1_555 1_555
C49 C47 1_555 1_555
O16 C49 1_555 1_555
N4 C48 1_555 1_555
C50 H44 1_555 1_555
C51 C50 1_555 1_555
H45 C51 1_555 1_555
C52 N4 1_555 1_555
C53 C52 1_555 1_555
H46 C53 1_555 1_555
C54 C53 1_555 1_555
H47 C54 1_555 1_555
N5 C50 1_555 1_555
C55 H48 1_555 1_555
C56 C55 1_555 1_555
H49 C56 1_555 1_555
C57 C56 1_555 1_555
C58 C57 1_555 1_555
H50 C58 1_555 1_555
C59 C58 1_555 1_555
H51 C59 1_555 1_555
N6 Pd1 1_555 1_555
N7 C57 1_555 1_555
C60 N7 1_555 1_555
O17 C60 1_555 1_555
C61 N7 1_555 1_555
O18 C61 1_555 1_555
C62 C60 1_555 1_555
H52 C62 1_555 1_555
C63 C61 1_555 1_555
H53 C63 1_555 1_555
C64 C62 1_555 1_555
H54 C64 1_555 1_555
C65 C64 1_555 1_555
H55 C65 1_555 1_555
H56 C65 1_555 1_555
C66 C63 1_555 1_555
H57 C66 1_555 1_555
C67 C64 1_555 1_555
H58 C67 1_555 1_555
C68 C66 1_555 1_555
H59 C68 1_555 1_555
C69 C67 1_555 1_555
O19 C69 1_555 1_555
C70 C68 1_555 1_555
C71 C69 1_555 1_555
O20 C71 1_555 1_555
O21 C71 1_555 1_555
C72 O21 1_555 1_555
H60 C72 1_555 1_555
H61 C72 1_555 1_555
H62 C72 1_555 1_555
C73 C70 1_555 1_555
O22 C73 1_555 1_555
O23 C73 1_555 1_555
C74 O23 1_555 1_555
H63 C74 1_555 1_555
H64 C74 1_555 1_555
H65 C74 1_555 1_555
C75 C69 1_555 1_555
H66 C75 1_555 1_555
C76 C70 1_555 1_555
H67 C76 1_555 1_555
C77 C75 1_555 1_555
H68 C77 1_555 1_555
C78 C77 1_555 1_555
H69 C78 1_555 1_555
C79 C76 1_555 1_555
H70 C79 1_555 1_555
C80 C77 1_555 1_555
C81 C79 1_555 1_555
C82 C80 1_555 1_555
O24 C82 1_555 1_555
C83 C81 1_555 1_555
O25 C83 1_555 1_555
N8 C82 1_555 1_555
H71 N8 1_555 1_555
C84 C80 1_555 1_555
H72 C84 1_555 1_555
C85 C78 1_555 1_555
H73 C85 1_555 1_555
C86 C81 1_555 1_555
H74 C86 1_555 1_555
C87 C84 1_555 1_555
H75 C87 1_555 1_555
C88 C86 1_555 1_555
H76 C88 1_555 1_555
C89 C87 1_555 1_555
O26 C89 1_555 1_555
C90 C88 1_555 1_555
C91 C89 1_555 1_555
O27 C91 1_555 1_555
O28 C91 1_555 1_555
C92 O28 1_555 1_555
H77 C92 1_555 1_555
H78 C92 1_555 1_555
H79 C92 1_555 1_555
C93 C90 1_555 1_555
O29 C93 1_555 1_555
O30 C93 1_555 1_555
C94 O30 1_555 1_555
H80 C94 1_555 1_555
H81 C94 1_555 1_555
H82 C94 1_555 1_555
C95 C89 1_555 1_555
H83 C95 1_555 1_555
C96 C90 1_555 1_555
H84 C96 1_555 1_555
C97 C95 1_555 1_555
H85 C97 1_555 1_555
C98 C97 1_555 1_555
H86 C98 1_555 1_555
H87 C98 1_555 1_555
C99 C96 1_555 1_555
H88 C99 1_555 1_555
C100 C97 1_555 1_555
H89 C100 1_555 1_555
C101 C99 1_555 1_555
H90 C101 1_555 1_555
C102 C100 1_555 1_555
O31 C102 1_555 1_555
C103 C101 1_555 1_555
O32 C103 1_555 1_555
N9 C102 1_555 1_555
C104 H91 1_555 1_555
C105 C104 1_555 1_555
H92 C105 1_555 1_555
C106 N9 1_555 1_555
C107 C106 1_555 1_555
H93 C107 1_555 1_555
C108 C107 1_555 1_555
H94 C108 1_555 1_555
N10 Pd2 1_555 1_555
Pt1 C109 1_555 1_555
N11 C112 1_555 1_555
C109 N12 1_555 1_555
C110 Pt1 1_555 1_555
N13 C110 1_555 1_555
C111 Pt1 1_555 1_555
N14 C111 1_555 1_555
C112 Pt1 1_555 1_555
C113 C114 1_555 1_555
C114 H95 1_555 1_555
H96 C114 1_555 1_555
H97 C114 1_555 1_555
C115 C113 1_555 1_555
H98 C115 1_555 1_555
H99 C115 1_555 1_555
H100 C115 1_555 1_555
O33 C113 1_555 1_555
C116 C117 1_555 1_555
C117 H101 1_555 1_555
H102 C117 1_555 1_555
H103 C117 1_555 1_555
C118 C116 1_555 1_555
H104 C118 1_555 1_555
H105 C118 1_555 1_555
H106 C118 1_555 1_555
O34 C116 1_555 1_555
C119 C120 1_555 1_555
C120 H107 1_555 1_555
H108 C120 1_555 1_555
H109 C120 1_555 1_555
C121 C119 1_555 1_555
H110 C121 1_555 1_555
H111 C121 1_555 1_555
H112 C121 1_555 1_555
O35 C119 1_555 1_555
C122 C123 1_555 1_555
C123 H113 1_555 1_555
H114 C123 1_555 1_555
H115 C123 1_555 1_555
C124 C122 1_555 1_555
H116 C124 1_555 1_555
H117 C124 1_555 1_555
H118 C124 1_555 1_555
O36 C122 1_555 1_555
C125 C126 1_555 1_555
C126 H119 1_555 1_555
H120 C126 1_555 1_555
H121 C126 1_555 1_555
C127 C125 1_555 1_555
H122 C127 1_555 1_555
H123 C127 1_555 1_555
H124 C127 1_555 1_555
O37 C125 1_555 1_555
C128 C129 1_555 1_555
C129 H125 1_555 1_555
H126 C129 1_555 1_555
H127 C129 1_555 1_555
C130 C128 1_555 1_555
H128 C130 1_555 1_555
H129 C130 1_555 1_555
H130 C130 1_555 1_555
O38 C128 1_555 1_555
C131 C132 1_555 1_555
C132 H131 1_555 1_555
H132 C132 1_555 1_555
H133 C132 1_555 1_555
C133 C131 1_555 1_555
H134 C133 1_555 1_555
H135 C133 1_555 1_555
H136 C133 1_555 1_555
O39 C131 1_555 1_555
C134 C135 1_555 1_555
C135 H137 1_555 1_555
H138 C135 1_555 1_555
H139 C135 1_555 1_555
C136 C134 1_555 1_555
H140 C136 1_555 1_555
H141 C136 1_555 1_555
H142 C136 1_555 1_555
O40 C134 1_555 1_555
C1A H1A 1_555 1_555
C2A C1A 1_555 1_555
H2A C2A 1_555 1_555
C3A C2A 1_555 1_555
C4A C3A 1_555 1_555
H3A C4A 1_555 1_555
C5A C4A 1_555 1_555
H4A C5A 1_555 1_555
N1A Pd1 1_555 1_555
N2A C3A 1_555 1_555
C6A N2A 1_555 1_555
O1A C6A 1_555 1_555
C7A N2A 1_555 1_555
O2A C7A 1_555 1_555
C8A C6A 1_555 1_555
H5A C8A 1_555 1_555
C9A C7A 1_555 1_555
H6A C9A 1_555 1_555
C10A C8A 1_555 1_555
H7A C10A 1_555 1_555
C11A C10A 1_555 1_555
H8A C11A 1_555 1_555
H9A C11A 1_555 1_555
C12A C9A 1_555 1_555
H10A C12A 1_555 1_555
C13A C10A 1_555 1_555
H11A C13A 1_555 1_555
C14A C12A 1_555 1_555
H12A C14A 1_555 1_555
C15A C13A 1_555 1_555
O3A C15A 1_555 1_555
C16A C14A 1_555 1_555
C17A C15A 1_555 1_555
O4A C17A 1_555 1_555
O5A C17A 1_555 1_555
C18A O5A 1_555 1_555
H13A C18A 1_555 1_555
H14A C18A 1_555 1_555
H15A C18A 1_555 1_555
C19A C16A 1_555 1_555
O6A C19A 1_555 1_555
O7A C19A 1_555 1_555
C20A O7A 1_555 1_555
H16A C20A 1_555 1_555
H17A C20A 1_555 1_555
H18A C20A 1_555 1_555
C21A C15A 1_555 1_555
H19A C21A 1_555 1_555
C22A C16A 1_555 1_555
H20A C22A 1_555 1_555
C23A C21A 1_555 1_555
H21A C23A 1_555 1_555
C24A C23A 1_555 1_555
H22A C24A 1_555 1_555
C25A C22A 1_555 1_555
H23A C25A 1_555 1_555
C26A C23A 1_555 1_555
C27A C25A 1_555 1_555
C28A C26A 1_555 1_555
C29A C27A 1_555 1_555
O8A C28A 1_555 1_555
O9A C29A 1_555 1_555
N3A C28A 1_555 1_555
H24A N3A 1_555 1_555
C30A C26A 1_555 1_555
H25A C30A 1_555 1_555
C31A C24A 1_555 1_555
H26A C31A 1_555 1_555
C32A C27A 1_555 1_555
H27A C32A 1_555 1_555
C33A C30A 1_555 1_555
H28A C33A 1_555 1_555
C34A C32A 1_555 1_555
H29A C34A 1_555 1_555
C35A C33A 1_555 1_555
O10A C35A 1_555 1_555
C36A C34A 1_555 1_555
C37A C35A 1_555 1_555
O11A C37A 1_555 1_555
O12A C37A 1_555 1_555
C38A O12A 1_555 1_555
H30A C38A 1_555 1_555
H31A C38A 1_555 1_555
H32A C38A 1_555 1_555
C39A C36A 1_555 1_555
O13A C39A 1_555 1_555
O14A C39A 1_555 1_555
C40A O14A 1_555 1_555
H33A C40A 1_555 1_555
H34A C40A 1_555 1_555
H35A C40A 1_555 1_555
C41A C35A 1_555 1_555
H36A C41A 1_555 1_555
C42A C36A 1_555 1_555
H37A C42A 1_555 1_555
C43A C41A 1_555 1_555
H38A C43A 1_555 1_555
C44A C43A 1_555 1_555
H39A C44A 1_555 1_555
H40A C44A 1_555 1_555
C45A C42A 1_555 1_555
H41A C45A 1_555 1_555
C46A C43A 1_555 1_555
H42A C46A 1_555 1_555
C47A C45A 1_555 1_555
H43A C47A 1_555 1_555
C48A C46A 1_555 1_555
O15A C48A 1_555 1_555
C49A C47A 1_555 1_555
O16A C49A 1_555 1_555
N4A C48A 1_555 1_555
C50A H44A 1_555 1_555
C51A C50A 1_555 1_555
H45A C51A 1_555 1_555
C52A N4A 1_555 1_555
C53A C52A 1_555 1_555
H46A C53A 1_555 1_555
C54A C53A 1_555 1_555
H47A C54A 1_555 1_555
N5A Pd2 1_555 1_555
C55A H48A 1_555 1_555
C56A C55A 1_555 1_555
H49A C56A 1_555 1_555
C57A C56A 1_555 1_555
C58A C57A 1_555 1_555
H50A C58A 1_555 1_555
C59A C58A 1_555 1_555
H51A C59A 1_555 1_555
N6A Pd1 1_555 1_555
N7A C57A 1_555 1_555
C60A N7A 1_555 1_555
O17A C60A 1_555 1_555
C61A N7A 1_555 1_555
O18A C61A 1_555 1_555
C62A C60A 1_555 1_555
H52A C62A 1_555 1_555
C63A C61A 1_555 1_555
H53A C63A 1_555 1_555
C64A C62A 1_555 1_555
H54A C64A 1_555 1_555
C65A C64A 1_555 1_555
H55A C65A 1_555 1_555
H56A C65A 1_555 1_555
C66A C63A 1_555 1_555
H57A C66A 1_555 1_555
C67A C64A 1_555 1_555
H58A C67A 1_555 1_555
C68A C66A 1_555 1_555
H59A C68A 1_555 1_555
C69A C67A 1_555 1_555
O19A C69A 1_555 1_555
C70A C68A 1_555 1_555
C71A C69A 1_555 1_555
O20A C71A 1_555 1_555
O21A C71A 1_555 1_555
C72A O21A 1_555 1_555
H60A C72A 1_555 1_555
H61A C72A 1_555 1_555
H62A C72A 1_555 1_555
C73A C70A 1_555 1_555
O22A C73A 1_555 1_555
O23A C73A 1_555 1_555
C74A O23A 1_555 1_555
H63A C74A 1_555 1_555
H64A C74A 1_555 1_555
H65A C74A 1_555 1_555
C75A C69A 1_555 1_555
H66A C75A 1_555 1_555
C76A C70A 1_555 1_555
H67A C76A 1_555 1_555
C77A C75A 1_555 1_555
H68A C77A 1_555 1_555
C78A C77A 1_555 1_555
H69A C78A 1_555 1_555
C79A C76A 1_555 1_555
H70A C79A 1_555 1_555
C80A C77A 1_555 1_555
C81A C79A 1_555 1_555
C82A C80A 1_555 1_555
O24A C82A 1_555 1_555
C83A C81A 1_555 1_555
O25A C83A 1_555 1_555
N8A C82A 1_555 1_555
H71A N8A 1_555 1_555
C84A C80A 1_555 1_555
H72A C84A 1_555 1_555
C85A C78A 1_555 1_555
H73A C85A 1_555 1_555
C86A C81A 1_555 1_555
H74A C86A 1_555 1_555
C87A C84A 1_555 1_555
H75A C87A 1_555 1_555
C88A C86A 1_555 1_555
H76A C88A 1_555 1_555
C89A C87A 1_555 1_555
O26A C89A 1_555 1_555
C90A C88A 1_555 1_555
C91A C89A 1_555 1_555
O27A C91A 1_555 1_555
O28A C91A 1_555 1_555
C92A O28A 1_555 1_555
H77A C92A 1_555 1_555
H78A C92A 1_555 1_555
H79A C92A 1_555 1_555
C93A C90A 1_555 1_555
O29A C93A 1_555 1_555
O30A C93A 1_555 1_555
C94A O30A 1_555 1_555
H80A C94A 1_555 1_555
H81A C94A 1_555 1_555
H82A C94A 1_555 1_555
C95A C89A 1_555 1_555
H83A C95A 1_555 1_555
C96A C90A 1_555 1_555
H84A C96A 1_555 1_555
C97A C95A 1_555 1_555
H85A C97A 1_555 1_555
C98A C97A 1_555 1_555
H86A C98A 1_555 1_555
H87A C98A 1_555 1_555
C99A C96A 1_555 1_555
H88A C99A 1_555 1_555
C100A C97A 1_555 1_555
H89A C100A 1_555 1_555
C101A C99A 1_555 1_555
H90A C101A 1_555 1_555
C102A C100A 1_555 1_555
O31A C102A 1_555 1_555
C103A C101A 1_555 1_555
O32A C103A 1_555 1_555
N9A C102A 1_555 1_555
C104A H91A 1_555 1_555
C105A C104A 1_555 1_555
H92A C105A 1_555 1_555
C106A N9A 1_555 1_555
C107A C106A 1_555 1_555
H93A C107A 1_555 1_555
C108A C107A 1_555 1_555
H94A C108A 1_555 1_555
N10A Pd2 1_555 1_555
C109A Pt1 1_555 1_555
N12A C109A 1_555 1_555
C110A Pt1 1_555 1_555
N13A C110A 1_555 1_555
C5 N1 1_555 1_555
C8 C9 1_555 1_555
C11 C12 1_555 1_555
C13 C14 1_555 1_555
O3 C16 1_555 1_555
C21 C22 1_555 1_555
C24 C25 1_555 1_555
C26 C27 1_555 1_555
C29 N3 1_555 1_555
C30 C31 1_555 1_555
C31 C32 1_555 1_555
C33 C34 1_555 1_555
O10 C36 1_555 1_555
C41 C42 1_555 1_555
C44 C45 1_555 1_555
C46 C47 1_555 1_555
C49 N4 1_555 1_555
C51 C52 1_555 1_555
C54 N5 1_555 1_555
C55 N6 1_555 1_555
C59 N6 1_555 1_555
C62 C63 1_555 1_555
C65 C66 1_555 1_555
C67 C68 1_555 1_555
O19 C70 1_555 1_555
C75 C76 1_555 1_555
C78 C79 1_555 1_555
C80 C81 1_555 1_555
C83 N8 1_555 1_555
C84 C85 1_555 1_555
C85 C86 1_555 1_555
C87 C88 1_555 1_555
O26 C90 1_555 1_555
C95 C96 1_555 1_555
C98 C99 1_555 1_555
C100 C101 1_555 1_555
C103 N9 1_555 1_555
C104 N10 1_555 1_555
C105 C106 1_555 1_555
C108 N10 1_555 1_555
C1A N1A 1_555 1_555
C5A N1A 1_555 1_555
C8A C9A 1_555 1_555
C11A C12A 1_555 1_555
C13A C14A 1_555 1_555
O3A C16A 1_555 1_555
C21A C22A 1_555 1_555
C24A C25A 1_555 1_555
C26A C27A 1_555 1_555
C29A N3A 1_555 1_555
C30A C31A 1_555 1_555
C31A C32A 1_555 1_555
C33A C34A 1_555 1_555
O10A C36A 1_555 1_555
C41A C42A 1_555 1_555
C44A C45A 1_555 1_555
C46A C47A 1_555 1_555
C49A N4A 1_555 1_555
C50A N5A 1_555 1_555
C51A C52A 1_555 1_555
C54A N5A 1_555 1_555
C55A N6A 1_555 1_555
C59A N6A 1_555 1_555
C62A C63A 1_555 1_555
C65A C66A 1_555 1_555
C67A C68A 1_555 1_555
O19A C70A 1_555 1_555
C75A C76A 1_555 1_555
C78A C79A 1_555 1_555
C80A C81A 1_555 1_555
C83A N8A 1_555 1_555
C84A C85A 1_555 1_555
C85A C86A 1_555 1_555
C87A C88A 1_555 1_555
O26A C90A 1_555 1_555
C95A C96A 1_555 1_555
C98A C99A 1_555 1_555
C100A C101A 1_555 1_555
C103A N9A 1_555 1_555
C104A N10A 1_555 1_555
C105A C106A 1_555 1_555
C108A N10A 1_555 1_555

#END
