# generated using pymatgen
data_H284Pd2PtC270N26(ClO43)2
_symmetry_space_group_name_H-M   'P 1'
_cell_length_a   23.27000000
_cell_length_b   23.58470797
_cell_length_c   39.83000000
_cell_angle_alpha   106.99943683
_cell_angle_beta   90.00000000
_cell_angle_gamma   119.55956598
_symmetry_Int_Tables_number   1
_chemical_formula_structural   H284Pd2PtC270N26(ClO43)2
_chemical_formula_sum   'H568 Pd4 Pt2 C540 N52 Cl4 O172'
_cell_volume   17908.01785142
_cell_formula_units_Z   2
loop_
 _symmetry_equiv_pos_site_id
 _symmetry_equiv_pos_as_xyz
  1  'x, y, z'
loop_
 _atom_site_type_symbol
 _atom_site_label
 _atom_site_symmetry_multiplicity
 _atom_site_fract_x
 _atom_site_fract_y
 _atom_site_fract_z
 _atom_site_occupancy
  C  C1  1  0.212900  0.000000  0.750000  1
  C  C2  1  0.787100  0.000000  0.250000  1
  C  C3  1  0.080500  0.000000  0.750000  1
  C  C4  1  0.919500  0.000000  0.250000  1
  C  C5  1  0.387700  0.282600  0.765900  1
  C  C6  1  0.105100  0.717400  0.734100  1
  C  C7  1  0.612300  0.717400  0.234100  1
  C  C8  1  0.894900  0.282600  0.265900  1
  C  C9  1  0.333100  0.211200  0.747400  1
  C  C10  1  0.121900  0.788800  0.752600  1
  C  C11  1  0.666900  0.788800  0.252600  1
  C  C12  1  0.878100  0.211200  0.247400  1
  C  C13  1  0.400000  0.338000  0.751000  1
  C  C14  1  0.062000  0.662000  0.749000  1
  C  C15  1  0.600000  0.662000  0.249000  1
  C  C16  1  0.938000  0.338000  0.251000  1
  C  C17  1  0.167000  0.235800  0.716500  1
  C  C18  1  0.931200  0.764200  0.783500  1
  C  C19  1  0.833000  0.764200  0.283500  1
  C  C20  1  0.068800  0.235800  0.216500  1
  C  C21  1  0.145700  0.197600  0.743500  1
  C  C22  1  0.948100  0.802400  0.756500  1
  C  C23  1  0.854300  0.802400  0.256500  1
  C  C24  1  0.051900  0.197600  0.243500  1
  C  C25  1  0.227500  0.306600  0.727100  1
  C  C26  1  0.920900  0.693400  0.772900  1
  C  C27  1  0.772500  0.693400  0.272900  1
  C  C28  1  0.079100  0.306600  0.227100  1
  C  C29  1  0.764200  0.325200  0.613500  1
  C  C30  1  0.439000  0.674800  0.886500  1
  C  C31  1  0.235800  0.674800  0.386500  1
  C  C32  1  0.561000  0.325200  0.113500  1
  C  C33  1  0.806700  0.313400  0.588100  1
  C  C34  1  0.493300  0.686600  0.911900  1
  C  C35  1  0.193300  0.686600  0.411900  1
  C  C36  1  0.506700  0.313400  0.088100  1
  C  C37  1  0.800100  0.388200  0.645900  1
  C  C38  1  0.411900  0.611800  0.854100  1
  C  C39  1  0.199900  0.611800  0.354100  1
  C  C40  1  0.588100  0.388200  0.145900  1
  C  C41  1  0.397400  0.447600  0.551600  1
  C  C42  1  0.949800  0.552400  0.948400  1
  C  C43  1  0.602600  0.552400  0.448400  1
  C  C44  1  0.050200  0.447600  0.051600  1
  C  C45  1  0.354900  0.372800  0.541300  1
  C  C46  1  0.982100  0.627200  0.958700  1
  C  C47  1  0.645100  0.627200  0.458700  1
  C  C48  1  0.017900  0.372800  0.041300  1
  C  C49  1  0.380400  0.500600  0.570200  1
  C  C50  1  0.879800  0.499400  0.929800  1
  C  C51  1  0.619600  0.499400  0.429800  1
  C  C52  1  0.120200  0.500600  0.070200  1
  C  C53  1  0.448900  0.420600  0.651700  1
  C  C54  1  0.028300  0.579400  0.848300  1
  C  C55  1  0.551100  0.579400  0.348300  1
  C  C56  1  0.971700  0.420600  0.151700  1
  C  C57  1  0.430200  0.376400  0.675800  1
  C  C58  1  0.053800  0.623600  0.824200  1
  C  C59  1  0.569800  0.623600  0.324200  1
  C  C60  1  0.946200  0.376400  0.175800  1
  C  C61  1  0.521700  0.479200  0.659600  1
  C  C62  1  0.042500  0.520800  0.840400  1
  C  C63  1  0.478300  0.520800  0.340400  1
  C  C64  1  0.957500  0.479200  0.159600  1
  C  C65  1  0.213500  0.931800  0.599300  1
  C  C66  1  0.281700  0.068200  0.900700  1
  C  C67  1  0.786500  0.068200  0.400700  1
  C  C68  1  0.718300  0.931800  0.099300  1
  C  C69  1  0.159900  0.891800  0.566700  1
  C  C70  1  0.268100  0.108200  0.933300  1
  C  C71  1  0.840100  0.108200  0.433300  1
  C  C72  1  0.731900  0.891800  0.066700  1
  C  C73  1  0.197800  0.923600  0.634900  1
  C  C74  1  0.274200  0.076400  0.865100  1
  C  C75  1  0.802200  0.076400  0.365100  1
  C  C76  1  0.725800  0.923600  0.134900  1
  C  C77  1  0.953100  0.831600  0.613100  1
  C  C78  1  0.121500  0.168400  0.886900  1
  C  C79  1  0.046900  0.168400  0.386900  1
  C  C80  1  0.878500  0.831600  0.113100  1
  C  C81  1  0.007800  0.897400  0.639400  1
  C  C82  1  0.110400  0.102600  0.860600  1
  C  C83  1  0.992200  0.102600  0.360600  1
  C  C84  1  0.889600  0.897400  0.139400  1
  C  C85  1  0.956400  0.822800  0.575800  1
  C  C86  1  0.133600  0.177200  0.924200  1
  C  C87  1  0.043600  0.177200  0.424200  1
  C  C88  1  0.866400  0.822800  0.075800  1
  C  C89  1  0.154600  0.053200  0.425100  1
  C  C90  1  0.101400  0.946800  0.074900  1
  C  C91  1  0.845400  0.946800  0.574900  1
  C  C92  1  0.898600  0.053200  0.925100  1
  C  C93  1  0.220400  0.070800  0.412600  1
  C  C94  1  0.149600  0.929200  0.087400  1
  C  C95  1  0.779600  0.929200  0.587400  1
  C  C96  1  0.850400  0.070800  0.912600  1
  C  C97  1  0.099000  0.032000  0.396300  1
  C  C98  1  0.067000  0.968000  0.103700  1
  C  C99  1  0.901000  0.968000  0.603700  1
  C  C100  1  0.933000  0.032000  0.896300  1
  C  C101  1  0.536500  0.127000  0.802100  1.0
  C  C102  1  0.409500  0.873000  0.697900  1.0
  C  C103  1  0.463500  0.873000  0.197900  1.0
  C  C104  1  0.590500  0.127000  0.302100  1.0
  C  C105  1  0.578900  0.197400  0.819700  1.0
  C  C106  1  0.381500  0.802600  0.680300  1.0
  C  C107  1  0.421100  0.802600  0.180300  1.0
  C  C108  1  0.618500  0.197400  0.319700  1.0
  C  C109  1  0.557800  0.241000  0.814900  1.0
  C  C110  1  0.316800  0.759000  0.685100  1.0
  C  C111  1  0.442200  0.759000  0.185100  1.0
  C  C112  1  0.683200  0.241000  0.314900  1.0
  C  C113  1  0.497400  0.213600  0.793800  1.0
  C  C114  1  0.283800  0.786400  0.706200  1.0
  C  C115  1  0.502600  0.786400  0.206200  1.0
  C  C116  1  0.716200  0.213600  0.293800  1.0
  C  C117  1  0.459800  0.142200  0.776700  1.0
  C  C118  1  0.317600  0.857800  0.723300  1.0
  C  C119  1  0.540200  0.857800  0.223300  1.0
  C  C120  1  0.682400  0.142200  0.276700  1.0
  C  C121  1  0.628500  0.342000  0.869000  1.0
  C  C122  1  0.286500  0.658000  0.631000  1.0
  C  C123  1  0.371500  0.658000  0.131000  1.0
  C  C124  1  0.713500  0.342000  0.369000  1.0
  C  C125  1  0.615700  0.364600  0.817200  1.0
  C  C126  1  0.251100  0.635400  0.682800  1.0
  C  C127  1  0.384300  0.635400  0.182800  1.0
  C  C128  1  0.748900  0.364600  0.317200  1.0
  C  C129  1  0.668600  0.419800  0.879100  1.0
  C  C130  1  0.248800  0.580200  0.620900  1.0
  C  C131  1  0.331400  0.580200  0.120900  1.0
  C  C132  1  0.751200  0.419800  0.379100  1.0
  C  C133  1  0.662500  0.434800  0.844500  1.0
  C  C134  1  0.227700  0.565200  0.655500  1.0
  C  C135  1  0.337500  0.565200  0.155500  1.0
  C  C136  1  0.772300  0.434800  0.344500  1.0
  C  C137  1  0.641600  0.459800  0.904700  1.0
  C  C138  1  0.181800  0.540200  0.595300  1.0
  C  C139  1  0.358400  0.540200  0.095300  1.0
  C  C140  1  0.818200  0.459800  0.404700  1.0
  C  C141  1  0.669900  0.525400  0.894200  1.0
  C  C142  1  0.144500  0.474600  0.605800  1.0
  C  C143  1  0.330100  0.474600  0.105800  1.0
  C  C144  1  0.855500  0.525400  0.394200  1.0
  C  C145  1  0.636000  0.484800  0.854900  1.0
  C  C146  1  0.151200  0.515200  0.645100  1.0
  C  C147  1  0.364000  0.515200  0.145100  1.0
  C  C148  1  0.848800  0.484800  0.354900  1.0
  C  C149  1  0.566100  0.422000  0.891400  1.0
  C  C150  1  0.144100  0.578000  0.608600  1.0
  C  C151  1  0.433900  0.578000  0.108600  1.0
  C  C152  1  0.855900  0.422000  0.391400  1.0
  C  C153  1  0.560700  0.441000  0.857400  1.0
  C  C154  1  0.119700  0.559000  0.642600  1.0
  C  C155  1  0.439300  0.559000  0.142600  1.0
  C  C156  1  0.880300  0.441000  0.357400  1.0
  C  C157  1  0.530000  0.453600  0.915100  1.0
  C  C158  1  0.076400  0.546400  0.584900  1.0
  C  C159  1  0.470000  0.546400  0.084900  1.0
  C  C160  1  0.923600  0.453600  0.415100  1.0
  C  C161  1  0.526700  0.484600  0.870400  1.0
  C  C162  1  0.042100  0.515400  0.629600  1.0
  C  C163  1  0.473300  0.515400  0.129600  1.0
  C  C164  1  0.957900  0.484600  0.370400  1.0
  C  C165  1  0.546200  0.466600  0.954300  1.0
  C  C166  1  0.079600  0.533400  0.545700  1.0
  C  C167  1  0.453800  0.533400  0.045700  1.0
  C  C168  1  0.920400  0.466600  0.454300  1.0
  C  C169  1  0.542100  0.412400  0.996000  1.0
  C  C170  1  0.129700  0.587600  0.504000  1.0
  C  C171  1  0.457900  0.587600  0.004000  1.0
  C  C172  1  0.870300  0.412400  0.496000  1.0
  C  C173  1  0.541500  0.538600  0.853000  1.0
  C  C174  1  0.002900  0.461400  0.647000  1.0
  C  C175  1  0.458500  0.461400  0.147000  1.0
  C  C176  1  0.997100  0.538600  0.353000  1.0
  C  C177  1  0.531800  0.557000  0.799200  1.0
  C  C178  1  0.974800  0.443000  0.700800  1.0
  C  C179  1  0.468200  0.443000  0.200800  1.0
  C  C180  1  0.025200  0.557000  0.299200  1.0
  C  C181  1  0.453800  0.407800  0.898500  1.0
  C  C182  1  0.046000  0.592200  0.601500  1.0
  C  C183  1  0.546200  0.592200  0.101500  1.0
  C  C184  1  0.954000  0.407800  0.398500  1.0
  C  C185  1  0.452100  0.431400  0.866900  1.0
  C  C186  1  0.020700  0.568600  0.633100  1.0
  C  C187  1  0.547900  0.568600  0.133100  1.0
  C  C188  1  0.979300  0.431400  0.366900  1.0
  C  C189  1  0.410600  0.429000  0.922600  1.0
  C  C190  1  0.981600  0.571000  0.577400  1.0
  C  C191  1  0.589400  0.571000  0.077400  1.0
  C  C192  1  0.018400  0.429000  0.422600  1.0
  C  C193  1  0.413600  0.491600  0.915900  1.0
  C  C194  1  0.922000  0.508400  0.584100  1.0
  C  C195  1  0.586400  0.508400  0.084100  1.0
  C  C196  1  0.078000  0.491600  0.415900  1.0
  C  C197  1  0.407800  0.463600  0.875100  1.0
  C  C198  1  0.944200  0.536400  0.624900  1.0
  C  C199  1  0.592200  0.536400  0.124900  1.0
  C  C200  1  0.055800  0.463600  0.375100  1.0
  C  C201  1  0.334700  0.384400  0.904800  1.0
  C  C202  1  0.950300  0.615600  0.595200  1.0
  C  C203  1  0.665300  0.615600  0.095200  1.0
  C  C204  1  0.049700  0.384400  0.404800  1.0
  C  C205  1  0.333500  0.408200  0.872300  1.0
  C  C206  1  0.925300  0.591800  0.627700  1.0
  C  C207  1  0.666500  0.591800  0.127700  1.0
  C  C208  1  0.074700  0.408200  0.372300  1.0
  C  C209  1  0.301600  0.306200  0.887700  1.0
  C  C210  1  0.995400  0.693800  0.612300  1.0
  C  C211  1  0.698400  0.693800  0.112300  1.0
  C  C212  1  0.004600  0.306200  0.387700  1.0
  C  C213  1  0.297900  0.344000  0.841000  1.0
  C  C214  1  0.953900  0.656000  0.659000  1.0
  C  C215  1  0.702100  0.656000  0.159000  1.0
  C  C216  1  0.046100  0.344000  0.341000  1.0
  C  C217  1  0.305700  0.419000  0.931500  1.0
  C  C218  1  0.886700  0.581000  0.568500  1.0
  C  C219  1  0.694300  0.581000  0.068500  1.0
  C  C220  1  0.113300  0.419000  0.431500  1.0
  C  C221  1  0.347200  0.488200  0.922900  1.0
  C  C222  1  0.859000  0.511800  0.577100  1.0
  C  C223  1  0.652800  0.511800  0.077100  1.0
  C  C224  1  0.141000  0.488200  0.422900  1.0
  C  C225  1  0.306500  0.458400  0.885600  1.0
  C  C226  1  0.848100  0.541600  0.614400  1.0
  C  C227  1  0.693500  0.541600  0.114400  1.0
  C  C228  1  0.151900  0.458400  0.385600  1.0
  C  C229  1  0.232600  0.391000  0.919700  1.0
  C  C230  1  0.841600  0.609000  0.580300  1.0
  C  C231  1  0.767400  0.609000  0.080300  1.0
  C  C232  1  0.158400  0.391000  0.419700  1.0
  C  C233  1  0.230900  0.418400  0.888900  1.0
  C  C234  1  0.812500  0.581600  0.611100  1.0
  C  C235  1  0.769100  0.581600  0.111100  1.0
  C  C236  1  0.187500  0.418400  0.388900  1.0
  C  C237  1  0.198700  0.422000  0.946500  1.0
  C  C238  1  0.776700  0.578000  0.553500  1.0
  C  C239  1  0.801300  0.578000  0.053500  1.0
  C  C240  1  0.223300  0.422000  0.446500  1.0
  C  C241  1  0.202000  0.465800  0.905700  1.0
  C  C242  1  0.736200  0.534200  0.594300  1.0
  C  C243  1  0.798000  0.534200  0.094300  1.0
  C  C244  1  0.263800  0.465800  0.405700  1.0
  C  C245  1  0.213100  0.427400  0.984800  1.0
  C  C246  1  0.785700  0.572600  0.515200  1.0
  C  C247  1  0.786900  0.572600  0.015200  1.0
  C  C248  1  0.214300  0.427400  0.484800  1.0
  C  C249  1  0.197800  0.363600  0.022900  1.0
  C  C250  1  0.834200  0.636400  0.477100  1.0
  C  C251  1  0.802200  0.636400  0.977100  1.0
  C  C252  1  0.165800  0.363600  0.522900  1.0
  C  C253  1  0.227800  0.529400  0.893900  1.0
  C  C254  1  0.698400  0.470600  0.606100  1.0
  C  C255  1  0.772200  0.470600  0.106100  1.0
  C  C256  1  0.301600  0.529400  0.393900  1.0
  C  C257  1  0.222700  0.562600  0.843900  1.0
  C  C258  1  0.660100  0.437400  0.656100  1.0
  C  C259  1  0.777300  0.437400  0.156100  1.0
  C  C260  1  0.339900  0.562600  0.343900  1.0
  C  C261  1  0.123500  0.383600  0.930400  1.0
  C  C262  1  0.739900  0.616400  0.569600  1.0
  C  C263  1  0.876500  0.616400  0.069600  1.0
  C  C264  1  0.260100  0.383600  0.430400  1.0
  C  C265  1  0.126100  0.416000  0.900500  1.0
  C  C266  1  0.710100  0.584000  0.599500  1.0
  C  C267  1  0.873900  0.584000  0.099500  1.0
  C  C268  1  0.289900  0.416000  0.400500  1.0
  C  C269  1  0.079500  0.401400  0.954500  1.0
  C  C270  1  0.678100  0.598600  0.545500  1.0
  C  C271  1  0.920500  0.598600  0.045500  1.0
  C  C272  1  0.321900  0.401400  0.454500  1.0
  C  C273  1  0.099200  0.474000  0.955200  1.0
  C  C274  1  0.625200  0.526000  0.544800  1.0
  C  C275  1  0.900800  0.526000  0.044800  1.0
  C  C276  1  0.374800  0.474000  0.455200  1.0
  C  C277  1  0.086300  0.452400  0.914800  1.0
  C  C278  1  0.633900  0.547600  0.585200  1.0
  C  C279  1  0.913700  0.547600  0.085200  1.0
  C  C280  1  0.366100  0.452400  0.414800  1.0
  C  C281  1  0.006700  0.359200  0.934000  1.0
  C  C282  1  0.647500  0.640800  0.566000  1.0
  C  C283  1  0.993300  0.640800  0.066000  1.0
  C  C284  1  0.352500  0.359200  0.434000  1.0
  C  C285  1  0.010500  0.395800  0.907200  1.0
  C  C286  1  0.614700  0.604200  0.592800  1.0
  C  C287  1  0.989500  0.604200  0.092800  1.0
  C  C288  1  0.385300  0.395800  0.407200  1.0
  C  C289  1  0.982400  0.285400  0.911500  1.0
  C  C290  1  0.697000  0.714600  0.588500  1.0
  C  C291  1  0.017600  0.714600  0.088500  1.0
  C  C292  1  0.303000  0.285400  0.411500  1.0
  C  C293  1  0.987400  0.340800  0.870900  1.0
  C  C294  1  0.646600  0.659200  0.629100  1.0
  C  C295  1  0.012600  0.659200  0.129100  1.0
  C  C296  1  0.353400  0.340800  0.370900  1.0
  C  C297  1  0.876000  0.131400  0.792600  1.0
  C  C298  1  0.744600  0.868600  0.707400  1.0
  C  C299  1  0.124000  0.868600  0.207400  1.0
  C  C300  1  0.255400  0.131400  0.292600  1.0
  C  C301  1  0.897700  0.193600  0.819700  1.0
  C  C302  1  0.704100  0.806400  0.680300  1.0
  C  C303  1  0.102300  0.806400  0.180300  1.0
  C  C304  1  0.295900  0.193600  0.319700  1.0
  C  C305  1  0.948800  0.215000  0.846900  1.0
  C  C306  1  0.733800  0.785000  0.653100  1.0
  C  C307  1  0.051200  0.785000  0.153100  1.0
  C  C308  1  0.266200  0.215000  0.346900  1.0
  C  C309  1  0.975100  0.173000  0.845200  1.0
  C  C310  1  0.802100  0.827000  0.654800  1.0
  C  C311  1  0.024900  0.827000  0.154800  1.0
  C  C312  1  0.197900  0.173000  0.345200  1.0
  C  C313  1  0.951200  0.112800  0.816600  1.0
  C  C314  1  0.838400  0.887200  0.683400  1.0
  C  C315  1  0.048800  0.887200  0.183400  1.0
  C  C316  1  0.161600  0.112800  0.316600  1.0
  C  C317  1  0.507000  0.058600  0.698800  1.0
  C  C318  1  0.448400  0.941400  0.801200  1.0
  C  C319  1  0.493000  0.941400  0.301200  1.0
  C  C320  1  0.551600  0.058600  0.198800  1.0
  C  C321  1  0.523800  0.074600  0.668200  1.0
  C  C322  1  0.449200  0.925400  0.831800  1.0
  C  C323  1  0.476200  0.925400  0.331800  1.0
  C  C324  1  0.550800  0.074600  0.168200  1.0
  C  C325  1  0.471400  0.050600  0.640700  1.0
  C  C326  1  0.420800  0.949400  0.859300  1.0
  C  C327  1  0.528600  0.949400  0.359300  1.0
  C  C328  1  0.579200  0.050600  0.140700  1.0
  C  C329  1  0.406400  0.013600  0.646200  1.0
  C  C330  1  0.392800  0.986400  0.853800  1.0
  C  C331  1  0.593600  0.986400  0.353800  1.0
  C  C332  1  0.607200  0.013600  0.146200  1.0
  C  C333  1  0.395200  0.000800  0.678100  1.0
  C  C334  1  0.394400  0.999200  0.821900  1.0
  C  C335  1  0.604800  0.999200  0.321900  1.0
  C  C336  1  0.605600  0.000800  0.178100  1.0
  C  C337  1  0.536700  0.127800  0.606400  1.0
  C  C338  1  0.408900  0.872200  0.893600  1.0
  C  C339  1  0.463300  0.872200  0.393600  1.0
  C  C340  1  0.591100  0.127800  0.106400  1.0
  C  C341  1  0.455900  0.013600  0.574400  1.0
  C  C342  1  0.442300  0.986400  0.925600  1.0
  C  C343  1  0.544100  0.986400  0.425600  1.0
  C  C344  1  0.557700  0.013600  0.074400  1.0
  C  C345  1  0.538200  0.122800  0.567900  1.0
  C  C346  1  0.415400  0.877200  0.932100  1.0
  C  C347  1  0.461800  0.877200  0.432100  1.0
  C  C348  1  0.584600  0.122800  0.067900  1.0
  C  C349  1  0.484300  0.046400  0.546600  1.0
  C  C350  1  0.437900  0.953600  0.953400  1.0
  C  C351  1  0.515700  0.953600  0.453400  1.0
  C  C352  1  0.562100  0.046400  0.046600  1.0
  C  C353  1  0.514900  0.164600  0.554800  1.0
  C  C354  1  0.350300  0.835400  0.945200  1.0
  C  C355  1  0.485100  0.835400  0.445200  1.0
  C  C356  1  0.649700  0.164600  0.054800  1.0
  C  C357  1  0.485000  0.117200  0.515300  1.0
  C  C358  1  0.367800  0.882800  0.984700  1.0
  C  C359  1  0.515000  0.882800  0.484700  1.0
  C  C360  1  0.632200  0.117200  0.015300  1.0
  C  C361  1  0.435600  0.052400  0.523700  1.0
  C  C362  1  0.383200  0.947600  0.976300  1.0
  C  C363  1  0.564400  0.947600  0.476300  1.0
  C  C364  1  0.616800  0.052400  0.023700  1.0
  C  C365  1  0.451400  0.155000  0.570600  1.0
  C  C366  1  0.296400  0.845000  0.929400  1.0
  C  C367  1  0.548600  0.845000  0.429400  1.0
  C  C368  1  0.703600  0.155000  0.070600  1.0
  C  C369  1  0.396200  0.079600  0.548500  1.0
  C  C370  1  0.316600  0.920400  0.951500  1.0
  C  C371  1  0.603800  0.920400  0.451500  1.0
  C  C372  1  0.683400  0.079600  0.048500  1.0
  C  C373  1  0.418900  0.195000  0.564600  1.0
  C  C374  1  0.223900  0.805000  0.935400  1.0
  C  C375  1  0.581100  0.805000  0.435400  1.0
  C  C376  1  0.776100  0.195000  0.064600  1.0
  C  C377  1  0.346700  0.092400  0.531400  1.0
  C  C378  1  0.254300  0.907600  0.968600  1.0
  C  C379  1  0.653300  0.907600  0.468600  1.0
  C  C380  1  0.745700  0.092400  0.031400  1.0
  C  C381  1  0.468700  0.271000  0.572000  1.0
  C  C382  1  0.197700  0.729000  0.928000  1.0
  C  C383  1  0.531300  0.729000  0.428000  1.0
  C  C384  1  0.802300  0.271000  0.072000  1.0
  C  C385  1  0.516800  0.361800  0.548300  1.0
  C  C386  1  0.155000  0.638200  0.951700  1.0
  C  C387  1  0.483200  0.638200  0.451700  1.0
  C  C388  1  0.845000  0.361800  0.048300  1.0
  C  C389  1  0.304400  0.038800  0.495700  1.0
  C  C390  1  0.265600  0.961200  0.004300  1.0
  C  C391  1  0.695600  0.961200  0.504300  1.0
  C  C392  1  0.734400  0.038800  0.995700  1.0
  C  C393  1  0.216200  0.923400  0.468000  1.0
  C  C394  1  0.292800  0.076600  0.032000  1.0
  C  C395  1  0.783800  0.076600  0.532000  1.0
  C  C396  1  0.707200  0.923400  0.968000  1.0
  C  C397  1  0.360100  0.181200  0.584800  1.0
  C  C398  1  0.178900  0.818800  0.915200  1.0
  C  C399  1  0.639900  0.818800  0.415200  1.0
  C  C400  1  0.821100  0.181200  0.084800  1.0
  C  C401  1  0.305700  0.105400  0.559800  1.0
  C  C402  1  0.200300  0.894600  0.940200  1.0
  C  C403  1  0.694300  0.894600  0.440200  1.0
  C  C404  1  0.799700  0.105400  0.059800  1.0
  C  C405  1  0.327300  0.224000  0.585000  1.0
  C  C406  1  0.103300  0.776000  0.915000  1.0
  C  C407  1  0.672700  0.776000  0.415000  1.0
  C  C408  1  0.896700  0.224000  0.085000  1.0
  C  C409  1  0.285200  0.194000  0.547500  1.0
  C  C410  1  0.091200  0.806000  0.952500  1.0
  C  C411  1  0.714800  0.806000  0.452500  1.0
  C  C412  1  0.908800  0.194000  0.047500  1.0
  C  C413  1  0.251100  0.117200  0.546500  1.0
  C  C414  1  0.133900  0.882800  0.953500  1.0
  C  C415  1  0.748900  0.882800  0.453500  1.0
  C  C416  1  0.866100  0.117200  0.046500  1.0
  C  C417  1  0.264500  0.200400  0.603400  1.0
  C  C418  1  0.064100  0.799600  0.896600  1.0
  C  C419  1  0.735500  0.799600  0.396600  1.0
  C  C420  1  0.935900  0.200400  0.103400  1.0
  C  C421  1  0.210100  0.129000  0.575500  1.0
  C  C422  1  0.081100  0.871000  0.924500  1.0
  C  C423  1  0.789900  0.871000  0.424500  1.0
  C  C424  1  0.918900  0.129000  0.075500  1.0
  C  C425  1  0.261900  0.186800  0.637700  1.0
  C  C426  1  0.075100  0.813200  0.862300  1.0
  C  C427  1  0.738100  0.813200  0.362300  1.0
  C  C428  1  0.924900  0.186800  0.137700  1.0
  C  C429  1  0.181800  0.081600  0.597500  1.0
  C  C430  1  0.100200  0.918400  0.902500  1.0
  C  C431  1  0.818200  0.918400  0.402500  1.0
  C  C432  1  0.899800  0.081600  0.097500  1.0
  C  C433  1  0.243700  0.248600  0.596800  1.0
  C  C434  1  0.995100  0.751400  0.903200  1.0
  C  C435  1  0.756300  0.751400  0.403200  1.0
  C  C436  1  0.004900  0.248600  0.096800  1.0
  C  C437  1  0.230000  0.212800  0.555000  1.0
  C  C438  1  0.017200  0.787200  0.945000  1.0
  C  C439  1  0.770000  0.787200  0.445000  1.0
  C  C440  1  0.982800  0.212800  0.055000  1.0
  C  C441  1  0.167700  0.145400  0.555500  1.0
  C  C442  1  0.022300  0.854600  0.944500  1.0
  C  C443  1  0.832300  0.854600  0.444500  1.0
  C  C444  1  0.977700  0.145400  0.055500  1.0
  C  C445  1  0.176700  0.234000  0.608900  1.0
  C  C446  1  0.942700  0.766000  0.891100  1.0
  C  C447  1  0.823300  0.766000  0.391100  1.0
  C  C448  1  0.057300  0.234000  0.108900  1.0
  C  C449  1  0.124300  0.166200  0.579200  1.0
  C  C450  1  0.958100  0.833800  0.920800  1.0
  C  C451  1  0.875700  0.833800  0.420800  1.0
  C  C452  1  0.041900  0.166200  0.079200  1.0
  C  C453  1  0.153300  0.283800  0.606800  1.0
  C  C454  1  0.869500  0.716200  0.893200  1.0
  C  C455  1  0.846700  0.716200  0.393200  1.0
  C  C456  1  0.130500  0.283800  0.106800  1.0
  C  C457  1  0.085100  0.192800  0.563700  1.0
  C  C458  1  0.892300  0.807200  0.936300  1.0
  C  C459  1  0.914900  0.807200  0.436300  1.0
  C  C460  1  0.107700  0.192800  0.063700  1.0
  C  C461  1  0.210200  0.358800  0.621700  1.0
  C  C462  1  0.851400  0.641200  0.878300  1.0
  C  C463  1  0.789800  0.641200  0.378300  1.0
  C  C464  1  0.148600  0.358800  0.121700  1.0
  C  C465  1  0.285300  0.444800  0.674200  1.0
  C  C466  1  0.840500  0.555200  0.825800  1.0
  C  C467  1  0.714700  0.555200  0.325800  1.0
  C  C468  1  0.159500  0.444800  0.174200  1.0
  C  C469  1  0.051600  0.155200  0.525000  1.0
  C  C470  1  0.896400  0.844800  0.975000  1.0
  C  C471  1  0.948400  0.844800  0.475000  1.0
  C  C472  1  0.103600  0.155200  0.025000  1.0
  C  C473  1  0.966500  0.048600  0.484500  1.0
  C  C474  1  0.917900  0.951400  0.015500  1.0
  C  C475  1  0.033500  0.951400  0.515500  1.0
  C  C476  1  0.082100  0.048600  0.984500  1.0
  C  C477  1  0.086900  0.263000  0.621700  1.0
  C  C478  1  0.823900  0.737000  0.878300  1.0
  C  C479  1  0.913100  0.737000  0.378300  1.0
  C  C480  1  0.176100  0.263000  0.121700  1.0
  C  C481  1  0.037900  0.200200  0.588900  1.0
  C  C482  1  0.837700  0.799800  0.911100  1.0
  C  C483  1  0.962100  0.799800  0.411100  1.0
  C  C484  1  0.162300  0.200200  0.088900  1.0
  C  C485  1  0.060000  0.312200  0.624800  1.0
  C  C486  1  0.747800  0.687800  0.875200  1.0
  C  C487  1  0.940000  0.687800  0.375200  1.0
  C  C488  1  0.252200  0.312200  0.124800  1.0
  C  C489  1  0.035900  0.299000  0.586800  1.0
  C  C490  1  0.736900  0.701000  0.913200  1.0
  C  C491  1  0.964100  0.701000  0.413200  1.0
  C  C492  1  0.263100  0.299000  0.086800  1.0
  C  C493  1  0.989400  0.220800  0.577700  1.0
  C  C494  1  0.768600  0.779200  0.922300  1.0
  C  C495  1  0.010600  0.779200  0.422300  1.0
  C  C496  1  0.231400  0.220800  0.077700  1.0
  C  C497  1  0.993600  0.281800  0.639000  1.0
  C  C498  1  0.711800  0.718200  0.861000  1.0
  C  C499  1  0.006400  0.718200  0.361000  1.0
  C  C500  1  0.288200  0.281800  0.139000  1.0
  C  C501  1  0.944500  0.221000  0.605900  1.0
  C  C502  1  0.723500  0.779000  0.894100  1.0
  C  C503  1  0.055500  0.779000  0.394100  1.0
  C  C504  1  0.276500  0.221000  0.105900  1.0
  C  C505  1  0.990100  0.251800  0.667900  1.0
  C  C506  1  0.738300  0.748200  0.832100  1.0
  C  C507  1  0.009900  0.748200  0.332100  1.0
  C  C508  1  0.261700  0.251800  0.167900  1.0
  C  C509  1  0.914500  0.159400  0.618500  1.0
  C  C510  1  0.755100  0.840600  0.881500  1.0
  C  C511  1  0.085500  0.840600  0.381500  1.0
  C  C512  1  0.244900  0.159400  0.118500  1.0
  C  C513  1  0.952200  0.090200  0.713900  1.0
  C  C514  1  0.862000  0.909800  0.786100  1.0
  C  C515  1  0.047800  0.909800  0.286100  1.0
  C  C516  1  0.138000  0.090200  0.213900  1.0
  C  C517  1  0.973400  0.132800  0.693400  1.0
  C  C518  1  0.840600  0.867200  0.806600  1.0
  C  C519  1  0.026600  0.867200  0.306600  1.0
  C  C520  1  0.159400  0.132800  0.193400  1.0
  C  C521  1  0.925500  0.134000  0.673400  1.0
  C  C522  1  0.791500  0.866000  0.826600  1.0
  C  C523  1  0.074500  0.866000  0.326600  1.0
  C  C524  1  0.208500  0.134000  0.173400  1.0
  C  C525  1  0.858000  0.089800  0.673300  1.0
  C  C526  1  0.768200  0.910200  0.826700  1.0
  C  C527  1  0.142000  0.910200  0.326700  1.0
  C  C528  1  0.231800  0.089800  0.173300  1.0
  C  C529  1  0.842700  0.048400  0.694500  1.0
  C  C530  1  0.794300  0.951600  0.805500  1.0
  C  C531  1  0.157300  0.951600  0.305500  1.0
  C  C532  1  0.205700  0.048400  0.194500  1.0
  C  C533  1  0.190700  0.086200  0.782500  1.0
  C  C534  1  0.104500  0.913800  0.717500  1.0
  C  C535  1  0.809300  0.913800  0.217500  1.0
  C  C536  1  0.895500  0.086200  0.282500  1.0
  C  C537  1  0.168000  0.032600  0.715100  1.0
  C  C538  1  0.135400  0.967400  0.784900  1.0
  C  C539  1  0.832000  0.967400  0.284900  1.0
  C  C540  1  0.864600  0.032600  0.215100  1.0
  Cl  Cl541  1  0.377860  0.047680  0.301500  1
  Cl  Cl542  1  0.330180  0.952320  0.198500  1
  Cl  Cl543  1  0.622140  0.952320  0.698500  1
  Cl  Cl544  1  0.669820  0.047680  0.801500  1
  H  H545  1  0.311300  0.208800  0.725600  1
  H  H546  1  0.102500  0.791200  0.774400  1
  H  H547  1  0.688700  0.791200  0.274400  1
  H  H548  1  0.897500  0.208800  0.225600  1
  H  H549  1  0.351400  0.180600  0.741300  1
  H  H550  1  0.170800  0.819400  0.758700  1
  H  H551  1  0.648600  0.819400  0.258700  1
  H  H552  1  0.829200  0.180600  0.241300  1
  H  H553  1  0.300100  0.196400  0.763100  1
  H  H554  1  0.103700  0.803600  0.736900  1
  H  H555  1  0.699900  0.803600  0.236900  1
  H  H556  1  0.896300  0.196400  0.263100  1
  H  H557  1  0.368700  0.317800  0.728600  1
  H  H558  1  0.050900  0.682200  0.771400  1
  H  H559  1  0.631300  0.682200  0.271400  1
  H  H560  1  0.949100  0.317800  0.228600  1
  H  H561  1  0.393300  0.372800  0.768100  1
  H  H562  1  0.020500  0.627200  0.731900  1
  H  H563  1  0.606700  0.627200  0.231900  1
  H  H564  1  0.979500  0.372800  0.268100  1
  H  H565  1  0.446200  0.360200  0.746400  1
  H  H566  1  0.086000  0.639800  0.753600  1
  H  H567  1  0.553800  0.639800  0.253600  1
  H  H568  1  0.914000  0.360200  0.246400  1
  H  H569  1  0.177300  0.226600  0.766100  1
  H  H570  1  0.950700  0.773400  0.733900  1
  H  H571  1  0.822700  0.773400  0.233900  1
  H  H572  1  0.049300  0.226600  0.266100  1
  H  H573  1  0.100500  0.187400  0.747600  1
  H  H574  1  0.913100  0.812600  0.752400  1
  H  H575  1  0.899500  0.812600  0.252400  1
  H  H576  1  0.086900  0.187400  0.247600  1
  H  H577  1  0.145400  0.154000  0.734300  1
  H  H578  1  0.991400  0.846000  0.765700  1
  H  H579  1  0.854600  0.846000  0.265700  1
  H  H580  1  0.008600  0.154000  0.234300  1
  H  H581  1  0.247700  0.320400  0.751800  1
  H  H582  1  0.927300  0.679600  0.748200  1
  H  H583  1  0.752300  0.679600  0.248200  1
  H  H584  1  0.072700  0.320400  0.251800  1
  H  H585  1  0.260100  0.306800  0.711400  1
  H  H586  1  0.953300  0.693200  0.788600  1
  H  H587  1  0.739900  0.693200  0.288600  1
  H  H588  1  0.046700  0.306800  0.211400  1
  H  H589  1  0.214600  0.339400  0.724900  1
  H  H590  1  0.875200  0.660600  0.775100  1
  H  H591  1  0.785400  0.660600  0.275100  1
  H  H592  1  0.124800  0.339400  0.224900  1
  H  H593  1  0.853600  0.350000  0.597400  1
  H  H594  1  0.503600  0.650000  0.902600  1
  H  H595  1  0.146400  0.650000  0.402600  1
  H  H596  1  0.496400  0.350000  0.097400  1
  H  H597  1  0.801800  0.268400  0.585200  1
  H  H598  1  0.533400  0.731600  0.914800  1
  H  H599  1  0.198200  0.731600  0.414800  1
  H  H600  1  0.466600  0.268400  0.085200  1
  H  H601  1  0.792700  0.313800  0.565000  1
  H  H602  1  0.478900  0.686200  0.935000  1
  H  H603  1  0.207300  0.686200  0.435000  1
  H  H604  1  0.521100  0.313800  0.065000  1
  H  H605  1  0.848000  0.412200  0.645400  1
  H  H606  1  0.435800  0.587800  0.854600  1
  H  H607  1  0.152000  0.587800  0.354600  1
  H  H608  1  0.564200  0.412200  0.145400  1
  H  H609  1  0.782800  0.419000  0.646400  1
  H  H610  1  0.363800  0.581000  0.853600  1
  H  H611  1  0.217200  0.581000  0.353600  1
  H  H612  1  0.636200  0.419000  0.146400  1
  H  H613  1  0.791800  0.374400  0.667200  1
  H  H614  1  0.417400  0.625600  0.832800  1
  H  H615  1  0.208200  0.625600  0.332800  1
  H  H616  1  0.582600  0.374400  0.167200  1
  H  H617  1  0.311600  0.361000  0.549000  1
  H  H618  1  0.950600  0.639000  0.951000  1
  H  H619  1  0.688400  0.639000  0.451000  1
  H  H620  1  0.049400  0.361000  0.049000  1
  H  H621  1  0.347900  0.352200  0.515300  1
  H  H622  1  0.995700  0.647800  0.984700  1
  H  H623  1  0.652100  0.647800  0.484700  1
  H  H624  1  0.004300  0.352200  0.015300  1
  H  H625  1  0.376700  0.355000  0.552700  1
  H  H626  1  0.021700  0.645000  0.947300  1
  H  H627  1  0.623300  0.645000  0.447300  1
  H  H628  1  0.978300  0.355000  0.052700  1
  H  H629  1  0.334800  0.477600  0.575300  1
  H  H630  1  0.857200  0.522400  0.924700  1
  H  H631  1  0.665200  0.522400  0.424700  1
  H  H632  1  0.142800  0.477600  0.075300  1
  H  H633  1  0.412100  0.531600  0.592500  1
  H  H634  1  0.880500  0.468400  0.907500  1
  H  H635  1  0.587900  0.468400  0.407500  1
  H  H636  1  0.119500  0.531600  0.092500  1
  H  H637  1  0.383100  0.527400  0.554900  1
  H  H638  1  0.855700  0.472600  0.945100  1
  H  H639  1  0.616900  0.472600  0.445100  1
  H  H640  1  0.144300  0.527400  0.054900  1
  H  H641  1  0.469100  0.394000  0.693500  1
  H  H642  1  0.075100  0.606000  0.806500  1
  H  H643  1  0.530900  0.606000  0.306500  1
  H  H644  1  0.924900  0.394000  0.193500  1
  H  H645  1  0.394000  0.378600  0.687900  1
  H  H646  1  0.015400  0.621400  0.812100  1
  H  H647  1  0.606000  0.621400  0.312100  1
  H  H648  1  0.984600  0.378600  0.187900  1
  H  H649  1  0.414200  0.328400  0.661300  1
  H  H650  1  0.085800  0.671600  0.838700  1
  H  H651  1  0.585800  0.671600  0.338700  1
  H  H652  1  0.914200  0.328400  0.161300  1
  H  H653  1  0.545600  0.479600  0.680100  1
  H  H654  1  0.066000  0.520400  0.819900  1
  H  H655  1  0.454400  0.520400  0.319900  1
  H  H656  1  0.934000  0.479600  0.180100  1
  H  H657  1  0.542900  0.472200  0.638800  1
  H  H658  1  0.070700  0.527800  0.861200  1
  H  H659  1  0.457100  0.527800  0.361200  1
  H  H660  1  0.929300  0.472200  0.138800  1
  H  H661  1  0.523500  0.523400  0.665200  1
  H  H662  1  0.000100  0.476600  0.834800  1
  H  H663  1  0.476500  0.476600  0.334800  1
  H  H664  1  0.999900  0.523400  0.165200  1
  H  H665  1  0.116900  0.862400  0.573000  1
  H  H666  1  0.254500  0.137600  0.927000  1
  H  H667  1  0.883100  0.137600  0.427000  1
  H  H668  1  0.745500  0.862400  0.073000  1
  H  H669  1  0.156200  0.924000  0.557300  1
  H  H670  1  0.232200  0.076000  0.942700  1
  H  H671  1  0.843800  0.076000  0.442700  1
  H  H672  1  0.767800  0.924000  0.057300  1
  H  H673  1  0.171500  0.862600  0.548600  1
  H  H674  1  0.308900  0.137400  0.951400  1
  H  H675  1  0.828500  0.137400  0.451400  1
  H  H676  1  0.691100  0.862600  0.048600  1
  H  H677  1  0.149900  0.890000  0.632400  1
  H  H678  1  0.259900  0.110000  0.867600  1
  H  H679  1  0.850100  0.110000  0.367600  1
  H  H680  1  0.740100  0.890000  0.132400  1
  H  H681  1  0.224200  0.906800  0.643300  1
  H  H682  1  0.317400  0.093200  0.856700  1
  H  H683  1  0.775800  0.093200  0.356700  1
  H  H684  1  0.682600  0.906800  0.143300  1
  H  H685  1  0.208900  0.968200  0.652200  1
  H  H686  1  0.240700  0.031800  0.847800  1
  H  H687  1  0.791100  0.031800  0.347800  1
  H  H688  1  0.759300  0.968200  0.152200  1
  H  H689  1  0.039100  0.926200  0.626700  1
  H  H690  1  0.112900  0.073800  0.873300  1
  H  H691  1  0.960900  0.073800  0.373300  1
  H  H692  1  0.887100  0.926200  0.126700  1
  H  H693  1  0.988500  0.922400  0.654300  1
  H  H694  1  0.066100  0.077600  0.845700  1
  H  H695  1  0.011500  0.077600  0.345700  1
  H  H696  1  0.933900  0.922400  0.154300  1
  H  H697  1  0.031900  0.887000  0.654500  1
  H  H698  1  0.144900  0.113000  0.845500  1
  H  H699  1  0.968100  0.113000  0.345500  1
  H  H700  1  0.855100  0.887000  0.154500  1
  H  H701  1  0.996100  0.863800  0.573600  1
  H  H702  1  0.132300  0.136200  0.926400  1
  H  H703  1  0.003900  0.136200  0.426400  1
  H  H704  1  0.867700  0.863800  0.073600  1
  H  H705  1  0.959600  0.781800  0.564500  1
  H  H706  1  0.177800  0.218200  0.935500  1
  H  H707  1  0.040400  0.218200  0.435500  1
  H  H708  1  0.822200  0.781800  0.064500  1
  H  H709  1  0.916000  0.817000  0.564000  1
  H  H710  1  0.099000  0.183000  0.936000  1
  H  H711  1  0.084000  0.183000  0.436000  1
  H  H712  1  0.901000  0.817000  0.064000  1
  H  H713  1  0.214700  0.064800  0.387100  1
  H  H714  1  0.149900  0.935200  0.112900  1
  H  H715  1  0.785300  0.935200  0.612900  1
  H  H716  1  0.850100  0.064800  0.887100  1
  H  H717  1  0.253800  0.119000  0.426100  1
  H  H718  1  0.134800  0.881000  0.073900  1
  H  H719  1  0.746200  0.881000  0.573900  1
  H  H720  1  0.865200  0.119000  0.926100  1
  H  H721  1  0.234600  0.040200  0.416400  1
  H  H722  1  0.194400  0.959800  0.083600  1
  H  H723  1  0.765400  0.959800  0.583600  1
  H  H724  1  0.805600  0.040200  0.916400  1
  H  H725  1  0.116100  0.033200  0.373800  1
  H  H726  1  0.082900  0.966800  0.126200  1
  H  H727  1  0.883900  0.966800  0.626200  1
  H  H728  1  0.917100  0.033200  0.873800  1
  H  H729  1  0.062300  0.985000  0.393200  1
  H  H730  1  0.077300  0.015000  0.106800  1
  H  H731  1  0.937700  0.015000  0.606800  1
  H  H732  1  0.922700  0.985000  0.893200  1
  H  H733  1  0.082700  0.064200  0.403100  1
  H  H734  1  0.018500  0.935800  0.096900  1
  H  H735  1  0.917300  0.935800  0.596900  1
  H  H736  1  0.981500  0.064200  0.903100  1
  H  H737  1  0.549700  0.096400  0.805400  1.0
  H  H738  1  0.453300  0.903600  0.694600  1.0
  H  H739  1  0.450300  0.903600  0.194600  1.0
  H  H740  1  0.546700  0.096400  0.305400  1.0
  H  H741  1  0.620400  0.215200  0.834300  1.0
  H  H742  1  0.405200  0.784800  0.665700  1.0
  H  H743  1  0.379600  0.784800  0.165700  1.0
  H  H744  1  0.594800  0.215200  0.334300  1.0
  H  H745  1  0.481600  0.242400  0.790900  1.0
  H  H746  1  0.239200  0.757600  0.709100  1.0
  H  H747  1  0.518400  0.757600  0.209100  1.0
  H  H748  1  0.760800  0.242400  0.290900  1.0
  H  H749  1  0.418800  0.123200  0.761400  1.0
  H  H750  1  0.295600  0.876800  0.738600  1.0
  H  H751  1  0.581200  0.876800  0.238600  1.0
  H  H752  1  0.704400  0.123200  0.261400  1.0
  H  H753  1  0.716600  0.438200  0.888300  1.0
  H  H754  1  0.278400  0.561800  0.611700  1.0
  H  H755  1  0.283400  0.561800  0.111700  1.0
  H  H756  1  0.721600  0.438200  0.388300  1.0
  H  H757  1  0.707400  0.457400  0.837100  1.0
  H  H758  1  0.250000  0.542600  0.662900  1.0
  H  H759  1  0.292600  0.542600  0.162900  1.0
  H  H760  1  0.750000  0.457400  0.337100  1.0
  H  H761  1  0.654300  0.468800  0.930500  1.0
  H  H762  1  0.185500  0.531200  0.569500  1.0
  H  H763  1  0.345700  0.531200  0.069500  1.0
  H  H764  1  0.814500  0.468800  0.430500  1.0
  H  H765  1  0.719500  0.551400  0.897300  1.0
  H  H766  1  0.168100  0.448600  0.602700  1.0
  H  H767  1  0.280500  0.448600  0.102700  1.0
  H  H768  1  0.831900  0.551400  0.397300  1.0
  H  H769  1  0.653700  0.556400  0.906500  1.0
  H  H770  1  0.097300  0.443600  0.593500  1.0
  H  H771  1  0.346300  0.443600  0.093500  1.0
  H  H772  1  0.902700  0.556400  0.406500  1.0
  H  H773  1  0.645200  0.514200  0.839500  1.0
  H  H774  1  0.131000  0.485800  0.660500  1.0
  H  H775  1  0.354800  0.485800  0.160500  1.0
  H  H776  1  0.869000  0.514200  0.339500  1.0
  H  H777  1  0.543700  0.370800  0.886100  1.0
  H  H778  1  0.172900  0.629200  0.613900  1.0
  H  H779  1  0.456300  0.629200  0.113900  1.0
  H  H780  1  0.827100  0.370800  0.386100  1.0
  H  H781  1  0.534000  0.399600  0.835600  1.0
  H  H782  1  0.134400  0.600400  0.664400  1.0
  H  H783  1  0.466000  0.600400  0.164400  1.0
  H  H784  1  0.865600  0.399600  0.335600  1.0
  H  H785  1  0.526500  0.366400  0.997300  1.0
  H  H786  1  0.160100  0.633600  0.502700  1.0
  H  H787  1  0.473500  0.633600  0.002700  1.0
  H  H788  1  0.839900  0.366400  0.497300  1.0
  H  H789  1  0.590800  0.441800  0.004300  1.0
  H  H790  1  0.149000  0.558200  0.495700  1.0
  H  H791  1  0.409200  0.558200  0.995700  1.0
  H  H792  1  0.851000  0.441800  0.504300  1.0
  H  H793  1  0.519500  0.433200  0.011100  1.0
  H  H794  1  0.086300  0.566800  0.488900  1.0
  H  H795  1  0.480500  0.566800  0.988900  1.0
  H  H796  1  0.913700  0.433200  0.511100  1.0
  H  H797  1  0.512600  0.531200  0.773800  1.0
  H  H798  1  0.981400  0.468800  0.726200  1.0
  H  H799  1  0.487400  0.468800  0.226200  1.0
  H  H800  1  0.018600  0.531200  0.273800  1.0
  H  H801  1  0.511800  0.585200  0.808900  1.0
  H  H802  1  0.926600  0.414800  0.691100  1.0
  H  H803  1  0.488200  0.414800  0.191100  1.0
  H  H804  1  0.073400  0.585200  0.308900  1.0
  H  H805  1  0.580400  0.587200  0.801800  1.0
  H  H806  1  0.993200  0.412800  0.698200  1.0
  H  H807  1  0.419600  0.412800  0.198200  1.0
  H  H808  1  0.006800  0.587200  0.301800  1.0
  H  H809  1  0.436900  0.357200  0.891200  1.0
  H  H810  1  0.079700  0.642800  0.608800  1.0
  H  H811  1  0.563100  0.642800  0.108800  1.0
  H  H812  1  0.920300  0.357200  0.391200  1.0
  H  H813  1  0.434100  0.392400  0.843700  1.0
  H  H814  1  0.041700  0.607600  0.656300  1.0
  H  H815  1  0.565900  0.607600  0.156300  1.0
  H  H816  1  0.958300  0.392400  0.343700  1.0
  H  H817  1  0.419500  0.434200  0.948200  1.0
  H  H818  1  0.985300  0.565800  0.551800  1.0
  H  H819  1  0.580500  0.565800  0.051800  1.0
  H  H820  1  0.014700  0.434200  0.448200  1.0
  H  H821  1  0.455000  0.537200  0.928400  1.0
  H  H822  1  0.917800  0.462800  0.571600  1.0
  H  H823  1  0.545000  0.462800  0.071600  1.0
  H  H824  1  0.082200  0.537200  0.428400  1.0
  H  H825  1  0.415000  0.497400  0.862700  1.0
  H  H826  1  0.917600  0.502600  0.637300  1.0
  H  H827  1  0.585000  0.502600  0.137300  1.0
  H  H828  1  0.082400  0.497400  0.362700  1.0
  H  H829  1  0.261700  0.245600  0.837400  1.0
  H  H830  1  0.016100  0.754400  0.662600  1.0
  H  H831  1  0.738300  0.754400  0.162600  1.0
  H  H832  1  0.983900  0.245600  0.337400  1.0
  H  H833  1  0.317400  0.423400  0.956700  1.0
  H  H834  1  0.894000  0.576600  0.543300  1.0
  H  H835  1  0.682600  0.576600  0.043300  1.0
  H  H836  1  0.106000  0.423400  0.456700  1.0
  H  H837  1  0.350000  0.530600  0.939800  1.0
  H  H838  1  0.819400  0.469400  0.560200  1.0
  H  H839  1  0.650000  0.469400  0.060200  1.0
  H  H840  1  0.180600  0.530600  0.439800  1.0
  H  H841  1  0.318500  0.492800  0.872900  1.0
  H  H842  1  0.825700  0.507200  0.627100  1.0
  H  H843  1  0.681500  0.507200  0.127100  1.0
  H  H844  1  0.174300  0.492800  0.372900  1.0
  H  H845  1  0.206300  0.339200  0.911400  1.0
  H  H846  1  0.867100  0.660800  0.588600  1.0
  H  H847  1  0.793700  0.660800  0.088600  1.0
  H  H848  1  0.132900  0.339200  0.411400  1.0
  H  H849  1  0.202000  0.380600  0.866300  1.0
  H  H850  1  0.821400  0.619400  0.633700  1.0
  H  H851  1  0.798000  0.619400  0.133700  1.0
  H  H852  1  0.178600  0.380600  0.366300  1.0
  H  H853  1  0.177100  0.315400  0.022000  1.0
  H  H854  1  0.861700  0.684600  0.478000  1.0
  H  H855  1  0.822900  0.684600  0.978000  1.0
  H  H856  1  0.138300  0.315400  0.522000  1.0
  H  H857  1  0.245900  0.388200  0.032000  1.0
  H  H858  1  0.857700  0.611800  0.468000  1.0
  H  H859  1  0.754100  0.611800  0.968000  1.0
  H  H860  1  0.142300  0.388200  0.532000  1.0
  H  H861  1  0.177200  0.386000  0.038700  1.0
  H  H862  1  0.791200  0.614000  0.461300  1.0
  H  H863  1  0.822800  0.614000  0.961300  1.0
  H  H864  1  0.208800  0.386000  0.538700  1.0
  H  H865  1  0.199800  0.541000  0.819000  1.0
  H  H866  1  0.658800  0.459000  0.681000  1.0
  H  H867  1  0.800200  0.459000  0.181000  1.0
  H  H868  1  0.341200  0.541000  0.319000  1.0
  H  H869  1  0.211100  0.596800  0.856800  1.0
  H  H870  1  0.614300  0.403200  0.643200  1.0
  H  H871  1  0.788900  0.403200  0.143200  1.0
  H  H872  1  0.385700  0.596800  0.356800  1.0
  H  H873  1  0.271300  0.585600  0.844600  1.0
  H  H874  1  0.685700  0.414400  0.655400  1.0
  H  H875  1  0.728700  0.414400  0.155400  1.0
  H  H876  1  0.314300  0.585600  0.344600  1.0
  H  H877  1  0.103900  0.332400  0.920100  1.0
  H  H878  1  0.771500  0.667600  0.579900  1.0
  H  H879  1  0.896100  0.667600  0.079900  1.0
  H  H880  1  0.228500  0.332400  0.420100  1.0
  H  H881  1  0.106100  0.381000  0.875900  1.0
  H  H882  1  0.725100  0.619000  0.624100  1.0
  H  H883  1  0.893900  0.619000  0.124100  1.0
  H  H884  1  0.274900  0.381000  0.375900  1.0
  H  H885  1  0.083800  0.397600  0.978600  1.0
  H  H886  1  0.686200  0.602400  0.521400  1.0
  H  H887  1  0.916200  0.602400  0.021400  1.0
  H  H888  1  0.313800  0.397600  0.478600  1.0
  H  H889  1  0.069400  0.489600  0.966600  1.0
  H  H890  1  0.579800  0.510400  0.533400  1.0
  H  H891  1  0.930600  0.510400  0.033400  1.0
  H  H892  1  0.420200  0.489600  0.466600  1.0
  H  H893  1  0.146800  0.509200  0.966000  1.0
  H  H894  1  0.637600  0.490800  0.534000  1.0
  H  H895  1  0.853200  0.490800  0.034000  1.0
  H  H896  1  0.362400  0.509200  0.466000  1.0
  H  H897  1  0.096200  0.491200  0.905800  1.0
  H  H898  1  0.605000  0.508800  0.594200  1.0
  H  H899  1  0.903800  0.508800  0.094200  1.0
  H  H900  1  0.395000  0.491200  0.405800  1.0
  H  H901  1  0.974900  0.361600  0.950400  1.0
  H  H902  1  0.613300  0.638400  0.549600  1.0
  H  H903  1  0.025100  0.638400  0.049600  1.0
  H  H904  1  0.386700  0.361600  0.450400  1.0
  H  H905  1  0.981800  0.416800  0.911400  1.0
  H  H906  1  0.565000  0.583200  0.588600  1.0
  H  H907  1  0.018200  0.583200  0.088600  1.0
  H  H908  1  0.435000  0.416800  0.411400  1.0
  H  H909  1  0.840900  0.116800  0.774100  1.0
  H  H910  1  0.724100  0.883200  0.725900  1.0
  H  H911  1  0.159100  0.883200  0.225900  1.0
  H  H912  1  0.275900  0.116800  0.274100  1.0
  H  H913  1  0.878200  0.220800  0.819800  1.0
  H  H914  1  0.657400  0.779200  0.680200  1.0
  H  H915  1  0.121800  0.779200  0.180200  1.0
  H  H916  1  0.342600  0.220800  0.319800  1.0
  H  H917  1  0.009400  0.185600  0.863700  1.0
  H  H918  1  0.823800  0.814400  0.636300  1.0
  H  H919  1  0.990600  0.814400  0.136300  1.0
  H  H920  1  0.176200  0.185600  0.363700  1.0
  H  H921  1  0.971300  0.085800  0.815200  1.0
  H  H922  1  0.885500  0.914200  0.684800  1.0
  H  H923  1  0.028700  0.914200  0.184800  1.0
  H  H924  1  0.114500  0.085800  0.315200  1.0
  H  H925  1  0.542600  0.075400  0.717500  1.0
  H  H926  1  0.467200  0.924600  0.782500  1.0
  H  H927  1  0.457400  0.924600  0.282500  1.0
  H  H928  1  0.532800  0.075400  0.217500  1.0
  H  H929  1  0.569300  0.100800  0.665800  1.0
  H  H930  1  0.468500  0.899200  0.834200  1.0
  H  H931  1  0.430700  0.899200  0.334200  1.0
  H  H932  1  0.531500  0.100800  0.165800  1.0
  H  H933  1  0.369600  0.997200  0.628300  1.0
  H  H934  1  0.372400  0.002800  0.871700  1.0
  H  H935  1  0.630400  0.002800  0.371700  1.0
  H  H936  1  0.627600  0.997200  0.128300  1.0
  H  H937  1  0.350200  0.976000  0.681600  1.0
  H  H938  1  0.374200  0.024000  0.818400  1.0
  H  H939  1  0.649800  0.024000  0.318400  1.0
  H  H940  1  0.625800  0.976000  0.181600  1.0
  H  H941  1  0.583500  0.133600  0.562000  1.0
  H  H942  1  0.449900  0.866400  0.938000  1.0
  H  H943  1  0.416500  0.866400  0.438000  1.0
  H  H944  1  0.550100  0.133600  0.062000  1.0
  H  H945  1  0.505200  0.022600  0.531100  1.0
  H  H946  1  0.482600  0.977400  0.968900  1.0
  H  H947  1  0.494800  0.977400  0.468900  1.0
  H  H948  1  0.517400  0.022600  0.031100  1.0
  H  H949  1  0.550400  0.213600  0.558500  1.0
  H  H950  1  0.336800  0.786400  0.941500  1.0
  H  H951  1  0.449600  0.786400  0.441500  1.0
  H  H952  1  0.663200  0.213600  0.058500  1.0
  H  H953  1  0.462300  0.133000  0.502500  1.0
  H  H954  1  0.329300  0.867000  0.997500  1.0
  H  H955  1  0.537700  0.867000  0.497500  1.0
  H  H956  1  0.670700  0.133000  0.002500  1.0
  H  H957  1  0.518800  0.111400  0.502000  1.0
  H  H958  1  0.407400  0.888600  0.998000  1.0
  H  H959  1  0.481200  0.888600  0.498000  1.0
  H  H960  1  0.592600  0.111400  0.002000  1.0
  H  H961  1  0.407200  0.010600  0.502400  1.0
  H  H962  1  0.396600  0.989400  0.997600  1.0
  H  H963  1  0.592800  0.989400  0.497600  1.0
  H  H964  1  0.603400  0.010600  0.002400  1.0
  H  H965  1  0.458100  0.160400  0.596400  1.0
  H  H966  1  0.297700  0.839600  0.903600  1.0
  H  H967  1  0.541900  0.839600  0.403600  1.0
  H  H968  1  0.702300  0.160400  0.096400  1.0
  H  H969  1  0.375200  0.051400  0.564200  1.0
  H  H970  1  0.323800  0.948600  0.935800  1.0
  H  H971  1  0.624800  0.948600  0.435800  1.0
  H  H972  1  0.676200  0.051400  0.064200  1.0
  H  H973  1  0.514700  0.370000  0.525700  1.0
  H  H974  1  0.144700  0.630000  0.974300  1.0
  H  H975  1  0.485300  0.630000  0.474300  1.0
  H  H976  1  0.855300  0.370000  0.025700  1.0
  H  H977  1  0.504400  0.390400  0.566300  1.0
  H  H978  1  0.114000  0.609600  0.933700  1.0
  H  H979  1  0.495600  0.609600  0.433700  1.0
  H  H980  1  0.886000  0.390400  0.066300  1.0
  H  H981  1  0.562600  0.374200  0.556300  1.0
  H  H982  1  0.188400  0.625800  0.943700  1.0
  H  H983  1  0.437400  0.625800  0.443700  1.0
  H  H984  1  0.811600  0.374200  0.056300  1.0
  H  H985  1  0.186300  0.882000  0.474000  1.0
  H  H986  1  0.304300  0.118000  0.026000  1.0
  H  H987  1  0.813700  0.118000  0.526000  1.0
  H  H988  1  0.695700  0.882000  0.974000  1.0
  H  H989  1  0.189400  0.937400  0.457400  1.0
  H  H990  1  0.252000  0.062600  0.042600  1.0
  H  H991  1  0.810600  0.062600  0.542600  1.0
  H  H992  1  0.748000  0.937400  0.957400  1.0
  H  H993  1  0.242800  0.913000  0.450800  1.0
  H  H994  1  0.329800  0.087000  0.049200  1.0
  H  H995  1  0.757200  0.087000  0.549200  1.0
  H  H996  1  0.670200  0.913000  0.950800  1.0
  H  H997  1  0.371300  0.182400  0.609300  1.0
  H  H998  1  0.188900  0.817600  0.890700  1.0
  H  H999  1  0.628700  0.817600  0.390700  1.0
  H  H1000  1  0.811100  0.182400  0.109300  1.0
  H  H1001  1  0.288500  0.070800  0.572500  1.0
  H  H1002  1  0.217700  0.929200  0.927500  1.0
  H  H1003  1  0.711500  0.929200  0.427500  1.0
  H  H1004  1  0.782300  0.070800  0.072500  1.0
  H  H1005  1  0.359300  0.275200  0.593400  1.0
  H  H1006  1  0.084100  0.724800  0.906600  1.0
  H  H1007  1  0.640700  0.724800  0.406600  1.0
  H  H1008  1  0.915900  0.275200  0.093400  1.0
  H  H1009  1  0.309900  0.206000  0.527700  1.0
  H  H1010  1  0.103900  0.794000  0.972300  1.0
  H  H1011  1  0.690100  0.794000  0.472300  1.0
  H  H1012  1  0.896100  0.206000  0.027700  1.0
  H  H1013  1  0.222900  0.082600  0.522900  1.0
  H  H1014  1  0.140300  0.917400  0.977100  1.0
  H  H1015  1  0.777100  0.917400  0.477100  1.0
  H  H1016  1  0.859700  0.082600  0.022900  1.0
  H  H1017  1  0.203900  0.101000  0.648800  1.0
  H  H1018  1  0.102900  0.899000  0.851200  1.0
  H  H1019  1  0.796100  0.899000  0.351200  1.0
  H  H1020  1  0.897100  0.101000  0.148800  1.0
  H  H1021  1  0.279900  0.298600  0.605600  1.0
  H  H1022  1  0.981300  0.701400  0.894400  1.0
  H  H1023  1  0.720100  0.701400  0.394400  1.0
  H  H1024  1  0.018700  0.298600  0.105600  1.0
  H  H1025  1  0.223500  0.237400  0.540100  1.0
  H  H1026  1  0.986100  0.762600  0.959900  1.0
  H  H1027  1  0.776500  0.762600  0.459900  1.0
  H  H1028  1  0.013900  0.237400  0.040100  1.0
  H  H1029  1  0.143200  0.110600  0.531400  1.0
  H  H1030  1  0.032600  0.889400  0.968600  1.0
  H  H1031  1  0.856800  0.889400  0.468600  1.0
  H  H1032  1  0.967400  0.110600  0.031400  1.0
  H  H1033  1  0.175100  0.228000  0.632800  1.0
  H  H1034  1  0.947100  0.772000  0.867200  1.0
  H  H1035  1  0.824900  0.772000  0.367200  1.0
  H  H1036  1  0.052900  0.228000  0.132800  1.0
  H  H1037  1  0.094900  0.129600  0.589400  1.0
  H  H1038  1  0.965300  0.870400  0.910600  1.0
  H  H1039  1  0.905100  0.870400  0.410600  1.0
  H  H1040  1  0.034700  0.129600  0.089400  1.0
  H  H1041  1  0.294000  0.452200  0.699700  1.0
  H  H1042  1  0.841800  0.547800  0.800300  1.0
  H  H1043  1  0.706000  0.547800  0.300300  1.0
  H  H1044  1  0.158200  0.452200  0.199700  1.0
  H  H1045  1  0.324800  0.449400  0.663700  1.0
  H  H1046  1  0.875400  0.550600  0.836300  1.0
  H  H1047  1  0.675200  0.550600  0.336300  1.0
  H  H1048  1  0.124600  0.449400  0.163700  1.0
  H  H1049  1  0.275800  0.479400  0.671300  1.0
  H  H1050  1  0.796400  0.520600  0.828700  1.0
  H  H1051  1  0.724200  0.520600  0.328700  1.0
  H  H1052  1  0.203600  0.479400  0.171300  1.0
  H  H1053  1  0.932700  0.002000  0.484000  1.0
  H  H1054  1  0.930700  0.998000  0.016000  1.0
  H  H1055  1  0.067300  0.998000  0.516000  1.0
  H  H1056  1  0.069300  0.002000  0.984000  1.0
  H  H1057  1  0.944300  0.070000  0.476900  1.0
  H  H1058  1  0.874300  0.930000  0.023100  1.0
  H  H1059  1  0.055700  0.930000  0.523100  1.0
  H  H1060  1  0.125700  0.070000  0.976900  1.0
  H  H1061  1  0.997300  0.045600  0.468300  1.0
  H  H1062  1  0.951700  0.954400  0.031700  1.0
  H  H1063  1  0.002700  0.954400  0.531700  1.0
  H  H1064  1  0.048300  0.045600  0.968300  1.0
  H  H1065  1  0.087100  0.250800  0.643700  1.0
  H  H1066  1  0.836300  0.749200  0.856300  1.0
  H  H1067  1  0.912900  0.749200  0.356300  1.0
  H  H1068  1  0.163700  0.250800  0.143700  1.0
  H  H1069  1  0.012800  0.157800  0.595800  1.0
  H  H1070  1  0.855000  0.842200  0.904200  1.0
  H  H1071  1  0.987200  0.842200  0.404200  1.0
  H  H1072  1  0.145000  0.157800  0.095800  1.0
  H  H1073  1  0.093100  0.361800  0.638700  1.0
  H  H1074  1  0.731300  0.638200  0.861300  1.0
  H  H1075  1  0.906900  0.638200  0.361300  1.0
  H  H1076  1  0.268700  0.361800  0.138700  1.0
  H  H1077  1  0.072500  0.311000  0.572600  1.0
  H  H1078  1  0.761500  0.689000  0.927400  1.0
  H  H1079  1  0.927500  0.689000  0.427400  1.0
  H  H1080  1  0.238500  0.311000  0.072600  1.0
  H  H1081  1  0.011400  0.322600  0.584700  1.0
  H  H1082  1  0.688800  0.677400  0.915300  1.0
  H  H1083  1  0.988600  0.677400  0.415300  1.0
  H  H1084  1  0.311200  0.322600  0.084700  1.0
  H  H1085  1  0.965200  0.195200  0.552500  1.0
  H  H1086  1  0.770000  0.804800  0.947500  1.0
  H  H1087  1  0.034800  0.804800  0.447500  1.0
  H  H1088  1  0.230000  0.195200  0.052500  1.0
  H  H1089  1  0.979500  0.316800  0.646400  1.0
  H  H1090  1  0.662700  0.683200  0.853600  1.0
  H  H1091  1  0.020500  0.683200  0.353600  1.0
  H  H1092  1  0.337300  0.316800  0.146400  1.0
  H  H1093  1  0.909000  0.228800  0.598100  1.0
  H  H1094  1  0.680200  0.771200  0.901900  1.0
  H  H1095  1  0.091000  0.771200  0.401900  1.0
  H  H1096  1  0.319800  0.228800  0.098100  1.0
  H  H1097  1  0.985500  0.090800  0.728000  1.0
  H  H1098  1  0.894700  0.909200  0.772000  1.0
  H  H1099  1  0.014500  0.909200  0.272000  1.0
  H  H1100  1  0.105300  0.090800  0.228000  1.0
  H  H1101  1  0.019800  0.160600  0.692900  1.0
  H  H1102  1  0.859200  0.839400  0.807100  1.0
  H  H1103  1  0.980200  0.839400  0.307100  1.0
  H  H1104  1  0.140800  0.160600  0.192900  1.0
  H  H1105  1  0.823600  0.087800  0.659300  1.0
  H  H1106  1  0.735800  0.912200  0.840700  1.0
  H  H1107  1  0.176400  0.912200  0.340700  1.0
  H  H1108  1  0.264200  0.087800  0.159300  1.0
  H  H1109  1  0.796700  0.017600  0.694300  1.0
  H  H1110  1  0.779100  0.982400  0.805700  1.0
  H  H1111  1  0.203300  0.982400  0.305700  1.0
  H  H1112  1  0.220900  0.017600  0.194300  1.0
  N  N1113  1  0.021900  0.000000  0.750000  1
  N  N1114  1  0.978100  0.000000  0.250000  1
  N  N1115  1  0.271100  0.000000  0.750000  1
  N  N1116  1  0.728900  0.000000  0.250000  1
  N  N1117  1  0.478600  0.099600  0.780900  1.0
  N  N1118  1  0.379000  0.900400  0.719100  1.0
  N  N1119  1  0.521400  0.900400  0.219100  1.0
  N  N1120  1  0.621000  0.099600  0.280900  1.0
  N  N1121  1  0.599400  0.314400  0.833000  1.0
  N  N1122  1  0.285000  0.685600  0.667000  1.0
  N  N1123  1  0.400600  0.685600  0.167000  1.0
  N  N1124  1  0.715000  0.314400  0.333000  1.0
  N  N1125  1  0.282300  0.288600  0.852100  1.0
  N  N1126  1  0.993700  0.711400  0.647900  1.0
  N  N1127  1  0.717700  0.711400  0.147900  1.0
  N  N1128  1  0.006300  0.288600  0.352100  1.0
  N  N1129  1  0.973000  0.278800  0.875700  1.0
  N  N1130  1  0.694200  0.721200  0.624300  1.0
  N  N1131  1  0.027000  0.721200  0.124300  1.0
  N  N1132  1  0.305800  0.278800  0.375700  1.0
  N  N1133  1  0.901300  0.090800  0.790600  1.0
  N  N1134  1  0.810500  0.909200  0.709400  1.0
  N  N1135  1  0.098700  0.909200  0.209400  1.0
  N  N1136  1  0.189500  0.090800  0.290600  1.0
  N  N1137  1  0.444300  0.021400  0.704200  1.0
  N  N1138  1  0.422900  0.978600  0.795800  1.0
  N  N1139  1  0.555700  0.978600  0.295800  1.0
  N  N1140  1  0.577100  0.021400  0.204200  1.0
  N  N1141  1  0.487200  0.064000  0.608100  1.0
  N  N1142  1  0.423200  0.936000  0.891900  1.0
  N  N1143  1  0.512800  0.936000  0.391900  1.0
  N  N1144  1  0.576800  0.064000  0.108100  1.0
  N  N1145  1  0.213600  0.119000  0.631600  1.0
  N  N1146  1  0.094600  0.881000  0.868400  1.0
  N  N1147  1  0.786400  0.881000  0.368400  1.0
  N  N1148  1  0.905400  0.119000  0.131600  1.0
  N  N1149  1  0.943600  0.180800  0.653900  1.0
  N  N1150  1  0.762800  0.819200  0.846100  1.0
  N  N1151  1  0.056400  0.819200  0.346100  1.0
  N  N1152  1  0.237200  0.180800  0.153900  1.0
  N  N1153  1  0.888300  0.048800  0.715100  1.0
  N  N1154  1  0.839500  0.951200  0.784900  1.0
  N  N1155  1  0.111700  0.951200  0.284900  1.0
  N  N1156  1  0.160500  0.048800  0.215100  1.0
  N  N1157  1  0.219800  0.147200  0.804900  1.0
  N  N1158  1  0.072600  0.852800  0.695100  1.0
  N  N1159  1  0.780200  0.852800  0.195100  1.0
  N  N1160  1  0.927400  0.147200  0.304900  1.0
  N  N1161  1  0.179300  0.059600  0.691300  1.0
  N  N1162  1  0.119700  0.940400  0.808700  1.0
  N  N1163  1  0.820700  0.940400  0.308700  1.0
  N  N1164  1  0.880300  0.059600  0.191300  1.0
  O  O1165  1  0.422300  0.299000  0.793600  1
  O  O1166  1  0.123300  0.701000  0.706400  1
  O  O1167  1  0.577700  0.701000  0.206400  1
  O  O1168  1  0.876700  0.299000  0.293600  1
  O  O1169  1  0.130400  0.203400  0.687500  1
  O  O1170  1  0.927000  0.796600  0.812500  1
  O  O1171  1  0.869600  0.796600  0.312500  1
  O  O1172  1  0.073000  0.203400  0.187500  1
  O  O1173  1  0.704100  0.286800  0.608000  1
  O  O1174  1  0.417300  0.713200  0.892000  1
  O  O1175  1  0.295900  0.713200  0.392000  1
  O  O1176  1  0.582700  0.286800  0.108000  1
  O  O1177  1  0.452600  0.469000  0.543600  1
  O  O1178  1  0.983600  0.531000  0.956400  1
  O  O1179  1  0.547400  0.531000  0.456400  1
  O  O1180  1  0.016400  0.469000  0.043600  1
  O  O1181  1  0.405100  0.405600  0.627600  1
  O  O1182  1  0.999500  0.594400  0.872400  1
  O  O1183  1  0.594900  0.594400  0.372400  1
  O  O1184  1  0.000500  0.405600  0.127600  1
  O  O1185  1  0.270200  0.971000  0.597800  1
  O  O1186  1  0.299200  0.029000  0.902200  1
  O  O1187  1  0.729800  0.029000  0.402200  1
  O  O1188  1  0.700800  0.971000  0.097800  1
  O  O1189  1  0.905600  0.784400  0.621200  1
  O  O1190  1  0.121200  0.215600  0.878800  1
  O  O1191  1  0.094400  0.215600  0.378800  1
  O  O1192  1  0.878800  0.784400  0.121200  1
  O  O1193  1  0.147200  0.056400  0.455800  1
  O  O1194  1  0.090800  0.943600  0.044200  1
  O  O1195  1  0.852800  0.943600  0.544200  1
  O  O1196  1  0.909200  0.056400  0.955800  1
  O  O1197  1  0.407100  0.108600  0.243900  1
  O  O1198  1  0.298500  0.891400  0.256100  1
  O  O1199  1  0.592900  0.891400  0.756100  1
  O  O1200  1  0.701500  0.108600  0.743900  1
  O  O1201  1  0.758400  0.362800  0.831500  1
  O  O1202  1  0.395600  0.637200  0.668500  1
  O  O1203  1  0.241600  0.637200  0.168500  1
  O  O1204  1  0.604400  0.362800  0.331500  1
  O  O1205  1  0.803500  0.315200  0.743800  1
  O  O1206  1  0.488300  0.684800  0.756200  1
  O  O1207  1  0.196500  0.684800  0.256200  1
  O  O1208  1  0.511700  0.315200  0.243800  1
  O  O1209  1  0.621800  0.308200  0.888100  1.0
  O  O1210  1  0.313600  0.691800  0.611900  1.0
  O  O1211  1  0.378200  0.691800  0.111900  1.0
  O  O1212  1  0.686400  0.308200  0.388100  1.0
  O  O1213  1  0.594300  0.352400  0.786500  1.0
  O  O1214  1  0.241900  0.647600  0.713500  1.0
  O  O1215  1  0.405700  0.647600  0.213500  1.0
  O  O1216  1  0.758100  0.352400  0.286500  1.0
  O  O1217  1  0.549900  0.515200  0.907700  1.0
  O  O1218  1  0.034700  0.484800  0.592300  1.0
  O  O1219  1  0.450100  0.484800  0.092300  1.0
  O  O1220  1  0.965300  0.515200  0.407700  1.0
  O  O1221  1  0.574300  0.523000  0.976800  1.0
  O  O1222  1  0.051300  0.477000  0.523200  1.0
  O  O1223  1  0.425700  0.477000  0.023200  1.0
  O  O1224  1  0.948700  0.523000  0.476800  1.0
  O  O1225  1  0.526900  0.406600  0.959200  1.0
  O  O1226  1  0.120300  0.593400  0.540800  1.0
  O  O1227  1  0.473100  0.593400  0.040800  1.0
  O  O1228  1  0.879700  0.406600  0.459200  1.0
  O  O1229  1  0.570900  0.598800  0.869000  1.0
  O  O1230  1  0.972100  0.401200  0.631000  1.0
  O  O1231  1  0.429100  0.401200  0.131000  1.0
  O  O1232  1  0.027900  0.598800  0.369000  1.0
  O  O1233  1  0.517700  0.509200  0.818200  1.0
  O  O1234  1  0.008500  0.490800  0.681800  1.0
  O  O1235  1  0.482300  0.490800  0.181800  1.0
  O  O1236  1  0.991500  0.509200  0.318200  1.0
  O  O1237  1  0.292800  0.266400  0.903700  1.0
  O  O1238  1  0.026400  0.733600  0.596300  1.0
  O  O1239  1  0.707200  0.733600  0.096300  1.0
  O  O1240  1  0.973600  0.266400  0.403700  1.0
  O  O1241  1  0.284700  0.338800  0.810000  1.0
  O  O1242  1  0.945900  0.661200  0.690000  1.0
  O  O1243  1  0.715300  0.661200  0.190000  1.0
  O  O1244  1  0.054100  0.338800  0.310000  1.0
  O  O1245  1  0.226100  0.487200  0.942300  1.0
  O  O1246  1  0.738900  0.512800  0.557700  1.0
  O  O1247  1  0.773900  0.512800  0.057700  1.0
  O  O1248  1  0.261100  0.487200  0.442300  1.0
  O  O1249  1  0.244000  0.479800  0.009500  1.0
  O  O1250  1  0.764200  0.520200  0.490500  1.0
  O  O1251  1  0.756000  0.520200  0.990500  1.0
  O  O1252  1  0.235800  0.479800  0.509500  1.0
  O  O1253  1  0.187400  0.365200  0.987100  1.0
  O  O1254  1  0.822200  0.634800  0.512900  1.0
  O  O1255  1  0.812600  0.634800  0.012900  1.0
  O  O1256  1  0.177800  0.365200  0.487100  1.0
  O  O1257  1  0.268300  0.587000  0.912800  1.0
  O  O1258  1  0.681300  0.413000  0.587200  1.0
  O  O1259  1  0.731700  0.413000  0.087200  1.0
  O  O1260  1  0.318700  0.587000  0.412800  1.0
  O  O1261  1  0.202300  0.510600  0.860200  1.0
  O  O1262  1  0.691700  0.489400  0.639800  1.0
  O  O1263  1  0.797700  0.489400  0.139800  1.0
  O  O1264  1  0.308300  0.510600  0.360200  1.0
  O  O1265  1  0.970400  0.238000  0.922000  1.0
  O  O1266  1  0.732400  0.762000  0.578000  1.0
  O  O1267  1  0.029600  0.762000  0.078000  1.0
  O  O1268  1  0.267600  0.238000  0.422000  1.0
  O  O1269  1  0.982200  0.347000  0.842200  1.0
  O  O1270  1  0.635200  0.653000  0.657800  1.0
  O  O1271  1  0.017800  0.653000  0.157800  1.0
  O  O1272  1  0.364800  0.347000  0.342200  1.0
  O  O1273  1  0.571900  0.179200  0.632300  1.0
  O  O1274  1  0.392700  0.820800  0.867700  1.0
  O  O1275  1  0.428100  0.820800  0.367700  1.0
  O  O1276  1  0.607300  0.179200  0.132300  1.0
  O  O1277  1  0.411100  0.955400  0.570500  1.0
  O  O1278  1  0.455700  0.044600  0.929500  1.0
  O  O1279  1  0.588900  0.044600  0.429500  1.0
  O  O1280  1  0.544300  0.955400  0.070500  1.0
  O  O1281  1  0.386200  0.159000  0.528000  1.0
  O  O1282  1  0.227200  0.841000  0.972000  1.0
  O  O1283  1  0.613800  0.841000  0.472000  1.0
  O  O1284  1  0.772800  0.159000  0.028000  1.0
  O  O1285  1  0.501800  0.309400  0.600800  1.0
  O  O1286  1  0.192400  0.690600  0.899200  1.0
  O  O1287  1  0.498200  0.690600  0.399200  1.0
  O  O1288  1  0.807600  0.309400  0.100800  1.0
  O  O1289  1  0.470700  0.289000  0.543300  1.0
  O  O1290  1  0.181700  0.711000  0.956700  1.0
  O  O1291  1  0.529300  0.711000  0.456700  1.0
  O  O1292  1  0.818300  0.289000  0.043300  1.0
  O  O1293  1  0.308900  0.050800  0.468400  1.0
  O  O1294  1  0.258100  0.949200  0.031600  1.0
  O  O1295  1  0.691100  0.949200  0.531600  1.0
  O  O1296  1  0.741900  0.050800  0.968400  1.0
  O  O1297  1  0.260900  0.979200  0.500100  1.0
  O  O1298  1  0.281700  0.020800  0.999900  1.0
  O  O1299  1  0.739100  0.020800  0.499900  1.0
  O  O1300  1  0.718300  0.979200  0.000100  1.0
  O  O1301  1  0.295600  0.228000  0.666900  1.0
  O  O1302  1  0.067600  0.772000  0.833100  1.0
  O  O1303  1  0.704400  0.772000  0.333100  1.0
  O  O1304  1  0.932400  0.228000  0.166900  1.0
  O  O1305  1  0.137000  0.021000  0.585900  1.0
  O  O1306  1  0.116000  0.979000  0.914100  1.0
  O  O1307  1  0.863000  0.979000  0.414100  1.0
  O  O1308  1  0.884000  0.021000  0.085900  1.0
  O  O1309  1  0.134300  0.263800  0.569500  1.0
  O  O1310  1  0.870500  0.736200  0.930500  1.0
  O  O1311  1  0.865700  0.736200  0.430500  1.0
  O  O1312  1  0.129500  0.263800  0.069500  1.0
  O  O1313  1  0.235000  0.396400  0.604500  1.0
  O  O1314  1  0.838600  0.603600  0.895500  1.0
  O  O1315  1  0.765000  0.603600  0.395500  1.0
  O  O1316  1  0.161400  0.396400  0.104500  1.0
  O  O1317  1  0.228000  0.376000  0.656500  1.0
  O  O1318  1  0.852000  0.624000  0.843500  1.0
  O  O1319  1  0.772000  0.624000  0.343500  1.0
  O  O1320  1  0.148000  0.376000  0.156500  1.0
  O  O1321  1  0.064800  0.179400  0.501700  1.0
  O  O1322  1  0.885400  0.820600  0.998300  1.0
  O  O1323  1  0.935200  0.820600  0.498300  1.0
  O  O1324  1  0.114600  0.179400  0.001700  1.0
  O  O1325  1  0.003900  0.090400  0.520600  1.0
  O  O1326  1  0.913500  0.909600  0.979400  1.0
  O  O1327  1  0.996100  0.909600  0.479400  1.0
  O  O1328  1  0.086500  0.090400  0.020600  1.0
  O  O1329  1  0.022000  0.282400  0.698000  1.0
  O  O1330  1  0.739600  0.717600  0.802000  1.0
  O  O1331  1  0.978000  0.717600  0.302000  1.0
  O  O1332  1  0.260400  0.282400  0.198000  1.0
  O  O1333  1  0.871700  0.100200  0.601800  1.0
  O  O1334  1  0.771500  0.899800  0.898200  1.0
  O  O1335  1  0.128300  0.899800  0.398200  1.0
  O  O1336  1  0.228500  0.100200  0.101800  1.0
  Pd  Pd1337  1  0.429160  0.000000  0.750000  1
  Pd  Pd1338  1  0.570840  0.000000  0.250000  1
  Pd  Pd1339  1  0.861140  0.000000  0.750000  1
  Pd  Pd1340  1  0.138860  0.000000  0.250000  1
  Pt  Pt1341  1  0.147010  0.000000  0.750000  1
  Pt  Pt1342  1  0.852990  0.000000  0.250000  1
