
#######################################################################
#
#                 Cambridge Crystallographic Data Centre
#                                CCDC 
#
#######################################################################
#
# If this CIF has been generated from an entry in the Cambridge 
# Structural Database, then it will include bibliographic, chemical, 
# crystal, experimental, refinement or atomic coordinate data resulting 
# from the CCDC's data processing and validation procedures.
#
#######################################################################

data_IRIJEA
_chemical_formula_moiety         'C38 H30 N6 O8 Pd1 2+,2(B1 F4 1-)'
_chemical_name_systematic        
'bis(bis((pyridin-3-yl)methyl) pyridine-3,5-dicarboxylate)-palladium(ii) bis(tetrafluoroborate)'
_symmetry_cell_setting           triclinic
_symmetry_space_group_name_H-M   'P -1'
_symmetry_Int_Tables_number      2
_space_group_name_Hall           '-P 1'
loop_
_symmetry_equiv_pos_site_id
_symmetry_equiv_pos_as_xyz
1 x,y,z
2 -x,-y,-z
_cell_length_a                   9.5463(3)
_cell_length_b                   10.1755(4)
_cell_length_c                   12.2134(4)
_cell_angle_alpha                78.2766(15)
_cell_angle_beta                 74.0368(14)
_cell_angle_gamma                65.8435(13)
_cell_volume                     1035.19
_exptl_crystal_colour            colorless
_exptl_crystal_description       Block
_cell_formula_units_Z            1
_exptl_crystal_recrystallization_method 'ethyl acetate/dimethyl sulfoxide'
loop_
_atom_site_label
_atom_site_type_symbol
_atom_site_fract_x
_atom_site_fract_y
_atom_site_fract_z
B1 B 0.6289(6) 0.8162(5) 0.5971(4)
F1 F 0.6773(8) 0.7206(5) 0.6888(4)
F2 F 0.7284(5) 0.8864(5) 0.5407(5)
F3 F 0.5563(6) 0.7690(6) 0.5397(5)
F4 F 0.7552(16) 0.7125(13) 0.5358(17)
C1 C 0.9016(6) 0.2654(6) 0.6079(5)
H1 H 1.0089 0.2461 0.5884
C2 C 0.8012(8) 0.3867(7) 0.6598(8)
H2 H 0.8400 0.4494 0.6757
C3 C 0.6426(7) 0.4158(6) 0.6884(6)
H3 H 0.5733 0.4993 0.7224
C4 C 0.5870(5) 0.3220(4) 0.6666(4)
C5 C 0.6933(4) 0.2007(4) 0.6137(3)
H4 H 0.6568 0.1362 0.5980
C6 C 0.4159(5) 0.3405(5) 0.7033(4)
H5 H 0.3545 0.4254 0.7444
H6 H 0.3728 0.3500 0.6376
C7 C 0.2809(5) 0.1980(5) 0.8293(4)
C8 C 0.3088(5) 0.0530(5) 0.8953(4)
C9 C 0.1837(6) 0.0198(6) 0.9642(5)
H7 H 0.0829 0.0898 0.9668
C10 C 0.3447(6) -0.2053(6) 1.0207(4)
H8 H 0.3579 -0.2944 1.0639
C11 C 0.4773(5) -0.1835(5) 0.9537(4)
C12 C 0.4589(5) -0.0509(5) 0.8904(4)
H9 H 0.5457 -0.0318 0.8454
C13 C 0.6349(5) -0.3006(5) 0.9512(4)
C14 C 0.9074(5) -0.3540(5) 0.8837(4)
H10 H 0.9185 -0.4339 0.8459
H11 H 0.9366 -0.3923 0.9572
C15 C 1.1923(5) -0.1315(5) 0.6732(4)
H12 H 1.2530 -0.0810 0.6271
C16 C 1.2403(5) -0.2205(5) 0.7679(4)
H13 H 1.3346 -0.2323 0.7842
C17 C 1.1482(5) -0.2920(5) 0.8382(4)
H14 H 1.1788 -0.3508 0.9032
C18 C 1.0097(4) -0.2760(4) 0.8116(3)
C19 C 0.9690(4) -0.1875(4) 0.7148(3)
H15 H 0.8765 -0.1761 0.6958
N1 N 1.0587(3) -0.1167(3) 0.6466(3)
N2 N 0.8481(4) 0.1736(3) 0.5845(3)
N3 N 0.1992(5) -0.1070(6) 1.0273(4)
O1 O 0.1561(4) 0.2931(5) 0.8267(4)
O2 O 0.6587(5) -0.4229(4) 0.9922(4)
O3 O 0.4163(3) 0.2111(3) 0.7766(3)
O4 O 0.7480(3) -0.2506(3) 0.8994(3)
Pd1 Pd 1.0000 0.0000 0.5000
C1A C 1.0984(6) -0.2654(6) 0.3921(5)
H1A H 0.9911 -0.2461 0.4116
C2A C 1.1988(8) -0.3867(7) 0.3402(8)
H2A H 1.1600 -0.4494 0.3243
C3A C 1.3574(7) -0.4158(6) 0.3116(6)
H3A H 1.4267 -0.4993 0.2776
C4A C 1.4130(5) -0.3220(4) 0.3334(4)
C5A C 1.3067(4) -0.2007(4) 0.3863(3)
H4A H 1.3432 -0.1362 0.4020
C6A C 1.5841(5) -0.3405(5) 0.2967(4)
H5A H 1.6455 -0.4254 0.2556
H6A H 1.6272 -0.3500 0.3624
C7A C 1.7191(5) -0.1980(5) 0.1707(4)
C8A C 1.6912(5) -0.0530(5) 0.1047(4)
C9A C 1.8163(6) -0.0198(6) 0.0358(5)
H7A H 1.9171 -0.0898 0.0332
C10A C 1.6553(6) 0.2053(6) -0.0207(4)
H8A H 1.6421 0.2944 -0.0639
C11A C 1.5227(5) 0.1835(5) 0.0463(4)
C12A C 1.5411(5) 0.0509(5) 0.1096(4)
H9A H 1.4543 0.0318 0.1546
C13A C 1.3651(5) 0.3006(5) 0.0488(4)
C14A C 1.0926(5) 0.3540(5) 0.1163(4)
H10A H 1.0815 0.4339 0.1541
H11A H 1.0634 0.3923 0.0428
C15A C 0.8077(5) 0.1315(5) 0.3268(4)
H12A H 0.7470 0.0810 0.3729
C16A C 0.7597(5) 0.2205(5) 0.2321(4)
H13A H 0.6654 0.2323 0.2158
C17A C 0.8518(5) 0.2920(5) 0.1618(4)
H14A H 0.8212 0.3508 0.0968
C18A C 0.9903(4) 0.2760(4) 0.1884(3)
C19A C 1.0310(4) 0.1875(4) 0.2852(3)
H15A H 1.1235 0.1761 0.3042
N1A N 0.9413(3) 0.1167(3) 0.3534(3)
N2A N 1.1519(4) -0.1736(3) 0.4155(3)
N3A N 1.8008(5) 0.1070(6) -0.0273(4)
O1A O 1.8439(4) -0.2931(5) 0.1733(4)
O2A O 1.3413(5) 0.4229(4) 0.0078(4)
O3A O 1.5837(3) -0.2111(3) 0.2234(3)
O4A O 1.2520(3) 0.2506(3) 0.1006(3)
F5? F 0.5107(10) 0.9402(8) 0.6394(7)
loop_
_geom_bond_atom_site_label_1
_geom_bond_atom_site_label_2
_geom_bond_site_symmetry_1
_geom_bond_site_symmetry_2
B1 F1 1_555 1_555
F2 B1 1_555 1_555
F3 B1 1_555 1_555
F4 B1 1_555 1_555
C1 H1 1_555 1_555
C2 C1 1_555 1_555
H2 C2 1_555 1_555
C3 C2 1_555 1_555
H3 C3 1_555 1_555
C4 C3 1_555 1_555
C5 C4 1_555 1_555
H4 C5 1_555 1_555
C6 C4 1_555 1_555
H5 C6 1_555 1_555
H6 C6 1_555 1_555
C7 C8 1_555 1_555
C8 C9 1_555 1_555
C9 H7 1_555 1_555
C10 H8 1_555 1_555
C11 C10 1_555 1_555
C12 C8 1_555 1_555
H9 C12 1_555 1_555
C13 C11 1_555 1_555
C14 H10 1_555 1_555
H11 C14 1_555 1_555
C15 H12 1_555 1_555
C16 C15 1_555 1_555
H13 C16 1_555 1_555
C17 C16 1_555 1_555
H14 C17 1_555 1_555
C18 C14 1_555 1_555
C19 C18 1_555 1_555
H15 C19 1_555 1_555
N1 C15 1_555 1_555
N2 C1 1_555 1_555
N3 C9 1_555 1_555
O1 C7 1_555 1_555
O2 C13 1_555 1_555
O3 C6 1_555 1_555
O4 C13 1_555 1_555
Pd1 N1 1_555 1_555
C1A H1A 1_555 1_555
C2A C1A 1_555 1_555
H2A C2A 1_555 1_555
C3A C2A 1_555 1_555
H3A C3A 1_555 1_555
C4A C3A 1_555 1_555
C5A C4A 1_555 1_555
H4A C5A 1_555 1_555
C6A C4A 1_555 1_555
H5A C6A 1_555 1_555
H6A C6A 1_555 1_555
C7A C8A 1_555 1_555
C8A C9A 1_555 1_555
C9A H7A 1_555 1_555
C10A H8A 1_555 1_555
C11A C10A 1_555 1_555
C12A C8A 1_555 1_555
H9A C12A 1_555 1_555
C13A C11A 1_555 1_555
C14A H10A 1_555 1_555
H11A C14A 1_555 1_555
C15A H12A 1_555 1_555
C16A C15A 1_555 1_555
H13A C16A 1_555 1_555
C17A C16A 1_555 1_555
H14A C17A 1_555 1_555
C18A C14A 1_555 1_555
C19A C18A 1_555 1_555
H15A C19A 1_555 1_555
N1A Pd1 1_555 1_555
N2A Pd1 1_555 1_555
N3A C9A 1_555 1_555
O1A C7A 1_555 1_555
O2A C13A 1_555 1_555
O3A C6A 1_555 1_555
O4A C13A 1_555 1_555
C5 N2 1_555 1_555
C7 O3 1_555 1_555
C10 N3 1_555 1_555
C11 C12 1_555 1_555
C14 O4 1_555 1_555
C17 C18 1_555 1_555
C19 N1 1_555 1_555
N2 Pd1 1_555 1_555
C1A N2A 1_555 1_555
C5A N2A 1_555 1_555
C7A O3A 1_555 1_555
C10A N3A 1_555 1_555
C11A C12A 1_555 1_555
C14A O4A 1_555 1_555
C15A N1A 1_555 1_555
C17A C18A 1_555 1_555
C19A N1A 1_555 1_555

#END
