
#######################################################################
#
#                 Cambridge Crystallographic Data Centre
#                                CCDC 
#
#######################################################################
#
# If this CIF has been generated from an entry in the Cambridge 
# Structural Database, then it will include bibliographic, chemical, 
# crystal, experimental, refinement or atomic coordinate data resulting 
# from the CCDC's data processing and validation procedures.
#
#######################################################################

data_IRIJIE
_chemical_formula_moiety         
'C76 H60 N12 O16 Pd3 6+,4(B1 F4 1-),3(C3 H7 N1 O1),2(Cl1 1-),6(H2 O1)'
_chemical_name_systematic        
'tetrakis(\m-bis(pyridin-3-ylmethyl) pyridine-3,5-dicarboxylato)-tri-palladium(ii) tetra(tetrafluoroborate) dichloride N,N-dimethylformamide solvate hexahydrate'
_symmetry_cell_setting           monoclinic
_symmetry_space_group_name_H-M   'P 21/c'
_symmetry_Int_Tables_number      14
_space_group_name_Hall           '-P 2ybc'
loop_
_symmetry_equiv_pos_site_id
_symmetry_equiv_pos_as_xyz
1 x,y,z
2 -x,1/2+y,1/2-z
3 -x,-y,-z
4 x,1/2-y,1/2+z
_cell_length_a                   9.2563(10)
_cell_length_b                   42.577(5)
_cell_length_c                   12.3332(13)
_cell_angle_alpha                90
_cell_angle_beta                 103.792(6)
_cell_angle_gamma                90
_cell_volume                     4720.44
_exptl_crystal_colour            colorless
_exptl_crystal_description       PLATE
_cell_formula_units_Z            2
_exptl_crystal_recrystallization_method toluene/N,N'-dimethylformamide
loop_
_atom_site_label
_atom_site_type_symbol
_atom_site_fract_x
_atom_site_fract_y
_atom_site_fract_z
Cl1 Cl 0.5493(3) 0.07875(7) 0.5805(3)
F1 F 0.0742(18) 0.2364(4) -0.0746(13)
F2 F 0.2302(15) 0.2489(3) 0.0902(14)
F3 F 0.1703(17) 0.1985(3) 0.0465(11)
F4 F 0.0024(18) 0.2317(3) 0.0843(15)
B1 B 0.118(3) 0.2284(5) 0.037(2)
F5 F 0.6655(18) 0.1202(4) 0.3197(11)
F6 F 0.5984(19) 0.1115(4) 0.1330(13)
F7 F 0.8296(13) 0.1019(4) 0.2328(10)
F8 F 0.645(2) 0.0717(4) 0.2527(17)
B2 B 0.679(3) 0.1028(7) 0.2323(19)
O9 O 0.6491(14) 0.2318(3) 0.7251(12)
N7 N 0.709(3) 0.2830(4) 0.7283(18)
C39 C 0.726(4) 0.2548(6) 0.764(3)
H31 H 0.8064 0.2510 0.8270
C40 C 0.803(5) 0.3092(7) 0.775(2)
H32 H 0.9069 0.3022 0.7969
H33 H 0.7730 0.3170 0.8413
H34 H 0.7931 0.3260 0.7197
C41 C 0.596(3) 0.2908(8) 0.629(2)
H35 H 0.6201 0.2810 0.5636
H36 H 0.5910 0.3137 0.6188
H37 H 0.4988 0.2831 0.6366
Pd1 Pd 0.60575(12) 0.15668(3) 0.65280(10)
Pd2 Pd 0.5000 0.0000 0.5000
O1 O 0.3154(12) 0.1070(2) 0.2567(8)
O2 O 0.2158(14) 0.0944(3) 0.0791(9)
O3 O 0.1231(14) -0.0155(3) -0.0272(10)
O4 O 0.2133(10) -0.0534(2) 0.0997(7)
O5 O 0.9529(10) 0.0809(2) 0.4687(9)
O6 O 1.0945(14) 0.0583(3) 0.3694(14)
O7 O 0.8074(11) -0.0752(2) 0.2699(9)
O8 O 0.979(2) -0.0470(3) 0.2198(17)
N1 N 0.4769(13) 0.1705(3) 0.5053(11)
N2 N 0.3796(10) 0.0132(2) 0.3436(8)
N3 N 0.7941(14) 0.1589(2) 0.5945(11)
N4 N 0.6915(11) 0.0010(2) 0.4410(8)
N5 N 0.5762(15) -0.1568(3) 0.2807(12)
N6 N 0.2681(14) -0.1455(3) 0.1916(10)
C1 C 0.4336(12) 0.1512(3) 0.4132(11)
H1 H 0.4713 0.1304 0.4188
C2 C 0.3377(13) 0.1603(3) 0.3119(10)
C3 C 0.299(3) 0.1917(4) 0.3077(17)
H2 H 0.2371 0.1998 0.2408
C4 C 0.346(3) 0.2114(5) 0.396(2)
H3 H 0.3175 0.2329 0.3900
C5 C 0.434(3) 0.2005(4) 0.4925(19)
H4 H 0.4658 0.2146 0.5531
C6 C 0.306(3) 0.1392(4) 0.2229(15)
H5 H 0.3764 0.1429 0.1750
H6 H 0.2044 0.1435 0.1774
C7 C 0.2712(17) 0.0866(4) 0.1723(12)
C8 C 0.2924(15) 0.0531(3) 0.2106(10)
C9 C 0.3656(13) 0.0436(3) 0.3138(11)
H7 H 0.4088 0.0591 0.3673
C10 C 0.3275(11) -0.0084(3) 0.2667(9)
H8 H 0.3457 -0.0299 0.2852
C11 C 0.2420(13) 0.0000(3) 0.1534(10)
C12 C 0.2373(15) 0.0301(4) 0.1327(11)
H9 H 0.1927 0.0367 0.0587
C13 C 0.1900(17) -0.0238(4) 0.0671(13)
C14 C 0.8430(17) 0.1343(3) 0.5511(13)
H10 H 0.7866 0.1154 0.5414
C15 C 0.9774(17) 0.1355(3) 0.5190(14)
C16 C 1.0570(18) 0.1632(4) 0.5315(14)
H11 H 1.1484 0.1644 0.5095
C17 C 1.004(2) 0.1888(4) 0.5756(18)
H12 H 1.0564 0.2081 0.5846
C18 C 0.8682(17) 0.1859(4) 0.6075(14)
H13 H 0.8292 0.2034 0.6389
C19 C 1.0414(18) 0.1090(4) 0.4679(16)
H14 H 1.0430 0.1144 0.3901
H15 H 1.1450 0.1052 0.5101
C20 C 0.9879(16) 0.0576(4) 0.4108(16)
C21 C 0.8908(14) 0.0292(3) 0.4014(13)
C22 C 0.7685(13) 0.0274(3) 0.4473(11)
H16 H 0.7397 0.0452 0.4835
C23 C 0.7248(13) -0.0238(3) 0.3868(10)
H17 H 0.6668 -0.0423 0.3827
C24 C 0.8434(16) -0.0231(3) 0.3356(12)
C25 C 0.9274(15) 0.0042(3) 0.3437(14)
H18 H 1.0092 0.0054 0.3098
C26 C 0.6484(16) -0.1303(3) 0.2707(11)
H19 H 0.6230 -0.1116 0.3044
C27 C 0.7597(18) -0.1291(4) 0.2126(13)
C28 C 0.792(2) -0.1560(4) 0.1642(16)
H20 H 0.8666 -0.1560 0.1231
C29 C 0.718(2) -0.1829(5) 0.1739(18)
H21 H 0.7412 -0.2017 0.1400
C30 C 0.610(2) -0.1828(4) 0.2334(18)
H22 H 0.5587 -0.2017 0.2407
C31 C 0.842(2) -0.1000(4) 0.1996(15)
H23 H 0.8152 -0.0931 0.1206
H24 H 0.9505 -0.1042 0.2203
C32 C 0.885(2) -0.0493(4) 0.2697(17)
C33 C 0.2495(15) -0.1157(3) 0.1620(13)
H25 H 0.2876 -0.0995 0.2140
C34 C 0.1725(15) -0.1083(4) 0.0527(12)
C35 C 0.117(2) -0.1325(4) -0.0201(16)
H26 H 0.0588 -0.1295 -0.0940
C36 C 0.154(2) -0.1616(4) 0.0268(13)
H27 H 0.1313 -0.1788 -0.0237
C37 C 0.213(2) -0.1690(4) 0.1255(18)
H28 H 0.2187 -0.1901 0.1509
C38 C 0.1488(19) -0.0754(4) 0.0114(13)
H29 H 0.0409 -0.0712 -0.0151
H30 H 0.1954 -0.0724 -0.0523
Pd1B Pd 0.39425(12) -0.15668(3) 0.34720(10)
O1B O 0.6846(12) -0.1070(2) 0.7433(8)
O2B O 0.7842(14) -0.0944(3) 0.9209(9)
O3B O 0.8769(14) 0.0155(3) 1.0272(10)
O4B O 0.7867(10) 0.0534(2) 0.9003(7)
O5B O 0.0471(10) -0.0809(2) 0.5313(9)
O6B O -0.0945(14) -0.0583(3) 0.6306(14)
O7B O 0.1926(11) 0.0752(2) 0.7301(9)
O8B O 0.021(2) 0.0470(3) 0.7802(17)
N1B N 0.5231(13) -0.1705(3) 0.4947(11)
N2B N 0.6204(10) -0.0132(2) 0.6564(8)
N3B N 0.2059(14) -0.1589(2) 0.4055(11)
N4B N 0.3085(11) -0.0010(2) 0.5590(8)
N5B N 0.4238(15) 0.1568(3) 0.7193(12)
N6B N 0.7319(14) 0.1455(3) 0.8084(10)
C1B C 0.5664(12) -0.1512(3) 0.5868(11)
H1B H 0.5287 -0.1304 0.5812
C2B C 0.6623(13) -0.1603(3) 0.6881(10)
C3B C 0.701(3) -0.1917(4) 0.6923(17)
H2B H 0.7629 -0.1998 0.7592
C4B C 0.654(3) -0.2114(5) 0.604(2)
H3B H 0.6825 -0.2329 0.6100
C5B C 0.566(3) -0.2005(4) 0.5075(19)
H4B H 0.5342 -0.2146 0.4469
C6B C 0.694(3) -0.1392(4) 0.7771(15)
H5B H 0.6236 -0.1429 0.8250
H6B H 0.7956 -0.1435 0.8226
C7B C 0.7288(17) -0.0866(4) 0.8277(12)
C8B C 0.7076(15) -0.0531(3) 0.7894(10)
C9B C 0.6344(13) -0.0436(3) 0.6862(11)
H7B H 0.5912 -0.0591 0.6327
C10B C 0.6725(11) 0.0084(3) 0.7333(9)
H8B H 0.6543 0.0299 0.7148
C11B C 0.7580(13) 0.0000(3) 0.8466(10)
C12B C 0.7627(15) -0.0301(4) 0.8673(11)
H9B H 0.8073 -0.0367 0.9413
C13B C 0.8100(17) 0.0238(4) 0.9329(13)
C14B C 0.1570(17) -0.1343(3) 0.4489(13)
H10B H 0.2134 -0.1154 0.4586
C15B C 0.0226(17) -0.1355(3) 0.4810(14)
C16B C -0.0570(18) -0.1632(4) 0.4685(14)
H11B H -0.1484 -0.1644 0.4905
C17B C -0.004(2) -0.1888(4) 0.4244(18)
H12B H -0.0564 -0.2081 0.4154
C18B C 0.1318(17) -0.1859(4) 0.3925(14)
H13B H 0.1708 -0.2034 0.3611
C19B C -0.0414(18) -0.1090(4) 0.5321(16)
H14B H -0.0430 -0.1144 0.6099
H15B H -0.1450 -0.1052 0.4899
C20B C 0.0121(16) -0.0576(4) 0.5892(16)
C21B C 0.1092(14) -0.0292(3) 0.5986(13)
C22B C 0.2315(13) -0.0274(3) 0.5527(11)
H16B H 0.2603 -0.0452 0.5165
C23B C 0.2752(13) 0.0238(3) 0.6132(10)
H17B H 0.3332 0.0423 0.6173
C24B C 0.1566(16) 0.0231(3) 0.6644(12)
C25B C 0.0726(15) -0.0042(3) 0.6563(14)
H18B H -0.0092 -0.0054 0.6902
C26B C 0.3516(16) 0.1303(3) 0.7293(11)
H19B H 0.3770 0.1116 0.6956
C27B C 0.2403(18) 0.1291(4) 0.7874(13)
C28B C 0.208(2) 0.1560(4) 0.8358(16)
H20B H 0.1334 0.1560 0.8769
C29B C 0.282(2) 0.1829(5) 0.8261(18)
H21B H 0.2588 0.2017 0.8600
C30B C 0.390(2) 0.1828(4) 0.7666(18)
H22B H 0.4413 0.2017 0.7593
C31B C 0.158(2) 0.1000(4) 0.8004(15)
H23B H 0.1848 0.0931 0.8794
H24B H 0.0495 0.1042 0.7797
C32B C 0.115(2) 0.0493(4) 0.7303(17)
C33B C 0.7505(15) 0.1157(3) 0.8380(13)
H25B H 0.7124 0.0995 0.7860
C34B C 0.8275(15) 0.1083(4) 0.9473(12)
C35B C 0.883(2) 0.1325(4) 1.0201(16)
H26B H 0.9412 0.1295 1.0940
C36B C 0.846(2) 0.1616(4) 0.9732(13)
H27B H 0.8687 0.1788 1.0237
C37B C 0.787(2) 0.1690(4) 0.8745(18)
H28B H 0.7813 0.1901 0.8491
C38B C 0.8512(19) 0.0754(4) 0.9886(13)
H29B H 0.9591 0.0712 1.0151
H30B H 0.8046 0.0724 1.0523
loop_
_geom_bond_atom_site_label_1
_geom_bond_atom_site_label_2
_geom_bond_site_symmetry_1
_geom_bond_site_symmetry_2
Pd1 N1 1_555 1_555
Pd2 N2 1_555 1_555
O1 C6 1_555 1_555
O2 C7 1_555 1_555
O3 C13 1_555 1_555
O4 C13 1_555 1_555
O5 C19 1_555 1_555
O6 C20 1_555 1_555
O7 C31 1_555 1_555
O8 C32 1_555 1_555
N1 C1 1_555 1_555
N2 C9 1_555 1_555
N3 Pd1 1_555 1_555
N4 Pd2 1_555 1_555
N5 C26 1_555 1_555
N6 C33 1_555 1_555
C1 H1 1_555 1_555
C2 C1 1_555 1_555
C3 C2 1_555 1_555
H2 C3 1_555 1_555
C4 C3 1_555 1_555
H3 C4 1_555 1_555
C5 N1 1_555 1_555
H4 C5 1_555 1_555
C6 C2 1_555 1_555
H5 C6 1_555 1_555
H6 C6 1_555 1_555
C7 O1 1_555 1_555
C8 C7 1_555 1_555
C9 C8 1_555 1_555
H7 C9 1_555 1_555
C10 N2 1_555 1_555
H8 C10 1_555 1_555
C11 C10 1_555 1_555
C12 C8 1_555 1_555
H9 C12 1_555 1_555
C13 C11 1_555 1_555
C14 N3 1_555 1_555
H10 C14 1_555 1_555
C15 C14 1_555 1_555
C16 C15 1_555 1_555
H11 C16 1_555 1_555
C17 C16 1_555 1_555
H12 C17 1_555 1_555
C18 N3 1_555 1_555
H13 C18 1_555 1_555
C19 C15 1_555 1_555
H14 C19 1_555 1_555
H15 C19 1_555 1_555
C20 O5 1_555 1_555
C21 C20 1_555 1_555
C22 N4 1_555 1_555
H16 C22 1_555 1_555
C23 N4 1_555 1_555
H17 C23 1_555 1_555
C24 C23 1_555 1_555
C25 C21 1_555 1_555
H18 C25 1_555 1_555
C26 H19 1_555 1_555
C27 C26 1_555 1_555
C28 C27 1_555 1_555
H20 C28 1_555 1_555
C29 C28 1_555 1_555
H21 C29 1_555 1_555
C30 N5 1_555 1_555
H22 C30 1_555 1_555
C31 C27 1_555 1_555
H23 C31 1_555 1_555
H24 C31 1_555 1_555
C32 O7 1_555 1_555
C33 H25 1_555 1_555
C34 C33 1_555 1_555
C35 C34 1_555 1_555
H26 C35 1_555 1_555
C36 C35 1_555 1_555
H27 C36 1_555 1_555
C37 N6 1_555 1_555
H28 C37 1_555 1_555
C38 O4 1_555 1_555
H29 C38 1_555 1_555
H30 C38 1_555 1_555
F1 B1 1_555 1_555
F2 B1 1_555 1_555
F3 B1 1_555 1_555
F4 B1 1_555 1_555
F5 B2 1_555 1_555
F6 B2 1_555 1_555
F7 B2 1_555 1_555
F8 B2 1_555 1_555
O9 C39 1_555 1_555
N7 C39 1_555 1_555
C39 H31 1_555 1_555
C40 N7 1_555 1_555
H32 C40 1_555 1_555
H33 C40 1_555 1_555
H34 C40 1_555 1_555
C41 N7 1_555 1_555
H35 C41 1_555 1_555
H36 C41 1_555 1_555
H37 C41 1_555 1_555
Pd1B N5 1_555 1_555
O1B C6B 1_555 1_555
O2B C7B 1_555 1_555
O3B C13B 1_555 1_555
O4B C13B 1_555 1_555
O5B C19B 1_555 1_555
O6B C20B 1_555 1_555
O7B C31B 1_555 1_555
O8B C32B 1_555 1_555
N1B Pd1B 1_555 1_555
N2B Pd2 1_555 1_555
N3B Pd1B 1_555 1_555
N4B Pd2 1_555 1_555
N5B Pd1 1_555 1_555
N6B Pd1 1_555 1_555
C1B N1B 1_555 1_555
H1B C1B 1_555 1_555
C2B C1B 1_555 1_555
C3B C2B 1_555 1_555
H2B C3B 1_555 1_555
C4B C3B 1_555 1_555
H3B C4B 1_555 1_555
C5B N1B 1_555 1_555
H4B C5B 1_555 1_555
C6B C2B 1_555 1_555
H5B C6B 1_555 1_555
H6B C6B 1_555 1_555
C7B O1B 1_555 1_555
C8B C7B 1_555 1_555
C9B N2B 1_555 1_555
H7B C9B 1_555 1_555
C10B N2B 1_555 1_555
H8B C10B 1_555 1_555
C11B C10B 1_555 1_555
C12B C8B 1_555 1_555
H9B C12B 1_555 1_555
C13B C11B 1_555 1_555
C14B N3B 1_555 1_555
H10B C14B 1_555 1_555
C15B C14B 1_555 1_555
C16B C15B 1_555 1_555
H11B C16B 1_555 1_555
C17B C16B 1_555 1_555
H12B C17B 1_555 1_555
C18B N3B 1_555 1_555
H13B C18B 1_555 1_555
C19B C15B 1_555 1_555
H14B C19B 1_555 1_555
H15B C19B 1_555 1_555
C20B O5B 1_555 1_555
C21B C20B 1_555 1_555
C22B N4B 1_555 1_555
H16B C22B 1_555 1_555
C23B N4B 1_555 1_555
H17B C23B 1_555 1_555
C24B C23B 1_555 1_555
C25B C21B 1_555 1_555
H18B C25B 1_555 1_555
C26B N5B 1_555 1_555
H19B C26B 1_555 1_555
C27B C26B 1_555 1_555
C28B C27B 1_555 1_555
H20B C28B 1_555 1_555
C29B C28B 1_555 1_555
H21B C29B 1_555 1_555
C30B N5B 1_555 1_555
H22B C30B 1_555 1_555
C31B C27B 1_555 1_555
H23B C31B 1_555 1_555
H24B C31B 1_555 1_555
C32B O7B 1_555 1_555
C33B N6B 1_555 1_555
H25B C33B 1_555 1_555
C34B C33B 1_555 1_555
C35B C34B 1_555 1_555
H26B C35B 1_555 1_555
C36B C35B 1_555 1_555
H27B C36B 1_555 1_555
C37B N6B 1_555 1_555
H28B C37B 1_555 1_555
C38B O4B 1_555 1_555
H29B C38B 1_555 1_555
H30B C38B 1_555 1_555
N6 Pd1B 1_555 1_555
C4 C5 1_555 1_555
C11 C12 1_555 1_555
C17 C18 1_555 1_555
C21 C22 1_555 1_555
C24 C25 1_555 1_555
C24 C32 1_555 1_555
C29 C30 1_555 1_555
C34 C38 1_555 1_555
C36 C37 1_555 1_555
C4B C5B 1_555 1_555
C8B C9B 1_555 1_555
C11B C12B 1_555 1_555
C17B C18B 1_555 1_555
C21B C22B 1_555 1_555
C24B C25B 1_555 1_555
C24B C32B 1_555 1_555
C29B C30B 1_555 1_555
C34B C38B 1_555 1_555
C36B C37B 1_555 1_555

#END
