
#######################################################################
#
#                 Cambridge Crystallographic Data Centre
#                                CCDC 
#
#######################################################################
#
# If this CIF has been generated from an entry in the Cambridge 
# Structural Database, then it will include bibliographic, chemical, 
# crystal, experimental, refinement or atomic coordinate data resulting 
# from the CCDC's data processing and validation procedures.
#
#######################################################################

data_IVEVOV
_chemical_formula_moiety         
'C226 H217 N9 Ni2 O35 4+,4(Cl1 O4 1-),8(C1 H4 O1)'
_chemical_name_systematic        
'tetrakis(\m~2~-4,6-bis(Methoxyethoxy)-1,3-bis(9-(5-methoxyethoxypyridin-3-yl)anthracen-10-yl)benzene)-acetonitrile-triaqua-di-nickel(ii) tetraperchlorate methanol solvate'
_symmetry_cell_setting           tetragonal
_symmetry_space_group_name_H-M   'P 4 n c'
_symmetry_Int_Tables_number      104
_space_group_name_Hall           'P 4 -2n'
loop_
_symmetry_equiv_pos_site_id
_symmetry_equiv_pos_as_xyz
1 x,y,z
2 -y,x,z
3 -x,-y,z
4 y,-x,z
5 1/2-x,1/2+y,1/2+z
6 1/2+y,1/2+x,1/2+z
7 1/2+x,1/2-y,1/2+z
8 1/2-y,1/2-x,1/2+z
_cell_length_a                   19.4133(4)
_cell_length_b                   19.4133(4)
_cell_length_c                   29.968(2)
_cell_angle_alpha                90
_cell_angle_beta                 90
_cell_angle_gamma                90
_cell_volume                     11294.2
_exptl_crystal_colour            yellow
_exptl_crystal_description       block
_cell_formula_units_Z            2
loop_
_atom_site_label
_atom_site_type_symbol
_atom_site_fract_x
_atom_site_fract_y
_atom_site_fract_z
Ni1 Ni 0.5000 0.5000 0.40908(3)
Ni2 Ni 0.5000 0.5000 -0.04110(3)
O1 O 0.50875(16) 0.76069(14) 0.46454(9)
O2 O 0.52858(16) 0.84055(18) 0.54305(11)
O3 O 0.84187(14) 0.82197(14) 0.25631(8)
O4 O 0.91780(14) 0.88138(17) 0.33881(8)
O5 O 0.89096(14) 0.77236(14) 0.10090(7)
O6 O 0.9241(3) 0.8670(3) 0.02562(12)
O7 O 0.74345(12) 0.43740(14) -0.11082(8)
O8 O 0.79299(18) 0.47686(18) -0.19827(9)
O9 O 0.5000 0.5000 0.33725(16)
O10 O 0.5000 0.5000 0.03397(16)
O11 O 0.5000 0.5000 -0.11332(16)
N1 N 0.53857(14) 0.60097(14) 0.40795(9)
N2 N 0.60890(14) 0.50261(14) -0.04185(9)
N3 N 0.5000 0.5000 0.47779(16)
C1 C 0.5152(2) 0.65009(19) 0.43608(11)
C2 C 0.5366(3) 0.71837(19) 0.43369(11)
C3 C 0.5832(3) 0.7373(2) 0.40087(12)
C4 C 0.6072(2) 0.6871(2) 0.37184(11)
C5 C 0.58447(19) 0.6207(2) 0.37676(11)
C6 C 0.5320(3) 0.8323(2) 0.46453(15)
C7 C 0.4985(3) 0.8658(3) 0.5032(3)
C8 C 0.4955(3) 0.8684(5) 0.5810(3)
C9 C 0.6547(2) 0.7043(2) 0.33412(11)
C10 C 0.6280(2) 0.7403(2) 0.29722(12)
C11 C 0.5590(3) 0.7650(3) 0.29590(14)
C12 C 0.5339(3) 0.7994(4) 0.26004(18)
C13 C 0.5784(3) 0.8116(4) 0.22291(16)
C14 C 0.6429(3) 0.7892(3) 0.22261(14)
C15 C 0.6721(3) 0.7516(2) 0.25881(12)
C16 C 0.7385(2) 0.7257(2) 0.25805(12)
C17 C 0.7649(3) 0.6885(3) 0.29505(12)
C18 C 0.8333(3) 0.6619(3) 0.29568(15)
C19 C 0.8586(3) 0.6262(3) 0.33135(17)
C20 C 0.8173(3) 0.6174(3) 0.36984(16)
C21 C 0.7518(3) 0.6429(3) 0.37106(14)
C22 C 0.7225(2) 0.6787(2) 0.33401(12)
C23 C 0.7822(2) 0.7363(2) 0.21752(12)
C24 C 0.8339(2) 0.7865(2) 0.21724(11)
C25 C 0.8717(2) 0.79949(19) 0.17876(12)
C26 C 0.8574(2) 0.7623(2) 0.13978(12)
C27 C 0.8064(2) 0.7113(2) 0.13950(12)
C28 C 0.7706(2) 0.6997(2) 0.17864(12)
C29 C 0.8913(2) 0.8771(2) 0.25786(12)
C30 C 0.8843(2) 0.9143(2) 0.30175(11)
C31 C 0.8844(3) 0.8178(3) 0.35219(14)
C32 C 0.9449(3) 0.8234(3) 0.10009(14)
C33 C 0.9699(3) 0.8271(4) 0.05282(15)
C34 C 0.8697(4) 0.8264(6) 0.0067(3)
C35 C 0.78877(19) 0.67031(19) 0.09806(11)
C36 C 0.74937(19) 0.70147(19) 0.06428(12)
C37 C 0.7281(2) 0.7714(2) 0.06638(13)
C38 C 0.6934(2) 0.8013(2) 0.03218(14)
C39 C 0.6770(2) 0.76308(19) -0.00660(14)
C40 C 0.6939(2) 0.6954(2) -0.00965(14)
C41 C 0.72970(19) 0.66108(19) 0.02537(12)
C42 C 0.74604(18) 0.59072(18) 0.02345(11)
C43 C 0.78723(19) 0.56069(19) 0.05708(11)
C44 C 0.8077(2) 0.49021(18) 0.05637(13)
C45 C 0.8496(3) 0.4624(3) 0.08732(13)
C46 C 0.8760(3) 0.5040(2) 0.12255(14)
C47 C 0.8546(2) 0.5707(2) 0.12683(11)
C48 C 0.80957(19) 0.6025(2) 0.09439(11)
C49 C 0.64522(18) 0.46946(18) -0.07328(10)
C50 C 0.71586(19) 0.47302(19) -0.07616(11)
C51 C 0.75282(18) 0.51260(18) -0.04509(11)
C52 C 0.71497(18) 0.54716(17) -0.01223(10)
C53 C 0.64359(18) 0.54087(18) -0.01231(11)
C54 C 0.81478(19) 0.4479(3) -0.12290(13)
C55 C 0.8224(3) 0.4257(3) -0.17086(14)
C56 C 0.7928(3) 0.4589(4) -0.24435(15)
C57 C 0.5000 0.5000 0.5155(3)
C58 C 0.5000 0.5000 0.5645(3)
H1 H 0.4828 0.6375 0.4584
H2 H 0.5983 0.7837 0.3983
H3 H 0.6021 0.5866 0.3571
H4 H 0.5183 0.8555 0.4365
H5 H 0.5827 0.8346 0.4674
H6 H 0.5046 0.9163 0.5014
H7 H 0.4485 0.8556 0.5031
H8 H 0.4456 0.8613 0.5785
H9 H 0.5052 0.9179 0.5828
H10 H 0.5126 0.8455 0.6079
H11 H 0.5298 0.7572 0.3208
H12 H 0.4875 0.8151 0.2596
H13 H 0.5614 0.8364 0.1979
H14 H 0.6707 0.7986 0.1973
H15 H 0.8622 0.6693 0.2705
H16 H 0.9037 0.6073 0.3303
H17 H 0.8353 0.5937 0.3950
H18 H 0.7249 0.6366 0.3972
H19 H 0.9070 0.8334 0.1789
H20 H 0.7362 0.6648 0.1789
H21 H 0.8831 0.9094 0.2329
H22 H 0.9385 0.8583 0.2548
H23 H 0.9036 0.9612 0.2984
H24 H 0.8347 0.9191 0.3088
H25 H 0.8960 0.7812 0.3309
H26 H 0.8343 0.8245 0.3527
H27 H 0.9002 0.8046 0.3821
H28 H 0.9829 0.8098 0.1203
H29 H 0.9269 0.8687 0.1098
H30 H 1.0164 0.8482 0.0522
H31 H 0.9737 0.7800 0.0405
H32 H 0.8494 0.7972 0.0299
H33 H 0.8884 0.7973 -0.0171
H34 H 0.8343 0.8568 -0.0056
H35 H 0.7383 0.7977 0.0923
H36 H 0.6800 0.8483 0.0343
H37 H 0.6539 0.7850 -0.0307
H38 H 0.6815 0.6703 -0.0357
H39 H 0.7910 0.4616 0.0330
H40 H 0.8615 0.4150 0.0857
H41 H 0.9085 0.4854 0.1430
H42 H 0.8697 0.5969 0.1518
H43 H 0.6211 0.4423 -0.0945
H44 H 0.8016 0.5158 -0.0463
H45 H 0.6181 0.5650 0.0098
H46 H 0.8452 0.4201 -0.1034
H47 H 0.8274 0.4971 -0.1196
H48 H 0.8717 0.4198 -0.1783
H49 H 0.7987 0.3812 -0.1757
H50 H 0.7684 0.4152 -0.2484
H51 H 0.8404 0.4541 -0.2549
H52 H 0.7696 0.4951 -0.2615
O1A O 0.23931(14) 0.50875(16) 0.46454(9)
O1B O 0.49125(16) 0.23931(14) 0.46454(9)
O1C O 0.76069(14) 0.49125(16) 0.46454(9)
O2A O 0.15945(18) 0.52858(16) 0.54305(11)
O2B O 0.47142(16) 0.15945(18) 0.54305(11)
O2C O 0.84055(18) 0.47142(16) 0.54305(11)
O3A O 0.17803(14) 0.84187(14) 0.25631(8)
O3B O 0.15813(14) 0.17803(14) 0.25631(8)
O3C O 0.82197(14) 0.15813(14) 0.25631(8)
O4A O 0.11862(17) 0.91780(14) 0.33881(8)
O4B O 0.08220(14) 0.11862(17) 0.33881(8)
O4C O 0.88138(17) 0.08220(14) 0.33881(8)
O5A O 0.22764(14) 0.89096(14) 0.10090(7)
O5B O 0.10904(14) 0.22764(14) 0.10090(7)
O5C O 0.77236(14) 0.10904(14) 0.10090(7)
O6A O 0.1330(3) 0.9241(3) 0.02562(12)
O6B O 0.0759(3) 0.1330(3) 0.02562(12)
O6C O 0.8670(3) 0.0759(3) 0.02562(12)
O7A O 0.56260(14) 0.74345(12) -0.11082(8)
O7B O 0.25655(12) 0.56260(14) -0.11082(8)
O7C O 0.43740(14) 0.25655(12) -0.11082(8)
O8A O 0.52314(18) 0.79299(18) -0.19827(9)
O8B O 0.20701(18) 0.52314(18) -0.19827(9)
O8C O 0.47686(18) 0.20701(18) -0.19827(9)
N1A N 0.39903(14) 0.53857(14) 0.40795(9)
N1B N 0.46143(14) 0.39903(14) 0.40795(9)
N1C N 0.60097(14) 0.46143(14) 0.40795(9)
N2A N 0.49739(14) 0.60890(14) -0.04185(9)
N2B N 0.39110(14) 0.49739(14) -0.04185(9)
N2C N 0.50261(14) 0.39110(14) -0.04185(9)
C1A C 0.34991(19) 0.5152(2) 0.43608(11)
C1B C 0.4848(2) 0.34991(19) 0.43608(11)
C1C C 0.65009(19) 0.4848(2) 0.43608(11)
C2A C 0.28163(19) 0.5366(3) 0.43369(11)
C2B C 0.4634(3) 0.28163(19) 0.43369(11)
C2C C 0.71837(19) 0.4634(3) 0.43369(11)
C3A C 0.2627(2) 0.5832(3) 0.40087(12)
C3B C 0.4168(3) 0.2627(2) 0.40087(12)
C3C C 0.7373(2) 0.4168(3) 0.40087(12)
C4A C 0.3129(2) 0.6072(2) 0.37184(11)
C4B C 0.3928(2) 0.3129(2) 0.37184(11)
C4C C 0.6871(2) 0.3928(2) 0.37184(11)
C5B C 0.41553(19) 0.3793(2) 0.37676(11)
C5C C 0.6207(2) 0.41553(19) 0.37676(11)
C5A C 0.3793(2) 0.58447(19) 0.37676(11)
C6A C 0.1677(2) 0.5320(3) 0.46453(15)
C6B C 0.4680(3) 0.1677(2) 0.46453(15)
C6C C 0.8323(2) 0.4680(3) 0.46453(15)
C7A C 0.1342(3) 0.4985(3) 0.5032(3)
C7B C 0.5015(3) 0.1342(3) 0.5032(3)
C7C C 0.8658(3) 0.5015(3) 0.5032(3)
C8A C 0.1316(5) 0.4955(3) 0.5810(3)
C8B C 0.5045(3) 0.1316(5) 0.5810(3)
C8C C 0.8684(5) 0.5045(3) 0.5810(3)
C9A C 0.2957(2) 0.6547(2) 0.33412(11)
C9B C 0.3453(2) 0.2957(2) 0.33412(11)
C9C C 0.7043(2) 0.3453(2) 0.33412(11)
C10A C 0.2597(2) 0.6280(2) 0.29722(12)
C10B C 0.3720(2) 0.2597(2) 0.29722(12)
C10C C 0.7403(2) 0.3720(2) 0.29722(12)
C11B C 0.4410(3) 0.2350(3) 0.29590(14)
C11C C 0.7650(3) 0.4410(3) 0.29590(14)
C11A C 0.2350(3) 0.5590(3) 0.29590(14)
C12B C 0.4661(3) 0.2006(4) 0.26004(18)
C12C C 0.7994(4) 0.4661(3) 0.26004(18)
C12A C 0.2006(4) 0.5339(3) 0.26004(18)
C13B C 0.4216(3) 0.1884(4) 0.22291(16)
C13C C 0.8116(4) 0.4216(3) 0.22291(16)
C13A C 0.1884(4) 0.5784(3) 0.22291(16)
C14B C 0.3571(3) 0.2108(3) 0.22261(14)
C14C C 0.7892(3) 0.3571(3) 0.22261(14)
C14A C 0.2108(3) 0.6429(3) 0.22261(14)
C15A C 0.2484(2) 0.6721(3) 0.25881(12)
C15B C 0.3279(3) 0.2484(2) 0.25881(12)
C15C C 0.7516(2) 0.3279(3) 0.25881(12)
C16A C 0.2743(2) 0.7385(2) 0.25805(12)
C16B C 0.2615(2) 0.2743(2) 0.25805(12)
C16C C 0.7257(2) 0.2615(2) 0.25805(12)
C17B C 0.2351(3) 0.3115(3) 0.29505(12)
C17C C 0.6885(3) 0.2351(3) 0.29505(12)
C17A C 0.3115(3) 0.7649(3) 0.29505(12)
C18B C 0.1667(3) 0.3381(3) 0.29568(15)
C18C C 0.6619(3) 0.1667(3) 0.29568(15)
C18A C 0.3381(3) 0.8333(3) 0.29568(15)
C19B C 0.1414(3) 0.3738(3) 0.33135(17)
C19C C 0.6262(3) 0.1414(3) 0.33135(17)
C19A C 0.3738(3) 0.8586(3) 0.33135(17)
C20B C 0.1827(3) 0.3826(3) 0.36984(16)
C20C C 0.6174(3) 0.1827(3) 0.36984(16)
C20A C 0.3826(3) 0.8173(3) 0.36984(16)
C21B C 0.2482(3) 0.3571(3) 0.37106(14)
C21C C 0.6429(3) 0.2482(3) 0.37106(14)
C21A C 0.3571(3) 0.7518(3) 0.37106(14)
C22B C 0.2775(2) 0.3213(2) 0.33401(12)
C22C C 0.6787(2) 0.2775(2) 0.33401(12)
C22A C 0.3213(2) 0.7225(2) 0.33401(12)
C23A C 0.2637(2) 0.7822(2) 0.21752(12)
C23B C 0.2178(2) 0.2637(2) 0.21752(12)
C23C C 0.7363(2) 0.2178(2) 0.21752(12)
C24A C 0.2135(2) 0.8339(2) 0.21724(11)
C24B C 0.1661(2) 0.2135(2) 0.21724(11)
C24C C 0.7865(2) 0.1661(2) 0.21724(11)
C25A C 0.20051(19) 0.8717(2) 0.17876(12)
C25B C 0.1283(2) 0.20051(19) 0.17876(12)
C25C C 0.79949(19) 0.1283(2) 0.17876(12)
C26A C 0.2377(2) 0.8574(2) 0.13978(12)
C26B C 0.1426(2) 0.2377(2) 0.13978(12)
C26C C 0.7623(2) 0.1426(2) 0.13978(12)
C27A C 0.2887(2) 0.8064(2) 0.13950(12)
C27B C 0.1936(2) 0.2887(2) 0.13950(12)
C27C C 0.7113(2) 0.1936(2) 0.13950(12)
C28B C 0.2294(2) 0.3003(2) 0.17864(12)
C28C C 0.6997(2) 0.2294(2) 0.17864(12)
C28A C 0.3003(2) 0.7706(2) 0.17864(12)
C29A C 0.1229(2) 0.8913(2) 0.25786(12)
C29B C 0.1087(2) 0.1229(2) 0.25786(12)
C29C C 0.8771(2) 0.1087(2) 0.25786(12)
C30A C 0.0857(2) 0.8843(2) 0.30175(11)
C30B C 0.1157(2) 0.0857(2) 0.30175(11)
C30C C 0.9143(2) 0.1157(2) 0.30175(11)
C31A C 0.1822(3) 0.8844(3) 0.35219(14)
C31B C 0.1156(3) 0.1822(3) 0.35219(14)
C31C C 0.8178(3) 0.1156(3) 0.35219(14)
C32A C 0.1766(3) 0.9449(3) 0.10009(14)
C32B C 0.0551(3) 0.1766(3) 0.10009(14)
C32C C 0.8234(3) 0.0551(3) 0.10009(14)
C33A C 0.1729(4) 0.9699(3) 0.05282(15)
C33B C 0.0301(3) 0.1729(4) 0.05282(15)
C33C C 0.8271(4) 0.0301(3) 0.05282(15)
C34A C 0.1736(6) 0.8697(4) 0.0067(3)
C34B C 0.1303(4) 0.1736(6) 0.0067(3)
C34C C 0.8264(6) 0.1303(4) 0.0067(3)
C35A C 0.32969(19) 0.78877(19) 0.09806(11)
C35B C 0.21123(19) 0.32969(19) 0.09806(11)
C35C C 0.67031(19) 0.21123(19) 0.09806(11)
C36A C 0.29853(19) 0.74937(19) 0.06428(12)
C36B C 0.25063(19) 0.29853(19) 0.06428(12)
C36C C 0.70147(19) 0.25063(19) 0.06428(12)
C37B C 0.2719(2) 0.2286(2) 0.06638(13)
C37C C 0.7714(2) 0.2719(2) 0.06638(13)
C37A C 0.2286(2) 0.7281(2) 0.06638(13)
C38B C 0.3066(2) 0.1987(2) 0.03218(14)
C38C C 0.8013(2) 0.3066(2) 0.03218(14)
C38A C 0.1987(2) 0.6934(2) 0.03218(14)
C39B C 0.3230(2) 0.23692(19) -0.00660(14)
C39C C 0.76308(19) 0.3230(2) -0.00660(14)
C39A C 0.23692(19) 0.6770(2) -0.00660(14)
C40B C 0.3061(2) 0.3046(2) -0.00965(14)
C40C C 0.6954(2) 0.3061(2) -0.00965(14)
C40A C 0.3046(2) 0.6939(2) -0.00965(14)
C41A C 0.33892(19) 0.72970(19) 0.02537(12)
C41B C 0.27030(19) 0.33892(19) 0.02537(12)
C41C C 0.66108(19) 0.27030(19) 0.02537(12)
C42A C 0.40928(18) 0.74604(18) 0.02345(11)
C42B C 0.25396(18) 0.40928(18) 0.02345(11)
C42C C 0.59072(18) 0.25396(18) 0.02345(11)
C43B C 0.21277(19) 0.43931(19) 0.05708(11)
C43C C 0.56069(19) 0.21277(19) 0.05708(11)
C43A C 0.43931(19) 0.78723(19) 0.05708(11)
C44B C 0.1923(2) 0.50979(18) 0.05637(13)
C44C C 0.49021(18) 0.1923(2) 0.05637(13)
C44A C 0.50979(18) 0.8077(2) 0.05637(13)
C45B C 0.1504(3) 0.5376(3) 0.08732(13)
C45C C 0.4624(3) 0.1504(3) 0.08732(13)
C45A C 0.5376(3) 0.8496(3) 0.08732(13)
C46B C 0.1240(3) 0.4960(2) 0.12255(14)
C46C C 0.5040(2) 0.1240(3) 0.12255(14)
C46A C 0.4960(2) 0.8760(3) 0.12255(14)
C47B C 0.1454(2) 0.4293(2) 0.12683(11)
C47C C 0.5707(2) 0.1454(2) 0.12683(11)
C47A C 0.4293(2) 0.8546(2) 0.12683(11)
C48B C 0.19043(19) 0.3975(2) 0.09439(11)
C48C C 0.6025(2) 0.19043(19) 0.09439(11)
C48A C 0.3975(2) 0.80957(19) 0.09439(11)
C49A C 0.53054(18) 0.64522(18) -0.07328(10)
C49B C 0.35478(18) 0.53054(18) -0.07328(10)
C49C C 0.46946(18) 0.35478(18) -0.07328(10)
C50A C 0.52698(19) 0.71586(19) -0.07616(11)
C50B C 0.28414(19) 0.52698(19) -0.07616(11)
C50C C 0.47302(19) 0.28414(19) -0.07616(11)
C51A C 0.48740(18) 0.75282(18) -0.04509(11)
C51B C 0.24718(18) 0.48740(18) -0.04509(11)
C51C C 0.51260(18) 0.24718(18) -0.04509(11)
C52A C 0.45284(17) 0.71497(18) -0.01223(10)
C52B C 0.28503(18) 0.45284(17) -0.01223(10)
C52C C 0.54716(17) 0.28503(18) -0.01223(10)
C53C C 0.54087(18) 0.35641(18) -0.01231(11)
C53B C 0.35641(18) 0.45913(18) -0.01231(11)
C53A C 0.45913(18) 0.64359(18) -0.01231(11)
C54A C 0.5521(3) 0.81478(19) -0.12290(13)
C54B C 0.18522(19) 0.5521(3) -0.12290(13)
C54C C 0.4479(3) 0.18522(19) -0.12290(13)
C55A C 0.5743(3) 0.8224(3) -0.17086(14)
C55B C 0.1776(3) 0.5743(3) -0.17086(14)
C55C C 0.4257(3) 0.1776(3) -0.17086(14)
C56A C 0.5411(4) 0.7928(3) -0.24435(15)
C56B C 0.2072(3) 0.5411(4) -0.24435(15)
C56C C 0.4589(4) 0.2072(3) -0.24435(15)
H1C H 0.6375 0.5172 0.4584
H1B H 0.5172 0.3625 0.4584
H1A H 0.3625 0.4828 0.4584
H2C H 0.7837 0.4017 0.3983
H2B H 0.4017 0.2163 0.3983
H2A H 0.2163 0.5983 0.3983
H3B H 0.3979 0.4134 0.3571
H3C H 0.5866 0.3979 0.3571
H3A H 0.4134 0.6021 0.3571
H4A H 0.1445 0.5183 0.4365
H4B H 0.4817 0.1445 0.4365
H4C H 0.8555 0.4817 0.4365
H5A H 0.1654 0.5827 0.4674
H5B H 0.4173 0.1654 0.4674
H5C H 0.8346 0.4173 0.4674
H6A H 0.0837 0.5046 0.5014
H6B H 0.4954 0.0837 0.5014
H6C H 0.9163 0.4954 0.5014
H7A H 0.1444 0.4485 0.5031
H7B H 0.5515 0.1444 0.5031
H7C H 0.8556 0.5515 0.5031
H8A H 0.1387 0.4456 0.5785
H8B H 0.5544 0.1387 0.5785
H8C H 0.8613 0.5544 0.5785
H9A H 0.0821 0.5052 0.5828
H9B H 0.4948 0.0821 0.5828
H9C H 0.9179 0.4948 0.5828
H10A H 0.1545 0.5126 0.6079
H10B H 0.4874 0.1545 0.6079
H10C H 0.8455 0.4874 0.6079
H11C H 0.7572 0.4702 0.3208
H11B H 0.4702 0.2428 0.3208
H11A H 0.2428 0.5298 0.3208
H12C H 0.8151 0.5125 0.2596
H12B H 0.5125 0.1849 0.2596
H12A H 0.1849 0.4875 0.2596
H13C H 0.8364 0.4386 0.1979
H13B H 0.4386 0.1636 0.1979
H13A H 0.1636 0.5614 0.1979
H14C H 0.7986 0.3293 0.1973
H14B H 0.3293 0.2014 0.1973
H14A H 0.2014 0.6707 0.1973
H15B H 0.1378 0.3307 0.2705
H15C H 0.6693 0.1378 0.2705
H15A H 0.3307 0.8622 0.2705
H16B H 0.0963 0.3927 0.3303
H16C H 0.6073 0.0963 0.3303
H16A H 0.3927 0.9037 0.3303
H17B H 0.1647 0.4063 0.3950
H17C H 0.5937 0.1647 0.3950
H17A H 0.4063 0.8353 0.3950
H18B H 0.2751 0.3634 0.3972
H18C H 0.6366 0.2751 0.3972
H18A H 0.3634 0.7249 0.3972
H19C H 0.8334 0.0930 0.1789
H19B H 0.0930 0.1666 0.1789
H19A H 0.1666 0.9070 0.1789
H20B H 0.2638 0.3352 0.1789
H20C H 0.6648 0.2638 0.1789
H20A H 0.3352 0.7362 0.1789
H21A H 0.0906 0.8831 0.2329
H21B H 0.1169 0.0906 0.2329
H21C H 0.9094 0.1169 0.2329
H22A H 0.1417 0.9385 0.2548
H22B H 0.0615 0.1417 0.2548
H22C H 0.8583 0.0615 0.2548
H23A H 0.0388 0.9036 0.2984
H23B H 0.0964 0.0388 0.2984
H23C H 0.9612 0.0964 0.2984
H24A H 0.0809 0.8347 0.3088
H24B H 0.1653 0.0809 0.3088
H24C H 0.9191 0.1653 0.3088
H25A H 0.2188 0.8960 0.3309
H25B H 0.1040 0.2188 0.3309
H25C H 0.7812 0.1040 0.3309
H26A H 0.1755 0.8343 0.3527
H26B H 0.1657 0.1755 0.3527
H26C H 0.8245 0.1657 0.3527
H27A H 0.1954 0.9002 0.3821
H27B H 0.0998 0.1954 0.3821
H27C H 0.8046 0.0998 0.3821
H28A H 0.1902 0.9829 0.1203
H28B H 0.0171 0.1902 0.1203
H28C H 0.8098 0.0171 0.1203
H29A H 0.1313 0.9269 0.1098
H29B H 0.0731 0.1313 0.1098
H29C H 0.8687 0.0731 0.1098
H30A H 0.1518 1.0164 0.0522
H30B H -0.0164 0.1518 0.0522
H30C H 0.8482 -0.0164 0.0522
H31A H 0.2200 0.9737 0.0405
H31B H 0.0263 0.2200 0.0405
H31C H 0.7800 0.0263 0.0405
H32A H 0.2028 0.8494 0.0299
H32B H 0.1506 0.2028 0.0299
H32C H 0.7972 0.1506 0.0299
H33A H 0.2027 0.8884 -0.0171
H33B H 0.1116 0.2027 -0.0171
H33C H 0.7973 0.1116 -0.0171
H34A H 0.1432 0.8343 -0.0056
H34B H 0.1657 0.1432 -0.0056
H34C H 0.8568 0.1657 -0.0056
H35C H 0.7977 0.2617 0.0923
H35B H 0.2617 0.2023 0.0923
H35A H 0.2023 0.7383 0.0923
H36C H 0.8483 0.3200 0.0343
H36B H 0.3200 0.1517 0.0343
H36A H 0.1517 0.6800 0.0343
H37C H 0.7850 0.3461 -0.0307
H37B H 0.3461 0.2150 -0.0307
H37A H 0.2150 0.6539 -0.0307
H38C H 0.6703 0.3185 -0.0357
H38B H 0.3185 0.3297 -0.0357
H38A H 0.3297 0.6815 -0.0357
H39B H 0.2090 0.5384 0.0330
H39C H 0.4616 0.2090 0.0330
H39A H 0.5384 0.7910 0.0330
H40B H 0.1385 0.5850 0.0857
H40C H 0.4150 0.1385 0.0857
H40A H 0.5850 0.8615 0.0857
H41B H 0.0915 0.5146 0.1430
H41C H 0.4854 0.0915 0.1430
H41A H 0.5146 0.9085 0.1430
H42B H 0.1303 0.4031 0.1518
H42C H 0.5969 0.1303 0.1518
H42A H 0.4031 0.8697 0.1518
H43C H 0.4423 0.3789 -0.0945
H43B H 0.3789 0.5577 -0.0945
H43A H 0.5577 0.6211 -0.0945
H44C H 0.5158 0.1984 -0.0463
H44B H 0.1984 0.4842 -0.0463
H44A H 0.4842 0.8016 -0.0463
H45C H 0.5650 0.3819 0.0098
H45B H 0.3819 0.4350 0.0098
H45A H 0.4350 0.6181 0.0098
H46A H 0.5799 0.8452 -0.1034
H46B H 0.1548 0.5799 -0.1034
H46C H 0.4201 0.1548 -0.1034
H47A H 0.5029 0.8274 -0.1196
H47B H 0.1726 0.5029 -0.1196
H47C H 0.4971 0.1726 -0.1196
H48A H 0.5802 0.8717 -0.1783
H48B H 0.1283 0.5802 -0.1783
H48C H 0.4198 0.1283 -0.1783
H49A H 0.6188 0.7987 -0.1757
H49B H 0.2013 0.6188 -0.1757
H49C H 0.3812 0.2013 -0.1757
H50A H 0.5848 0.7684 -0.2484
H50B H 0.2316 0.5848 -0.2484
H50C H 0.4152 0.2316 -0.2484
H51A H 0.5459 0.8404 -0.2549
H51B H 0.1596 0.5459 -0.2549
H51C H 0.4541 0.1596 -0.2549
H52A H 0.5049 0.7696 -0.2615
H52B H 0.2304 0.5049 -0.2615
H52C H 0.4951 0.2304 -0.2615
Cl1 Cl 0.5000 1.0000 0.40426(5)
O12 O 0.48265(17) 1.05838(16) 0.37610(11)
O13 O 0.44196(16) 0.98290(19) 0.43128(11)
O12B O 0.51735(17) 0.94162(16) 0.37610(11)
O13B O 0.55804(16) 1.01710(19) 0.43128(11)
Cl2 Cl 0.3887(11) 0.5582(11) 0.1207(7)
O14 O 0.4395(19) 0.536(2) 0.1526(12)
O15 O 0.3222(14) 0.561(2) 0.1418(13)
O16 O 0.3862(19) 0.5101(16) 0.0842(10)
O17 O 0.407(3) 0.6254(13) 0.1040(13)
O18 O 0.5000 1.0000 0.2811(4)
C59 C 0.5000 1.0000 0.2348(3)
O19 O 0.3915(5) 0.4916(5) 0.2823(3)
C60 C 0.3702(7) 0.4373(8) 0.2525(5)
loop_
_geom_bond_atom_site_label_1
_geom_bond_atom_site_label_2
_geom_bond_site_symmetry_1
_geom_bond_site_symmetry_2
Ni1 O9 1_555 1_555
Ni2 O10 1_555 1_555
O1 C2 1_555 1_555
O2 C7 1_555 1_555
O3 C24 1_555 1_555
O4 C30 1_555 1_555
O5 C26 1_555 1_555
O6 C33 1_555 1_555
O7 C50 1_555 1_555
O8 C55 1_555 1_555
O11 Ni2 1_555 1_555
N1 Ni1 1_555 1_555
N2 Ni2 1_555 1_555
N3 Ni1 1_555 1_555
C1 N1 1_555 1_555
C2 C1 1_555 1_555
C3 C2 1_555 1_555
C4 C3 1_555 1_555
C5 N1 1_555 1_555
C6 O1 1_555 1_555
C7 C6 1_555 1_555
C8 O2 1_555 1_555
C9 C4 1_555 1_555
C10 C9 1_555 1_555
C11 C10 1_555 1_555
C12 C11 1_555 1_555
C13 C12 1_555 1_555
C14 C13 1_555 1_555
C15 C10 1_555 1_555
C16 C15 1_555 1_555
C17 C16 1_555 1_555
C18 C17 1_555 1_555
C19 C18 1_555 1_555
C20 C19 1_555 1_555
C21 C20 1_555 1_555
C22 C9 1_555 1_555
C23 C16 1_555 1_555
C24 C23 1_555 1_555
C25 C24 1_555 1_555
C26 C25 1_555 1_555
C27 C26 1_555 1_555
C28 C23 1_555 1_555
C29 O3 1_555 1_555
C30 C29 1_555 1_555
C31 O4 1_555 1_555
C32 O5 1_555 1_555
C33 C32 1_555 1_555
C34 O6 1_555 1_555
C35 C27 1_555 1_555
C36 C35 1_555 1_555
C37 C36 1_555 1_555
C38 C37 1_555 1_555
C39 C38 1_555 1_555
C40 C39 1_555 1_555
C41 C36 1_555 1_555
C42 C41 1_555 1_555
C43 C42 1_555 1_555
C44 C43 1_555 1_555
C45 C44 1_555 1_555
C46 C45 1_555 1_555
C47 C46 1_555 1_555
C48 C35 1_555 1_555
C49 N2 1_555 1_555
C50 C49 1_555 1_555
C51 C50 1_555 1_555
C52 C42 1_555 1_555
C53 N2 1_555 1_555
C54 O7 1_555 1_555
C55 C54 1_555 1_555
C56 O8 1_555 1_555
C57 N3 1_555 1_555
C58 C57 1_555 1_555
H1 C1 1_555 1_555
H2 C3 1_555 1_555
H3 C5 1_555 1_555
H4 C6 1_555 1_555
H5 C6 1_555 1_555
H6 C7 1_555 1_555
H7 C7 1_555 1_555
H8 C8 1_555 1_555
H9 C8 1_555 1_555
H10 C8 1_555 1_555
H11 C11 1_555 1_555
H12 C12 1_555 1_555
H13 C13 1_555 1_555
H14 C14 1_555 1_555
H15 C18 1_555 1_555
H16 C19 1_555 1_555
H17 C20 1_555 1_555
H18 C21 1_555 1_555
H19 C25 1_555 1_555
H20 C28 1_555 1_555
H21 C29 1_555 1_555
H22 C29 1_555 1_555
H23 C30 1_555 1_555
H24 C30 1_555 1_555
H25 C31 1_555 1_555
H26 C31 1_555 1_555
H27 C31 1_555 1_555
H28 C32 1_555 1_555
H29 C32 1_555 1_555
H30 C33 1_555 1_555
H31 C33 1_555 1_555
H32 C34 1_555 1_555
H33 C34 1_555 1_555
H34 C34 1_555 1_555
H35 C37 1_555 1_555
H36 C38 1_555 1_555
H37 C39 1_555 1_555
H38 C40 1_555 1_555
H39 C44 1_555 1_555
H40 C45 1_555 1_555
H41 C46 1_555 1_555
H42 C47 1_555 1_555
H43 C49 1_555 1_555
H44 C51 1_555 1_555
H45 C53 1_555 1_555
H46 C54 1_555 1_555
H47 C54 1_555 1_555
H48 C55 1_555 1_555
H49 C55 1_555 1_555
H50 C56 1_555 1_555
H51 C56 1_555 1_555
H52 C56 1_555 1_555
Cl1 O12 1_555 1_555
O13 Cl1 1_555 1_555
Cl2 O14 1_555 1_555
O15 Cl2 1_555 1_555
O16 Cl2 1_555 1_555
O17 Cl2 1_555 1_555
O18 C59 1_555 1_555
O19 C60 1_555 1_555
O1A C2A 1_555 1_555
O1B C2B 1_555 1_555
O1C C2C 1_555 1_555
O2A C7A 1_555 1_555
O2B C7B 1_555 1_555
O2C C7C 1_555 1_555
O3A C24A 1_555 1_555
O3B C24B 1_555 1_555
O3C C24C 1_555 1_555
O4A C30A 1_555 1_555
O4B C30B 1_555 1_555
O4C C30C 1_555 1_555
O5A C26A 1_555 1_555
O5B C26B 1_555 1_555
O5C C26C 1_555 1_555
O6A C33A 1_555 1_555
O6B C33B 1_555 1_555
O6C C33C 1_555 1_555
O7A C50A 1_555 1_555
O7B C50B 1_555 1_555
O7C C50C 1_555 1_555
O8A C55A 1_555 1_555
O8B C55B 1_555 1_555
O8C C55C 1_555 1_555
N1A Ni1 1_555 1_555
N1B Ni1 1_555 1_555
N1C Ni1 1_555 1_555
N2A Ni2 1_555 1_555
N2B Ni2 1_555 1_555
N2C Ni2 1_555 1_555
C1A N1A 1_555 1_555
C1B N1B 1_555 1_555
C1C N1C 1_555 1_555
C2A C1A 1_555 1_555
C2B C1B 1_555 1_555
C2C C1C 1_555 1_555
C3A C2A 1_555 1_555
C3B C2B 1_555 1_555
C3C C2C 1_555 1_555
C4A C3A 1_555 1_555
C4B C3B 1_555 1_555
C4C C3C 1_555 1_555
C5B N1B 1_555 1_555
C5C N1C 1_555 1_555
C5A N1A 1_555 1_555
C6A O1A 1_555 1_555
C6B O1B 1_555 1_555
C6C O1C 1_555 1_555
C7A C6A 1_555 1_555
C7B C6B 1_555 1_555
C7C C6C 1_555 1_555
C8A O2A 1_555 1_555
C8B O2B 1_555 1_555
C8C O2C 1_555 1_555
C9A C4A 1_555 1_555
C9B C4B 1_555 1_555
C9C C4C 1_555 1_555
C10A C9A 1_555 1_555
C10B C9B 1_555 1_555
C10C C9C 1_555 1_555
C11B C10B 1_555 1_555
C11C C10C 1_555 1_555
C11A C10A 1_555 1_555
C12B C11B 1_555 1_555
C12C C11C 1_555 1_555
C12A C11A 1_555 1_555
C13B C12B 1_555 1_555
C13C C12C 1_555 1_555
C13A C12A 1_555 1_555
C14B C13B 1_555 1_555
C14C C13C 1_555 1_555
C14A C13A 1_555 1_555
C15A C10A 1_555 1_555
C15B C10B 1_555 1_555
C15C C10C 1_555 1_555
C16A C15A 1_555 1_555
C16B C15B 1_555 1_555
C16C C15C 1_555 1_555
C17B C16B 1_555 1_555
C17C C16C 1_555 1_555
C17A C16A 1_555 1_555
C18B C17B 1_555 1_555
C18C C17C 1_555 1_555
C18A C17A 1_555 1_555
C19B C18B 1_555 1_555
C19C C18C 1_555 1_555
C19A C18A 1_555 1_555
C20B C19B 1_555 1_555
C20C C19C 1_555 1_555
C20A C19A 1_555 1_555
C21B C20B 1_555 1_555
C21C C20C 1_555 1_555
C21A C20A 1_555 1_555
C22B C9B 1_555 1_555
C22C C9C 1_555 1_555
C22A C9A 1_555 1_555
C23A C16A 1_555 1_555
C23B C16B 1_555 1_555
C23C C16C 1_555 1_555
C24A C23A 1_555 1_555
C24B C23B 1_555 1_555
C24C C23C 1_555 1_555
C25A C24A 1_555 1_555
C25B C24B 1_555 1_555
C25C C24C 1_555 1_555
C26A C25A 1_555 1_555
C26B C25B 1_555 1_555
C26C C25C 1_555 1_555
C27A C26A 1_555 1_555
C27B C26B 1_555 1_555
C27C C26C 1_555 1_555
C28B C23B 1_555 1_555
C28C C23C 1_555 1_555
C28A C23A 1_555 1_555
C29A O3A 1_555 1_555
C29B O3B 1_555 1_555
C29C O3C 1_555 1_555
C30A C29A 1_555 1_555
C30B C29B 1_555 1_555
C30C C29C 1_555 1_555
C31A O4A 1_555 1_555
C31B O4B 1_555 1_555
C31C O4C 1_555 1_555
C32A O5A 1_555 1_555
C32B O5B 1_555 1_555
C32C O5C 1_555 1_555
C33A C32A 1_555 1_555
C33B C32B 1_555 1_555
C33C C32C 1_555 1_555
C34A O6A 1_555 1_555
C34B O6B 1_555 1_555
C34C O6C 1_555 1_555
C35A C27A 1_555 1_555
C35B C27B 1_555 1_555
C35C C27C 1_555 1_555
C36A C35A 1_555 1_555
C36B C35B 1_555 1_555
C36C C35C 1_555 1_555
C37B C36B 1_555 1_555
C37C C36C 1_555 1_555
C37A C36A 1_555 1_555
C38B C37B 1_555 1_555
C38C C37C 1_555 1_555
C38A C37A 1_555 1_555
C39B C38B 1_555 1_555
C39C C38C 1_555 1_555
C39A C38A 1_555 1_555
C40B C39B 1_555 1_555
C40C C39C 1_555 1_555
C40A C39A 1_555 1_555
C41A C36A 1_555 1_555
C41B C36B 1_555 1_555
C41C C36C 1_555 1_555
C42A C41A 1_555 1_555
C42B C41B 1_555 1_555
C42C C41C 1_555 1_555
C43B C42B 1_555 1_555
C43C C42C 1_555 1_555
C43A C42A 1_555 1_555
C44B C43B 1_555 1_555
C44C C43C 1_555 1_555
C44A C43A 1_555 1_555
C45B C44B 1_555 1_555
C45C C44C 1_555 1_555
C45A C44A 1_555 1_555
C46B C45B 1_555 1_555
C46C C45C 1_555 1_555
C46A C45A 1_555 1_555
C47B C46B 1_555 1_555
C47C C46C 1_555 1_555
C47A C46A 1_555 1_555
C48B C35B 1_555 1_555
C48C C35C 1_555 1_555
C48A C35A 1_555 1_555
C49A N2A 1_555 1_555
C49B N2B 1_555 1_555
C49C N2C 1_555 1_555
C50A C49A 1_555 1_555
C50B C49B 1_555 1_555
C50C C49C 1_555 1_555
C51A C50A 1_555 1_555
C51B C50B 1_555 1_555
C51C C50C 1_555 1_555
C52A C42A 1_555 1_555
C52B C42B 1_555 1_555
C52C C42C 1_555 1_555
C53C N2C 1_555 1_555
C53B N2B 1_555 1_555
C53A N2A 1_555 1_555
C54A O7A 1_555 1_555
C54B O7B 1_555 1_555
C54C O7C 1_555 1_555
C55A C54A 1_555 1_555
C55B C54B 1_555 1_555
C55C C54C 1_555 1_555
C56A O8A 1_555 1_555
C56B O8B 1_555 1_555
C56C O8C 1_555 1_555
H1C C1C 1_555 1_555
H1B C1B 1_555 1_555
H1A C1A 1_555 1_555
H2C C3C 1_555 1_555
H2B C3B 1_555 1_555
H2A C3A 1_555 1_555
H3B C5B 1_555 1_555
H3C C5C 1_555 1_555
H3A C5A 1_555 1_555
H4A C6A 1_555 1_555
H4B C6B 1_555 1_555
H4C C6C 1_555 1_555
H5A C6A 1_555 1_555
H5B C6B 1_555 1_555
H5C C6C 1_555 1_555
H6A C7A 1_555 1_555
H6B C7B 1_555 1_555
H6C C7C 1_555 1_555
H7A C7A 1_555 1_555
H7B C7B 1_555 1_555
H7C C7C 1_555 1_555
H8A C8A 1_555 1_555
H8B C8B 1_555 1_555
H8C C8C 1_555 1_555
H9A C8A 1_555 1_555
H9B C8B 1_555 1_555
H9C C8C 1_555 1_555
H10A C8A 1_555 1_555
H10B C8B 1_555 1_555
H10C C8C 1_555 1_555
H11C C11C 1_555 1_555
H11B C11B 1_555 1_555
H11A C11A 1_555 1_555
H12C C12C 1_555 1_555
H12B C12B 1_555 1_555
H12A C12A 1_555 1_555
H13C C13C 1_555 1_555
H13B C13B 1_555 1_555
H13A C13A 1_555 1_555
H14C C14C 1_555 1_555
H14B C14B 1_555 1_555
H14A C14A 1_555 1_555
H15B C18B 1_555 1_555
H15C C18C 1_555 1_555
H15A C18A 1_555 1_555
H16B C19B 1_555 1_555
H16C C19C 1_555 1_555
H16A C19A 1_555 1_555
H17B C20B 1_555 1_555
H17C C20C 1_555 1_555
H17A C20A 1_555 1_555
H18B C21B 1_555 1_555
H18C C21C 1_555 1_555
H18A C21A 1_555 1_555
H19C C25C 1_555 1_555
H19B C25B 1_555 1_555
H19A C25A 1_555 1_555
H20B C28B 1_555 1_555
H20C C28C 1_555 1_555
H20A C28A 1_555 1_555
H21A C29A 1_555 1_555
H21B C29B 1_555 1_555
H21C C29C 1_555 1_555
H22A C29A 1_555 1_555
H22B C29B 1_555 1_555
H22C C29C 1_555 1_555
H23A C30A 1_555 1_555
H23B C30B 1_555 1_555
H23C C30C 1_555 1_555
H24A C30A 1_555 1_555
H24B C30B 1_555 1_555
H24C C30C 1_555 1_555
H25A C31A 1_555 1_555
H25B C31B 1_555 1_555
H25C C31C 1_555 1_555
H26A C31A 1_555 1_555
H26B C31B 1_555 1_555
H26C C31C 1_555 1_555
H27A C31A 1_555 1_555
H27B C31B 1_555 1_555
H27C C31C 1_555 1_555
H28A C32A 1_555 1_555
H28B C32B 1_555 1_555
H28C C32C 1_555 1_555
H29A C32A 1_555 1_555
H29B C32B 1_555 1_555
H29C C32C 1_555 1_555
H30A C33A 1_555 1_555
H30B C33B 1_555 1_555
H30C C33C 1_555 1_555
H31A C33A 1_555 1_555
H31B C33B 1_555 1_555
H31C C33C 1_555 1_555
H32A C34A 1_555 1_555
H32B C34B 1_555 1_555
H32C C34C 1_555 1_555
H33A C34A 1_555 1_555
H33B C34B 1_555 1_555
H33C C34C 1_555 1_555
H34A C34A 1_555 1_555
H34B C34B 1_555 1_555
H34C C34C 1_555 1_555
H35C C37C 1_555 1_555
H35B C37B 1_555 1_555
H35A C37A 1_555 1_555
H36C C38C 1_555 1_555
H36B C38B 1_555 1_555
H36A C38A 1_555 1_555
H37C C39C 1_555 1_555
H37B C39B 1_555 1_555
H37A C39A 1_555 1_555
H38C C40C 1_555 1_555
H38B C40B 1_555 1_555
H38A C40A 1_555 1_555
H39B C44B 1_555 1_555
H39C C44C 1_555 1_555
H39A C44A 1_555 1_555
H40B C45B 1_555 1_555
H40C C45C 1_555 1_555
H40A C45A 1_555 1_555
H41B C46B 1_555 1_555
H41C C46C 1_555 1_555
H41A C46A 1_555 1_555
H42B C47B 1_555 1_555
H42C C47C 1_555 1_555
H42A C47A 1_555 1_555
H43C C49C 1_555 1_555
H43B C49B 1_555 1_555
H43A C49A 1_555 1_555
H44C C51C 1_555 1_555
H44B C51B 1_555 1_555
H44A C51A 1_555 1_555
H45C C53C 1_555 1_555
H45B C53B 1_555 1_555
H45A C53A 1_555 1_555
H46A C54A 1_555 1_555
H46B C54B 1_555 1_555
H46C C54C 1_555 1_555
H47A C54A 1_555 1_555
H47B C54B 1_555 1_555
H47C C54C 1_555 1_555
H48A C55A 1_555 1_555
H48B C55B 1_555 1_555
H48C C55C 1_555 1_555
H49A C55A 1_555 1_555
H49B C55B 1_555 1_555
H49C C55C 1_555 1_555
H50A C56A 1_555 1_555
H50B C56B 1_555 1_555
H50C C56C 1_555 1_555
H51A C56A 1_555 1_555
H51B C56B 1_555 1_555
H51C C56C 1_555 1_555
H52A C56A 1_555 1_555
H52B C56B 1_555 1_555
H52C C56C 1_555 1_555
O12B Cl1 1_555 1_555
O13B Cl1 1_555 1_555
C4 C5 1_555 1_555
C14 C15 1_555 1_555
C17 C22 1_555 1_555
C21 C22 1_555 1_555
C27 C28 1_555 1_555
C40 C41 1_555 1_555
C43 C48 1_555 1_555
C47 C48 1_555 1_555
C51 C52 1_555 1_555
C52 C53 1_555 1_555
C4A C5A 1_555 1_555
C4B C5B 1_555 1_555
C4C C5C 1_555 1_555
C14B C15B 1_555 1_555
C14C C15C 1_555 1_555
C14A C15A 1_555 1_555
C17B C22B 1_555 1_555
C17C C22C 1_555 1_555
C17A C22A 1_555 1_555
C21B C22B 1_555 1_555
C21C C22C 1_555 1_555
C21A C22A 1_555 1_555
C27A C28A 1_555 1_555
C27B C28B 1_555 1_555
C27C C28C 1_555 1_555
C40B C41B 1_555 1_555
C40C C41C 1_555 1_555
C40A C41A 1_555 1_555
C43B C48B 1_555 1_555
C43C C48C 1_555 1_555
C43A C48A 1_555 1_555
C47B C48B 1_555 1_555
C47C C48C 1_555 1_555
C47A C48A 1_555 1_555
C51A C52A 1_555 1_555
C51B C52B 1_555 1_555
C51C C52C 1_555 1_555
C52A C53A 1_555 1_555
C52B C53B 1_555 1_555
C52C C53C 1_555 1_555

#END
