# generated using pymatgen
data_Ni2H208C252N9Cl11O118
_symmetry_space_group_name_H-M   'P 1'
_cell_length_a   19.41330000
_cell_length_b   19.41330000
_cell_length_c   29.96800000
_cell_angle_alpha   90.00000000
_cell_angle_beta   90.00000000
_cell_angle_gamma   90.00000000
_symmetry_Int_Tables_number   1
_chemical_formula_structural   Ni2H208C252N9Cl11O118
_chemical_formula_sum   'Ni4 H416 C504 N18 Cl22 O236'
_cell_volume   11294.22646776
_cell_formula_units_Z   2
loop_
 _symmetry_equiv_pos_site_id
 _symmetry_equiv_pos_as_xyz
  1  'x, y, z'
loop_
 _atom_site_type_symbol
 _atom_site_label
 _atom_site_symmetry_multiplicity
 _atom_site_fract_x
 _atom_site_fract_y
 _atom_site_fract_z
 _atom_site_occupancy
  Ni  Ni1  1  0.500000  0.500000  0.409080  1
  Ni  Ni2  1  0.000000  0.000000  0.909080  1
  Ni  Ni3  1  0.500000  0.500000  0.958900  1
  Ni  Ni4  1  0.000000  0.000000  0.458900  1
  H  H5  1  0.482800  0.637500  0.458400  1.0
  H  H6  1  0.362500  0.482800  0.458400  1.0
  H  H7  1  0.517200  0.362500  0.458400  1.0
  H  H8  1  0.637500  0.517200  0.458400  1.0
  H  H9  1  0.017200  0.137500  0.958400  1.0
  H  H10  1  0.137500  0.982800  0.958400  1.0
  H  H11  1  0.982800  0.862500  0.958400  1.0
  H  H12  1  0.862500  0.017200  0.958400  1.0
  H  H13  1  0.598300  0.783700  0.398300  1.0
  H  H14  1  0.216300  0.598300  0.398300  1.0
  H  H15  1  0.401700  0.216300  0.398300  1.0
  H  H16  1  0.783700  0.401700  0.398300  1.0
  H  H17  1  0.901700  0.283700  0.898300  1.0
  H  H18  1  0.283700  0.098300  0.898300  1.0
  H  H19  1  0.098300  0.716300  0.898300  1.0
  H  H20  1  0.716300  0.901700  0.898300  1.0
  H  H21  1  0.602100  0.586600  0.357100  1.0
  H  H22  1  0.413400  0.602100  0.357100  1.0
  H  H23  1  0.397900  0.413400  0.357100  1.0
  H  H24  1  0.586600  0.397900  0.357100  1.0
  H  H25  1  0.897900  0.086600  0.857100  1.0
  H  H26  1  0.086600  0.102100  0.857100  1.0
  H  H27  1  0.102100  0.913400  0.857100  1.0
  H  H28  1  0.913400  0.897900  0.857100  1.0
  H  H29  1  0.518300  0.855500  0.436500  1.0
  H  H30  1  0.144500  0.518300  0.436500  1.0
  H  H31  1  0.481700  0.144500  0.436500  1.0
  H  H32  1  0.855500  0.481700  0.436500  1.0
  H  H33  1  0.981700  0.355500  0.936500  1.0
  H  H34  1  0.355500  0.018300  0.936500  1.0
  H  H35  1  0.018300  0.644500  0.936500  1.0
  H  H36  1  0.644500  0.981700  0.936500  1.0
  H  H37  1  0.582700  0.834600  0.467400  1.0
  H  H38  1  0.165400  0.582700  0.467400  1.0
  H  H39  1  0.417300  0.165400  0.467400  1.0
  H  H40  1  0.834600  0.417300  0.467400  1.0
  H  H41  1  0.917300  0.334600  0.967400  1.0
  H  H42  1  0.334600  0.082700  0.967400  1.0
  H  H43  1  0.082700  0.665400  0.967400  1.0
  H  H44  1  0.665400  0.917300  0.967400  1.0
  H  H45  1  0.504600  0.916300  0.501400  1.0
  H  H46  1  0.083700  0.504600  0.501400  1.0
  H  H47  1  0.495400  0.083700  0.501400  1.0
  H  H48  1  0.916300  0.495400  0.501400  1.0
  H  H49  1  0.995400  0.416300  0.001400  1.0
  H  H50  1  0.416300  0.004600  0.001400  1.0
  H  H51  1  0.004600  0.583700  0.001400  1.0
  H  H52  1  0.583700  0.995400  0.001400  1.0
  H  H53  1  0.448500  0.855600  0.503100  1.0
  H  H54  1  0.144400  0.448500  0.503100  1.0
  H  H55  1  0.551500  0.144400  0.503100  1.0
  H  H56  1  0.855600  0.551500  0.503100  1.0
  H  H57  1  0.051500  0.355600  0.003100  1.0
  H  H58  1  0.355600  0.948500  0.003100  1.0
  H  H59  1  0.948500  0.644400  0.003100  1.0
  H  H60  1  0.644400  0.051500  0.003100  1.0
  H  H61  1  0.445600  0.861300  0.578500  1.0
  H  H62  1  0.138700  0.445600  0.578500  1.0
  H  H63  1  0.554400  0.138700  0.578500  1.0
  H  H64  1  0.861300  0.554400  0.578500  1.0
  H  H65  1  0.054400  0.361300  0.078500  1.0
  H  H66  1  0.361300  0.945600  0.078500  1.0
  H  H67  1  0.945600  0.638700  0.078500  1.0
  H  H68  1  0.638700  0.054400  0.078500  1.0
  H  H69  1  0.505200  0.917900  0.582800  1.0
  H  H70  1  0.082100  0.505200  0.582800  1.0
  H  H71  1  0.494800  0.082100  0.582800  1.0
  H  H72  1  0.917900  0.494800  0.582800  1.0
  H  H73  1  0.994800  0.417900  0.082800  1.0
  H  H74  1  0.417900  0.005200  0.082800  1.0
  H  H75  1  0.005200  0.582100  0.082800  1.0
  H  H76  1  0.582100  0.994800  0.082800  1.0
  H  H77  1  0.512600  0.845500  0.607900  1.0
  H  H78  1  0.154500  0.512600  0.607900  1.0
  H  H79  1  0.487400  0.154500  0.607900  1.0
  H  H80  1  0.845500  0.487400  0.607900  1.0
  H  H81  1  0.987400  0.345500  0.107900  1.0
  H  H82  1  0.345500  0.012600  0.107900  1.0
  H  H83  1  0.012600  0.654500  0.107900  1.0
  H  H84  1  0.654500  0.987400  0.107900  1.0
  H  H85  1  0.529800  0.757200  0.320800  1.0
  H  H86  1  0.242800  0.529800  0.320800  1.0
  H  H87  1  0.470200  0.242800  0.320800  1.0
  H  H88  1  0.757200  0.470200  0.320800  1.0
  H  H89  1  0.970200  0.257200  0.820800  1.0
  H  H90  1  0.257200  0.029800  0.820800  1.0
  H  H91  1  0.029800  0.742800  0.820800  1.0
  H  H92  1  0.742800  0.970200  0.820800  1.0
  H  H93  1  0.487500  0.815100  0.259600  1.0
  H  H94  1  0.184900  0.487500  0.259600  1.0
  H  H95  1  0.512500  0.184900  0.259600  1.0
  H  H96  1  0.815100  0.512500  0.259600  1.0
  H  H97  1  0.012500  0.315100  0.759600  1.0
  H  H98  1  0.315100  0.987500  0.759600  1.0
  H  H99  1  0.987500  0.684900  0.759600  1.0
  H  H100  1  0.684900  0.012500  0.759600  1.0
  H  H101  1  0.561400  0.836400  0.197900  1.0
  H  H102  1  0.163600  0.561400  0.197900  1.0
  H  H103  1  0.438600  0.163600  0.197900  1.0
  H  H104  1  0.836400  0.438600  0.197900  1.0
  H  H105  1  0.938600  0.336400  0.697900  1.0
  H  H106  1  0.336400  0.061400  0.697900  1.0
  H  H107  1  0.061400  0.663600  0.697900  1.0
  H  H108  1  0.663600  0.938600  0.697900  1.0
  H  H109  1  0.670700  0.798600  0.197300  1.0
  H  H110  1  0.201400  0.670700  0.197300  1.0
  H  H111  1  0.329300  0.201400  0.197300  1.0
  H  H112  1  0.798600  0.329300  0.197300  1.0
  H  H113  1  0.829300  0.298600  0.697300  1.0
  H  H114  1  0.298600  0.170700  0.697300  1.0
  H  H115  1  0.170700  0.701400  0.697300  1.0
  H  H116  1  0.701400  0.829300  0.697300  1.0
  H  H117  1  0.862200  0.669300  0.270500  1.0
  H  H118  1  0.330700  0.862200  0.270500  1.0
  H  H119  1  0.137800  0.330700  0.270500  1.0
  H  H120  1  0.669300  0.137800  0.270500  1.0
  H  H121  1  0.637800  0.169300  0.770500  1.0
  H  H122  1  0.169300  0.362200  0.770500  1.0
  H  H123  1  0.362200  0.830700  0.770500  1.0
  H  H124  1  0.830700  0.637800  0.770500  1.0
  H  H125  1  0.903700  0.607300  0.330300  1.0
  H  H126  1  0.392700  0.903700  0.330300  1.0
  H  H127  1  0.096300  0.392700  0.330300  1.0
  H  H128  1  0.607300  0.096300  0.330300  1.0
  H  H129  1  0.596300  0.107300  0.830300  1.0
  H  H130  1  0.107300  0.403700  0.830300  1.0
  H  H131  1  0.403700  0.892700  0.830300  1.0
  H  H132  1  0.892700  0.596300  0.830300  1.0
  H  H133  1  0.835300  0.593700  0.395000  1.0
  H  H134  1  0.406300  0.835300  0.395000  1.0
  H  H135  1  0.164700  0.406300  0.395000  1.0
  H  H136  1  0.593700  0.164700  0.395000  1.0
  H  H137  1  0.664700  0.093700  0.895000  1.0
  H  H138  1  0.093700  0.335300  0.895000  1.0
  H  H139  1  0.335300  0.906300  0.895000  1.0
  H  H140  1  0.906300  0.664700  0.895000  1.0
  H  H141  1  0.724900  0.636600  0.397200  1.0
  H  H142  1  0.363400  0.724900  0.397200  1.0
  H  H143  1  0.275100  0.363400  0.397200  1.0
  H  H144  1  0.636600  0.275100  0.397200  1.0
  H  H145  1  0.775100  0.136600  0.897200  1.0
  H  H146  1  0.136600  0.224900  0.897200  1.0
  H  H147  1  0.224900  0.863400  0.897200  1.0
  H  H148  1  0.863400  0.775100  0.897200  1.0
  H  H149  1  0.907000  0.833400  0.178900  1.0
  H  H150  1  0.166600  0.907000  0.178900  1.0
  H  H151  1  0.093000  0.166600  0.178900  1.0
  H  H152  1  0.833400  0.093000  0.178900  1.0
  H  H153  1  0.593000  0.333400  0.678900  1.0
  H  H154  1  0.333400  0.407000  0.678900  1.0
  H  H155  1  0.407000  0.666600  0.678900  1.0
  H  H156  1  0.666600  0.593000  0.678900  1.0
  H  H157  1  0.736200  0.664800  0.178900  1.0
  H  H158  1  0.335200  0.736200  0.178900  1.0
  H  H159  1  0.263800  0.335200  0.178900  1.0
  H  H160  1  0.664800  0.263800  0.178900  1.0
  H  H161  1  0.763800  0.164800  0.678900  1.0
  H  H162  1  0.164800  0.236200  0.678900  1.0
  H  H163  1  0.236200  0.835200  0.678900  1.0
  H  H164  1  0.835200  0.763800  0.678900  1.0
  H  H165  1  0.883100  0.909400  0.232900  1.0
  H  H166  1  0.090600  0.883100  0.232900  1.0
  H  H167  1  0.116900  0.090600  0.232900  1.0
  H  H168  1  0.909400  0.116900  0.232900  1.0
  H  H169  1  0.616900  0.409400  0.732900  1.0
  H  H170  1  0.409400  0.383100  0.732900  1.0
  H  H171  1  0.383100  0.590600  0.732900  1.0
  H  H172  1  0.590600  0.616900  0.732900  1.0
  H  H173  1  0.938500  0.858300  0.254800  1.0
  H  H174  1  0.141700  0.938500  0.254800  1.0
  H  H175  1  0.061500  0.141700  0.254800  1.0
  H  H176  1  0.858300  0.061500  0.254800  1.0
  H  H177  1  0.561500  0.358300  0.754800  1.0
  H  H178  1  0.358300  0.438500  0.754800  1.0
  H  H179  1  0.438500  0.641700  0.754800  1.0
  H  H180  1  0.641700  0.561500  0.754800  1.0
  H  H181  1  0.903600  0.961200  0.298400  1.0
  H  H182  1  0.038800  0.903600  0.298400  1.0
  H  H183  1  0.096400  0.038800  0.298400  1.0
  H  H184  1  0.961200  0.096400  0.298400  1.0
  H  H185  1  0.596400  0.461200  0.798400  1.0
  H  H186  1  0.461200  0.403600  0.798400  1.0
  H  H187  1  0.403600  0.538800  0.798400  1.0
  H  H188  1  0.538800  0.596400  0.798400  1.0
  H  H189  1  0.834700  0.919100  0.308800  1.0
  H  H190  1  0.080900  0.834700  0.308800  1.0
  H  H191  1  0.165300  0.080900  0.308800  1.0
  H  H192  1  0.919100  0.165300  0.308800  1.0
  H  H193  1  0.665300  0.419100  0.808800  1.0
  H  H194  1  0.419100  0.334700  0.808800  1.0
  H  H195  1  0.334700  0.580900  0.808800  1.0
  H  H196  1  0.580900  0.665300  0.808800  1.0
  H  H197  1  0.896000  0.781200  0.330900  1.0
  H  H198  1  0.218800  0.896000  0.330900  1.0
  H  H199  1  0.104000  0.218800  0.330900  1.0
  H  H200  1  0.781200  0.104000  0.330900  1.0
  H  H201  1  0.604000  0.281200  0.830900  1.0
  H  H202  1  0.281200  0.396000  0.830900  1.0
  H  H203  1  0.396000  0.718800  0.830900  1.0
  H  H204  1  0.718800  0.604000  0.830900  1.0
  H  H205  1  0.834300  0.824500  0.352700  1.0
  H  H206  1  0.175500  0.834300  0.352700  1.0
  H  H207  1  0.165700  0.175500  0.352700  1.0
  H  H208  1  0.824500  0.165700  0.352700  1.0
  H  H209  1  0.665700  0.324500  0.852700  1.0
  H  H210  1  0.324500  0.334300  0.852700  1.0
  H  H211  1  0.334300  0.675500  0.852700  1.0
  H  H212  1  0.675500  0.665700  0.852700  1.0
  H  H213  1  0.900200  0.804600  0.382100  1.0
  H  H214  1  0.195400  0.900200  0.382100  1.0
  H  H215  1  0.099800  0.195400  0.382100  1.0
  H  H216  1  0.804600  0.099800  0.382100  1.0
  H  H217  1  0.599800  0.304600  0.882100  1.0
  H  H218  1  0.304600  0.400200  0.882100  1.0
  H  H219  1  0.400200  0.695400  0.882100  1.0
  H  H220  1  0.695400  0.599800  0.882100  1.0
  H  H221  1  0.982900  0.809800  0.120300  1.0
  H  H222  1  0.190200  0.982900  0.120300  1.0
  H  H223  1  0.017100  0.190200  0.120300  1.0
  H  H224  1  0.809800  0.017100  0.120300  1.0
  H  H225  1  0.517100  0.309800  0.620300  1.0
  H  H226  1  0.309800  0.482900  0.620300  1.0
  H  H227  1  0.482900  0.690200  0.620300  1.0
  H  H228  1  0.690200  0.517100  0.620300  1.0
  H  H229  1  0.926900  0.868700  0.109800  1.0
  H  H230  1  0.131300  0.926900  0.109800  1.0
  H  H231  1  0.073100  0.131300  0.109800  1.0
  H  H232  1  0.868700  0.073100  0.109800  1.0
  H  H233  1  0.573100  0.368700  0.609800  1.0
  H  H234  1  0.368700  0.426900  0.609800  1.0
  H  H235  1  0.426900  0.631300  0.609800  1.0
  H  H236  1  0.631300  0.573100  0.609800  1.0
  H  H237  1  0.016400  0.848200  0.052200  1.0
  H  H238  1  0.151800  0.016400  0.052200  1.0
  H  H239  1  0.983600  0.151800  0.052200  1.0
  H  H240  1  0.848200  0.983600  0.052200  1.0
  H  H241  1  0.483600  0.348200  0.552200  1.0
  H  H242  1  0.348200  0.516400  0.552200  1.0
  H  H243  1  0.516400  0.651800  0.552200  1.0
  H  H244  1  0.651800  0.483600  0.552200  1.0
  H  H245  1  0.973700  0.780000  0.040500  1.0
  H  H246  1  0.220000  0.973700  0.040500  1.0
  H  H247  1  0.026300  0.220000  0.040500  1.0
  H  H248  1  0.780000  0.026300  0.040500  1.0
  H  H249  1  0.526300  0.280000  0.540500  1.0
  H  H250  1  0.280000  0.473700  0.540500  1.0
  H  H251  1  0.473700  0.720000  0.540500  1.0
  H  H252  1  0.720000  0.526300  0.540500  1.0
  H  H253  1  0.849400  0.797200  0.029900  1.0
  H  H254  1  0.202800  0.849400  0.029900  1.0
  H  H255  1  0.150600  0.202800  0.029900  1.0
  H  H256  1  0.797200  0.150600  0.029900  1.0
  H  H257  1  0.650600  0.297200  0.529900  1.0
  H  H258  1  0.297200  0.349400  0.529900  1.0
  H  H259  1  0.349400  0.702800  0.529900  1.0
  H  H260  1  0.702800  0.650600  0.529900  1.0
  H  H261  1  0.888400  0.797300  0.982900  1.0
  H  H262  1  0.202700  0.888400  0.982900  1.0
  H  H263  1  0.111600  0.202700  0.982900  1.0
  H  H264  1  0.797300  0.111600  0.982900  1.0
  H  H265  1  0.611600  0.297300  0.482900  1.0
  H  H266  1  0.297300  0.388400  0.482900  1.0
  H  H267  1  0.388400  0.702700  0.482900  1.0
  H  H268  1  0.702700  0.611600  0.482900  1.0
  H  H269  1  0.834300  0.856800  0.994400  1.0
  H  H270  1  0.143200  0.834300  0.994400  1.0
  H  H271  1  0.165700  0.143200  0.994400  1.0
  H  H272  1  0.856800  0.165700  0.994400  1.0
  H  H273  1  0.665700  0.356800  0.494400  1.0
  H  H274  1  0.356800  0.334300  0.494400  1.0
  H  H275  1  0.334300  0.643200  0.494400  1.0
  H  H276  1  0.643200  0.665700  0.494400  1.0
  H  H277  1  0.738300  0.797700  0.092300  1.0
  H  H278  1  0.202300  0.738300  0.092300  1.0
  H  H279  1  0.261700  0.202300  0.092300  1.0
  H  H280  1  0.797700  0.261700  0.092300  1.0
  H  H281  1  0.761700  0.297700  0.592300  1.0
  H  H282  1  0.297700  0.238300  0.592300  1.0
  H  H283  1  0.238300  0.702300  0.592300  1.0
  H  H284  1  0.702300  0.761700  0.592300  1.0
  H  H285  1  0.680000  0.848300  0.034300  1.0
  H  H286  1  0.151700  0.680000  0.034300  1.0
  H  H287  1  0.320000  0.151700  0.034300  1.0
  H  H288  1  0.848300  0.320000  0.034300  1.0
  H  H289  1  0.820000  0.348300  0.534300  1.0
  H  H290  1  0.348300  0.180000  0.534300  1.0
  H  H291  1  0.180000  0.651700  0.534300  1.0
  H  H292  1  0.651700  0.820000  0.534300  1.0
  H  H293  1  0.653900  0.785000  0.969300  1.0
  H  H294  1  0.215000  0.653900  0.969300  1.0
  H  H295  1  0.346100  0.215000  0.969300  1.0
  H  H296  1  0.785000  0.346100  0.969300  1.0
  H  H297  1  0.846100  0.285000  0.469300  1.0
  H  H298  1  0.285000  0.153900  0.469300  1.0
  H  H299  1  0.153900  0.715000  0.469300  1.0
  H  H300  1  0.715000  0.846100  0.469300  1.0
  H  H301  1  0.681500  0.670300  0.964300  1.0
  H  H302  1  0.329700  0.681500  0.964300  1.0
  H  H303  1  0.318500  0.329700  0.964300  1.0
  H  H304  1  0.670300  0.318500  0.964300  1.0
  H  H305  1  0.818500  0.170300  0.464300  1.0
  H  H306  1  0.170300  0.181500  0.464300  1.0
  H  H307  1  0.181500  0.829700  0.464300  1.0
  H  H308  1  0.829700  0.818500  0.464300  1.0
  H  H309  1  0.791000  0.461600  0.033000  1.0
  H  H310  1  0.538400  0.791000  0.033000  1.0
  H  H311  1  0.209000  0.538400  0.033000  1.0
  H  H312  1  0.461600  0.209000  0.033000  1.0
  H  H313  1  0.709000  0.961600  0.533000  1.0
  H  H314  1  0.961600  0.291000  0.533000  1.0
  H  H315  1  0.291000  0.038400  0.533000  1.0
  H  H316  1  0.038400  0.709000  0.533000  1.0
  H  H317  1  0.861500  0.415000  0.085700  1.0
  H  H318  1  0.585000  0.861500  0.085700  1.0
  H  H319  1  0.138500  0.585000  0.085700  1.0
  H  H320  1  0.415000  0.138500  0.085700  1.0
  H  H321  1  0.638500  0.915000  0.585700  1.0
  H  H322  1  0.915000  0.361500  0.585700  1.0
  H  H323  1  0.361500  0.085000  0.585700  1.0
  H  H324  1  0.085000  0.638500  0.585700  1.0
  H  H325  1  0.908500  0.485400  0.143000  1.0
  H  H326  1  0.514600  0.908500  0.143000  1.0
  H  H327  1  0.091500  0.514600  0.143000  1.0
  H  H328  1  0.485400  0.091500  0.143000  1.0
  H  H329  1  0.591500  0.985400  0.643000  1.0
  H  H330  1  0.985400  0.408500  0.643000  1.0
  H  H331  1  0.408500  0.014600  0.643000  1.0
  H  H332  1  0.014600  0.591500  0.643000  1.0
  H  H333  1  0.869700  0.596900  0.151800  1.0
  H  H334  1  0.403100  0.869700  0.151800  1.0
  H  H335  1  0.130300  0.403100  0.151800  1.0
  H  H336  1  0.596900  0.130300  0.151800  1.0
  H  H337  1  0.630300  0.096900  0.651800  1.0
  H  H338  1  0.096900  0.369700  0.651800  1.0
  H  H339  1  0.369700  0.903100  0.651800  1.0
  H  H340  1  0.903100  0.630300  0.651800  1.0
  H  H341  1  0.621100  0.442300  0.905500  1.0
  H  H342  1  0.557700  0.621100  0.905500  1.0
  H  H343  1  0.378900  0.557700  0.905500  1.0
  H  H344  1  0.442300  0.378900  0.905500  1.0
  H  H345  1  0.878900  0.942300  0.405500  1.0
  H  H346  1  0.942300  0.121100  0.405500  1.0
  H  H347  1  0.121100  0.057700  0.405500  1.0
  H  H348  1  0.057700  0.878900  0.405500  1.0
  H  H349  1  0.801600  0.515800  0.953700  1.0
  H  H350  1  0.484200  0.801600  0.953700  1.0
  H  H351  1  0.198400  0.484200  0.953700  1.0
  H  H352  1  0.515800  0.198400  0.953700  1.0
  H  H353  1  0.698400  0.015800  0.453700  1.0
  H  H354  1  0.015800  0.301600  0.453700  1.0
  H  H355  1  0.301600  0.984200  0.453700  1.0
  H  H356  1  0.984200  0.698400  0.453700  1.0
  H  H357  1  0.618100  0.565000  0.009800  1.0
  H  H358  1  0.435000  0.618100  0.009800  1.0
  H  H359  1  0.381900  0.435000  0.009800  1.0
  H  H360  1  0.565000  0.381900  0.009800  1.0
  H  H361  1  0.881900  0.065000  0.509800  1.0
  H  H362  1  0.065000  0.118100  0.509800  1.0
  H  H363  1  0.118100  0.935000  0.509800  1.0
  H  H364  1  0.935000  0.881900  0.509800  1.0
  H  H365  1  0.845200  0.420100  0.896600  1.0
  H  H366  1  0.579900  0.845200  0.896600  1.0
  H  H367  1  0.154800  0.579900  0.896600  1.0
  H  H368  1  0.420100  0.154800  0.896600  1.0
  H  H369  1  0.654800  0.920100  0.396600  1.0
  H  H370  1  0.920100  0.345200  0.396600  1.0
  H  H371  1  0.345200  0.079900  0.396600  1.0
  H  H372  1  0.079900  0.654800  0.396600  1.0
  H  H373  1  0.827400  0.497100  0.880400  1.0
  H  H374  1  0.502900  0.827400  0.880400  1.0
  H  H375  1  0.172600  0.502900  0.880400  1.0
  H  H376  1  0.497100  0.172600  0.880400  1.0
  H  H377  1  0.672600  0.997100  0.380400  1.0
  H  H378  1  0.997100  0.327400  0.380400  1.0
  H  H379  1  0.327400  0.002900  0.380400  1.0
  H  H380  1  0.002900  0.672600  0.380400  1.0
  H  H381  1  0.871700  0.419800  0.821700  1.0
  H  H382  1  0.580200  0.871700  0.821700  1.0
  H  H383  1  0.128300  0.580200  0.821700  1.0
  H  H384  1  0.419800  0.128300  0.821700  1.0
  H  H385  1  0.628300  0.919800  0.321700  1.0
  H  H386  1  0.919800  0.371700  0.321700  1.0
  H  H387  1  0.371700  0.080200  0.321700  1.0
  H  H388  1  0.080200  0.628300  0.321700  1.0
  H  H389  1  0.798700  0.381200  0.824300  1.0
  H  H390  1  0.618800  0.798700  0.824300  1.0
  H  H391  1  0.201300  0.618800  0.824300  1.0
  H  H392  1  0.381200  0.201300  0.824300  1.0
  H  H393  1  0.701300  0.881200  0.324300  1.0
  H  H394  1  0.881200  0.298700  0.324300  1.0
  H  H395  1  0.298700  0.118800  0.324300  1.0
  H  H396  1  0.118800  0.701300  0.324300  1.0
  H  H397  1  0.768400  0.415200  0.751600  1.0
  H  H398  1  0.584800  0.768400  0.751600  1.0
  H  H399  1  0.231600  0.584800  0.751600  1.0
  H  H400  1  0.415200  0.231600  0.751600  1.0
  H  H401  1  0.731600  0.915200  0.251600  1.0
  H  H402  1  0.915200  0.268400  0.251600  1.0
  H  H403  1  0.268400  0.084800  0.251600  1.0
  H  H404  1  0.084800  0.731600  0.251600  1.0
  H  H405  1  0.840400  0.454100  0.745100  1.0
  H  H406  1  0.545900  0.840400  0.745100  1.0
  H  H407  1  0.159600  0.545900  0.745100  1.0
  H  H408  1  0.454100  0.159600  0.745100  1.0
  H  H409  1  0.659600  0.954100  0.245100  1.0
  H  H410  1  0.954100  0.340400  0.245100  1.0
  H  H411  1  0.340400  0.045900  0.245100  1.0
  H  H412  1  0.045900  0.659600  0.245100  1.0
  H  H413  1  0.769600  0.495100  0.738500  1.0
  H  H414  1  0.504900  0.769600  0.738500  1.0
  H  H415  1  0.230400  0.504900  0.738500  1.0
  H  H416  1  0.495100  0.230400  0.738500  1.0
  H  H417  1  0.730400  0.995100  0.238500  1.0
  H  H418  1  0.995100  0.269600  0.238500  1.0
  H  H419  1  0.269600  0.004900  0.238500  1.0
  H  H420  1  0.004900  0.730400  0.238500  1.0
  C  C421  1  0.500000  0.500000  0.515500  1
  C  C422  1  0.000000  0.000000  0.015500  1
  C  C423  1  0.500000  0.500000  0.564500  1
  C  C424  1  0.000000  0.000000  0.064500  1
  C  C425  1  0.500000  0.000000  0.234800  1
  C  C426  1  0.000000  0.500000  0.234800  1
  C  C427  1  0.000000  0.500000  0.734800  1
  C  C428  1  0.500000  0.000000  0.734800  1
  C  C429  1  0.370200  0.437300  0.252500  1
  C  C430  1  0.562700  0.370200  0.252500  1
  C  C431  1  0.629800  0.562700  0.252500  1
  C  C432  1  0.437300  0.629800  0.252500  1
  C  C433  1  0.129800  0.937300  0.752500  1
  C  C434  1  0.937300  0.870200  0.752500  1
  C  C435  1  0.870200  0.062700  0.752500  1
  C  C436  1  0.062700  0.129800  0.752500  1
  C  C437  1  0.394100  0.541000  0.076800  1
  C  C438  1  0.459000  0.394100  0.076800  1
  C  C439  1  0.605900  0.459000  0.076800  1
  C  C440  1  0.541000  0.605900  0.076800  1
  C  C441  1  0.105900  0.041000  0.576800  1
  C  C442  1  0.041000  0.894100  0.576800  1
  C  C443  1  0.894100  0.959000  0.576800  1
  C  C444  1  0.959000  0.105900  0.576800  1
  C  C445  1  0.660000  0.425000  0.111600  1
  C  C446  1  0.575000  0.660000  0.111600  1
  C  C447  1  0.340000  0.575000  0.111600  1
  C  C448  1  0.425000  0.340000  0.111600  1
  C  C449  1  0.840000  0.925000  0.611600  1
  C  C450  1  0.925000  0.160000  0.611600  1
  C  C451  1  0.160000  0.075000  0.611600  1
  C  C452  1  0.075000  0.840000  0.611600  1
  C  C453  1  0.576000  0.640000  0.078000  1
  C  C454  1  0.360000  0.576000  0.078000  1
  C  C455  1  0.424000  0.360000  0.078000  1
  C  C456  1  0.640000  0.424000  0.078000  1
  C  C457  1  0.924000  0.140000  0.578000  1
  C  C458  1  0.140000  0.076000  0.578000  1
  C  C459  1  0.076000  0.860000  0.578000  1
  C  C460  1  0.860000  0.924000  0.578000  1
  C  C461  1  0.672000  0.549000  0.220000  1
  C  C462  1  0.451000  0.672000  0.220000  1
  C  C463  1  0.328000  0.451000  0.220000  1
  C  C464  1  0.549000  0.328000  0.220000  1
  C  C465  1  0.828000  0.049000  0.720000  1
  C  C466  1  0.049000  0.172000  0.720000  1
  C  C467  1  0.172000  0.951000  0.720000  1
  C  C468  1  0.951000  0.828000  0.720000  1
  C  C469  1  0.453000  0.598000  0.209200  1
  C  C470  1  0.402000  0.453000  0.209200  1
  C  C471  1  0.547000  0.402000  0.209200  1
  C  C472  1  0.598000  0.547000  0.209200  1
  C  C473  1  0.047000  0.098000  0.709200  1
  C  C474  1  0.098000  0.953000  0.709200  1
  C  C475  1  0.953000  0.902000  0.709200  1
  C  C476  1  0.902000  0.047000  0.709200  1
  C  C477  1  0.515200  0.650090  0.436080  1.0
  C  C478  1  0.349910  0.515200  0.436080  1.0
  C  C479  1  0.484800  0.349910  0.436080  1.0
  C  C480  1  0.650090  0.484800  0.436080  1.0
  C  C481  1  0.984800  0.150090  0.936080  1.0
  C  C482  1  0.150090  0.015200  0.936080  1.0
  C  C483  1  0.015200  0.849910  0.936080  1.0
  C  C484  1  0.849910  0.984800  0.936080  1.0
  C  C485  1  0.536600  0.718370  0.433690  1.0
  C  C486  1  0.281630  0.536600  0.433690  1.0
  C  C487  1  0.463400  0.281630  0.433690  1.0
  C  C488  1  0.718370  0.463400  0.433690  1.0
  C  C489  1  0.963400  0.218370  0.933690  1.0
  C  C490  1  0.218370  0.036600  0.933690  1.0
  C  C491  1  0.036600  0.781630  0.933690  1.0
  C  C492  1  0.781630  0.963400  0.933690  1.0
  C  C493  1  0.583200  0.737300  0.400870  1.0
  C  C494  1  0.262700  0.583200  0.400870  1.0
  C  C495  1  0.416800  0.262700  0.400870  1.0
  C  C496  1  0.737300  0.416800  0.400870  1.0
  C  C497  1  0.916800  0.237300  0.900870  1.0
  C  C498  1  0.237300  0.083200  0.900870  1.0
  C  C499  1  0.083200  0.762700  0.900870  1.0
  C  C500  1  0.762700  0.916800  0.900870  1.0
  C  C501  1  0.607200  0.687100  0.371840  1.0
  C  C502  1  0.312900  0.607200  0.371840  1.0
  C  C503  1  0.392800  0.312900  0.371840  1.0
  C  C504  1  0.687100  0.392800  0.371840  1.0
  C  C505  1  0.892800  0.187100  0.871840  1.0
  C  C506  1  0.187100  0.107200  0.871840  1.0
  C  C507  1  0.107200  0.812900  0.871840  1.0
  C  C508  1  0.812900  0.892800  0.871840  1.0
  C  C509  1  0.584470  0.620700  0.376760  1.0
  C  C510  1  0.379300  0.584470  0.376760  1.0
  C  C511  1  0.415530  0.379300  0.376760  1.0
  C  C512  1  0.620700  0.415530  0.376760  1.0
  C  C513  1  0.915530  0.120700  0.876760  1.0
  C  C514  1  0.120700  0.084470  0.876760  1.0
  C  C515  1  0.084470  0.879300  0.876760  1.0
  C  C516  1  0.879300  0.915530  0.876760  1.0
  C  C517  1  0.532000  0.832300  0.464530  1.0
  C  C518  1  0.167700  0.532000  0.464530  1.0
  C  C519  1  0.468000  0.167700  0.464530  1.0
  C  C520  1  0.832300  0.468000  0.464530  1.0
  C  C521  1  0.968000  0.332300  0.964530  1.0
  C  C522  1  0.332300  0.032000  0.964530  1.0
  C  C523  1  0.032000  0.667700  0.964530  1.0
  C  C524  1  0.667700  0.968000  0.964530  1.0
  C  C525  1  0.498500  0.865800  0.503200  1.0
  C  C526  1  0.134200  0.498500  0.503200  1.0
  C  C527  1  0.501500  0.134200  0.503200  1.0
  C  C528  1  0.865800  0.501500  0.503200  1.0
  C  C529  1  0.001500  0.365800  0.003200  1.0
  C  C530  1  0.365800  0.998500  0.003200  1.0
  C  C531  1  0.998500  0.634200  0.003200  1.0
  C  C532  1  0.634200  0.001500  0.003200  1.0
  C  C533  1  0.495500  0.868400  0.581000  1.0
  C  C534  1  0.131600  0.495500  0.581000  1.0
  C  C535  1  0.504500  0.131600  0.581000  1.0
  C  C536  1  0.868400  0.504500  0.581000  1.0
  C  C537  1  0.004500  0.368400  0.081000  1.0
  C  C538  1  0.368400  0.995500  0.081000  1.0
  C  C539  1  0.995500  0.631600  0.081000  1.0
  C  C540  1  0.631600  0.004500  0.081000  1.0
  C  C541  1  0.654700  0.704300  0.334120  1.0
  C  C542  1  0.295700  0.654700  0.334120  1.0
  C  C543  1  0.345300  0.295700  0.334120  1.0
  C  C544  1  0.704300  0.345300  0.334120  1.0
  C  C545  1  0.845300  0.204300  0.834120  1.0
  C  C546  1  0.204300  0.154700  0.834120  1.0
  C  C547  1  0.154700  0.795700  0.834120  1.0
  C  C548  1  0.795700  0.845300  0.834120  1.0
  C  C549  1  0.628000  0.740300  0.297220  1.0
  C  C550  1  0.259700  0.628000  0.297220  1.0
  C  C551  1  0.372000  0.259700  0.297220  1.0
  C  C552  1  0.740300  0.372000  0.297220  1.0
  C  C553  1  0.872000  0.240300  0.797220  1.0
  C  C554  1  0.240300  0.128000  0.797220  1.0
  C  C555  1  0.128000  0.759700  0.797220  1.0
  C  C556  1  0.759700  0.872000  0.797220  1.0
  C  C557  1  0.559000  0.765000  0.295900  1.0
  C  C558  1  0.235000  0.559000  0.295900  1.0
  C  C559  1  0.441000  0.235000  0.295900  1.0
  C  C560  1  0.765000  0.441000  0.295900  1.0
  C  C561  1  0.941000  0.265000  0.795900  1.0
  C  C562  1  0.265000  0.059000  0.795900  1.0
  C  C563  1  0.059000  0.735000  0.795900  1.0
  C  C564  1  0.735000  0.941000  0.795900  1.0
  C  C565  1  0.533900  0.799400  0.260040  1.0
  C  C566  1  0.200600  0.533900  0.260040  1.0
  C  C567  1  0.466100  0.200600  0.260040  1.0
  C  C568  1  0.799400  0.466100  0.260040  1.0
  C  C569  1  0.966100  0.299400  0.760040  1.0
  C  C570  1  0.299400  0.033900  0.760040  1.0
  C  C571  1  0.033900  0.700600  0.760040  1.0
  C  C572  1  0.700600  0.966100  0.760040  1.0
  C  C573  1  0.578400  0.811600  0.222910  1.0
  C  C574  1  0.188400  0.578400  0.222910  1.0
  C  C575  1  0.421600  0.188400  0.222910  1.0
  C  C576  1  0.811600  0.421600  0.222910  1.0
  C  C577  1  0.921600  0.311600  0.722910  1.0
  C  C578  1  0.311600  0.078400  0.722910  1.0
  C  C579  1  0.078400  0.688400  0.722910  1.0
  C  C580  1  0.688400  0.921600  0.722910  1.0
  C  C581  1  0.642900  0.789200  0.222610  1.0
  C  C582  1  0.210800  0.642900  0.222610  1.0
  C  C583  1  0.357100  0.210800  0.222610  1.0
  C  C584  1  0.789200  0.357100  0.222610  1.0
  C  C585  1  0.857100  0.289200  0.722610  1.0
  C  C586  1  0.289200  0.142900  0.722610  1.0
  C  C587  1  0.142900  0.710800  0.722610  1.0
  C  C588  1  0.710800  0.857100  0.722610  1.0
  C  C589  1  0.672100  0.751600  0.258810  1.0
  C  C590  1  0.248400  0.672100  0.258810  1.0
  C  C591  1  0.327900  0.248400  0.258810  1.0
  C  C592  1  0.751600  0.327900  0.258810  1.0
  C  C593  1  0.827900  0.251600  0.758810  1.0
  C  C594  1  0.251600  0.172100  0.758810  1.0
  C  C595  1  0.172100  0.748400  0.758810  1.0
  C  C596  1  0.748400  0.827900  0.758810  1.0
  C  C597  1  0.738500  0.725700  0.258050  1.0
  C  C598  1  0.274300  0.738500  0.258050  1.0
  C  C599  1  0.261500  0.274300  0.258050  1.0
  C  C600  1  0.725700  0.261500  0.258050  1.0
  C  C601  1  0.761500  0.225700  0.758050  1.0
  C  C602  1  0.225700  0.238500  0.758050  1.0
  C  C603  1  0.238500  0.774300  0.758050  1.0
  C  C604  1  0.774300  0.761500  0.758050  1.0
  C  C605  1  0.764900  0.688500  0.295050  1.0
  C  C606  1  0.311500  0.764900  0.295050  1.0
  C  C607  1  0.235100  0.311500  0.295050  1.0
  C  C608  1  0.688500  0.235100  0.295050  1.0
  C  C609  1  0.735100  0.188500  0.795050  1.0
  C  C610  1  0.188500  0.264900  0.795050  1.0
  C  C611  1  0.264900  0.811500  0.795050  1.0
  C  C612  1  0.811500  0.735100  0.795050  1.0
  C  C613  1  0.833300  0.661900  0.295680  1.0
  C  C614  1  0.338100  0.833300  0.295680  1.0
  C  C615  1  0.166700  0.338100  0.295680  1.0
  C  C616  1  0.661900  0.166700  0.295680  1.0
  C  C617  1  0.666700  0.161900  0.795680  1.0
  C  C618  1  0.161900  0.333300  0.795680  1.0
  C  C619  1  0.333300  0.838100  0.795680  1.0
  C  C620  1  0.838100  0.666700  0.795680  1.0
  C  C621  1  0.858600  0.626200  0.331350  1.0
  C  C622  1  0.373800  0.858600  0.331350  1.0
  C  C623  1  0.141400  0.373800  0.331350  1.0
  C  C624  1  0.626200  0.141400  0.331350  1.0
  C  C625  1  0.641400  0.126200  0.831350  1.0
  C  C626  1  0.126200  0.358600  0.831350  1.0
  C  C627  1  0.358600  0.873800  0.831350  1.0
  C  C628  1  0.873800  0.641400  0.831350  1.0
  C  C629  1  0.817300  0.617400  0.369840  1.0
  C  C630  1  0.382600  0.817300  0.369840  1.0
  C  C631  1  0.182700  0.382600  0.369840  1.0
  C  C632  1  0.617400  0.182700  0.369840  1.0
  C  C633  1  0.682700  0.117400  0.869840  1.0
  C  C634  1  0.117400  0.317300  0.869840  1.0
  C  C635  1  0.317300  0.882600  0.869840  1.0
  C  C636  1  0.882600  0.682700  0.869840  1.0
  C  C637  1  0.751800  0.642900  0.371060  1.0
  C  C638  1  0.357100  0.751800  0.371060  1.0
  C  C639  1  0.248200  0.357100  0.371060  1.0
  C  C640  1  0.642900  0.248200  0.371060  1.0
  C  C641  1  0.748200  0.142900  0.871060  1.0
  C  C642  1  0.142900  0.251800  0.871060  1.0
  C  C643  1  0.251800  0.857100  0.871060  1.0
  C  C644  1  0.857100  0.748200  0.871060  1.0
  C  C645  1  0.722500  0.678700  0.334010  1.0
  C  C646  1  0.321300  0.722500  0.334010  1.0
  C  C647  1  0.277500  0.321300  0.334010  1.0
  C  C648  1  0.678700  0.277500  0.334010  1.0
  C  C649  1  0.777500  0.178700  0.834010  1.0
  C  C650  1  0.178700  0.222500  0.834010  1.0
  C  C651  1  0.222500  0.821300  0.834010  1.0
  C  C652  1  0.821300  0.777500  0.834010  1.0
  C  C653  1  0.782200  0.736300  0.217520  1.0
  C  C654  1  0.263700  0.782200  0.217520  1.0
  C  C655  1  0.217800  0.263700  0.217520  1.0
  C  C656  1  0.736300  0.217800  0.217520  1.0
  C  C657  1  0.717800  0.236300  0.717520  1.0
  C  C658  1  0.236300  0.282200  0.717520  1.0
  C  C659  1  0.282200  0.763700  0.717520  1.0
  C  C660  1  0.763700  0.717800  0.717520  1.0
  C  C661  1  0.833900  0.786500  0.217240  1.0
  C  C662  1  0.213500  0.833900  0.217240  1.0
  C  C663  1  0.166100  0.213500  0.217240  1.0
  C  C664  1  0.786500  0.166100  0.217240  1.0
  C  C665  1  0.666100  0.286500  0.717240  1.0
  C  C666  1  0.286500  0.333900  0.717240  1.0
  C  C667  1  0.333900  0.713500  0.717240  1.0
  C  C668  1  0.713500  0.666100  0.717240  1.0
  C  C669  1  0.871700  0.799490  0.178760  1.0
  C  C670  1  0.200510  0.871700  0.178760  1.0
  C  C671  1  0.128300  0.200510  0.178760  1.0
  C  C672  1  0.799490  0.128300  0.178760  1.0
  C  C673  1  0.628300  0.299490  0.678760  1.0
  C  C674  1  0.299490  0.371700  0.678760  1.0
  C  C675  1  0.371700  0.700510  0.678760  1.0
  C  C676  1  0.700510  0.628300  0.678760  1.0
  C  C677  1  0.857400  0.762300  0.139780  1.0
  C  C678  1  0.237700  0.857400  0.139780  1.0
  C  C679  1  0.142600  0.237700  0.139780  1.0
  C  C680  1  0.762300  0.142600  0.139780  1.0
  C  C681  1  0.642600  0.262300  0.639780  1.0
  C  C682  1  0.262300  0.357400  0.639780  1.0
  C  C683  1  0.357400  0.737700  0.639780  1.0
  C  C684  1  0.737700  0.642600  0.639780  1.0
  C  C685  1  0.806400  0.711300  0.139500  1.0
  C  C686  1  0.288700  0.806400  0.139500  1.0
  C  C687  1  0.193600  0.288700  0.139500  1.0
  C  C688  1  0.711300  0.193600  0.139500  1.0
  C  C689  1  0.693600  0.211300  0.639500  1.0
  C  C690  1  0.211300  0.306400  0.639500  1.0
  C  C691  1  0.306400  0.788700  0.639500  1.0
  C  C692  1  0.788700  0.693600  0.639500  1.0
  C  C693  1  0.770600  0.699700  0.178640  1.0
  C  C694  1  0.300300  0.770600  0.178640  1.0
  C  C695  1  0.229400  0.300300  0.178640  1.0
  C  C696  1  0.699700  0.229400  0.178640  1.0
  C  C697  1  0.729400  0.199700  0.678640  1.0
  C  C698  1  0.199700  0.270600  0.678640  1.0
  C  C699  1  0.270600  0.800300  0.678640  1.0
  C  C700  1  0.800300  0.729400  0.678640  1.0
  C  C701  1  0.891300  0.877100  0.257860  1.0
  C  C702  1  0.122900  0.891300  0.257860  1.0
  C  C703  1  0.108700  0.122900  0.257860  1.0
  C  C704  1  0.877100  0.108700  0.257860  1.0
  C  C705  1  0.608700  0.377100  0.757860  1.0
  C  C706  1  0.377100  0.391300  0.757860  1.0
  C  C707  1  0.391300  0.622900  0.757860  1.0
  C  C708  1  0.622900  0.608700  0.757860  1.0
  C  C709  1  0.884300  0.914300  0.301750  1.0
  C  C710  1  0.085700  0.884300  0.301750  1.0
  C  C711  1  0.115700  0.085700  0.301750  1.0
  C  C712  1  0.914300  0.115700  0.301750  1.0
  C  C713  1  0.615700  0.414300  0.801750  1.0
  C  C714  1  0.414300  0.384300  0.801750  1.0
  C  C715  1  0.384300  0.585700  0.801750  1.0
  C  C716  1  0.585700  0.615700  0.801750  1.0
  C  C717  1  0.884400  0.817800  0.352190  1.0
  C  C718  1  0.182200  0.884400  0.352190  1.0
  C  C719  1  0.115600  0.182200  0.352190  1.0
  C  C720  1  0.817800  0.115600  0.352190  1.0
  C  C721  1  0.615600  0.317800  0.852190  1.0
  C  C722  1  0.317800  0.384400  0.852190  1.0
  C  C723  1  0.384400  0.682200  0.852190  1.0
  C  C724  1  0.682200  0.615600  0.852190  1.0
  C  C725  1  0.944900  0.823400  0.100090  1.0
  C  C726  1  0.176600  0.944900  0.100090  1.0
  C  C727  1  0.055100  0.176600  0.100090  1.0
  C  C728  1  0.823400  0.055100  0.100090  1.0
  C  C729  1  0.555100  0.323400  0.600090  1.0
  C  C730  1  0.323400  0.444900  0.600090  1.0
  C  C731  1  0.444900  0.676600  0.600090  1.0
  C  C732  1  0.676600  0.555100  0.600090  1.0
  C  C733  1  0.969900  0.827100  0.052820  1.0
  C  C734  1  0.172900  0.969900  0.052820  1.0
  C  C735  1  0.030100  0.172900  0.052820  1.0
  C  C736  1  0.827100  0.030100  0.052820  1.0
  C  C737  1  0.530100  0.327100  0.552820  1.0
  C  C738  1  0.327100  0.469900  0.552820  1.0
  C  C739  1  0.469900  0.672900  0.552820  1.0
  C  C740  1  0.672900  0.530100  0.552820  1.0
  C  C741  1  0.869700  0.826400  0.006700  1.0
  C  C742  1  0.173600  0.869700  0.006700  1.0
  C  C743  1  0.130300  0.173600  0.006700  1.0
  C  C744  1  0.826400  0.130300  0.006700  1.0
  C  C745  1  0.630300  0.326400  0.506700  1.0
  C  C746  1  0.326400  0.369700  0.506700  1.0
  C  C747  1  0.369700  0.673600  0.506700  1.0
  C  C748  1  0.673600  0.630300  0.506700  1.0
  C  C749  1  0.788770  0.670310  0.098060  1.0
  C  C750  1  0.329690  0.788770  0.098060  1.0
  C  C751  1  0.211230  0.329690  0.098060  1.0
  C  C752  1  0.670310  0.211230  0.098060  1.0
  C  C753  1  0.711230  0.170310  0.598060  1.0
  C  C754  1  0.170310  0.288770  0.598060  1.0
  C  C755  1  0.288770  0.829690  0.598060  1.0
  C  C756  1  0.829690  0.711230  0.598060  1.0
  C  C757  1  0.749370  0.701470  0.064280  1.0
  C  C758  1  0.298530  0.749370  0.064280  1.0
  C  C759  1  0.250630  0.298530  0.064280  1.0
  C  C760  1  0.701470  0.250630  0.064280  1.0
  C  C761  1  0.750630  0.201470  0.564280  1.0
  C  C762  1  0.201470  0.249370  0.564280  1.0
  C  C763  1  0.249370  0.798530  0.564280  1.0
  C  C764  1  0.798530  0.750630  0.564280  1.0
  C  C765  1  0.728100  0.771400  0.066380  1.0
  C  C766  1  0.228600  0.728100  0.066380  1.0
  C  C767  1  0.271900  0.228600  0.066380  1.0
  C  C768  1  0.771400  0.271900  0.066380  1.0
  C  C769  1  0.771900  0.271400  0.566380  1.0
  C  C770  1  0.271400  0.228100  0.566380  1.0
  C  C771  1  0.228100  0.728600  0.566380  1.0
  C  C772  1  0.728600  0.771900  0.566380  1.0
  C  C773  1  0.693400  0.801300  0.032180  1.0
  C  C774  1  0.198700  0.693400  0.032180  1.0
  C  C775  1  0.306600  0.198700  0.032180  1.0
  C  C776  1  0.801300  0.306600  0.032180  1.0
  C  C777  1  0.806600  0.301300  0.532180  1.0
  C  C778  1  0.301300  0.193400  0.532180  1.0
  C  C779  1  0.193400  0.698700  0.532180  1.0
  C  C780  1  0.698700  0.806600  0.532180  1.0
  C  C781  1  0.677000  0.763080  0.993400  1.0
  C  C782  1  0.236920  0.677000  0.993400  1.0
  C  C783  1  0.323000  0.236920  0.993400  1.0
  C  C784  1  0.763080  0.323000  0.993400  1.0
  C  C785  1  0.823000  0.263080  0.493400  1.0
  C  C786  1  0.263080  0.177000  0.493400  1.0
  C  C787  1  0.177000  0.736920  0.493400  1.0
  C  C788  1  0.736920  0.823000  0.493400  1.0
  C  C789  1  0.693900  0.695400  0.990350  1.0
  C  C790  1  0.304600  0.693900  0.990350  1.0
  C  C791  1  0.306100  0.304600  0.990350  1.0
  C  C792  1  0.695400  0.306100  0.990350  1.0
  C  C793  1  0.806100  0.195400  0.490350  1.0
  C  C794  1  0.195400  0.193900  0.490350  1.0
  C  C795  1  0.193900  0.804600  0.490350  1.0
  C  C796  1  0.804600  0.806100  0.490350  1.0
  C  C797  1  0.729700  0.661080  0.025370  1.0
  C  C798  1  0.338920  0.729700  0.025370  1.0
  C  C799  1  0.270300  0.338920  0.025370  1.0
  C  C800  1  0.661080  0.270300  0.025370  1.0
  C  C801  1  0.770300  0.161080  0.525370  1.0
  C  C802  1  0.161080  0.229700  0.525370  1.0
  C  C803  1  0.229700  0.838920  0.525370  1.0
  C  C804  1  0.838920  0.770300  0.525370  1.0
  C  C805  1  0.746040  0.590720  0.023450  1.0
  C  C806  1  0.409280  0.746040  0.023450  1.0
  C  C807  1  0.253960  0.409280  0.023450  1.0
  C  C808  1  0.590720  0.253960  0.023450  1.0
  C  C809  1  0.753960  0.090720  0.523450  1.0
  C  C810  1  0.090720  0.246040  0.523450  1.0
  C  C811  1  0.246040  0.909280  0.523450  1.0
  C  C812  1  0.909280  0.753960  0.523450  1.0
  C  C813  1  0.787230  0.560690  0.057080  1.0
  C  C814  1  0.439310  0.787230  0.057080  1.0
  C  C815  1  0.212770  0.439310  0.057080  1.0
  C  C816  1  0.560690  0.212770  0.057080  1.0
  C  C817  1  0.712770  0.060690  0.557080  1.0
  C  C818  1  0.060690  0.287230  0.557080  1.0
  C  C819  1  0.287230  0.939310  0.557080  1.0
  C  C820  1  0.939310  0.712770  0.557080  1.0
  C  C821  1  0.807700  0.490210  0.056370  1.0
  C  C822  1  0.509790  0.807700  0.056370  1.0
  C  C823  1  0.192300  0.509790  0.056370  1.0
  C  C824  1  0.490210  0.192300  0.056370  1.0
  C  C825  1  0.692300  0.990210  0.556370  1.0
  C  C826  1  0.990210  0.307700  0.556370  1.0
  C  C827  1  0.307700  0.009790  0.556370  1.0
  C  C828  1  0.009790  0.692300  0.556370  1.0
  C  C829  1  0.849600  0.462400  0.087320  1.0
  C  C830  1  0.537600  0.849600  0.087320  1.0
  C  C831  1  0.150400  0.537600  0.087320  1.0
  C  C832  1  0.462400  0.150400  0.087320  1.0
  C  C833  1  0.650400  0.962400  0.587320  1.0
  C  C834  1  0.962400  0.349600  0.587320  1.0
  C  C835  1  0.349600  0.037600  0.587320  1.0
  C  C836  1  0.037600  0.650400  0.587320  1.0
  C  C837  1  0.876000  0.504000  0.122550  1.0
  C  C838  1  0.496000  0.876000  0.122550  1.0
  C  C839  1  0.124000  0.496000  0.122550  1.0
  C  C840  1  0.504000  0.124000  0.122550  1.0
  C  C841  1  0.624000  0.004000  0.622550  1.0
  C  C842  1  0.004000  0.376000  0.622550  1.0
  C  C843  1  0.376000  0.996000  0.622550  1.0
  C  C844  1  0.996000  0.624000  0.622550  1.0
  C  C845  1  0.854600  0.570700  0.126830  1.0
  C  C846  1  0.429300  0.854600  0.126830  1.0
  C  C847  1  0.145400  0.429300  0.126830  1.0
  C  C848  1  0.570700  0.145400  0.126830  1.0
  C  C849  1  0.645400  0.070700  0.626830  1.0
  C  C850  1  0.070700  0.354600  0.626830  1.0
  C  C851  1  0.354600  0.929300  0.626830  1.0
  C  C852  1  0.929300  0.645400  0.626830  1.0
  C  C853  1  0.809570  0.602500  0.094390  1.0
  C  C854  1  0.397500  0.809570  0.094390  1.0
  C  C855  1  0.190430  0.397500  0.094390  1.0
  C  C856  1  0.602500  0.190430  0.094390  1.0
  C  C857  1  0.690430  0.102500  0.594390  1.0
  C  C858  1  0.102500  0.309570  0.594390  1.0
  C  C859  1  0.309570  0.897500  0.594390  1.0
  C  C860  1  0.897500  0.690430  0.594390  1.0
  C  C861  1  0.645220  0.469460  0.926720  1.0
  C  C862  1  0.530540  0.645220  0.926720  1.0
  C  C863  1  0.354780  0.530540  0.926720  1.0
  C  C864  1  0.469460  0.354780  0.926720  1.0
  C  C865  1  0.854780  0.969460  0.426720  1.0
  C  C866  1  0.969460  0.145220  0.426720  1.0
  C  C867  1  0.145220  0.030540  0.426720  1.0
  C  C868  1  0.030540  0.854780  0.426720  1.0
  C  C869  1  0.715860  0.473020  0.923840  1.0
  C  C870  1  0.526980  0.715860  0.923840  1.0
  C  C871  1  0.284140  0.526980  0.923840  1.0
  C  C872  1  0.473020  0.284140  0.923840  1.0
  C  C873  1  0.784140  0.973020  0.423840  1.0
  C  C874  1  0.973020  0.215860  0.423840  1.0
  C  C875  1  0.215860  0.026980  0.423840  1.0
  C  C876  1  0.026980  0.784140  0.423840  1.0
  C  C877  1  0.752820  0.512600  0.954910  1.0
  C  C878  1  0.487400  0.752820  0.954910  1.0
  C  C879  1  0.247180  0.487400  0.954910  1.0
  C  C880  1  0.512600  0.247180  0.954910  1.0
  C  C881  1  0.747180  0.012600  0.454910  1.0
  C  C882  1  0.012600  0.252820  0.454910  1.0
  C  C883  1  0.252820  0.987400  0.454910  1.0
  C  C884  1  0.987400  0.747180  0.454910  1.0
  C  C885  1  0.714970  0.547160  0.987770  1.0
  C  C886  1  0.452840  0.714970  0.987770  1.0
  C  C887  1  0.285030  0.452840  0.987770  1.0
  C  C888  1  0.547160  0.285030  0.987770  1.0
  C  C889  1  0.785030  0.047160  0.487770  1.0
  C  C890  1  0.047160  0.214970  0.487770  1.0
  C  C891  1  0.214970  0.952840  0.487770  1.0
  C  C892  1  0.952840  0.785030  0.487770  1.0
  C  C893  1  0.643590  0.540870  0.987690  1.0
  C  C894  1  0.459130  0.643590  0.987690  1.0
  C  C895  1  0.356410  0.459130  0.987690  1.0
  C  C896  1  0.540870  0.356410  0.987690  1.0
  C  C897  1  0.856410  0.040870  0.487690  1.0
  C  C898  1  0.040870  0.143590  0.487690  1.0
  C  C899  1  0.143590  0.959130  0.487690  1.0
  C  C900  1  0.959130  0.856410  0.487690  1.0
  C  C901  1  0.814780  0.447900  0.877100  1.0
  C  C902  1  0.552100  0.814780  0.877100  1.0
  C  C903  1  0.185220  0.552100  0.877100  1.0
  C  C904  1  0.447900  0.185220  0.877100  1.0
  C  C905  1  0.685220  0.947900  0.377100  1.0
  C  C906  1  0.947900  0.314780  0.377100  1.0
  C  C907  1  0.314780  0.052100  0.377100  1.0
  C  C908  1  0.052100  0.685220  0.377100  1.0
  C  C909  1  0.822400  0.425700  0.829140  1.0
  C  C910  1  0.574300  0.822400  0.829140  1.0
  C  C911  1  0.177600  0.574300  0.829140  1.0
  C  C912  1  0.425700  0.177600  0.829140  1.0
  C  C913  1  0.677600  0.925700  0.329140  1.0
  C  C914  1  0.925700  0.322400  0.329140  1.0
  C  C915  1  0.322400  0.074300  0.329140  1.0
  C  C916  1  0.074300  0.677600  0.329140  1.0
  C  C917  1  0.792800  0.458900  0.755650  1.0
  C  C918  1  0.541100  0.792800  0.755650  1.0
  C  C919  1  0.207200  0.541100  0.755650  1.0
  C  C920  1  0.458900  0.207200  0.755650  1.0
  C  C921  1  0.707200  0.958900  0.255650  1.0
  C  C922  1  0.958900  0.292800  0.255650  1.0
  C  C923  1  0.292800  0.041100  0.255650  1.0
  C  C924  1  0.041100  0.707200  0.255650  1.0
  N  N925  1  0.500000  0.500000  0.477790  1
  N  N926  1  0.000000  0.000000  0.977790  1
  N  N927  1  0.538570  0.600970  0.407950  1.0
  N  N928  1  0.399030  0.538570  0.407950  1.0
  N  N929  1  0.461430  0.399030  0.407950  1.0
  N  N930  1  0.600970  0.461430  0.407950  1.0
  N  N931  1  0.961430  0.100970  0.907950  1.0
  N  N932  1  0.100970  0.038570  0.907950  1.0
  N  N933  1  0.038570  0.899030  0.907950  1.0
  N  N934  1  0.899030  0.961430  0.907950  1.0
  N  N935  1  0.608900  0.502610  0.958150  1.0
  N  N936  1  0.497390  0.608900  0.958150  1.0
  N  N937  1  0.391100  0.497390  0.958150  1.0
  N  N938  1  0.502610  0.391100  0.958150  1.0
  N  N939  1  0.891100  0.002610  0.458150  1.0
  N  N940  1  0.002610  0.108900  0.458150  1.0
  N  N941  1  0.108900  0.997390  0.458150  1.0
  N  N942  1  0.997390  0.891100  0.458150  1.0
  Cl  Cl943  1  0.500000  0.000000  0.404260  1
  Cl  Cl944  1  0.000000  0.500000  0.404260  1
  Cl  Cl945  1  0.000000  0.500000  0.904260  1
  Cl  Cl946  1  0.500000  0.000000  0.904260  1
  Cl  Cl947  1  0.388700  0.558200  0.120700  1
  Cl  Cl948  1  0.441800  0.388700  0.120700  1
  Cl  Cl949  1  0.611300  0.441800  0.120700  1
  Cl  Cl950  1  0.558200  0.611300  0.120700  1
  Cl  Cl951  1  0.111300  0.058200  0.620700  1
  Cl  Cl952  1  0.058200  0.888700  0.620700  1
  Cl  Cl953  1  0.888700  0.941800  0.620700  1
  Cl  Cl954  1  0.941800  0.111300  0.620700  1
  Cl  Cl955  1  0.500000  0.500000  0.684350  1
  Cl  Cl956  1  0.000000  0.000000  0.184350  1
  Cl  Cl957  1  0.339700  0.449900  0.240400  1
  Cl  Cl958  1  0.550100  0.339700  0.240400  1
  Cl  Cl959  1  0.660300  0.550100  0.240400  1
  Cl  Cl960  1  0.449900  0.660300  0.240400  1
  Cl  Cl961  1  0.160300  0.949900  0.740400  1
  Cl  Cl962  1  0.949900  0.839700  0.740400  1
  Cl  Cl963  1  0.839700  0.050100  0.740400  1
  Cl  Cl964  1  0.050100  0.160300  0.740400  1
  O  O965  1  0.500000  0.500000  0.337250  1
  O  O966  1  0.000000  0.000000  0.837250  1
  O  O967  1  0.500000  0.500000  0.033970  1
  O  O968  1  0.000000  0.000000  0.533970  1
  O  O969  1  0.500000  0.500000  0.886680  1
  O  O970  1  0.000000  0.000000  0.386680  1
  O  O971  1  0.439500  0.536000  0.152600  1
  O  O972  1  0.464000  0.439500  0.152600  1
  O  O973  1  0.560500  0.464000  0.152600  1
  O  O974  1  0.536000  0.560500  0.152600  1
  O  O975  1  0.060500  0.036000  0.652600  1
  O  O976  1  0.036000  0.939500  0.652600  1
  O  O977  1  0.939500  0.964000  0.652600  1
  O  O978  1  0.964000  0.060500  0.652600  1
  O  O979  1  0.322200  0.561000  0.141800  1
  O  O980  1  0.439000  0.322200  0.141800  1
  O  O981  1  0.677800  0.439000  0.141800  1
  O  O982  1  0.561000  0.677800  0.141800  1
  O  O983  1  0.177800  0.061000  0.641800  1
  O  O984  1  0.061000  0.822200  0.641800  1
  O  O985  1  0.822200  0.939000  0.641800  1
  O  O986  1  0.939000  0.177800  0.641800  1
  O  O987  1  0.386200  0.510100  0.084200  1
  O  O988  1  0.489900  0.386200  0.084200  1
  O  O989  1  0.613800  0.489900  0.084200  1
  O  O990  1  0.510100  0.613800  0.084200  1
  O  O991  1  0.113800  0.010100  0.584200  1
  O  O992  1  0.010100  0.886200  0.584200  1
  O  O993  1  0.886200  0.989900  0.584200  1
  O  O994  1  0.989900  0.113800  0.584200  1
  O  O995  1  0.407000  0.625400  0.104000  1
  O  O996  1  0.374600  0.407000  0.104000  1
  O  O997  1  0.593000  0.374600  0.104000  1
  O  O998  1  0.625400  0.593000  0.104000  1
  O  O999  1  0.093000  0.125400  0.604000  1
  O  O1000  1  0.125400  0.907000  0.604000  1
  O  O1001  1  0.907000  0.874600  0.604000  1
  O  O1002  1  0.874600  0.093000  0.604000  1
  O  O1003  1  0.500000  0.000000  0.281100  1
  O  O1004  1  0.000000  0.500000  0.281100  1
  O  O1005  1  0.000000  0.500000  0.781100  1
  O  O1006  1  0.500000  0.000000  0.781100  1
  O  O1007  1  0.391500  0.491600  0.282300  1
  O  O1008  1  0.508400  0.391500  0.282300  1
  O  O1009  1  0.608500  0.508400  0.282300  1
  O  O1010  1  0.491600  0.608500  0.282300  1
  O  O1011  1  0.108500  0.991600  0.782300  1
  O  O1012  1  0.991600  0.891500  0.782300  1
  O  O1013  1  0.891500  0.008400  0.782300  1
  O  O1014  1  0.008400  0.108500  0.782300  1
  O  O1015  1  0.500000  0.500000  0.730650  1
  O  O1016  1  0.000000  0.000000  0.230650  1
  O  O1017  1  0.508500  0.571560  0.672900  1
  O  O1018  1  0.428440  0.508500  0.672900  1
  O  O1019  1  0.491500  0.428440  0.672900  1
  O  O1020  1  0.571560  0.491500  0.672900  1
  O  O1021  1  0.991500  0.071560  0.172900  1
  O  O1022  1  0.071560  0.008500  0.172900  1
  O  O1023  1  0.008500  0.928440  0.172900  1
  O  O1024  1  0.928440  0.991500  0.172900  1
  O  O1025  1  0.438700  0.473800  0.663300  1
  O  O1026  1  0.526200  0.438700  0.663300  1
  O  O1027  1  0.561300  0.526200  0.663300  1
  O  O1028  1  0.473800  0.561300  0.663300  1
  O  O1029  1  0.061300  0.973800  0.163300  1
  O  O1030  1  0.973800  0.938700  0.163300  1
  O  O1031  1  0.938700  0.026200  0.163300  1
  O  O1032  1  0.026200  0.061300  0.163300  1
  O  O1033  1  0.558900  0.461600  0.669100  1
  O  O1034  1  0.538400  0.558900  0.669100  1
  O  O1035  1  0.441100  0.538400  0.669100  1
  O  O1036  1  0.461600  0.441100  0.669100  1
  O  O1037  1  0.941100  0.961600  0.169100  1
  O  O1038  1  0.961600  0.058900  0.169100  1
  O  O1039  1  0.058900  0.038400  0.169100  1
  O  O1040  1  0.038400  0.941100  0.169100  1
  O  O1041  1  0.336000  0.458000  0.288100  1
  O  O1042  1  0.542000  0.336000  0.288100  1
  O  O1043  1  0.664000  0.542000  0.288100  1
  O  O1044  1  0.458000  0.664000  0.288100  1
  O  O1045  1  0.164000  0.958000  0.788100  1
  O  O1046  1  0.958000  0.836000  0.788100  1
  O  O1047  1  0.836000  0.042000  0.788100  1
  O  O1048  1  0.042000  0.164000  0.788100  1
  O  O1049  1  0.401400  0.412800  0.228600  1
  O  O1050  1  0.587200  0.401400  0.228600  1
  O  O1051  1  0.598600  0.587200  0.228600  1
  O  O1052  1  0.412800  0.598600  0.228600  1
  O  O1053  1  0.098600  0.912800  0.728600  1
  O  O1054  1  0.912800  0.901400  0.728600  1
  O  O1055  1  0.901400  0.087200  0.728600  1
  O  O1056  1  0.087200  0.098600  0.728600  1
  O  O1057  1  0.341000  0.516800  0.219700  1
  O  O1058  1  0.483200  0.341000  0.219700  1
  O  O1059  1  0.659000  0.483200  0.219700  1
  O  O1060  1  0.516800  0.659000  0.219700  1
  O  O1061  1  0.159000  0.016800  0.719700  1
  O  O1062  1  0.016800  0.841000  0.719700  1
  O  O1063  1  0.841000  0.983200  0.719700  1
  O  O1064  1  0.983200  0.159000  0.719700  1
  O  O1065  1  0.280400  0.412200  0.225000  1
  O  O1066  1  0.587800  0.280400  0.225000  1
  O  O1067  1  0.719600  0.587800  0.225000  1
  O  O1068  1  0.412200  0.719600  0.225000  1
  O  O1069  1  0.219600  0.912200  0.725000  1
  O  O1070  1  0.912200  0.780400  0.725000  1
  O  O1071  1  0.780400  0.087800  0.725000  1
  O  O1072  1  0.087800  0.219600  0.725000  1
  O  O1073  1  0.353300  0.577800  0.108500  1
  O  O1074  1  0.422200  0.353300  0.108500  1
  O  O1075  1  0.646700  0.422200  0.108500  1
  O  O1076  1  0.577800  0.646700  0.108500  1
  O  O1077  1  0.146700  0.077800  0.608500  1
  O  O1078  1  0.077800  0.853300  0.608500  1
  O  O1079  1  0.853300  0.922200  0.608500  1
  O  O1080  1  0.922200  0.146700  0.608500  1
  O  O1081  1  0.546500  0.014800  0.199700  1
  O  O1082  1  0.985200  0.546500  0.199700  1
  O  O1083  1  0.453500  0.985200  0.199700  1
  O  O1084  1  0.014800  0.453500  0.199700  1
  O  O1085  1  0.953500  0.514800  0.699700  1
  O  O1086  1  0.514800  0.046500  0.699700  1
  O  O1087  1  0.046500  0.485200  0.699700  1
  O  O1088  1  0.485200  0.953500  0.699700  1
  O  O1089  1  0.613700  0.387100  0.140600  1
  O  O1090  1  0.612900  0.613700  0.140600  1
  O  O1091  1  0.386300  0.612900  0.140600  1
  O  O1092  1  0.387100  0.386300  0.140600  1
  O  O1093  1  0.886300  0.887100  0.640600  1
  O  O1094  1  0.887100  0.113700  0.640600  1
  O  O1095  1  0.113700  0.112900  0.640600  1
  O  O1096  1  0.112900  0.886300  0.640600  1
  O  O1097  1  0.527000  0.650000  0.114000  1
  O  O1098  1  0.350000  0.527000  0.114000  1
  O  O1099  1  0.473000  0.350000  0.114000  1
  O  O1100  1  0.650000  0.473000  0.114000  1
  O  O1101  1  0.973000  0.150000  0.614000  1
  O  O1102  1  0.150000  0.027000  0.614000  1
  O  O1103  1  0.027000  0.850000  0.614000  1
  O  O1104  1  0.850000  0.973000  0.614000  1
  O  O1105  1  0.604500  0.535100  0.238200  1
  O  O1106  1  0.464900  0.604500  0.238200  1
  O  O1107  1  0.395500  0.464900  0.238200  1
  O  O1108  1  0.535100  0.395500  0.238200  1
  O  O1109  1  0.895500  0.035100  0.738200  1
  O  O1110  1  0.035100  0.104500  0.738200  1
  O  O1111  1  0.104500  0.964900  0.738200  1
  O  O1112  1  0.964900  0.895500  0.738200  1
  O  O1113  1  0.391600  0.604300  0.235600  1
  O  O1114  1  0.395700  0.391600  0.235600  1
  O  O1115  1  0.608400  0.395700  0.235600  1
  O  O1116  1  0.604300  0.608400  0.235600  1
  O  O1117  1  0.108400  0.104300  0.735600  1
  O  O1118  1  0.104300  0.891600  0.735600  1
  O  O1119  1  0.891600  0.895700  0.735600  1
  O  O1120  1  0.895700  0.108400  0.735600  1
  O  O1121  1  0.482650  0.058380  0.376100  1.0
  O  O1122  1  0.941620  0.482650  0.376100  1.0
  O  O1123  1  0.517350  0.941620  0.376100  1.0
  O  O1124  1  0.058380  0.517350  0.376100  1.0
  O  O1125  1  0.017350  0.558380  0.876100  1.0
  O  O1126  1  0.558380  0.982650  0.876100  1.0
  O  O1127  1  0.982650  0.441620  0.876100  1.0
  O  O1128  1  0.441620  0.017350  0.876100  1.0
  O  O1129  1  0.441960  0.982900  0.431280  1.0
  O  O1130  1  0.017100  0.441960  0.431280  1.0
  O  O1131  1  0.558040  0.017100  0.431280  1.0
  O  O1132  1  0.982900  0.558040  0.431280  1.0
  O  O1133  1  0.058040  0.482900  0.931280  1.0
  O  O1134  1  0.482900  0.941960  0.931280  1.0
  O  O1135  1  0.941960  0.517100  0.931280  1.0
  O  O1136  1  0.517100  0.058040  0.931280  1.0
  O  O1137  1  0.508750  0.760690  0.464540  1.0
  O  O1138  1  0.239310  0.508750  0.464540  1.0
  O  O1139  1  0.491250  0.239310  0.464540  1.0
  O  O1140  1  0.760690  0.491250  0.464540  1.0
  O  O1141  1  0.991250  0.260690  0.964540  1.0
  O  O1142  1  0.260690  0.008750  0.964540  1.0
  O  O1143  1  0.008750  0.739310  0.964540  1.0
  O  O1144  1  0.739310  0.991250  0.964540  1.0
  O  O1145  1  0.528580  0.840550  0.543050  1.0
  O  O1146  1  0.159450  0.528580  0.543050  1.0
  O  O1147  1  0.471420  0.159450  0.543050  1.0
  O  O1148  1  0.840550  0.471420  0.543050  1.0
  O  O1149  1  0.971420  0.340550  0.043050  1.0
  O  O1150  1  0.340550  0.028580  0.043050  1.0
  O  O1151  1  0.028580  0.659450  0.043050  1.0
  O  O1152  1  0.659450  0.971420  0.043050  1.0
  O  O1153  1  0.841870  0.821970  0.256310  1.0
  O  O1154  1  0.178030  0.841870  0.256310  1.0
  O  O1155  1  0.158130  0.178030  0.256310  1.0
  O  O1156  1  0.821970  0.158130  0.256310  1.0
  O  O1157  1  0.658130  0.321970  0.756310  1.0
  O  O1158  1  0.321970  0.341870  0.756310  1.0
  O  O1159  1  0.341870  0.678030  0.756310  1.0
  O  O1160  1  0.678030  0.658130  0.756310  1.0
  O  O1161  1  0.917800  0.881380  0.338810  1.0
  O  O1162  1  0.118620  0.917800  0.338810  1.0
  O  O1163  1  0.082200  0.118620  0.338810  1.0
  O  O1164  1  0.881380  0.082200  0.338810  1.0
  O  O1165  1  0.582200  0.381380  0.838810  1.0
  O  O1166  1  0.381380  0.417800  0.838810  1.0
  O  O1167  1  0.417800  0.618620  0.838810  1.0
  O  O1168  1  0.618620  0.582200  0.838810  1.0
  O  O1169  1  0.890960  0.772360  0.100900  1.0
  O  O1170  1  0.227640  0.890960  0.100900  1.0
  O  O1171  1  0.109040  0.227640  0.100900  1.0
  O  O1172  1  0.772360  0.109040  0.100900  1.0
  O  O1173  1  0.609040  0.272360  0.600900  1.0
  O  O1174  1  0.272360  0.390960  0.600900  1.0
  O  O1175  1  0.390960  0.727640  0.600900  1.0
  O  O1176  1  0.727640  0.609040  0.600900  1.0
  O  O1177  1  0.924100  0.867000  0.025620  1.0
  O  O1178  1  0.133000  0.924100  0.025620  1.0
  O  O1179  1  0.075900  0.133000  0.025620  1.0
  O  O1180  1  0.867000  0.075900  0.025620  1.0
  O  O1181  1  0.575900  0.367000  0.525620  1.0
  O  O1182  1  0.367000  0.424100  0.525620  1.0
  O  O1183  1  0.424100  0.633000  0.525620  1.0
  O  O1184  1  0.633000  0.575900  0.525620  1.0
  O  O1185  1  0.743450  0.437400  0.889180  1.0
  O  O1186  1  0.562600  0.743450  0.889180  1.0
  O  O1187  1  0.256550  0.562600  0.889180  1.0
  O  O1188  1  0.437400  0.256550  0.889180  1.0
  O  O1189  1  0.756550  0.937400  0.389180  1.0
  O  O1190  1  0.937400  0.243450  0.389180  1.0
  O  O1191  1  0.243450  0.062600  0.389180  1.0
  O  O1192  1  0.062600  0.756550  0.389180  1.0
  O  O1193  1  0.792990  0.476860  0.801730  1.0
  O  O1194  1  0.523140  0.792990  0.801730  1.0
  O  O1195  1  0.207010  0.523140  0.801730  1.0
  O  O1196  1  0.476860  0.207010  0.801730  1.0
  O  O1197  1  0.707010  0.976860  0.301730  1.0
  O  O1198  1  0.976860  0.292990  0.301730  1.0
  O  O1199  1  0.292990  0.023140  0.301730  1.0
  O  O1200  1  0.023140  0.707010  0.301730  1.0
