
#######################################################################
#
#                 Cambridge Crystallographic Data Centre
#                                CCDC 
#
#######################################################################
#
# If this CIF has been generated from an entry in the Cambridge 
# Structural Database, then it will include bibliographic, chemical, 
# crystal, experimental, refinement or atomic coordinate data resulting 
# from the CCDC's data processing and validation procedures.
#
#######################################################################

data_IXEBES
_chemical_formula_moiety         'C88 H80 Cu4 N8 O16'
_chemical_name_systematic        
Cyclo-tetrakis((\m~2~-4,4'-bipyridine)-(acetato-O)-benzoylacetone-copper(ii))
_symmetry_cell_setting           tetragonal
_symmetry_space_group_name_H-M   'I -4'
_symmetry_Int_Tables_number      82
_space_group_name_Hall           'I -4'
loop_
_symmetry_equiv_pos_site_id
_symmetry_equiv_pos_as_xyz
1 x,y,z
2 -x,-y,z
3 y,-x,-z
4 -y,x,-z
5 1/2+x,1/2+y,1/2+z
6 1/2-x,1/2-y,1/2+z
7 1/2+y,1/2-x,1/2-z
8 1/2-y,1/2+x,1/2-z
_cell_length_a                   22.466(2)
_cell_length_b                   22.466(2)
_cell_length_c                   7.4721(11)
_cell_angle_alpha                90
_cell_angle_beta                 90
_cell_angle_gamma                90
_cell_volume                     3771.33
_exptl_crystal_colour            green
_exptl_crystal_description       needle
_cell_formula_units_Z            2
loop_
_atom_site_label
_atom_site_type_symbol
_atom_site_fract_x
_atom_site_fract_y
_atom_site_fract_z
Cu1 Cu 0.62836(2) 0.32711(2) 0.76729(7)
O1 O 0.59293(11) 0.40486(11) 0.7738(6)
O2 O 0.63633(16) 0.33174(17) 1.0924(4)
O3 O 0.61330(14) 0.31867(17) 1.3657(5)
O4 O 0.70735(11) 0.36024(11) 0.7325(5)
N1 N 0.54412(14) 0.29207(13) 0.7756(6)
N2 N 0.66694(13) 0.24682(13) 0.7356(7)
C1 C 0.62066(18) 0.45419(18) 0.7777(7)
C2 C 0.68114(17) 0.46112(17) 0.7588(8)
H1 H 0.6963 0.4995 0.7677
C3 C 0.72157(16) 0.41547(17) 0.7277(6)
C4 C 0.78444(18) 0.42857(19) 0.6769(6)
C5 C 0.82508(19) 0.3833(2) 0.6648(7)
H2 H 0.8130 0.3446 0.6900
C6 C 0.8832(2) 0.3935(2) 0.6165(8)
H3 H 0.9101 0.3621 0.6133
C7 C 0.9018(2) 0.4503(3) 0.5728(9)
H4 H 0.9408 0.4574 0.5374
C8 C 0.8608(2) 0.4965(2) 0.5827(9)
H5 H 0.8724 0.5350 0.5525
C9 C 0.8043(2) 0.4861(2) 0.6358(7)
H6 H 0.7779 0.5179 0.6453
C10 C 0.62311(16) 0.29813(17) 1.2169(6)
C11 C 0.61909(18) 0.24467(15) 1.1936(6)
H7 H 0.5935 0.2278 1.2832
H8 H 0.6579 0.2269 1.2021
H9 H 0.6028 0.2371 1.0771
C12 C 0.49732(17) 0.32217(18) 0.7092(7)
H10 H 0.5041 0.3593 0.6580
C13 C 0.44073(17) 0.30124(17) 0.7130(6)
H11 H 0.4102 0.3242 0.6650
C14 C 0.42750(17) 0.24572(17) 0.7882(6)
C15 C 0.47572(18) 0.2154(2) 0.8584(7)
H12 H 0.4699 0.1783 0.9108
C16 C 0.53186(19) 0.23902(19) 0.8522(7)
H13 H 0.5630 0.2176 0.9030
C17 C 0.36636(16) 0.22010(17) 0.7829(6)
C18 C 0.32303(18) 0.24082(17) 0.6674(6)
H14 H 0.3310 0.2732 0.5938
C19 C 0.71367(18) 0.23204(18) 0.8393(7)
H15 H 0.7283 0.2602 0.9191
C20 C 0.6482(2) 0.20510(19) 0.6190(6)
H16 H 0.6170 0.2148 0.5424
C21 C 0.3504(2) 0.1721(2) 0.8933(7)
H17 H 0.3777 0.1567 0.9745
C22 C 0.5825(2) 0.5087(2) 0.7954(11)
H18 H 0.5425 0.4995 0.7594
H19 H 0.5980 0.5398 0.7205
H20 H 0.5825 0.5218 0.9178
C19G C 0.26796(18) 0.21367(18) 0.6607(7)
N2G N 0.25318(13) 0.16694(13) 0.7644(7)
Cu1G Cu 0.17289(2) 0.12836(2) 0.73271(7)
O1G O 0.09514(11) 0.09293(11) 0.7262(6)
C1G C 0.04581(18) 0.12066(18) 0.7223(7)
C2G C 0.03888(17) 0.18114(17) 0.7412(8)
H1G H 0.0005 0.1963 0.7323
C3G C 0.08453(17) 0.22157(16) 0.7723(6)
O4G O 0.13976(11) 0.20735(11) 0.7675(5)
O2G O 0.16826(17) 0.13633(16) 0.4076(4)
C10G C 0.20187(17) 0.12311(16) 0.2831(6)
O3G O 0.18133(17) 0.11330(14) 0.1343(5)
C11G C 0.25533(15) 0.11909(18) 0.3064(6)
H7G H 0.2722 0.0935 0.2168
H8G H 0.2731 0.1579 0.2979
H9G H 0.2629 0.1028 0.4229
N1G N 0.20793(13) 0.04412(14) 0.7244(6)
C12G C 0.17783(18) -0.00268(17) 0.7908(7)
H10G H 0.1407 0.0041 0.8420
C13G C 0.19876(17) -0.05927(17) 0.7870(6)
H11G H 0.1758 -0.0898 0.8350
C14G C 0.25428(17) -0.07250(17) 0.7118(6)
C15G C 0.2846(2) -0.02428(18) 0.6416(7)
H12G H 0.3217 -0.0301 0.5892
C16G C 0.26098(19) 0.03186(19) 0.6478(7)
H13G H 0.2824 0.0630 0.5970
C17G C 0.27990(17) -0.13364(16) 0.7171(6)
C18G C 0.25918(17) -0.17697(18) 0.8326(6)
H14G H 0.2268 -0.1690 0.9062
C19A C 0.28633(18) -0.23204(18) 0.8393(7)
N2A N 0.33306(13) -0.24682(13) 0.7356(7)
Cu1A Cu 0.37164(2) -0.32711(2) 0.76729(7)
O1A O 0.40707(11) -0.40486(11) 0.7738(6)
C1A C 0.37934(18) -0.45419(18) 0.7777(7)
C2A C 0.31886(17) -0.46112(17) 0.7588(8)
H1A H 0.3037 -0.4995 0.7677
C3A C 0.27843(16) -0.41547(17) 0.7277(6)
O4A O 0.29265(11) -0.36024(11) 0.7325(5)
O2A O 0.36367(16) -0.33174(17) 1.0924(4)
C10A C 0.37689(16) -0.29813(17) 1.2169(6)
O3A O 0.38670(14) -0.31867(17) 1.3657(5)
C11A C 0.38091(18) -0.24467(15) 1.1936(6)
H7A H 0.4065 -0.2278 1.2832
H8A H 0.3421 -0.2269 1.2021
H9A H 0.3972 -0.2371 1.0771
N1A N 0.45588(14) -0.29207(13) 0.7756(6)
C12A C 0.50268(17) -0.32217(18) 0.7092(7)
H10A H 0.4959 -0.3593 0.6580
C13A C 0.55927(17) -0.30124(17) 0.7130(6)
H11A H 0.5898 -0.3242 0.6650
C14A C 0.57250(17) -0.24572(17) 0.7882(6)
C15A C 0.52428(18) -0.2154(2) 0.8584(7)
H12A H 0.5301 -0.1783 0.9108
C16A C 0.46814(19) -0.23902(19) 0.8522(7)
H13A H 0.4370 -0.2176 0.9030
C17A C 0.63364(16) -0.22010(17) 0.7829(6)
C18A C 0.67697(18) -0.24082(17) 0.6674(6)
H14A H 0.6690 -0.2732 0.5938
C19F C 0.73204(18) -0.21367(18) 0.6607(7)
N2F N 0.74682(13) -0.16694(13) 0.7644(7)
Cu1F Cu 0.82711(2) -0.12836(2) 0.73271(7)
O1F O 0.90486(11) -0.09293(11) 0.7262(6)
C1F C 0.95419(18) -0.12066(18) 0.7223(7)
C2F C 0.96112(17) -0.18114(17) 0.7412(8)
H1F H 0.9995 -0.1963 0.7323
C3F C 0.91547(17) -0.22157(16) 0.7723(6)
O4F O 0.86024(11) -0.20735(11) 0.7675(5)
O2F O 0.83174(17) -0.13633(16) 0.4076(4)
C10F C 0.79813(17) -0.12311(16) 0.2831(6)
O3F O 0.81867(17) -0.11330(14) 0.1343(5)
C11F C 0.74467(15) -0.11909(18) 0.3064(6)
H7F H 0.7278 -0.0935 0.2168
H8F H 0.7269 -0.1579 0.2979
H9F H 0.7371 -0.1028 0.4229
N1F N 0.79207(13) -0.04412(14) 0.7244(6)
C12F C 0.82217(18) 0.00268(17) 0.7908(7)
H10F H 0.8593 -0.0041 0.8420
C13F C 0.80124(17) 0.05927(17) 0.7870(6)
H11F H 0.8242 0.0898 0.8350
C14F C 0.74572(17) 0.07250(17) 0.7118(6)
C15F C 0.7154(2) 0.02428(18) 0.6416(7)
H12F H 0.6783 0.0301 0.5892
C16F C 0.73902(19) -0.03186(19) 0.6478(7)
H13F H 0.7176 -0.0630 0.5970
C17F C 0.72010(17) 0.13364(16) 0.7171(6)
C18F C 0.74082(17) 0.17697(18) 0.8326(6)
H14F H 0.7732 0.1690 0.9062
C21F C 0.6721(2) 0.1496(2) 0.6067(7)
H17F H 0.6567 0.1223 0.5255
C4F C 0.92857(19) -0.28444(18) 0.8231(6)
C5F C 0.8833(2) -0.32508(19) 0.8352(7)
H2F H 0.8446 -0.3130 0.8100
C6F C 0.8935(2) -0.3832(2) 0.8835(8)
H3F H 0.8621 -0.4101 0.8867
C7F C 0.9503(3) -0.4018(2) 0.9272(9)
H4F H 0.9574 -0.4408 0.9626
C8F C 0.9965(2) -0.3608(2) 0.9173(9)
H5F H 1.0350 -0.3724 0.9475
C9F C 0.9861(2) -0.3043(2) 0.8642(7)
H6F H 1.0179 -0.2779 0.8547
C22F C 1.0087(2) -0.0825(2) 0.7046(11)
H18F H 0.9995 -0.0425 0.7406
H19F H 1.0398 -0.0980 0.7795
H20F H 1.0218 -0.0825 0.5822
C20F C 0.70510(19) -0.1482(2) 0.8810(6)
H16F H 0.7148 -0.1170 0.9576
C21A C 0.6496(2) -0.1721(2) 0.8933(7)
H17A H 0.6223 -0.1567 0.9745
H15F H 0.7602 -0.2283 0.5809
C4A C 0.21556(18) -0.42857(19) 0.6769(6)
C5A C 0.17492(19) -0.3833(2) 0.6648(7)
H2A H 0.1870 -0.3446 0.6900
C6A C 0.1168(2) -0.3935(2) 0.6165(8)
H3A H 0.0899 -0.3621 0.6133
C7A C 0.0982(2) -0.4503(3) 0.5728(9)
H4A H 0.0592 -0.4574 0.5374
C8A C 0.1392(2) -0.4965(2) 0.5827(9)
H5A H 0.1276 -0.5350 0.5525
C9A C 0.1957(2) -0.4861(2) 0.6358(7)
H6A H 0.2221 -0.5179 0.6453
C22A C 0.4175(2) -0.5087(2) 0.7954(11)
H18A H 0.4575 -0.4995 0.7594
H19A H 0.4020 -0.5398 0.7205
H20A H 0.4175 -0.5218 0.9178
C20A C 0.3518(2) -0.20510(19) 0.6190(6)
H16A H 0.3830 -0.2148 0.5424
C21G C 0.3279(2) -0.1496(2) 0.6067(7)
H17G H 0.3433 -0.1223 0.5255
H15A H 0.2717 -0.2602 0.9191
C4G C 0.07143(19) 0.28444(18) 0.8231(6)
C5G C 0.1167(2) 0.32508(19) 0.8352(7)
H2G H 0.1554 0.3130 0.8100
C6G C 0.1065(2) 0.3832(2) 0.8835(8)
H3G H 0.1379 0.4101 0.8867
C7G C 0.0497(3) 0.4018(2) 0.9272(9)
H4G H 0.0426 0.4408 0.9626
C8G C 0.0035(2) 0.3608(2) 0.9173(9)
H5G H -0.0350 0.3724 0.9475
C9G C 0.0139(2) 0.3043(2) 0.8642(7)
H6G H -0.0179 0.2779 0.8547
C22G C -0.0087(2) 0.0825(2) 0.7046(11)
H18G H 0.0005 0.0425 0.7406
H19G H -0.0398 0.0980 0.7795
H20G H -0.0218 0.0825 0.5822
C20G C 0.29490(19) 0.1482(2) 0.8810(6)
H16G H 0.2852 0.1170 0.9576
H15G H 0.2398 0.2283 0.5809
loop_
_geom_bond_atom_site_label_1
_geom_bond_atom_site_label_2
_geom_bond_site_symmetry_1
_geom_bond_site_symmetry_2
Cu1 O1 1_555 1_555
O1 C1 1_555 1_555
O2 Cu1 1_555 1_555
O3 C10 1_555 1_555
O4 Cu1 1_555 1_555
N1 Cu1 1_555 1_555
N2 Cu1 1_555 1_555
C1 C2 1_555 1_555
C2 H1 1_555 1_555
C3 O4 1_555 1_555
C4 C3 1_555 1_555
C5 C4 1_555 1_555
H2 C5 1_555 1_555
C6 C5 1_555 1_555
H3 C6 1_555 1_555
C7 C6 1_555 1_555
H4 C7 1_555 1_555
C8 C7 1_555 1_555
H5 C8 1_555 1_555
C9 C4 1_555 1_555
H6 C9 1_555 1_555
C10 O2 1_555 1_555
C11 C10 1_555 1_555
H7 C11 1_555 1_555
H8 C11 1_555 1_555
H9 C11 1_555 1_555
C12 N1 1_555 1_555
H10 C12 1_555 1_555
C13 C12 1_555 1_555
H11 C13 1_555 1_555
C14 C13 1_555 1_555
C15 C14 1_555 1_555
H12 C15 1_555 1_555
C16 N1 1_555 1_555
H13 C16 1_555 1_555
C17 C14 1_555 1_555
C18 C17 1_555 1_555
H14 C18 1_555 1_555
C19 N2 1_555 1_555
H15 C19 1_555 1_555
C20 N2 1_555 1_555
H16 C20 1_555 1_555
C21 C17 1_555 1_555
H17 C21 1_555 1_555
C22 C1 1_555 1_555
H18 C22 1_555 1_555
H19 C22 1_555 1_555
H20 C22 1_555 1_555
C19G C18 1_555 1_555
N2G C19G 1_555 1_555
Cu1G N2G 1_555 1_555
O1G Cu1G 1_555 1_555
C1G O1G 1_555 1_555
C2G C1G 1_555 1_555
H1G C2G 1_555 1_555
C3G C2G 1_555 1_555
O4G Cu1G 1_555 1_555
O2G Cu1G 1_555 1_555
C10G O2G 1_555 1_555
O3G C10G 1_555 1_555
C11G C10G 1_555 1_555
H7G C11G 1_555 1_555
H8G C11G 1_555 1_555
H9G C11G 1_555 1_555
N1G Cu1G 1_555 1_555
C12G N1G 1_555 1_555
H10G C12G 1_555 1_555
C13G C12G 1_555 1_555
H11G C13G 1_555 1_555
C14G C13G 1_555 1_555
C15G C14G 1_555 1_555
H12G C15G 1_555 1_555
C16G N1G 1_555 1_555
H13G C16G 1_555 1_555
C17G C14G 1_555 1_555
C18G C17G 1_555 1_555
H14G C18G 1_555 1_555
C19A C18G 1_555 1_555
N2A C19A 1_555 1_555
Cu1A N2A 1_555 1_555
O1A Cu1A 1_555 1_555
C1A O1A 1_555 1_555
C2A C1A 1_555 1_555
H1A C2A 1_555 1_555
C3A C2A 1_555 1_555
O4A Cu1A 1_555 1_555
O2A Cu1A 1_555 1_555
C10A O2A 1_555 1_555
O3A C10A 1_555 1_555
C11A C10A 1_555 1_555
H7A C11A 1_555 1_555
H8A C11A 1_555 1_555
H9A C11A 1_555 1_555
N1A Cu1A 1_555 1_555
C12A N1A 1_555 1_555
H10A C12A 1_555 1_555
C13A C12A 1_555 1_555
H11A C13A 1_555 1_555
C14A C13A 1_555 1_555
C15A C14A 1_555 1_555
H12A C15A 1_555 1_555
C16A N1A 1_555 1_555
H13A C16A 1_555 1_555
C17A C14A 1_555 1_555
C18A C17A 1_555 1_555
H14A C18A 1_555 1_555
C19F C18A 1_555 1_555
N2F C19F 1_555 1_555
Cu1F N2F 1_555 1_555
O1F Cu1F 1_555 1_555
C1F O1F 1_555 1_555
C2F C1F 1_555 1_555
H1F C2F 1_555 1_555
C3F C2F 1_555 1_555
O4F Cu1F 1_555 1_555
O2F Cu1F 1_555 1_555
C10F O2F 1_555 1_555
O3F C10F 1_555 1_555
C11F C10F 1_555 1_555
H7F C11F 1_555 1_555
H8F C11F 1_555 1_555
H9F C11F 1_555 1_555
N1F Cu1F 1_555 1_555
C12F N1F 1_555 1_555
H10F C12F 1_555 1_555
C13F C12F 1_555 1_555
H11F C13F 1_555 1_555
C14F C13F 1_555 1_555
C15F C14F 1_555 1_555
H12F C15F 1_555 1_555
C16F N1F 1_555 1_555
H13F C16F 1_555 1_555
C17F C14F 1_555 1_555
C18F C19 1_555 1_555
H14F C18F 1_555 1_555
C21F C20 1_555 1_555
H17F C21F 1_555 1_555
C4F C3F 1_555 1_555
C5F C4F 1_555 1_555
H2F C5F 1_555 1_555
C6F C5F 1_555 1_555
H3F C6F 1_555 1_555
C7F C6F 1_555 1_555
H4F C7F 1_555 1_555
C8F C7F 1_555 1_555
H5F C8F 1_555 1_555
C9F C4F 1_555 1_555
H6F C9F 1_555 1_555
C22F C1F 1_555 1_555
H18F C22F 1_555 1_555
H19F C22F 1_555 1_555
H20F C22F 1_555 1_555
C20F N2F 1_555 1_555
H16F C20F 1_555 1_555
C21A C17A 1_555 1_555
H17A C21A 1_555 1_555
H15F C19F 1_555 1_555
C4A C3A 1_555 1_555
C5A C4A 1_555 1_555
H2A C5A 1_555 1_555
C6A C5A 1_555 1_555
H3A C6A 1_555 1_555
C7A C6A 1_555 1_555
H4A C7A 1_555 1_555
C8A C7A 1_555 1_555
H5A C8A 1_555 1_555
C9A C4A 1_555 1_555
H6A C9A 1_555 1_555
C22A C1A 1_555 1_555
H18A C22A 1_555 1_555
H19A C22A 1_555 1_555
H20A C22A 1_555 1_555
C20A N2A 1_555 1_555
H16A C20A 1_555 1_555
C21G C17G 1_555 1_555
H17G C21G 1_555 1_555
H15A C19A 1_555 1_555
C4G C3G 1_555 1_555
C5G C4G 1_555 1_555
H2G C5G 1_555 1_555
C6G C5G 1_555 1_555
H3G C6G 1_555 1_555
C7G C6G 1_555 1_555
H4G C7G 1_555 1_555
C8G C7G 1_555 1_555
H5G C8G 1_555 1_555
C9G C4G 1_555 1_555
H6G C9G 1_555 1_555
C22G C1G 1_555 1_555
H18G C22G 1_555 1_555
H19G C22G 1_555 1_555
H20G C22G 1_555 1_555
C20G C21 1_555 1_555
H16G C20G 1_555 1_555
H15G C19G 1_555 1_555
C2 C3 1_555 1_555
C8 C9 1_555 1_555
C15 C16 1_555 1_555
N2G C20G 1_555 1_555
C3G O4G 1_555 1_555
C15G C16G 1_555 1_555
C3A O4A 1_555 1_555
C15A C16A 1_555 1_555
C3F O4F 1_555 1_555
C15F C16F 1_555 1_555
C17F C18F 1_555 1_555
C17F C21F 1_555 1_555
C8F C9F 1_555 1_555
C20F C21A 1_555 1_555
C8A C9A 1_555 1_555
C20A C21G 1_555 1_555
C8G C9G 1_555 1_555

#END
