
#######################################################################
#
#                 Cambridge Crystallographic Data Centre
#                                CCDC 
#
#######################################################################
#
# If this CIF has been generated from an entry in the Cambridge 
# Structural Database, then it will include bibliographic, chemical, 
# crystal, experimental, refinement or atomic coordinate data resulting 
# from the CCDC's data processing and validation procedures.
#
#######################################################################

data_IXENAA
_chemical_formula_moiety         'C47 H36 Fe1 N4 O3,C1 H4 O1'
_chemical_name_systematic        
'5,10-bis(p-Methoxyphenyl)-19-ferrocenyl-25-oxasmaragdyrin methanol clathrate'
_symmetry_cell_setting           triclinic
_symmetry_space_group_name_H-M   'P -1'
_symmetry_Int_Tables_number      2
_space_group_name_Hall           '-P 1'
loop_
_symmetry_equiv_pos_site_id
_symmetry_equiv_pos_as_xyz
1 x,y,z
2 -x,-y,-z
_cell_length_a                   9.9376(11)
_cell_length_b                   12.6375(14)
_cell_length_c                   15.927(2)
_cell_angle_alpha                74.305(9)
_cell_angle_beta                 76.565(9)
_cell_angle_gamma                86.639(9)
_cell_volume                     1872.92
_exptl_crystal_colour            brown
_exptl_crystal_description       prism
_cell_formula_units_Z            2
_exptl_crystal_recrystallization_method dichloromethane/methanol
loop_
_atom_site_label
_atom_site_type_symbol
_atom_site_fract_x
_atom_site_fract_y
_atom_site_fract_z
C1 C -1.0212(2) -0.30997(19) 0.40031(17)
C2 C -0.9642(2) -0.36753(19) 0.33900(17)
C3 C -1.0292(3) -0.4419(2) 0.30902(18)
H1 H -1.118(3) -0.4546(19) 0.3231(16)
C4 C -0.9316(3) -0.4897(2) 0.25726(19)
H2 H -0.941(3) -0.537(2) 0.2295(17)
C5 C -0.8012(2) -0.44700(18) 0.25171(17)
C6 C -0.6729(2) -0.47831(18) 0.21235(17)
C7 C -0.5408(2) -0.43079(18) 0.20144(16)
C8 C -0.4112(3) -0.4748(2) 0.17405(18)
H3 H -0.399(2) -0.5393(19) 0.1624(15)
C9 C -0.3106(3) -0.4024(2) 0.17030(18)
H4 H -0.225(3) -0.4073(17) 0.1554(15)
C10 C -0.3760(2) -0.31180(19) 0.19570(17)
C11 C -0.3160(2) -0.21446(19) 0.19963(17)
C12 C -0.1791(3) -0.1758(2) 0.16563(18)
H5 H -0.107(3) -0.214(2) 0.1313(17)
C13 C -0.1731(3) -0.0749(2) 0.18176(18)
H6 H -0.095(3) -0.028(2) 0.1635(17)
C14 C -0.3041(2) -0.05075(19) 0.22909(17)
C15 C -0.3519(2) 0.03372(18) 0.27259(17)
C16 C -0.4833(2) 0.02847(18) 0.32823(17)
C17 C -0.5334(3) 0.0870(2) 0.39547(18)
H7 H -0.480(3) 0.141(2) 0.4074(17)
C18 C -0.6589(3) 0.0448(2) 0.44188(19)
H8 H -0.722(3) 0.068(2) 0.4957(18)
C19 C -0.6892(2) -0.03801(19) 0.40324(17)
C20 C -0.8075(3) -0.1048(2) 0.42988(18)
C21 C -0.9175(3) -0.1150(2) 0.5047(2)
H9 H -0.918(3) -0.079(2) 0.547(2)
C22 C -1.0080(3) -0.1919(2) 0.50328(19)
H10 H -1.090(3) -0.213(2) 0.5436(18)
C23 C -0.9572(2) -0.23190(19) 0.42859(17)
C24 C -1.1710(2) -0.33361(19) 0.44582(17)
C25 C -1.2710(3) -0.2601(2) 0.4225(2)
H11 H -1.249(3) -0.198(2) 0.3773(19)
C26 C -1.4105(3) -0.2797(2) 0.46354(19)
H12 H -1.475(3) -0.230(2) 0.4460(17)
C27 C -1.4479(2) -0.3738(2) 0.53102(18)
C28 C -1.6866(3) -0.3346(3) 0.5408(3)
H13 H -1.684(3) -0.257(3) 0.546(2)
H14 H -1.777(4) -0.380(3) 0.578(2)
H15 H -1.681(4) -0.330(3) 0.468(3)
C29 C -1.3487(3) -0.4482(2) 0.55677(19)
H16 H -1.380(3) -0.518(2) 0.609(2)
C30 C -1.2115(3) -0.4276(2) 0.51362(19)
H17 H -1.148(3) -0.478(2) 0.530(2)
C31 C -0.6694(2) -0.58101(18) 0.18182(17)
C32 C -0.6918(3) -0.6824(2) 0.2439(2)
H18 H -0.712(3) -0.687(2) 0.3000(19)
C33 C -0.6844(3) -0.7789(2) 0.21713(19)
H19 H -0.698(3) -0.847(2) 0.2570(18)
C34 C -0.6514(3) -0.77439(19) 0.12722(18)
C35 C -0.6082(6) -0.8715(3) 0.0149(3)
H20 H -0.612(3) -0.940(3) 0.012(2)
H21 H -0.515(4) -0.839(3) -0.010(3)
H22 H -0.682(5) -0.822(4) -0.021(3)
C36 C -0.6291(3) -0.6745(2) 0.0641(2)
H23 H -0.609(3) -0.672(2) 0.003(2)
C37 C -0.6384(3) -0.5785(2) 0.09218(19)
H24 H -0.623(3) -0.512(2) 0.0477(17)
C38 C -0.2590(2) 0.12443(19) 0.26440(17)
C39 C -0.1153(3) 0.1215(2) 0.26441(19)
H25 H -0.053(2) 0.0535(19) 0.2699(15)
C40 C -0.0735(3) 0.2289(2) 0.2606(2)
H26 H 0.010(3) 0.244(2) 0.2615(18)
C41 C -0.1888(3) 0.2983(2) 0.2571(2)
H27 H -0.194(3) 0.373(2) 0.2499(18)
C42 C -0.3027(3) 0.2359(2) 0.25912(19)
H28 H -0.398(3) 0.267(2) 0.2539(18)
C43 C -0.1708(5) 0.1866(3) 0.0431(2)
H29 H -0.223(4) 0.117(3) 0.049(2)
C44 C -0.0302(5) 0.1914(3) 0.0428(2)
H30 H 0.030(4) 0.126(3) 0.048(2)
C45 C 0.0006(4) 0.3005(3) 0.0406(3)
H31 H 0.084(4) 0.328(3) 0.046(2)
C46 C -0.1209(4) 0.3620(3) 0.0387(2)
H32 H -0.129(3) 0.440(3) 0.040(2)
C47 C -0.2269(5) 0.2917(3) 0.0408(2)
H33 H -0.311(3) 0.307(2) 0.040(2)
Fe1 Fe -0.14805(4) 0.23233(3) 0.15131(3)
O1 O -0.82225(16) -0.36673(12) 0.29983(11)
O2 O -1.58218(18) -0.40237(15) 0.57644(13)
O3 O -0.6442(2) -0.87450(14) 0.10731(13)
N1 N -0.8332(2) -0.17901(17) 0.38609(16)
H38 H -0.788(3) -0.181(2) 0.3383(18)
N2 N -0.5165(2) -0.33135(16) 0.21569(14)
H39 H -0.574(3) -0.279(2) 0.2214(19)
N3 N -0.3880(2) -0.13750(15) 0.23671(14)
H40 H -0.474(3) -0.140(2) 0.267(2)
N4 N -0.5837(2) -0.04734(15) 0.33404(14)
C48 C -0.8063(4) -0.1149(4) 0.1616(3)
H34 H -0.799(4) -0.051(3) 0.110(3)
H35 H -0.906(4) -0.127(3) 0.218(3)
H36 H -0.818(4) -0.185(3) 0.152(3)
O4 O -0.68688(18) -0.12797(15) 0.19424(13)
H37 H -0.668(4) -0.059(4) 0.196(3)
loop_
_geom_bond_atom_site_label_1
_geom_bond_atom_site_label_2
_geom_bond_site_symmetry_1
_geom_bond_site_symmetry_2
C1 C2 1_555 1_555
C2 C3 1_555 1_555
C3 H1 1_555 1_555
C4 C3 1_555 1_555
H2 C4 1_555 1_555
C5 C4 1_555 1_555
C6 C5 1_555 1_555
C7 C6 1_555 1_555
C8 C7 1_555 1_555
H3 C8 1_555 1_555
C9 C8 1_555 1_555
H4 C9 1_555 1_555
C10 C9 1_555 1_555
C11 C10 1_555 1_555
C12 C11 1_555 1_555
H5 C12 1_555 1_555
C13 C12 1_555 1_555
H6 C13 1_555 1_555
C14 C13 1_555 1_555
C15 C14 1_555 1_555
C16 C15 1_555 1_555
C17 C16 1_555 1_555
H7 C17 1_555 1_555
C18 C17 1_555 1_555
H8 C18 1_555 1_555
C19 C18 1_555 1_555
C20 C19 1_555 1_555
C21 C20 1_555 1_555
H9 C21 1_555 1_555
C22 C21 1_555 1_555
H10 C22 1_555 1_555
C23 C1 1_555 1_555
C24 C1 1_555 1_555
C25 C24 1_555 1_555
H11 C25 1_555 1_555
C26 C25 1_555 1_555
H12 C26 1_555 1_555
C27 C26 1_555 1_555
C28 H13 1_555 1_555
H14 C28 1_555 1_555
H15 C28 1_555 1_555
C29 C27 1_555 1_555
H16 C29 1_555 1_555
C30 C24 1_555 1_555
H17 C30 1_555 1_555
C31 C6 1_555 1_555
C32 C31 1_555 1_555
H18 C32 1_555 1_555
C33 C32 1_555 1_555
H19 C33 1_555 1_555
C34 C33 1_555 1_555
C35 H20 1_555 1_555
H21 C35 1_555 1_555
H22 C35 1_555 1_555
C36 C34 1_555 1_555
H23 C36 1_555 1_555
C37 C31 1_555 1_555
H24 C37 1_555 1_555
C38 C15 1_555 1_555
C39 C38 1_555 1_555
H25 C39 1_555 1_555
C40 C39 1_555 1_555
H26 C40 1_555 1_555
C41 C40 1_555 1_555
H27 C41 1_555 1_555
C42 C38 1_555 1_555
H28 C42 1_555 1_555
C43 H29 1_555 1_555
C44 C43 1_555 1_555
H30 C44 1_555 1_555
C45 C44 1_555 1_555
H31 C45 1_555 1_555
C46 C45 1_555 1_555
H32 C46 1_555 1_555
C47 C43 1_555 1_555
H33 C47 1_555 1_555
C48 H34 1_555 1_555
H35 C48 1_555 1_555
H36 C48 1_555 1_555
Fe1 C38 1_555 1_555
O1 C2 1_555 1_555
O2 C27 1_555 1_555
O3 C34 1_555 1_555
O4 C48 1_555 1_555
H37 O4 1_555 1_555
N1 C20 1_555 1_555
H38 N1 1_555 1_555
N2 C7 1_555 1_555
H39 N2 1_555 1_555
N3 C11 1_555 1_555
H40 N3 1_555 1_555
N4 C16 1_555 1_555
C5 O1 1_555 1_555
C10 N2 1_555 1_555
C14 N3 1_555 1_555
C19 N4 1_555 1_555
C22 C23 1_555 1_555
C23 N1 1_555 1_555
C28 O2 1_555 1_555
C29 C30 1_555 1_555
C35 O3 1_555 1_555
C36 C37 1_555 1_555
C39 Fe1 1_555 1_555
C40 Fe1 1_555 1_555
C41 C42 1_555 1_555
C41 Fe1 1_555 1_555
C42 Fe1 1_555 1_555
C43 Fe1 1_555 1_555
C44 Fe1 1_555 1_555
C45 Fe1 1_555 1_555
C46 C47 1_555 1_555
C46 Fe1 1_555 1_555
C47 Fe1 1_555 1_555

#END
