
#######################################################################
#
#                 Cambridge Crystallographic Data Centre
#                                CCDC 
#
#######################################################################
#
# If this CIF has been generated from an entry in the Cambridge 
# Structural Database, then it will include bibliographic, chemical, 
# crystal, experimental, refinement or atomic coordinate data resulting 
# from the CCDC's data processing and validation procedures.
#
#######################################################################

data_IXETIP
_chemical_formula_moiety         'C32 H48 Cl4 N4 Pd2 Si4'
_chemical_name_systematic        
bis(\m~2~-(3,3'-(ethane-1,2-diylbis(dimethylsilanediyl))bipyridine))-tetrachloro-di-palladium(ii)
_symmetry_cell_setting           monoclinic
_symmetry_space_group_name_H-M   'C 2/c'
_symmetry_Int_Tables_number      15
_space_group_name_Hall           '-C 2yn'
loop_
_symmetry_equiv_pos_site_id
_symmetry_equiv_pos_as_xyz
1 x,y,z
2 -x,y,1/2-z
3 1/2+x,1/2+y,z
4 1/2-x,1/2+y,1/2-z
5 -x,-y,-z
6 x,-y,1/2+z
7 1/2-x,1/2-y,-z
8 1/2+x,1/2-y,1/2+z
_cell_length_a                   27.5402(18)
_cell_length_b                   6.9146(5)
_cell_length_c                   23.0480(16)
_cell_angle_alpha                90
_cell_angle_beta                 106.701(2)
_cell_angle_gamma                90
_cell_volume                     4203.88
_cell_formula_units_Z            4
loop_
_atom_site_label
_atom_site_type_symbol
_atom_site_fract_x
_atom_site_fract_y
_atom_site_fract_z
Pd1 Pd 0.114802(14) 0.09196(5) 0.471395(19)
Si1 Si 0.22890(5) -0.44157(19) 0.65317(7)
Si2 Si 0.07270(5) -0.37029(18) 0.68838(7)
Cl1 Cl 0.0809(5) 0.052(4) 0.5499(9)
Cl2 Cl -0.1413(3) -0.1487(9) 0.6128(3)
Cl3 Cl 0.1412(4) 0.1501(11) 0.3869(4)
N1 N 0.16150(15) -0.1425(5) 0.4949(2)
N2 N -0.06503(15) -0.3095(5) 0.5555(2)
C1 C 0.18193(17) -0.1960(6) 0.5527(2)
H1 H 0.1779 -0.1110 0.5834
C2 C 0.20846(18) -0.3658(6) 0.5710(3)
C3 C 0.21545(18) -0.4826(7) 0.5243(3)
H2 H 0.2341 -0.5996 0.5340
C4 C 0.19546(19) -0.4293(7) 0.4646(3)
H3 H 0.2004 -0.5081 0.4330
C5 C 0.16827(18) -0.2600(7) 0.4515(3)
H4 H 0.1538 -0.2250 0.4103
C6 C 0.17827(18) -0.3598(7) 0.6880(3)
H5 H 0.1862 -0.4116 0.7297
H6 H 0.1791 -0.2169 0.6908
C7 C 0.12424(18) -0.4235(7) 0.6525(3)
H7 H 0.1247 -0.5647 0.6457
H8 H 0.1153 -0.3602 0.6123
C8 C 0.01264(17) -0.4208(6) 0.6260(2)
C9 C -0.02488(18) -0.2841(6) 0.6035(2)
H9 H -0.0217 -0.1633 0.6239
C10 C -0.06999(18) -0.4779(7) 0.5256(2)
H10 H -0.0977 -0.4960 0.4903
C11 C -0.0354(2) -0.6256(6) 0.5452(3)
H11 H -0.0400 -0.7463 0.5246
C12 C 0.00525(19) -0.5958(7) 0.5943(3)
H12 H 0.0293 -0.6967 0.6075
C13 C 0.29019(19) -0.3238(8) 0.6930(3)
H13 H 0.3002 -0.3613 0.7358
H14 H 0.2863 -0.1830 0.6897
H15 H 0.3163 -0.3652 0.6744
C14 C 0.2339(2) -0.7097(7) 0.6543(3)
H16 H 0.2618 -0.7488 0.6384
H17 H 0.2021 -0.7654 0.6291
H18 H 0.2405 -0.7562 0.6960
C15 C 0.0733(2) -0.1134(7) 0.7109(3)
H19 H 0.0741 -0.0310 0.6766
H20 H 0.1034 -0.0882 0.7450
H21 H 0.0427 -0.0849 0.7229
C16 C 0.0775(2) -0.5322(8) 0.7538(3)
H22 H 0.0489 -0.5078 0.7703
H23 H 0.1094 -0.5072 0.7852
H24 H 0.0766 -0.6672 0.7407
Pd1D Pd -0.114802(14) -0.09196(5) 0.528605(19)
Si1D Si -0.22890(5) 0.44157(19) 0.34683(7)
Si2D Si -0.07270(5) 0.37029(18) 0.31162(7)
Cl1D Cl -0.0809(5) -0.052(4) 0.4501(9)
N1D N -0.16150(15) 0.1425(5) 0.5051(2)
N2D N 0.06503(15) 0.3095(5) 0.4445(2)
C1D C -0.18193(17) 0.1960(6) 0.4473(2)
H1D H -0.1779 0.1110 0.4166
C2D C -0.20846(18) 0.3658(6) 0.4290(3)
C3D C -0.21545(18) 0.4826(7) 0.4757(3)
H2D H -0.2341 0.5996 0.4660
C4D C -0.19546(19) 0.4293(7) 0.5354(3)
H3D H -0.2004 0.5081 0.5670
C5D C -0.16827(18) 0.2600(7) 0.5485(3)
H4D H -0.1538 0.2250 0.5897
C6D C -0.17827(18) 0.3598(7) 0.3120(3)
H5D H -0.1862 0.4116 0.2703
H6D H -0.1791 0.2169 0.3092
C7D C -0.12424(18) 0.4235(7) 0.3475(3)
H7D H -0.1247 0.5647 0.3543
H8D H -0.1153 0.3602 0.3877
C8D C -0.01264(17) 0.4208(6) 0.3740(2)
C9D C 0.02488(18) 0.2841(6) 0.3965(2)
H9D H 0.0217 0.1633 0.3761
C10D C 0.06999(18) 0.4779(7) 0.4744(2)
H10D H 0.0977 0.4960 0.5097
C11D C 0.0354(2) 0.6256(6) 0.4548(3)
H11D H 0.0400 0.7463 0.4754
C12D C -0.00525(19) 0.5958(7) 0.4057(3)
H12D H -0.0293 0.6967 0.3925
C13D C -0.29019(19) 0.3238(8) 0.3070(3)
H13D H -0.3002 0.3613 0.2642
H14D H -0.2863 0.1830 0.3103
H15D H -0.3163 0.3652 0.3256
C14D C -0.2339(2) 0.7097(7) 0.3457(3)
H16D H -0.2618 0.7488 0.3616
H17D H -0.2021 0.7654 0.3709
H18D H -0.2405 0.7562 0.3040
C15D C -0.0733(2) 0.1134(7) 0.2891(3)
H19D H -0.0741 0.0310 0.3234
H20D H -0.1034 0.0882 0.2550
H21D H -0.0427 0.0849 0.2771
C16D C -0.0775(2) 0.5322(8) 0.2462(3)
H22D H -0.0489 0.5078 0.2297
H23D H -0.1094 0.5072 0.2148
H24D H -0.0766 0.6672 0.2593
loop_
_geom_bond_atom_site_label_1
_geom_bond_atom_site_label_2
_geom_bond_site_symmetry_1
_geom_bond_site_symmetry_2
Pd1 Cl1 1_555 1_555
Si1 C2 1_555 1_555
Si2 C7 1_555 1_555
Cl2 Pd1D 1_555 1_555
Cl3 Pd1 1_555 1_555
N1 Pd1 1_555 1_555
N2 C9 1_555 1_555
C1 N1 1_555 1_555
H1 C1 1_555 1_555
C2 C1 1_555 1_555
C3 C2 1_555 1_555
H2 C3 1_555 1_555
C4 C3 1_555 1_555
H3 C4 1_555 1_555
C5 N1 1_555 1_555
H4 C5 1_555 1_555
C6 Si1 1_555 1_555
H5 C6 1_555 1_555
H6 C6 1_555 1_555
C7 C6 1_555 1_555
H7 C7 1_555 1_555
H8 C7 1_555 1_555
C8 Si2 1_555 1_555
C9 C8 1_555 1_555
H9 C9 1_555 1_555
C10 N2 1_555 1_555
H10 C10 1_555 1_555
C11 C10 1_555 1_555
H11 C11 1_555 1_555
C12 C8 1_555 1_555
H12 C12 1_555 1_555
C13 Si1 1_555 1_555
H13 C13 1_555 1_555
H14 C13 1_555 1_555
H15 C13 1_555 1_555
C14 Si1 1_555 1_555
H16 C14 1_555 1_555
H17 C14 1_555 1_555
H18 C14 1_555 1_555
C15 Si2 1_555 1_555
H19 C15 1_555 1_555
H20 C15 1_555 1_555
H21 C15 1_555 1_555
C16 Si2 1_555 1_555
H22 C16 1_555 1_555
H23 C16 1_555 1_555
H24 C16 1_555 1_555
Pd1D N2 1_555 1_555
Si1D C2D 1_555 1_555
Si2D C7D 1_555 1_555
Cl1D Pd1D 1_555 1_555
N1D Pd1D 1_555 1_555
N2D Pd1 1_555 1_555
C1D N1D 1_555 1_555
H1D C1D 1_555 1_555
C2D C1D 1_555 1_555
C3D C2D 1_555 1_555
H2D C3D 1_555 1_555
C4D C3D 1_555 1_555
H3D C4D 1_555 1_555
C5D N1D 1_555 1_555
H4D C5D 1_555 1_555
C6D Si1D 1_555 1_555
H5D C6D 1_555 1_555
H6D C6D 1_555 1_555
C7D C6D 1_555 1_555
H7D C7D 1_555 1_555
H8D C7D 1_555 1_555
C8D Si2D 1_555 1_555
C9D N2D 1_555 1_555
H9D C9D 1_555 1_555
C10D N2D 1_555 1_555
H10D C10D 1_555 1_555
C11D C10D 1_555 1_555
H11D C11D 1_555 1_555
C12D C8D 1_555 1_555
H12D C12D 1_555 1_555
C13D Si1D 1_555 1_555
H13D C13D 1_555 1_555
H14D C13D 1_555 1_555
H15D C13D 1_555 1_555
C14D Si1D 1_555 1_555
H16D C14D 1_555 1_555
H17D C14D 1_555 1_555
H18D C14D 1_555 1_555
C15D Si2D 1_555 1_555
H19D C15D 1_555 1_555
H20D C15D 1_555 1_555
H21D C15D 1_555 1_555
C16D Si2D 1_555 1_555
H22D C16D 1_555 1_555
H23D C16D 1_555 1_555
H24D C16D 1_555 1_555
C4 C5 1_555 1_555
C11 C12 1_555 1_555
C4D C5D 1_555 1_555
C8D C9D 1_555 1_555
C11D C12D 1_555 1_555

#END
