
#######################################################################
#
#                 Cambridge Crystallographic Data Centre
#                                CCDC 
#
#######################################################################
#
# If this CIF has been generated from an entry in the Cambridge 
# Structural Database, then it will include bibliographic, chemical, 
# crystal, experimental, refinement or atomic coordinate data resulting 
# from the CCDC's data processing and validation procedures.
#
#######################################################################

data_IXIROX
_chemical_formula_moiety         'C34 H32 Ag2 Br4 N4 O8 2+,2(C1 F3 O3 S1 1-)'
_chemical_name_systematic        
'bis(\m~2~-2,2-bis(bromomethyl)propane-1,3-diyl diisonicotinato)-di-silver(i) bis(trifluoromethanesulfonate)'
_symmetry_cell_setting           orthorhombic
_symmetry_space_group_name_H-M   'P b c n'
_symmetry_Int_Tables_number      60
_space_group_name_Hall           '-P 2n 2ab'
loop_
_symmetry_equiv_pos_site_id
_symmetry_equiv_pos_as_xyz
1 x,y,z
2 1/2-x,1/2-y,1/2+z
3 -x,y,1/2-z
4 1/2+x,1/2-y,-z
5 -x,-y,-z
6 1/2+x,1/2+y,1/2-z
7 x,-y,1/2+z
8 1/2-x,1/2+y,z
_cell_length_a                   21.5082(7)
_cell_length_b                   9.9497(3)
_cell_length_c                   21.4562(7)
_cell_angle_alpha                90
_cell_angle_beta                 90
_cell_angle_gamma                90
_cell_volume                     4591.63
_exptl_crystal_colour            colorless
_exptl_crystal_description       plate
_cell_formula_units_Z            4
loop_
_atom_site_label
_atom_site_type_symbol
_atom_site_fract_x
_atom_site_fract_y
_atom_site_fract_z
Ag1 Ag 0.539380(12) 0.63066(3) 0.064819(12)
Br1 Br 0.326282(15) -0.31825(3) 0.348920(15)
Br2 Br 0.470750(15) -0.08412(3) 0.349809(15)
O1 O 0.33632(11) 0.3635(2) 0.29977(11)
O2 O 0.38247(10) 0.17371(19) 0.26615(9)
O3 O 0.33270(10) -0.0223(2) 0.18100(9)
O4 O 0.26302(11) 0.1479(2) 0.18464(11)
N1 N 0.48416(12) 0.5188(3) 0.13381(12)
N2 N 0.59291(12) 0.7315(3) -0.00836(12)
C1 C 0.43748(17) 0.5784(3) 0.16424(15)
H1 H 0.4293 0.6705 0.1561
C2 C 0.40052(16) 0.5118(3) 0.20712(15)
H2 H 0.3682 0.5580 0.2284
C3 C 0.41136(14) 0.3769(3) 0.21844(13)
C4 C 0.45877(14) 0.3134(3) 0.18586(14)
H3 H 0.4668 0.2204 0.1920
C5 C 0.49424(15) 0.3875(3) 0.14425(14)
H4 H 0.5269 0.3438 0.1223
C6 C 0.37221(15) 0.3070(3) 0.26604(14)
C7 C 0.34688(15) 0.0976(3) 0.31203(14)
H5 H 0.3035 0.1306 0.3132
H6 H 0.3653 0.1098 0.3539
C8 C 0.34779(14) -0.0512(3) 0.29433(14)
C9 C 0.31923(15) -0.1226(3) 0.35101(14)
H7 H 0.2747 -0.0982 0.3537
H8 H 0.3399 -0.0890 0.3892
C10 C 0.41371(14) -0.1001(3) 0.27973(13)
H9 H 0.4303 -0.0475 0.2443
H10 H 0.4118 -0.1955 0.2667
C11 C 0.30702(15) -0.0815(3) 0.23769(14)
H11 H 0.3035 -0.1800 0.2323
H12 H 0.2647 -0.0453 0.2449
C12 C 0.30750(15) 0.0938(3) 0.16140(14)
C13 C 0.34257(14) 0.1512(3) 0.10700(14)
C14 C 0.32762(15) 0.2794(3) 0.08616(14)
H13 H 0.2949 0.3287 0.1052
C15 C 0.63930(16) 0.6660(3) -0.03767(15)
H14 H 0.6496 0.5778 -0.0241
C16 C 0.57919(16) 0.8555(3) -0.02860(15)
H15 H 0.5467 0.9033 -0.0084
C17 C 0.38993(15) 0.0825(3) 0.07760(14)
H16 H 0.4012 -0.0055 0.0906
Ag1D Ag 0.460620(12) 0.36934(3) -0.064819(12)
Br1D Br 0.673718(15) 1.31825(3) -0.348920(15)
Br2D Br 0.529250(15) 1.08412(3) -0.349809(15)
O1D O 0.66368(11) 0.6365(2) -0.29977(11)
O2D O 0.61753(10) 0.82629(19) -0.26615(9)
O3D O 0.66730(10) 1.0223(2) -0.18100(9)
O4D O 0.73698(11) 0.8521(2) -0.18464(11)
N1D N 0.51584(12) 0.4812(3) -0.13381(12)
N2D N 0.40709(12) 0.2685(3) 0.00836(12)
C1D C 0.56252(17) 0.4216(3) -0.16424(15)
H1D H 0.5707 0.3295 -0.1561
C2D C 0.59948(16) 0.4882(3) -0.20712(15)
H2D H 0.6318 0.4420 -0.2284
C3D C 0.58864(14) 0.6231(3) -0.21844(13)
C4D C 0.54123(14) 0.6866(3) -0.18586(14)
H3D H 0.5332 0.7796 -0.1920
C5D C 0.50576(15) 0.6125(3) -0.14425(14)
H4D H 0.4731 0.6562 -0.1223
C6D C 0.62779(15) 0.6930(3) -0.26604(14)
C7D C 0.65312(15) 0.9024(3) -0.31203(14)
H5D H 0.6965 0.8694 -0.3132
H6D H 0.6347 0.8902 -0.3539
C8D C 0.65221(14) 1.0512(3) -0.29433(14)
C9D C 0.68077(15) 1.1226(3) -0.35101(14)
H7D H 0.7253 1.0982 -0.3537
H8D H 0.6601 1.0890 -0.3892
C10D C 0.58629(14) 1.1001(3) -0.27973(13)
H9D H 0.5697 1.0475 -0.2443
H10D H 0.5882 1.1955 -0.2667
C11D C 0.69298(15) 1.0815(3) -0.23769(14)
H11D H 0.6965 1.1800 -0.2323
H12D H 0.7353 1.0453 -0.2449
C12D C 0.69250(15) 0.9062(3) -0.16140(14)
C13D C 0.65743(14) 0.8488(3) -0.10700(14)
C14D C 0.67238(15) 0.7206(3) -0.08616(14)
H13D H 0.7051 0.6713 -0.1052
C15D C 0.36070(16) 0.3340(3) 0.03767(15)
H14D H 0.3504 0.4222 0.0241
C16D C 0.42081(16) 0.1445(3) 0.02860(15)
H15D H 0.4533 0.0967 0.0084
C17D C 0.61007(15) 0.9175(3) -0.07760(14)
H16D H 0.5988 1.0055 -0.0906
S1 S 0.59376(4) 0.25933(8) 0.00619(4)
O5 O 0.58089(13) 0.3982(2) 0.01947(13)
O6 O 0.56906(12) 0.2146(2) -0.05225(11)
O7 O 0.58400(14) 0.1682(3) 0.05651(12)
C18 C 0.67772(19) 0.2571(4) -0.0057(2)
F1 F 0.69305(13) 0.3352(3) -0.05319(15)
F2 F 0.70686(14) 0.3042(4) 0.04327(17)
F3 F 0.69825(11) 0.1352(2) -0.01723(15)
loop_
_geom_bond_atom_site_label_1
_geom_bond_atom_site_label_2
_geom_bond_site_symmetry_1
_geom_bond_site_symmetry_2
Ag1 N1 1_555 1_555
Br1 C9 1_555 1_555
Br2 C10 1_555 1_555
O1 C6 1_555 1_555
O2 C6 1_555 1_555
O3 C11 1_555 1_555
O4 C12 1_555 1_555
N1 C1 1_555 1_555
N2 Ag1 1_555 1_555
C1 H1 1_555 1_555
C2 C1 1_555 1_555
H2 C2 1_555 1_555
C3 C2 1_555 1_555
C4 C3 1_555 1_555
H3 C4 1_555 1_555
C5 N1 1_555 1_555
H4 C5 1_555 1_555
C6 C3 1_555 1_555
C7 O2 1_555 1_555
H5 C7 1_555 1_555
H6 C7 1_555 1_555
C8 C7 1_555 1_555
C9 C8 1_555 1_555
H7 C9 1_555 1_555
H8 C9 1_555 1_555
C10 C8 1_555 1_555
H9 C10 1_555 1_555
H10 C10 1_555 1_555
C11 C8 1_555 1_555
H11 C11 1_555 1_555
H12 C11 1_555 1_555
C12 O3 1_555 1_555
C13 C12 1_555 1_555
C14 C13 1_555 1_555
H13 C14 1_555 1_555
C15 N2 1_555 1_555
H14 C15 1_555 1_555
C16 N2 1_555 1_555
H15 C16 1_555 1_555
C17 C13 1_555 1_555
H16 C17 1_555 1_555
S1 O5 1_555 1_555
O6 S1 1_555 1_555
O7 S1 1_555 1_555
C18 S1 1_555 1_555
F1 C18 1_555 1_555
F2 C18 1_555 1_555
F3 C18 1_555 1_555
Ag1D N1D 1_555 1_555
Br1D C9D 1_555 1_555
Br2D C10D 1_555 1_555
O1D C6D 1_555 1_555
O2D C6D 1_555 1_555
O3D C11D 1_555 1_555
O4D C12D 1_555 1_555
N1D C1D 1_555 1_555
N2D Ag1D 1_555 1_555
C1D H1D 1_555 1_555
C2D C1D 1_555 1_555
H2D C2D 1_555 1_555
C3D C2D 1_555 1_555
C4D C3D 1_555 1_555
H3D C4D 1_555 1_555
C5D N1D 1_555 1_555
H4D C5D 1_555 1_555
C6D C3D 1_555 1_555
C7D O2D 1_555 1_555
H5D C7D 1_555 1_555
H6D C7D 1_555 1_555
C8D C7D 1_555 1_555
C9D C8D 1_555 1_555
H7D C9D 1_555 1_555
H8D C9D 1_555 1_555
C10D C8D 1_555 1_555
H9D C10D 1_555 1_555
H10D C10D 1_555 1_555
C11D C8D 1_555 1_555
H11D C11D 1_555 1_555
H12D C11D 1_555 1_555
C12D O3D 1_555 1_555
C13D C12D 1_555 1_555
C14D C15 1_555 1_555
H13D C14D 1_555 1_555
C15D C14 1_555 1_555
H14D C15D 1_555 1_555
C16D C17 1_555 1_555
H15D C16D 1_555 1_555
C17D C16 1_555 1_555
H16D C17D 1_555 1_555
C4 C5 1_555 1_555
N2D C15D 1_555 1_555
N2D C16D 1_555 1_555
C4D C5D 1_555 1_555
C13D C14D 1_555 1_555
C13D C17D 1_555 1_555

#END
