
#######################################################################
#
#                 Cambridge Crystallographic Data Centre
#                                CCDC 
#
#######################################################################
#
# If this CIF has been generated from an entry in the Cambridge 
# Structural Database, then it will include bibliographic, chemical, 
# crystal, experimental, refinement or atomic coordinate data resulting 
# from the CCDC's data processing and validation procedures.
#
#######################################################################

data_IXIRUD
_chemical_formula_moiety         
'C40 H48 Ag2 N4 O8 2+,2(C1 F3 O3 S1 1-),C1 H4 O1'
_chemical_name_systematic        
'bis(\m~2~-2,5-dimethylhexane-2,5-diyl diisonicotinate)-di-silver(i) bis(trifluoromethanesulfonate) methanol solvate'
_symmetry_cell_setting           orthorhombic
_symmetry_space_group_name_H-M   'P b c n'
_symmetry_Int_Tables_number      60
_space_group_name_Hall           '-P 2n 2ab'
loop_
_symmetry_equiv_pos_site_id
_symmetry_equiv_pos_as_xyz
1 x,y,z
2 1/2-x,1/2-y,1/2+z
3 -x,y,1/2-z
4 1/2+x,1/2-y,-z
5 -x,-y,-z
6 1/2+x,1/2+y,1/2-z
7 x,-y,1/2+z
8 1/2-x,1/2+y,z
_cell_length_a                   12.5883(5)
_cell_length_b                   25.6794(10)
_cell_length_c                   16.2029(6)
_cell_angle_alpha                90
_cell_angle_beta                 90
_cell_angle_gamma                90
_cell_volume                     5237.75
_exptl_crystal_colour            colorless
_exptl_crystal_description       plate
_cell_formula_units_Z            4
loop_
_atom_site_label
_atom_site_type_symbol
_atom_site_fract_x
_atom_site_fract_y
_atom_site_fract_z
Ag1 Ag 0.60350(3) 0.500899(16) 0.06586(3)
O1 O 0.4904(3) 0.76725(13) -0.01309(19)
O2 O 0.4785(2) 0.76486(12) 0.12698(18)
O3 O 0.7690(3) 0.23645(13) 0.0923(2)
O4 O 0.6374(2) 0.23863(12) 0.18813(18)
N1 N 0.5725(3) 0.58252(15) 0.0624(2)
N2 N 0.6320(3) 0.41939(15) 0.0825(2)
C1 C 0.5970(4) 0.61182(18) -0.0037(3)
H1 H 0.6316 0.5959 -0.0492
C2 C 0.5737(4) 0.66424(18) -0.0075(3)
H2 H 0.5909 0.6838 -0.0554
C3 C 0.5253(3) 0.68796(17) 0.0588(3)
C4 C 0.5016(4) 0.65808(18) 0.1274(3)
H3 H 0.4692 0.6735 0.1743
C5 C 0.5256(4) 0.60581(19) 0.1269(3)
H4 H 0.5083 0.5855 0.1740
C6 C 0.4969(4) 0.74482(18) 0.0520(3)
C7 C 0.4398(4) 0.81953(18) 0.1379(3)
C8 C 0.4440(4) 0.82555(18) 0.2317(3)
H5 H 0.4086 0.8586 0.2469
H6 H 0.4031 0.7968 0.2571
C9 C 0.5123(4) 0.85807(19) 0.0948(3)
H7 H 0.5077 0.8530 0.0350
H8 H 0.5857 0.8525 0.1130
H9 H 0.4904 0.8936 0.1087
C10 C 0.3260(4) 0.8222(2) 0.1071(3)
H10 H 0.3252 0.8185 0.0469
H11 H 0.2950 0.8559 0.1224
H12 H 0.2845 0.7941 0.1320
C11 C 0.5995(4) 0.39658(19) 0.1522(3)
H13 H 0.5615 0.4170 0.1912
C12 C 0.6181(4) 0.34522(19) 0.1701(3)
H14 H 0.5934 0.3307 0.2205
C13 C 0.6729(3) 0.31482(17) 0.1145(3)
C14 C 0.7074(4) 0.33785(18) 0.0418(3)
H15 H 0.7460 0.3182 0.0022
C15 C 0.6849(4) 0.38963(18) 0.0280(3)
H16 H 0.7078 0.4050 -0.0223
C16 C 0.6996(4) 0.25850(18) 0.1298(3)
C17 C 0.6492(4) 0.18350(18) 0.2158(3)
C18 C 0.5538(4) 0.17689(19) 0.2721(3)
H17 H 0.5541 0.2054 0.3133
H18 H 0.5614 0.1437 0.3026
C19 C 0.7527(4) 0.1797(2) 0.2648(3)
H19 H 0.8132 0.1838 0.2273
H20 H 0.7567 0.1456 0.2918
H21 H 0.7545 0.2072 0.3067
C20 C 0.6477(5) 0.1464(2) 0.1428(3)
H22 H 0.7108 0.1523 0.1086
H23 H 0.5836 0.1525 0.1099
H24 H 0.6478 0.1104 0.1629
Ag1B Ag 0.39650(3) 0.500899(16) 0.43414(3)
O1B O 0.5096(3) 0.76725(13) 0.51309(19)
O2B O 0.5215(2) 0.76486(12) 0.37302(18)
O3B O 0.2310(3) 0.23645(13) 0.4077(2)
O4B O 0.3626(2) 0.23863(12) 0.31187(18)
N1B N 0.4275(3) 0.58252(15) 0.4376(2)
N2B N 0.3680(3) 0.41939(15) 0.4175(2)
C1B C 0.4030(4) 0.61182(18) 0.5037(3)
H1B H 0.3684 0.5959 0.5492
C2B C 0.4263(4) 0.66424(18) 0.5075(3)
H2B H 0.4091 0.6838 0.5554
C3B C 0.4747(3) 0.68796(17) 0.4412(3)
C4B C 0.4984(4) 0.65808(18) 0.3726(3)
H3B H 0.5308 0.6735 0.3257
C5B C 0.4744(4) 0.60581(19) 0.3731(3)
H4B H 0.4917 0.5855 0.3260
C6B C 0.5031(4) 0.74482(18) 0.4480(3)
C7B C 0.5602(4) 0.81953(18) 0.3621(3)
C8B C 0.5560(4) 0.82555(18) 0.2683(3)
H5B H 0.5914 0.8586 0.2531
H6B H 0.5969 0.7968 0.2429
C9B C 0.4877(4) 0.85807(19) 0.4052(3)
H7B H 0.4923 0.8530 0.4650
H8B H 0.4143 0.8525 0.3870
H9B H 0.5096 0.8936 0.3913
C10B C 0.6740(4) 0.8222(2) 0.3929(3)
H10B H 0.6748 0.8185 0.4531
H11B H 0.7050 0.8559 0.3776
H12B H 0.7155 0.7941 0.3680
C11B C 0.4005(4) 0.39658(19) 0.3478(3)
H13B H 0.4385 0.4170 0.3088
C12B C 0.3819(4) 0.34522(19) 0.3299(3)
H14B H 0.4066 0.3307 0.2795
C13B C 0.3271(3) 0.31482(17) 0.3855(3)
C14B C 0.2926(4) 0.33785(18) 0.4582(3)
H15B H 0.2540 0.3182 0.4978
C15B C 0.3151(4) 0.38963(18) 0.4720(3)
H16B H 0.2922 0.4050 0.5223
C16B C 0.3004(4) 0.25850(18) 0.3702(3)
C17B C 0.3508(4) 0.18350(18) 0.2842(3)
C18B C 0.4462(4) 0.17689(19) 0.2279(3)
H17B H 0.4459 0.2054 0.1867
H18B H 0.4386 0.1437 0.1974
C19B C 0.2473(4) 0.1797(2) 0.2352(3)
H19B H 0.1868 0.1838 0.2727
H20B H 0.2433 0.1456 0.2082
H21B H 0.2455 0.2072 0.1933
C20B C 0.3523(5) 0.1464(2) 0.3572(3)
H22B H 0.2892 0.1523 0.3914
H23B H 0.4164 0.1525 0.3901
H24B H 0.3522 0.1104 0.3371
S1 S 0.68509(14) 0.49497(7) 0.31624(10)
O5 O 0.6664(5) 0.4396(2) 0.3200(3)
O6 O 0.6445(5) 0.5207(2) 0.2455(3)
O7 O 0.6649(9) 0.5200(3) 0.3904(4)
C21 C 0.8228(6) 0.5020(4) 0.3304(7)
F1 F 0.8442(11) 0.5514(3) 0.3383(9)
F2 F 0.8572(8) 0.4776(4) 0.3959(7)
F3 F 0.8725(13) 0.4841(6) 0.2657(8)
O8 O 0.8034(12) 0.4749(6) 0.5123(10)
C22 C 0.9019(18) 0.4949(13) 0.544(2)
H26 H 0.8871 0.5226 0.5843
H27 H 0.9448 0.5088 0.4991
H28 H 0.9409 0.4667 0.5718
H25? H 0.8069 0.4732 0.4606
C23? C 0.8165(7) 0.4906(4) 0.2715(8)
F4? F 0.8673(12) 0.5349(4) 0.2498(12)
F5? F 0.8890(9) 0.4676(4) 0.3214(8)
F6? F 0.8221(9) 0.4614(5) 0.2029(6)
loop_
_geom_bond_atom_site_label_1
_geom_bond_atom_site_label_2
_geom_bond_site_symmetry_1
_geom_bond_site_symmetry_2
Ag1 N1 1_555 1_555
O1 C6 1_555 1_555
O2 C6 1_555 1_555
O3 C16 1_555 1_555
O4 C16 1_555 1_555
N1 C1 1_555 1_555
N2 Ag1 1_555 1_555
C1 H1 1_555 1_555
C2 C1 1_555 1_555
H2 C2 1_555 1_555
C3 C2 1_555 1_555
C4 C3 1_555 1_555
H3 C4 1_555 1_555
C5 N1 1_555 1_555
H4 C5 1_555 1_555
C6 C3 1_555 1_555
C7 O2 1_555 1_555
C8 C7 1_555 1_555
H5 C8 1_555 1_555
H6 C8 1_555 1_555
C9 C7 1_555 1_555
H7 C9 1_555 1_555
H8 C9 1_555 1_555
H9 C9 1_555 1_555
C10 C7 1_555 1_555
H10 C10 1_555 1_555
H11 C10 1_555 1_555
H12 C10 1_555 1_555
C11 N2 1_555 1_555
H13 C11 1_555 1_555
C12 C11 1_555 1_555
H14 C12 1_555 1_555
C13 C12 1_555 1_555
C14 C13 1_555 1_555
H15 C14 1_555 1_555
C15 N2 1_555 1_555
H16 C15 1_555 1_555
C16 C13 1_555 1_555
C17 O4 1_555 1_555
C18 C17 1_555 1_555
H17 C18 1_555 1_555
H18 C18 1_555 1_555
C19 C17 1_555 1_555
H19 C19 1_555 1_555
H20 C19 1_555 1_555
H21 C19 1_555 1_555
C20 C17 1_555 1_555
H22 C20 1_555 1_555
H23 C20 1_555 1_555
H24 C20 1_555 1_555
S1 O5 1_555 1_555
O6 S1 1_555 1_555
O7 S1 1_555 1_555
C21 S1 1_555 1_555
F1 C21 1_555 1_555
F2 C21 1_555 1_555
F3 C21 1_555 1_555
O8 C22 1_555 1_555
C22 H26 1_555 1_555
H27 C22 1_555 1_555
H28 C22 1_555 1_555
Ag1B N1B 1_555 1_555
O1B C6B 1_555 1_555
O2B C6B 1_555 1_555
O3B C16B 1_555 1_555
O4B C16B 1_555 1_555
N1B C1B 1_555 1_555
N2B Ag1B 1_555 1_555
C1B H1B 1_555 1_555
C2B C1B 1_555 1_555
H2B C2B 1_555 1_555
C3B C2B 1_555 1_555
C4B C3B 1_555 1_555
H3B C4B 1_555 1_555
C5B N1B 1_555 1_555
H4B C5B 1_555 1_555
C6B C3B 1_555 1_555
C7B O2B 1_555 1_555
C8B C8 1_555 1_555
H5B C8B 1_555 1_555
H6B C8B 1_555 1_555
C9B C7B 1_555 1_555
H7B C9B 1_555 1_555
H8B C9B 1_555 1_555
H9B C9B 1_555 1_555
C10B C7B 1_555 1_555
H10B C10B 1_555 1_555
H11B C10B 1_555 1_555
H12B C10B 1_555 1_555
C11B N2B 1_555 1_555
H13B C11B 1_555 1_555
C12B C11B 1_555 1_555
H14B C12B 1_555 1_555
C13B C12B 1_555 1_555
C14B C13B 1_555 1_555
H15B C14B 1_555 1_555
C15B N2B 1_555 1_555
H16B C15B 1_555 1_555
C16B C13B 1_555 1_555
C17B O4B 1_555 1_555
C18B C18 1_555 1_555
H17B C18B 1_555 1_555
H18B C18B 1_555 1_555
C19B C17B 1_555 1_555
H19B C19B 1_555 1_555
H20B C19B 1_555 1_555
H21B C19B 1_555 1_555
C20B C17B 1_555 1_555
H22B C20B 1_555 1_555
H23B C20B 1_555 1_555
H24B C20B 1_555 1_555
C4 C5 1_555 1_555
C14 C15 1_555 1_555
C4B C5B 1_555 1_555
C7B C8B 1_555 1_555
C14B C15B 1_555 1_555
C17B C18B 1_555 1_555

#END
