
#######################################################################
#
#                 Cambridge Crystallographic Data Centre
#                                CCDC 
#
#######################################################################
#
# If this CIF has been generated from an entry in the Cambridge 
# Structural Database, then it will include bibliographic, chemical, 
# crystal, experimental, refinement or atomic coordinate data resulting 
# from the CCDC's data processing and validation procedures.
#
#######################################################################

data_IXIXOE
_chemical_formula_moiety         
'C132 H96 N36 Pd6 12+,12(N1 O3 1-),x(H2 O1),C14 H19 Ir1,C18 H12'
_chemical_name_systematic        
"tetrakis(\m-2,4,6-tris(pyridin-4-yl)-1,3,5-triazine)-hexakis(2,2'-bipyridine)-hexa-palladium (cycloocta-1,5-diene)-(1-methylcyclopentadienyl)-iridium triphenylene dodecanitrate hydrate"
_symmetry_cell_setting           trigonal
_symmetry_space_group_name_H-M   'P -3 c 1'
_symmetry_Int_Tables_number      165
_space_group_name_Hall           '-P 3 2"c'
loop_
_symmetry_equiv_pos_site_id
_symmetry_equiv_pos_as_xyz
1 x,y,z
2 -y,x-y,z
3 -x+y,-x,z
4 y,x,1/2-z
5 x-y,-y,1/2-z
6 -x,-x+y,1/2-z
7 -x,-y,-z
8 y,-x+y,-z
9 x-y,x,-z
10 -y,-x,1/2+z
11 -x+y,y,1/2+z
12 x,x-y,1/2+z
_cell_length_a                   28.008(15)
_cell_length_b                   28.008(15)
_cell_length_c                   34.374(19)
_cell_angle_alpha                90
_cell_angle_beta                 90
_cell_angle_gamma                120
_cell_volume                     23352
_exptl_crystal_colour            purple
_exptl_crystal_description       needle
_cell_formula_units_Z            4
_exptl_crystal_recrystallization_method water
loop_
_atom_site_label
_atom_site_type_symbol
_atom_site_fract_x
_atom_site_fract_y
_atom_site_fract_z
Ir1 Ir 0.24497(5) 0.64235(6) 0.71810(3)
C45 C 0.4161(26) 0.6971(17) 0.6816(11)
C46 C 0.4452(26) 0.7512(17) 0.6663(11)
H33 H 0.4838 0.7744 0.6649
C47 C 0.4030(25) 0.7645(16) 0.6531(8)
H34 H 0.4083 0.7969 0.6403
C48 C 0.3548(28) 0.7188(19) 0.6637(10)
H35 H 0.3189 0.7147 0.6603
C49 C 0.364(3) 0.682(2) 0.6792(10)
H36 H 0.3350 0.6472 0.6879
C50 C 0.443(4) 0.663(2) 0.6953(17)
H37 H 0.4828 0.6857 0.6939
H38 H 0.4316 0.6509 0.7223
H39 H 0.4301 0.6305 0.6786
C51 C 0.4348(26) 0.7578(17) 0.7740(13)
H40 H 0.4464 0.7323 0.7667
C52 C 0.463(4) 0.811(2) 0.7541(14)
H41 H 0.4861 0.8181 0.7322
C53 C 0.4492(23) 0.8556(16) 0.7734(11)
H42 H 0.4370 0.8452 0.8007
H43 H 0.4830 0.8924 0.7735
C54 C 0.4046(21) 0.8581(14) 0.7504(11)
H44 H 0.4221 0.8870 0.7302
H45 H 0.3840 0.8693 0.7681
C55 C 0.3650(19) 0.8059(13) 0.7314(11)
H46 H 0.3594 0.8057 0.7041
C56 C 0.332(3) 0.751(2) 0.7546(12)
H47 H 0.3051 0.7189 0.7415
C57 C 0.3432(25) 0.7475(18) 0.8002(9)
H48 H 0.3513 0.7822 0.8133
H49 H 0.3100 0.7168 0.8124
C58 C 0.3911(24) 0.7382(17) 0.8045(10)
H50 H 0.4095 0.7554 0.8294
H51 H 0.3759 0.6980 0.8074
C51A C 0.2422(17) 0.6770(31) 0.7740(13)
H40A H 0.2677 0.7141 0.7667
C52A C 0.189(2) 0.652(4) 0.7541(14)
H41A H 0.1819 0.6680 0.7322
C53A C 0.1444(16) 0.5936(28) 0.7734(11)
H42A H 0.1548 0.5918 0.8007
H43A H 0.1076 0.5906 0.7735
C54A C 0.1419(14) 0.5465(25) 0.7504(11)
H44A H 0.1130 0.5351 0.7302
H45A H 0.1307 0.5147 0.7681
C55A C 0.1941(13) 0.5591(23) 0.7314(11)
H46A H 0.1943 0.5537 0.7041
C56A C 0.249(2) 0.581(4) 0.7546(12)
H47A H 0.2811 0.5862 0.7415
C57A C 0.2525(18) 0.5957(31) 0.8002(9)
H48A H 0.2178 0.5691 0.8133
H49A H 0.2832 0.5932 0.8124
C58A C 0.2618(17) 0.6529(29) 0.8045(10)
H50A H 0.2446 0.6541 0.8294
H51A H 0.3020 0.6779 0.8074
C45A C 0.3029(17) 0.7190(31) 0.6816(11)
C46A C 0.2488(17) 0.6940(31) 0.6663(11)
H33A H 0.2256 0.7094 0.6649
C47A C 0.2355(16) 0.6385(30) 0.6531(8)
H34A H 0.2031 0.6114 0.6403
C48A C 0.2812(19) 0.6360(34) 0.6637(10)
H35A H 0.2853 0.6042 0.6603
C49A C 0.318(2) 0.682(4) 0.6792(10)
H36A H 0.3528 0.6878 0.6879
C50A C 0.337(2) 0.780(4) 0.6953(17)
H37A H 0.3143 0.7971 0.6939
H38A H 0.3491 0.7807 0.7223
H39A H 0.3695 0.7996 0.6786
C51B C 0.3230(31) 0.5652(26) 0.7740(13)
H40B H 0.2859 0.5536 0.7667
C52B C 0.348(4) 0.537(4) 0.7541(14)
H41B H 0.3320 0.5139 0.7322
C53B C 0.4064(28) 0.5508(23) 0.7734(11)
H42B H 0.4082 0.5630 0.8007
H43B H 0.4094 0.5170 0.7735
C54B C 0.4535(25) 0.5954(21) 0.7504(11)
H44B H 0.4649 0.5779 0.7302
H45B H 0.4853 0.6160 0.7681
C55B C 0.4409(23) 0.6350(19) 0.7314(11)
H46B H 0.4463 0.6406 0.7041
C56B C 0.419(4) 0.668(3) 0.7546(12)
H47B H 0.4138 0.6949 0.7415
C57B C 0.4043(31) 0.6568(25) 0.8002(9)
H48B H 0.4309 0.6487 0.8133
H49B H 0.4068 0.6900 0.8124
C58B C 0.3471(29) 0.6089(24) 0.8045(10)
H50B H 0.3459 0.5905 0.8294
H51B H 0.3221 0.6241 0.8074
C45B C 0.2810(31) 0.5839(26) 0.6816(11)
C46B C 0.3060(31) 0.5548(26) 0.6663(11)
H33B H 0.2906 0.5162 0.6649
C47B C 0.3615(30) 0.5970(25) 0.6531(8)
H34B H 0.3886 0.5917 0.6403
C48B C 0.3640(34) 0.6452(28) 0.6637(10)
H35B H 0.3958 0.6811 0.6603
C49B C 0.318(4) 0.636(3) 0.6792(10)
H36B H 0.3122 0.6650 0.6879
C50B C 0.220(4) 0.557(4) 0.6953(17)
H37B H 0.2029 0.5172 0.6939
H38B H 0.2193 0.5684 0.7223
H39B H 0.2004 0.5699 0.6786
Ir1A Ir 0.35765(6) 0.60262(8) 0.71810(3)
Ir1B Ir 0.39738(8) 0.75503(5) 0.71810(3)
N13 N 0.4636(5) 0.5554(5) 0.1293(3)
O1 O 0.5078(3) 0.5620(3) 0.1486(2)
O2 O 0.4202(5) 0.5135(5) 0.1348(3)
O3 O 0.4715(4) 0.5930(4) 0.1087(3)
N14 N 0.3486(5) 0.3179(6) 0.1104(4)
O4 O 0.3439(5) 0.3584(5) 0.1213(3)
O5 O 0.3572(4) 0.3109(4) 0.0761(3)
O6 O 0.3445(7) 0.2793(7) 0.1332(5)
N15 N 0.2583(3) 0.5108(3) 0.9750(2)
O7 O 0.2823(3) 0.5612(3) 0.9798(2)
O8 O 0.2840(3) 0.4854(3) 0.9789(2)
O9 O 0.2087(3) 0.4845(3) 0.9665(2)
N16 N 0.0921(9) 0.2856(9) 0.0880(6)
O10 O 0.0781(19) 0.2620(16) 0.1240(9)
O11 O 0.1150(9) 0.3308(8) 0.0867(6)
O12 O 0.0652(15) 0.2505(12) 0.0640(9)
O13 O 0.2056(3) 0.6057(3) 0.47011(18)
O14 O 0.1773(7) 0.3187(7) 0.8768(5)
O15 O 0.1797(6) 0.0902(7) 0.0219(5)
O16 O 0.1930(11) 0.0545(10) 0.0907(8)
O17 O 0.1157(10) 0.0168(10) 0.9652(7)
O18 O 0.1964(14) 0.2679(14) 0.2464(10)
O19 O 0.3104(10) 0.2922(10) 0.2119(7)
O20 O 0.1467(4) 0.3663(4) 0.9388(3)
O21 O 0.2803(5) 0.1781(5) 1.0020(4)
O22 O 0.2790(7) 0.3251(7) 0.8869(5)
O24 O 0.0937(9) 0.4129(9) 0.1365(7)
O25 O 0.1307(16) 0.2858(15) 0.3061(11)
O27 O 0.0633(14) 0.3924(14) 0.2214(10)
O29 O 0.0595(17) 0.2984(17) 0.2528(12)
O30 O 0.066(2) 0.172(2) 0.1842(18)
O32 O 0.4129(9) 0.4668(9) 0.2119(7)
O33 O 0.3869(11) 0.3869(11) 0.2500
O34 O 0.168(2) 0.061(2) 0.1820(17)
O36 O 0.104(2) 0.047(2) 0.8931(15)
O37 O 0.0000 0.0000 0.9719(11)
Pd1 Pd 0.22699(3) 0.36104(3) 0.10084(2)
Pd2 Pd 0.02893(2) 0.48655(3) 0.41599(2)
C1 C 0.0683(4) 0.4429(4) 0.3524(3)
H1 H 0.0346 0.4343 0.3402
C2 C 0.1067(4) 0.4351(4) 0.3318(3)
H2 H 0.0993 0.4217 0.3059
C3 C 0.1557(4) 0.4472(4) 0.3497(2)
C4 C 0.1638(4) 0.4651(5) 0.3884(2)
H3 H 0.1961 0.4720 0.4022
C5 C 0.1241(4) 0.4724(5) 0.4061(2)
H4 H 0.1301 0.4855 0.4322
C6 C 0.1852(4) 0.3836(5) 0.1738(3)
H5 H 0.1535 0.3749 0.1586
C7 C 0.1864(5) 0.3978(6) 0.2120(3)
H6 H 0.1557 0.3985 0.2231
C8 C 0.2321(4) 0.4109(4) 0.2342(2)
C9 C 0.2756(4) 0.4087(5) 0.2172(3)
H7 H 0.3077 0.4175 0.2319
C10 C 0.2719(4) 0.3937(5) 0.1786(3)
H8 H 0.3017 0.3918 0.1670
C11 C 0.4314(4) 0.4903(5) 0.3538(3)
H9 H 0.4596 0.4855 0.3423
C12 C 0.3825(4) 0.4710(5) 0.3346(3)
H10 H 0.3771 0.4527 0.3104
C13 C 0.3406(4) 0.4778(4) 0.3504(2)
C14 C 0.3505(4) 0.5033(4) 0.3864(2)
H11 H 0.3226 0.5077 0.3987
C15 C 0.4002(4) 0.5219(4) 0.4042(2)
H12 H 0.4064 0.5398 0.4287
C16 C 0.2011(4) 0.4444(4) 0.3296(2)
C17 C 0.2363(4) 0.4274(4) 0.2761(2)
C18 C 0.2879(4) 0.4588(4) 0.3303(2)
C19 C 0.2174(4) 0.4597(4) 0.0788(2)
H13 H 0.1791 0.4341 0.0767
C20 C 0.2360(4) 0.5156(4) 0.0727(3)
H14 H 0.2105 0.5278 0.0675
C21 C 0.2922(4) 0.5531(4) 0.0743(2)
C22 C 0.3286(4) 0.5336(4) 0.0831(3)
H15 H 0.3672 0.5582 0.0845
C23 C 0.3066(3) 0.4777(4) 0.0897(2)
H16 H 0.3310 0.4645 0.0960
C24 C 0.3142(4) 0.6137(4) 0.0704(2)
C25 C 0.2364(4) 0.3650(4) 0.0133(3)
H17 H 0.2387 0.4000 0.0146
C26 C 0.2401(4) 0.3447(5) -0.0222(3)
H18 H 0.2447 0.3653 -0.0453
C27 C 0.2368(4) 0.2937(5) -0.0239(3)
H19 H 0.2395 0.2791 -0.0483
C28 C 0.2301(4) 0.2657(5) 0.0082(3)
H20 H 0.2286 0.2311 0.0070
C29 C 0.2253(4) 0.2858(4) 0.0441(3)
C30 C 0.2165(4) 0.2571(4) 0.0811(3)
C31 C 0.2125(6) 0.2061(5) 0.0870(5)
H21 H 0.2163 0.1874 0.0652
C32 C 0.2038(7) 0.1825(6) 0.1218(5)
H22 H 0.2029 0.1484 0.1249
C33 C 0.1964(6) 0.2074(6) 0.1521(5)
H23 H 0.1889 0.1904 0.1769
C34 C 0.1994(5) 0.2590(5) 0.1477(4)
H24 H 0.1933 0.2763 0.1694
C35 C -0.0168(4) 0.3707(4) 0.4447(3)
H25 H 0.0115 0.3698 0.4300
C36 C -0.0541(4) 0.3237(4) 0.4653(3)
H26 H -0.0509 0.2915 0.4650
C37 C -0.0957(4) 0.3246(4) 0.4863(3)
H27 H -0.1216 0.2929 0.5003
C38 C -0.0993(4) 0.3720(4) 0.4867(2)
H28 H -0.1281 0.3730 0.5007
C39 C -0.0605(3) 0.4184(4) 0.4664(2)
C40 C -0.0590(3) 0.4712(4) 0.4663(2)
C41 C -0.0956(3) 0.4821(4) 0.4860(2)
H29 H -0.1254 0.4535 0.5000
C42 C -0.0887(4) 0.5342(4) 0.4853(3)
H30 H -0.1135 0.5419 0.4990
C43 C -0.0454(4) 0.5753(4) 0.4644(2)
H31 H -0.0398 0.6116 0.4639
C44 C -0.0104(4) 0.5628(4) 0.4442(2)
H32 H 0.0189 0.5908 0.4294
N1 N 0.0774(3) 0.4620(3) 0.38873(18)
N2 N 0.2273(3) 0.3817(3) 0.1572(2)
N3 N 0.4411(3) 0.5158(3) 0.38820(18)
N4 N 0.1925(3) 0.4272(3) 0.2924(2)
N5 N 0.2840(3) 0.4422(3) 0.29346(19)
N6 N 0.2471(3) 0.4605(3) 0.34951(19)
N7 N 0.2522(3) 0.4410(3) 0.08759(18)
N8 N 0.3688(3) 0.6464(3) 0.07014(19)
N9 N 0.2296(3) 0.3364(3) 0.0464(2)
N10 N 0.2110(3) 0.2834(4) 0.1126(3)
N11 N -0.0198(3) 0.4168(3) 0.44516(19)
N12 N -0.0168(3) 0.5120(3) 0.44505(18)
C19A C 0.5403(4) 0.7577(6) 0.0788(2)
H13A H 0.5659 0.7450 0.0767
C20A C 0.4844(4) 0.7204(6) 0.0727(3)
H14A H 0.4722 0.6827 0.0675
C21A C 0.4469(4) 0.7391(6) 0.0743(2)
C22A C 0.4664(4) 0.7950(6) 0.0831(3)
H15A H 0.4418 0.8090 0.0845
C23A C 0.5223(4) 0.8289(5) 0.0897(2)
H16A H 0.5355 0.8665 0.0960
C24A C 0.3863(4) 0.7005(6) 0.0704(2)
N7A N 0.5590(3) 0.8112(4) 0.08759(18)
N8A N 0.3536(3) 0.7224(4) 0.07014(19)
C19B C 0.2423(6) 0.7826(4) 0.0788(2)
H13B H 0.2550 0.8209 0.0767
C20B C 0.2796(6) 0.7640(4) 0.0727(3)
H14B H 0.3173 0.7895 0.0675
C21B C 0.2609(6) 0.7078(4) 0.0743(2)
C22B C 0.2050(6) 0.6714(4) 0.0831(3)
H15B H 0.1910 0.6328 0.0845
C23B C 0.1711(5) 0.6934(3) 0.0897(2)
H16B H 0.1335 0.6690 0.0960
C24B C 0.2995(6) 0.6858(4) 0.0704(2)
N7B N 0.1888(4) 0.7478(3) 0.08759(18)
N8B N 0.2776(4) 0.6312(3) 0.07014(19)
Pd1A Pd 0.63896(3) 0.86595(4) 0.10084(2)
Pd2A Pd 0.51345(3) 0.54238(4) 0.41599(2)
C1A C 0.5571(4) 0.6254(6) 0.3524(3)
H1A H 0.5657 0.6003 0.3402
C2A C 0.5649(4) 0.6716(6) 0.3318(3)
H2A H 0.5783 0.6776 0.3059
C3A C 0.5528(4) 0.7085(6) 0.3497(2)
C4A C 0.5349(5) 0.6987(6) 0.3884(2)
H3A H 0.5280 0.7241 0.4022
C5A C 0.5276(5) 0.6517(6) 0.4061(2)
H4A H 0.5145 0.6446 0.4322
C6A C 0.6164(5) 0.8016(6) 0.1738(3)
H5A H 0.6251 0.7786 0.1586
C7A C 0.6022(6) 0.7886(8) 0.2120(3)
H6A H 0.6015 0.7572 0.2231
C8A C 0.5891(4) 0.8212(6) 0.2342(2)
C9A C 0.5913(5) 0.8669(6) 0.2172(3)
H7A H 0.5825 0.8902 0.2319
C10A C 0.6063(5) 0.8782(6) 0.1786(3)
H8A H 0.6082 0.9099 0.1670
C11A C 0.5097(5) 0.9411(6) 0.3538(3)
H9A H 0.5145 0.9741 0.3423
C12A C 0.5290(5) 0.9115(6) 0.3346(3)
H10A H 0.5473 0.9244 0.3104
C13A C 0.5222(4) 0.8628(6) 0.3504(2)
C14A C 0.4967(4) 0.8472(6) 0.3864(2)
H11A H 0.4923 0.8149 0.3987
C15A C 0.4781(4) 0.8783(6) 0.4042(2)
H12A H 0.4602 0.8666 0.4287
C16A C 0.5556(4) 0.7567(6) 0.3296(2)
C17A C 0.5726(4) 0.8089(6) 0.2761(2)
C18A C 0.5412(4) 0.8291(6) 0.3303(2)
C25A C 0.6350(4) 0.8714(6) 0.0133(3)
H17A H 0.6000 0.8387 0.0146
C26A C 0.6553(5) 0.8954(6) -0.0222(3)
H18A H 0.6347 0.8794 -0.0453
C27A C 0.7063(5) 0.9431(6) -0.0239(3)
H19A H 0.7209 0.9604 -0.0483
C28A C 0.7343(5) 0.9644(6) 0.0082(3)
H20A H 0.7689 0.9975 0.0070
C29A C 0.7142(4) 0.9395(6) 0.0441(3)
C30A C 0.7429(4) 0.9594(6) 0.0811(3)
C31A C 0.7939(5) 1.0064(8) 0.0870(5)
H21A H 0.8126 1.0289 0.0652
C32A C 0.8175(6) 1.0213(9) 0.1218(5)
H22A H 0.8516 1.0545 0.1249
C33A C 0.7926(6) 0.9890(8) 0.1521(5)
H23A H 0.8096 0.9985 0.1769
C34A C 0.7410(5) 0.9404(7) 0.1477(4)
H24A H 0.7237 0.9170 0.1694
C35A C 0.6293(4) 0.6125(6) 0.4447(3)
H25A H 0.6302 0.6417 0.4300
C36A C 0.6763(4) 0.6222(6) 0.4653(3)
H26A H 0.7085 0.6576 0.4650
C37A C 0.6754(4) 0.5797(6) 0.4863(3)
H27A H 0.7071 0.5855 0.5003
C38A C 0.6280(4) 0.5287(6) 0.4867(2)
H28A H 0.6270 0.4989 0.5007
C39A C 0.5816(4) 0.5211(5) 0.4664(2)
C40A C 0.5288(4) 0.4698(5) 0.4663(2)
C41A C 0.5179(4) 0.4223(5) 0.4860(2)
H29A H 0.5465 0.4211 0.5000
C42A C 0.4658(4) 0.3771(6) 0.4853(3)
H30A H 0.4581 0.3446 0.4990
C43A C 0.4247(4) 0.3793(6) 0.4644(2)
H31A H 0.3884 0.3486 0.4639
C44A C 0.4372(4) 0.4268(6) 0.4442(2)
H32A H 0.4092 0.4281 0.4294
N1A N 0.5380(3) 0.6154(4) 0.38873(18)
N2A N 0.6183(3) 0.8456(4) 0.1572(2)
N3A N 0.4842(3) 0.9253(4) 0.38820(18)
N4A N 0.5728(3) 0.7653(4) 0.2924(2)
N5A N 0.5578(3) 0.8418(4) 0.29346(19)
N6A N 0.5395(3) 0.7866(4) 0.34951(19)
N9A N 0.6636(3) 0.8932(4) 0.0464(2)
N10A N 0.7166(4) 0.9276(5) 0.1126(3)
N11A N 0.5832(3) 0.5634(4) 0.44516(19)
N12A N 0.4880(3) 0.4712(4) 0.44505(18)
Pd1B Pd 0.13405(4) 0.77301(3) 0.10084(2)
Pd2B Pd 0.45762(4) 0.97107(2) 0.41599(2)
C1B C 0.3746(6) 0.9317(4) 0.3524(3)
H1B H 0.3997 0.9654 0.3402
C2B C 0.3284(6) 0.8933(4) 0.3318(3)
H2B H 0.3224 0.9007 0.3059
C3B C 0.2915(6) 0.8443(4) 0.3497(2)
C4B C 0.3013(6) 0.8362(4) 0.3884(2)
H3B H 0.2759 0.8039 0.4022
C5B C 0.3483(6) 0.8759(4) 0.4061(2)
H4B H 0.3554 0.8699 0.4322
C6B C 0.1984(6) 0.8148(4) 0.1738(3)
H5B H 0.2214 0.8465 0.1586
C7B C 0.2114(8) 0.8136(5) 0.2120(3)
H6B H 0.2428 0.8443 0.2231
C8B C 0.1788(6) 0.7679(4) 0.2342(2)
C9B C 0.1331(6) 0.7244(4) 0.2172(3)
H7B H 0.1098 0.6923 0.2319
C10B C 0.1218(6) 0.7281(4) 0.1786(3)
H8B H 0.0901 0.6983 0.1670
C11B C 0.0589(6) 0.5686(4) 0.3538(3)
H9B H 0.0259 0.5404 0.3423
C12B C 0.0885(6) 0.6175(4) 0.3346(3)
H10B H 0.0756 0.6229 0.3104
C13B C 0.1372(6) 0.6594(4) 0.3504(2)
C14B C 0.1528(6) 0.6495(4) 0.3864(2)
H11B H 0.1851 0.6774 0.3987
C15B C 0.1217(6) 0.5998(4) 0.4042(2)
H12B H 0.1334 0.5936 0.4287
C16B C 0.2433(6) 0.7989(4) 0.3296(2)
C17B C 0.1911(6) 0.7637(4) 0.2761(2)
C18B C 0.1709(6) 0.7121(4) 0.3303(2)
C25B C 0.1286(6) 0.7636(4) 0.0133(3)
H17B H 0.1613 0.7613 0.0146
C26B C 0.1046(6) 0.7599(4) -0.0222(3)
H18B H 0.1206 0.7553 -0.0453
C27B C 0.0569(6) 0.7632(4) -0.0239(3)
H19B H 0.0396 0.7605 -0.0483
C28B C 0.0356(6) 0.7699(4) 0.0082(3)
H20B H 0.0025 0.7714 0.0070
C29B C 0.0605(6) 0.7747(4) 0.0441(3)
C30B C 0.0406(6) 0.7835(4) 0.0811(3)
C31B C -0.0064(8) 0.7875(6) 0.0870(5)
H21B H -0.0289 0.7837 0.0652
C32B C -0.0213(9) 0.7962(7) 0.1218(5)
H22B H -0.0545 0.7971 0.1249
C33B C 0.0110(8) 0.8036(6) 0.1521(5)
H23B H 0.0015 0.8111 0.1769
C34B C 0.0596(7) 0.8006(5) 0.1477(4)
H24B H 0.0830 0.8067 0.1694
C35B C 0.3875(6) 1.0168(4) 0.4447(3)
H25B H 0.3583 0.9885 0.4300
C36B C 0.3778(6) 1.0541(4) 0.4653(3)
H26B H 0.3424 1.0509 0.4650
C37B C 0.4203(6) 1.0957(4) 0.4863(3)
H27B H 0.4145 1.1216 0.5003
C38B C 0.4713(6) 1.0993(4) 0.4867(2)
H28B H 0.5011 1.1281 0.5007
C39B C 0.4789(5) 1.0605(3) 0.4664(2)
C40B C 0.5302(5) 1.0590(3) 0.4663(2)
C41B C 0.5777(5) 1.0956(3) 0.4860(2)
H29B H 0.5789 1.1254 0.5000
C42B C 0.6229(6) 1.0887(4) 0.4853(3)
H30B H 0.6554 1.1135 0.4990
C43B C 0.6207(6) 1.0454(4) 0.4644(2)
H31B H 0.6514 1.0398 0.4639
C44B C 0.5732(6) 1.0104(4) 0.4442(2)
H32B H 0.5719 0.9811 0.4294
N1B N 0.3846(4) 0.9226(3) 0.38873(18)
N2B N 0.1544(4) 0.7727(3) 0.1572(2)
N3B N 0.0747(4) 0.5589(3) 0.38820(18)
N4B N 0.2347(4) 0.8075(3) 0.2924(2)
N5B N 0.1582(4) 0.7160(3) 0.29346(19)
N6B N 0.2134(4) 0.7529(3) 0.34951(19)
N9B N 0.1068(4) 0.7704(3) 0.0464(2)
N10B N 0.0724(5) 0.7890(3) 0.1126(3)
N11B N 0.4366(4) 1.0198(3) 0.44516(19)
N12B N 0.5288(4) 1.0168(3) 0.44505(18)
loop_
_geom_bond_atom_site_label_1
_geom_bond_atom_site_label_2
_geom_bond_site_symmetry_1
_geom_bond_site_symmetry_2
Pd1 N2 1_555 1_555
Pd2 N1 1_555 1_555
C1 H1 1_555 1_555
C2 C1 1_555 1_555
H2 C2 1_555 1_555
C3 C2 1_555 1_555
C4 C3 1_555 1_555
H3 C4 1_555 1_555
C5 C4 1_555 1_555
H4 C5 1_555 1_555
C6 H5 1_555 1_555
C7 C6 1_555 1_555
H6 C7 1_555 1_555
C8 C7 1_555 1_555
C9 C8 1_555 1_555
H7 C9 1_555 1_555
C10 C9 1_555 1_555
H8 C10 1_555 1_555
C11 H9 1_555 1_555
C12 C11 1_555 1_555
H10 C12 1_555 1_555
C13 C12 1_555 1_555
C14 C13 1_555 1_555
H11 C14 1_555 1_555
C15 C14 1_555 1_555
H12 C15 1_555 1_555
C16 C3 1_555 1_555
C17 C8 1_555 1_555
C18 C13 1_555 1_555
C19 H13 1_555 1_555
C20 C19 1_555 1_555
H14 C20 1_555 1_555
C21 C20 1_555 1_555
C22 C21 1_555 1_555
H15 C22 1_555 1_555
C23 C22 1_555 1_555
H16 C23 1_555 1_555
C24 C21 1_555 1_555
C25 H17 1_555 1_555
C26 C25 1_555 1_555
H18 C26 1_555 1_555
C27 C26 1_555 1_555
H19 C27 1_555 1_555
C28 C27 1_555 1_555
H20 C28 1_555 1_555
C29 C28 1_555 1_555
C30 C29 1_555 1_555
C31 C30 1_555 1_555
H21 C31 1_555 1_555
C32 C31 1_555 1_555
H22 C32 1_555 1_555
C33 C32 1_555 1_555
H23 C33 1_555 1_555
C34 C33 1_555 1_555
H24 C34 1_555 1_555
C35 H25 1_555 1_555
C36 C35 1_555 1_555
H26 C36 1_555 1_555
C37 C36 1_555 1_555
H27 C37 1_555 1_555
C38 C37 1_555 1_555
H28 C38 1_555 1_555
C39 C38 1_555 1_555
C40 C39 1_555 1_555
C41 C40 1_555 1_555
H29 C41 1_555 1_555
C42 C41 1_555 1_555
H30 C42 1_555 1_555
C43 C42 1_555 1_555
H31 C43 1_555 1_555
C44 C43 1_555 1_555
H32 C44 1_555 1_555
N1 C1 1_555 1_555
N2 C6 1_555 1_555
N3 C11 1_555 1_555
N4 C16 1_555 1_555
N5 C17 1_555 1_555
N6 C16 1_555 1_555
N7 Pd1 1_555 1_555
N8 C24 1_555 1_555
N9 Pd1 1_555 1_555
N10 Pd1 1_555 1_555
N11 Pd2 1_555 1_555
N12 Pd2 1_555 1_555
Ir1 C51A 1_555 1_555
C45 C46 1_555 1_555
C46 H33 1_555 1_555
C47 C46 1_555 1_555
H34 C47 1_555 1_555
C48 C47 1_555 1_555
H35 C48 1_555 1_555
C49 C45 1_555 1_555
H36 C49 1_555 1_555
C50 C45 1_555 1_555
H37 C50 1_555 1_555
H38 C50 1_555 1_555
H39 C50 1_555 1_555
C51 H40 1_555 1_555
C52 C51 1_555 1_555
H41 C52 1_555 1_555
C53 C52 1_555 1_555
H42 C53 1_555 1_555
H43 C53 1_555 1_555
C54 C53 1_555 1_555
H44 C54 1_555 1_555
H45 C54 1_555 1_555
C55 C54 1_555 1_555
H46 C55 1_555 1_555
C56 C55 1_555 1_555
H47 C56 1_555 1_555
C57 C56 1_555 1_555
H48 C57 1_555 1_555
H49 C57 1_555 1_555
C58 C51 1_555 1_555
H50 C58 1_555 1_555
H51 C58 1_555 1_555
N13 O1 1_555 1_555
O2 N13 1_555 1_555
O3 N13 1_555 1_555
N14 O4 1_555 1_555
O5 N14 1_555 1_555
O6 N14 1_555 1_555
N15 O7 1_555 1_555
O8 N15 1_555 1_555
O9 N15 1_555 1_555
N16 O10 1_555 1_555
O11 N16 1_555 1_555
O12 N16 1_555 1_555
C19A H13A 1_555 1_555
C20A C19A 1_555 1_555
H14A C20A 1_555 1_555
C21A C20A 1_555 1_555
C22A C21A 1_555 1_555
H15A C22A 1_555 1_555
C23A C22A 1_555 1_555
H16A C23A 1_555 1_555
C24A N8 1_555 1_555
N7A C19A 1_555 1_555
N8A C24A 1_555 1_555
C19B H13B 1_555 1_555
C20B C19B 1_555 1_555
H14B C20B 1_555 1_555
C21B C20B 1_555 1_555
C22B C21B 1_555 1_555
H15B C22B 1_555 1_555
C23B C22B 1_555 1_555
H16B C23B 1_555 1_555
C24B N8A 1_555 1_555
N7B C19B 1_555 1_555
N8B C24 1_555 1_555
Pd1A N7A 1_555 1_555
Pd2A N3 1_555 1_555
C1A H1A 1_555 1_555
C2A C1A 1_555 1_555
H2A C2A 1_555 1_555
C3A C2A 1_555 1_555
C4A C3A 1_555 1_555
H3A C4A 1_555 1_555
C5A C4A 1_555 1_555
H4A C5A 1_555 1_555
C6A H5A 1_555 1_555
C7A C6A 1_555 1_555
H6A C7A 1_555 1_555
C8A C7A 1_555 1_555
C9A C8A 1_555 1_555
H7A C9A 1_555 1_555
C10A C9A 1_555 1_555
H8A C10A 1_555 1_555
C11A H9A 1_555 1_555
C12A C11A 1_555 1_555
H10A C12A 1_555 1_555
C13A C12A 1_555 1_555
C14A C13A 1_555 1_555
H11A C14A 1_555 1_555
C15A C14A 1_555 1_555
H12A C15A 1_555 1_555
C16A C3A 1_555 1_555
C17A C8A 1_555 1_555
C18A C13A 1_555 1_555
C25A H17A 1_555 1_555
C26A C25A 1_555 1_555
H18A C26A 1_555 1_555
C27A C26A 1_555 1_555
H19A C27A 1_555 1_555
C28A C27A 1_555 1_555
H20A C28A 1_555 1_555
C29A C28A 1_555 1_555
C30A C29A 1_555 1_555
C31A C30A 1_555 1_555
H21A C31A 1_555 1_555
C32A C31A 1_555 1_555
H22A C32A 1_555 1_555
C33A C32A 1_555 1_555
H23A C33A 1_555 1_555
C34A C33A 1_555 1_555
H24A C34A 1_555 1_555
C35A H25A 1_555 1_555
C36A C35A 1_555 1_555
H26A C36A 1_555 1_555
C37A C36A 1_555 1_555
H27A C37A 1_555 1_555
C38A C37A 1_555 1_555
H28A C38A 1_555 1_555
C39A C38A 1_555 1_555
C40A C39A 1_555 1_555
C41A C40A 1_555 1_555
H29A C41A 1_555 1_555
C42A C41A 1_555 1_555
H30A C42A 1_555 1_555
C43A C42A 1_555 1_555
H31A C43A 1_555 1_555
C44A C43A 1_555 1_555
H32A C44A 1_555 1_555
N1A Pd2A 1_555 1_555
N2A Pd1A 1_555 1_555
N3A C11A 1_555 1_555
N4A C16A 1_555 1_555
N5A C17A 1_555 1_555
N6A C16A 1_555 1_555
N9A Pd1A 1_555 1_555
N10A Pd1A 1_555 1_555
N11A Pd2A 1_555 1_555
N12A Pd2A 1_555 1_555
Pd1B N7B 1_555 1_555
Pd2B N3A 1_555 1_555
C1B H1B 1_555 1_555
C2B C1B 1_555 1_555
H2B C2B 1_555 1_555
C3B C2B 1_555 1_555
C4B C3B 1_555 1_555
H3B C4B 1_555 1_555
C5B C4B 1_555 1_555
H4B C5B 1_555 1_555
C6B H5B 1_555 1_555
C7B C6B 1_555 1_555
H6B C7B 1_555 1_555
C8B C7B 1_555 1_555
C9B C8B 1_555 1_555
H7B C9B 1_555 1_555
C10B C9B 1_555 1_555
H8B C10B 1_555 1_555
C11B H9B 1_555 1_555
C12B C11B 1_555 1_555
H10B C12B 1_555 1_555
C13B C12B 1_555 1_555
C14B C13B 1_555 1_555
H11B C14B 1_555 1_555
C15B C14B 1_555 1_555
H12B C15B 1_555 1_555
C16B C3B 1_555 1_555
C17B C8B 1_555 1_555
C18B C13B 1_555 1_555
C25B H17B 1_555 1_555
C26B C25B 1_555 1_555
H18B C26B 1_555 1_555
C27B C26B 1_555 1_555
H19B C27B 1_555 1_555
C28B C27B 1_555 1_555
H20B C28B 1_555 1_555
C29B C28B 1_555 1_555
C30B C29B 1_555 1_555
C31B C30B 1_555 1_555
H21B C31B 1_555 1_555
C32B C31B 1_555 1_555
H22B C32B 1_555 1_555
C33B C32B 1_555 1_555
H23B C33B 1_555 1_555
C34B C33B 1_555 1_555
H24B C34B 1_555 1_555
C35B H25B 1_555 1_555
C36B C35B 1_555 1_555
H26B C36B 1_555 1_555
C37B C36B 1_555 1_555
H27B C37B 1_555 1_555
C38B C37B 1_555 1_555
H28B C38B 1_555 1_555
C39B C38B 1_555 1_555
C40B C39B 1_555 1_555
C41B C40B 1_555 1_555
H29B C41B 1_555 1_555
C42B C41B 1_555 1_555
H30B C42B 1_555 1_555
C43B C42B 1_555 1_555
H31B C43B 1_555 1_555
C44B C43B 1_555 1_555
H32B C44B 1_555 1_555
N1B Pd2B 1_555 1_555
N2B Pd1B 1_555 1_555
N3B Pd2 1_555 1_555
N4B C16B 1_555 1_555
N5B C17B 1_555 1_555
N6B C16B 1_555 1_555
N9B Pd1B 1_555 1_555
N10B Pd1B 1_555 1_555
N11B Pd2B 1_555 1_555
N12B Pd2B 1_555 1_555
C51A H40A 1_555 1_555
C52A Ir1 1_555 1_555
H41A C52A 1_555 1_555
C53A C52A 1_555 1_555
H42A C53A 1_555 1_555
H43A C53A 1_555 1_555
C54A C53A 1_555 1_555
H44A C54A 1_555 1_555
H45A C54A 1_555 1_555
C55A Ir1 1_555 1_555
H46A C55A 1_555 1_555
C56A C55A 1_555 1_555
H47A C56A 1_555 1_555
C57A C56A 1_555 1_555
H48A C57A 1_555 1_555
H49A C57A 1_555 1_555
C58A C51A 1_555 1_555
H50A C58A 1_555 1_555
H51A C58A 1_555 1_555
C45A Ir1 1_555 1_555
C46A Ir1 1_555 1_555
H33A C46A 1_555 1_555
C47A Ir1 1_555 1_555
H34A C47A 1_555 1_555
C48A Ir1 1_555 1_555
H35A C48A 1_555 1_555
C49A Ir1 1_555 1_555
H36A C48 1_555 1_555
C50A C55 1_555 1_555
H37A C50A 1_555 1_555
H38A C55 1_555 1_555
H39A C50A 1_555 1_555
C51B H40B 1_555 1_555
C52B C51B 1_555 1_555
H41B C52B 1_555 1_555
C53B C52B 1_555 1_555
H42B C53B 1_555 1_555
H43B C53B 1_555 1_555
C54B C53B 1_555 1_555
H44B C54B 1_555 1_555
H45B C54B 1_555 1_555
C55B C50 1_555 1_555
H46B C50 1_555 1_555
C56B H38 1_555 1_555
H47B C56B 1_555 1_555
C57B C56B 1_555 1_555
H48B C57B 1_555 1_555
H49B C57B 1_555 1_555
C58B C51B 1_555 1_555
H50B C58B 1_555 1_555
H51B C58B 1_555 1_555
C45B C48A 1_555 1_555
C46B C45B 1_555 1_555
H33B C46B 1_555 1_555
C47B C46B 1_555 1_555
H34B C47B 1_555 1_555
C48B C45 1_555 1_555
H35B C45 1_555 1_555
C49B C49 1_555 1_555
H36B C49 1_555 1_555
C50B Ir1 1_555 1_555
H37B C50B 1_555 1_555
H38B C55A 1_555 1_555
H39B C50B 1_555 1_555
Ir1A C50 1_555 1_555
Ir1B C45 1_555 1_555
C5 N1 1_555 1_555
C10 N2 1_555 1_555
C15 N3 1_555 1_555
C17 N4 1_555 1_555
C18 N5 1_555 1_555
C18 N6 1_555 1_555
C19 N7 1_555 1_555
C23 N7 1_555 1_555
C25 N9 1_555 1_555
C29 N9 1_555 1_555
C30 N10 1_555 1_555
C34 N10 1_555 1_555
C35 N11 1_555 1_555
C39 N11 1_555 1_555
C40 N12 1_555 1_555
C44 N12 1_555 1_555
C46 Ir1B 1_555 1_555
C47 Ir1B 1_555 1_555
C48 C49 1_555 1_555
C48 C45A 1_555 1_555
C48 C49A 1_555 1_555
C48 Ir1B 1_555 1_555
H35 C45A 1_555 1_555
H35 C49A 1_555 1_555
C49 C49A 1_555 1_555
C49 H36A 1_555 1_555
C49 C48B 1_555 1_555
C49 H35B 1_555 1_555
C49 Ir1B 1_555 1_555
H36 C49A 1_555 1_555
H36 C48B 1_555 1_555
H36 C49B 1_555 1_555
H38 C55B 1_555 1_555
C51 Ir1B 1_555 1_555
C52 Ir1B 1_555 1_555
C55 Ir1B 1_555 1_555
H46 C50A 1_555 1_555
C56 H38A 1_555 1_555
C57 C58 1_555 1_555
C21A C24A 1_555 1_555
C23A N7A 1_555 1_555
C21B C24B 1_555 1_555
C23B N7B 1_555 1_555
C24B N8B 1_555 1_555
C1A N1A 1_555 1_555
C5A N1A 1_555 1_555
C6A N2A 1_555 1_555
C10A N2A 1_555 1_555
C15A N3A 1_555 1_555
C17A N4A 1_555 1_555
C18A N5A 1_555 1_555
C18A N6A 1_555 1_555
C25A N9A 1_555 1_555
C29A N9A 1_555 1_555
C30A N10A 1_555 1_555
C34A N10A 1_555 1_555
C35A N11A 1_555 1_555
C39A N11A 1_555 1_555
C40A N12A 1_555 1_555
C44A N12A 1_555 1_555
C1B N1B 1_555 1_555
C5B N1B 1_555 1_555
C6B N2B 1_555 1_555
C10B N2B 1_555 1_555
C11B N3B 1_555 1_555
C15B N3B 1_555 1_555
C17B N4B 1_555 1_555
C18B N5B 1_555 1_555
C18B N6B 1_555 1_555
C25B N9B 1_555 1_555
C29B N9B 1_555 1_555
C30B N10B 1_555 1_555
C34B N10B 1_555 1_555
C35B N11B 1_555 1_555
C39B N11B 1_555 1_555
C40B N12B 1_555 1_555
C44B N12B 1_555 1_555
C51A C52A 1_555 1_555
C54A C55A 1_555 1_555
C55A C50B 1_555 1_555
H46A C50B 1_555 1_555
C56A H38B 1_555 1_555
C57A C58A 1_555 1_555
C45A C46A 1_555 1_555
C45A C49A 1_555 1_555
C45A C50A 1_555 1_555
C46A C47A 1_555 1_555
C47A C48A 1_555 1_555
C48A C49A 1_555 1_555
C48A C49B 1_555 1_555
C48A H36B 1_555 1_555
H35A C45B 1_555 1_555
H35A C49B 1_555 1_555
C49A H36A 1_555 1_555
C49A C49B 1_555 1_555
C49A H36B 1_555 1_555
H36A C49B 1_555 1_555
C50A H38A 1_555 1_555
C50A Ir1B 1_555 1_555
C51B Ir1A 1_555 1_555
C52B Ir1A 1_555 1_555
C54B C55B 1_555 1_555
C55B H46B 1_555 1_555
C55B C56B 1_555 1_555
C55B Ir1A 1_555 1_555
C57B C58B 1_555 1_555
C45B C49B 1_555 1_555
C45B C50B 1_555 1_555
C45B Ir1A 1_555 1_555
C46B Ir1A 1_555 1_555
C47B C48B 1_555 1_555
C47B Ir1A 1_555 1_555
C48B H35B 1_555 1_555
C48B C49B 1_555 1_555
C48B Ir1A 1_555 1_555
C49B H36B 1_555 1_555
C49B Ir1A 1_555 1_555
C50B H38B 1_555 1_555

#END
