# generated using pymatgen
data_H378Ir6Pd12C456N96O215
_symmetry_space_group_name_H-M   'P 1'
_cell_length_a   28.00800000
_cell_length_b   28.00800000
_cell_length_c   34.37400000
_cell_angle_alpha   90.00000000
_cell_angle_beta   90.00000000
_cell_angle_gamma   120.00000000
_symmetry_Int_Tables_number   1
_chemical_formula_structural   H378Ir6Pd12C456N96O215
_chemical_formula_sum   'H756 Ir12 Pd24 C912 N192 O430'
_cell_volume   23352.04397651
_cell_formula_units_Z   2
loop_
 _symmetry_equiv_pos_site_id
 _symmetry_equiv_pos_as_xyz
  1  'x, y, z'
loop_
 _atom_site_type_symbol
 _atom_site_label
 _atom_site_symmetry_multiplicity
 _atom_site_fract_x
 _atom_site_fract_y
 _atom_site_fract_z
 _atom_site_occupancy
  H  H1  1  0.564500  0.371200  0.173300  1
  H  H2  1  0.806700  0.435500  0.173300  1
  H  H3  1  0.628800  0.193300  0.173300  1
  H  H4  1  0.193300  0.628800  0.326700  1
  H  H5  1  0.371200  0.564500  0.326700  1
  H  H6  1  0.435500  0.806700  0.326700  1
  H  H7  1  0.435500  0.628800  0.826700  1
  H  H8  1  0.193300  0.564500  0.826700  1
  H  H9  1  0.371200  0.806700  0.826700  1
  H  H10  1  0.806700  0.371200  0.673300  1
  H  H11  1  0.628800  0.435500  0.673300  1
  H  H12  1  0.564500  0.193300  0.673300  1
  H  H13  1  0.597000  0.364800  0.111500  1
  H  H14  1  0.767800  0.403000  0.111500  1
  H  H15  1  0.635200  0.232200  0.111500  1
  H  H16  1  0.232200  0.635200  0.388500  1
  H  H17  1  0.364800  0.597000  0.388500  1
  H  H18  1  0.403000  0.767800  0.388500  1
  H  H19  1  0.403000  0.635200  0.888500  1
  H  H20  1  0.232200  0.597000  0.888500  1
  H  H21  1  0.364800  0.767800  0.888500  1
  H  H22  1  0.767800  0.364800  0.611500  1
  H  H23  1  0.635200  0.403000  0.611500  1
  H  H24  1  0.597000  0.232200  0.611500  1
  H  H25  1  0.630300  0.304700  0.097400  1
  H  H26  1  0.674400  0.369700  0.097400  1
  H  H27  1  0.695300  0.325600  0.097400  1
  H  H28  1  0.325600  0.695300  0.402600  1
  H  H29  1  0.304700  0.630300  0.402600  1
  H  H30  1  0.369700  0.674400  0.402600  1
  H  H31  1  0.369700  0.695300  0.902600  1
  H  H32  1  0.325600  0.630300  0.902600  1
  H  H33  1  0.304700  0.674400  0.902600  1
  H  H34  1  0.674400  0.304700  0.597400  1
  H  H35  1  0.695300  0.369700  0.597400  1
  H  H36  1  0.630300  0.325600  0.597400  1
  H  H37  1  0.618400  0.237800  0.145700  1
  H  H38  1  0.619400  0.381600  0.145700  1
  H  H39  1  0.762200  0.380600  0.145700  1
  H  H40  1  0.380600  0.762200  0.354300  1
  H  H41  1  0.237800  0.618400  0.354300  1
  H  H42  1  0.381600  0.619400  0.354300  1
  H  H43  1  0.381600  0.762200  0.854300  1
  H  H44  1  0.380600  0.618400  0.854300  1
  H  H45  1  0.237800  0.619400  0.854300  1
  H  H46  1  0.619400  0.237800  0.645700  1
  H  H47  1  0.762200  0.381600  0.645700  1
  H  H48  1  0.618400  0.380600  0.645700  1
  H  H49  1  0.626800  0.196400  0.186700  1
  H  H50  1  0.569600  0.373200  0.186700  1
  H  H51  1  0.803600  0.430400  0.186700  1
  H  H52  1  0.430400  0.803600  0.313300  1
  H  H53  1  0.196400  0.626800  0.313300  1
  H  H54  1  0.373200  0.569600  0.313300  1
  H  H55  1  0.373200  0.803600  0.813300  1
  H  H56  1  0.430400  0.626800  0.813300  1
  H  H57  1  0.196400  0.569600  0.813300  1
  H  H58  1  0.569600  0.196400  0.686700  1
  H  H59  1  0.803600  0.373200  0.686700  1
  H  H60  1  0.626800  0.430400  0.686700  1
  H  H61  1  0.625600  0.137300  0.235200  1
  H  H62  1  0.511700  0.374400  0.235200  1
  H  H63  1  0.862700  0.488300  0.235200  1
  H  H64  1  0.488300  0.862700  0.264800  1
  H  H65  1  0.137300  0.625600  0.264800  1
  H  H66  1  0.374400  0.511700  0.264800  1
  H  H67  1  0.374400  0.862700  0.764800  1
  H  H68  1  0.488300  0.625600  0.764800  1
  H  H69  1  0.137300  0.511700  0.764800  1
  H  H70  1  0.511700  0.137300  0.735200  1
  H  H71  1  0.862700  0.374400  0.735200  1
  H  H72  1  0.625600  0.488300  0.735200  1
  H  H73  1  0.587500  0.137100  0.296800  1
  H  H74  1  0.549600  0.412500  0.296800  1
  H  H75  1  0.862900  0.450400  0.296800  1
  H  H76  1  0.450400  0.862900  0.203200  1
  H  H77  1  0.137100  0.587500  0.203200  1
  H  H78  1  0.412500  0.549600  0.203200  1
  H  H79  1  0.412500  0.862900  0.703200  1
  H  H80  1  0.450400  0.587500  0.703200  1
  H  H81  1  0.137100  0.549600  0.703200  1
  H  H82  1  0.549600  0.137100  0.796800  1
  H  H83  1  0.862900  0.412500  0.796800  1
  H  H84  1  0.587500  0.450400  0.796800  1
  H  H85  1  0.588600  0.221300  0.313200  1
  H  H86  1  0.632700  0.411400  0.313200  1
  H  H87  1  0.778700  0.367300  0.313200  1
  H  H88  1  0.367300  0.778700  0.186800  1
  H  H89  1  0.221300  0.588600  0.186800  1
  H  H90  1  0.411400  0.632700  0.186800  1
  H  H91  1  0.411400  0.778700  0.686800  1
  H  H92  1  0.367300  0.588600  0.686800  1
  H  H93  1  0.221300  0.632700  0.686800  1
  H  H94  1  0.632700  0.221300  0.813200  1
  H  H95  1  0.778700  0.411400  0.813200  1
  H  H96  1  0.588600  0.367300  0.813200  1
  H  H97  1  0.540900  0.370700  0.223900  1
  H  H98  1  0.829800  0.459100  0.223900  1
  H  H99  1  0.629300  0.170200  0.223900  1
  H  H100  1  0.170200  0.629300  0.276100  1
  H  H101  1  0.370700  0.540900  0.276100  1
  H  H102  1  0.459100  0.829800  0.276100  1
  H  H103  1  0.459100  0.629300  0.776100  1
  H  H104  1  0.170200  0.540900  0.776100  1
  H  H105  1  0.370700  0.829800  0.776100  1
  H  H106  1  0.829800  0.370700  0.723900  1
  H  H107  1  0.629300  0.459100  0.723900  1
  H  H108  1  0.540900  0.170200  0.723900  1
  H  H109  1  0.503200  0.372700  0.284800  1
  H  H110  1  0.869500  0.496800  0.284800  1
  H  H111  1  0.627300  0.130500  0.284800  1
  H  H112  1  0.130500  0.627300  0.215200  1
  H  H113  1  0.372700  0.503200  0.215200  1
  H  H114  1  0.496800  0.869500  0.215200  1
  H  H115  1  0.496800  0.627300  0.715200  1
  H  H116  1  0.130500  0.503200  0.715200  1
  H  H117  1  0.372700  0.869500  0.715200  1
  H  H118  1  0.869500  0.372700  0.784800  1
  H  H119  1  0.627300  0.496800  0.784800  1
  H  H120  1  0.503200  0.130500  0.784800  1
  H  H121  1  0.507300  0.319100  0.336500  1
  H  H122  1  0.811800  0.492700  0.336500  1
  H  H123  1  0.680900  0.188200  0.336500  1
  H  H124  1  0.188200  0.680900  0.163500  1
  H  H125  1  0.319100  0.507300  0.163500  1
  H  H126  1  0.492700  0.811800  0.163500  1
  H  H127  1  0.492700  0.680900  0.663500  1
  H  H128  1  0.188200  0.507300  0.663500  1
  H  H129  1  0.319100  0.811800  0.663500  1
  H  H130  1  0.811800  0.319100  0.836500  1
  H  H131  1  0.680900  0.492700  0.836500  1
  H  H132  1  0.507300  0.188200  0.836500  1
  H  H133  1  0.534900  0.254300  0.323100  1
  H  H134  1  0.719400  0.465100  0.323100  1
  H  H135  1  0.745700  0.280600  0.323100  1
  H  H136  1  0.280600  0.745700  0.176900  1
  H  H137  1  0.254300  0.534900  0.176900  1
  H  H138  1  0.465100  0.719400  0.176900  1
  H  H139  1  0.465100  0.745700  0.676900  1
  H  H140  1  0.280600  0.534900  0.676900  1
  H  H141  1  0.254300  0.719400  0.676900  1
  H  H142  1  0.719400  0.254300  0.823100  1
  H  H143  1  0.745700  0.465100  0.823100  1
  H  H144  1  0.534900  0.280600  0.823100  1
  H  H145  1  0.516200  0.290600  0.335100  1.0
  H  H146  1  0.774400  0.483800  0.335100  1.0
  H  H147  1  0.709400  0.225600  0.335100  1.0
  H  H148  1  0.225600  0.709400  0.164900  1.0
  H  H149  1  0.290600  0.516200  0.164900  1.0
  H  H150  1  0.483800  0.774400  0.164900  1.0
  H  H151  1  0.483800  0.709400  0.664900  1.0
  H  H152  1  0.225600  0.516200  0.664900  1.0
  H  H153  1  0.290600  0.774400  0.664900  1.0
  H  H154  1  0.774400  0.290600  0.835100  1.0
  H  H155  1  0.709400  0.483800  0.835100  1.0
  H  H156  1  0.516200  0.225600  0.835100  1.0
  H  H157  1  0.591700  0.388600  0.359700  1.0
  H  H158  1  0.796900  0.408300  0.359700  1.0
  H  H159  1  0.611400  0.203100  0.359700  1.0
  H  H160  1  0.203100  0.611400  0.140300  1.0
  H  H161  1  0.388600  0.591700  0.140300  1.0
  H  H162  1  0.408300  0.796900  0.140300  1.0
  H  H163  1  0.408300  0.611400  0.640300  1.0
  H  H164  1  0.203100  0.591700  0.640300  1.0
  H  H165  1  0.388600  0.796900  0.640300  1.0
  H  H166  1  0.796900  0.388600  0.859700  1.0
  H  H167  1  0.611400  0.408300  0.859700  1.0
  H  H168  1  0.591700  0.203100  0.859700  1.0
  H  H169  1  0.681100  0.395800  0.339700  1.0
  H  H170  1  0.714700  0.318900  0.339700  1.0
  H  H171  1  0.604200  0.285300  0.339700  1.0
  H  H172  1  0.285300  0.604200  0.160300  1.0
  H  H173  1  0.395800  0.681100  0.160300  1.0
  H  H174  1  0.318900  0.714700  0.160300  1.0
  H  H175  1  0.318900  0.604200  0.660300  1.0
  H  H176  1  0.285300  0.681100  0.660300  1.0
  H  H177  1  0.395800  0.714700  0.660300  1.0
  H  H178  1  0.714700  0.395800  0.839700  1.0
  H  H179  1  0.604200  0.318900  0.839700  1.0
  H  H180  1  0.681100  0.285300  0.839700  1.0
  H  H181  1  0.665000  0.312200  0.312100  1.0
  H  H182  1  0.647200  0.335000  0.312100  1.0
  H  H183  1  0.687800  0.352800  0.312100  1.0
  H  H184  1  0.352800  0.687800  0.187900  1.0
  H  H185  1  0.312200  0.665000  0.187900  1.0
  H  H186  1  0.335000  0.647200  0.187900  1.0
  H  H187  1  0.335000  0.687800  0.687900  1.0
  H  H188  1  0.352800  0.665000  0.687900  1.0
  H  H189  1  0.312200  0.647200  0.687900  1.0
  H  H190  1  0.647200  0.312200  0.812100  1.0
  H  H191  1  0.687800  0.335000  0.812100  1.0
  H  H192  1  0.665000  0.352800  0.812100  1.0
  H  H193  1  0.517200  0.202900  0.306100  1.0
  H  H194  1  0.685700  0.482800  0.306100  1.0
  H  H195  1  0.797100  0.314300  0.306100  1.0
  H  H196  1  0.314300  0.797100  0.193900  1.0
  H  H197  1  0.202900  0.517200  0.193900  1.0
  H  H198  1  0.482800  0.685700  0.193900  1.0
  H  H199  1  0.482800  0.797100  0.693900  1.0
  H  H200  1  0.314300  0.517200  0.693900  1.0
  H  H201  1  0.202900  0.685700  0.693900  1.0
  H  H202  1  0.685700  0.202900  0.806100  1.0
  H  H203  1  0.797100  0.482800  0.806100  1.0
  H  H204  1  0.517200  0.314300  0.806100  1.0
  H  H205  1  0.568400  0.219300  0.277700  1.0
  H  H206  1  0.650900  0.431600  0.277700  1.0
  H  H207  1  0.780700  0.349100  0.277700  1.0
  H  H208  1  0.349100  0.780700  0.222300  1.0
  H  H209  1  0.219300  0.568400  0.222300  1.0
  H  H210  1  0.431600  0.650900  0.222300  1.0
  H  H211  1  0.431600  0.780700  0.722300  1.0
  H  H212  1  0.349100  0.568400  0.722300  1.0
  H  H213  1  0.219300  0.650900  0.722300  1.0
  H  H214  1  0.650900  0.219300  0.777700  1.0
  H  H215  1  0.780700  0.431600  0.777700  1.0
  H  H216  1  0.568400  0.349100  0.777700  1.0
  H  H217  1  0.569900  0.200400  0.321400  1.0
  H  H218  1  0.630500  0.430100  0.321400  1.0
  H  H219  1  0.799600  0.369500  0.321400  1.0
  H  H220  1  0.369500  0.799600  0.178600  1.0
  H  H221  1  0.200400  0.569900  0.178600  1.0
  H  H222  1  0.430100  0.630500  0.178600  1.0
  H  H223  1  0.430100  0.799600  0.678600  1.0
  H  H224  1  0.369500  0.569900  0.678600  1.0
  H  H225  1  0.200400  0.630500  0.678600  1.0
  H  H226  1  0.630500  0.200400  0.821400  1.0
  H  H227  1  0.799600  0.430100  0.821400  1.0
  H  H228  1  0.569900  0.369500  0.821400  1.0
  H  H229  1  0.553600  0.285900  0.233300  1.0
  H  H230  1  0.732300  0.446400  0.233300  1.0
  H  H231  1  0.714100  0.267700  0.233300  1.0
  H  H232  1  0.267700  0.714100  0.266700  1.0
  H  H233  1  0.285900  0.553600  0.266700  1.0
  H  H234  1  0.446400  0.732300  0.266700  1.0
  H  H235  1  0.446400  0.714100  0.766700  1.0
  H  H236  1  0.267700  0.553600  0.766700  1.0
  H  H237  1  0.285900  0.732300  0.766700  1.0
  H  H238  1  0.732300  0.285900  0.733300  1.0
  H  H239  1  0.714100  0.446400  0.733300  1.0
  H  H240  1  0.553600  0.267700  0.733300  1.0
  H  H241  1  0.513900  0.332000  0.267800  1.0
  H  H242  1  0.818100  0.486100  0.267800  1.0
  H  H243  1  0.668000  0.181900  0.267800  1.0
  H  H244  1  0.181900  0.668000  0.232200  1.0
  H  H245  1  0.332000  0.513900  0.232200  1.0
  H  H246  1  0.486100  0.818100  0.232200  1.0
  H  H247  1  0.486100  0.668000  0.732200  1.0
  H  H248  1  0.181900  0.513900  0.732200  1.0
  H  H249  1  0.332000  0.818100  0.732200  1.0
  H  H250  1  0.818100  0.332000  0.767800  1.0
  H  H251  1  0.668000  0.486100  0.767800  1.0
  H  H252  1  0.513900  0.181900  0.767800  1.0
  H  H253  1  0.563000  0.408200  0.199300  1.0
  H  H254  1  0.845200  0.437000  0.199300  1.0
  H  H255  1  0.591800  0.154800  0.199300  1.0
  H  H256  1  0.154800  0.591800  0.300700  1.0
  H  H257  1  0.408200  0.563000  0.300700  1.0
  H  H258  1  0.437000  0.845200  0.300700  1.0
  H  H259  1  0.437000  0.591800  0.800700  1.0
  H  H260  1  0.154800  0.563000  0.800700  1.0
  H  H261  1  0.408200  0.845200  0.800700  1.0
  H  H262  1  0.845200  0.408200  0.699300  1.0
  H  H263  1  0.591800  0.437000  0.699300  1.0
  H  H264  1  0.563000  0.154800  0.699300  1.0
  H  H265  1  0.517000  0.409400  0.226500  1.0
  H  H266  1  0.892400  0.483000  0.226500  1.0
  H  H267  1  0.590600  0.107600  0.226500  1.0
  H  H268  1  0.107600  0.590600  0.273500  1.0
  H  H269  1  0.409400  0.517000  0.273500  1.0
  H  H270  1  0.483000  0.892400  0.273500  1.0
  H  H271  1  0.483000  0.590600  0.773500  1.0
  H  H272  1  0.107600  0.517000  0.773500  1.0
  H  H273  1  0.409400  0.892400  0.773500  1.0
  H  H274  1  0.892400  0.409400  0.726500  1.0
  H  H275  1  0.590600  0.483000  0.726500  1.0
  H  H276  1  0.517000  0.107600  0.726500  1.0
  H  H277  1  0.577900  0.464900  0.269800  1.0
  H  H278  1  0.887000  0.422100  0.269800  1.0
  H  H279  1  0.535100  0.113000  0.269800  1.0
  H  H280  1  0.113000  0.535100  0.230200  1.0
  H  H281  1  0.464900  0.577900  0.230200  1.0
  H  H282  1  0.422100  0.887000  0.230200  1.0
  H  H283  1  0.422100  0.535100  0.730200  1.0
  H  H284  1  0.113000  0.577900  0.730200  1.0
  H  H285  1  0.464900  0.887000  0.730200  1.0
  H  H286  1  0.887000  0.464900  0.769800  1.0
  H  H287  1  0.535100  0.422100  0.769800  1.0
  H  H288  1  0.577900  0.113000  0.769800  1.0
  H  H289  1  0.616000  0.485300  0.231900  1.0
  H  H290  1  0.869300  0.384000  0.231900  1.0
  H  H291  1  0.514700  0.130700  0.231900  1.0
  H  H292  1  0.130700  0.514700  0.268100  1.0
  H  H293  1  0.485300  0.616000  0.268100  1.0
  H  H294  1  0.384000  0.869300  0.268100  1.0
  H  H295  1  0.384000  0.514700  0.768100  1.0
  H  H296  1  0.130700  0.616000  0.768100  1.0
  H  H297  1  0.485300  0.869300  0.768100  1.0
  H  H298  1  0.869300  0.485300  0.731900  1.0
  H  H299  1  0.514700  0.384000  0.731900  1.0
  H  H300  1  0.616000  0.130700  0.731900  1.0
  H  H301  1  0.640600  0.446300  0.295900  1.0
  H  H302  1  0.805700  0.359400  0.295900  1.0
  H  H303  1  0.553700  0.194300  0.295900  1.0
  H  H304  1  0.194300  0.553700  0.204100  1.0
  H  H305  1  0.446300  0.640600  0.204100  1.0
  H  H306  1  0.359400  0.805700  0.204100  1.0
  H  H307  1  0.359400  0.553700  0.704100  1.0
  H  H308  1  0.194300  0.640600  0.704100  1.0
  H  H309  1  0.446300  0.805700  0.704100  1.0
  H  H310  1  0.805700  0.446300  0.795900  1.0
  H  H311  1  0.553700  0.359400  0.795900  1.0
  H  H312  1  0.640600  0.194300  0.795900  1.0
  H  H313  1  0.694900  0.413800  0.258500  1.0
  H  H314  1  0.718900  0.305100  0.258500  1.0
  H  H315  1  0.586200  0.281100  0.258500  1.0
  H  H316  1  0.281100  0.586200  0.241500  1.0
  H  H317  1  0.413800  0.694900  0.241500  1.0
  H  H318  1  0.305100  0.718900  0.241500  1.0
  H  H319  1  0.305100  0.586200  0.741500  1.0
  H  H320  1  0.281100  0.694900  0.741500  1.0
  H  H321  1  0.413800  0.718900  0.741500  1.0
  H  H322  1  0.718900  0.413800  0.758500  1.0
  H  H323  1  0.586200  0.305100  0.758500  1.0
  H  H324  1  0.694900  0.281100  0.758500  1.0
  H  H325  1  0.648700  0.430900  0.186700  1.0
  H  H326  1  0.782200  0.351300  0.186700  1.0
  H  H327  1  0.569100  0.217800  0.186700  1.0
  H  H328  1  0.217800  0.569100  0.313300  1.0
  H  H329  1  0.430900  0.648700  0.313300  1.0
  H  H330  1  0.351300  0.782200  0.313300  1.0
  H  H331  1  0.351300  0.569100  0.813300  1.0
  H  H332  1  0.217800  0.648700  0.813300  1.0
  H  H333  1  0.430900  0.782200  0.813300  1.0
  H  H334  1  0.782200  0.430900  0.686700  1.0
  H  H335  1  0.569100  0.351300  0.686700  1.0
  H  H336  1  0.648700  0.217800  0.686700  1.0
  H  H337  1  0.690000  0.406800  0.187600  1.0
  H  H338  1  0.716800  0.310000  0.187600  1.0
  H  H339  1  0.593200  0.283200  0.187600  1.0
  H  H340  1  0.283200  0.593200  0.312400  1.0
  H  H341  1  0.406800  0.690000  0.312400  1.0
  H  H342  1  0.310000  0.716800  0.312400  1.0
  H  H343  1  0.310000  0.593200  0.812400  1.0
  H  H344  1  0.283200  0.690000  0.812400  1.0
  H  H345  1  0.406800  0.716800  0.812400  1.0
  H  H346  1  0.716800  0.406800  0.687600  1.0
  H  H347  1  0.593200  0.310000  0.687600  1.0
  H  H348  1  0.690000  0.283200  0.687600  1.0
  H  H349  1  0.590500  0.345900  0.170600  1.0
  H  H350  1  0.755400  0.409500  0.170600  1.0
  H  H351  1  0.654100  0.244600  0.170600  1.0
  H  H352  1  0.244600  0.654100  0.329400  1.0
  H  H353  1  0.345900  0.590500  0.329400  1.0
  H  H354  1  0.409500  0.755400  0.329400  1.0
  H  H355  1  0.409500  0.654100  0.829400  1.0
  H  H356  1  0.244600  0.590500  0.829400  1.0
  H  H357  1  0.345900  0.755400  0.829400  1.0
  H  H358  1  0.755400  0.345900  0.670600  1.0
  H  H359  1  0.654100  0.409500  0.670600  1.0
  H  H360  1  0.590500  0.244600  0.670600  1.0
  H  H361  1  0.624100  0.322100  0.192600  1.0
  H  H362  1  0.698000  0.375900  0.192600  1.0
  H  H363  1  0.677900  0.302000  0.192600  1.0
  H  H364  1  0.302000  0.677900  0.307400  1.0
  H  H365  1  0.322100  0.624100  0.307400  1.0
  H  H366  1  0.375900  0.698000  0.307400  1.0
  H  H367  1  0.375900  0.677900  0.807400  1.0
  H  H368  1  0.302000  0.624100  0.807400  1.0
  H  H369  1  0.322100  0.698000  0.807400  1.0
  H  H370  1  0.698000  0.322100  0.692600  1.0
  H  H371  1  0.677900  0.375900  0.692600  1.0
  H  H372  1  0.624100  0.302000  0.692600  1.0
  H  H373  1  0.965400  0.399700  0.659800  1.0
  H  H374  1  0.434300  0.034600  0.659800  1.0
  H  H375  1  0.600300  0.565700  0.659800  1.0
  H  H376  1  0.565700  0.600300  0.840200  1.0
  H  H377  1  0.399700  0.965400  0.840200  1.0
  H  H378  1  0.034600  0.434300  0.840200  1.0
  H  H379  1  0.034600  0.600300  0.340200  1.0
  H  H380  1  0.565700  0.965400  0.340200  1.0
  H  H381  1  0.399700  0.434300  0.340200  1.0
  H  H382  1  0.434300  0.399700  0.159800  1.0
  H  H383  1  0.600300  0.034600  0.159800  1.0
  H  H384  1  0.965400  0.565700  0.159800  1.0
  H  H385  1  0.900700  0.322400  0.694100  1.0
  H  H386  1  0.421700  0.099300  0.694100  1.0
  H  H387  1  0.677600  0.578300  0.694100  1.0
  H  H388  1  0.578300  0.677600  0.805900  1.0
  H  H389  1  0.322400  0.900700  0.805900  1.0
  H  H390  1  0.099300  0.421700  0.805900  1.0
  H  H391  1  0.099300  0.677600  0.305900  1.0
  H  H392  1  0.578300  0.900700  0.305900  1.0
  H  H393  1  0.322400  0.421700  0.305900  1.0
  H  H394  1  0.421700  0.322400  0.194100  1.0
  H  H395  1  0.677600  0.099300  0.194100  1.0
  H  H396  1  0.900700  0.578300  0.194100  1.0
  H  H397  1  0.803900  0.275900  0.597800  1.0
  H  H398  1  0.472000  0.196100  0.597800  1.0
  H  H399  1  0.724100  0.528000  0.597800  1.0
  H  H400  1  0.528000  0.724100  0.902200  1.0
  H  H401  1  0.275900  0.803900  0.902200  1.0
  H  H402  1  0.196100  0.472000  0.902200  1.0
  H  H403  1  0.196100  0.724100  0.402200  1.0
  H  H404  1  0.528000  0.803900  0.402200  1.0
  H  H405  1  0.275900  0.472000  0.402200  1.0
  H  H406  1  0.472000  0.275900  0.097800  1.0
  H  H407  1  0.724100  0.196100  0.097800  1.0
  H  H408  1  0.803900  0.528000  0.097800  1.0
  H  H409  1  0.869900  0.355400  0.567800  1.0
  H  H410  1  0.485500  0.130100  0.567800  1.0
  H  H411  1  0.644600  0.514500  0.567800  1.0
  H  H412  1  0.514500  0.644600  0.932200  1.0
  H  H413  1  0.355400  0.869900  0.932200  1.0
  H  H414  1  0.130100  0.485500  0.932200  1.0
  H  H415  1  0.130100  0.644600  0.432200  1.0
  H  H416  1  0.514500  0.869900  0.432200  1.0
  H  H417  1  0.355400  0.485500  0.432200  1.0
  H  H418  1  0.485500  0.355400  0.067800  1.0
  H  H419  1  0.644600  0.130100  0.067800  1.0
  H  H420  1  0.869900  0.514500  0.067800  1.0
  H  H421  1  0.846500  0.221400  0.841400  1.0
  H  H422  1  0.374900  0.153500  0.841400  1.0
  H  H423  1  0.778600  0.625100  0.841400  1.0
  H  H424  1  0.625100  0.778600  0.658600  1.0
  H  H425  1  0.221400  0.846500  0.658600  1.0
  H  H426  1  0.153500  0.374900  0.658600  1.0
  H  H427  1  0.153500  0.778600  0.158600  1.0
  H  H428  1  0.625100  0.846500  0.158600  1.0
  H  H429  1  0.221400  0.374900  0.158600  1.0
  H  H430  1  0.374900  0.221400  0.341400  1.0
  H  H431  1  0.778600  0.153500  0.341400  1.0
  H  H432  1  0.846500  0.625100  0.341400  1.0
  H  H433  1  0.844300  0.242800  0.776900  1.0
  H  H434  1  0.398500  0.155700  0.776900  1.0
  H  H435  1  0.757200  0.601500  0.776900  1.0
  H  H436  1  0.601500  0.757200  0.723100  1.0
  H  H437  1  0.242800  0.844300  0.723100  1.0
  H  H438  1  0.155700  0.398500  0.723100  1.0
  H  H439  1  0.155700  0.757200  0.223100  1.0
  H  H440  1  0.601500  0.844300  0.223100  1.0
  H  H441  1  0.242800  0.398500  0.223100  1.0
  H  H442  1  0.398500  0.242800  0.276900  1.0
  H  H443  1  0.757200  0.155700  0.276900  1.0
  H  H444  1  0.844300  0.601500  0.276900  1.0
  H  H445  1  0.692300  0.109800  0.768100  1.0
  H  H446  1  0.417500  0.307700  0.768100  1.0
  H  H447  1  0.890200  0.582500  0.768100  1.0
  H  H448  1  0.582500  0.890200  0.731900  1.0
  H  H449  1  0.109800  0.692300  0.731900  1.0
  H  H450  1  0.307700  0.417500  0.731900  1.0
  H  H451  1  0.307700  0.890200  0.231900  1.0
  H  H452  1  0.582500  0.692300  0.231900  1.0
  H  H453  1  0.109800  0.417500  0.231900  1.0
  H  H454  1  0.417500  0.109800  0.268100  1.0
  H  H455  1  0.890200  0.307700  0.268100  1.0
  H  H456  1  0.692300  0.582500  0.268100  1.0
  H  H457  1  0.698300  0.090100  0.833000  1.0
  H  H458  1  0.391800  0.301700  0.833000  1.0
  H  H459  1  0.909900  0.608200  0.833000  1.0
  H  H460  1  0.608200  0.909900  0.667000  1.0
  H  H461  1  0.090100  0.698300  0.667000  1.0
  H  H462  1  0.301700  0.391800  0.667000  1.0
  H  H463  1  0.301700  0.909900  0.167000  1.0
  H  H464  1  0.608200  0.698300  0.167000  1.0
  H  H465  1  0.090100  0.391800  0.167000  1.0
  H  H466  1  0.391800  0.090100  0.333000  1.0
  H  H467  1  0.909900  0.301700  0.333000  1.0
  H  H468  1  0.698300  0.608200  0.333000  1.0
  H  H469  1  0.540400  0.025900  0.657700  1.0
  H  H470  1  0.485500  0.459600  0.657700  1.0
  H  H471  1  0.974100  0.514500  0.657700  1.0
  H  H472  1  0.514500  0.974100  0.842300  1.0
  H  H473  1  0.025900  0.540400  0.842300  1.0
  H  H474  1  0.459600  0.485500  0.842300  1.0
  H  H475  1  0.459600  0.974100  0.342300  1.0
  H  H476  1  0.514500  0.540400  0.342300  1.0
  H  H477  1  0.025900  0.485500  0.342300  1.0
  H  H478  1  0.485500  0.025900  0.157700  1.0
  H  H479  1  0.974100  0.459600  0.157700  1.0
  H  H480  1  0.540400  0.514500  0.157700  1.0
  H  H481  1  0.622900  0.075600  0.689600  1.0
  H  H482  1  0.452700  0.377100  0.689600  1.0
  H  H483  1  0.924400  0.547300  0.689600  1.0
  H  H484  1  0.547300  0.924400  0.810400  1.0
  H  H485  1  0.075600  0.622900  0.810400  1.0
  H  H486  1  0.377100  0.452700  0.810400  1.0
  H  H487  1  0.377100  0.924400  0.310400  1.0
  H  H488  1  0.547300  0.622900  0.310400  1.0
  H  H489  1  0.075600  0.452700  0.310400  1.0
  H  H490  1  0.452700  0.075600  0.189600  1.0
  H  H491  1  0.924400  0.377100  0.189600  1.0
  H  H492  1  0.622900  0.547300  0.189600  1.0
  H  H493  1  0.677400  0.185100  0.601300  1.0
  H  H494  1  0.507700  0.322600  0.601300  1.0
  H  H495  1  0.814900  0.492300  0.601300  1.0
  H  H496  1  0.492300  0.814900  0.898700  1.0
  H  H497  1  0.185100  0.677400  0.898700  1.0
  H  H498  1  0.322600  0.507700  0.898700  1.0
  H  H499  1  0.322600  0.814900  0.398700  1.0
  H  H500  1  0.492300  0.677400  0.398700  1.0
  H  H501  1  0.185100  0.507700  0.398700  1.0
  H  H502  1  0.507700  0.185100  0.101300  1.0
  H  H503  1  0.814900  0.322600  0.101300  1.0
  H  H504  1  0.677400  0.492300  0.101300  1.0
  H  H505  1  0.593600  0.133400  0.571300  1.0
  H  H506  1  0.539800  0.406400  0.571300  1.0
  H  H507  1  0.866600  0.460200  0.571300  1.0
  H  H508  1  0.460200  0.866600  0.928700  1.0
  H  H509  1  0.133400  0.593600  0.928700  1.0
  H  H510  1  0.406400  0.539800  0.928700  1.0
  H  H511  1  0.406400  0.866600  0.428700  1.0
  H  H512  1  0.460200  0.593600  0.428700  1.0
  H  H513  1  0.133400  0.539800  0.428700  1.0
  H  H514  1  0.539800  0.133400  0.071300  1.0
  H  H515  1  0.866600  0.406400  0.071300  1.0
  H  H516  1  0.593600  0.460200  0.071300  1.0
  H  H517  1  0.820900  0.255000  0.923300  1.0
  H  H518  1  0.434100  0.179100  0.923300  1.0
  H  H519  1  0.745000  0.565900  0.923300  1.0
  H  H520  1  0.565900  0.745000  0.576700  1.0
  H  H521  1  0.255000  0.820900  0.576700  1.0
  H  H522  1  0.179100  0.434100  0.576700  1.0
  H  H523  1  0.179100  0.745000  0.076700  1.0
  H  H524  1  0.565900  0.820900  0.076700  1.0
  H  H525  1  0.255000  0.434100  0.076700  1.0
  H  H526  1  0.434100  0.255000  0.423300  1.0
  H  H527  1  0.745000  0.179100  0.423300  1.0
  H  H528  1  0.820900  0.565900  0.423300  1.0
  H  H529  1  0.789500  0.317300  0.932500  1.0
  H  H530  1  0.527800  0.210500  0.932500  1.0
  H  H531  1  0.682700  0.472200  0.932500  1.0
  H  H532  1  0.472200  0.682700  0.567500  1.0
  H  H533  1  0.317300  0.789500  0.567500  1.0
  H  H534  1  0.210500  0.527800  0.567500  1.0
  H  H535  1  0.210500  0.682700  0.067500  1.0
  H  H536  1  0.472200  0.789500  0.067500  1.0
  H  H537  1  0.317300  0.527800  0.067500  1.0
  H  H538  1  0.527800  0.317300  0.432500  1.0
  H  H539  1  0.682700  0.210500  0.432500  1.0
  H  H540  1  0.789500  0.472200  0.432500  1.0
  H  H541  1  0.632800  0.191000  0.915500  1.0
  H  H542  1  0.558200  0.367200  0.915500  1.0
  H  H543  1  0.809000  0.441800  0.915500  1.0
  H  H544  1  0.441800  0.809000  0.584500  1.0
  H  H545  1  0.191000  0.632800  0.584500  1.0
  H  H546  1  0.367200  0.558200  0.584500  1.0
  H  H547  1  0.367200  0.809000  0.084500  1.0
  H  H548  1  0.441800  0.632800  0.084500  1.0
  H  H549  1  0.191000  0.558200  0.084500  1.0
  H  H550  1  0.558200  0.191000  0.415500  1.0
  H  H551  1  0.809000  0.367200  0.415500  1.0
  H  H552  1  0.632800  0.441800  0.415500  1.0
  H  H553  1  0.669000  0.133500  0.904000  1.0
  H  H554  1  0.464500  0.331000  0.904000  1.0
  H  H555  1  0.866500  0.535500  0.904000  1.0
  H  H556  1  0.535500  0.866500  0.596000  1.0
  H  H557  1  0.133500  0.669000  0.596000  1.0
  H  H558  1  0.331000  0.464500  0.596000  1.0
  H  H559  1  0.331000  0.866500  0.096000  1.0
  H  H560  1  0.535500  0.669000  0.096000  1.0
  H  H561  1  0.133500  0.464500  0.096000  1.0
  H  H562  1  0.464500  0.133500  0.404000  1.0
  H  H563  1  0.866500  0.331000  0.404000  1.0
  H  H564  1  0.669000  0.535500  0.404000  1.0
  H  H565  1  0.761300  0.161300  0.985400  1.0
  H  H566  1  0.400000  0.238700  0.985400  1.0
  H  H567  1  0.838700  0.600000  0.985400  1.0
  H  H568  1  0.600000  0.838700  0.514600  1.0
  H  H569  1  0.161300  0.761300  0.514600  1.0
  H  H570  1  0.238700  0.400000  0.514600  1.0
  H  H571  1  0.238700  0.838700  0.014600  1.0
  H  H572  1  0.600000  0.761300  0.014600  1.0
  H  H573  1  0.161300  0.400000  0.014600  1.0
  H  H574  1  0.400000  0.161300  0.485400  1.0
  H  H575  1  0.838700  0.238700  0.485400  1.0
  H  H576  1  0.761300  0.600000  0.485400  1.0
  H  H577  1  0.755300  0.120600  0.045300  1.0
  H  H578  1  0.365300  0.244700  0.045300  1.0
  H  H579  1  0.879400  0.634700  0.045300  1.0
  H  H580  1  0.634700  0.879400  0.454700  1.0
  H  H581  1  0.120600  0.755300  0.454700  1.0
  H  H582  1  0.244700  0.365300  0.454700  1.0
  H  H583  1  0.244700  0.879400  0.954700  1.0
  H  H584  1  0.634700  0.755300  0.954700  1.0
  H  H585  1  0.120600  0.365300  0.954700  1.0
  H  H586  1  0.365300  0.120600  0.545300  1.0
  H  H587  1  0.879400  0.244700  0.545300  1.0
  H  H588  1  0.755300  0.634700  0.545300  1.0
  H  H589  1  0.760500  0.039600  0.048300  1.0
  H  H590  1  0.279100  0.239500  0.048300  1.0
  H  H591  1  0.960400  0.720900  0.048300  1.0
  H  H592  1  0.720900  0.960400  0.451700  1.0
  H  H593  1  0.039600  0.760500  0.451700  1.0
  H  H594  1  0.239500  0.279100  0.451700  1.0
  H  H595  1  0.239500  0.960400  0.951700  1.0
  H  H596  1  0.720900  0.760500  0.951700  1.0
  H  H597  1  0.039600  0.279100  0.951700  1.0
  H  H598  1  0.279100  0.039600  0.548300  1.0
  H  H599  1  0.960400  0.239500  0.548300  1.0
  H  H600  1  0.760500  0.720900  0.548300  1.0
  H  H601  1  0.771400  0.002500  0.993000  1.0
  H  H602  1  0.231100  0.228600  0.993000  1.0
  H  H603  1  0.997500  0.768900  0.993000  1.0
  H  H604  1  0.768900  0.997500  0.507000  1.0
  H  H605  1  0.002500  0.771400  0.507000  1.0
  H  H606  1  0.228600  0.231100  0.507000  1.0
  H  H607  1  0.228600  0.997500  0.007000  1.0
  H  H608  1  0.768900  0.771400  0.007000  1.0
  H  H609  1  0.002500  0.231100  0.007000  1.0
  H  H610  1  0.231100  0.002500  0.493000  1.0
  H  H611  1  0.997500  0.228600  0.493000  1.0
  H  H612  1  0.771400  0.768900  0.493000  1.0
  H  H613  1  0.783700  0.971100  0.934800  1.0
  H  H614  1  0.187400  0.216300  0.934800  1.0
  H  H615  1  0.028900  0.812600  0.934800  1.0
  H  H616  1  0.812600  0.028900  0.565200  1.0
  H  H617  1  0.971100  0.783700  0.565200  1.0
  H  H618  1  0.216300  0.187400  0.565200  1.0
  H  H619  1  0.216300  0.028900  0.065200  1.0
  H  H620  1  0.812600  0.783700  0.065200  1.0
  H  H621  1  0.971100  0.187400  0.065200  1.0
  H  H622  1  0.187400  0.971100  0.434800  1.0
  H  H623  1  0.028900  0.216300  0.434800  1.0
  H  H624  1  0.783700  0.812600  0.434800  1.0
  H  H625  1  0.797100  0.945500  0.875100  1.0
  H  H626  1  0.148400  0.202900  0.875100  1.0
  H  H627  1  0.054500  0.851600  0.875100  1.0
  H  H628  1  0.851600  0.054500  0.624900  1.0
  H  H629  1  0.945500  0.797100  0.624900  1.0
  H  H630  1  0.202900  0.148400  0.624900  1.0
  H  H631  1  0.202900  0.054500  0.124900  1.0
  H  H632  1  0.851600  0.797100  0.124900  1.0
  H  H633  1  0.945500  0.148400  0.124900  1.0
  H  H634  1  0.148400  0.945500  0.375100  1.0
  H  H635  1  0.054500  0.202900  0.375100  1.0
  H  H636  1  0.797100  0.851600  0.375100  1.0
  H  H637  1  0.811100  0.001500  0.823100  1.0
  H  H638  1  0.190400  0.188900  0.823100  1.0
  H  H639  1  0.998500  0.809600  0.823100  1.0
  H  H640  1  0.809600  0.998500  0.676900  1.0
  H  H641  1  0.001500  0.811100  0.676900  1.0
  H  H642  1  0.188900  0.190400  0.676900  1.0
  H  H643  1  0.188900  0.998500  0.176900  1.0
  H  H644  1  0.809600  0.811100  0.176900  1.0
  H  H645  1  0.001500  0.190400  0.176900  1.0
  H  H646  1  0.190400  0.001500  0.323100  1.0
  H  H647  1  0.998500  0.188900  0.323100  1.0
  H  H648  1  0.811100  0.809600  0.323100  1.0
  H  H649  1  0.806700  0.083000  0.830600  1.0
  H  H650  1  0.276300  0.193300  0.830600  1.0
  H  H651  1  0.917000  0.723700  0.830600  1.0
  H  H652  1  0.723700  0.917000  0.669400  1.0
  H  H653  1  0.083000  0.806700  0.669400  1.0
  H  H654  1  0.193300  0.276300  0.669400  1.0
  H  H655  1  0.193300  0.917000  0.169400  1.0
  H  H656  1  0.723700  0.806700  0.169400  1.0
  H  H657  1  0.083000  0.276300  0.169400  1.0
  H  H658  1  0.276300  0.083000  0.330600  1.0
  H  H659  1  0.917000  0.193300  0.330600  1.0
  H  H660  1  0.806700  0.723700  0.330600  1.0
  H  H661  1  0.988500  0.358300  0.570000  1.0
  H  H662  1  0.369800  0.011500  0.570000  1.0
  H  H663  1  0.641700  0.630200  0.570000  1.0
  H  H664  1  0.630200  0.641700  0.930000  1.0
  H  H665  1  0.358300  0.988500  0.930000  1.0
  H  H666  1  0.011500  0.369800  0.930000  1.0
  H  H667  1  0.011500  0.641700  0.430000  1.0
  H  H668  1  0.630200  0.988500  0.430000  1.0
  H  H669  1  0.358300  0.369800  0.430000  1.0
  H  H670  1  0.369800  0.358300  0.070000  1.0
  H  H671  1  0.641700  0.011500  0.070000  1.0
  H  H672  1  0.988500  0.630200  0.070000  1.0
  H  H673  1  0.050900  0.342400  0.535000  1.0
  H  H674  1  0.291500  0.949100  0.535000  1.0
  H  H675  1  0.657600  0.708500  0.535000  1.0
  H  H676  1  0.708500  0.657600  0.965000  1.0
  H  H677  1  0.342400  0.050900  0.965000  1.0
  H  H678  1  0.949100  0.291500  0.965000  1.0
  H  H679  1  0.949100  0.657600  0.465000  1.0
  H  H680  1  0.708500  0.050900  0.465000  1.0
  H  H681  1  0.342400  0.291500  0.465000  1.0
  H  H682  1  0.291500  0.342400  0.035000  1.0
  H  H683  1  0.657600  0.949100  0.035000  1.0
  H  H684  1  0.050900  0.708500  0.035000  1.0
  H  H685  1  0.121600  0.414500  0.499700  1.0
  H  H686  1  0.292900  0.878400  0.499700  1.0
  H  H687  1  0.585500  0.707100  0.499700  1.0
  H  H688  1  0.707100  0.585500  0.000300  1.0
  H  H689  1  0.414500  0.121600  0.000300  1.0
  H  H690  1  0.878400  0.292900  0.000300  1.0
  H  H691  1  0.878400  0.585500  0.500300  1.0
  H  H692  1  0.707100  0.121600  0.500300  1.0
  H  H693  1  0.414500  0.292900  0.500300  1.0
  H  H694  1  0.292900  0.414500  0.999700  1.0
  H  H695  1  0.585500  0.878400  0.999700  1.0
  H  H696  1  0.121600  0.707100  0.999700  1.0
  H  H697  1  0.128100  0.501100  0.499300  1.0
  H  H698  1  0.373000  0.871900  0.499300  1.0
  H  H699  1  0.498900  0.627000  0.499300  1.0
  H  H700  1  0.627000  0.498900  0.000700  1.0
  H  H701  1  0.501100  0.128100  0.000700  1.0
  H  H702  1  0.871900  0.373000  0.000700  1.0
  H  H703  1  0.871900  0.498900  0.500700  1.0
  H  H704  1  0.627000  0.128100  0.500700  1.0
  H  H705  1  0.501100  0.373000  0.500700  1.0
  H  H706  1  0.373000  0.501100  0.999300  1.0
  H  H707  1  0.498900  0.871900  0.999300  1.0
  H  H708  1  0.128100  0.627000  0.999300  1.0
  H  H709  1  0.125400  0.578900  0.500000  1.0
  H  H710  1  0.453500  0.874600  0.500000  1.0
  H  H711  1  0.421100  0.546500  0.500000  1.0
  H  H712  1  0.546500  0.421100  0.000000  1.0
  H  H713  1  0.578900  0.125400  0.000000  1.0
  H  H714  1  0.874600  0.453500  0.000000  1.0
  H  H715  1  0.874600  0.421100  0.500000  1.0
  H  H716  1  0.546500  0.125400  0.500000  1.0
  H  H717  1  0.578900  0.453500  0.500000  1.0
  H  H718  1  0.453500  0.578900  0.000000  1.0
  H  H719  1  0.421100  0.874600  0.000000  1.0
  H  H720  1  0.125400  0.546500  0.000000  1.0
  H  H721  1  0.113500  0.655400  0.501000  1.0
  H  H722  1  0.541900  0.886500  0.501000  1.0
  H  H723  1  0.344600  0.458100  0.501000  1.0
  H  H724  1  0.458100  0.344600  0.999000  1.0
  H  H725  1  0.655400  0.113500  0.999000  1.0
  H  H726  1  0.886500  0.541900  0.999000  1.0
  H  H727  1  0.886500  0.344600  0.499000  1.0
  H  H728  1  0.458100  0.113500  0.499000  1.0
  H  H729  1  0.655400  0.541900  0.499000  1.0
  H  H730  1  0.541900  0.655400  0.001000  1.0
  H  H731  1  0.344600  0.886500  0.001000  1.0
  H  H732  1  0.113500  0.458100  0.001000  1.0
  H  H733  1  0.039800  0.651400  0.536100  1.0
  H  H734  1  0.611600  0.960200  0.536100  1.0
  H  H735  1  0.348600  0.388400  0.536100  1.0
  H  H736  1  0.388400  0.348600  0.963900  1.0
  H  H737  1  0.651400  0.039800  0.963900  1.0
  H  H738  1  0.960200  0.611600  0.963900  1.0
  H  H739  1  0.960200  0.348600  0.463900  1.0
  H  H740  1  0.388400  0.039800  0.463900  1.0
  H  H741  1  0.651400  0.611600  0.463900  1.0
  H  H742  1  0.611600  0.651400  0.036100  1.0
  H  H743  1  0.348600  0.960200  0.036100  1.0
  H  H744  1  0.039800  0.388400  0.036100  1.0
  H  H745  1  0.981100  0.571900  0.570600  1.0
  H  H746  1  0.590800  0.018900  0.570600  1.0
  H  H747  1  0.428100  0.409200  0.570600  1.0
  H  H748  1  0.409200  0.428100  0.929400  1.0
  H  H749  1  0.571900  0.981100  0.929400  1.0
  H  H750  1  0.018900  0.590800  0.929400  1.0
  H  H751  1  0.018900  0.428100  0.429400  1.0
  H  H752  1  0.409200  0.981100  0.429400  1.0
  H  H753  1  0.571900  0.590800  0.429400  1.0
  H  H754  1  0.590800  0.571900  0.070600  1.0
  H  H755  1  0.428100  0.018900  0.070600  1.0
  H  H756  1  0.981100  0.409200  0.070600  1.0
  Ir  Ir757  1  0.755030  0.397380  0.281900  1.0
  Ir  Ir758  1  0.642350  0.244970  0.281900  1.0
  Ir  Ir759  1  0.602620  0.357650  0.281900  1.0
  Ir  Ir760  1  0.357650  0.602620  0.218100  1.0
  Ir  Ir761  1  0.397380  0.755030  0.218100  1.0
  Ir  Ir762  1  0.244970  0.642350  0.218100  1.0
  Ir  Ir763  1  0.244970  0.602620  0.718100  1.0
  Ir  Ir764  1  0.357650  0.755030  0.718100  1.0
  Ir  Ir765  1  0.397380  0.642350  0.718100  1.0
  Ir  Ir766  1  0.642350  0.397380  0.781900  1.0
  Ir  Ir767  1  0.602620  0.244970  0.781900  1.0
  Ir  Ir768  1  0.755030  0.357650  0.781900  1.0
  Pd  Pd769  1  0.773010  0.134050  0.899160  1.0
  Pd  Pd770  1  0.361040  0.226990  0.899160  1.0
  Pd  Pd771  1  0.865950  0.638960  0.899160  1.0
  Pd  Pd772  1  0.638960  0.865950  0.600840  1.0
  Pd  Pd773  1  0.134050  0.773010  0.600840  1.0
  Pd  Pd774  1  0.226990  0.361040  0.600840  1.0
  Pd  Pd775  1  0.226990  0.865950  0.100840  1.0
  Pd  Pd776  1  0.638960  0.773010  0.100840  1.0
  Pd  Pd777  1  0.134050  0.361040  0.100840  1.0
  Pd  Pd778  1  0.361040  0.134050  0.399160  1.0
  Pd  Pd779  1  0.865950  0.226990  0.399160  1.0
  Pd  Pd780  1  0.773010  0.638960  0.399160  1.0
  Pd  Pd781  1  0.971070  0.457620  0.584010  1.0
  Pd  Pd782  1  0.486550  0.028930  0.584010  1.0
  Pd  Pd783  1  0.542380  0.513450  0.584010  1.0
  Pd  Pd784  1  0.513450  0.542380  0.915990  1.0
  Pd  Pd785  1  0.457620  0.971070  0.915990  1.0
  Pd  Pd786  1  0.028930  0.486550  0.915990  1.0
  Pd  Pd787  1  0.028930  0.542380  0.415990  1.0
  Pd  Pd788  1  0.513450  0.971070  0.415990  1.0
  Pd  Pd789  1  0.457620  0.486550  0.415990  1.0
  Pd  Pd790  1  0.486550  0.457620  0.084010  1.0
  Pd  Pd791  1  0.542380  0.028930  0.084010  1.0
  Pd  Pd792  1  0.971070  0.513450  0.084010  1.0
  C  C793  1  0.577000  0.345900  0.168500  1
  C  C794  1  0.768900  0.423000  0.168500  1
  C  C795  1  0.654100  0.231100  0.168500  1
  C  C796  1  0.231100  0.654100  0.331500  1
  C  C797  1  0.345900  0.577000  0.331500  1
  C  C798  1  0.423000  0.768900  0.331500  1
  C  C799  1  0.423000  0.654100  0.831500  1
  C  C800  1  0.231100  0.577000  0.831500  1
  C  C801  1  0.345900  0.768900  0.831500  1
  C  C802  1  0.768900  0.345900  0.668500  1
  C  C803  1  0.654100  0.423000  0.668500  1
  C  C804  1  0.577000  0.231100  0.668500  1
  C  C805  1  0.596500  0.341300  0.131600  1
  C  C806  1  0.744800  0.403500  0.131600  1
  C  C807  1  0.658700  0.255200  0.131600  1
  C  C808  1  0.255200  0.658700  0.368400  1
  C  C809  1  0.341300  0.596500  0.368400  1
  C  C810  1  0.403500  0.744800  0.368400  1
  C  C811  1  0.403500  0.658700  0.868400  1
  C  C812  1  0.255200  0.596500  0.868400  1
  C  C813  1  0.341300  0.744800  0.868400  1
  C  C814  1  0.744800  0.341300  0.631600  1
  C  C815  1  0.658700  0.403500  0.631600  1
  C  C816  1  0.596500  0.255200  0.631600  1
  C  C817  1  0.615200  0.304300  0.122200  1
  C  C818  1  0.689100  0.384800  0.122200  1
  C  C819  1  0.695700  0.310900  0.122200  1
  C  C820  1  0.310900  0.695700  0.377800  1
  C  C821  1  0.304300  0.615200  0.377800  1
  C  C822  1  0.384800  0.689100  0.377800  1
  C  C823  1  0.384800  0.695700  0.877800  1
  C  C824  1  0.310900  0.615200  0.877800  1
  C  C825  1  0.304300  0.689100  0.877800  1
  C  C826  1  0.689100  0.304300  0.622200  1
  C  C827  1  0.695700  0.384800  0.622200  1
  C  C828  1  0.615200  0.310900  0.622200  1
  C  C829  1  0.610500  0.266300  0.151500  1
  C  C830  1  0.655800  0.389500  0.151500  1
  C  C831  1  0.733700  0.344200  0.151500  1
  C  C832  1  0.344200  0.733700  0.348500  1
  C  C833  1  0.266300  0.610500  0.348500  1
  C  C834  1  0.389500  0.655800  0.348500  1
  C  C835  1  0.389500  0.733700  0.848500  1
  C  C836  1  0.344200  0.610500  0.848500  1
  C  C837  1  0.266300  0.655800  0.848500  1
  C  C838  1  0.655800  0.266300  0.651500  1
  C  C839  1  0.733700  0.389500  0.651500  1
  C  C840  1  0.610500  0.344200  0.651500  1
  C  C841  1  0.593900  0.271700  0.189300  1
  C  C842  1  0.677800  0.406100  0.189300  1
  C  C843  1  0.728300  0.322200  0.189300  1
  C  C844  1  0.322200  0.728300  0.310700  1
  C  C845  1  0.271700  0.593900  0.310700  1
  C  C846  1  0.406100  0.677800  0.310700  1
  C  C847  1  0.406100  0.728300  0.810700  1
  C  C848  1  0.322200  0.593900  0.810700  1
  C  C849  1  0.271700  0.677800  0.810700  1
  C  C850  1  0.677800  0.271700  0.689300  1
  C  C851  1  0.728300  0.406100  0.689300  1
  C  C852  1  0.593900  0.322200  0.689300  1
  C  C853  1  0.591200  0.231400  0.219100  1
  C  C854  1  0.640200  0.408800  0.219100  1
  C  C855  1  0.768600  0.359800  0.219100  1
  C  C856  1  0.359800  0.768600  0.280900  1
  C  C857  1  0.231400  0.591200  0.280900  1
  C  C858  1  0.408800  0.640200  0.280900  1
  C  C859  1  0.408800  0.768600  0.780900  1
  C  C860  1  0.359800  0.591200  0.780900  1
  C  C861  1  0.231400  0.640200  0.780900  1
  C  C862  1  0.640200  0.231400  0.719100  1
  C  C863  1  0.768600  0.408800  0.719100  1
  C  C864  1  0.591200  0.359800  0.719100  1
  C  C865  1  0.575600  0.235700  0.256800  1
  C  C866  1  0.660100  0.424400  0.256800  1
  C  C867  1  0.764300  0.339900  0.256800  1
  C  C868  1  0.339900  0.764300  0.243200  1
  C  C869  1  0.235700  0.575600  0.243200  1
  C  C870  1  0.424400  0.660100  0.243200  1
  C  C871  1  0.424400  0.764300  0.743200  1
  C  C872  1  0.339900  0.575600  0.743200  1
  C  C873  1  0.235700  0.660100  0.743200  1
  C  C874  1  0.660100  0.235700  0.756800  1
  C  C875  1  0.764300  0.424400  0.756800  1
  C  C876  1  0.575600  0.339900  0.756800  1
  C  C877  1  0.554100  0.273800  0.267300  1
  C  C878  1  0.719700  0.445900  0.267300  1
  C  C879  1  0.726200  0.280300  0.267300  1
  C  C880  1  0.280300  0.726200  0.232700  1
  C  C881  1  0.273800  0.554100  0.232700  1
  C  C882  1  0.445900  0.719700  0.232700  1
  C  C883  1  0.445900  0.726200  0.732700  1
  C  C884  1  0.280300  0.554100  0.732700  1
  C  C885  1  0.273800  0.719700  0.732700  1
  C  C886  1  0.719700  0.273800  0.767300  1
  C  C887  1  0.726200  0.445900  0.767300  1
  C  C888  1  0.554100  0.280300  0.767300  1
  C  C889  1  0.558500  0.310400  0.238600  1
  C  C890  1  0.751900  0.441500  0.238600  1
  C  C891  1  0.689600  0.248100  0.238600  1
  C  C892  1  0.248100  0.689600  0.261400  1
  C  C893  1  0.310400  0.558500  0.261400  1
  C  C894  1  0.441500  0.751900  0.261400  1
  C  C895  1  0.441500  0.689600  0.761400  1
  C  C896  1  0.248100  0.558500  0.761400  1
  C  C897  1  0.310400  0.751900  0.761400  1
  C  C898  1  0.751900  0.310400  0.738600  1
  C  C899  1  0.689600  0.441500  0.738600  1
  C  C900  1  0.558500  0.248100  0.738600  1
  C  C901  1  0.577000  0.310400  0.197900  1
  C  C902  1  0.733400  0.423000  0.197900  1
  C  C903  1  0.689600  0.266600  0.197900  1
  C  C904  1  0.266600  0.689600  0.302100  1
  C  C905  1  0.310400  0.577000  0.302100  1
  C  C906  1  0.423000  0.733400  0.302100  1
  C  C907  1  0.423000  0.689600  0.802100  1
  C  C908  1  0.266600  0.577000  0.802100  1
  C  C909  1  0.310400  0.733400  0.802100  1
  C  C910  1  0.733400  0.310400  0.697900  1
  C  C911  1  0.689600  0.423000  0.697900  1
  C  C912  1  0.577000  0.266600  0.697900  1
  C  C913  1  0.612500  0.196700  0.211700  1
  C  C914  1  0.584200  0.387500  0.211700  1
  C  C915  1  0.803300  0.415800  0.211700  1
  C  C916  1  0.415800  0.803300  0.288300  1
  C  C917  1  0.196700  0.612500  0.288300  1
  C  C918  1  0.387500  0.584200  0.288300  1
  C  C919  1  0.387500  0.803300  0.788300  1
  C  C920  1  0.415800  0.612500  0.788300  1
  C  C921  1  0.196700  0.584200  0.788300  1
  C  C922  1  0.584200  0.196700  0.711700  1
  C  C923  1  0.803300  0.387500  0.711700  1
  C  C924  1  0.612500  0.415800  0.711700  1
  C  C925  1  0.613000  0.162400  0.240700  1
  C  C926  1  0.549400  0.387000  0.240700  1
  C  C927  1  0.837600  0.450600  0.240700  1
  C  C928  1  0.450600  0.837600  0.259300  1
  C  C929  1  0.162400  0.613000  0.259300  1
  C  C930  1  0.387000  0.549400  0.259300  1
  C  C931  1  0.387000  0.837600  0.759300  1
  C  C932  1  0.450600  0.613000  0.759300  1
  C  C933  1  0.162400  0.549400  0.759300  1
  C  C934  1  0.549400  0.162400  0.740700  1
  C  C935  1  0.837600  0.387000  0.740700  1
  C  C936  1  0.613000  0.450600  0.740700  1
  C  C937  1  0.594500  0.164700  0.278100  1
  C  C938  1  0.570200  0.405500  0.278100  1
  C  C939  1  0.835300  0.429800  0.278100  1
  C  C940  1  0.429800  0.835300  0.221900  1
  C  C941  1  0.164700  0.594500  0.221900  1
  C  C942  1  0.405500  0.570200  0.221900  1
  C  C943  1  0.405500  0.835300  0.721900  1
  C  C944  1  0.429800  0.594500  0.721900  1
  C  C945  1  0.164700  0.570200  0.721900  1
  C  C946  1  0.570200  0.164700  0.778100  1
  C  C947  1  0.835300  0.405500  0.778100  1
  C  C948  1  0.594500  0.429800  0.778100  1
  C  C949  1  0.586500  0.209400  0.287000  1
  C  C950  1  0.622900  0.413500  0.287000  1
  C  C951  1  0.790600  0.377100  0.287000  1
  C  C952  1  0.377100  0.790600  0.213000  1
  C  C953  1  0.209400  0.586500  0.213000  1
  C  C954  1  0.413500  0.622900  0.213000  1
  C  C955  1  0.413500  0.790600  0.713000  1
  C  C956  1  0.377100  0.586500  0.713000  1
  C  C957  1  0.209400  0.622900  0.713000  1
  C  C958  1  0.622900  0.209400  0.787000  1
  C  C959  1  0.790600  0.413500  0.787000  1
  C  C960  1  0.586500  0.377100  0.787000  1
  C  C961  1  0.539000  0.346900  0.244300  1
  C  C962  1  0.807900  0.461000  0.244300  1
  C  C963  1  0.653100  0.192100  0.244300  1
  C  C964  1  0.192100  0.653100  0.255700  1
  C  C965  1  0.346900  0.539000  0.255700  1
  C  C966  1  0.461000  0.807900  0.255700  1
  C  C967  1  0.461000  0.653100  0.755700  1
  C  C968  1  0.192100  0.539000  0.755700  1
  C  C969  1  0.346900  0.807900  0.755700  1
  C  C970  1  0.807900  0.346900  0.744300  1
  C  C971  1  0.653100  0.461000  0.744300  1
  C  C972  1  0.539000  0.192100  0.744300  1
  C  C973  1  0.518000  0.349200  0.280700  1
  C  C974  1  0.831200  0.482000  0.280700  1
  C  C975  1  0.650800  0.168800  0.280700  1
  C  C976  1  0.168800  0.650800  0.219300  1
  C  C977  1  0.349200  0.518000  0.219300  1
  C  C978  1  0.482000  0.831200  0.219300  1
  C  C979  1  0.482000  0.650800  0.719300  1
  C  C980  1  0.168800  0.518000  0.719300  1
  C  C981  1  0.349200  0.831200  0.719300  1
  C  C982  1  0.831200  0.349200  0.780700  1
  C  C983  1  0.650800  0.482000  0.780700  1
  C  C984  1  0.518000  0.168800  0.780700  1
  C  C985  1  0.518500  0.316000  0.311000  1
  C  C986  1  0.797500  0.481500  0.311000  1
  C  C987  1  0.684000  0.202500  0.311000  1
  C  C988  1  0.202500  0.684000  0.189000  1
  C  C989  1  0.316000  0.518500  0.189000  1
  C  C990  1  0.481500  0.797500  0.189000  1
  C  C991  1  0.481500  0.684000  0.689000  1
  C  C992  1  0.202500  0.518500  0.689000  1
  C  C993  1  0.316000  0.797500  0.689000  1
  C  C994  1  0.797500  0.316000  0.811000  1
  C  C995  1  0.684000  0.481500  0.811000  1
  C  C996  1  0.518500  0.202500  0.811000  1
  C  C997  1  0.535900  0.277900  0.302900  1
  C  C998  1  0.742000  0.464100  0.302900  1
  C  C999  1  0.722100  0.258000  0.302900  1
  C  C1000  1  0.258000  0.722100  0.197100  1
  C  C1001  1  0.277900  0.535900  0.197100  1
  C  C1002  1  0.464100  0.742000  0.197100  1
  C  C1003  1  0.464100  0.722100  0.697100  1
  C  C1004  1  0.258000  0.535900  0.697100  1
  C  C1005  1  0.277900  0.742000  0.697100  1
  C  C1006  1  0.742000  0.277900  0.802900  1
  C  C1007  1  0.722100  0.464100  0.802900  1
  C  C1008  1  0.535900  0.258000  0.802900  1
  C  C1009  1  0.583900  0.281000  0.318400  1.0
  C  C1010  1  0.697100  0.416100  0.318400  1.0
  C  C1011  1  0.719000  0.302900  0.318400  1.0
  C  C1012  1  0.302900  0.719000  0.181600  1.0
  C  C1013  1  0.281000  0.583900  0.181600  1.0
  C  C1014  1  0.416100  0.697100  0.181600  1.0
  C  C1015  1  0.416100  0.719000  0.681600  1.0
  C  C1016  1  0.302900  0.583900  0.681600  1.0
  C  C1017  1  0.281000  0.697100  0.681600  1.0
  C  C1018  1  0.697100  0.281000  0.818400  1.0
  C  C1019  1  0.719000  0.416100  0.818400  1.0
  C  C1020  1  0.583900  0.302900  0.818400  1.0
  C  C1021  1  0.554800  0.306000  0.333700  1.0
  C  C1022  1  0.751200  0.445200  0.333700  1.0
  C  C1023  1  0.694000  0.248800  0.333700  1.0
  C  C1024  1  0.248800  0.694000  0.166300  1.0
  C  C1025  1  0.306000  0.554800  0.166300  1.0
  C  C1026  1  0.445200  0.751200  0.166300  1.0
  C  C1027  1  0.445200  0.694000  0.666300  1.0
  C  C1028  1  0.248800  0.554800  0.666300  1.0
  C  C1029  1  0.306000  0.751200  0.666300  1.0
  C  C1030  1  0.751200  0.306000  0.833700  1.0
  C  C1031  1  0.694000  0.445200  0.833700  1.0
  C  C1032  1  0.554800  0.248800  0.833700  1.0
  C  C1033  1  0.597000  0.361500  0.346900  1.0
  C  C1034  1  0.764500  0.403000  0.346900  1.0
  C  C1035  1  0.638500  0.235500  0.346900  1.0
  C  C1036  1  0.235500  0.638500  0.153100  1.0
  C  C1037  1  0.361500  0.597000  0.153100  1.0
  C  C1038  1  0.403000  0.764500  0.153100  1.0
  C  C1039  1  0.403000  0.638500  0.653100  1.0
  C  C1040  1  0.235500  0.597000  0.653100  1.0
  C  C1041  1  0.361500  0.764500  0.653100  1.0
  C  C1042  1  0.764500  0.361500  0.846900  1.0
  C  C1043  1  0.638500  0.403000  0.846900  1.0
  C  C1044  1  0.597000  0.235500  0.846900  1.0
  C  C1045  1  0.645200  0.364000  0.336300  1.0
  C  C1046  1  0.718800  0.354800  0.336300  1.0
  C  C1047  1  0.636000  0.281200  0.336300  1.0
  C  C1048  1  0.281200  0.636000  0.163700  1.0
  C  C1049  1  0.364000  0.645200  0.163700  1.0
  C  C1050  1  0.354800  0.718800  0.163700  1.0
  C  C1051  1  0.354800  0.636000  0.663700  1.0
  C  C1052  1  0.281200  0.645200  0.663700  1.0
  C  C1053  1  0.364000  0.718800  0.663700  1.0
  C  C1054  1  0.718800  0.364000  0.836300  1.0
  C  C1055  1  0.636000  0.354800  0.836300  1.0
  C  C1056  1  0.645200  0.281200  0.836300  1.0
  C  C1057  1  0.636000  0.318000  0.320800  1.0
  C  C1058  1  0.682000  0.364000  0.320800  1.0
  C  C1059  1  0.682000  0.318000  0.320800  1.0
  C  C1060  1  0.318000  0.682000  0.179200  1.0
  C  C1061  1  0.318000  0.636000  0.179200  1.0
  C  C1062  1  0.364000  0.682000  0.179200  1.0
  C  C1063  1  0.364000  0.682000  0.679200  1.0
  C  C1064  1  0.318000  0.636000  0.679200  1.0
  C  C1065  1  0.318000  0.682000  0.679200  1.0
  C  C1066  1  0.682000  0.318000  0.820800  1.0
  C  C1067  1  0.682000  0.364000  0.820800  1.0
  C  C1068  1  0.636000  0.318000  0.820800  1.0
  C  C1069  1  0.557000  0.220000  0.304700  1.0
  C  C1070  1  0.663000  0.443000  0.304700  1.0
  C  C1071  1  0.780000  0.337000  0.304700  1.0
  C  C1072  1  0.337000  0.780000  0.195300  1.0
  C  C1073  1  0.220000  0.557000  0.195300  1.0
  C  C1074  1  0.443000  0.663000  0.195300  1.0
  C  C1075  1  0.443000  0.780000  0.695300  1.0
  C  C1076  1  0.337000  0.557000  0.695300  1.0
  C  C1077  1  0.220000  0.663000  0.695300  1.0
  C  C1078  1  0.663000  0.220000  0.804700  1.0
  C  C1079  1  0.780000  0.443000  0.804700  1.0
  C  C1080  1  0.557000  0.337000  0.804700  1.0
  C  C1081  1  0.565200  0.323000  0.226000  1.0
  C  C1082  1  0.757800  0.434800  0.226000  1.0
  C  C1083  1  0.677000  0.242200  0.226000  1.0
  C  C1084  1  0.242200  0.677000  0.274000  1.0
  C  C1085  1  0.323000  0.565200  0.274000  1.0
  C  C1086  1  0.434800  0.757800  0.274000  1.0
  C  C1087  1  0.434800  0.677000  0.774000  1.0
  C  C1088  1  0.242200  0.565200  0.774000  1.0
  C  C1089  1  0.323000  0.757800  0.774000  1.0
  C  C1090  1  0.757800  0.323000  0.726000  1.0
  C  C1091  1  0.677000  0.434800  0.726000  1.0
  C  C1092  1  0.565200  0.242200  0.726000  1.0
  C  C1093  1  0.537000  0.348000  0.245900  1.0
  C  C1094  1  0.811000  0.463000  0.245900  1.0
  C  C1095  1  0.652000  0.189000  0.245900  1.0
  C  C1096  1  0.189000  0.652000  0.254100  1.0
  C  C1097  1  0.348000  0.537000  0.254100  1.0
  C  C1098  1  0.463000  0.811000  0.254100  1.0
  C  C1099  1  0.463000  0.652000  0.754100  1.0
  C  C1100  1  0.189000  0.537000  0.754100  1.0
  C  C1101  1  0.348000  0.811000  0.754100  1.0
  C  C1102  1  0.811000  0.348000  0.745900  1.0
  C  C1103  1  0.652000  0.463000  0.745900  1.0
  C  C1104  1  0.537000  0.189000  0.745900  1.0
  C  C1105  1  0.550800  0.406400  0.226600  1.0
  C  C1106  1  0.855600  0.449200  0.226600  1.0
  C  C1107  1  0.593600  0.144400  0.226600  1.0
  C  C1108  1  0.144400  0.593600  0.273400  1.0
  C  C1109  1  0.406400  0.550800  0.273400  1.0
  C  C1110  1  0.449200  0.855600  0.273400  1.0
  C  C1111  1  0.449200  0.593600  0.773400  1.0
  C  C1112  1  0.144400  0.550800  0.773400  1.0
  C  C1113  1  0.406400  0.855600  0.773400  1.0
  C  C1114  1  0.855600  0.406400  0.726600  1.0
  C  C1115  1  0.593600  0.449200  0.726600  1.0
  C  C1116  1  0.550800  0.144400  0.726600  1.0
  C  C1117  1  0.595400  0.453500  0.249600  1.0
  C  C1118  1  0.858100  0.404600  0.249600  1.0
  C  C1119  1  0.546500  0.141900  0.249600  1.0
  C  C1120  1  0.141900  0.546500  0.250400  1.0
  C  C1121  1  0.453500  0.595400  0.250400  1.0
  C  C1122  1  0.404600  0.858100  0.250400  1.0
  C  C1123  1  0.404600  0.546500  0.750400  1.0
  C  C1124  1  0.141900  0.595400  0.750400  1.0
  C  C1125  1  0.453500  0.858100  0.750400  1.0
  C  C1126  1  0.858100  0.453500  0.749600  1.0
  C  C1127  1  0.546500  0.404600  0.749600  1.0
  C  C1128  1  0.595400  0.141900  0.749600  1.0
  C  C1129  1  0.635000  0.440900  0.268600  1.0
  C  C1130  1  0.805900  0.365000  0.268600  1.0
  C  C1131  1  0.559100  0.194100  0.268600  1.0
  C  C1132  1  0.194100  0.559100  0.231400  1.0
  C  C1133  1  0.440900  0.635000  0.231400  1.0
  C  C1134  1  0.365000  0.805900  0.231400  1.0
  C  C1135  1  0.365000  0.559100  0.731400  1.0
  C  C1136  1  0.194100  0.635000  0.731400  1.0
  C  C1137  1  0.440900  0.805900  0.731400  1.0
  C  C1138  1  0.805900  0.440900  0.768600  1.0
  C  C1139  1  0.559100  0.365000  0.768600  1.0
  C  C1140  1  0.635000  0.194100  0.768600  1.0
  C  C1141  1  0.668000  0.419000  0.245400  1.0
  C  C1142  1  0.751000  0.332000  0.245400  1.0
  C  C1143  1  0.581000  0.249000  0.245400  1.0
  C  C1144  1  0.249000  0.581000  0.254600  1.0
  C  C1145  1  0.419000  0.668000  0.254600  1.0
  C  C1146  1  0.332000  0.751000  0.254600  1.0
  C  C1147  1  0.332000  0.581000  0.754600  1.0
  C  C1148  1  0.249000  0.668000  0.754600  1.0
  C  C1149  1  0.419000  0.751000  0.754600  1.0
  C  C1150  1  0.751000  0.419000  0.745400  1.0
  C  C1151  1  0.581000  0.332000  0.745400  1.0
  C  C1152  1  0.668000  0.249000  0.745400  1.0
  C  C1153  1  0.656800  0.404300  0.199800  1.0
  C  C1154  1  0.747500  0.343200  0.199800  1.0
  C  C1155  1  0.595700  0.252500  0.199800  1.0
  C  C1156  1  0.252500  0.595700  0.300200  1.0
  C  C1157  1  0.404300  0.656800  0.300200  1.0
  C  C1158  1  0.343200  0.747500  0.300200  1.0
  C  C1159  1  0.343200  0.595700  0.800200  1.0
  C  C1160  1  0.252500  0.656800  0.800200  1.0
  C  C1161  1  0.404300  0.747500  0.800200  1.0
  C  C1162  1  0.747500  0.404300  0.699800  1.0
  C  C1163  1  0.595700  0.343200  0.699800  1.0
  C  C1164  1  0.656800  0.252500  0.699800  1.0
  C  C1165  1  0.608900  0.347100  0.195500  1.0
  C  C1166  1  0.738200  0.391100  0.195500  1.0
  C  C1167  1  0.652900  0.261800  0.195500  1.0
  C  C1168  1  0.261800  0.652900  0.304500  1.0
  C  C1169  1  0.347100  0.608900  0.304500  1.0
  C  C1170  1  0.391100  0.738200  0.304500  1.0
  C  C1171  1  0.391100  0.652900  0.804500  1.0
  C  C1172  1  0.261800  0.608900  0.804500  1.0
  C  C1173  1  0.347100  0.738200  0.804500  1.0
  C  C1174  1  0.738200  0.347100  0.695500  1.0
  C  C1175  1  0.652900  0.391100  0.695500  1.0
  C  C1176  1  0.608900  0.261800  0.695500  1.0
  C  C1177  1  0.931700  0.374600  0.647600  1.0
  C  C1178  1  0.442900  0.068300  0.647600  1.0
  C  C1179  1  0.625400  0.557100  0.647600  1.0
  C  C1180  1  0.557100  0.625400  0.852400  1.0
  C  C1181  1  0.374600  0.931700  0.852400  1.0
  C  C1182  1  0.068300  0.442900  0.852400  1.0
  C  C1183  1  0.068300  0.625400  0.352400  1.0
  C  C1184  1  0.557100  0.931700  0.352400  1.0
  C  C1185  1  0.374600  0.442900  0.352400  1.0
  C  C1186  1  0.442900  0.374600  0.147600  1.0
  C  C1187  1  0.625400  0.068300  0.147600  1.0
  C  C1188  1  0.931700  0.557100  0.147600  1.0
  C  C1189  1  0.893300  0.328400  0.668200  1.0
  C  C1190  1  0.435100  0.106700  0.668200  1.0
  C  C1191  1  0.671600  0.564900  0.668200  1.0
  C  C1192  1  0.564900  0.671600  0.831800  1.0
  C  C1193  1  0.328400  0.893300  0.831800  1.0
  C  C1194  1  0.106700  0.435100  0.831800  1.0
  C  C1195  1  0.106700  0.671600  0.331800  1.0
  C  C1196  1  0.564900  0.893300  0.331800  1.0
  C  C1197  1  0.328400  0.435100  0.331800  1.0
  C  C1198  1  0.435100  0.328400  0.168200  1.0
  C  C1199  1  0.671600  0.106700  0.168200  1.0
  C  C1200  1  0.893300  0.564900  0.168200  1.0
  C  C1201  1  0.844300  0.291500  0.650300  1.0
  C  C1202  1  0.447200  0.155700  0.650300  1.0
  C  C1203  1  0.708500  0.552800  0.650300  1.0
  C  C1204  1  0.552800  0.708500  0.849700  1.0
  C  C1205  1  0.291500  0.844300  0.849700  1.0
  C  C1206  1  0.155700  0.447200  0.849700  1.0
  C  C1207  1  0.155700  0.708500  0.349700  1.0
  C  C1208  1  0.552800  0.844300  0.349700  1.0
  C  C1209  1  0.291500  0.447200  0.349700  1.0
  C  C1210  1  0.447200  0.291500  0.150300  1.0
  C  C1211  1  0.708500  0.155700  0.150300  1.0
  C  C1212  1  0.844300  0.552800  0.150300  1.0
  C  C1213  1  0.836200  0.301300  0.611600  1.0
  C  C1214  1  0.465100  0.163800  0.611600  1.0
  C  C1215  1  0.698700  0.534900  0.611600  1.0
  C  C1216  1  0.534900  0.698700  0.888400  1.0
  C  C1217  1  0.301300  0.836200  0.888400  1.0
  C  C1218  1  0.163800  0.465100  0.888400  1.0
  C  C1219  1  0.163800  0.698700  0.388400  1.0
  C  C1220  1  0.534900  0.836200  0.388400  1.0
  C  C1221  1  0.301300  0.465100  0.388400  1.0
  C  C1222  1  0.465100  0.301300  0.111600  1.0
  C  C1223  1  0.698700  0.163800  0.111600  1.0
  C  C1224  1  0.836200  0.534900  0.111600  1.0
  C  C1225  1  0.875900  0.348300  0.593900  1.0
  C  C1226  1  0.472400  0.124100  0.593900  1.0
  C  C1227  1  0.651700  0.527600  0.593900  1.0
  C  C1228  1  0.527600  0.651700  0.906100  1.0
  C  C1229  1  0.348300  0.875900  0.906100  1.0
  C  C1230  1  0.124100  0.472400  0.906100  1.0
  C  C1231  1  0.124100  0.651700  0.406100  1.0
  C  C1232  1  0.527600  0.875900  0.406100  1.0
  C  C1233  1  0.348300  0.472400  0.406100  1.0
  C  C1234  1  0.472400  0.348300  0.093900  1.0
  C  C1235  1  0.651700  0.124100  0.093900  1.0
  C  C1236  1  0.875900  0.527600  0.093900  1.0
  C  C1237  1  0.814800  0.198400  0.826200  1.0
  C  C1238  1  0.383600  0.185200  0.826200  1.0
  C  C1239  1  0.801600  0.616400  0.826200  1.0
  C  C1240  1  0.616400  0.801600  0.673800  1.0
  C  C1241  1  0.198400  0.814800  0.673800  1.0
  C  C1242  1  0.185200  0.383600  0.673800  1.0
  C  C1243  1  0.185200  0.801600  0.173800  1.0
  C  C1244  1  0.616400  0.814800  0.173800  1.0
  C  C1245  1  0.198400  0.383600  0.173800  1.0
  C  C1246  1  0.383600  0.198400  0.326200  1.0
  C  C1247  1  0.801600  0.185200  0.326200  1.0
  C  C1248  1  0.814800  0.616400  0.326200  1.0
  C  C1249  1  0.813600  0.211400  0.788000  1.0
  C  C1250  1  0.397800  0.186400  0.788000  1.0
  C  C1251  1  0.788600  0.602200  0.788000  1.0
  C  C1252  1  0.602200  0.788600  0.712000  1.0
  C  C1253  1  0.211400  0.813600  0.712000  1.0
  C  C1254  1  0.186400  0.397800  0.712000  1.0
  C  C1255  1  0.186400  0.788600  0.212000  1.0
  C  C1256  1  0.602200  0.813600  0.212000  1.0
  C  C1257  1  0.211400  0.397800  0.212000  1.0
  C  C1258  1  0.397800  0.211400  0.288000  1.0
  C  C1259  1  0.788600  0.186400  0.288000  1.0
  C  C1260  1  0.813600  0.602200  0.288000  1.0
  C  C1261  1  0.767900  0.178800  0.765800  1.0
  C  C1262  1  0.410900  0.232100  0.765800  1.0
  C  C1263  1  0.821200  0.589100  0.765800  1.0
  C  C1264  1  0.589100  0.821200  0.734200  1.0
  C  C1265  1  0.178800  0.767900  0.734200  1.0
  C  C1266  1  0.232100  0.410900  0.734200  1.0
  C  C1267  1  0.232100  0.821200  0.234200  1.0
  C  C1268  1  0.589100  0.767900  0.234200  1.0
  C  C1269  1  0.178800  0.410900  0.234200  1.0
  C  C1270  1  0.410900  0.178800  0.265800  1.0
  C  C1271  1  0.821200  0.232100  0.265800  1.0
  C  C1272  1  0.767900  0.589100  0.265800  1.0
  C  C1273  1  0.724400  0.133100  0.782800  1.0
  C  C1274  1  0.408700  0.275600  0.782800  1.0
  C  C1275  1  0.866900  0.591300  0.782800  1.0
  C  C1276  1  0.591300  0.866900  0.717200  1.0
  C  C1277  1  0.133100  0.724400  0.717200  1.0
  C  C1278  1  0.275600  0.408700  0.717200  1.0
  C  C1279  1  0.275600  0.866900  0.217200  1.0
  C  C1280  1  0.591300  0.724400  0.217200  1.0
  C  C1281  1  0.133100  0.408700  0.217200  1.0
  C  C1282  1  0.408700  0.133100  0.282800  1.0
  C  C1283  1  0.866900  0.275600  0.282800  1.0
  C  C1284  1  0.724400  0.591300  0.282800  1.0
  C  C1285  1  0.728100  0.121800  0.821400  1.0
  C  C1286  1  0.393700  0.271900  0.821400  1.0
  C  C1287  1  0.878200  0.606300  0.821400  1.0
  C  C1288  1  0.606300  0.878200  0.678600  1.0
  C  C1289  1  0.121800  0.728100  0.678600  1.0
  C  C1290  1  0.271900  0.393700  0.678600  1.0
  C  C1291  1  0.271900  0.878200  0.178600  1.0
  C  C1292  1  0.606300  0.728100  0.178600  1.0
  C  C1293  1  0.121800  0.393700  0.178600  1.0
  C  C1294  1  0.393700  0.121800  0.321400  1.0
  C  C1295  1  0.878200  0.271900  0.321400  1.0
  C  C1296  1  0.728100  0.606300  0.321400  1.0
  C  C1297  1  0.568600  0.058900  0.646200  1.0
  C  C1298  1  0.490300  0.431400  0.646200  1.0
  C  C1299  1  0.941100  0.509700  0.646200  1.0
  C  C1300  1  0.509700  0.941100  0.853800  1.0
  C  C1301  1  0.058900  0.568600  0.853800  1.0
  C  C1302  1  0.431400  0.490300  0.853800  1.0
  C  C1303  1  0.431400  0.941100  0.353800  1.0
  C  C1304  1  0.509700  0.568600  0.353800  1.0
  C  C1305  1  0.058900  0.490300  0.353800  1.0
  C  C1306  1  0.490300  0.058900  0.146200  1.0
  C  C1307  1  0.941100  0.431400  0.146200  1.0
  C  C1308  1  0.568600  0.509700  0.146200  1.0
  C  C1309  1  0.617500  0.088500  0.665400  1.0
  C  C1310  1  0.471000  0.382500  0.665400  1.0
  C  C1311  1  0.911500  0.529000  0.665400  1.0
  C  C1312  1  0.529000  0.911500  0.834600  1.0
  C  C1313  1  0.088500  0.617500  0.834600  1.0
  C  C1314  1  0.382500  0.471000  0.834600  1.0
  C  C1315  1  0.382500  0.911500  0.334600  1.0
  C  C1316  1  0.529000  0.617500  0.334600  1.0
  C  C1317  1  0.088500  0.471000  0.334600  1.0
  C  C1318  1  0.471000  0.088500  0.165400  1.0
  C  C1319  1  0.911500  0.382500  0.165400  1.0
  C  C1320  1  0.617500  0.529000  0.165400  1.0
  C  C1321  1  0.659400  0.137200  0.649600  1.0
  C  C1322  1  0.477800  0.340600  0.649600  1.0
  C  C1323  1  0.862800  0.522200  0.649600  1.0
  C  C1324  1  0.522200  0.862800  0.850400  1.0
  C  C1325  1  0.137200  0.659400  0.850400  1.0
  C  C1326  1  0.340600  0.477800  0.850400  1.0
  C  C1327  1  0.340600  0.862800  0.350400  1.0
  C  C1328  1  0.522200  0.659400  0.350400  1.0
  C  C1329  1  0.137200  0.477800  0.350400  1.0
  C  C1330  1  0.477800  0.137200  0.149600  1.0
  C  C1331  1  0.862800  0.340600  0.149600  1.0
  C  C1332  1  0.659400  0.522200  0.149600  1.0
  C  C1333  1  0.649500  0.152800  0.613600  1.0
  C  C1334  1  0.503300  0.350500  0.613600  1.0
  C  C1335  1  0.847200  0.496700  0.613600  1.0
  C  C1336  1  0.496700  0.847200  0.886400  1.0
  C  C1337  1  0.152800  0.649500  0.886400  1.0
  C  C1338  1  0.350500  0.503300  0.886400  1.0
  C  C1339  1  0.350500  0.847200  0.386400  1.0
  C  C1340  1  0.496700  0.649500  0.386400  1.0
  C  C1341  1  0.152800  0.503300  0.386400  1.0
  C  C1342  1  0.503300  0.152800  0.113600  1.0
  C  C1343  1  0.847200  0.350500  0.113600  1.0
  C  C1344  1  0.649500  0.496700  0.113600  1.0
  C  C1345  1  0.599800  0.121700  0.595800  1.0
  C  C1346  1  0.521900  0.400200  0.595800  1.0
  C  C1347  1  0.878300  0.478100  0.595800  1.0
  C  C1348  1  0.478100  0.878300  0.904200  1.0
  C  C1349  1  0.121700  0.599800  0.904200  1.0
  C  C1350  1  0.400200  0.521900  0.904200  1.0
  C  C1351  1  0.400200  0.878300  0.404200  1.0
  C  C1352  1  0.478100  0.599800  0.404200  1.0
  C  C1353  1  0.121700  0.521900  0.404200  1.0
  C  C1354  1  0.521900  0.121700  0.095800  1.0
  C  C1355  1  0.878300  0.400200  0.095800  1.0
  C  C1356  1  0.599800  0.478100  0.095800  1.0
  C  C1357  1  0.798900  0.243300  0.670400  1.0
  C  C1358  1  0.444400  0.201100  0.670400  1.0
  C  C1359  1  0.756700  0.555600  0.670400  1.0
  C  C1360  1  0.555600  0.756700  0.829600  1.0
  C  C1361  1  0.243300  0.798900  0.829600  1.0
  C  C1362  1  0.201100  0.444400  0.829600  1.0
  C  C1363  1  0.201100  0.756700  0.329600  1.0
  C  C1364  1  0.555600  0.798900  0.329600  1.0
  C  C1365  1  0.243300  0.444400  0.329600  1.0
  C  C1366  1  0.444400  0.243300  0.170400  1.0
  C  C1367  1  0.756700  0.201100  0.170400  1.0
  C  C1368  1  0.798900  0.555600  0.170400  1.0
  C  C1369  1  0.763700  0.191100  0.723900  1.0
  C  C1370  1  0.427400  0.236300  0.723900  1.0
  C  C1371  1  0.808900  0.572600  0.723900  1.0
  C  C1372  1  0.572600  0.808900  0.776100  1.0
  C  C1373  1  0.191100  0.763700  0.776100  1.0
  C  C1374  1  0.236300  0.427400  0.776100  1.0
  C  C1375  1  0.236300  0.808900  0.276100  1.0
  C  C1376  1  0.572600  0.763700  0.276100  1.0
  C  C1377  1  0.191100  0.427400  0.276100  1.0
  C  C1378  1  0.427400  0.191100  0.223900  1.0
  C  C1379  1  0.808900  0.236300  0.223900  1.0
  C  C1380  1  0.763700  0.572600  0.223900  1.0
  C  C1381  1  0.712100  0.170900  0.669700  1.0
  C  C1382  1  0.458800  0.287900  0.669700  1.0
  C  C1383  1  0.829100  0.541200  0.669700  1.0
  C  C1384  1  0.541200  0.829100  0.830300  1.0
  C  C1385  1  0.170900  0.712100  0.830300  1.0
  C  C1386  1  0.287900  0.458800  0.830300  1.0
  C  C1387  1  0.287900  0.829100  0.330300  1.0
  C  C1388  1  0.541200  0.712100  0.330300  1.0
  C  C1389  1  0.170900  0.458800  0.330300  1.0
  C  C1390  1  0.458800  0.170900  0.169700  1.0
  C  C1391  1  0.829100  0.287900  0.169700  1.0
  C  C1392  1  0.712100  0.541200  0.169700  1.0
  C  C1393  1  0.782600  0.242300  0.921200  1.0
  C  C1394  1  0.459700  0.217400  0.921200  1.0
  C  C1395  1  0.757700  0.540300  0.921200  1.0
  C  C1396  1  0.540300  0.757700  0.578800  1.0
  C  C1397  1  0.242300  0.782600  0.578800  1.0
  C  C1398  1  0.217400  0.459700  0.578800  1.0
  C  C1399  1  0.217400  0.757700  0.078800  1.0
  C  C1400  1  0.540300  0.782600  0.078800  1.0
  C  C1401  1  0.242300  0.459700  0.078800  1.0
  C  C1402  1  0.459700  0.242300  0.421200  1.0
  C  C1403  1  0.757700  0.217400  0.421200  1.0
  C  C1404  1  0.782600  0.540300  0.421200  1.0
  C  C1405  1  0.764000  0.279600  0.927300  1.0
  C  C1406  1  0.515600  0.236000  0.927300  1.0
  C  C1407  1  0.720400  0.484400  0.927300  1.0
  C  C1408  1  0.484400  0.720400  0.572700  1.0
  C  C1409  1  0.279600  0.764000  0.572700  1.0
  C  C1410  1  0.236000  0.515600  0.572700  1.0
  C  C1411  1  0.236000  0.720400  0.072700  1.0
  C  C1412  1  0.484400  0.764000  0.072700  1.0
  C  C1413  1  0.279600  0.515600  0.072700  1.0
  C  C1414  1  0.515600  0.279600  0.427300  1.0
  C  C1415  1  0.720400  0.236000  0.427300  1.0
  C  C1416  1  0.764000  0.484400  0.427300  1.0
  C  C1417  1  0.707800  0.260900  0.925700  1.0
  C  C1418  1  0.553100  0.292200  0.925700  1.0
  C  C1419  1  0.739100  0.446900  0.925700  1.0
  C  C1420  1  0.446900  0.739100  0.574300  1.0
  C  C1421  1  0.260900  0.707800  0.574300  1.0
  C  C1422  1  0.292200  0.553100  0.574300  1.0
  C  C1423  1  0.292200  0.739100  0.074300  1.0
  C  C1424  1  0.446900  0.707800  0.074300  1.0
  C  C1425  1  0.260900  0.553100  0.074300  1.0
  C  C1426  1  0.553100  0.260900  0.425700  1.0
  C  C1427  1  0.739100  0.292200  0.425700  1.0
  C  C1428  1  0.707800  0.446900  0.425700  1.0
  C  C1429  1  0.671400  0.205000  0.916900  1.0
  C  C1430  1  0.533600  0.328600  0.916900  1.0
  C  C1431  1  0.795000  0.466400  0.916900  1.0
  C  C1432  1  0.466400  0.795000  0.583100  1.0
  C  C1433  1  0.205000  0.671400  0.583100  1.0
  C  C1434  1  0.328600  0.533600  0.583100  1.0
  C  C1435  1  0.328600  0.795000  0.083100  1.0
  C  C1436  1  0.466400  0.671400  0.083100  1.0
  C  C1437  1  0.205000  0.533600  0.083100  1.0
  C  C1438  1  0.533600  0.205000  0.416900  1.0
  C  C1439  1  0.795000  0.328600  0.416900  1.0
  C  C1440  1  0.671400  0.466400  0.416900  1.0
  C  C1441  1  0.693400  0.171100  0.910300  1.0
  C  C1442  1  0.477700  0.306600  0.910300  1.0
  C  C1443  1  0.828900  0.522300  0.910300  1.0
  C  C1444  1  0.522300  0.828900  0.589700  1.0
  C  C1445  1  0.171100  0.693400  0.589700  1.0
  C  C1446  1  0.306600  0.477700  0.589700  1.0
  C  C1447  1  0.306600  0.828900  0.089700  1.0
  C  C1448  1  0.522300  0.693400  0.089700  1.0
  C  C1449  1  0.171100  0.477700  0.089700  1.0
  C  C1450  1  0.477700  0.171100  0.410300  1.0
  C  C1451  1  0.828900  0.306600  0.410300  1.0
  C  C1452  1  0.693400  0.522300  0.410300  1.0
  C  C1453  1  0.685800  0.299500  0.929600  1.0
  C  C1454  1  0.613700  0.314200  0.929600  1.0
  C  C1455  1  0.700500  0.386300  0.929600  1.0
  C  C1456  1  0.386300  0.700500  0.570400  1.0
  C  C1457  1  0.299500  0.685800  0.570400  1.0
  C  C1458  1  0.314200  0.613700  0.570400  1.0
  C  C1459  1  0.314200  0.700500  0.070400  1.0
  C  C1460  1  0.386300  0.685800  0.070400  1.0
  C  C1461  1  0.299500  0.613700  0.070400  1.0
  C  C1462  1  0.613700  0.299500  0.429600  1.0
  C  C1463  1  0.700500  0.314200  0.429600  1.0
  C  C1464  1  0.685800  0.386300  0.429600  1.0
  C  C1465  1  0.763600  0.128600  0.986700  1.0
  C  C1466  1  0.365000  0.236400  0.986700  1.0
  C  C1467  1  0.871400  0.635000  0.986700  1.0
  C  C1468  1  0.635000  0.871400  0.513300  1.0
  C  C1469  1  0.128600  0.763600  0.513300  1.0
  C  C1470  1  0.236400  0.365000  0.513300  1.0
  C  C1471  1  0.236400  0.871400  0.013300  1.0
  C  C1472  1  0.635000  0.763600  0.013300  1.0
  C  C1473  1  0.128600  0.365000  0.013300  1.0
  C  C1474  1  0.365000  0.128600  0.486700  1.0
  C  C1475  1  0.871400  0.236400  0.486700  1.0
  C  C1476  1  0.763600  0.635000  0.486700  1.0
  C  C1477  1  0.759900  0.104600  0.022200  1.0
  C  C1478  1  0.344700  0.240100  0.022200  1.0
  C  C1479  1  0.895400  0.655300  0.022200  1.0
  C  C1480  1  0.655300  0.895400  0.477800  1.0
  C  C1481  1  0.104600  0.759900  0.477800  1.0
  C  C1482  1  0.240100  0.344700  0.477800  1.0
  C  C1483  1  0.240100  0.895400  0.977800  1.0
  C  C1484  1  0.655300  0.759900  0.977800  1.0
  C  C1485  1  0.104600  0.344700  0.977800  1.0
  C  C1486  1  0.344700  0.104600  0.522200  1.0
  C  C1487  1  0.895400  0.240100  0.522200  1.0
  C  C1488  1  0.759900  0.655300  0.522200  1.0
  C  C1489  1  0.763200  0.056900  0.023900  1.0
  C  C1490  1  0.293700  0.236800  0.023900  1.0
  C  C1491  1  0.943100  0.706300  0.023900  1.0
  C  C1492  1  0.706300  0.943100  0.476100  1.0
  C  C1493  1  0.056900  0.763200  0.476100  1.0
  C  C1494  1  0.236800  0.293700  0.476100  1.0
  C  C1495  1  0.236800  0.943100  0.976100  1.0
  C  C1496  1  0.706300  0.763200  0.976100  1.0
  C  C1497  1  0.056900  0.293700  0.976100  1.0
  C  C1498  1  0.293700  0.056900  0.523900  1.0
  C  C1499  1  0.943100  0.236800  0.523900  1.0
  C  C1500  1  0.763200  0.706300  0.523900  1.0
  C  C1501  1  0.769900  0.035600  0.991800  1.0
  C  C1502  1  0.265700  0.230100  0.991800  1.0
  C  C1503  1  0.964400  0.734300  0.991800  1.0
  C  C1504  1  0.734300  0.964400  0.508200  1.0
  C  C1505  1  0.035600  0.769900  0.508200  1.0
  C  C1506  1  0.230100  0.265700  0.508200  1.0
  C  C1507  1  0.230100  0.964400  0.008200  1.0
  C  C1508  1  0.734300  0.769900  0.008200  1.0
  C  C1509  1  0.035600  0.265700  0.008200  1.0
  C  C1510  1  0.265700  0.035600  0.491800  1.0
  C  C1511  1  0.964400  0.230100  0.491800  1.0
  C  C1512  1  0.769900  0.734300  0.491800  1.0
  C  C1513  1  0.774700  0.060500  0.955900  1.0
  C  C1514  1  0.285800  0.225300  0.955900  1.0
  C  C1515  1  0.939500  0.714200  0.955900  1.0
  C  C1516  1  0.714200  0.939500  0.544100  1.0
  C  C1517  1  0.060500  0.774700  0.544100  1.0
  C  C1518  1  0.225300  0.285800  0.544100  1.0
  C  C1519  1  0.225300  0.939500  0.044100  1.0
  C  C1520  1  0.714200  0.774700  0.044100  1.0
  C  C1521  1  0.060500  0.285800  0.044100  1.0
  C  C1522  1  0.285800  0.060500  0.455900  1.0
  C  C1523  1  0.939500  0.225300  0.455900  1.0
  C  C1524  1  0.774700  0.714200  0.455900  1.0
  C  C1525  1  0.783500  0.040600  0.918900  1.0
  C  C1526  1  0.257100  0.216500  0.918900  1.0
  C  C1527  1  0.959400  0.742900  0.918900  1.0
  C  C1528  1  0.742900  0.959400  0.581100  1.0
  C  C1529  1  0.040600  0.783500  0.581100  1.0
  C  C1530  1  0.216500  0.257100  0.581100  1.0
  C  C1531  1  0.216500  0.959400  0.081100  1.0
  C  C1532  1  0.742900  0.783500  0.081100  1.0
  C  C1533  1  0.040600  0.257100  0.081100  1.0
  C  C1534  1  0.257100  0.040600  0.418900  1.0
  C  C1535  1  0.959400  0.216500  0.418900  1.0
  C  C1536  1  0.783500  0.742900  0.418900  1.0
  C  C1537  1  0.787500  0.993600  0.913000  1.0
  C  C1538  1  0.206100  0.212500  0.913000  1.0
  C  C1539  1  0.006400  0.793900  0.913000  1.0
  C  C1540  1  0.793900  0.006400  0.587000  1.0
  C  C1541  1  0.993600  0.787500  0.587000  1.0
  C  C1542  1  0.212500  0.206100  0.587000  1.0
  C  C1543  1  0.212500  0.006400  0.087000  1.0
  C  C1544  1  0.793900  0.787500  0.087000  1.0
  C  C1545  1  0.993600  0.206100  0.087000  1.0
  C  C1546  1  0.206100  0.993600  0.413000  1.0
  C  C1547  1  0.006400  0.212500  0.413000  1.0
  C  C1548  1  0.787500  0.793900  0.413000  1.0
  C  C1549  1  0.796200  0.978700  0.878200  1.0
  C  C1550  1  0.182500  0.203800  0.878200  1.0
  C  C1551  1  0.021300  0.817500  0.878200  1.0
  C  C1552  1  0.817500  0.021300  0.621800  1.0
  C  C1553  1  0.978700  0.796200  0.621800  1.0
  C  C1554  1  0.203800  0.182500  0.621800  1.0
  C  C1555  1  0.203800  0.021300  0.121800  1.0
  C  C1556  1  0.817500  0.796200  0.121800  1.0
  C  C1557  1  0.978700  0.182500  0.121800  1.0
  C  C1558  1  0.182500  0.978700  0.378200  1.0
  C  C1559  1  0.021300  0.203800  0.378200  1.0
  C  C1560  1  0.796200  0.817500  0.378200  1.0
  C  C1561  1  0.803600  0.011000  0.847900  1.0
  C  C1562  1  0.207400  0.196400  0.847900  1.0
  C  C1563  1  0.989000  0.792600  0.847900  1.0
  C  C1564  1  0.792600  0.989000  0.652100  1.0
  C  C1565  1  0.011000  0.803600  0.652100  1.0
  C  C1566  1  0.196400  0.207400  0.652100  1.0
  C  C1567  1  0.196400  0.989000  0.152100  1.0
  C  C1568  1  0.792600  0.803600  0.152100  1.0
  C  C1569  1  0.011000  0.207400  0.152100  1.0
  C  C1570  1  0.207400  0.011000  0.347900  1.0
  C  C1571  1  0.989000  0.196400  0.347900  1.0
  C  C1572  1  0.803600  0.792600  0.347900  1.0
  C  C1573  1  0.800600  0.059600  0.852300  1.0
  C  C1574  1  0.259000  0.199400  0.852300  1.0
  C  C1575  1  0.940400  0.741000  0.852300  1.0
  C  C1576  1  0.741000  0.940400  0.647700  1.0
  C  C1577  1  0.059600  0.800600  0.647700  1.0
  C  C1578  1  0.199400  0.259000  0.647700  1.0
  C  C1579  1  0.199400  0.940400  0.147700  1.0
  C  C1580  1  0.741000  0.800600  0.147700  1.0
  C  C1581  1  0.059600  0.259000  0.147700  1.0
  C  C1582  1  0.259000  0.059600  0.352300  1.0
  C  C1583  1  0.940400  0.199400  0.352300  1.0
  C  C1584  1  0.800600  0.741000  0.352300  1.0
  C  C1585  1  0.016800  0.387500  0.555300  1.0
  C  C1586  1  0.370700  0.983200  0.555300  1.0
  C  C1587  1  0.612500  0.629300  0.555300  1.0
  C  C1588  1  0.629300  0.612500  0.944700  1.0
  C  C1589  1  0.387500  0.016800  0.944700  1.0
  C  C1590  1  0.983200  0.370700  0.944700  1.0
  C  C1591  1  0.983200  0.612500  0.444700  1.0
  C  C1592  1  0.629300  0.016800  0.444700  1.0
  C  C1593  1  0.387500  0.370700  0.444700  1.0
  C  C1594  1  0.370700  0.387500  0.055300  1.0
  C  C1595  1  0.612500  0.983200  0.055300  1.0
  C  C1596  1  0.016800  0.629300  0.055300  1.0
  C  C1597  1  0.054100  0.377800  0.534700  1.0
  C  C1598  1  0.323700  0.945900  0.534700  1.0
  C  C1599  1  0.622200  0.676300  0.534700  1.0
  C  C1600  1  0.676300  0.622200  0.965300  1.0
  C  C1601  1  0.377800  0.054100  0.965300  1.0
  C  C1602  1  0.945900  0.323700  0.965300  1.0
  C  C1603  1  0.945900  0.622200  0.465300  1.0
  C  C1604  1  0.676300  0.054100  0.465300  1.0
  C  C1605  1  0.377800  0.323700  0.465300  1.0
  C  C1606  1  0.323700  0.377800  0.034700  1.0
  C  C1607  1  0.622200  0.945900  0.034700  1.0
  C  C1608  1  0.054100  0.676300  0.034700  1.0
  C  C1609  1  0.095700  0.420300  0.513700  1.0
  C  C1610  1  0.324600  0.904300  0.513700  1.0
  C  C1611  1  0.579700  0.675400  0.513700  1.0
  C  C1612  1  0.675400  0.579700  0.986300  1.0
  C  C1613  1  0.420300  0.095700  0.986300  1.0
  C  C1614  1  0.904300  0.324600  0.986300  1.0
  C  C1615  1  0.904300  0.579700  0.486300  1.0
  C  C1616  1  0.675400  0.095700  0.486300  1.0
  C  C1617  1  0.420300  0.324600  0.486300  1.0
  C  C1618  1  0.324600  0.420300  0.013700  1.0
  C  C1619  1  0.579700  0.904300  0.013700  1.0
  C  C1620  1  0.095700  0.675400  0.013700  1.0
  C  C1621  1  0.099300  0.471300  0.513300  1.0
  C  C1622  1  0.372000  0.900700  0.513300  1.0
  C  C1623  1  0.528700  0.628000  0.513300  1.0
  C  C1624  1  0.628000  0.528700  0.986700  1.0
  C  C1625  1  0.471300  0.099300  0.986700  1.0
  C  C1626  1  0.900700  0.372000  0.986700  1.0
  C  C1627  1  0.900700  0.528700  0.486700  1.0
  C  C1628  1  0.628000  0.099300  0.486700  1.0
  C  C1629  1  0.471300  0.372000  0.486700  1.0
  C  C1630  1  0.372000  0.471300  0.013300  1.0
  C  C1631  1  0.528700  0.900700  0.013300  1.0
  C  C1632  1  0.099300  0.628000  0.013300  1.0
  C  C1633  1  0.060500  0.478900  0.533600  1.0
  C  C1634  1  0.418400  0.939500  0.533600  1.0
  C  C1635  1  0.521100  0.581600  0.533600  1.0
  C  C1636  1  0.581600  0.521100  0.966400  1.0
  C  C1637  1  0.478900  0.060500  0.966400  1.0
  C  C1638  1  0.939500  0.418400  0.966400  1.0
  C  C1639  1  0.939500  0.521100  0.466400  1.0
  C  C1640  1  0.581600  0.060500  0.466400  1.0
  C  C1641  1  0.478900  0.418400  0.466400  1.0
  C  C1642  1  0.418400  0.478900  0.033600  1.0
  C  C1643  1  0.521100  0.939500  0.033600  1.0
  C  C1644  1  0.060500  0.581600  0.033600  1.0
  C  C1645  1  0.059000  0.530200  0.533700  1.0
  C  C1646  1  0.471200  0.941000  0.533700  1.0
  C  C1647  1  0.469800  0.528800  0.533700  1.0
  C  C1648  1  0.528800  0.469800  0.966300  1.0
  C  C1649  1  0.530200  0.059000  0.966300  1.0
  C  C1650  1  0.941000  0.471200  0.966300  1.0
  C  C1651  1  0.941000  0.469800  0.466300  1.0
  C  C1652  1  0.528800  0.059000  0.466300  1.0
  C  C1653  1  0.530200  0.471200  0.466300  1.0
  C  C1654  1  0.471200  0.530200  0.033700  1.0
  C  C1655  1  0.469800  0.941000  0.033700  1.0
  C  C1656  1  0.059000  0.528800  0.033700  1.0
  C  C1657  1  0.095600  0.577700  0.514000  1.0
  C  C1658  1  0.482100  0.904400  0.514000  1.0
  C  C1659  1  0.422300  0.517900  0.514000  1.0
  C  C1660  1  0.517900  0.422300  0.986000  1.0
  C  C1661  1  0.577700  0.095600  0.986000  1.0
  C  C1662  1  0.904400  0.482100  0.986000  1.0
  C  C1663  1  0.904400  0.422300  0.486000  1.0
  C  C1664  1  0.517900  0.095600  0.486000  1.0
  C  C1665  1  0.577700  0.482100  0.486000  1.0
  C  C1666  1  0.482100  0.577700  0.014000  1.0
  C  C1667  1  0.422300  0.904400  0.014000  1.0
  C  C1668  1  0.095600  0.517900  0.014000  1.0
  C  C1669  1  0.088700  0.622900  0.514700  1.0
  C  C1670  1  0.534200  0.911300  0.514700  1.0
  C  C1671  1  0.377100  0.465800  0.514700  1.0
  C  C1672  1  0.465800  0.377100  0.985300  1.0
  C  C1673  1  0.622900  0.088700  0.985300  1.0
  C  C1674  1  0.911300  0.534200  0.985300  1.0
  C  C1675  1  0.911300  0.377100  0.485300  1.0
  C  C1676  1  0.465800  0.088700  0.485300  1.0
  C  C1677  1  0.622900  0.534200  0.485300  1.0
  C  C1678  1  0.534200  0.622900  0.014700  1.0
  C  C1679  1  0.377100  0.911300  0.014700  1.0
  C  C1680  1  0.088700  0.465800  0.014700  1.0
  C  C1681  1  0.045400  0.620700  0.535600  1.0
  C  C1682  1  0.575300  0.954600  0.535600  1.0
  C  C1683  1  0.379300  0.424700  0.535600  1.0
  C  C1684  1  0.424700  0.379300  0.964400  1.0
  C  C1685  1  0.620700  0.045400  0.964400  1.0
  C  C1686  1  0.954600  0.575300  0.964400  1.0
  C  C1687  1  0.954600  0.379300  0.464400  1.0
  C  C1688  1  0.424700  0.045400  0.464400  1.0
  C  C1689  1  0.620700  0.575300  0.464400  1.0
  C  C1690  1  0.575300  0.620700  0.035600  1.0
  C  C1691  1  0.379300  0.954600  0.035600  1.0
  C  C1692  1  0.045400  0.424700  0.035600  1.0
  C  C1693  1  0.010400  0.573200  0.555800  1.0
  C  C1694  1  0.562800  0.989600  0.555800  1.0
  C  C1695  1  0.426800  0.437200  0.555800  1.0
  C  C1696  1  0.437200  0.426800  0.944200  1.0
  C  C1697  1  0.573200  0.010400  0.944200  1.0
  C  C1698  1  0.989600  0.562800  0.944200  1.0
  C  C1699  1  0.989600  0.426800  0.444200  1.0
  C  C1700  1  0.437200  0.010400  0.444200  1.0
  C  C1701  1  0.573200  0.562800  0.444200  1.0
  C  C1702  1  0.562800  0.573200  0.055800  1.0
  C  C1703  1  0.426800  0.989600  0.055800  1.0
  C  C1704  1  0.010400  0.437200  0.055800  1.0
  N  N1705  1  0.536400  0.091800  0.870700  1
  N  N1706  1  0.555400  0.463600  0.870700  1
  N  N1707  1  0.908200  0.444600  0.870700  1
  N  N1708  1  0.444600  0.908200  0.629300  1
  N  N1709  1  0.091800  0.536400  0.629300  1
  N  N1710  1  0.463600  0.555400  0.629300  1
  N  N1711  1  0.463600  0.908200  0.129300  1
  N  N1712  1  0.444600  0.536400  0.129300  1
  N  N1713  1  0.091800  0.555400  0.129300  1
  N  N1714  1  0.555400  0.091800  0.370700  1
  N  N1715  1  0.908200  0.463600  0.370700  1
  N  N1716  1  0.536400  0.444600  0.370700  1
  N  N1717  1  0.651400  0.969300  0.889600  1
  N  N1718  1  0.317900  0.348600  0.889600  1
  N  N1719  1  0.030700  0.682100  0.889600  1
  N  N1720  1  0.682100  0.030700  0.610400  1
  N  N1721  1  0.969300  0.651400  0.610400  1
  N  N1722  1  0.348600  0.317900  0.610400  1
  N  N1723  1  0.348600  0.030700  0.110400  1
  N  N1724  1  0.682100  0.651400  0.110400  1
  N  N1725  1  0.969300  0.317900  0.110400  1
  N  N1726  1  0.317900  0.969300  0.389600  1
  N  N1727  1  0.030700  0.348600  0.389600  1
  N  N1728  1  0.651400  0.682100  0.389600  1
  N  N1729  1  0.741700  0.252500  0.025000  1
  N  N1730  1  0.510800  0.258300  0.025000  1
  N  N1731  1  0.747500  0.489200  0.025000  1
  N  N1732  1  0.489200  0.747500  0.475000  1
  N  N1733  1  0.252500  0.741700  0.475000  1
  N  N1734  1  0.258300  0.510800  0.475000  1
  N  N1735  1  0.258300  0.747500  0.975000  1
  N  N1736  1  0.489200  0.741700  0.975000  1
  N  N1737  1  0.252500  0.510800  0.975000  1
  N  N1738  1  0.510800  0.252500  0.525000  1
  N  N1739  1  0.747500  0.258300  0.525000  1
  N  N1740  1  0.741700  0.489200  0.525000  1
  N  N1741  1  0.907900  0.193500  0.912000  1
  N  N1742  1  0.285600  0.092100  0.912000  1
  N  N1743  1  0.806500  0.714400  0.912000  1
  N  N1744  1  0.714400  0.806500  0.588000  1
  N  N1745  1  0.193500  0.907900  0.588000  1
  N  N1746  1  0.092100  0.285600  0.588000  1
  N  N1747  1  0.092100  0.806500  0.088000  1
  N  N1748  1  0.714400  0.907900  0.088000  1
  N  N1749  1  0.193500  0.285600  0.088000  1
  N  N1750  1  0.285600  0.193500  0.412000  1
  N  N1751  1  0.806500  0.092100  0.412000  1
  N  N1752  1  0.907900  0.714400  0.412000  1
  N  N1753  1  0.922600  0.384600  0.611270  1.0
  N  N1754  1  0.462000  0.077400  0.611270  1.0
  N  N1755  1  0.615400  0.538000  0.611270  1.0
  N  N1756  1  0.538000  0.615400  0.888730  1.0
  N  N1757  1  0.384600  0.922600  0.888730  1.0
  N  N1758  1  0.077400  0.462000  0.888730  1.0
  N  N1759  1  0.077400  0.615400  0.388730  1.0
  N  N1760  1  0.538000  0.922600  0.388730  1.0
  N  N1761  1  0.384600  0.462000  0.388730  1.0
  N  N1762  1  0.462000  0.384600  0.111270  1.0
  N  N1763  1  0.615400  0.077400  0.111270  1.0
  N  N1764  1  0.922600  0.538000  0.111270  1.0
  N  N1765  1  0.772700  0.154400  0.842800  1.0
  N  N1766  1  0.381700  0.227300  0.842800  1.0
  N  N1767  1  0.845600  0.618300  0.842800  1.0
  N  N1768  1  0.618300  0.845600  0.657200  1.0
  N  N1769  1  0.154400  0.772700  0.657200  1.0
  N  N1770  1  0.227300  0.381700  0.657200  1.0
  N  N1771  1  0.227300  0.845600  0.157200  1.0
  N  N1772  1  0.618300  0.772700  0.157200  1.0
  N  N1773  1  0.154400  0.381700  0.157200  1.0
  N  N1774  1  0.381700  0.154400  0.342800  1.0
  N  N1775  1  0.845600  0.227300  0.342800  1.0
  N  N1776  1  0.772700  0.618300  0.342800  1.0
  N  N1777  1  0.558900  0.074700  0.611800  1.0
  N  N1778  1  0.515800  0.441100  0.611800  1.0
  N  N1779  1  0.925300  0.484200  0.611800  1.0
  N  N1780  1  0.484200  0.925300  0.888200  1.0
  N  N1781  1  0.074700  0.558900  0.888200  1.0
  N  N1782  1  0.441100  0.515800  0.888200  1.0
  N  N1783  1  0.441100  0.925300  0.388200  1.0
  N  N1784  1  0.484200  0.558900  0.388200  1.0
  N  N1785  1  0.074700  0.515800  0.388200  1.0
  N  N1786  1  0.515800  0.074700  0.111800  1.0
  N  N1787  1  0.925300  0.441100  0.111800  1.0
  N  N1788  1  0.558900  0.484200  0.111800  1.0
  N  N1789  1  0.807500  0.234700  0.707600  1.0
  N  N1790  1  0.427200  0.192500  0.707600  1.0
  N  N1791  1  0.765300  0.572800  0.707600  1.0
  N  N1792  1  0.572800  0.765300  0.792400  1.0
  N  N1793  1  0.234700  0.807500  0.792400  1.0
  N  N1794  1  0.192500  0.427200  0.792400  1.0
  N  N1795  1  0.192500  0.765300  0.292400  1.0
  N  N1796  1  0.572800  0.807500  0.292400  1.0
  N  N1797  1  0.234700  0.427200  0.292400  1.0
  N  N1798  1  0.427200  0.234700  0.207600  1.0
  N  N1799  1  0.765300  0.192500  0.207600  1.0
  N  N1800  1  0.807500  0.572800  0.207600  1.0
  N  N1801  1  0.716000  0.158200  0.706540  1.0
  N  N1802  1  0.442200  0.284000  0.706540  1.0
  N  N1803  1  0.841800  0.557800  0.706540  1.0
  N  N1804  1  0.557800  0.841800  0.793460  1.0
  N  N1805  1  0.158200  0.716000  0.793460  1.0
  N  N1806  1  0.284000  0.442200  0.793460  1.0
  N  N1807  1  0.284000  0.841800  0.293460  1.0
  N  N1808  1  0.557800  0.716000  0.293460  1.0
  N  N1809  1  0.158200  0.442200  0.293460  1.0
  N  N1810  1  0.442200  0.158200  0.206540  1.0
  N  N1811  1  0.841800  0.284000  0.206540  1.0
  N  N1812  1  0.716000  0.557800  0.206540  1.0
  N  N1813  1  0.752900  0.213400  0.650490  1.0
  N  N1814  1  0.460500  0.247100  0.650490  1.0
  N  N1815  1  0.786600  0.539500  0.650490  1.0
  N  N1816  1  0.539500  0.786600  0.849510  1.0
  N  N1817  1  0.213400  0.752900  0.849510  1.0
  N  N1818  1  0.247100  0.460500  0.849510  1.0
  N  N1819  1  0.247100  0.786600  0.349510  1.0
  N  N1820  1  0.539500  0.752900  0.349510  1.0
  N  N1821  1  0.213400  0.460500  0.349510  1.0
  N  N1822  1  0.460500  0.213400  0.150490  1.0
  N  N1823  1  0.786600  0.247100  0.150490  1.0
  N  N1824  1  0.752900  0.539500  0.150490  1.0
  N  N1825  1  0.747800  0.188800  0.912410  1.0
  N  N1826  1  0.441000  0.252200  0.912410  1.0
  N  N1827  1  0.811200  0.559000  0.912410  1.0
  N  N1828  1  0.559000  0.811200  0.587590  1.0
  N  N1829  1  0.188800  0.747800  0.587590  1.0
  N  N1830  1  0.252200  0.441000  0.587590  1.0
  N  N1831  1  0.252200  0.811200  0.087590  1.0
  N  N1832  1  0.559000  0.747800  0.087590  1.0
  N  N1833  1  0.188800  0.441000  0.087590  1.0
  N  N1834  1  0.441000  0.188800  0.412410  1.0
  N  N1835  1  0.811200  0.252200  0.412410  1.0
  N  N1836  1  0.747800  0.559000  0.412410  1.0
  N  N1837  1  0.631200  0.277600  0.929860  1.0
  N  N1838  1  0.646400  0.368800  0.929860  1.0
  N  N1839  1  0.722400  0.353600  0.929860  1.0
  N  N1840  1  0.353600  0.722400  0.570140  1.0
  N  N1841  1  0.277600  0.631200  0.570140  1.0
  N  N1842  1  0.368800  0.646400  0.570140  1.0
  N  N1843  1  0.368800  0.722400  0.070140  1.0
  N  N1844  1  0.353600  0.631200  0.070140  1.0
  N  N1845  1  0.277600  0.646400  0.070140  1.0
  N  N1846  1  0.646400  0.277600  0.429860  1.0
  N  N1847  1  0.722400  0.368800  0.429860  1.0
  N  N1848  1  0.631200  0.353600  0.429860  1.0
  N  N1849  1  0.770400  0.106800  0.953600  1.0
  N  N1850  1  0.336400  0.229600  0.953600  1.0
  N  N1851  1  0.893200  0.663600  0.953600  1.0
  N  N1852  1  0.663600  0.893200  0.546400  1.0
  N  N1853  1  0.106800  0.770400  0.546400  1.0
  N  N1854  1  0.229600  0.336400  0.546400  1.0
  N  N1855  1  0.229600  0.893200  0.046400  1.0
  N  N1856  1  0.663600  0.770400  0.046400  1.0
  N  N1857  1  0.106800  0.336400  0.046400  1.0
  N  N1858  1  0.336400  0.106800  0.453600  1.0
  N  N1859  1  0.893200  0.229600  0.453600  1.0
  N  N1860  1  0.770400  0.663600  0.453600  1.0
  N  N1861  1  0.789000  0.072400  0.887400  1.0
  N  N1862  1  0.283400  0.211000  0.887400  1.0
  N  N1863  1  0.927600  0.716600  0.887400  1.0
  N  N1864  1  0.716600  0.927600  0.612600  1.0
  N  N1865  1  0.072400  0.789000  0.612600  1.0
  N  N1866  1  0.211000  0.283400  0.612600  1.0
  N  N1867  1  0.211000  0.927600  0.112600  1.0
  N  N1868  1  0.716600  0.789000  0.112600  1.0
  N  N1869  1  0.072400  0.283400  0.112600  1.0
  N  N1870  1  0.283400  0.072400  0.387400  1.0
  N  N1871  1  0.927600  0.211000  0.387400  1.0
  N  N1872  1  0.789000  0.716600  0.387400  1.0
  N  N1873  1  0.019800  0.436600  0.554840  1.0
  N  N1874  1  0.416800  0.980200  0.554840  1.0
  N  N1875  1  0.563400  0.583200  0.554840  1.0
  N  N1876  1  0.583200  0.563400  0.945160  1.0
  N  N1877  1  0.436600  0.019800  0.945160  1.0
  N  N1878  1  0.980200  0.416800  0.945160  1.0
  N  N1879  1  0.980200  0.563400  0.445160  1.0
  N  N1880  1  0.583200  0.019800  0.445160  1.0
  N  N1881  1  0.436600  0.416800  0.445160  1.0
  N  N1882  1  0.416800  0.436600  0.054840  1.0
  N  N1883  1  0.563400  0.980200  0.054840  1.0
  N  N1884  1  0.019800  0.583200  0.054840  1.0
  N  N1885  1  0.016800  0.528800  0.554950  1.0
  N  N1886  1  0.512000  0.983200  0.554950  1.0
  N  N1887  1  0.471200  0.488000  0.554950  1.0
  N  N1888  1  0.488000  0.471200  0.945050  1.0
  N  N1889  1  0.528800  0.016800  0.945050  1.0
  N  N1890  1  0.983200  0.512000  0.945050  1.0
  N  N1891  1  0.983200  0.471200  0.445050  1.0
  N  N1892  1  0.488000  0.016800  0.445050  1.0
  N  N1893  1  0.528800  0.512000  0.445050  1.0
  N  N1894  1  0.512000  0.528800  0.054950  1.0
  N  N1895  1  0.471200  0.983200  0.054950  1.0
  N  N1896  1  0.016800  0.488000  0.054950  1.0
  O  O1897  1  0.492200  0.054200  0.851400  1
  O  O1898  1  0.562000  0.507800  0.851400  1
  O  O1899  1  0.945800  0.438000  0.851400  1
  O  O1900  1  0.438000  0.945800  0.648600  1
  O  O1901  1  0.054200  0.492200  0.648600  1
  O  O1902  1  0.507800  0.562000  0.648600  1
  O  O1903  1  0.507800  0.945800  0.148600  1
  O  O1904  1  0.438000  0.492200  0.148600  1
  O  O1905  1  0.054200  0.562000  0.148600  1
  O  O1906  1  0.562000  0.054200  0.351400  1
  O  O1907  1  0.945800  0.507800  0.351400  1
  O  O1908  1  0.492200  0.438000  0.351400  1
  O  O1909  1  0.579800  0.093300  0.865200  1
  O  O1910  1  0.513500  0.420200  0.865200  1
  O  O1911  1  0.906700  0.486500  0.865200  1
  O  O1912  1  0.486500  0.906700  0.634800  1
  O  O1913  1  0.093300  0.579800  0.634800  1
  O  O1914  1  0.420200  0.513500  0.634800  1
  O  O1915  1  0.420200  0.906700  0.134800  1
  O  O1916  1  0.486500  0.579800  0.134800  1
  O  O1917  1  0.093300  0.513500  0.134800  1
  O  O1918  1  0.513500  0.093300  0.365200  1
  O  O1919  1  0.906700  0.420200  0.365200  1
  O  O1920  1  0.579800  0.486500  0.365200  1
  O  O1921  1  0.528500  0.121500  0.891300  1
  O  O1922  1  0.593000  0.471500  0.891300  1
  O  O1923  1  0.878500  0.407000  0.891300  1
  O  O1924  1  0.407000  0.878500  0.608700  1
  O  O1925  1  0.121500  0.528500  0.608700  1
  O  O1926  1  0.471500  0.593000  0.608700  1
  O  O1927  1  0.471500  0.878500  0.108700  1
  O  O1928  1  0.407000  0.528500  0.108700  1
  O  O1929  1  0.121500  0.593000  0.108700  1
  O  O1930  1  0.593000  0.121500  0.391300  1
  O  O1931  1  0.878500  0.471500  0.391300  1
  O  O1932  1  0.528500  0.407000  0.391300  1
  O  O1933  1  0.656100  0.014500  0.878700  1
  O  O1934  1  0.358400  0.343900  0.878700  1
  O  O1935  1  0.985500  0.641600  0.878700  1
  O  O1936  1  0.641600  0.985500  0.621300  1
  O  O1937  1  0.014500  0.656100  0.621300  1
  O  O1938  1  0.343900  0.358400  0.621300  1
  O  O1939  1  0.343900  0.985500  0.121300  1
  O  O1940  1  0.641600  0.656100  0.121300  1
  O  O1941  1  0.014500  0.358400  0.121300  1
  O  O1942  1  0.358400  0.014500  0.378700  1
  O  O1943  1  0.985500  0.343900  0.378700  1
  O  O1944  1  0.656100  0.641600  0.378700  1
  O  O1945  1  0.642800  0.953700  0.923900  1
  O  O1946  1  0.310900  0.357200  0.923900  1
  O  O1947  1  0.046300  0.689100  0.923900  1
  O  O1948  1  0.689100  0.046300  0.576100  1
  O  O1949  1  0.953700  0.642800  0.576100  1
  O  O1950  1  0.357200  0.310900  0.576100  1
  O  O1951  1  0.357200  0.046300  0.076100  1
  O  O1952  1  0.689100  0.642800  0.076100  1
  O  O1953  1  0.953700  0.310900  0.076100  1
  O  O1954  1  0.310900  0.953700  0.423900  1
  O  O1955  1  0.046300  0.357200  0.423900  1
  O  O1956  1  0.642800  0.689100  0.423900  1
  O  O1957  1  0.655500  0.934800  0.866800  1
  O  O1958  1  0.279300  0.344500  0.866800  1
  O  O1959  1  0.065200  0.720700  0.866800  1
  O  O1960  1  0.720700  0.065200  0.633200  1
  O  O1961  1  0.934800  0.655500  0.633200  1
  O  O1962  1  0.344500  0.279300  0.633200  1
  O  O1963  1  0.344500  0.065200  0.133200  1
  O  O1964  1  0.720700  0.655500  0.133200  1
  O  O1965  1  0.934800  0.279300  0.133200  1
  O  O1966  1  0.279300  0.934800  0.366800  1
  O  O1967  1  0.065200  0.344500  0.366800  1
  O  O1968  1  0.655500  0.720700  0.366800  1
  O  O1969  1  0.717700  0.278900  0.020200  1
  O  O1970  1  0.561200  0.282300  0.020200  1
  O  O1971  1  0.721100  0.438800  0.020200  1
  O  O1972  1  0.438800  0.721100  0.479800  1
  O  O1973  1  0.278900  0.717700  0.479800  1
  O  O1974  1  0.282300  0.561200  0.479800  1
  O  O1975  1  0.282300  0.721100  0.979800  1
  O  O1976  1  0.438800  0.717700  0.979800  1
  O  O1977  1  0.278900  0.561200  0.979800  1
  O  O1978  1  0.561200  0.278900  0.520200  1
  O  O1979  1  0.721100  0.282300  0.520200  1
  O  O1980  1  0.717700  0.438800  0.520200  1
  O  O1981  1  0.716000  0.201400  0.021100  1
  O  O1982  1  0.485400  0.284000  0.021100  1
  O  O1983  1  0.798600  0.514600  0.021100  1
  O  O1984  1  0.514600  0.798600  0.478900  1
  O  O1985  1  0.201400  0.716000  0.478900  1
  O  O1986  1  0.284000  0.485400  0.478900  1
  O  O1987  1  0.284000  0.798600  0.978900  1
  O  O1988  1  0.514600  0.716000  0.978900  1
  O  O1989  1  0.201400  0.485400  0.978900  1
  O  O1990  1  0.485400  0.201400  0.521100  1
  O  O1991  1  0.798600  0.284000  0.521100  1
  O  O1992  1  0.716000  0.514600  0.521100  1
  O  O1993  1  0.791300  0.275800  0.033500  1
  O  O1994  1  0.484500  0.208700  0.033500  1
  O  O1995  1  0.724200  0.515500  0.033500  1
  O  O1996  1  0.515500  0.724200  0.466500  1
  O  O1997  1  0.275800  0.791300  0.466500  1
  O  O1998  1  0.208700  0.484500  0.466500  1
  O  O1999  1  0.208700  0.724200  0.966500  1
  O  O2000  1  0.515500  0.791300  0.966500  1
  O  O2001  1  0.275800  0.484500  0.966500  1
  O  O2002  1  0.484500  0.275800  0.533500  1
  O  O2003  1  0.724200  0.208700  0.533500  1
  O  O2004  1  0.791300  0.515500  0.533500  1
  O  O2005  1  0.921900  0.183900  0.876000  1
  O  O2006  1  0.262000  0.078100  0.876000  1
  O  O2007  1  0.816100  0.738000  0.876000  1
  O  O2008  1  0.738000  0.816100  0.624000  1
  O  O2009  1  0.183900  0.921900  0.624000  1
  O  O2010  1  0.078100  0.262000  0.624000  1
  O  O2011  1  0.078100  0.816100  0.124000  1
  O  O2012  1  0.738000  0.921900  0.124000  1
  O  O2013  1  0.183900  0.262000  0.124000  1
  O  O2014  1  0.262000  0.183900  0.376000  1
  O  O2015  1  0.816100  0.078100  0.376000  1
  O  O2016  1  0.921900  0.738000  0.376000  1
  O  O2017  1  0.885000  0.215800  0.913300  1
  O  O2018  1  0.330800  0.115000  0.913300  1
  O  O2019  1  0.784200  0.669200  0.913300  1
  O  O2020  1  0.669200  0.784200  0.586700  1
  O  O2021  1  0.215800  0.885000  0.586700  1
  O  O2022  1  0.115000  0.330800  0.586700  1
  O  O2023  1  0.115000  0.784200  0.086700  1
  O  O2024  1  0.669200  0.885000  0.086700  1
  O  O2025  1  0.215800  0.330800  0.086700  1
  O  O2026  1  0.330800  0.215800  0.413300  1
  O  O2027  1  0.784200  0.115000  0.413300  1
  O  O2028  1  0.885000  0.669200  0.413300  1
  O  O2029  1  0.934800  0.185300  0.936000  1
  O  O2030  1  0.250500  0.065200  0.936000  1
  O  O2031  1  0.814700  0.749500  0.936000  1
  O  O2032  1  0.749500  0.814700  0.564000  1
  O  O2033  1  0.185300  0.934800  0.564000  1
  O  O2034  1  0.065200  0.250500  0.564000  1
  O  O2035  1  0.065200  0.814700  0.064000  1
  O  O2036  1  0.749500  0.934800  0.064000  1
  O  O2037  1  0.185300  0.250500  0.064000  1
  O  O2038  1  0.250500  0.185300  0.436000  1
  O  O2039  1  0.814700  0.065200  0.436000  1
  O  O2040  1  0.934800  0.749500  0.436000  1
  O  O2041  1  0.794400  0.400100  0.529890  1
  O  O2042  1  0.605700  0.205600  0.529890  1
  O  O2043  1  0.599900  0.394300  0.529890  1
  O  O2044  1  0.394300  0.599900  0.970110  1
  O  O2045  1  0.400100  0.794400  0.970110  1
  O  O2046  1  0.205600  0.605700  0.970110  1
  O  O2047  1  0.205600  0.599900  0.470110  1
  O  O2048  1  0.394300  0.794400  0.470110  1
  O  O2049  1  0.400100  0.605700  0.470110  1
  O  O2050  1  0.605700  0.400100  0.029890  1
  O  O2051  1  0.599900  0.205600  0.029890  1
  O  O2052  1  0.794400  0.394300  0.029890  1
  O  O2053  1  0.822700  0.141400  0.123200  1
  O  O2054  1  0.318700  0.177300  0.123200  1
  O  O2055  1  0.858600  0.681300  0.123200  1
  O  O2056  1  0.681300  0.858600  0.376800  1
  O  O2057  1  0.141400  0.822700  0.376800  1
  O  O2058  1  0.177300  0.318700  0.376800  1
  O  O2059  1  0.177300  0.858600  0.876800  1
  O  O2060  1  0.681300  0.822700  0.876800  1
  O  O2061  1  0.141400  0.318700  0.876800  1
  O  O2062  1  0.318700  0.141400  0.623200  1
  O  O2063  1  0.858600  0.177300  0.623200  1
  O  O2064  1  0.822700  0.681300  0.623200  1
  O  O2065  1  0.820300  0.910500  0.978100  1
  O  O2066  1  0.090200  0.179700  0.978100  1
  O  O2067  1  0.089500  0.909800  0.978100  1
  O  O2068  1  0.909800  0.089500  0.521900  1
  O  O2069  1  0.910500  0.820300  0.521900  1
  O  O2070  1  0.179700  0.090200  0.521900  1
  O  O2071  1  0.179700  0.089500  0.021900  1
  O  O2072  1  0.909800  0.820300  0.021900  1
  O  O2073  1  0.910500  0.090200  0.021900  1
  O  O2074  1  0.090200  0.910500  0.478100  1
  O  O2075  1  0.089500  0.179700  0.478100  1
  O  O2076  1  0.820300  0.909800  0.478100  1
  O  O2077  1  0.807000  0.861500  0.909300  1
  O  O2078  1  0.054500  0.193000  0.909300  1
  O  O2079  1  0.138500  0.945500  0.909300  1
  O  O2080  1  0.945500  0.138500  0.590700  1
  O  O2081  1  0.861500  0.807000  0.590700  1
  O  O2082  1  0.193000  0.054500  0.590700  1
  O  O2083  1  0.193000  0.138500  0.090700  1
  O  O2084  1  0.945500  0.807000  0.090700  1
  O  O2085  1  0.861500  0.054500  0.090700  1
  O  O2086  1  0.054500  0.861500  0.409300  1
  O  O2087  1  0.138500  0.193000  0.409300  1
  O  O2088  1  0.807000  0.945500  0.409300  1
  O  O2089  1  0.884300  0.901100  0.034800  1
  O  O2090  1  0.016800  0.115700  0.034800  1
  O  O2091  1  0.098900  0.983200  0.034800  1
  O  O2092  1  0.983200  0.098900  0.465200  1
  O  O2093  1  0.901100  0.884300  0.465200  1
  O  O2094  1  0.115700  0.016800  0.465200  1
  O  O2095  1  0.115700  0.098900  0.965200  1
  O  O2096  1  0.983200  0.884300  0.965200  1
  O  O2097  1  0.901100  0.016800  0.965200  1
  O  O2098  1  0.016800  0.901100  0.534800  1
  O  O2099  1  0.098900  0.115700  0.534800  1
  O  O2100  1  0.884300  0.983200  0.534800  1
  O  O2101  1  0.803600  0.071500  0.753600  1
  O  O2102  1  0.267900  0.196400  0.753600  1
  O  O2103  1  0.928500  0.732100  0.753600  1
  O  O2104  1  0.732100  0.928500  0.746400  1
  O  O2105  1  0.071500  0.803600  0.746400  1
  O  O2106  1  0.196400  0.267900  0.746400  1
  O  O2107  1  0.196400  0.928500  0.246400  1
  O  O2108  1  0.732100  0.803600  0.246400  1
  O  O2109  1  0.071500  0.267900  0.246400  1
  O  O2110  1  0.267900  0.071500  0.253600  1
  O  O2111  1  0.928500  0.196400  0.253600  1
  O  O2112  1  0.803600  0.732100  0.253600  1
  O  O2113  1  0.689600  0.981800  0.788100  1
  O  O2114  1  0.292200  0.310400  0.788100  1
  O  O2115  1  0.018200  0.707800  0.788100  1
  O  O2116  1  0.707800  0.018200  0.711900  1
  O  O2117  1  0.981800  0.689600  0.711900  1
  O  O2118  1  0.310400  0.292200  0.711900  1
  O  O2119  1  0.310400  0.018200  0.211900  1
  O  O2120  1  0.707800  0.689600  0.211900  1
  O  O2121  1  0.981800  0.292200  0.211900  1
  O  O2122  1  0.292200  0.981800  0.288100  1
  O  O2123  1  0.018200  0.310400  0.288100  1
  O  O2124  1  0.689600  0.707800  0.288100  1
  O  O2125  1  0.853300  0.219600  0.061200  1
  O  O2126  1  0.366300  0.146700  0.061200  1
  O  O2127  1  0.780400  0.633700  0.061200  1
  O  O2128  1  0.633700  0.780400  0.438800  1
  O  O2129  1  0.219600  0.853300  0.438800  1
  O  O2130  1  0.146700  0.366300  0.438800  1
  O  O2131  1  0.146700  0.780400  0.938800  1
  O  O2132  1  0.633700  0.853300  0.938800  1
  O  O2133  1  0.219600  0.366300  0.938800  1
  O  O2134  1  0.366300  0.219600  0.561200  1
  O  O2135  1  0.780400  0.146700  0.561200  1
  O  O2136  1  0.853300  0.633700  0.561200  1
  O  O2137  1  0.719700  0.897800  0.998000  1
  O  O2138  1  0.178100  0.280300  0.998000  1
  O  O2139  1  0.102200  0.821900  0.998000  1
  O  O2140  1  0.821900  0.102200  0.502000  1
  O  O2141  1  0.897800  0.719700  0.502000  1
  O  O2142  1  0.280300  0.178100  0.502000  1
  O  O2143  1  0.280300  0.102200  0.002000  1
  O  O2144  1  0.821900  0.719700  0.002000  1
  O  O2145  1  0.897800  0.178100  0.002000  1
  O  O2146  1  0.178100  0.897800  0.498000  1
  O  O2147  1  0.102200  0.280300  0.498000  1
  O  O2148  1  0.719700  0.821900  0.498000  1
  O  O2149  1  0.721000  0.046100  0.113100  1
  O  O2150  1  0.325100  0.279000  0.113100  1
  O  O2151  1  0.953900  0.674900  0.113100  1
  O  O2152  1  0.674900  0.953900  0.386900  1
  O  O2153  1  0.046100  0.721000  0.386900  1
  O  O2154  1  0.279000  0.325100  0.386900  1
  O  O2155  1  0.279000  0.953900  0.886900  1
  O  O2156  1  0.674900  0.721000  0.886900  1
  O  O2157  1  0.046100  0.325100  0.886900  1
  O  O2158  1  0.325100  0.046100  0.613100  1
  O  O2159  1  0.953900  0.279000  0.613100  1
  O  O2160  1  0.721000  0.674900  0.613100  1
  O  O2161  1  0.906300  0.319200  0.863500  1
  O  O2162  1  0.412900  0.093700  0.863500  1
  O  O2163  1  0.680800  0.587100  0.863500  1
  O  O2164  1  0.587100  0.680800  0.636500  1
  O  O2165  1  0.319200  0.906300  0.636500  1
  O  O2166  1  0.093700  0.412900  0.636500  1
  O  O2167  1  0.093700  0.680800  0.136500  1
  O  O2168  1  0.587100  0.906300  0.136500  1
  O  O2169  1  0.319200  0.412900  0.136500  1
  O  O2170  1  0.412900  0.319200  0.363500  1
  O  O2171  1  0.680800  0.093700  0.363500  1
  O  O2172  1  0.906300  0.587100  0.363500  1
  O  O2173  1  0.869300  0.155100  0.693900  1
  O  O2174  1  0.285800  0.130700  0.693900  1
  O  O2175  1  0.844900  0.714200  0.693900  1
  O  O2176  1  0.714200  0.844900  0.806100  1
  O  O2177  1  0.155100  0.869300  0.806100  1
  O  O2178  1  0.130700  0.285800  0.806100  1
  O  O2179  1  0.130700  0.844900  0.306100  1
  O  O2180  1  0.714200  0.869300  0.306100  1
  O  O2181  1  0.155100  0.285800  0.306100  1
  O  O2182  1  0.285800  0.155100  0.193900  1
  O  O2183  1  0.844900  0.130700  0.193900  1
  O  O2184  1  0.869300  0.714200  0.193900  1
  O  O2185  1  0.936700  0.329100  0.778600  1
  O  O2186  1  0.392400  0.063300  0.778600  1
  O  O2187  1  0.670900  0.607600  0.778600  1
  O  O2188  1  0.607600  0.670900  0.721400  1
  O  O2189  1  0.329100  0.936700  0.721400  1
  O  O2190  1  0.063300  0.392400  0.721400  1
  O  O2191  1  0.063300  0.670900  0.221400  1
  O  O2192  1  0.607600  0.936700  0.221400  1
  O  O2193  1  0.329100  0.392400  0.221400  1
  O  O2194  1  0.392400  0.329100  0.278600  1
  O  O2195  1  0.670900  0.063300  0.278600  1
  O  O2196  1  0.936700  0.607600  0.278600  1
  O  O2197  1  0.940500  0.238900  0.747200  1
  O  O2198  1  0.298400  0.059500  0.747200  1
  O  O2199  1  0.761100  0.701600  0.747200  1
  O  O2200  1  0.701600  0.761100  0.752800  1
  O  O2201  1  0.238900  0.940500  0.752800  1
  O  O2202  1  0.059500  0.298400  0.752800  1
  O  O2203  1  0.059500  0.761100  0.252800  1
  O  O2204  1  0.701600  0.940500  0.252800  1
  O  O2205  1  0.238900  0.298400  0.252800  1
  O  O2206  1  0.298400  0.238900  0.247200  1
  O  O2207  1  0.761100  0.059500  0.247200  1
  O  O2208  1  0.940500  0.701600  0.247200  1
  O  O2209  1  0.934000  0.106000  0.815800  1
  O  O2210  1  0.172000  0.066000  0.815800  1
  O  O2211  1  0.894000  0.828000  0.815800  1
  O  O2212  1  0.828000  0.894000  0.684200  1
  O  O2213  1  0.106000  0.934000  0.684200  1
  O  O2214  1  0.066000  0.172000  0.684200  1
  O  O2215  1  0.066000  0.894000  0.184200  1
  O  O2216  1  0.828000  0.934000  0.184200  1
  O  O2217  1  0.106000  0.172000  0.184200  1
  O  O2218  1  0.172000  0.106000  0.315800  1
  O  O2219  1  0.894000  0.066000  0.315800  1
  O  O2220  1  0.934000  0.828000  0.315800  1
  O  O2221  1  0.587100  0.053900  0.788100  1
  O  O2222  1  0.466800  0.412900  0.788100  1
  O  O2223  1  0.946100  0.533200  0.788100  1
  O  O2224  1  0.533200  0.946100  0.711900  1
  O  O2225  1  0.053900  0.587100  0.711900  1
  O  O2226  1  0.412900  0.466800  0.711900  1
  O  O2227  1  0.412900  0.946100  0.211900  1
  O  O2228  1  0.533200  0.587100  0.211900  1
  O  O2229  1  0.053900  0.466800  0.211900  1
  O  O2230  1  0.466800  0.053900  0.288100  1
  O  O2231  1  0.946100  0.412900  0.288100  1
  O  O2232  1  0.587100  0.533200  0.288100  1
  O  O2233  1  0.613100  0.000000  0.750000  1
  O  O2234  1  0.386900  0.386900  0.750000  1
  O  O2235  1  1.000000  0.613100  0.750000  1
  O  O2236  1  0.386900  1.000000  0.250000  1
  O  O2237  1  0.613100  0.613100  0.250000  1
  O  O2238  1  1.000000  0.386900  0.250000  1
  O  O2239  1  0.832000  0.893000  0.818000  1
  O  O2240  1  0.061000  0.168000  0.818000  1
  O  O2241  1  0.107000  0.939000  0.818000  1
  O  O2242  1  0.939000  0.107000  0.682000  1
  O  O2243  1  0.893000  0.832000  0.682000  1
  O  O2244  1  0.168000  0.061000  0.682000  1
  O  O2245  1  0.168000  0.107000  0.182000  1
  O  O2246  1  0.939000  0.832000  0.182000  1
  O  O2247  1  0.893000  0.061000  0.182000  1
  O  O2248  1  0.061000  0.893000  0.318000  1
  O  O2249  1  0.107000  0.168000  0.318000  1
  O  O2250  1  0.832000  0.939000  0.318000  1
  O  O2251  1  0.896000  0.943000  0.106900  1
  O  O2252  1  0.047000  0.104000  0.106900  1
  O  O2253  1  0.057000  0.953000  0.106900  1
  O  O2254  1  0.953000  0.057000  0.393100  1
  O  O2255  1  0.943000  0.896000  0.393100  1
  O  O2256  1  0.104000  0.047000  0.393100  1
  O  O2257  1  0.104000  0.057000  0.893100  1
  O  O2258  1  0.953000  0.896000  0.893100  1
  O  O2259  1  0.943000  0.047000  0.893100  1
  O  O2260  1  0.047000  0.943000  0.606900  1
  O  O2261  1  0.057000  0.104000  0.606900  1
  O  O2262  1  0.896000  0.953000  0.606900  1
  O  O2263  1  0.000000  0.000000  0.028100  1
  O  O2264  1  0.000000  0.000000  0.471900  1
  O  O2265  1  0.000000  0.000000  0.971900  1
  O  O2266  1  0.000000  0.000000  0.528100  1
  O  O2267  1  0.705200  0.008100  0.120800  1
  O  O2268  1  0.302900  0.294800  0.120800  1
  O  O2269  1  0.991900  0.697100  0.120800  1
  O  O2270  1  0.697100  0.991900  0.379200  1
  O  O2271  1  0.008100  0.705200  0.379200  1
  O  O2272  1  0.294800  0.302900  0.379200  1
  O  O2273  1  0.294800  0.991900  0.879200  1
  O  O2274  1  0.697100  0.705200  0.879200  1
  O  O2275  1  0.008100  0.302900  0.879200  1
  O  O2276  1  0.302900  0.008100  0.620800  1
  O  O2277  1  0.991900  0.294800  0.620800  1
  O  O2278  1  0.705200  0.697100  0.620800  1
  O  O2279  1  0.808400  0.121200  0.686200  1
  O  O2280  1  0.312800  0.191600  0.686200  1
  O  O2281  1  0.878800  0.687200  0.686200  1
  O  O2282  1  0.687200  0.878800  0.813800  1
  O  O2283  1  0.121200  0.808400  0.813800  1
  O  O2284  1  0.191600  0.312800  0.813800  1
  O  O2285  1  0.191600  0.878800  0.313800  1
  O  O2286  1  0.687200  0.808400  0.313800  1
  O  O2287  1  0.121200  0.312800  0.313800  1
  O  O2288  1  0.312800  0.121200  0.186200  1
  O  O2289  1  0.878800  0.191600  0.186200  1
  O  O2290  1  0.808400  0.687200  0.186200  1
  O  O2291  1  0.971000  0.302000  0.814500  1
  O  O2292  1  0.331000  0.029000  0.814500  1
  O  O2293  1  0.698000  0.669000  0.814500  1
  O  O2294  1  0.669000  0.698000  0.685500  1
  O  O2295  1  0.302000  0.971000  0.685500  1
  O  O2296  1  0.029000  0.331000  0.685500  1
  O  O2297  1  0.029000  0.698000  0.185500  1
  O  O2298  1  0.669000  0.971000  0.185500  1
  O  O2299  1  0.302000  0.331000  0.185500  1
  O  O2300  1  0.331000  0.302000  0.314500  1
  O  O2301  1  0.698000  0.029000  0.314500  1
  O  O2302  1  0.971000  0.669000  0.314500  1
  O  O2303  1  0.904000  0.156000  0.795000  1
  O  O2304  1  0.252000  0.096000  0.795000  1
  O  O2305  1  0.844000  0.748000  0.795000  1
  O  O2306  1  0.748000  0.844000  0.705000  1
  O  O2307  1  0.156000  0.904000  0.705000  1
  O  O2308  1  0.096000  0.252000  0.705000  1
  O  O2309  1  0.096000  0.844000  0.205000  1
  O  O2310  1  0.748000  0.904000  0.205000  1
  O  O2311  1  0.156000  0.252000  0.205000  1
  O  O2312  1  0.252000  0.156000  0.295000  1
  O  O2313  1  0.844000  0.096000  0.295000  1
  O  O2314  1  0.904000  0.748000  0.295000  1
  O  O2315  1  0.902000  0.989000  0.810600  1
  O  O2316  1  0.087000  0.098000  0.810600  1
  O  O2317  1  0.011000  0.913000  0.810600  1
  O  O2318  1  0.913000  0.011000  0.689400  1
  O  O2319  1  0.989000  0.902000  0.689400  1
  O  O2320  1  0.098000  0.087000  0.689400  1
  O  O2321  1  0.098000  0.011000  0.189400  1
  O  O2322  1  0.913000  0.902000  0.189400  1
  O  O2323  1  0.989000  0.087000  0.189400  1
  O  O2324  1  0.087000  0.989000  0.310600  1
  O  O2325  1  0.011000  0.098000  0.310600  1
  O  O2326  1  0.902000  0.913000  0.310600  1
