
#######################################################################
#
#                 Cambridge Crystallographic Data Centre
#                                CCDC 
#
#######################################################################
#
# If this CIF has been generated from an entry in the Cambridge 
# Structural Database, then it will include bibliographic, chemical, 
# crystal, experimental, refinement or atomic coordinate data resulting 
# from the CCDC's data processing and validation procedures.
#
#######################################################################

data_IXUQIC
_chemical_formula_moiety         
'C40 H72 N8 O2 Pd2 Si4 4+,4(C1 F3 O3 S1 1-),C7 H16'
_chemical_name_systematic        
"bis(\m~2~-1,3-bis(4-pyridyl)-1,1,3,3-tetramethyldisiloxane)-bis(N,N,N',N'-tetramethylethane-1,2-diamine)-di-palladium(ii) tetrakis(trifluoromethanesulfonate) heptane solvate"
_symmetry_cell_setting           triclinic
_symmetry_space_group_name_H-M   'P -1'
_symmetry_Int_Tables_number      2
_space_group_name_Hall           '-P 1'
loop_
_symmetry_equiv_pos_site_id
_symmetry_equiv_pos_as_xyz
1 x,y,z
2 -x,-y,-z
_cell_length_a                   10.0959(2)
_cell_length_b                   13.5504(2)
_cell_length_c                   13.6869(2)
_cell_angle_alpha                95.8110(10)
_cell_angle_beta                 98.5510(10)
_cell_angle_gamma                91.1020(10)
_cell_volume                     1840.97
_exptl_crystal_colour            colorless
_exptl_crystal_description       block
_cell_formula_units_Z            1
loop_
_atom_site_label
_atom_site_type_symbol
_atom_site_fract_x
_atom_site_fract_y
_atom_site_fract_z
S1 S 0.8535(13) 0.4933(10) 0.7145(10)
F1 F 0.798(5) 0.448(5) 0.526(3)
F2 F 0.644(4) 0.527(4) 0.589(3)
F3 F 0.672(5) 0.374(4) 0.610(4)
O2 O 0.949(3) 0.417(3) 0.716(3)
O3 O 0.903(4) 0.589(3) 0.698(4)
O4 O 0.772(4) 0.496(4) 0.791(3)
C21 C 0.737(7) 0.458(6) 0.604(5)
S2 S 0.3476(13) 0.7727(9) 0.1041(10)
F4 F 0.498(6) 0.916(5) 0.069(7)
F5 F 0.290(6) 0.933(4) 0.022(6)
F6 F 0.395(7) 0.830(9) -0.061(6)
O5 O 0.223(3) 0.735(3) 0.054(3)
O6 O 0.456(4) 0.709(3) 0.101(3)
O7 O 0.345(6) 0.824(4) 0.200(4)
C22 C 0.385(9) 0.868(7) 0.029(11)
C23 C -0.040(7) 0.046(4) 0.506(6)
H37 H 0.0091 0.0970 0.4800
H38 H -0.0315 0.0640 0.5769
C24 C -0.185(6) 0.059(7) 0.466(8)
H39 H -0.2436 0.0142 0.4925
H40 H -0.2018 0.0504 0.3944
C25 C -0.195(15) 0.165(8) 0.508(12)
H41 H -0.1082 0.1985 0.5160
H42 H -0.2203 0.1639 0.5733
C26 C -0.297(17) 0.229(13) 0.455(15)
H44 H -0.2696 0.2425 0.3928
H45 H -0.3018 0.2904 0.4954
H46 H -0.3828 0.1953 0.4420
C23A C 0.040(7) -0.046(4) 0.494(6)
H37A H -0.0091 -0.0970 0.5200
H38A H 0.0315 -0.0640 0.4231
C24A C 0.185(6) -0.059(7) 0.534(8)
H39A H 0.2436 -0.0142 0.5075
H40A H 0.2018 -0.0504 0.6056
C25A C 0.195(15) -0.165(8) 0.492(12)
H41A H 0.1082 -0.1985 0.4840
H42A H 0.2203 -0.1639 0.4267
C26A C 0.297(17) -0.229(13) 0.545(15)
H44A H 0.2696 -0.2425 0.6072
H45A H 0.3018 -0.2904 0.5046
H46A H 0.3828 -0.1953 0.5580
Pd1 Pd 0.2309(3) 0.3495(2) 0.7959(2)
Si1 Si -0.3143(15) -0.1508(10) 0.6583(10)
Si2 Si -0.030(2) -0.1098(11) 0.7941(14)
O1 O -0.162(4) -0.118(2) 0.709(2)
N1 N 0.147(4) 0.212(3) 0.799(3)
N2 N 0.265(3) 0.302(3) 0.656(3)
N3 N 0.204(3) 0.396(3) 0.940(3)
N4 N 0.317(4) 0.489(3) 0.795(3)
C1 C 0.014(5) 0.193(3) 0.781(3)
H1 H -0.0436 0.2444 0.7689
C2 C -0.039(5) 0.098(3) 0.780(3)
H2 H -0.1311 0.0876 0.7684
C3 C 0.043(5) 0.019(3) 0.795(3)
C4 C 0.179(6) 0.041(4) 0.814(4)
H3 H 0.2389 -0.0093 0.8259
C5 C 0.229(5) 0.136(3) 0.814(3)
H4 H 0.3210 0.1485 0.8247
C6 C -0.080(13) -0.125(8) 0.915(7)
H5 H -0.1410 -0.0743 0.9311
H6 H -0.0023 -0.1199 0.9653
H7 H -0.1238 -0.1891 0.9128
C7 C 0.095(9) -0.201(5) 0.760(10)
H8 H 0.1032 -0.2001 0.6909
H9 H 0.0653 -0.2667 0.7705
H10 H 0.1799 -0.1847 0.7999
C8 C -0.416(9) -0.041(6) 0.642(6)
H11 H -0.4171 -0.0033 0.7052
H12 H -0.5065 -0.0613 0.6130
H13 H -0.3790 0.0002 0.5987
C9 C -0.389(6) -0.239(5) 0.731(4)
H14 H -0.3307 -0.2938 0.7394
H15 H -0.4745 -0.2629 0.6956
H16 H -0.3992 -0.2061 0.7943
C10 C -0.298(5) -0.215(3) 0.532(3)
C11 C -0.394(5) -0.208(3) 0.448(3)
H17 H -0.4711 -0.1734 0.4548
C12 C 0.375(5) 0.252(3) 0.644(3)
H18 H 0.4409 0.2473 0.6985
C13 C 0.173(4) 0.311(3) 0.577(3)
H19 H 0.0966 0.3464 0.5847
C14 C -0.187(5) -0.269(3) 0.516(3)
H20 H -0.1212 -0.2766 0.5694
C15 C 0.065(5) 0.379(4) 0.959(4)
H21 H 0.0567 0.4096 1.0245
H22 H 0.0456 0.3094 0.9553
H23 H 0.0037 0.4083 0.9107
C16 C 0.293(5) 0.344(4) 1.012(3)
H24 H 0.3845 0.3547 1.0019
H25 H 0.2707 0.2742 1.0012
H26 H 0.2830 0.3691 1.0781
C17 C 0.225(18) 0.509(13) 0.945(11)
H27 H 0.1475 0.5375 0.9087
H28 H 0.2359 0.5382 1.0137
C18 C 0.344(7) 0.528(5) 0.902(5)
H29 H 0.4194 0.4954 0.9353
H30 H 0.3646 0.5988 0.9083
C19 C 0.453(8) 0.485(7) 0.769(8)
H31 H 0.4943 0.5502 0.7803
H32 H 0.4494 0.4594 0.7010
H33 H 0.5054 0.4418 0.8107
C20 C 0.241(6) 0.547(4) 0.725(5)
H34 H 0.2834 0.6115 0.7290
H35 H 0.1515 0.5537 0.7403
H36 H 0.2372 0.5145 0.6589
Pd1A Pd -0.2309(3) -0.3495(2) 0.2041(2)
Si1A Si 0.3143(15) 0.1508(10) 0.3417(10)
Si2A Si 0.030(2) 0.1098(11) 0.2059(14)
O1A O 0.162(4) 0.118(2) 0.291(2)
N1A N -0.147(4) -0.212(3) 0.201(3)
N2A N -0.265(3) -0.302(3) 0.344(3)
N3A N -0.204(3) -0.396(3) 0.060(3)
N4A N -0.317(4) -0.489(3) 0.205(3)
C1A C -0.014(5) -0.193(3) 0.219(3)
H1A H 0.0436 -0.2444 0.2311
C2A C 0.039(5) -0.098(3) 0.220(3)
H2A H 0.1311 -0.0876 0.2316
C3A C -0.043(5) -0.019(3) 0.205(3)
C4A C -0.179(6) -0.041(4) 0.186(4)
H3A H -0.2389 0.0093 0.1741
C5A C -0.229(5) -0.136(3) 0.186(3)
H4A H -0.3210 -0.1485 0.1753
C6A C 0.080(13) 0.125(8) 0.085(7)
H5A H 0.1410 0.0743 0.0689
H6A H 0.0023 0.1199 0.0347
H7A H 0.1238 0.1891 0.0872
C7A C -0.095(9) 0.201(5) 0.240(10)
H8A H -0.1032 0.2001 0.3091
H9A H -0.0653 0.2667 0.2295
H10A H -0.1799 0.1847 0.2001
C8A C 0.416(9) 0.041(6) 0.358(6)
H11A H 0.4171 0.0033 0.2948
H12A H 0.5065 0.0613 0.3870
H13A H 0.3790 -0.0002 0.4013
C9A C 0.389(6) 0.239(5) 0.269(4)
H14A H 0.3307 0.2938 0.2606
H15A H 0.4745 0.2629 0.3044
H16A H 0.3992 0.2061 0.2057
C10A C 0.298(5) 0.215(3) 0.468(3)
C11A C 0.394(5) 0.208(3) 0.552(3)
H17A H 0.4711 0.1734 0.5452
C12A C -0.375(5) -0.252(3) 0.356(3)
H18A H -0.4409 -0.2473 0.3015
C13A C -0.173(4) -0.311(3) 0.423(3)
H19A H -0.0966 -0.3464 0.4153
C14A C 0.187(5) 0.269(3) 0.484(3)
H20A H 0.1212 0.2766 0.4306
C15A C -0.065(5) -0.379(4) 0.041(4)
H21A H -0.0567 -0.4096 -0.0245
H22A H -0.0456 -0.3094 0.0447
H23A H -0.0037 -0.4083 0.0893
C16A C -0.293(5) -0.344(4) -0.012(3)
H24A H -0.3845 -0.3547 -0.0019
H25A H -0.2707 -0.2742 -0.0012
H26A H -0.2830 -0.3691 -0.0781
C17A C -0.225(18) -0.509(13) 0.055(11)
H27A H -0.1475 -0.5375 0.0913
H28A H -0.2359 -0.5382 -0.0137
C18A C -0.344(7) -0.528(5) 0.098(5)
H29A H -0.4194 -0.4954 0.0647
H30A H -0.3646 -0.5988 0.0917
C19A C -0.453(8) -0.485(7) 0.231(8)
H31A H -0.4943 -0.5502 0.2197
H32A H -0.4494 -0.4594 0.2990
H33A H -0.5054 -0.4418 0.1893
C20A C -0.241(6) -0.547(4) 0.275(5)
H34A H -0.2834 -0.6115 0.2710
H35A H -0.1515 -0.5537 0.2597
H36A H -0.2372 -0.5145 0.3411
loop_
_geom_bond_atom_site_label_1
_geom_bond_atom_site_label_2
_geom_bond_site_symmetry_1
_geom_bond_site_symmetry_2
Pd1 N1 1_555 1_555
Si1 O1 1_555 1_555
Si2 O1 1_555 1_555
S1 O2 1_555 1_555
S2 O5 1_555 1_555
F1 C21 1_555 1_555
F2 C21 1_555 1_555
F3 C21 1_555 1_555
F4 C22 1_555 1_555
F5 C22 1_555 1_555
F6 C22 1_555 1_555
O3 S1 1_555 1_555
O4 S1 1_555 1_555
O6 S2 1_555 1_555
O7 S2 1_555 1_555
N1 C1 1_555 1_555
N2 Pd1 1_555 1_555
N3 Pd1 1_555 1_555
N4 Pd1 1_555 1_555
C1 H1 1_555 1_555
C2 C1 1_555 1_555
H2 C2 1_555 1_555
C3 Si2 1_555 1_555
C4 C3 1_555 1_555
H3 C4 1_555 1_555
C5 N1 1_555 1_555
H4 C5 1_555 1_555
C6 Si2 1_555 1_555
H5 C6 1_555 1_555
H6 C6 1_555 1_555
H7 C6 1_555 1_555
C7 Si2 1_555 1_555
H8 C7 1_555 1_555
H9 C7 1_555 1_555
H10 C7 1_555 1_555
C8 Si1 1_555 1_555
H11 C8 1_555 1_555
H12 C8 1_555 1_555
H13 C8 1_555 1_555
C9 Si1 1_555 1_555
H14 C9 1_555 1_555
H15 C9 1_555 1_555
H16 C9 1_555 1_555
C10 Si1 1_555 1_555
C11 C10 1_555 1_555
H17 C11 1_555 1_555
C12 N2 1_555 1_555
H18 C12 1_555 1_555
C13 N2 1_555 1_555
H19 C13 1_555 1_555
C14 C10 1_555 1_555
H20 C14 1_555 1_555
C15 N3 1_555 1_555
H21 C15 1_555 1_555
H22 C15 1_555 1_555
H23 C15 1_555 1_555
C16 N3 1_555 1_555
H24 C16 1_555 1_555
H25 C16 1_555 1_555
H26 C16 1_555 1_555
C17 N3 1_555 1_555
H27 C17 1_555 1_555
H28 C17 1_555 1_555
C18 N4 1_555 1_555
H29 C18 1_555 1_555
H30 C18 1_555 1_555
C19 N4 1_555 1_555
H31 C19 1_555 1_555
H32 C19 1_555 1_555
H33 C19 1_555 1_555
C20 N4 1_555 1_555
H34 C20 1_555 1_555
H35 C20 1_555 1_555
H36 C20 1_555 1_555
C21 S1 1_555 1_555
C22 S2 1_555 1_555
C23 H37 1_555 1_555
H38 C23 1_555 1_555
C24 C23 1_555 1_555
H39 C24 1_555 1_555
H40 C24 1_555 1_555
C25 C24 1_555 1_555
H41 C25 1_555 1_555
H42 C25 1_555 1_555
C26 C25 1_555 1_555
H44 C26 1_555 1_555
H45 C26 1_555 1_555
H46 C26 1_555 1_555
Pd1A N1A 1_555 1_555
Si1A O1A 1_555 1_555
Si2A O1A 1_555 1_555
N1A C1A 1_555 1_555
N2A Pd1A 1_555 1_555
N3A Pd1A 1_555 1_555
N4A Pd1A 1_555 1_555
C1A H1A 1_555 1_555
C2A C1A 1_555 1_555
H2A C2A 1_555 1_555
C3A Si2A 1_555 1_555
C4A C3A 1_555 1_555
H3A C4A 1_555 1_555
C5A N1A 1_555 1_555
H4A C5A 1_555 1_555
C6A Si2A 1_555 1_555
H5A C6A 1_555 1_555
H6A C6A 1_555 1_555
H7A C6A 1_555 1_555
C7A Si2A 1_555 1_555
H8A C7A 1_555 1_555
H9A C7A 1_555 1_555
H10A C7A 1_555 1_555
C8A Si1A 1_555 1_555
H11A C8A 1_555 1_555
H12A C8A 1_555 1_555
H13A C8A 1_555 1_555
C9A Si1A 1_555 1_555
H14A C9A 1_555 1_555
H15A C9A 1_555 1_555
H16A C9A 1_555 1_555
C10A Si1A 1_555 1_555
C11A C12 1_555 1_555
H17A C11A 1_555 1_555
C12A C11 1_555 1_555
H18A C12A 1_555 1_555
C13A C14 1_555 1_555
H19A C13A 1_555 1_555
C14A C13 1_555 1_555
H20A C14A 1_555 1_555
C15A N3A 1_555 1_555
H21A C15A 1_555 1_555
H22A C15A 1_555 1_555
H23A C15A 1_555 1_555
C16A N3A 1_555 1_555
H24A C16A 1_555 1_555
H25A C16A 1_555 1_555
H26A C16A 1_555 1_555
C17A N3A 1_555 1_555
H27A C17A 1_555 1_555
H28A C17A 1_555 1_555
C18A N4A 1_555 1_555
H29A C18A 1_555 1_555
H30A C18A 1_555 1_555
C19A N4A 1_555 1_555
H31A C19A 1_555 1_555
H32A C19A 1_555 1_555
H33A C19A 1_555 1_555
C20A N4A 1_555 1_555
H34A C20A 1_555 1_555
H35A C20A 1_555 1_555
H36A C20A 1_555 1_555
C23A C23 1_555 1_555
H37A C23A 1_555 1_555
H38A C23A 1_555 1_555
C24A C23A 1_555 1_555
H39A C24A 1_555 1_555
H40A C24A 1_555 1_555
C25A C24A 1_555 1_555
H41A C25A 1_555 1_555
H42A C25A 1_555 1_555
C26A C25A 1_555 1_555
H44A C26A 1_555 1_555
H45A C26A 1_555 1_555
H46A C26A 1_555 1_555
C2 C3 1_555 1_555
C4 C5 1_555 1_555
C17 C18 1_555 1_555
N2A C12A 1_555 1_555
N2A C13A 1_555 1_555
C2A C3A 1_555 1_555
C4A C5A 1_555 1_555
C10A C11A 1_555 1_555
C10A C14A 1_555 1_555
C17A C18A 1_555 1_555

#END
