
#######################################################################
#
#                 Cambridge Crystallographic Data Centre
#                                CCDC 
#
#######################################################################
#
# If this CIF has been generated from an entry in the Cambridge 
# Structural Database, then it will include bibliographic, chemical, 
# crystal, experimental, refinement or atomic coordinate data resulting 
# from the CCDC's data processing and validation procedures.
#
#######################################################################

data_IXUQEY
_chemical_formula_moiety         
'C40 H72 N8 O2 Pd2 Si4 4+,4(C1 F3 O3 S1 1-),C6 H14'
_chemical_name_systematic        
"bis(\m~2~-1,3-bis(4-pyridyl)-1,1,3,3-tetramethyldisiloxane)-bis(N,N,N',N'-tetramethylethane-1,2-diamine)-di-palladium(ii) tetrakis(trifluoromethanesulfonate) hexane solvate"
_symmetry_cell_setting           triclinic
_symmetry_space_group_name_H-M   'P -1'
_symmetry_Int_Tables_number      2
_space_group_name_Hall           '-P 1'
loop_
_symmetry_equiv_pos_site_id
_symmetry_equiv_pos_as_xyz
1 x,y,z
2 -x,-y,-z
_cell_length_a                   10.0994(2)
_cell_length_b                   13.5934(2)
_cell_length_c                   13.6673(3)
_cell_angle_alpha                96.2680(10)
_cell_angle_beta                 99.3650(10)
_cell_angle_gamma                91.0070(10)
_cell_volume                     1839.05
_exptl_crystal_colour            yellow
_exptl_crystal_description       block
_cell_formula_units_Z            1
loop_
_atom_site_label
_atom_site_type_symbol
_atom_site_fract_x
_atom_site_fract_y
_atom_site_fract_z
Pd1 Pd 0.227297(15) 0.848368(11) 0.294776(11)
Si1 Si 0.32154(7) 0.65443(5) -0.16018(5)
Si2 Si 0.03450(8) 0.60928(5) -0.29707(6)
O1 O 0.1708(2) 0.61720(13) -0.21414(14)
N1 N 0.26247(19) 0.80004(14) 0.15581(14)
N2 N -0.14379(19) 0.28893(13) -0.29742(14)
N3 N 0.3145(2) 0.98688(14) 0.29453(15)
N4 N 0.2004(2) 0.89609(14) 0.43864(14)
C1 C 0.3732(2) 0.74956(19) 0.14476(18)
H1 H 0.4371 0.7432 0.2007
C2 C 0.3947(2) 0.70691(19) 0.05260(18)
H2 H 0.4722 0.6721 0.0475
C3 C 0.3015(2) 0.71545(16) -0.03304(16)
C4 C 0.1896(2) 0.77045(18) -0.01943(18)
H3 H 0.1260 0.7803 -0.0745
C5 C 0.1717(2) 0.81050(17) 0.07432(18)
H4 H 0.0950 0.8456 0.0814
C6 C 0.4304(4) 0.5471(2) -0.1457(2)
H5 H 0.3979 0.5057 -0.1015
H6 H 0.5206 0.5702 -0.1185
H7 H 0.4291 0.5098 -0.2097
C7 C 0.3920(4) 0.7460(3) -0.2302(2)
H8 H 0.4001 0.7153 -0.2956
H9 H 0.4789 0.7695 -0.1953
H10 H 0.3334 0.8006 -0.2362
C8 C 0.0743(5) 0.6251(3) -0.4206(3)
H11 H 0.1082 0.6915 -0.4207
H12 H -0.0054 0.6129 -0.4697
H13 H 0.1410 0.5791 -0.4362
C9 C -0.0869(4) 0.7014(2) -0.2624(4)
H14 H -0.1107 0.6899 -0.1992
H15 H -0.1661 0.6953 -0.3125
H16 H -0.0472 0.7668 -0.2573
C10 C -0.0381(3) 0.48061(16) -0.29652(17)
C11 C 0.0444(2) 0.40134(17) -0.27971(19)
H17 H 0.1372 0.4118 -0.2679
C12 C -0.0100(2) 0.30706(16) -0.28031(18)
H18 H 0.0471 0.2551 -0.2686
C13 C -0.2252(3) 0.36404(18) -0.3133(2)
H19 H -0.3176 0.3516 -0.3249
C14 C -0.1763(3) 0.45969(18) -0.3130(2)
H20 H -0.2357 0.5104 -0.3238
C15 C 0.2341(3) 1.0465(2) 0.2262(3)
H21 H 0.1453 1.0513 0.2425
H22 H 0.2289 1.0158 0.1589
H23 H 0.2752 1.1116 0.2322
C16 C 0.4505(3) 0.9821(2) 0.2656(3)
H24 H 0.4423 0.9574 0.1963
H25 H 0.5042 0.9387 0.3052
H26 H 0.4925 1.0472 0.2767
C17 C 0.3406(4) 1.0295(3) 0.4010(3)
H27 H 0.3549 1.1007 0.4054
H28 H 0.4210 1.0021 0.4351
C18 C 0.2238(5) 1.0062(3) 0.4499(3)
H29 H 0.1444 1.0373 0.4189
H30 H 0.2421 1.0315 0.5201
C19 C 0.2930(3) 0.8450(2) 0.51058(19)
H31 H 0.2868 0.8723 0.5774
H32 H 0.3834 0.8540 0.4989
H33 H 0.2688 0.7756 0.5021
C20 C 0.0620(3) 0.8790(2) 0.4583(2)
H34 H 0.0409 0.8092 0.4504
H35 H -0.0005 0.9106 0.4120
H36 H 0.0561 0.9062 0.5253
Pd1A Pd -0.227297(15) 0.151632(11) -0.294776(11)
Si1A Si -0.32154(7) 0.34557(5) 0.16018(5)
Si2A Si -0.03450(8) 0.39072(5) 0.29707(6)
O1A O -0.1708(2) 0.38280(13) 0.21414(14)
N1A N -0.26247(19) 0.19996(14) -0.15581(14)
N2A N 0.14379(19) 0.71107(13) 0.29742(14)
N3A N -0.3145(2) 0.01312(14) -0.29453(15)
N4A N -0.2004(2) 0.10391(14) -0.43864(14)
C1A C -0.3732(2) 0.25044(19) -0.14476(18)
H1A H -0.4371 0.2568 -0.2007
C2A C -0.3947(2) 0.29309(19) -0.05260(18)
H2A H -0.4722 0.3279 -0.0475
C3A C -0.3015(2) 0.28455(16) 0.03304(16)
C4A C -0.1896(2) 0.22955(18) 0.01943(18)
H3A H -0.1260 0.2197 0.0745
C5A C -0.1717(2) 0.18950(17) -0.07432(18)
H4A H -0.0950 0.1544 -0.0814
C6A C -0.4304(4) 0.4529(2) 0.1457(2)
H5A H -0.3979 0.4943 0.1015
H6A H -0.5206 0.4298 0.1185
H7A H -0.4291 0.4902 0.2097
C7A C -0.3920(4) 0.2540(3) 0.2302(2)
H8A H -0.4001 0.2847 0.2956
H9A H -0.4789 0.2305 0.1953
H10A H -0.3334 0.1994 0.2362
C8A C -0.0743(5) 0.3749(3) 0.4206(3)
H11A H -0.1082 0.3085 0.4207
H12A H 0.0054 0.3871 0.4697
H13A H -0.1410 0.4209 0.4362
C9A C 0.0869(4) 0.2986(2) 0.2624(4)
H14A H 0.1107 0.3101 0.1992
H15A H 0.1661 0.3047 0.3125
H16A H 0.0472 0.2332 0.2573
C10A C 0.0381(3) 0.51939(16) 0.29652(17)
C11A C -0.0444(2) 0.59866(17) 0.27971(19)
H17A H -0.1372 0.5882 0.2679
C12A C 0.0100(2) 0.69294(16) 0.28031(18)
H18A H -0.0471 0.7449 0.2686
C13A C 0.2252(3) 0.63596(18) 0.3133(2)
H19A H 0.3176 0.6484 0.3249
C14A C 0.1763(3) 0.54031(18) 0.3130(2)
H20A H 0.2357 0.4896 0.3238
C15A C -0.2341(3) -0.0465(2) -0.2262(3)
H21A H -0.1453 -0.0513 -0.2425
H22A H -0.2289 -0.0158 -0.1589
H23A H -0.2752 -0.1116 -0.2322
C16A C -0.4505(3) 0.0179(2) -0.2656(3)
H24A H -0.4423 0.0426 -0.1963
H25A H -0.5042 0.0613 -0.3052
H26A H -0.4925 -0.0472 -0.2767
C17A C -0.3406(4) -0.0295(3) -0.4010(3)
H27A H -0.3549 -0.1007 -0.4054
H28A H -0.4210 -0.0021 -0.4351
C18A C -0.2238(5) -0.0062(3) -0.4499(3)
H29A H -0.1444 -0.0373 -0.4189
H30A H -0.2421 -0.0315 -0.5201
C19A C -0.2930(3) 0.1550(2) -0.51058(19)
H31A H -0.2868 0.1277 -0.5774
H32A H -0.3834 0.1460 -0.4989
H33A H -0.2688 0.2244 -0.5021
C20A C -0.0620(3) 0.1210(2) -0.4583(2)
H34A H -0.0409 0.1908 -0.4504
H35A H 0.0005 0.0894 -0.4120
H36A H -0.0561 0.0938 -0.5253
S1 S 0.15097(7) 0.00994(5) 0.78639(5)
F1 F 0.3631(2) -0.0267(2) 0.9121(2)
F2 F 0.3383(3) 0.1263(2) 0.8953(2)
F3 F 0.2133(4) 0.0535(3) 0.97784(19)
O2 O 0.0558(2) 0.08706(16) 0.78834(18)
O3 O 0.2308(3) 0.0098(3) 0.70927(19)
O4 O 0.1003(3) -0.08501(19) 0.7999(3)
C24 C 0.2720(4) 0.0427(3) 0.8985(3)
S2 S 0.34907(7) 0.27331(5) 0.60352(5)
F4 F 0.3984(4) 0.3318(4) 0.4387(3)
F5 F 0.2921(3) 0.4338(2) 0.5207(3)
F6 F 0.5002(3) 0.4183(3) 0.5711(4)
O5 O 0.3476(3) 0.3243(2) 0.7000(2)
O6 O 0.2223(2) 0.23537(18) 0.5516(2)
O7 O 0.4589(2) 0.20911(18) 0.60101(19)
C25 C 0.3870(4) 0.3681(4) 0.5299(5)
C21 C -0.2009(6) 0.6758(4) 0.0099(5)
H37 H -0.1633 0.7021 0.0769
H38 H -0.2969 0.6801 0.0006
H39 H -0.1658 0.7133 -0.0364
C22 C -0.1646(6) 0.5689(4) -0.0081(5)
H40 H -0.2046 0.5316 0.0369
H41 H -0.2046 0.5432 -0.0757
C23 C -0.0184(5) 0.5506(3) 0.0053(4)
H42 H 0.0202 0.5846 -0.0428
H43 H 0.0223 0.5805 0.0713
C21A C 0.2009(6) 0.3242(4) -0.0099(5)
H37A H 0.1633 0.2979 -0.0769
H38A H 0.2969 0.3199 -0.0006
H39A H 0.1658 0.2867 0.0364
C22A C 0.1646(6) 0.4311(4) 0.0081(5)
H40A H 0.2046 0.4684 -0.0369
H41A H 0.2046 0.4568 0.0757
C23A C 0.0184(5) 0.4494(3) -0.0053(4)
H42A H -0.0202 0.4154 0.0428
H43A H -0.0223 0.4195 -0.0713
loop_
_geom_bond_atom_site_label_1
_geom_bond_atom_site_label_2
_geom_bond_site_symmetry_1
_geom_bond_site_symmetry_2
Pd1 N1 1_555 1_555
Si1 O1 1_555 1_555
Si2 O1 1_555 1_555
S1 O2 1_555 1_555
S2 O5 1_555 1_555
F1 C24 1_555 1_555
F2 C24 1_555 1_555
F3 C24 1_555 1_555
F4 C25 1_555 1_555
F5 C25 1_555 1_555
F6 C25 1_555 1_555
O3 S1 1_555 1_555
O4 S1 1_555 1_555
O6 S2 1_555 1_555
O7 S2 1_555 1_555
N1 C1 1_555 1_555
N2 C12 1_555 1_555
N3 Pd1 1_555 1_555
N4 Pd1 1_555 1_555
C1 H1 1_555 1_555
C2 C1 1_555 1_555
H2 C2 1_555 1_555
C3 Si1 1_555 1_555
C4 C3 1_555 1_555
H3 C4 1_555 1_555
C5 N1 1_555 1_555
H4 C5 1_555 1_555
C6 Si1 1_555 1_555
H5 C6 1_555 1_555
H6 C6 1_555 1_555
H7 C6 1_555 1_555
C7 Si1 1_555 1_555
H8 C7 1_555 1_555
H9 C7 1_555 1_555
H10 C7 1_555 1_555
C8 Si2 1_555 1_555
H11 C8 1_555 1_555
H12 C8 1_555 1_555
H13 C8 1_555 1_555
C9 Si2 1_555 1_555
H14 C9 1_555 1_555
H15 C9 1_555 1_555
H16 C9 1_555 1_555
C10 Si2 1_555 1_555
C11 C10 1_555 1_555
H17 C11 1_555 1_555
C12 C11 1_555 1_555
H18 C12 1_555 1_555
C13 N2 1_555 1_555
H19 C13 1_555 1_555
C14 C10 1_555 1_555
H20 C14 1_555 1_555
C15 N3 1_555 1_555
H21 C15 1_555 1_555
H22 C15 1_555 1_555
H23 C15 1_555 1_555
C16 N3 1_555 1_555
H24 C16 1_555 1_555
H25 C16 1_555 1_555
H26 C16 1_555 1_555
C17 N3 1_555 1_555
H27 C17 1_555 1_555
H28 C17 1_555 1_555
C18 N4 1_555 1_555
H29 C18 1_555 1_555
H30 C18 1_555 1_555
C19 N4 1_555 1_555
H31 C19 1_555 1_555
H32 C19 1_555 1_555
H33 C19 1_555 1_555
C20 N4 1_555 1_555
H34 C20 1_555 1_555
H35 C20 1_555 1_555
H36 C20 1_555 1_555
C21 H37 1_555 1_555
H38 C21 1_555 1_555
H39 C21 1_555 1_555
C22 C21 1_555 1_555
H40 C22 1_555 1_555
H41 C22 1_555 1_555
C23 C22 1_555 1_555
H42 C23 1_555 1_555
H43 C23 1_555 1_555
C24 S1 1_555 1_555
C25 S2 1_555 1_555
Pd1A N2 1_555 1_555
Si1A O1A 1_555 1_555
Si2A O1A 1_555 1_555
N1A Pd1A 1_555 1_555
N2A Pd1 1_555 1_555
N3A Pd1A 1_555 1_555
N4A Pd1A 1_555 1_555
C1A N1A 1_555 1_555
H1A C1A 1_555 1_555
C2A C1A 1_555 1_555
H2A C2A 1_555 1_555
C3A Si1A 1_555 1_555
C4A C3A 1_555 1_555
H3A C4A 1_555 1_555
C5A N1A 1_555 1_555
H4A C5A 1_555 1_555
C6A Si1A 1_555 1_555
H5A C6A 1_555 1_555
H6A C6A 1_555 1_555
H7A C6A 1_555 1_555
C7A Si1A 1_555 1_555
H8A C7A 1_555 1_555
H9A C7A 1_555 1_555
H10A C7A 1_555 1_555
C8A Si2A 1_555 1_555
H11A C8A 1_555 1_555
H12A C8A 1_555 1_555
H13A C8A 1_555 1_555
C9A Si2A 1_555 1_555
H14A C9A 1_555 1_555
H15A C9A 1_555 1_555
H16A C9A 1_555 1_555
C10A Si2A 1_555 1_555
C11A C10A 1_555 1_555
H17A C11A 1_555 1_555
C12A N2A 1_555 1_555
H18A C12A 1_555 1_555
C13A N2A 1_555 1_555
H19A C13A 1_555 1_555
C14A C10A 1_555 1_555
H20A C14A 1_555 1_555
C15A N3A 1_555 1_555
H21A C15A 1_555 1_555
H22A C15A 1_555 1_555
H23A C15A 1_555 1_555
C16A N3A 1_555 1_555
H24A C16A 1_555 1_555
H25A C16A 1_555 1_555
H26A C16A 1_555 1_555
C17A N3A 1_555 1_555
H27A C17A 1_555 1_555
H28A C17A 1_555 1_555
C18A N4A 1_555 1_555
H29A C18A 1_555 1_555
H30A C18A 1_555 1_555
C19A N4A 1_555 1_555
H31A C19A 1_555 1_555
H32A C19A 1_555 1_555
H33A C19A 1_555 1_555
C20A N4A 1_555 1_555
H34A C20A 1_555 1_555
H35A C20A 1_555 1_555
H36A C20A 1_555 1_555
C21A H37A 1_555 1_555
H38A C21A 1_555 1_555
H39A C21A 1_555 1_555
C22A C21A 1_555 1_555
H40A C22A 1_555 1_555
H41A C22A 1_555 1_555
C23A C23 1_555 1_555
H42A C23A 1_555 1_555
H43A C23A 1_555 1_555
C2 C3 1_555 1_555
C4 C5 1_555 1_555
C13 C14 1_555 1_555
C17 C18 1_555 1_555
C2A C3A 1_555 1_555
C4A C5A 1_555 1_555
C11A C12A 1_555 1_555
C13A C14A 1_555 1_555
C17A C18A 1_555 1_555
C22A C23A 1_555 1_555

#END
