
#######################################################################
#
#                 Cambridge Crystallographic Data Centre
#                                CCDC 
#
#######################################################################
#
# If this CIF has been generated from an entry in the Cambridge 
# Structural Database, then it will include bibliographic, chemical, 
# crystal, experimental, refinement or atomic coordinate data resulting 
# from the CCDC's data processing and validation procedures.
#
#######################################################################

data_IZOKEP
_chemical_formula_moiety         'C64 H76 N12 Pd2 4+,4(Cl1 O4 1-),4(C1 H2 Cl2)'
_chemical_name_systematic        
"bis(\m-1,1'-((1^1^,2^1^:2^4^,3^1^-terphenyl)-1^4^,3^4^-diylbis(methylene))di(1H-imidazole))-bis(N,N,N',N'-tetramethylethane-1,2-diamine)-di-palladium(ii) tetraperchlorate dichloromethane solvate"
_symmetry_cell_setting           triclinic
_symmetry_space_group_name_H-M   'P -1'
_symmetry_Int_Tables_number      2
_space_group_name_Hall           '-P 1'
loop_
_symmetry_equiv_pos_site_id
_symmetry_equiv_pos_as_xyz
1 x,y,z
2 -x,-y,-z
_cell_length_a                   8.5131(7)
_cell_length_b                   12.9623(11)
_cell_length_c                   19.6510(16)
_cell_angle_alpha                75.468(4)
_cell_angle_beta                 87.067(4)
_cell_angle_gamma                84.617(4)
_cell_volume                     2088.98
_exptl_crystal_colour            colorless
_exptl_crystal_description       block
_cell_formula_units_Z            1
loop_
_atom_site_label
_atom_site_type_symbol
_atom_site_fract_x
_atom_site_fract_y
_atom_site_fract_z
C1 C 0.5580(13) 0.9059(9) 0.6248(5)
H1 H 0.5102 0.9730 0.5982
H2 H 0.5393 0.9005 0.6741
H3 H 0.5130 0.8483 0.6122
C2 C 0.7633(14) 0.9111(7) 0.5339(5)
H4 H 0.7178 0.8555 0.5193
H5 H 0.8753 0.9060 0.5250
H6 H 0.7180 0.9795 0.5081
C3 C 0.8020(14) 0.9876(7) 0.6312(5)
H7 H 0.7347 1.0536 0.6174
H8 H 0.9045 0.9991 0.6079
C4 C 0.8197(13) 0.9577(7) 0.7097(5)
H9 H 0.7170 0.9511 0.7335
H10 H 0.8716 1.0118 0.7242
C5 C 1.0833(15) 0.8679(8) 0.7135(6)
H11 H 1.1041 0.8862 0.6636
H12 H 1.1457 0.8032 0.7346
H13 H 1.1100 0.9247 0.7329
C6 C 0.8937(15) 0.8093(8) 0.8076(5)
H14 H 0.9496 0.7400 0.8226
H15 H 0.7832 0.8039 0.8189
H16 H 0.9333 0.8575 0.8313
C7 C 1.0869(11) 0.5850(7) 0.7252(4)
H17 H 1.1581 0.6152 0.6900
C8 C 0.9851(11) 0.4754(7) 0.8169(4)
H18 H 0.9724 0.4183 0.8558
C9 C 0.8772(12) 0.5556(8) 0.7912(5)
H19 H 0.7749 0.5633 0.8093
C10 C 1.2730(12) 0.4286(8) 0.7836(5)
H20 H 1.3553 0.4750 0.7848
H21 H 1.2946 0.3988 0.7432
C11 C 1.2786(12) 0.3380(7) 0.8502(5)
C12 C 1.3351(15) 0.3564(8) 0.9098(5)
H22 H 1.3692 0.4229 0.9088
C13 C 1.2266(13) 0.2402(8) 0.8522(5)
H23 H 1.1852 0.2286 0.8121
C14 C 1.2351(13) 0.1581(8) 0.9135(5)
H24 H 1.2012 0.0917 0.9141
C15 C 1.3416(15) 0.2759(8) 0.9718(6)
H25 H 1.3781 0.2893 1.0123
C16 C 1.2941(13) 0.1757(7) 0.9736(5)
C17 C 1.3102(13) 0.0855(7) 1.0380(5)
C18 C 1.4358(13) 0.0748(7) 1.0819(5)
H26 H 1.5093 0.1256 1.0715
C19 C 1.4550(12) -0.0097(7) 1.1408(5)
H27 H 1.5406 -0.0139 1.1692
C20 C 1.3501(12) -0.0879(7) 1.1585(4)
C21 C 1.2204(14) -0.0758(8) 1.1164(5)
H28 H 1.1449 -0.1253 1.1280
C22 C 1.2012(14) 0.0098(8) 1.0564(5)
H29 H 1.1138 0.0157 1.0287
C23 C 1.3740(11) -0.1805(7) 1.2212(4)
C24 C 1.4563(12) -0.1728(7) 1.2783(5)
H30 H 1.4968 -0.1086 1.2784
C25 C 1.4794(12) -0.2610(7) 1.3363(4)
H31 H 1.5321 -0.2539 1.3750
C26 C 1.4251(11) -0.3575(7) 1.3365(4)
C27 C 1.3423(13) -0.3657(7) 1.2805(5)
H32 H 1.3018 -0.4302 1.2811
C28 C 1.3179(13) -0.2786(8) 1.2222(5)
H33 H 1.2640 -0.2862 1.1840
C29 C 1.4655(13) -0.4509(7) 1.3990(5)
H34 H 1.4611 -0.4250 1.4414
H35 H 1.5727 -0.4802 1.3926
C30 C 1.3607(11) -0.6080(7) 1.3708(4)
H36 H 1.4385 -0.6160 1.3371
C31 C 1.2279(12) -0.5505(8) 1.4536(5)
H37 H 1.1972 -0.5129 1.4872
C32 C 1.1541(13) -0.6297(8) 1.4393(5)
H38 H 1.0610 -0.6550 1.4613
N1 N 0.7308(9) 0.8995(5) 0.6091(3)
N2 N 0.9180(10) 0.8519(6) 0.7274(4)
N3 N 0.9414(9) 0.6254(5) 0.7334(3)
N4 N 1.1179(9) 0.4936(6) 0.7750(4)
N5 N 1.3585(9) -0.5360(6) 1.4083(4)
N6 N 1.2373(9) -0.6680(6) 1.3870(3)
Pd1 Pd 0.83728(9) 0.75925(5) 0.67121(3)
C1A C 1.4420(13) -0.9059(9) 1.3752(5)
H1A H 1.4898 -0.9730 1.4018
H2A H 1.4607 -0.9005 1.3259
H3A H 1.4870 -0.8483 1.3878
C2A C 1.2367(14) -0.9111(7) 1.4661(5)
H4A H 1.2822 -0.8555 1.4807
H5A H 1.1247 -0.9060 1.4750
H6A H 1.2820 -0.9795 1.4919
C3A C 1.1980(14) -0.9876(7) 1.3688(5)
H7A H 1.2653 -1.0536 1.3826
H8A H 1.0955 -0.9991 1.3921
C4A C 1.1803(13) -0.9577(7) 1.2903(5)
H9A H 1.2830 -0.9511 1.2665
H10A H 1.1284 -1.0118 1.2758
C5A C 0.9167(15) -0.8679(8) 1.2865(6)
H11A H 0.8959 -0.8862 1.3364
H12A H 0.8543 -0.8032 1.2654
H13A H 0.8900 -0.9247 1.2671
C6A C 1.1063(15) -0.8093(8) 1.1924(5)
H14A H 1.0504 -0.7400 1.1774
H15A H 1.2168 -0.8039 1.1811
H16A H 1.0667 -0.8575 1.1687
C7A C 0.9131(11) -0.5850(7) 1.2748(4)
H17A H 0.8419 -0.6152 1.3100
C8A C 1.0149(11) -0.4754(7) 1.1831(4)
H18A H 1.0276 -0.4183 1.1442
C9A C 1.1228(12) -0.5556(8) 1.2088(5)
H19A H 1.2251 -0.5633 1.1907
C10A C 0.7270(12) -0.4286(8) 1.2164(5)
H20A H 0.6447 -0.4750 1.2152
H21A H 0.7054 -0.3988 1.2568
C11A C 0.7214(12) -0.3380(7) 1.1498(5)
C12A C 0.6649(15) -0.3564(8) 1.0902(5)
H22A H 0.6308 -0.4229 1.0912
C13A C 0.7734(13) -0.2402(8) 1.1478(5)
H23A H 0.8148 -0.2286 1.1879
C14A C 0.7649(13) -0.1581(8) 1.0865(5)
H24A H 0.7988 -0.0917 1.0859
C15A C 0.6584(15) -0.2759(8) 1.0282(6)
H25A H 0.6219 -0.2893 0.9877
C16A C 0.7059(13) -0.1757(7) 1.0264(5)
C17A C 0.6898(13) -0.0855(7) 0.9620(5)
C18A C 0.5642(13) -0.0748(7) 0.9181(5)
H26A H 0.4907 -0.1256 0.9285
C19A C 0.5450(12) 0.0097(7) 0.8592(5)
H27A H 0.4594 0.0139 0.8308
C20A C 0.6499(12) 0.0879(7) 0.8415(4)
C21A C 0.7796(14) 0.0758(8) 0.8836(5)
H28A H 0.8551 0.1253 0.8720
C22A C 0.7988(14) -0.0098(8) 0.9436(5)
H29A H 0.8862 -0.0157 0.9713
C23A C 0.6260(11) 0.1805(7) 0.7788(4)
C24A C 0.5437(12) 0.1728(7) 0.7217(5)
H30A H 0.5032 0.1086 0.7216
C25A C 0.5206(12) 0.2610(7) 0.6637(4)
H31A H 0.4679 0.2539 0.6250
C26A C 0.5749(11) 0.3575(7) 0.6635(4)
C27A C 0.6577(13) 0.3657(7) 0.7195(5)
H32A H 0.6982 0.4302 0.7189
C28A C 0.6821(13) 0.2786(8) 0.7778(5)
H33A H 0.7360 0.2862 0.8160
C29A C 0.5345(13) 0.4509(7) 0.6010(5)
H34A H 0.5389 0.4250 0.5586
H35A H 0.4273 0.4802 0.6074
C30A C 0.6393(11) 0.6080(7) 0.6292(4)
H36A H 0.5615 0.6160 0.6629
C31A C 0.7721(12) 0.5505(8) 0.5464(5)
H37A H 0.8028 0.5129 0.5128
C32A C 0.8459(13) 0.6297(8) 0.5607(5)
H38A H 0.9390 0.6550 0.5387
N1A N 1.2692(9) -0.8995(5) 1.3909(3)
N2A N 1.0820(10) -0.8519(6) 1.2726(4)
N3A N 1.0586(9) -0.6254(5) 1.2666(3)
N4A N 0.8821(9) -0.4936(6) 1.2250(4)
N5A N 0.6415(9) 0.5360(6) 0.5917(4)
N6A N 0.7627(9) 0.6680(6) 0.6130(3)
Pd1A Pd 1.16272(9) -0.75925(5) 1.32879(3)
Cl1 Cl 0.4415(3) 0.7018(2) 0.81720(12)
O1 O 0.4972(18) 0.6638(11) 0.7603(6)
O2 O 0.4264(16) 0.8127(9) 0.8025(7)
O3 O 0.2843(13) 0.6666(9) 0.8355(6)
O4 O 0.5350(13) 0.6558(10) 0.8764(5)
Cl2 Cl 0.7300(3) 0.25157(16) 0.47010(11)
O8 O 0.7076(18) 0.2692(13) 0.3969(6)
O9 O 0.8697(16) 0.1829(10) 0.4881(9)
O10 O 0.738(2) 0.3502(12) 0.4862(11)
O11 O 0.5913(10) 0.2064(7) 0.5028(4)
C33 C 0.0024(18) 0.7493(10) 0.3593(11)
H39 H 0.0770 0.7671 0.3201
H40 H 0.0588 0.7416 0.4022
Cl3 Cl -0.1447(6) 0.8538(3) 0.3523(3)
Cl4 Cl -0.0699(6) 0.6287(3) 0.3603(2)
C36 C 0.865(4) 0.3551(17) 1.0158(17)
H45 H 0.9751 0.3684 1.0075
H46 H 0.8413 0.3434 1.0658
Cl9 Cl 0.749(2) 0.4656(13) 0.9707(8)
Cl10 Cl 0.831(2) 0.2416(12) 0.9892(8)
C36A C 1.135(4) 0.6449(17) 0.9842(17)
H45A H 1.0249 0.6316 0.9925
H46A H 1.1587 0.6566 0.9342
Cl9A Cl 1.251(2) 0.5344(13) 1.0293(8)
Cl10A Cl 1.169(2) 0.7584(12) 1.0108(8)
O5? O 0.325(5) 0.772(3) 0.836(2)
O6? O 0.555(5) 0.765(4) 0.779(3)
O7? O 0.381(6) 0.655(3) 0.765(2)
O12? O 0.807(4) 0.186(2) 0.4295(15)
O13? O 0.825(3) 0.258(3) 0.5264(11)
O14? O 0.731(3) 0.3616(11) 0.4373(17)
C34? C 0.756(4) 0.398(4) 1.000(4)
H41? H 0.6960 0.3849 1.0439
H42? H 0.6969 0.4549 0.9664
Cl5? Cl 0.934(2) 0.4418(14) 1.0121(8)
Cl6? Cl 0.769(3) 0.2843(18) 0.9692(10)
C35? C 0.733(3) 0.308(2) 0.999(3)
H43? H 0.6735 0.2636 0.9784
H44? H 0.7004 0.2972 1.0479
Cl7? Cl 0.6919(19) 0.4396(13) 0.9562(9)
Cl8? Cl 0.933(2) 0.2669(12) 0.9936(7)
loop_
_geom_bond_atom_site_label_1
_geom_bond_atom_site_label_2
_geom_bond_site_symmetry_1
_geom_bond_site_symmetry_2
C1 H1 1_555 1_555
H2 C1 1_555 1_555
H3 C1 1_555 1_555
C2 H4 1_555 1_555
H5 C2 1_555 1_555
H6 C2 1_555 1_555
C3 H7 1_555 1_555
H8 C3 1_555 1_555
C4 C3 1_555 1_555
H9 C4 1_555 1_555
H10 C4 1_555 1_555
C5 H11 1_555 1_555
H12 C5 1_555 1_555
H13 C5 1_555 1_555
C6 H14 1_555 1_555
H15 C6 1_555 1_555
H16 C6 1_555 1_555
C7 H17 1_555 1_555
C8 H18 1_555 1_555
C9 C8 1_555 1_555
H19 C9 1_555 1_555
C10 H20 1_555 1_555
H21 C10 1_555 1_555
C11 C10 1_555 1_555
C12 C11 1_555 1_555
H22 C12 1_555 1_555
C13 C11 1_555 1_555
H23 C13 1_555 1_555
C14 C13 1_555 1_555
H24 C14 1_555 1_555
C15 C12 1_555 1_555
H25 C15 1_555 1_555
C16 C14 1_555 1_555
C17 C16 1_555 1_555
C18 C17 1_555 1_555
H26 C18 1_555 1_555
C19 C18 1_555 1_555
H27 C19 1_555 1_555
C20 C19 1_555 1_555
C21 C20 1_555 1_555
H28 C21 1_555 1_555
C22 C17 1_555 1_555
H29 C22 1_555 1_555
C23 C20 1_555 1_555
C24 C23 1_555 1_555
H30 C24 1_555 1_555
C25 C24 1_555 1_555
H31 C25 1_555 1_555
C26 C25 1_555 1_555
C27 C26 1_555 1_555
H32 C27 1_555 1_555
C28 C23 1_555 1_555
H33 C28 1_555 1_555
C29 C26 1_555 1_555
H34 C29 1_555 1_555
H35 C29 1_555 1_555
C30 H36 1_555 1_555
C31 H37 1_555 1_555
C32 C31 1_555 1_555
H38 C32 1_555 1_555
N1 C1 1_555 1_555
N2 C4 1_555 1_555
N3 C7 1_555 1_555
N4 C7 1_555 1_555
N5 C29 1_555 1_555
N6 C30 1_555 1_555
Pd1 N1 1_555 1_555
Cl1 O1 1_555 1_555
O2 Cl1 1_555 1_555
O3 Cl1 1_555 1_555
O4 Cl1 1_555 1_555
Cl2 O8 1_555 1_555
O9 Cl2 1_555 1_555
O10 Cl2 1_555 1_555
O11 Cl2 1_555 1_555
C33 H39 1_555 1_555
H40 C33 1_555 1_555
Cl3 C33 1_555 1_555
Cl4 C33 1_555 1_555
C36 H45 1_555 1_555
H46 C36 1_555 1_555
Cl9 C36 1_555 1_555
Cl10 C36 1_555 1_555
C1A H1A 1_555 1_555
H2A C1A 1_555 1_555
H3A C1A 1_555 1_555
C2A H4A 1_555 1_555
H5A C2A 1_555 1_555
H6A C2A 1_555 1_555
C3A H7A 1_555 1_555
H8A C3A 1_555 1_555
C4A C3A 1_555 1_555
H9A C4A 1_555 1_555
H10A C4A 1_555 1_555
C5A H11A 1_555 1_555
H12A C5A 1_555 1_555
H13A C5A 1_555 1_555
C6A H14A 1_555 1_555
H15A C6A 1_555 1_555
H16A C6A 1_555 1_555
C7A H17A 1_555 1_555
C8A H18A 1_555 1_555
C9A C8A 1_555 1_555
H19A C9A 1_555 1_555
C10A H20A 1_555 1_555
H21A C10A 1_555 1_555
C11A C10A 1_555 1_555
C12A C11A 1_555 1_555
H22A C12A 1_555 1_555
C13A C11A 1_555 1_555
H23A C13A 1_555 1_555
C14A C13A 1_555 1_555
H24A C14A 1_555 1_555
C15A C12A 1_555 1_555
H25A C15A 1_555 1_555
C16A C14A 1_555 1_555
C17A C16A 1_555 1_555
C18A C17A 1_555 1_555
H26A C18A 1_555 1_555
C19A C18A 1_555 1_555
H27A C19A 1_555 1_555
C20A C19A 1_555 1_555
C21A C20A 1_555 1_555
H28A C21A 1_555 1_555
C22A C17A 1_555 1_555
H29A C22A 1_555 1_555
C23A C20A 1_555 1_555
C24A C23A 1_555 1_555
H30A C24A 1_555 1_555
C25A C24A 1_555 1_555
H31A C25A 1_555 1_555
C26A C25A 1_555 1_555
C27A C26A 1_555 1_555
H32A C27A 1_555 1_555
C28A C23A 1_555 1_555
H33A C28A 1_555 1_555
C29A C26A 1_555 1_555
H34A C29A 1_555 1_555
H35A C29A 1_555 1_555
C30A H36A 1_555 1_555
C31A H37A 1_555 1_555
C32A C31A 1_555 1_555
H38A C32A 1_555 1_555
N1A C1A 1_555 1_555
N2A C4A 1_555 1_555
N3A C7A 1_555 1_555
N4A C7A 1_555 1_555
N5A C29A 1_555 1_555
N6A Pd1 1_555 1_555
Pd1A N6 1_555 1_555
C36A H45A 1_555 1_555
H46A C36A 1_555 1_555
Cl9A C36A 1_555 1_555
Cl10A C36A 1_555 1_555
C2 N1 1_555 1_555
C3 N1 1_555 1_555
C5 N2 1_555 1_555
C6 N2 1_555 1_555
C8 N4 1_555 1_555
C9 N3 1_555 1_555
C10 N4 1_555 1_555
C15 C16 1_555 1_555
C21 C22 1_555 1_555
C27 C28 1_555 1_555
C30 N5 1_555 1_555
C31 N5 1_555 1_555
C32 N6 1_555 1_555
N2 Pd1 1_555 1_555
N3 Pd1 1_555 1_555
C2A N1A 1_555 1_555
C3A N1A 1_555 1_555
C5A N2A 1_555 1_555
C6A N2A 1_555 1_555
C8A N4A 1_555 1_555
C9A N3A 1_555 1_555
C10A N4A 1_555 1_555
C15A C16A 1_555 1_555
C21A C22A 1_555 1_555
C27A C28A 1_555 1_555
C30A N5A 1_555 1_555
C30A N6A 1_555 1_555
C31A N5A 1_555 1_555
C32A N6A 1_555 1_555
N1A Pd1A 1_555 1_555
N2A Pd1A 1_555 1_555
N3A Pd1A 1_555 1_555

#END
