
#######################################################################
#
#                 Cambridge Crystallographic Data Centre
#                                CCDC 
#
#######################################################################
#
# If this CIF has been generated from an entry in the Cambridge 
# Structural Database, then it will include bibliographic, chemical, 
# crystal, experimental, refinement or atomic coordinate data resulting 
# from the CCDC's data processing and validation procedures.
#
#######################################################################

data_IZOKAL
_chemical_formula_moiety         'C52 H68 N12 Pd2 4+,4(B1 F4 1-),1.5(C4 H8 O2)'
_chemical_name_systematic        
"bis(\m-1,1'-((1,1'-biphenyl)-4,4'-diylbis(methylene))di(1H-imidazole))-bis(N,N,N',N'-tetramethylethane-1,2-diamine)-di-palladium(ii) tetrakis(tetrafluoroborate) 1,4-dioxane solvate"
_symmetry_cell_setting           triclinic
_symmetry_space_group_name_H-M   'P -1'
_symmetry_Int_Tables_number      2
_space_group_name_Hall           '-P 1'
loop_
_symmetry_equiv_pos_site_id
_symmetry_equiv_pos_as_xyz
1 x,y,z
2 -x,-y,-z
_cell_length_a                   14.124(3)
_cell_length_b                   14.335(3)
_cell_length_c                   17.601(4)
_cell_angle_alpha                92.80(3)
_cell_angle_beta                 93.80(3)
_cell_angle_gamma                101.15(3)
_cell_volume                     3481.75
_exptl_crystal_colour            colorless
_exptl_crystal_description       block
_cell_formula_units_Z            2
loop_
_atom_site_label
_atom_site_type_symbol
_atom_site_fract_x
_atom_site_fract_y
_atom_site_fract_z
C7 C 0.5973(9) 1.2074(5) -0.3709(5)
H17 H 0.5329 1.2060 -0.3544
H18 H 0.5967 1.2206 -0.4244
C8 C 0.6695(9) 1.2835(8) -0.3245(5)
H19 H 0.6507 1.3447 -0.3288
H20 H 0.7330 1.2877 -0.3435
C9 C 0.5399(6) 1.0366(7) -0.3857(6)
H21 H 0.4904 1.0362 -0.3508
H22 H 0.5593 0.9760 -0.3872
H23 H 0.5151 1.0482 -0.4358
C10 C 0.7074(9) 1.1012(9) -0.4065(8)
H24 H 0.6851 1.0948 -0.4596
H25 H 0.7301 1.0449 -0.3927
H26 H 0.7593 1.1556 -0.3974
C11 C 0.7680(10) 1.3140(14) -0.2062(13)
H27 H 0.7708 1.3808 -0.2115
H28 H 0.8198 1.2943 -0.2314
H29 H 0.7743 1.3022 -0.1531
C12 C 0.5929(11) 1.2831(12) -0.2001(8)
H30 H 0.6000 1.3511 -0.1945
H31 H 0.5942 1.2578 -0.1506
H32 H 0.5324 1.2562 -0.2282
C13 C 1.0047(9) 0.1544(8) 0.3981(4)
H33 H 1.0707 0.1884 0.3955
H34 H 1.0058 0.0883 0.4067
C14 C 0.9576(10) 0.1986(5) 0.4615(5)
H35 H 0.9919 0.1937 0.5102
H36 H 0.8910 0.1655 0.4628
C15 C 1.0023(8) 0.1453(12) 0.2603(6)
H37 H 1.0587 0.1952 0.2614
H38 H 0.9633 0.1452 0.2135
H39 H 1.0219 0.0850 0.2635
C16 C 0.8545(13) 0.0894(13) 0.3140(15)
H40 H 0.8693 0.0269 0.3091
H41 H 0.8185 0.1010 0.2684
H42 H 0.8166 0.0936 0.3569
C17 C 1.0592(10) 0.3629(11) 0.4594(11)
H43 H 1.0575 0.4257 0.4435
H44 H 1.1034 0.3356 0.4303
H45 H 1.0803 0.3665 0.5126
C18 C 0.8952(10) 0.3374(13) 0.4969(10)
H46 H 0.9195 0.3367 0.5490
H47 H 0.8322 0.2971 0.4890
H48 H 0.8908 0.4013 0.4855
C19 C 0.7963(3) 1.1109(3) -0.1019(2)
H49 H 0.8525 1.1222 -0.1276
C20 C 0.6475(3) 1.0914(3) -0.0767(2)
H50 H 0.5808 1.0869 -0.0823
C21 C 0.6979(3) 1.0775(3) -0.0124(2)
H51 H 0.6733 1.0624 0.0341
C22 C 0.8720(3) 1.0697(3) 0.0216(2)
H52 H 0.8665 1.0940 0.0732
H53 H 0.9332 1.1025 0.0050
C23 C 0.8718(3) 0.9631(3) 0.0215(2)
C24 C 0.9048(3) 0.9257(3) 0.0859(2)
H54 H 0.9262 0.9653 0.1296
C25 C 0.9065(3) 0.8307(3) 0.0867(2)
H55 H 0.9304 0.8075 0.1309
C26 C 0.8737(3) 0.7675(3) 0.02341(19)
C27 C 0.8409(4) 0.8063(3) -0.0410(2)
H56 H 0.8193 0.7670 -0.0848
C28 C 0.8394(4) 0.9027(3) -0.0418(2)
H57 H 0.8162 0.9268 -0.0859
C29 C 0.8733(3) 0.6646(3) 0.02545(19)
C30 C 0.8837(4) 0.6216(3) 0.0935(2)
H58 H 0.8924 0.6586 0.1392
C31 C 0.8813(4) 0.5253(3) 0.0949(2)
H59 H 0.8860 0.4987 0.1418
C32 C 0.8722(3) 0.4673(3) 0.0294(2)
C33 C 0.8595(4) 0.5084(3) -0.0392(2)
H60 H 0.8506 0.4707 -0.0846
C34 C 0.8597(3) 0.6045(3) -0.0410(2)
H61 H 0.8506 0.6301 -0.0878
C35 C 0.8763(4) 0.3627(3) 0.0288(2)
H62 H 0.8319 0.3288 -0.0123
H63 H 0.9410 0.3550 0.0183
C36 C 0.9130(3) 0.3228(3) 0.1623(2)
H64 H 0.9794 0.3459 0.1644
C37 C 0.7695(3) 0.2614(3) 0.1934(2)
H65 H 0.7190 0.2340 0.2215
C38 C 0.7616(4) 0.2824(3) 0.1196(3)
H66 H 0.7048 0.2727 0.0879
C39 C 0.8032(3) 0.4545(3) 0.3427(2)
H67 H 0.7475 0.4129 0.3541
C40 C 0.9500(3) 0.5119(3) 0.3182(2)
H68 H 1.0151 0.5165 0.3102
C41 C 0.9005(3) 0.5827(3) 0.3137(2)
H69 H 0.9248 0.6448 0.3016
C42 C 0.7266(4) 0.5973(4) 0.3291(3)
H70 H 0.7467 0.6579 0.3582
H71 H 0.6734 0.5601 0.3533
C43 C 0.6921(3) 0.6145(3) 0.2478(2)
C44 C 0.6491(4) 0.5407(3) 0.1969(3)
H72 H 0.6399 0.4787 0.2125
C45 C 0.6192(3) 0.5555(3) 0.1232(3)
H73 H 0.5906 0.5041 0.0898
C46 C 0.6321(3) 0.6493(3) 0.0985(2)
C47 C 0.6750(3) 0.7231(3) 0.1505(3)
H74 H 0.6839 0.7853 0.1355
C48 C 0.7049(4) 0.7067(3) 0.2242(3)
H75 H 0.7336 0.7577 0.2581
C49 C 0.6038(3) 0.6665(3) 0.0177(3)
C50 C 0.6143(3) 0.6054(3) -0.0432(3)
H76 H 0.6341 0.5486 -0.0336
C51 C 0.5963(3) 0.6263(3) -0.1170(3)
H77 H 0.6053 0.5841 -0.1565
C52 C 0.5650(3) 0.7084(3) -0.1343(2)
C53 C 0.5508(4) 0.7686(4) -0.0742(3)
H78 H 0.5276 0.8235 -0.0844
C54 C 0.5702(4) 0.7491(4) 0.0010(3)
H79 H 0.5609 0.7912 0.0404
C55 C 0.5461(4) 0.7316(3) -0.2155(3)
H80 H 0.5557 0.6794 -0.2494
H81 H 0.4792 0.7383 -0.2240
C56 C 0.5874(3) 0.9059(3) -0.2365(2)
H82 H 0.5262 0.9181 -0.2292
C57 C 0.7384(3) 0.9245(3) -0.2572(2)
H83 H 0.8011 0.9524 -0.2670
C58 C 0.7066(3) 0.8318(3) -0.2470(3)
H84 H 0.7429 0.7841 -0.2485
N1 N 0.6261(3) 1.1142(2) -0.35962(17)
N2 N 0.6730(3) 1.2588(2) -0.2415(2)
N3 N 0.7093(2) 1.1133(2) -0.13267(16)
N4 N 0.6629(2) 0.9712(2) -0.25080(17)
N5 N 0.6106(3) 0.8206(2) -0.23402(18)
N6 N 0.7927(2) 1.0899(2) -0.02853(17)
N7 N 0.8519(3) 0.3202(2) 0.10030(18)
N8 N 0.8655(2) 0.2877(2) 0.21994(17)
N9 N 0.9455(3) 0.1614(2) 0.3257(2)
N10 N 0.9609(3) 0.3023(2) 0.44654(18)
N11 N 0.8880(3) 0.4309(2) 0.33691(17)
N12 N 0.8081(3) 0.5465(2) 0.32994(17)
Pd1 Pd 0.91498(2) 0.29637(2) 0.33199(2)
Pd2 Pd 0.66837(2) 1.11357(2) -0.24581(2)
B1 B 0.0320(4) 0.8570(4) 0.3060(3)
F1 F 0.0703(4) 0.7864(3) 0.3327(3)
F2 F -0.0645(3) 0.8253(4) 0.2916(3)
F3 F 0.0725(3) 0.8929(4) 0.2465(2)
F4 F 0.0517(4) 0.9280(3) 0.3635(3)
B2 B 0.3746(4) 0.0170(4) 0.8181(3)
F5 F 0.2895(6) 0.0161(9) 0.8467(5)
F6 F 0.4460(5) 0.0930(5) 0.8230(7)
F7 F 0.3666(6) -0.0278(10) 0.7458(5)
F8 F 0.4178(7) -0.0530(8) 0.8624(6)
B3 B 0.6262(5) 0.2278(5) 0.3989(3)
F13 F 0.6418(5) 0.2646(5) 0.3353(3)
F14 F 0.5436(5) 0.1801(5) 0.4051(4)
F15 F 0.6916(6) 0.1730(6) 0.4080(4)
F16 F 0.6515(4) 0.2989(3) 0.4565(3)
B4 B 0.2044(5) 0.4249(4) 0.2808(4)
F17 F 0.1881(3) 0.4937(3) 0.3358(2)
F18 F 0.1333(4) 0.4136(6) 0.2314(3)
F19 F 0.2860(4) 0.4616(4) 0.2530(3)
F20 F 0.2090(6) 0.3491(4) 0.3184(4)
O1 O 0.8015(9) 0.8705(8) 0.4440(7)
O2 O 0.6349(10) 0.7949(8) 0.5045(8)
C65 C 0.7123(10) 0.8866(12) 0.4091(7)
H101 H 0.6868 0.8379 0.3687
H102 H 0.7214 0.9485 0.3876
C66 C 0.6389(6) 0.8817(6) 0.4775(5)
H103 H 0.6636 0.9313 0.5173
H104 H 0.5752 0.8894 0.4579
C67 C 0.7269(11) 0.7846(13) 0.5374(8)
H105 H 0.7214 0.7233 0.5595
H106 H 0.7499 0.8341 0.5777
C68 C 0.7982(5) 0.7922(5) 0.4753(4)
H107 H 0.8621 0.7887 0.4975
H108 H 0.7779 0.7395 0.4373
O5 O 0.5744(5) 0.5262(4) 0.4543(4)
C73 C 0.4795(7) 0.4822(7) 0.4218(5)
H117 H 0.4747 0.4138 0.4159
H118 H 0.4688 0.5053 0.3717
C74 C 0.5951(7) 0.4962(7) 0.5290(5)
H119 H 0.6587 0.5296 0.5497
H120 H 0.5946 0.4284 0.5265
O5A O 0.4256(5) 0.4738(4) 0.5457(4)
C73A C 0.5205(7) 0.5178(7) 0.5782(5)
H117A H 0.5253 0.5862 0.5841
H118A H 0.5312 0.4947 0.6283
C74A C 0.4049(7) 0.5038(7) 0.4710(5)
H119A H 0.3413 0.4704 0.4503
H120A H 0.4054 0.5716 0.4735
C1? C 0.662(2) 1.2176(10) -0.3745(10)
H1? H 0.7319 1.2314 -0.3722
H2? H 0.6375 1.2299 -0.4251
C2? C 0.627(2) 1.281(2) -0.3157(9)
H3? H 0.6480 1.3474 -0.3252
H4? H 0.5573 1.2662 -0.3159
C3? C 0.5208(11) 1.0765(17) -0.3737(14)
H5? H 0.4868 1.1071 -0.3376
H6? H 0.5077 1.0091 -0.3680
H7? H 0.4998 1.0889 -0.4245
C4? C 0.686(2) 1.0605(18) -0.4059(16)
H8? H 0.6930 1.0872 -0.4546
H9? H 0.6541 0.9948 -0.4131
H10? H 0.7484 1.0652 -0.3796
C5? C 0.7771(16) 1.306(2) -0.224(3)
H11? H 0.7836 1.3735 -0.2255
H12? H 0.8155 1.2834 -0.2614
H13? H 0.7990 1.2904 -0.1743
C6? C 0.629(3) 1.296(4) -0.1756(18)
H14? H 0.6263 1.3615 -0.1811
H15? H 0.6668 1.2899 -0.1295
H16? H 0.5643 1.2597 -0.1733
C59? C 0.959(3) 0.1374(17) 0.4078(11)
H85? H 0.8964 0.1112 0.4249
H86? H 0.9974 0.0879 0.4097
C60? C 1.008(2) 0.2187(14) 0.4631(18)
H87? H 1.0767 0.2346 0.4564
H88? H 0.9995 0.2014 0.5151
C61? C 1.0299(19) 0.157(3) 0.281(2)
H89? H 1.0339 0.0918 0.2703
H90? H 1.0879 0.1896 0.3102
H91? H 1.0227 0.1873 0.2342
C62? C 0.863(4) 0.084(4) 0.299(4)
H92? H 0.8518 0.0823 0.2449
H93? H 0.8056 0.0947 0.3224
H94? H 0.8765 0.0238 0.3139
C63? C 1.043(3) 0.384(3) 0.465(2)
H95? H 1.0219 0.4424 0.4564
H96? H 1.0947 0.3779 0.4337
H97? H 1.0657 0.3840 0.5180
C64? C 0.881(4) 0.311(4) 0.493(3)
H98? H 0.8332 0.2525 0.4872
H99? H 0.8520 0.3626 0.4779
H100? H 0.9048 0.3219 0.5461
F9? F 0.2781(7) 0.0312(10) 0.8164(9)
F10? F 0.4098(13) 0.0686(9) 0.7611(7)
F11? F 0.4181(7) 0.0681(7) 0.8855(6)
F12? F 0.3793(7) -0.0711(5) 0.8152(8)
O3? O 0.8019(15) 0.9098(13) 0.4774(9)
O4? O 0.6262(13) 0.7613(12) 0.4696(8)
C69? C 0.7106(14) 0.9094(13) 0.4365(14)
H109? H 0.7216 0.9486 0.3933
H110? H 0.6706 0.9382 0.4696
C70? C 0.6511(9) 0.8028(8) 0.4051(6)
H111? H 0.5944 0.8068 0.3722
H112? H 0.6920 0.7683 0.3774
C71? C 0.7151(13) 0.7593(13) 0.5130(14)
H113? H 0.7515 0.7207 0.4843
H114? H 0.7005 0.7290 0.5600
C72? C 0.7786(10) 0.8587(10) 0.5325(8)
H115? H 0.7448 0.8936 0.5666
H116? H 0.8377 0.8505 0.5604
loop_
_geom_bond_atom_site_label_1
_geom_bond_atom_site_label_2
_geom_bond_site_symmetry_1
_geom_bond_site_symmetry_2
C7 H17 1_555 1_555
H18 C7 1_555 1_555
C8 C7 1_555 1_555
H19 C8 1_555 1_555
H20 C8 1_555 1_555
C9 H21 1_555 1_555
H22 C9 1_555 1_555
H23 C9 1_555 1_555
C10 H24 1_555 1_555
H25 C10 1_555 1_555
H26 C10 1_555 1_555
C11 H27 1_555 1_555
H28 C11 1_555 1_555
H29 C11 1_555 1_555
C12 H30 1_555 1_555
H31 C12 1_555 1_555
H32 C12 1_555 1_555
C13 H33 1_555 1_555
H34 C13 1_555 1_555
C14 C13 1_555 1_555
H35 C14 1_555 1_555
H36 C14 1_555 1_555
C15 H37 1_555 1_555
H38 C15 1_555 1_555
H39 C15 1_555 1_555
C16 H40 1_555 1_555
H41 C16 1_555 1_555
H42 C16 1_555 1_555
C17 H43 1_555 1_555
H44 C17 1_555 1_555
H45 C17 1_555 1_555
C18 H46 1_555 1_555
H47 C18 1_555 1_555
H48 C18 1_555 1_555
C19 H49 1_555 1_555
C20 H50 1_555 1_555
C21 C20 1_555 1_555
H51 C21 1_555 1_555
C22 H52 1_555 1_555
H53 C22 1_555 1_555
C23 C22 1_555 1_555
C24 C23 1_555 1_555
H54 C24 1_555 1_555
C25 C24 1_555 1_555
H55 C25 1_555 1_555
C26 C25 1_555 1_555
C27 C26 1_555 1_555
H56 C27 1_555 1_555
C28 C23 1_555 1_555
H57 C28 1_555 1_555
C29 C26 1_555 1_555
C30 C29 1_555 1_555
H58 C30 1_555 1_555
C31 C30 1_555 1_555
H59 C31 1_555 1_555
C32 C31 1_555 1_555
C33 C32 1_555 1_555
H60 C33 1_555 1_555
C34 C29 1_555 1_555
H61 C34 1_555 1_555
C35 C32 1_555 1_555
H62 C35 1_555 1_555
H63 C35 1_555 1_555
C36 H64 1_555 1_555
C37 H65 1_555 1_555
C38 C37 1_555 1_555
H66 C38 1_555 1_555
C39 H67 1_555 1_555
C40 H68 1_555 1_555
C41 C40 1_555 1_555
H69 C41 1_555 1_555
C42 H70 1_555 1_555
H71 C42 1_555 1_555
C43 C42 1_555 1_555
C44 C43 1_555 1_555
H72 C44 1_555 1_555
C45 C44 1_555 1_555
H73 C45 1_555 1_555
C46 C45 1_555 1_555
C47 C46 1_555 1_555
H74 C47 1_555 1_555
C48 C43 1_555 1_555
H75 C48 1_555 1_555
C49 C46 1_555 1_555
C50 C49 1_555 1_555
H76 C50 1_555 1_555
C51 C50 1_555 1_555
H77 C51 1_555 1_555
C52 C51 1_555 1_555
C53 C52 1_555 1_555
H78 C53 1_555 1_555
C54 C49 1_555 1_555
H79 C54 1_555 1_555
C55 C52 1_555 1_555
H80 C55 1_555 1_555
H81 C55 1_555 1_555
C56 H82 1_555 1_555
C57 H83 1_555 1_555
C58 C57 1_555 1_555
H84 C58 1_555 1_555
N1 C7 1_555 1_555
N2 C8 1_555 1_555
N3 C19 1_555 1_555
N4 C56 1_555 1_555
N5 C55 1_555 1_555
N6 C19 1_555 1_555
N7 C35 1_555 1_555
N8 C36 1_555 1_555
N9 C13 1_555 1_555
N10 C14 1_555 1_555
N11 C39 1_555 1_555
N12 C39 1_555 1_555
Pd1 N8 1_555 1_555
Pd2 N1 1_555 1_555
B1 F1 1_555 1_555
F2 B1 1_555 1_555
F3 B1 1_555 1_555
F4 B1 1_555 1_555
B2 F5 1_555 1_555
F6 B2 1_555 1_555
F7 B2 1_555 1_555
F8 B2 1_555 1_555
B3 F13 1_555 1_555
F14 B3 1_555 1_555
F15 B3 1_555 1_555
F16 B3 1_555 1_555
B4 F17 1_555 1_555
F18 B4 1_555 1_555
F19 B4 1_555 1_555
F20 B4 1_555 1_555
O1 C65 1_555 1_555
O2 C66 1_555 1_555
C65 H101 1_555 1_555
H102 C65 1_555 1_555
C66 C65 1_555 1_555
H103 C66 1_555 1_555
H104 C66 1_555 1_555
C67 O2 1_555 1_555
H105 C67 1_555 1_555
H106 C67 1_555 1_555
C68 O1 1_555 1_555
H107 C68 1_555 1_555
H108 C68 1_555 1_555
O5 C73 1_555 1_555
C73 H117 1_555 1_555
H118 C73 1_555 1_555
C74 O5 1_555 1_555
H119 C74 1_555 1_555
H120 C74 1_555 1_555
O5A C73A 1_555 1_555
C73A C74 1_555 1_555
H117A C73A 1_555 1_555
H118A C73A 1_555 1_555
C74A C73 1_555 1_555
H119A C74A 1_555 1_555
H120A C74A 1_555 1_555
C9 N1 1_555 1_555
C10 N1 1_555 1_555
C11 N2 1_555 1_555
C12 N2 1_555 1_555
C15 N9 1_555 1_555
C16 N9 1_555 1_555
C17 N10 1_555 1_555
C18 N10 1_555 1_555
C20 N3 1_555 1_555
C21 N6 1_555 1_555
C22 N6 1_555 1_555
C27 C28 1_555 1_555
C33 C34 1_555 1_555
C36 N7 1_555 1_555
C37 N8 1_555 1_555
C38 N7 1_555 1_555
C40 N11 1_555 1_555
C41 N12 1_555 1_555
C42 N12 1_555 1_555
C47 C48 1_555 1_555
C53 C54 1_555 1_555
C56 N5 1_555 1_555
C57 N4 1_555 1_555
C58 N5 1_555 1_555
N2 Pd2 1_555 1_555
N3 Pd2 1_555 1_555
N4 Pd2 1_555 1_555
N9 Pd1 1_555 1_555
N10 Pd1 1_555 1_555
N11 Pd1 1_555 1_555
C67 C68 1_555 1_555
O5A C74A 1_555 1_555

#END
