# generated using pymatgen
data_H176Pd7C144N54O83
_symmetry_space_group_name_H-M   'P 1'
_cell_length_a   18.70500000
_cell_length_b   27.80900000
_cell_length_c   37.30300000
_cell_angle_alpha   90.00000000
_cell_angle_beta   90.00000000
_cell_angle_gamma   98.28000000
_symmetry_Int_Tables_number   1
_chemical_formula_structural   H176Pd7C144N54O83
_chemical_formula_sum   'H704 Pd28 C576 N216 O332'
_cell_volume   19201.53953492
_cell_formula_units_Z   4
loop_
 _symmetry_equiv_pos_site_id
 _symmetry_equiv_pos_as_xyz
  1  'x, y, z'
loop_
 _atom_site_type_symbol
 _atom_site_label
 _atom_site_symmetry_multiplicity
 _atom_site_fract_x
 _atom_site_fract_y
 _atom_site_fract_z
 _atom_site_occupancy
  H  H1  1  0.373000  0.907700  0.941500  1
  H  H2  1  0.627000  0.592300  0.441500  1
  H  H3  1  0.627000  0.092300  0.058500  1
  H  H4  1  0.373000  0.407700  0.558500  1
  H  H5  1  0.415500  0.873700  0.959100  1
  H  H6  1  0.584500  0.626300  0.459100  1
  H  H7  1  0.584500  0.126300  0.040900  1
  H  H8  1  0.415500  0.373700  0.540900  1
  H  H9  1  0.556000  0.988100  0.936700  1
  H  H10  1  0.444000  0.511900  0.436700  1
  H  H11  1  0.444000  0.011900  0.063300  1
  H  H12  1  0.556000  0.488100  0.563300  1
  H  H13  1  0.509500  0.003700  0.908300  1
  H  H14  1  0.490500  0.496300  0.408300  1
  H  H15  1  0.490500  0.996300  0.091700  1
  H  H16  1  0.509500  0.503700  0.591700  1
  H  H17  1  0.487100  0.936500  0.991100  1
  H  H18  1  0.512900  0.563500  0.491100  1
  H  H19  1  0.512900  0.063500  0.008900  1
  H  H20  1  0.487100  0.436500  0.508900  1
  H  H21  1  0.404200  0.945100  0.996800  1
  H  H22  1  0.595800  0.554900  0.496800  1
  H  H23  1  0.595800  0.054900  0.003200  1
  H  H24  1  0.404200  0.445100  0.503200  1
  H  H25  1  0.411200  0.996400  0.942100  1
  H  H26  1  0.588800  0.503600  0.442100  1
  H  H27  1  0.588800  0.003600  0.057900  1
  H  H28  1  0.411200  0.496400  0.557900  1
  H  H29  1  0.474500  0.019600  0.968700  1
  H  H30  1  0.525500  0.480400  0.468700  1
  H  H31  1  0.525500  0.980400  0.031300  1
  H  H32  1  0.474500  0.519600  0.531300  1
  H  H33  1  0.489800  0.921500  0.830400  1
  H  H34  1  0.510200  0.578500  0.330400  1
  H  H35  1  0.510200  0.078500  0.169600  1
  H  H36  1  0.489800  0.421500  0.669600  1
  H  H37  1  0.585400  0.926200  0.782200  1
  H  H38  1  0.414600  0.573800  0.282200  1
  H  H39  1  0.414600  0.073800  0.217800  1
  H  H40  1  0.585400  0.426200  0.717800  1
  H  H41  1  0.728600  0.960000  0.856400  1
  H  H42  1  0.271400  0.540000  0.356400  1
  H  H43  1  0.271400  0.040000  0.143600  1
  H  H44  1  0.728600  0.460000  0.643600  1
  H  H45  1  0.641700  0.936800  0.900100  1
  H  H46  1  0.358300  0.563200  0.400100  1
  H  H47  1  0.358300  0.063200  0.099900  1
  H  H48  1  0.641700  0.436800  0.599900  1
  H  H49  1  0.352900  0.769300  0.849600  1
  H  H50  1  0.647100  0.730700  0.349600  1
  H  H51  1  0.647100  0.230700  0.150400  1
  H  H52  1  0.352900  0.269300  0.650400  1
  H  H53  1  0.522200  0.737600  0.909900  1
  H  H54  1  0.477800  0.762400  0.409900  1
  H  H55  1  0.477800  0.262400  0.090100  1
  H  H56  1  0.522200  0.237600  0.590100  1
  H  H57  1  0.380600  0.894100  0.872500  1
  H  H58  1  0.619400  0.605900  0.372500  1
  H  H59  1  0.619400  0.105900  0.127500  1
  H  H60  1  0.380600  0.394100  0.627500  1
  H  H61  1  0.365300  0.865200  0.835600  1
  H  H62  1  0.634700  0.634800  0.335600  1
  H  H63  1  0.634700  0.134800  0.164400  1
  H  H64  1  0.365300  0.365200  0.664400  1
  H  H65  1  0.312300  0.852500  0.869000  1
  H  H66  1  0.687700  0.647500  0.369000  1
  H  H67  1  0.687700  0.147500  0.131000  1
  H  H68  1  0.312300  0.352500  0.631000  1
  H  H69  1  0.594900  0.805400  0.937900  1
  H  H70  1  0.405100  0.694600  0.437900  1
  H  H71  1  0.405100  0.194600  0.062100  1
  H  H72  1  0.594900  0.305400  0.562100  1
  H  H73  1  0.599500  0.855000  0.915700  1
  H  H74  1  0.400500  0.645000  0.415700  1
  H  H75  1  0.400500  0.145000  0.084300  1
  H  H76  1  0.599500  0.355000  0.584300  1
  H  H77  1  0.549000  0.846800  0.950500  1
  H  H78  1  0.451000  0.653200  0.450500  1
  H  H79  1  0.451000  0.153200  0.049500  1
  H  H80  1  0.549000  0.346800  0.549500  1
  H  H81  1  0.942400  0.537000  0.578400  1
  H  H82  1  0.057600  0.963000  0.078400  1
  H  H83  1  0.057600  0.463000  0.421600  1
  H  H84  1  0.942400  0.037000  0.921600  1
  H  H85  1  0.869900  0.508000  0.579700  1
  H  H86  1  0.130100  0.992000  0.079700  1
  H  H87  1  0.130100  0.492000  0.420300  1
  H  H88  1  0.869900  0.008000  0.920300  1
  H  H89  1  0.845000  0.564400  0.491200  1
  H  H90  1  0.155000  0.935600  0.991200  1
  H  H91  1  0.155000  0.435600  0.508800  1
  H  H92  1  0.845000  0.064400  0.008800  1
  H  H93  1  0.898500  0.609200  0.493000  1
  H  H94  1  0.101500  0.890800  0.993000  1
  H  H95  1  0.101500  0.390800  0.507000  1
  H  H96  1  0.898500  0.109200  0.007000  1
  H  H97  1  0.949200  0.484100  0.534600  1
  H  H98  1  0.050800  0.015900  0.034600  1
  H  H99  1  0.050800  0.515900  0.465400  1
  H  H100  1  0.949200  0.984100  0.965400  1
  H  H101  1  0.868400  0.489100  0.521800  1
  H  H102  1  0.131600  0.010900  0.021800  1
  H  H103  1  0.131600  0.510900  0.478200  1
  H  H104  1  0.868400  0.989100  0.978200  1
  H  H105  1  0.956100  0.537200  0.482800  1
  H  H106  1  0.043900  0.962800  0.982800  1
  H  H107  1  0.043900  0.462800  0.517200  1
  H  H108  1  0.956100  0.037200  0.017200  1
  H  H109  1  0.987800  0.568600  0.517100  1
  H  H110  1  0.012200  0.931400  0.017100  1
  H  H111  1  0.012200  0.431400  0.482900  1
  H  H112  1  0.987800  0.068600  0.982900  1
  H  H113  1  0.576700  0.007600  0.572900  1
  H  H114  1  0.423300  0.492400  0.072900  1
  H  H115  1  0.423300  0.992400  0.427100  1
  H  H116  1  0.576700  0.507600  0.927100  1
  H  H117  1  0.649600  0.035900  0.576000  1
  H  H118  1  0.350400  0.464100  0.076000  1
  H  H119  1  0.350400  0.964100  0.424000  1
  H  H120  1  0.649600  0.535900  0.924000  1
  H  H121  1  0.683600  0.960200  0.495200  1
  H  H122  1  0.316400  0.539800  0.995200  1
  H  H123  1  0.316400  0.039800  0.504800  1
  H  H124  1  0.683600  0.460200  0.004800  1
  H  H125  1  0.623600  0.920300  0.500700  1
  H  H126  1  0.376400  0.579700  0.000700  1
  H  H127  1  0.376400  0.079700  0.499300  1
  H  H128  1  0.623600  0.420300  0.999300  1
  H  H129  1  0.664000  0.046100  0.516900  1
  H  H130  1  0.336000  0.453900  0.016900  1
  H  H131  1  0.336000  0.953900  0.483100  1
  H  H132  1  0.664000  0.546100  0.983100  1
  H  H133  1  0.582000  0.054500  0.524100  1
  H  H134  1  0.418000  0.445500  0.024100  1
  H  H135  1  0.418000  0.945500  0.475900  1
  H  H136  1  0.582000  0.554500  0.975900  1
  H  H137  1  0.539600  0.970900  0.509200  1
  H  H138  1  0.460400  0.529100  0.009200  1
  H  H139  1  0.460400  0.029100  0.490800  1
  H  H140  1  0.539600  0.470900  0.990800  1
  H  H141  1  0.587600  0.994900  0.476200  1
  H  H142  1  0.412400  0.505100  0.976200  1
  H  H143  1  0.412400  0.005100  0.523800  1
  H  H144  1  0.587600  0.494900  0.023800  1
  H  H145  1  0.032000  0.556900  0.900200  1
  H  H146  1  0.968000  0.943100  0.400200  1
  H  H147  1  0.968000  0.443100  0.099800  1
  H  H148  1  0.032000  0.056900  0.599800  1
  H  H149  1  0.087900  0.556300  0.872500  1
  H  H150  1  0.912100  0.943700  0.372500  1
  H  H151  1  0.912100  0.443700  0.127500  1
  H  H152  1  0.087900  0.056300  0.627500  1
  H  H153  1  0.197800  0.671600  0.922100  1
  H  H154  1  0.802200  0.828400  0.422100  1
  H  H155  1  0.802200  0.328400  0.077900  1
  H  H156  1  0.197800  0.171600  0.577900  1
  H  H157  1  0.143400  0.649900  0.948500  1
  H  H158  1  0.856600  0.850100  0.448500  1
  H  H159  1  0.856600  0.350100  0.051500  1
  H  H160  1  0.143400  0.149900  0.551500  1
  H  H161  1  0.153400  0.103400  0.771900  1
  H  H162  1  0.846600  0.396600  0.271900  1
  H  H163  1  0.846600  0.896600  0.228100  1
  H  H164  1  0.153400  0.603400  0.728100  1
  H  H165  1  0.120700  0.116000  0.806000  1
  H  H166  1  0.879300  0.384000  0.306000  1
  H  H167  1  0.879300  0.884000  0.194000  1
  H  H168  1  0.120700  0.616000  0.694000  1
  H  H169  1  0.267700  0.059200  0.847300  1
  H  H170  1  0.732300  0.440800  0.347300  1
  H  H171  1  0.732300  0.940800  0.152700  1
  H  H172  1  0.267700  0.559200  0.652700  1
  H  H173  1  0.286200  0.029000  0.817000  1
  H  H174  1  0.713800  0.471000  0.317000  1
  H  H175  1  0.713800  0.971000  0.183000  1
  H  H176  1  0.286200  0.529000  0.683000  1
  H  H177  1  0.387400  0.458000  0.784200  1
  H  H178  1  0.612600  0.042000  0.284200  1
  H  H179  1  0.612600  0.542000  0.215800  1
  H  H180  1  0.387400  0.958000  0.715800  1
  H  H181  1  0.414400  0.438800  0.817800  1
  H  H182  1  0.585600  0.061200  0.317800  1
  H  H183  1  0.585600  0.561200  0.182200  1
  H  H184  1  0.414400  0.938800  0.682200  1
  H  H185  1  0.292000  0.514300  0.877700  1
  H  H186  1  0.708000  0.985700  0.377700  1
  H  H187  1  0.708000  0.485700  0.122300  1
  H  H188  1  0.292000  0.014300  0.622300  1
  H  H189  1  0.259100  0.527900  0.843700  1
  H  H190  1  0.740900  0.972100  0.343700  1
  H  H191  1  0.740900  0.472100  0.156300  1
  H  H192  1  0.259100  0.027900  0.656300  1
  H  H193  1  0.312000  0.401300  0.824600  1
  H  H194  1  0.688000  0.098700  0.324600  1
  H  H195  1  0.688000  0.598700  0.175400  1
  H  H196  1  0.312000  0.901300  0.675400  1
  H  H197  1  0.281000  0.434000  0.795200  1
  H  H198  1  0.719000  0.066000  0.295200  1
  H  H199  1  0.719000  0.566000  0.204800  1
  H  H200  1  0.281000  0.934000  0.704800  1
  H  H201  1  0.270800  0.436400  0.866900  1
  H  H202  1  0.729200  0.063600  0.366900  1
  H  H203  1  0.729200  0.563600  0.133100  1
  H  H204  1  0.270800  0.936400  0.633100  1
  H  H205  1  0.217000  0.450800  0.836800  1
  H  H206  1  0.783000  0.049200  0.336800  1
  H  H207  1  0.783000  0.549200  0.163200  1
  H  H208  1  0.217000  0.950800  0.663200  1
  H  H209  1  0.104600  0.553300  0.945000  1
  H  H210  1  0.895400  0.946700  0.445000  1
  H  H211  1  0.895400  0.446700  0.055000  1
  H  H212  1  0.104600  0.053300  0.555000  1
  H  H213  1  0.144800  0.525300  0.915300  1
  H  H214  1  0.855200  0.974700  0.415300  1
  H  H215  1  0.855200  0.474700  0.084700  1
  H  H216  1  0.144800  0.025300  0.584700  1
  H  H217  1  0.223500  0.594700  0.901800  1
  H  H218  1  0.776500  0.905300  0.401800  1
  H  H219  1  0.776500  0.405300  0.098200  1
  H  H220  1  0.223500  0.094700  0.598200  1
  H  H221  1  0.222800  0.590400  0.944800  1
  H  H222  1  0.777200  0.909600  0.444800  1
  H  H223  1  0.777200  0.409600  0.055200  1
  H  H224  1  0.222800  0.090400  0.555200  1
  H  H225  1  0.223400  0.141600  0.831800  1
  H  H226  1  0.776600  0.358400  0.331800  1
  H  H227  1  0.776600  0.858400  0.168200  1
  H  H228  1  0.223400  0.641600  0.668200  1
  H  H229  1  0.236200  0.160200  0.791200  1
  H  H230  1  0.763800  0.339800  0.291200  1
  H  H231  1  0.763800  0.839800  0.208800  1
  H  H232  1  0.236200  0.660200  0.708800  1
  H  H233  1  0.332300  0.115000  0.811300  1
  H  H234  1  0.667700  0.385000  0.311300  1
  H  H235  1  0.667700  0.885000  0.188700  1
  H  H236  1  0.332300  0.615000  0.688700  1
  H  H237  1  0.291500  0.090300  0.776500  1
  H  H238  1  0.708500  0.409700  0.276500  1
  H  H239  1  0.708500  0.909700  0.223500  1
  H  H240  1  0.291500  0.590300  0.723500  1
  H  H241  1  0.064300  0.032900  0.748200  1
  H  H242  1  0.935700  0.467100  0.248200  1
  H  H243  1  0.935700  0.967100  0.251800  1
  H  H244  1  0.064300  0.532900  0.751800  1
  H  H245  1  0.944400  0.012500  0.730300  1
  H  H246  1  0.055600  0.487500  0.230300  1
  H  H247  1  0.055600  0.987500  0.269700  1
  H  H248  1  0.944400  0.512500  0.769700  1
  H  H249  1  0.889800  0.977900  0.832700  1
  H  H250  1  0.110200  0.522100  0.332700  1
  H  H251  1  0.110200  0.022100  0.167300  1
  H  H252  1  0.889800  0.477900  0.667300  1
  H  H253  1  0.011700  0.998100  0.848300  1
  H  H254  1  0.988300  0.501900  0.348300  1
  H  H255  1  0.988300  0.001900  0.151700  1
  H  H256  1  0.011700  0.498100  0.651700  1
  H  H257  1  0.592300  0.929700  0.632700  1
  H  H258  1  0.407700  0.570300  0.132700  1
  H  H259  1  0.407700  0.070300  0.367300  1
  H  H260  1  0.592300  0.429700  0.867300  1
  H  H261  1  0.618600  0.938000  0.692900  1
  H  H262  1  0.381400  0.562000  0.192900  1
  H  H263  1  0.381400  0.062000  0.307100  1
  H  H264  1  0.618600  0.438000  0.807100  1
  H  H265  1  0.826100  0.986200  0.667300  1
  H  H266  1  0.173900  0.513800  0.167300  1
  H  H267  1  0.173900  0.013800  0.332700  1
  H  H268  1  0.826100  0.486200  0.832700  1
  H  H269  1  0.793200  0.981300  0.607400  1
  H  H270  1  0.206800  0.518700  0.107400  1
  H  H271  1  0.206800  0.018700  0.392600  1
  H  H272  1  0.793200  0.481300  0.892600  1
  H  H273  1  0.927400  0.613600  0.889600  1
  H  H274  1  0.072600  0.886400  0.389600  1
  H  H275  1  0.072600  0.386400  0.110400  1
  H  H276  1  0.927400  0.113600  0.610400  1
  H  H277  1  0.828100  0.598900  0.851000  1
  H  H278  1  0.171900  0.901100  0.351000  1
  H  H279  1  0.171900  0.401100  0.149000  1
  H  H280  1  0.828100  0.098900  0.649000  1
  H  H281  1  0.966300  0.634200  0.767500  1
  H  H282  1  0.033700  0.865800  0.267500  1
  H  H283  1  0.033700  0.365800  0.232500  1
  H  H284  1  0.966300  0.134200  0.732500  1
  H  H285  1  0.059300  0.647900  0.808600  1
  H  H286  1  0.940700  0.852100  0.308600  1
  H  H287  1  0.940700  0.352100  0.191400  1
  H  H288  1  0.059300  0.147900  0.691400  1
  H  H289  1  0.467500  0.526700  0.761400  1
  H  H290  1  0.532500  0.973300  0.261400  1
  H  H291  1  0.532500  0.473300  0.238600  1
  H  H292  1  0.467500  0.026700  0.738600  1
  H  H293  1  0.583800  0.544600  0.736500  1
  H  H294  1  0.416200  0.955400  0.236500  1
  H  H295  1  0.416200  0.455400  0.263500  1
  H  H296  1  0.583800  0.044600  0.763500  1
  H  H297  1  0.658300  0.577600  0.836400  1
  H  H298  1  0.341700  0.922400  0.336400  1
  H  H299  1  0.341700  0.422400  0.163600  1
  H  H300  1  0.658300  0.077600  0.663600  1
  H  H301  1  0.541400  0.559400  0.858100  1
  H  H302  1  0.458600  0.940600  0.358100  1
  H  H303  1  0.458600  0.440600  0.141900  1
  H  H304  1  0.541400  0.059400  0.641900  1
  H  H305  1  0.724300  0.573400  0.606400  1
  H  H306  1  0.275700  0.926600  0.106400  1
  H  H307  1  0.275700  0.426600  0.393600  1
  H  H308  1  0.724300  0.073400  0.893600  1
  H  H309  1  0.694800  0.572900  0.666667  1
  H  H310  1  0.305200  0.927100  0.166667  1
  H  H311  1  0.305200  0.427100  0.333333  1
  H  H312  1  0.694800  0.072900  0.833333  1
  H  H313  1  0.910100  0.605600  0.687400  1
  H  H314  1  0.089900  0.894400  0.187400  1
  H  H315  1  0.089900  0.394400  0.312600  1
  H  H316  1  0.910100  0.105600  0.812600  1
  H  H317  1  0.930400  0.603900  0.627400  1
  H  H318  1  0.069600  0.896100  0.127400  1
  H  H319  1  0.069600  0.396100  0.372600  1
  H  H320  1  0.930400  0.103900  0.872600  1
  H  H321  1  0.682900  0.707700  0.534200  1
  H  H322  1  0.317100  0.792300  0.034200  1
  H  H323  1  0.317100  0.292300  0.465800  1
  H  H324  1  0.682900  0.207700  0.965800  1
  H  H325  1  0.879900  0.770600  0.568600  1
  H  H326  1  0.120100  0.729400  0.068600  1
  H  H327  1  0.120100  0.229400  0.431400  1
  H  H328  1  0.879900  0.270600  0.931400  1
  H  H329  1  0.644300  0.770400  0.566300  1
  H  H330  1  0.355700  0.729600  0.066300  1
  H  H331  1  0.355700  0.229600  0.433700  1
  H  H332  1  0.644300  0.270400  0.933700  1
  H  H333  1  0.844500  0.834900  0.538500  1
  H  H334  1  0.155500  0.665100  0.038500  1
  H  H335  1  0.155500  0.165100  0.461500  1
  H  H336  1  0.844500  0.334900  0.961500  1
  H  H337  1  0.662700  0.624100  0.522100  1
  H  H338  1  0.337300  0.875900  0.022100  1
  H  H339  1  0.337300  0.375900  0.477900  1
  H  H340  1  0.662700  0.124100  0.977900  1
  H  H341  1  0.733000  0.602100  0.509400  1
  H  H342  1  0.267000  0.897900  0.009400  1
  H  H343  1  0.267000  0.397900  0.490600  1
  H  H344  1  0.733000  0.102100  0.990600  1
  H  H345  1  0.702800  0.592300  0.549300  1
  H  H346  1  0.297200  0.907700  0.049300  1
  H  H347  1  0.297200  0.407700  0.450700  1
  H  H348  1  0.702800  0.092300  0.950700  1
  H  H349  1  0.969400  0.724300  0.581200  1
  H  H350  1  0.030600  0.775700  0.081200  1
  H  H351  1  0.030600  0.275700  0.418800  1
  H  H352  1  0.969400  0.224300  0.918800  1
  H  H353  1  0.942000  0.670800  0.596100  1
  H  H354  1  0.058000  0.829200  0.096100  1
  H  H355  1  0.058000  0.329200  0.403900  1
  H  H356  1  0.942000  0.170800  0.903900  1
  H  H357  1  0.969100  0.678200  0.555500  1
  H  H358  1  0.030900  0.821800  0.055500  1
  H  H359  1  0.030900  0.321800  0.444500  1
  H  H360  1  0.969100  0.178200  0.944500  1
  H  H361  1  0.866600  0.918600  0.531600  1
  H  H362  1  0.133400  0.581400  0.031600  1
  H  H363  1  0.133400  0.081400  0.468400  1
  H  H364  1  0.866600  0.418600  0.968400  1
  H  H365  1  0.798900  0.942300  0.517400  1
  H  H366  1  0.201100  0.557700  0.017400  1
  H  H367  1  0.201100  0.057700  0.482600  1
  H  H368  1  0.798900  0.442300  0.982600  1
  H  H369  1  0.823700  0.949300  0.558300  1
  H  H370  1  0.176300  0.550700  0.058300  1
  H  H371  1  0.176300  0.050700  0.441700  1
  H  H372  1  0.823700  0.449300  0.941700  1
  H  H373  1  0.552900  0.814100  0.579400  1
  H  H374  1  0.447100  0.685900  0.079400  1
  H  H375  1  0.447100  0.185900  0.420600  1
  H  H376  1  0.552900  0.314100  0.920600  1
  H  H377  1  0.577900  0.866500  0.596800  1
  H  H378  1  0.422100  0.633500  0.096800  1
  H  H379  1  0.422100  0.133500  0.403200  1
  H  H380  1  0.577900  0.366500  0.903200  1
  H  H381  1  0.554900  0.862000  0.555400  1
  H  H382  1  0.445100  0.638000  0.055400  1
  H  H383  1  0.445100  0.138000  0.444600  1
  H  H384  1  0.554900  0.362000  0.944600  1
  H  H385  1  0.203000  0.792400  0.828800  1
  H  H386  1  0.797000  0.707600  0.328800  1
  H  H387  1  0.797000  0.207600  0.171200  1
  H  H388  1  0.203000  0.292400  0.671200  1
  H  H389  1  0.042500  0.815700  0.896000  1
  H  H390  1  0.957500  0.684300  0.396000  1
  H  H391  1  0.957500  0.184300  0.104000  1
  H  H392  1  0.042500  0.315700  0.604000  1
  H  H393  1  0.153000  0.854300  0.797000  1
  H  H394  1  0.847000  0.645700  0.297000  1
  H  H395  1  0.847000  0.145700  0.203000  1
  H  H396  1  0.153000  0.354300  0.703000  1
  H  H397  1  0.124200  0.893700  0.899500  1
  H  H398  1  0.875800  0.606300  0.399500  1
  H  H399  1  0.875800  0.106300  0.100500  1
  H  H400  1  0.124200  0.393700  0.600500  1
  H  H401  1  0.240800  0.717200  0.824900  1
  H  H402  1  0.759200  0.782800  0.324900  1
  H  H403  1  0.759200  0.282800  0.175100  1
  H  H404  1  0.240800  0.217200  0.675100  1
  H  H405  1  0.230700  0.686500  0.861200  1
  H  H406  1  0.769300  0.813500  0.361200  1
  H  H407  1  0.769300  0.313500  0.138800  1
  H  H408  1  0.230700  0.186500  0.638800  1
  H  H409  1  0.176900  0.672600  0.828300  1
  H  H410  1  0.823100  0.827400  0.328300  1
  H  H411  1  0.823100  0.327400  0.171700  1
  H  H412  1  0.176900  0.172600  0.671700  1
  H  H413  1  0.976600  0.748900  0.927200  1
  H  H414  1  0.023400  0.751100  0.427200  1
  H  H415  1  0.023400  0.251100  0.072800  1
  H  H416  1  0.976600  0.248900  0.572800  1
  H  H417  1  0.971000  0.698600  0.905800  1
  H  H418  1  0.029000  0.801400  0.405800  1
  H  H419  1  0.029000  0.301400  0.094200  1
  H  H420  1  0.971000  0.198600  0.594200  1
  H  H421  1  0.026300  0.709200  0.938600  1
  H  H422  1  0.973700  0.790800  0.438600  1
  H  H423  1  0.973700  0.290800  0.061400  1
  H  H424  1  0.026300  0.209200  0.561400  1
  H  H425  1  0.168500  0.914500  0.751000  1
  H  H426  1  0.831500  0.585500  0.251000  1
  H  H427  1  0.831500  0.085500  0.249000  1
  H  H428  1  0.168500  0.414500  0.749000  1
  H  H429  1  0.128000  0.960400  0.758800  1
  H  H430  1  0.872000  0.539600  0.258800  1
  H  H431  1  0.872000  0.039600  0.241200  1
  H  H432  1  0.128000  0.460400  0.741200  1
  H  H433  1  0.213600  0.964800  0.764000  1
  H  H434  1  0.786400  0.535200  0.264000  1
  H  H435  1  0.786400  0.035200  0.236000  1
  H  H436  1  0.213600  0.464800  0.736000  1
  H  H437  1  0.135900  0.978300  0.915300  1
  H  H438  1  0.864100  0.521700  0.415300  1
  H  H439  1  0.864100  0.021700  0.084700  1
  H  H440  1  0.135900  0.478300  0.584700  1
  H  H441  1  0.191700  0.012300  0.890400  1
  H  H442  1  0.808300  0.487700  0.390400  1
  H  H443  1  0.808300  0.987700  0.109600  1
  H  H444  1  0.191700  0.512300  0.609600  1
  H  H445  1  0.106600  0.011400  0.885200  1
  H  H446  1  0.893400  0.488600  0.385200  1
  H  H447  1  0.893400  0.988600  0.114800  1
  H  H448  1  0.106600  0.511400  0.614800  1
  H  H449  1  0.445200  0.670500  0.911900  1
  H  H450  1  0.554800  0.829500  0.411900  1
  H  H451  1  0.554800  0.329500  0.088100  1
  H  H452  1  0.445200  0.170500  0.588100  1
  H  H453  1  0.387900  0.703400  0.811500  1
  H  H454  1  0.612100  0.796600  0.311500  1
  H  H455  1  0.612100  0.296600  0.188500  1
  H  H456  1  0.387900  0.203400  0.688500  1
  H  H457  1  0.439300  0.590400  0.930400  1
  H  H458  1  0.560700  0.909600  0.430400  1
  H  H459  1  0.560700  0.409600  0.069600  1
  H  H460  1  0.439300  0.090400  0.569600  1
  H  H461  1  0.379900  0.553100  0.909900  1
  H  H462  1  0.620100  0.946900  0.409900  1
  H  H463  1  0.620100  0.446900  0.090100  1
  H  H464  1  0.379900  0.053100  0.590100  1
  H  H465  1  0.463500  0.556100  0.899500  1
  H  H466  1  0.536500  0.943900  0.399500  1
  H  H467  1  0.536500  0.443900  0.100500  1
  H  H468  1  0.463500  0.056100  0.600500  1
  H  H469  1  0.357000  0.641900  0.769900  1
  H  H470  1  0.643000  0.858100  0.269900  1
  H  H471  1  0.643000  0.358100  0.230100  1
  H  H472  1  0.357000  0.141900  0.730100  1
  H  H473  1  0.403700  0.598400  0.774600  1
  H  H474  1  0.596300  0.901600  0.274600  1
  H  H475  1  0.596300  0.401600  0.225400  1
  H  H476  1  0.403700  0.098400  0.725400  1
  H  H477  1  0.320300  0.590900  0.785900  1
  H  H478  1  0.679700  0.909100  0.285900  1
  H  H479  1  0.679700  0.409100  0.214100  1
  H  H480  1  0.320300  0.090900  0.714100  1
  H  H481  1  0.544500  0.799000  0.820600  1
  H  H482  1  0.455500  0.701000  0.320600  1
  H  H483  1  0.455500  0.201000  0.179400  1
  H  H484  1  0.544500  0.299000  0.679400  1
  H  H485  1  0.656800  0.807700  0.856400  1
  H  H486  1  0.343200  0.692300  0.356400  1
  H  H487  1  0.343200  0.192300  0.143600  1
  H  H488  1  0.656800  0.307700  0.643600  1
  H  H489  1  0.799300  0.842300  0.852900  1
  H  H490  1  0.200700  0.657700  0.352900  1
  H  H491  1  0.200700  0.157700  0.147100  1
  H  H492  1  0.799300  0.342300  0.647100  1
  H  H493  1  0.902000  0.862000  0.814600  1
  H  H494  1  0.098000  0.638000  0.314600  1
  H  H495  1  0.098000  0.138000  0.185400  1
  H  H496  1  0.902000  0.362000  0.685400  1
  H  H497  1  0.945600  0.869600  0.741800  1
  H  H498  1  0.054400  0.630400  0.241800  1
  H  H499  1  0.054400  0.130400  0.258200  1
  H  H500  1  0.945600  0.369600  0.758200  1
  H  H501  1  0.905500  0.861200  0.679600  1
  H  H502  1  0.094500  0.638800  0.179600  1
  H  H503  1  0.094500  0.138800  0.320400  1
  H  H504  1  0.905500  0.361200  0.820400  1
  H  H505  1  0.785700  0.830800  0.642100  1
  H  H506  1  0.214300  0.669200  0.142100  1
  H  H507  1  0.214300  0.169200  0.357900  1
  H  H508  1  0.785700  0.330800  0.857900  1
  H  H509  1  0.658100  0.795200  0.643500  1
  H  H510  1  0.341900  0.704800  0.143500  1
  H  H511  1  0.341900  0.204800  0.356500  1
  H  H512  1  0.658100  0.295200  0.856500  1
  H  H513  1  0.541000  0.762800  0.687200  1
  H  H514  1  0.459000  0.737200  0.187200  1
  H  H515  1  0.459000  0.237200  0.312800  1
  H  H516  1  0.541000  0.262800  0.812800  1
  H  H517  1  0.505000  0.773900  0.749000  1
  H  H518  1  0.495000  0.726100  0.249000  1
  H  H519  1  0.495000  0.226100  0.251000  1
  H  H520  1  0.505000  0.273900  0.751000  1
  H  H521  1  0.876700  0.729900  0.684500  1
  H  H522  1  0.123300  0.770100  0.184500  1
  H  H523  1  0.123300  0.270100  0.315500  1
  H  H524  1  0.876700  0.229900  0.815500  1
  H  H525  1  0.758300  0.708700  0.660700  1
  H  H526  1  0.241700  0.791300  0.160700  1
  H  H527  1  0.241700  0.291300  0.339300  1
  H  H528  1  0.758300  0.208700  0.839300  1
  H  H529  1  0.750500  0.711300  0.847700  1
  H  H530  1  0.249500  0.788700  0.347700  1
  H  H531  1  0.249500  0.288700  0.152300  1
  H  H532  1  0.750500  0.211300  0.652300  1
  H  H533  1  0.641500  0.693300  0.824300  1
  H  H534  1  0.358500  0.806700  0.324300  1
  H  H535  1  0.358500  0.306700  0.175700  1
  H  H536  1  0.641500  0.193300  0.675700  1
  H  H537  1  0.999100  0.772000  0.826900  1
  H  H538  1  0.000900  0.728000  0.326900  1
  H  H539  1  0.000900  0.228000  0.173100  1
  H  H540  1  0.999100  0.272000  0.673100  1
  H  H541  1  0.037600  0.751200  0.793100  1
  H  H542  1  0.962400  0.748800  0.293100  1
  H  H543  1  0.962400  0.248800  0.206900  1
  H  H544  1  0.037600  0.251200  0.706900  1
  H  H545  1  0.015900  0.804800  0.791800  1
  H  H546  1  0.984100  0.695200  0.291800  1
  H  H547  1  0.984100  0.195200  0.208200  1
  H  H548  1  0.015900  0.304800  0.708200  1
  H  H549  1  0.503300  0.639300  0.681500  1
  H  H550  1  0.496700  0.860700  0.181500  1
  H  H551  1  0.496700  0.360700  0.318500  1
  H  H552  1  0.503300  0.139300  0.818500  1
  H  H553  1  0.491000  0.608500  0.717800  1
  H  H554  1  0.509000  0.891500  0.217800  1
  H  H555  1  0.509000  0.391500  0.282200  1
  H  H556  1  0.491000  0.108500  0.782200  1
  H  H557  1  0.466600  0.661200  0.715400  1
  H  H558  1  0.533400  0.838800  0.215400  1
  H  H559  1  0.533400  0.338800  0.284600  1
  H  H560  1  0.466600  0.161200  0.784600  1
  H  H561  1  0.341300  0.894800  0.925800  1
  H  H562  1  0.658700  0.605200  0.425800  1
  H  H563  1  0.658700  0.105200  0.074200  1
  H  H564  1  0.341300  0.394800  0.574200  1
  H  H565  1  0.391800  0.922500  0.951500  1
  H  H566  1  0.608200  0.577500  0.451500  1
  H  H567  1  0.608200  0.077500  0.048500  1
  H  H568  1  0.391800  0.422500  0.548500  1
  H  H569  1  0.510100  0.009000  0.907800  1
  H  H570  1  0.489900  0.491000  0.407800  1
  H  H571  1  0.489900  0.991000  0.092200  1
  H  H572  1  0.510100  0.509000  0.592200  1
  H  H573  1  0.454000  0.013000  0.880600  1
  H  H574  1  0.546000  0.487000  0.380600  1
  H  H575  1  0.546000  0.987000  0.119400  1
  H  H576  1  0.454000  0.513000  0.619400  1
  H  H577  1  0.299300  0.973300  0.936600  1
  H  H578  1  0.700700  0.526700  0.436600  1
  H  H579  1  0.700700  0.026700  0.063400  1
  H  H580  1  0.299300  0.473300  0.563400  1
  H  H581  1  0.324800  0.971100  0.895100  1
  H  H582  1  0.675200  0.528900  0.395100  1
  H  H583  1  0.675200  0.028900  0.104900  1
  H  H584  1  0.324800  0.471100  0.604900  1
  H  H585  1  0.403700  0.040100  0.929400  1
  H  H586  1  0.596300  0.459900  0.429400  1
  H  H587  1  0.596300  0.959900  0.070600  1
  H  H588  1  0.403700  0.540100  0.570600  1
  H  H589  1  0.432000  0.998600  0.953400  1
  H  H590  1  0.568000  0.501400  0.453400  1
  H  H591  1  0.568000  0.001400  0.046600  1
  H  H592  1  0.432000  0.498600  0.546600  1
  H  H593  1  0.475200  0.916200  0.814100  1
  H  H594  1  0.524800  0.583800  0.314100  1
  H  H595  1  0.524800  0.083800  0.185900  1
  H  H596  1  0.475200  0.416200  0.685900  1
  H  H597  1  0.565200  0.933400  0.772200  1
  H  H598  1  0.434800  0.566600  0.272200  1
  H  H599  1  0.434800  0.066600  0.227800  1
  H  H600  1  0.565200  0.433400  0.727800  1
  H  H601  1  0.708600  0.961400  0.850600  1
  H  H602  1  0.291400  0.538600  0.350600  1
  H  H603  1  0.291400  0.038600  0.149400  1
  H  H604  1  0.708600  0.461400  0.649400  1
  H  H605  1  0.614300  0.950100  0.891200  1
  H  H606  1  0.385700  0.549900  0.391200  1
  H  H607  1  0.385700  0.049900  0.108800  1
  H  H608  1  0.614300  0.450100  0.608800  1
  H  H609  1  0.346100  0.771300  0.835700  1
  H  H610  1  0.653900  0.728700  0.335700  1
  H  H611  1  0.653900  0.228700  0.164300  1
  H  H612  1  0.346100  0.271300  0.664300  1
  H  H613  1  0.510500  0.754700  0.904300  1
  H  H614  1  0.489500  0.745300  0.404300  1
  H  H615  1  0.489500  0.245300  0.095700  1
  H  H616  1  0.510500  0.254700  0.595700  1
  H  H617  1  0.304000  0.844000  0.829700  1
  H  H618  1  0.696000  0.656000  0.329700  1
  H  H619  1  0.696000  0.156000  0.170300  1
  H  H620  1  0.304000  0.344000  0.670300  1
  H  H621  1  0.311900  0.877100  0.865000  1
  H  H622  1  0.688100  0.622900  0.365000  1
  H  H623  1  0.688100  0.122900  0.135000  1
  H  H624  1  0.311900  0.377100  0.635000  1
  H  H625  1  0.367300  0.889200  0.832500  1
  H  H626  1  0.632700  0.610800  0.332500  1
  H  H627  1  0.632700  0.110800  0.167500  1
  H  H628  1  0.367300  0.389200  0.667500  1
  H  H629  1  0.566900  0.825300  0.934500  1
  H  H630  1  0.433100  0.674700  0.434500  1
  H  H631  1  0.433100  0.174700  0.065500  1
  H  H632  1  0.566900  0.325300  0.565500  1
  H  H633  1  0.567200  0.874500  0.912300  1
  H  H634  1  0.432800  0.625500  0.412300  1
  H  H635  1  0.432800  0.125500  0.087700  1
  H  H636  1  0.567200  0.374500  0.587700  1
  H  H637  1  0.511900  0.862100  0.944800  1
  H  H638  1  0.488100  0.637900  0.444800  1
  H  H639  1  0.488100  0.137900  0.055200  1
  H  H640  1  0.511900  0.362100  0.555200  1
  H  H641  1  0.907400  0.507700  0.574900  1
  H  H642  1  0.092600  0.992300  0.074900  1
  H  H643  1  0.092600  0.492300  0.425100  1
  H  H644  1  0.907400  0.007700  0.925100  1
  H  H645  1  0.840100  0.492700  0.554400  1
  H  H646  1  0.159900  0.007300  0.054400  1
  H  H647  1  0.159900  0.507300  0.445600  1
  H  H648  1  0.840100  0.992700  0.945600  1
  H  H649  1  0.860000  0.607600  0.496000  1
  H  H650  1  0.140000  0.892400  0.996000  1
  H  H651  1  0.140000  0.392400  0.504000  1
  H  H652  1  0.860000  0.107600  0.004000  1
  H  H653  1  0.934300  0.606500  0.508400  1
  H  H654  1  0.065700  0.893500  0.008400  1
  H  H655  1  0.065700  0.393500  0.491600  1
  H  H656  1  0.934300  0.106500  0.991600  1
  H  H657  1  0.923900  0.478900  0.517300  1
  H  H658  1  0.076100  0.021100  0.017300  1
  H  H659  1  0.076100  0.521100  0.482700  1
  H  H660  1  0.923900  0.978900  0.982700  1
  H  H661  1  0.971600  0.529400  0.528000  1
  H  H662  1  0.028400  0.970600  0.028000  1
  H  H663  1  0.028400  0.470600  0.472000  1
  H  H664  1  0.971600  0.029400  0.972000  1
  H  H665  1  0.915600  0.539800  0.470600  1
  H  H666  1  0.084400  0.960200  0.970600  1
  H  H667  1  0.084400  0.460200  0.529400  1
  H  H668  1  0.915600  0.039800  0.029400  1
  H  H669  1  0.836600  0.523200  0.487900  1
  H  H670  1  0.163400  0.976800  0.987900  1
  H  H671  1  0.163400  0.476800  0.512100  1
  H  H672  1  0.836600  0.023200  0.012100  1
  H  H673  1  0.390200  0.453300  0.797700  1
  H  H674  1  0.609800  0.046700  0.297700  1
  H  H675  1  0.609800  0.546700  0.202300  1
  H  H676  1  0.390200  0.953300  0.702300  1
  H  H677  1  0.420800  0.445700  0.833000  1
  H  H678  1  0.579200  0.054300  0.333000  1
  H  H679  1  0.579200  0.554300  0.167000  1
  H  H680  1  0.420800  0.945700  0.667000  1
  H  H681  1  0.280500  0.495600  0.866600  1
  H  H682  1  0.719500  0.004400  0.366600  1
  H  H683  1  0.719500  0.504400  0.133400  1
  H  H684  1  0.280500  0.995600  0.633400  1
  H  H685  1  0.259100  0.528800  0.839000  1
  H  H686  1  0.740900  0.971200  0.339000  1
  H  H687  1  0.740900  0.471200  0.161000  1
  H  H688  1  0.259100  0.028800  0.661000  1
  H  H689  1  0.307700  0.396000  0.818800  1
  H  H690  1  0.692300  0.104000  0.318800  1
  H  H691  1  0.692300  0.604000  0.181200  1
  H  H692  1  0.307700  0.896000  0.681200  1
  H  H693  1  0.314000  0.420300  0.858300  1
  H  H694  1  0.686000  0.079700  0.358300  1
  H  H695  1  0.686000  0.579700  0.141700  1
  H  H696  1  0.314000  0.920300  0.641700  1
  H  H697  1  0.208600  0.449300  0.826400  1
  H  H698  1  0.791400  0.050700  0.326400  1
  H  H699  1  0.791400  0.550700  0.173600  1
  H  H700  1  0.208600  0.949300  0.673600  1
  H  H701  1  0.262800  0.471400  0.794800  1
  H  H702  1  0.737200  0.028600  0.294800  1
  H  H703  1  0.737200  0.528600  0.205200  1
  H  H704  1  0.262800  0.971400  0.705200  1
  Pd  Pd705  1  0.665600  0.950570  0.561380  1
  Pd  Pd706  1  0.334400  0.549430  0.061380  1
  Pd  Pd707  1  0.334400  0.049430  0.438620  1
  Pd  Pd708  1  0.665600  0.450570  0.938620  1
  Pd  Pd709  1  0.855540  0.589450  0.558430  1
  Pd  Pd710  1  0.144460  0.910550  0.058430  1
  Pd  Pd711  1  0.144460  0.410550  0.441570  1
  Pd  Pd712  1  0.855540  0.089450  0.941570  1
  Pd  Pd713  1  0.392480  0.526720  0.831200  1
  Pd  Pd714  1  0.607520  0.973280  0.331200  1
  Pd  Pd715  1  0.607520  0.473280  0.168800  1
  Pd  Pd716  1  0.392480  0.026720  0.668800  1
  Pd  Pd717  1  0.084150  0.642940  0.888050  1
  Pd  Pd718  1  0.915850  0.857060  0.388050  1
  Pd  Pd719  1  0.915850  0.357060  0.111950  1
  Pd  Pd720  1  0.084150  0.142940  0.611950  1
  Pd  Pd721  1  0.154110  0.033140  0.813000  1
  Pd  Pd722  1  0.845890  0.466860  0.313000  1
  Pd  Pd723  1  0.845890  0.966860  0.187000  1
  Pd  Pd724  1  0.154110  0.533140  0.687000  1
  Pd  Pd725  1  0.488990  0.911930  0.908690  1
  Pd  Pd726  1  0.511010  0.588070  0.408690  1
  Pd  Pd727  1  0.511010  0.088070  0.091310  1
  Pd  Pd728  1  0.488990  0.411930  0.591310  1
  Pd  Pd729  1  0.454090  0.925120  0.892400  1
  Pd  Pd730  1  0.545910  0.574880  0.392400  1
  Pd  Pd731  1  0.545910  0.074880  0.107600  1
  Pd  Pd732  1  0.454090  0.425120  0.607600  1
  C  C733  1  0.442500  0.942900  0.978800  1
  C  C734  1  0.557500  0.557100  0.478800  1
  C  C735  1  0.557500  0.057100  0.021200  1
  C  C736  1  0.442500  0.442900  0.521200  1
  C  C737  1  0.457000  0.990700  0.953900  1
  C  C738  1  0.543000  0.509300  0.453900  1
  C  C739  1  0.543000  0.009300  0.046100  1
  C  C740  1  0.457000  0.490700  0.546100  1
  C  C741  1  0.539900  0.925000  0.835800  1
  C  C742  1  0.460100  0.575000  0.335800  1
  C  C743  1  0.460100  0.075000  0.164200  1
  C  C744  1  0.539900  0.425000  0.664200  1
  C  C745  1  0.598000  0.931900  0.806700  1
  C  C746  1  0.402000  0.568100  0.306700  1
  C  C747  1  0.402000  0.068100  0.193300  1
  C  C748  1  0.598000  0.431900  0.693300  1
  C  C749  1  0.659000  0.944300  0.814700  1
  C  C750  1  0.341000  0.555700  0.314700  1
  C  C751  1  0.341000  0.055700  0.185300  1
  C  C752  1  0.659000  0.444300  0.685300  1
  C  C753  1  0.679900  0.948700  0.850000  1
  C  C754  1  0.320100  0.551300  0.350000  1
  C  C755  1  0.320100  0.051300  0.150000  1
  C  C756  1  0.679900  0.448700  0.650000  1
  C  C757  1  0.628000  0.936300  0.875500  1
  C  C758  1  0.372000  0.563700  0.375500  1
  C  C759  1  0.372000  0.063700  0.124500  1
  C  C760  1  0.628000  0.436300  0.624500  1
  C  C761  1  0.409500  0.824300  0.874700  1
  C  C762  1  0.590500  0.675700  0.374700  1
  C  C763  1  0.590500  0.175700  0.125300  1
  C  C764  1  0.409500  0.324300  0.625300  1
  C  C765  1  0.395000  0.779200  0.863500  1
  C  C766  1  0.605000  0.720800  0.363500  1
  C  C767  1  0.605000  0.220800  0.136500  1
  C  C768  1  0.395000  0.279200  0.636500  1
  C  C769  1  0.442000  0.745000  0.872200  1
  C  C770  1  0.558000  0.755000  0.372200  1
  C  C771  1  0.558000  0.255000  0.127800  1
  C  C772  1  0.442000  0.245000  0.627800  1
  C  C773  1  0.495600  0.760000  0.898600  1
  C  C774  1  0.504400  0.740000  0.398600  1
  C  C775  1  0.504400  0.240000  0.101400  1
  C  C776  1  0.495600  0.260000  0.601400  1
  C  C777  1  0.506900  0.809200  0.907100  1
  C  C778  1  0.493100  0.690800  0.407100  1
  C  C779  1  0.493100  0.190800  0.092900  1
  C  C780  1  0.506900  0.309200  0.592900  1
  C  C781  1  0.362600  0.862500  0.861800  1
  C  C782  1  0.637400  0.637500  0.361800  1
  C  C783  1  0.637400  0.137500  0.138200  1
  C  C784  1  0.362600  0.362500  0.638200  1
  C  C785  1  0.567600  0.830900  0.929700  1
  C  C786  1  0.432400  0.669100  0.429700  1
  C  C787  1  0.432400  0.169100  0.070300  1
  C  C788  1  0.567600  0.330900  0.570300  1
  C  C789  1  0.914000  0.507000  0.531700  1
  C  C790  1  0.086000  0.993000  0.031700  1
  C  C791  1  0.086000  0.493000  0.468300  1
  C  C792  1  0.914000  0.007000  0.968300  1
  C  C793  1  0.944000  0.549500  0.506600  1
  C  C794  1  0.056000  0.950500  0.006600  1
  C  C795  1  0.056000  0.450500  0.493400  1
  C  C796  1  0.944000  0.049500  0.993400  1
  C  C797  1  0.616100  0.030400  0.525400  1
  C  C798  1  0.383900  0.469600  0.025400  1
  C  C799  1  0.383900  0.969600  0.474600  1
  C  C800  1  0.616100  0.530400  0.974600  1
  C  C801  1  0.588800  0.985600  0.501800  1
  C  C802  1  0.411200  0.514400  0.001800  1
  C  C803  1  0.411200  0.014400  0.498200  1
  C  C804  1  0.588800  0.485600  0.998200  1
  C  C805  1  0.309700  0.435400  0.817600  1
  C  C806  1  0.690300  0.064600  0.317600  1
  C  C807  1  0.690300  0.564600  0.182400  1
  C  C808  1  0.309700  0.935400  0.682400  1
  C  C809  1  0.268200  0.455400  0.844600  1
  C  C810  1  0.731800  0.044600  0.344600  1
  C  C811  1  0.731800  0.544600  0.155400  1
  C  C812  1  0.268200  0.955400  0.655400  1
  C  C813  1  0.129000  0.556800  0.921400  1
  C  C814  1  0.871000  0.943200  0.421400  1
  C  C815  1  0.871000  0.443200  0.078600  1
  C  C816  1  0.129000  0.056800  0.578600  1
  C  C817  1  0.193100  0.595300  0.923500  1
  C  C818  1  0.806900  0.904700  0.423500  1
  C  C819  1  0.806900  0.404700  0.076500  1
  C  C820  1  0.193100  0.095300  0.576500  1
  C  C821  1  0.225800  0.131000  0.806600  1
  C  C822  1  0.774200  0.369000  0.306600  1
  C  C823  1  0.774200  0.869000  0.193400  1
  C  C824  1  0.225800  0.631000  0.693400  1
  C  C825  1  0.285600  0.098400  0.802000  1
  C  C826  1  0.714400  0.401600  0.302000  1
  C  C827  1  0.714400  0.901600  0.198000  1
  C  C828  1  0.285600  0.598400  0.698000  1
  C  C829  1  0.028500  0.021600  0.765500  1
  C  C830  1  0.971500  0.478400  0.265500  1
  C  C831  1  0.971500  0.978400  0.234500  1
  C  C832  1  0.028500  0.521600  0.734500  1
  C  C833  1  0.956900  0.009500  0.754800  1
  C  C834  1  0.043100  0.490500  0.254800  1
  C  C835  1  0.043100  0.990500  0.245200  1
  C  C836  1  0.956900  0.509500  0.745200  1
  C  C837  1  0.904200  0.993100  0.779500  1
  C  C838  1  0.095800  0.506900  0.279500  1
  C  C839  1  0.095800  0.006900  0.220500  1
  C  C840  1  0.904200  0.493100  0.720500  1
  C  C841  1  0.924700  0.989000  0.814900  1
  C  C842  1  0.075300  0.511000  0.314900  1
  C  C843  1  0.075300  0.011000  0.185100  1
  C  C844  1  0.924700  0.489000  0.685100  1
  C  C845  1  0.997400  0.001300  0.824100  1
  C  C846  1  0.002600  0.498700  0.324100  1
  C  C847  1  0.002600  0.998700  0.175900  1
  C  C848  1  0.997400  0.501300  0.675900  1
  C  C849  1  0.640000  0.942300  0.639900  1
  C  C850  1  0.360000  0.557700  0.139900  1
  C  C851  1  0.360000  0.057700  0.360100  1
  C  C852  1  0.640000  0.442300  0.860100  1
  C  C853  1  0.655600  0.946400  0.675600  1
  C  C854  1  0.344400  0.553600  0.175600  1
  C  C855  1  0.344400  0.053600  0.324400  1
  C  C856  1  0.655600  0.446400  0.824400  1
  C  C857  1  0.726100  0.962900  0.686600  1
  C  C858  1  0.273900  0.537100  0.186600  1
  C  C859  1  0.273900  0.037100  0.313400  1
  C  C860  1  0.726100  0.462900  0.813400  1
  C  C861  1  0.777300  0.975300  0.660800  1
  C  C862  1  0.222700  0.524700  0.160800  1
  C  C863  1  0.222700  0.024700  0.339200  1
  C  C864  1  0.777300  0.475300  0.839200  1
  C  C865  1  0.757500  0.971800  0.625100  1
  C  C866  1  0.242500  0.528200  0.125100  1
  C  C867  1  0.242500  0.028200  0.374900  1
  C  C868  1  0.757500  0.471800  0.874900  1
  C  C869  1  0.828500  0.979800  0.768600  1
  C  C870  1  0.171500  0.520200  0.268600  1
  C  C871  1  0.171500  0.020200  0.231400  1
  C  C872  1  0.828500  0.479800  0.731400  1
  C  C873  1  0.745000  0.966500  0.725000  1
  C  C874  1  0.255000  0.533500  0.225000  1
  C  C875  1  0.255000  0.033500  0.275000  1
  C  C876  1  0.745000  0.466500  0.775000  1
  C  C877  1  0.711700  0.959200  0.782600  1
  C  C878  1  0.288300  0.540800  0.282600  1
  C  C879  1  0.288300  0.040800  0.217400  1
  C  C880  1  0.711700  0.459200  0.717400  1
  C  C881  1  0.934600  0.618000  0.864500  1
  C  C882  1  0.065400  0.882000  0.364500  1
  C  C883  1  0.065400  0.382000  0.135500  1
  C  C884  1  0.934600  0.118000  0.635500  1
  C  C885  1  0.875300  0.608100  0.841700  1
  C  C886  1  0.124700  0.891900  0.341700  1
  C  C887  1  0.124700  0.391900  0.158300  1
  C  C888  1  0.875300  0.108100  0.658300  1
  C  C889  1  0.886600  0.612200  0.805000  1
  C  C890  1  0.113400  0.887800  0.305000  1
  C  C891  1  0.113400  0.387800  0.195000  1
  C  C892  1  0.886600  0.112200  0.695000  1
  C  C893  1  0.957100  0.629100  0.792300  1
  C  C894  1  0.042900  0.870900  0.292300  1
  C  C895  1  0.042900  0.370900  0.207700  1
  C  C896  1  0.957100  0.129100  0.707700  1
  C  C897  1  0.011600  0.638000  0.817000  1
  C  C898  1  0.988400  0.862000  0.317000  1
  C  C899  1  0.988400  0.362000  0.183000  1
  C  C900  1  0.011600  0.138000  0.683000  1
  C  C901  1  0.507300  0.537500  0.776700  1
  C  C902  1  0.492700  0.962500  0.276700  1
  C  C903  1  0.492700  0.462500  0.223300  1
  C  C904  1  0.507300  0.037500  0.723300  1
  C  C905  1  0.576400  0.548300  0.761400  1
  C  C906  1  0.423600  0.951700  0.261400  1
  C  C907  1  0.423600  0.451700  0.238600  1
  C  C908  1  0.576400  0.048300  0.738600  1
  C  C909  1  0.632700  0.564200  0.783900  1
  C  C910  1  0.367300  0.935800  0.283900  1
  C  C911  1  0.367300  0.435800  0.216100  1
  C  C912  1  0.632700  0.064200  0.716100  1
  C  C913  1  0.619600  0.567600  0.820400  1
  C  C914  1  0.380400  0.932400  0.320400  1
  C  C915  1  0.380400  0.432400  0.179600  1
  C  C916  1  0.619600  0.067600  0.679600  1
  C  C917  1  0.550400  0.556500  0.833200  1
  C  C918  1  0.449600  0.943500  0.333200  1
  C  C919  1  0.449600  0.443500  0.166800  1
  C  C920  1  0.550400  0.056500  0.666800  1
  C  C921  1  0.762200  0.579700  0.623500  1
  C  C922  1  0.237800  0.920300  0.123500  1
  C  C923  1  0.237800  0.420300  0.376500  1
  C  C924  1  0.762200  0.079700  0.876500  1
  C  C925  1  0.743800  0.579500  0.659300  1
  C  C926  1  0.256200  0.920500  0.159300  1
  C  C927  1  0.256200  0.420500  0.340700  1
  C  C928  1  0.743800  0.079500  0.840700  1
  C  C929  1  0.799400  0.589400  0.684100  1
  C  C930  1  0.200600  0.910600  0.184100  1
  C  C931  1  0.200600  0.410600  0.315900  1
  C  C932  1  0.799400  0.089400  0.815900  1
  C  C933  1  0.870700  0.598700  0.671300  1
  C  C934  1  0.129300  0.901300  0.171300  1
  C  C935  1  0.129300  0.401300  0.328700  1
  C  C936  1  0.870700  0.098700  0.828700  1
  C  C937  1  0.882100  0.597600  0.635900  1
  C  C938  1  0.117900  0.902400  0.135900  1
  C  C939  1  0.117900  0.402400  0.364100  1
  C  C940  1  0.882100  0.097600  0.864100  1
  C  C941  1  0.826000  0.600700  0.779700  1
  C  C942  1  0.174000  0.899300  0.279700  1
  C  C943  1  0.174000  0.399300  0.220300  1
  C  C944  1  0.826000  0.100700  0.720300  1
  C  C945  1  0.707700  0.577000  0.769800  1
  C  C946  1  0.292300  0.923000  0.269800  1
  C  C947  1  0.292300  0.423000  0.230200  1
  C  C948  1  0.707700  0.077000  0.730200  1
  C  C949  1  0.784500  0.590200  0.723100  1
  C  C950  1  0.215500  0.909800  0.223100  1
  C  C951  1  0.215500  0.409800  0.276900  1
  C  C952  1  0.784500  0.090200  0.776900  1
  C  C953  1  0.756000  0.660600  0.542100  1
  C  C954  1  0.244000  0.839400  0.042100  1
  C  C955  1  0.244000  0.339400  0.457900  1
  C  C956  1  0.756000  0.160600  0.957900  1
  C  C957  1  0.730900  0.705600  0.541700  1
  C  C958  1  0.269100  0.794400  0.041700  1
  C  C959  1  0.269100  0.294400  0.458300  1
  C  C960  1  0.730900  0.205600  0.958300  1
  C  C961  1  0.775800  0.746400  0.552100  1
  C  C962  1  0.224200  0.753600  0.052100  1
  C  C963  1  0.224200  0.253600  0.447900  1
  C  C964  1  0.775800  0.246400  0.947900  1
  C  C965  1  0.847100  0.742500  0.562400  1
  C  C966  1  0.152900  0.757500  0.062400  1
  C  C967  1  0.152900  0.257500  0.437600  1
  C  C968  1  0.847100  0.242500  0.937600  1
  C  C969  1  0.868400  0.696700  0.563500  1
  C  C970  1  0.131600  0.803300  0.063500  1
  C  C971  1  0.131600  0.303300  0.436500  1
  C  C972  1  0.868400  0.196700  0.936500  1
  C  C973  1  0.657200  0.843500  0.564600  1
  C  C974  1  0.342800  0.656500  0.064600  1
  C  C975  1  0.342800  0.156500  0.435400  1
  C  C976  1  0.657200  0.343500  0.935400  1
  C  C977  1  0.678000  0.798800  0.562100  1
  C  C978  1  0.322000  0.701200  0.062100  1
  C  C979  1  0.322000  0.201200  0.437900  1
  C  C980  1  0.678000  0.298800  0.937900  1
  C  C981  1  0.748600  0.795100  0.553300  1
  C  C982  1  0.251400  0.704900  0.053300  1
  C  C983  1  0.251400  0.204900  0.446700  1
  C  C984  1  0.748600  0.295100  0.946700  1
  C  C985  1  0.796100  0.837000  0.545300  1
  C  C986  1  0.203900  0.663000  0.045300  1
  C  C987  1  0.203900  0.163000  0.454700  1
  C  C988  1  0.796100  0.337000  0.954700  1
  C  C989  1  0.771400  0.883000  0.547500  1
  C  C990  1  0.228600  0.617000  0.047500  1
  C  C991  1  0.228600  0.117000  0.452500  1
  C  C992  1  0.771400  0.383000  0.952500  1
  C  C993  1  0.709700  0.616000  0.529700  1
  C  C994  1  0.290300  0.884000  0.029700  1
  C  C995  1  0.290300  0.384000  0.470300  1
  C  C996  1  0.709700  0.116000  0.970300  1
  C  C997  1  0.943700  0.692100  0.575100  1
  C  C998  1  0.056300  0.807900  0.075100  1
  C  C999  1  0.056300  0.307900  0.424900  1
  C  C1000  1  0.943700  0.192100  0.924900  1
  C  C1001  1  0.819000  0.926800  0.537900  1
  C  C1002  1  0.181000  0.573200  0.037900  1
  C  C1003  1  0.181000  0.073200  0.462100  1
  C  C1004  1  0.819000  0.426800  0.962100  1
  C  C1005  1  0.578600  0.846800  0.575000  1
  C  C1006  1  0.421400  0.653200  0.075000  1
  C  C1007  1  0.421400  0.153200  0.425000  1
  C  C1008  1  0.578600  0.346800  0.925000  1
  C  C1009  1  0.154500  0.734400  0.855900  1
  C  C1010  1  0.845500  0.765600  0.355900  1
  C  C1011  1  0.845500  0.265600  0.144100  1
  C  C1012  1  0.154500  0.234400  0.644100  1
  C  C1013  1  0.166500  0.781600  0.845800  1
  C  C1014  1  0.833500  0.718400  0.345800  1
  C  C1015  1  0.833500  0.218400  0.154200  1
  C  C1016  1  0.166500  0.281600  0.654200  1
  C  C1017  1  0.124900  0.814100  0.860500  1
  C  C1018  1  0.875100  0.685900  0.360500  1
  C  C1019  1  0.875100  0.185900  0.139500  1
  C  C1020  1  0.124900  0.314100  0.639500  1
  C  C1021  1  0.071800  0.794800  0.884800  1
  C  C1022  1  0.928200  0.705200  0.384800  1
  C  C1023  1  0.928200  0.205200  0.115200  1
  C  C1024  1  0.071800  0.294800  0.615200  1
  C  C1025  1  0.061100  0.746100  0.893000  1
  C  C1026  1  0.938900  0.753900  0.393000  1
  C  C1027  1  0.938900  0.253900  0.107000  1
  C  C1028  1  0.061100  0.246100  0.607000  1
  C  C1029  1  0.156500  0.927100  0.805000  1
  C  C1030  1  0.843500  0.572900  0.305000  1
  C  C1031  1  0.843500  0.072900  0.195000  1
  C  C1032  1  0.156500  0.427100  0.695000  1
  C  C1033  1  0.148800  0.878600  0.814600  1
  C  C1034  1  0.851200  0.621400  0.314600  1
  C  C1035  1  0.851200  0.121400  0.185400  1
  C  C1036  1  0.148800  0.378600  0.685400  1
  C  C1037  1  0.135000  0.865800  0.849900  1
  C  C1038  1  0.865000  0.634200  0.349900  1
  C  C1039  1  0.865000  0.134200  0.150100  1
  C  C1040  1  0.135000  0.365800  0.650100  1
  C  C1041  1  0.132800  0.901800  0.875000  1
  C  C1042  1  0.867200  0.598200  0.375000  1
  C  C1043  1  0.867200  0.098200  0.125000  1
  C  C1044  1  0.132800  0.401800  0.625000  1
  C  C1045  1  0.143200  0.950400  0.864100  1
  C  C1046  1  0.856800  0.549600  0.364100  1
  C  C1047  1  0.856800  0.049600  0.135900  1
  C  C1048  1  0.143200  0.450400  0.635900  1
  C  C1049  1  0.205500  0.699400  0.841200  1
  C  C1050  1  0.794500  0.800600  0.341200  1
  C  C1051  1  0.794500  0.300600  0.158800  1
  C  C1052  1  0.205500  0.199400  0.658800  1
  C  C1053  1  0.003800  0.723800  0.918300  1
  C  C1054  1  0.996200  0.776200  0.418300  1
  C  C1055  1  0.996200  0.276200  0.081700  1
  C  C1056  1  0.003800  0.223800  0.581700  1
  C  C1057  1  0.167700  0.943100  0.766300  1
  C  C1058  1  0.832300  0.556900  0.266300  1
  C  C1059  1  0.832300  0.056900  0.233700  1
  C  C1060  1  0.167700  0.443100  0.733700  1
  C  C1061  1  0.144500  0.991900  0.891200  1
  C  C1062  1  0.855500  0.508100  0.391200  1
  C  C1063  1  0.855500  0.008100  0.108800  1
  C  C1064  1  0.144500  0.491900  0.608800  1
  C  C1065  1  0.417200  0.612900  0.880100  1
  C  C1066  1  0.582800  0.887100  0.380100  1
  C  C1067  1  0.582800  0.387100  0.119900  1
  C  C1068  1  0.417200  0.112900  0.619900  1
  C  C1069  1  0.429100  0.660900  0.888400  1
  C  C1070  1  0.570900  0.839100  0.388400  1
  C  C1071  1  0.570900  0.339100  0.111600  1
  C  C1072  1  0.429100  0.160900  0.611600  1
  C  C1073  1  0.418500  0.696100  0.863900  1
  C  C1074  1  0.581500  0.803900  0.363900  1
  C  C1075  1  0.581500  0.303900  0.136100  1
  C  C1076  1  0.418500  0.196100  0.636100  1
  C  C1077  1  0.395900  0.680500  0.829400  1
  C  C1078  1  0.604100  0.819500  0.329400  1
  C  C1079  1  0.604100  0.319500  0.170600  1
  C  C1080  1  0.395900  0.180500  0.670600  1
  C  C1081  1  0.385400  0.631400  0.821700  1
  C  C1082  1  0.614600  0.868600  0.321700  1
  C  C1083  1  0.614600  0.368600  0.178300  1
  C  C1084  1  0.385400  0.131400  0.678300  1
  C  C1085  1  0.425700  0.574900  0.907300  1
  C  C1086  1  0.574300  0.925100  0.407300  1
  C  C1087  1  0.574300  0.425100  0.092700  1
  C  C1088  1  0.425700  0.074900  0.592700  1
  C  C1089  1  0.364900  0.614200  0.784900  1
  C  C1090  1  0.635100  0.885800  0.284900  1
  C  C1091  1  0.635100  0.385800  0.215100  1
  C  C1092  1  0.364900  0.114200  0.715100  1
  C  C1093  1  0.656300  0.832100  0.760400  1
  C  C1094  1  0.343700  0.667900  0.260400  1
  C  C1095  1  0.343700  0.167900  0.239600  1
  C  C1096  1  0.656300  0.332100  0.739600  1
  C  C1097  1  0.718400  0.847600  0.780400  1
  C  C1098  1  0.281600  0.652400  0.280400  1
  C  C1099  1  0.281600  0.152400  0.219600  1
  C  C1100  1  0.718400  0.347600  0.719600  1
  C  C1101  1  0.776900  0.858500  0.756600  1
  C  C1102  1  0.223100  0.641500  0.256600  1
  C  C1103  1  0.223100  0.141500  0.243400  1
  C  C1104  1  0.776900  0.358500  0.743400  1
  C  C1105  1  0.753400  0.850800  0.722200  1
  C  C1106  1  0.246600  0.649200  0.222200  1
  C  C1107  1  0.246600  0.149200  0.277800  1
  C  C1108  1  0.753400  0.350800  0.777800  1
  C  C1109  1  0.677100  0.833800  0.723000  1
  C  C1110  1  0.322900  0.666200  0.223000  1
  C  C1111  1  0.322900  0.166200  0.277000  1
  C  C1112  1  0.677100  0.333800  0.777000  1
  C  C1113  1  0.595700  0.806600  0.772300  1
  C  C1114  1  0.404300  0.693400  0.272300  1
  C  C1115  1  0.404300  0.193400  0.227700  1
  C  C1116  1  0.595700  0.306600  0.727700  1
  C  C1117  1  0.590000  0.805600  0.809400  1
  C  C1118  1  0.410000  0.694400  0.309400  1
  C  C1119  1  0.410000  0.194400  0.190600  1
  C  C1120  1  0.590000  0.305600  0.690600  1
  C  C1121  1  0.657600  0.815100  0.831600  1
  C  C1122  1  0.342400  0.684900  0.331600  1
  C  C1123  1  0.342400  0.184900  0.168400  1
  C  C1124  1  0.657600  0.315100  0.668400  1
  C  C1125  1  0.721600  0.835300  0.814500  1
  C  C1126  1  0.278400  0.664700  0.314500  1
  C  C1127  1  0.278400  0.164700  0.185500  1
  C  C1128  1  0.721600  0.335300  0.685500  1
  C  C1129  1  0.791800  0.844300  0.827800  1
  C  C1130  1  0.208200  0.655700  0.327800  1
  C  C1131  1  0.208200  0.155700  0.172200  1
  C  C1132  1  0.791800  0.344300  0.672200  1
  C  C1133  1  0.855300  0.857100  0.804000  1
  C  C1134  1  0.144700  0.642900  0.304000  1
  C  C1135  1  0.144700  0.142900  0.196000  1
  C  C1136  1  0.855300  0.357100  0.696000  1
  C  C1137  1  0.850300  0.862200  0.767000  1
  C  C1138  1  0.149700  0.637800  0.267000  1
  C  C1139  1  0.149700  0.137800  0.233000  1
  C  C1140  1  0.850300  0.362200  0.733000  1
  C  C1141  1  0.895100  0.864100  0.737300  1
  C  C1142  1  0.104900  0.635900  0.237300  1
  C  C1143  1  0.104900  0.135900  0.262700  1
  C  C1144  1  0.895100  0.364100  0.762700  1
  C  C1145  1  0.872300  0.858500  0.699100  1
  C  C1146  1  0.127700  0.641500  0.199100  1
  C  C1147  1  0.127700  0.141500  0.300900  1
  C  C1148  1  0.872300  0.358500  0.800900  1
  C  C1149  1  0.797300  0.848700  0.694500  1
  C  C1150  1  0.202700  0.651300  0.194500  1
  C  C1151  1  0.202700  0.151300  0.305500  1
  C  C1152  1  0.797300  0.348700  0.805500  1
  C  C1153  1  0.759900  0.830400  0.664000  1
  C  C1154  1  0.240100  0.669600  0.164000  1
  C  C1155  1  0.240100  0.169600  0.336000  1
  C  C1156  1  0.759900  0.330400  0.836000  1
  C  C1157  1  0.681600  0.810100  0.664100  1
  C  C1158  1  0.318400  0.689900  0.164100  1
  C  C1159  1  0.318400  0.189900  0.335900  1
  C  C1160  1  0.681600  0.310100  0.835900  1
  C  C1161  1  0.645200  0.814300  0.695900  1
  C  C1162  1  0.354800  0.685700  0.195900  1
  C  C1163  1  0.354800  0.185700  0.304100  1
  C  C1164  1  0.645200  0.314300  0.804100  1
  C  C1165  1  0.570300  0.782000  0.704200  1
  C  C1166  1  0.429700  0.718000  0.204200  1
  C  C1167  1  0.429700  0.218000  0.295800  1
  C  C1168  1  0.570300  0.282000  0.795800  1
  C  C1169  1  0.553300  0.786700  0.742900  1
  C  C1170  1  0.446700  0.713300  0.242900  1
  C  C1171  1  0.446700  0.213300  0.257100  1
  C  C1172  1  0.553300  0.286700  0.757100  1
  C  C1173  1  0.851100  0.729300  0.734800  1
  C  C1174  1  0.148900  0.770700  0.234800  1
  C  C1175  1  0.148900  0.270700  0.265200  1
  C  C1176  1  0.851100  0.229300  0.765200  1
  C  C1177  1  0.837300  0.724000  0.700700  1
  C  C1178  1  0.162700  0.776000  0.200700  1
  C  C1179  1  0.162700  0.276000  0.299300  1
  C  C1180  1  0.837300  0.224000  0.799300  1
  C  C1181  1  0.766000  0.709700  0.685900  1
  C  C1182  1  0.234000  0.790300  0.185900  1
  C  C1183  1  0.234000  0.290300  0.314100  1
  C  C1184  1  0.766000  0.209700  0.814100  1
  C  C1185  1  0.703400  0.696300  0.711900  1
  C  C1186  1  0.296600  0.803700  0.211900  1
  C  C1187  1  0.296600  0.303700  0.288100  1
  C  C1188  1  0.703400  0.196300  0.788100  1
  C  C1189  1  0.722800  0.701500  0.747500  1
  C  C1190  1  0.277200  0.798500  0.247500  1
  C  C1191  1  0.277200  0.298500  0.252500  1
  C  C1192  1  0.722800  0.201500  0.752500  1
  C  C1193  1  0.787500  0.715400  0.760300  1
  C  C1194  1  0.212500  0.784600  0.260300  1
  C  C1195  1  0.212500  0.284600  0.239700  1
  C  C1196  1  0.787500  0.215400  0.739700  1
  C  C1197  1  0.808100  0.721000  0.798000  1
  C  C1198  1  0.191900  0.779000  0.298000  1
  C  C1199  1  0.191900  0.279000  0.202000  1
  C  C1200  1  0.808100  0.221000  0.702000  1
  C  C1201  1  0.744600  0.709600  0.822500  1
  C  C1202  1  0.255400  0.790400  0.322500  1
  C  C1203  1  0.255400  0.290400  0.177500  1
  C  C1204  1  0.744600  0.209600  0.677500  1
  C  C1205  1  0.681600  0.697300  0.808400  1
  C  C1206  1  0.318400  0.802700  0.308400  1
  C  C1207  1  0.318400  0.302700  0.191600  1
  C  C1208  1  0.681600  0.197300  0.691600  1
  C  C1209  1  0.666400  0.689300  0.771600  1
  C  C1210  1  0.333600  0.810700  0.271600  1
  C  C1211  1  0.333600  0.310700  0.228400  1
  C  C1212  1  0.666400  0.189300  0.728400  1
  C  C1213  1  0.916800  0.746600  0.751000  1
  C  C1214  1  0.083200  0.753400  0.251000  1
  C  C1215  1  0.083200  0.253400  0.249000  1
  C  C1216  1  0.916800  0.246600  0.749000  1
  C  C1217  1  0.875500  0.738700  0.812400  1
  C  C1218  1  0.124500  0.761300  0.312400  1
  C  C1219  1  0.124500  0.261300  0.187600  1
  C  C1220  1  0.875500  0.238700  0.687600  1
  C  C1221  1  0.644000  0.683900  0.698300  1
  C  C1222  1  0.356000  0.816100  0.198300  1
  C  C1223  1  0.356000  0.316100  0.301700  1
  C  C1224  1  0.644000  0.183900  0.801700  1
  C  C1225  1  0.594700  0.672100  0.758500  1
  C  C1226  1  0.405300  0.827900  0.258500  1
  C  C1227  1  0.405300  0.327900  0.241500  1
  C  C1228  1  0.594700  0.172100  0.741500  1
  C  C1229  1  0.001800  0.771600  0.800700  1
  C  C1230  1  0.998200  0.728400  0.300700  1
  C  C1231  1  0.998200  0.228400  0.199300  1
  C  C1232  1  0.001800  0.271600  0.699300  1
  C  C1233  1  0.502900  0.641200  0.707700  1
  C  C1234  1  0.497100  0.858800  0.207700  1
  C  C1235  1  0.497100  0.358800  0.292300  1
  C  C1236  1  0.502900  0.141200  0.792300  1
  C  C1237  1  0.339900  0.969200  0.920400  1
  C  C1238  1  0.660100  0.530800  0.420400  1
  C  C1239  1  0.660100  0.030800  0.079600  1
  C  C1240  1  0.339900  0.469200  0.579600  1
  C  C1241  1  0.413000  0.005900  0.929600  1
  C  C1242  1  0.587000  0.494100  0.429600  1
  C  C1243  1  0.587000  0.994100  0.070400  1
  C  C1244  1  0.413000  0.505900  0.570400  1
  C  C1245  1  0.522900  0.928100  0.821900  1
  C  C1246  1  0.477100  0.571900  0.321900  1
  C  C1247  1  0.477100  0.071900  0.178100  1
  C  C1248  1  0.522900  0.428100  0.678100  1
  C  C1249  1  0.577300  0.937300  0.796800  1
  C  C1250  1  0.422700  0.562700  0.296800  1
  C  C1251  1  0.422700  0.062700  0.203200  1
  C  C1252  1  0.577300  0.437300  0.703200  1
  C  C1253  1  0.648000  0.951900  0.805900  1
  C  C1254  1  0.352000  0.548100  0.305900  1
  C  C1255  1  0.352000  0.048100  0.194100  1
  C  C1256  1  0.648000  0.451900  0.694100  1
  C  C1257  1  0.660400  0.954400  0.841900  1
  C  C1258  1  0.339600  0.545600  0.341900  1
  C  C1259  1  0.339600  0.045600  0.158100  1
  C  C1260  1  0.660400  0.454400  0.658100  1
  C  C1261  1  0.603200  0.946800  0.866300  1
  C  C1262  1  0.396800  0.553200  0.366300  1
  C  C1263  1  0.396800  0.053200  0.133700  1
  C  C1264  1  0.603200  0.446800  0.633700  1
  C  C1265  1  0.388800  0.829600  0.862700  1
  C  C1266  1  0.611200  0.670400  0.362700  1
  C  C1267  1  0.611200  0.170400  0.137300  1
  C  C1268  1  0.388800  0.329600  0.637300  1
  C  C1269  1  0.379100  0.783200  0.854100  1
  C  C1270  1  0.620900  0.716800  0.354100  1
  C  C1271  1  0.620900  0.216800  0.145900  1
  C  C1272  1  0.379100  0.283200  0.645900  1
  C  C1273  1  0.418800  0.751300  0.872800  1
  C  C1274  1  0.581200  0.748700  0.372800  1
  C  C1275  1  0.581200  0.248700  0.127200  1
  C  C1276  1  0.418800  0.251300  0.627200  1
  C  C1277  1  0.476800  0.773300  0.894300  1
  C  C1278  1  0.523200  0.726700  0.394300  1
  C  C1279  1  0.523200  0.226700  0.105700  1
  C  C1280  1  0.476800  0.273300  0.605700  1
  C  C1281  1  0.483000  0.823000  0.900200  1
  C  C1282  1  0.517000  0.677000  0.400200  1
  C  C1283  1  0.517000  0.177000  0.099800  1
  C  C1284  1  0.483000  0.323000  0.599800  1
  C  C1285  1  0.338300  0.863000  0.845900  1
  C  C1286  1  0.661700  0.637000  0.345900  1
  C  C1287  1  0.661700  0.137000  0.154100  1
  C  C1288  1  0.338300  0.363000  0.654100  1
  C  C1289  1  0.537000  0.848300  0.925000  1
  C  C1290  1  0.463000  0.651700  0.425000  1
  C  C1291  1  0.463000  0.151700  0.075000  1
  C  C1292  1  0.537000  0.348300  0.575000  1
  C  C1293  1  0.922000  0.513100  0.523900  1
  C  C1294  1  0.078000  0.986900  0.023900  1
  C  C1295  1  0.078000  0.486900  0.476100  1
  C  C1296  1  0.922000  0.013100  0.976100  1
  C  C1297  1  0.886600  0.538800  0.492800  1
  C  C1298  1  0.113400  0.961200  0.992800  1
  C  C1299  1  0.113400  0.461200  0.507200  1
  C  C1300  1  0.886600  0.038800  0.007200  1
  C  C1301  1  0.315700  0.427000  0.832200  1
  C  C1302  1  0.684300  0.073000  0.332200  1
  C  C1303  1  0.684300  0.573000  0.167800  1
  C  C1304  1  0.315700  0.927000  0.667800  1
  C  C1305  1  0.259000  0.463000  0.820600  1
  C  C1306  1  0.741000  0.037000  0.320600  1
  C  C1307  1  0.741000  0.537000  0.179400  1
  C  C1308  1  0.259000  0.963000  0.679400  1
  N  N1309  1  0.417800  0.904000  0.949600  1
  N  N1310  1  0.582200  0.596000  0.449600  1
  N  N1311  1  0.582200  0.096000  0.050400  1
  N  N1312  1  0.417800  0.404000  0.550400  1
  N  N1313  1  0.511000  0.982800  0.926900  1
  N  N1314  1  0.489000  0.517200  0.426900  1
  N  N1315  1  0.489000  0.017200  0.073100  1
  N  N1316  1  0.511000  0.482800  0.573100  1
  N  N1317  1  0.563100  0.924200  0.867400  1
  N  N1318  1  0.436900  0.575800  0.367400  1
  N  N1319  1  0.436900  0.075800  0.132600  1
  N  N1320  1  0.563100  0.424200  0.632600  1
  N  N1321  1  0.466700  0.841300  0.894700  1
  N  N1322  1  0.533300  0.658700  0.394700  1
  N  N1323  1  0.533300  0.158700  0.105300  1
  N  N1324  1  0.466700  0.341300  0.605300  1
  N  N1325  1  0.900000  0.529500  0.566200  1
  N  N1326  1  0.100000  0.970500  0.066200  1
  N  N1327  1  0.100000  0.470500  0.433800  1
  N  N1328  1  0.900000  0.029500  0.933800  1
  N  N1329  1  0.883000  0.580200  0.503700  1
  N  N1330  1  0.117000  0.919800  0.003700  1
  N  N1331  1  0.117000  0.419800  0.496300  1
  N  N1332  1  0.883000  0.080200  0.996300  1
  N  N1333  1  0.621400  0.013100  0.562700  1
  N  N1334  1  0.378600  0.486900  0.062700  1
  N  N1335  1  0.378600  0.986900  0.437300  1
  N  N1336  1  0.621400  0.513100  0.937300  1
  N  N1337  1  0.642600  0.950700  0.508000  1
  N  N1338  1  0.357400  0.549300  0.008000  1
  N  N1339  1  0.357400  0.049300  0.492000  1
  N  N1340  1  0.642600  0.450700  0.992000  1
  N  N1341  1  0.077800  0.569600  0.893800  1
  N  N1342  1  0.922200  0.930400  0.393800  1
  N  N1343  1  0.922200  0.430400  0.106200  1
  N  N1344  1  0.077800  0.069600  0.606200  1
  N  N1345  1  0.162200  0.646200  0.926300  1
  N  N1346  1  0.837800  0.853800  0.426300  1
  N  N1347  1  0.837800  0.353800  0.073700  1
  N  N1348  1  0.162200  0.146200  0.573700  1
  N  N1349  1  0.158000  0.102800  0.796100  1
  N  N1350  1  0.842000  0.397200  0.296100  1
  N  N1351  1  0.842000  0.897200  0.203900  1
  N  N1352  1  0.158000  0.602800  0.703900  1
  N  N1353  1  0.260700  0.053100  0.823400  1
  N  N1354  1  0.739300  0.446900  0.323400  1
  N  N1355  1  0.739300  0.946900  0.176600  1
  N  N1356  1  0.260700  0.553100  0.676600  1
  N  N1357  1  0.381500  0.456400  0.808400  1
  N  N1358  1  0.618500  0.043600  0.308400  1
  N  N1359  1  0.618500  0.543600  0.191600  1
  N  N1360  1  0.381500  0.956400  0.691600  1
  N  N1361  1  0.291000  0.509500  0.853500  1
  N  N1362  1  0.709000  0.990500  0.353500  1
  N  N1363  1  0.709000  0.490500  0.146500  1
  N  N1364  1  0.291000  0.009500  0.646500  1
  N  N1365  1  0.047500  0.017500  0.799600  1
  N  N1366  1  0.952500  0.482500  0.299600  1
  N  N1367  1  0.952500  0.982500  0.200400  1
  N  N1368  1  0.047500  0.517500  0.700400  1
  N  N1369  1  0.690400  0.955700  0.614630  1
  N  N1370  1  0.309600  0.544300  0.114630  1
  N  N1371  1  0.309600  0.044300  0.385370  1
  N  N1372  1  0.690400  0.455700  0.885370  1
  N  N1373  1  0.814100  0.979100  0.733150  1
  N  N1374  1  0.185900  0.520900  0.233150  1
  N  N1375  1  0.185900  0.020900  0.266850  1
  N  N1376  1  0.814100  0.479100  0.766850  1
  N  N1377  1  0.691100  0.955500  0.749000  1
  N  N1378  1  0.308900  0.544500  0.249000  1
  N  N1379  1  0.308900  0.044500  0.251000  1
  N  N1380  1  0.691100  0.455500  0.751000  1
  N  N1381  1  0.779000  0.970400  0.794400  1
  N  N1382  1  0.221000  0.529600  0.294400  1
  N  N1383  1  0.221000  0.029600  0.205600  1
  N  N1384  1  0.779000  0.470400  0.705600  1
  N  N1385  1  0.000900  0.633400  0.852400  1
  N  N1386  1  0.999100  0.866600  0.352400  1
  N  N1387  1  0.999100  0.366600  0.147600  1
  N  N1388  1  0.000900  0.133400  0.647600  1
  N  N1389  1  0.495400  0.541700  0.811100  1
  N  N1390  1  0.504600  0.958300  0.311100  1
  N  N1391  1  0.504600  0.458300  0.188900  1
  N  N1392  1  0.495400  0.041700  0.688900  1
  N  N1393  1  0.828300  0.587900  0.611570  1
  N  N1394  1  0.171700  0.912100  0.111570  1
  N  N1395  1  0.171700  0.412100  0.388430  1
  N  N1396  1  0.828300  0.087900  0.888430  1
  N  N1397  1  0.760000  0.587800  0.793480  1
  N  N1398  1  0.240000  0.912200  0.293480  1
  N  N1399  1  0.240000  0.412200  0.206520  1
  N  N1400  1  0.760000  0.087800  0.706520  1
  N  N1401  1  0.716400  0.577100  0.733970  1
  N  N1402  1  0.283600  0.922900  0.233970  1
  N  N1403  1  0.283600  0.422900  0.266030  1
  N  N1404  1  0.716400  0.077100  0.766030  1
  N  N1405  1  0.841100  0.601300  0.744820  1
  N  N1406  1  0.158900  0.898700  0.244820  1
  N  N1407  1  0.158900  0.398700  0.255180  1
  N  N1408  1  0.841100  0.101300  0.755180  1
  N  N1409  1  0.823600  0.656400  0.553760  1
  N  N1410  1  0.176400  0.843600  0.053760  1
  N  N1411  1  0.176400  0.343600  0.446240  1
  N  N1412  1  0.823600  0.156400  0.946240  1
  N  N1413  1  0.702500  0.884400  0.557300  1
  N  N1414  1  0.297500  0.615600  0.057300  1
  N  N1415  1  0.297500  0.115600  0.442700  1
  N  N1416  1  0.702500  0.384400  0.942700  1
  N  N1417  1  0.102600  0.716700  0.878700  1
  N  N1418  1  0.897400  0.783300  0.378700  1
  N  N1419  1  0.897400  0.283300  0.121300  1
  N  N1420  1  0.102600  0.216700  0.621300  1
  N  N1421  1  0.154100  0.962800  0.829700  1
  N  N1422  1  0.845900  0.537200  0.329700  1
  N  N1423  1  0.845900  0.037200  0.170300  1
  N  N1424  1  0.154100  0.462800  0.670300  1
  N  N1425  1  0.398600  0.598400  0.846600  1
  N  N1426  1  0.601400  0.901600  0.346600  1
  N  N1427  1  0.601400  0.401600  0.153400  1
  N  N1428  1  0.398600  0.098400  0.653400  1
  N  N1429  1  0.208000  0.819800  0.948400  1
  N  N1430  1  0.792000  0.680200  0.448400  1
  N  N1431  1  0.792000  0.180200  0.051600  1
  N  N1432  1  0.208000  0.319800  0.551600  1
  N  N1433  1  0.679400  0.979400  0.971000  1
  N  N1434  1  0.320600  0.520600  0.471000  1
  N  N1435  1  0.320600  0.020600  0.029000  1
  N  N1436  1  0.679400  0.479400  0.529000  1
  N  N1437  1  0.498000  0.038400  0.836000  1
  N  N1438  1  0.502000  0.461600  0.336000  1
  N  N1439  1  0.502000  0.961600  0.164000  1
  N  N1440  1  0.498000  0.538400  0.664000  1
  N  N1441  1  0.928500  0.751200  0.785500  1
  N  N1442  1  0.071500  0.748800  0.285500  1
  N  N1443  1  0.071500  0.248800  0.214500  1
  N  N1444  1  0.928500  0.251200  0.714500  1
  N  N1445  1  0.585200  0.666500  0.722400  1
  N  N1446  1  0.414800  0.833500  0.222400  1
  N  N1447  1  0.414800  0.333500  0.277600  1
  N  N1448  1  0.585200  0.166500  0.777600  1
  N  N1449  1  0.622000  0.831700  0.476400  1
  N  N1450  1  0.378000  0.668300  0.976400  1
  N  N1451  1  0.378000  0.168300  0.523600  1
  N  N1452  1  0.622000  0.331700  0.023600  1
  N  N1453  1  0.356300  0.970800  0.778700  1
  N  N1454  1  0.643700  0.529200  0.278700  1
  N  N1455  1  0.643700  0.029200  0.221300  1
  N  N1456  1  0.356300  0.470800  0.721300  1
  N  N1457  1  0.688600  0.113500  0.600000  1
  N  N1458  1  0.311400  0.386500  0.100000  1
  N  N1459  1  0.311400  0.886500  0.400000  1
  N  N1460  1  0.688600  0.613500  0.900000  1
  N  N1461  1  0.755600  0.018600  0.445600  1
  N  N1462  1  0.244400  0.481400  0.945600  1
  N  N1463  1  0.244400  0.981400  0.554400  1
  N  N1464  1  0.755600  0.518600  0.054400  1
  N  N1465  1  0.544700  0.056100  0.408600  1
  N  N1466  1  0.455300  0.443900  0.908600  1
  N  N1467  1  0.455300  0.943900  0.591400  1
  N  N1468  1  0.544700  0.556100  0.091400  1
  N  N1469  1  0.182300  0.076500  0.703000  1
  N  N1470  1  0.817700  0.423500  0.203000  1
  N  N1471  1  0.817700  0.923500  0.297000  1
  N  N1472  1  0.182300  0.576500  0.797000  1
  N  N1473  1  0.059300  0.483800  0.827600  1
  N  N1474  1  0.940700  0.016200  0.327600  1
  N  N1475  1  0.940700  0.516200  0.172400  1
  N  N1476  1  0.059300  0.983800  0.672400  1
  N  N1477  1  0.075900  0.603700  0.619700  1
  N  N1478  1  0.924100  0.896300  0.119700  1
  N  N1479  1  0.924100  0.396300  0.380300  1
  N  N1480  1  0.075900  0.103700  0.880300  1
  N  N1481  1  0.927700  0.420800  0.597600  1
  N  N1482  1  0.072300  0.079200  0.097600  1
  N  N1483  1  0.072300  0.579200  0.402400  1
  N  N1484  1  0.927700  0.920800  0.902400  1
  N  N1485  1  0.374200  0.922000  0.928800  1
  N  N1486  1  0.625800  0.578000  0.428800  1
  N  N1487  1  0.625800  0.078000  0.071200  1
  N  N1488  1  0.374200  0.422000  0.571200  1
  N  N1489  1  0.464200  0.997400  0.901000  1
  N  N1490  1  0.535800  0.502600  0.401000  1
  N  N1491  1  0.535800  0.002600  0.099000  1
  N  N1492  1  0.464200  0.497400  0.599000  1
  N  N1493  1  0.535800  0.935600  0.857100  1
  N  N1494  1  0.464200  0.564400  0.357100  1
  N  N1495  1  0.464200  0.064400  0.142900  1
  N  N1496  1  0.535800  0.435600  0.642900  1
  N  N1497  1  0.438800  0.850500  0.885500  1
  N  N1498  1  0.561200  0.649500  0.385500  1
  N  N1499  1  0.561200  0.149500  0.114500  1
  N  N1500  1  0.438800  0.350500  0.614500  1
  N  N1501  1  0.881000  0.514500  0.555400  1
  N  N1502  1  0.119000  0.985500  0.055400  1
  N  N1503  1  0.119000  0.485500  0.444600  1
  N  N1504  1  0.881000  0.014500  0.944600  1
  N  N1505  1  0.888300  0.590500  0.509500  1
  N  N1506  1  0.111700  0.909500  0.009500  1
  N  N1507  1  0.111700  0.409500  0.490500  1
  N  N1508  1  0.888300  0.090500  0.990500  1
  N  N1509  1  0.220600  0.846800  0.945800  1
  N  N1510  1  0.779400  0.653200  0.445800  1
  N  N1511  1  0.779400  0.153200  0.054200  1
  N  N1512  1  0.220600  0.346800  0.554200  1
  N  N1513  1  0.383900  0.457300  0.821600  1
  N  N1514  1  0.616100  0.042700  0.321600  1
  N  N1515  1  0.616100  0.542700  0.178400  1
  N  N1516  1  0.383900  0.957300  0.678400  1
  N  N1517  1  0.285000  0.504200  0.843000  1
  N  N1518  1  0.715000  0.995800  0.343000  1
  N  N1519  1  0.715000  0.495800  0.157000  1
  N  N1520  1  0.285000  0.004200  0.657000  1
  N  N1521  1  0.085300  0.588400  0.572200  1
  N  N1522  1  0.914700  0.911600  0.072200  1
  N  N1523  1  0.914700  0.411600  0.427800  1
  N  N1524  1  0.085300  0.088400  0.927800  1
  O  O1525  1  0.188000  0.862800  0.951800  1
  O  O1526  1  0.812000  0.637200  0.451800  1
  O  O1527  1  0.812000  0.137200  0.048200  1
  O  O1528  1  0.188000  0.362800  0.548200  1
  O  O1529  1  0.170100  0.788500  0.958700  1
  O  O1530  1  0.829900  0.711500  0.458700  1
  O  O1531  1  0.829900  0.211500  0.041300  1
  O  O1532  1  0.170100  0.288500  0.541300  1
  O  O1533  1  0.272200  0.819900  0.934300  1
  O  O1534  1  0.727800  0.680100  0.434300  1
  O  O1535  1  0.727800  0.180100  0.065700  1
  O  O1536  1  0.272200  0.319900  0.565700  1
  O  O1537  1  0.695100  0.996500  0.944800  1
  O  O1538  1  0.304900  0.503500  0.444800  1
  O  O1539  1  0.304900  0.003500  0.055200  1
  O  O1540  1  0.695100  0.496500  0.555200  1
  O  O1541  1  0.624400  0.959000  0.975100  1
  O  O1542  1  0.375600  0.541000  0.475100  1
  O  O1543  1  0.375600  0.041000  0.024900  1
  O  O1544  1  0.624400  0.459000  0.524900  1
  O  O1545  1  0.719000  0.983000  0.993700  1
  O  O1546  1  0.281000  0.517000  0.493700  1
  O  O1547  1  0.281000  0.017000  0.006300  1
  O  O1548  1  0.719000  0.483000  0.506300  1
  O  O1549  1  0.560000  0.048400  0.831700  1
  O  O1550  1  0.440000  0.451600  0.331700  1
  O  O1551  1  0.440000  0.951600  0.168300  1
  O  O1552  1  0.560000  0.548400  0.668300  1
  O  O1553  1  0.462200  0.022900  0.812100  1
  O  O1554  1  0.537800  0.477100  0.312100  1
  O  O1555  1  0.537800  0.977100  0.187900  1
  O  O1556  1  0.462200  0.522900  0.687900  1
  O  O1557  1  0.472300  0.042800  0.864100  1
  O  O1558  1  0.527700  0.457200  0.364100  1
  O  O1559  1  0.527700  0.957200  0.135900  1
  O  O1560  1  0.472300  0.542800  0.635900  1
  O  O1561  1  0.285700  0.934600  0.932900  1
  O  O1562  1  0.714300  0.565400  0.432900  1
  O  O1563  1  0.714300  0.065400  0.067100  1
  O  O1564  1  0.285700  0.434600  0.567100  1
  O  O1565  1  0.045200  0.802600  0.989800  1
  O  O1566  1  0.954800  0.697400  0.489800  1
  O  O1567  1  0.954800  0.197400  0.010200  1
  O  O1568  1  0.045200  0.302600  0.510200  1
  O  O1569  1  0.970900  0.762100  0.729100  1
  O  O1570  1  0.029100  0.737900  0.229100  1
  O  O1571  1  0.029100  0.237900  0.270900  1
  O  O1572  1  0.970900  0.262100  0.770900  1
  O  O1573  1  0.891100  0.741700  0.843300  1
  O  O1574  1  0.108900  0.758300  0.343300  1
  O  O1575  1  0.108900  0.258300  0.156700  1
  O  O1576  1  0.891100  0.241700  0.656700  1
  O  O1577  1  0.622200  0.675200  0.666000  1
  O  O1578  1  0.377800  0.824800  0.166000  1
  O  O1579  1  0.377800  0.324800  0.334000  1
  O  O1580  1  0.622200  0.175200  0.834000  1
  O  O1581  1  0.538700  0.660600  0.781200  1
  O  O1582  1  0.461300  0.839400  0.281200  1
  O  O1583  1  0.461300  0.339400  0.218800  1
  O  O1584  1  0.538700  0.160600  0.718800  1
  O  O1585  1  0.679900  0.855200  0.472500  1
  O  O1586  1  0.320100  0.644800  0.972500  1
  O  O1587  1  0.320100  0.144800  0.527500  1
  O  O1588  1  0.679900  0.355200  0.027500  1
  O  O1589  1  0.570100  0.852800  0.488200  1
  O  O1590  1  0.429900  0.647200  0.988200  1
  O  O1591  1  0.429900  0.147200  0.511800  1
  O  O1592  1  0.570100  0.352800  0.011800  1
  O  O1593  1  0.611000  0.787000  0.470300  1
  O  O1594  1  0.389000  0.713000  0.970300  1
  O  O1595  1  0.389000  0.213000  0.529700  1
  O  O1596  1  0.611000  0.287000  0.029700  1
  O  O1597  1  0.342600  0.008800  0.764100  1
  O  O1598  1  0.657400  0.491200  0.264100  1
  O  O1599  1  0.657400  0.991200  0.235900  1
  O  O1600  1  0.342600  0.508800  0.735900  1
  O  O1601  1  0.388900  0.943500  0.765500  1
  O  O1602  1  0.611100  0.556500  0.265500  1
  O  O1603  1  0.611100  0.056500  0.234500  1
  O  O1604  1  0.388900  0.443500  0.734500  1
  O  O1605  1  0.335000  0.966200  0.811700  1
  O  O1606  1  0.665000  0.533800  0.311700  1
  O  O1607  1  0.665000  0.033800  0.188300  1
  O  O1608  1  0.335000  0.466200  0.688300  1
  O  O1609  1  0.722800  0.085000  0.601400  1
  O  O1610  1  0.277200  0.415000  0.101400  1
  O  O1611  1  0.277200  0.915000  0.398600  1
  O  O1612  1  0.722800  0.585000  0.898600  1
  O  O1613  1  0.614100  0.119400  0.594100  1
  O  O1614  1  0.385900  0.380600  0.094100  1
  O  O1615  1  0.385900  0.880600  0.405900  1
  O  O1616  1  0.614100  0.619400  0.905900  1
  O  O1617  1  0.734000  0.158200  0.598300  1
  O  O1618  1  0.266000  0.341800  0.098300  1
  O  O1619  1  0.266000  0.841800  0.401700  1
  O  O1620  1  0.734000  0.658200  0.901700  1
  O  O1621  1  0.770500  0.008800  0.477200  1
  O  O1622  1  0.229500  0.491200  0.977200  1
  O  O1623  1  0.229500  0.991200  0.522800  1
  O  O1624  1  0.770500  0.508800  0.022800  1
  O  O1625  1  0.782000  0.046000  0.420800  1
  O  O1626  1  0.218000  0.454000  0.920800  1
  O  O1627  1  0.218000  0.954000  0.579200  1
  O  O1628  1  0.782000  0.546000  0.079200  1
  O  O1629  1  0.704500  0.988400  0.431500  1
  O  O1630  1  0.295500  0.511600  0.931500  1
  O  O1631  1  0.295500  0.011600  0.568500  1
  O  O1632  1  0.704500  0.488400  0.068500  1
  O  O1633  1  0.537000  0.059500  0.441100  1
  O  O1634  1  0.463000  0.440500  0.941100  1
  O  O1635  1  0.463000  0.940500  0.558900  1
  O  O1636  1  0.537000  0.559500  0.058900  1
  O  O1637  1  0.503700  0.024200  0.391600  1
  O  O1638  1  0.496300  0.475800  0.891600  1
  O  O1639  1  0.496300  0.975800  0.608400  1
  O  O1640  1  0.503700  0.524200  0.108400  1
  O  O1641  1  0.590800  0.091600  0.394700  1
  O  O1642  1  0.409200  0.408400  0.894700  1
  O  O1643  1  0.409200  0.908400  0.605300  1
  O  O1644  1  0.590800  0.591600  0.105300  1
  O  O1645  1  0.198300  0.043100  0.719600  1
  O  O1646  1  0.801700  0.456900  0.219600  1
  O  O1647  1  0.801700  0.956900  0.280400  1
  O  O1648  1  0.198300  0.543100  0.780400  1
  O  O1649  1  0.196400  0.081600  0.669900  1
  O  O1650  1  0.803600  0.418400  0.169900  1
  O  O1651  1  0.803600  0.918400  0.330100  1
  O  O1652  1  0.196400  0.581600  0.830100  1
  O  O1653  1  0.154500  0.111500  0.719700  1
  O  O1654  1  0.845500  0.388500  0.219700  1
  O  O1655  1  0.845500  0.888500  0.280300  1
  O  O1656  1  0.154500  0.611500  0.780300  1
  O  O1657  1  0.042900  0.523800  0.821600  1
  O  O1658  1  0.957100  0.976200  0.321600  1
  O  O1659  1  0.957100  0.476200  0.178400  1
  O  O1660  1  0.042900  0.023800  0.678400  1
  O  O1661  1  0.090800  0.475700  0.855500  1
  O  O1662  1  0.909200  0.024300  0.355500  1
  O  O1663  1  0.909200  0.524300  0.144500  1
  O  O1664  1  0.090800  0.975700  0.644500  1
  O  O1665  1  0.047500  0.451100  0.805100  1
  O  O1666  1  0.952500  0.048900  0.305100  1
  O  O1667  1  0.952500  0.548900  0.194900  1
  O  O1668  1  0.047500  0.951100  0.694900  1
  O  O1669  1  0.036300  0.576300  0.602800  1
  O  O1670  1  0.963700  0.923700  0.102800  1
  O  O1671  1  0.963700  0.423700  0.397200  1
  O  O1672  1  0.036300  0.076300  0.897200  1
  O  O1673  1  0.055000  0.624200  0.644300  1
  O  O1674  1  0.945000  0.875800  0.144300  1
  O  O1675  1  0.945000  0.375800  0.355700  1
  O  O1676  1  0.055000  0.124200  0.855700  1
  O  O1677  1  0.137000  0.612000  0.611000  1
  O  O1678  1  0.863000  0.888000  0.111000  1
  O  O1679  1  0.863000  0.388000  0.389000  1
  O  O1680  1  0.137000  0.112000  0.889000  1
  O  O1681  1  0.983600  0.451700  0.591000  1
  O  O1682  1  0.016400  0.048300  0.091000  1
  O  O1683  1  0.016400  0.548300  0.409000  1
  O  O1684  1  0.983600  0.951700  0.909000  1
  O  O1685  1  0.931000  0.375000  0.594500  1
  O  O1686  1  0.069000  0.125000  0.094500  1
  O  O1687  1  0.069000  0.625000  0.405500  1
  O  O1688  1  0.931000  0.875000  0.905500  1
  O  O1689  1  0.867800  0.434800  0.607200  1
  O  O1690  1  0.132200  0.065200  0.107200  1
  O  O1691  1  0.132200  0.565200  0.392800  1
  O  O1692  1  0.867800  0.934800  0.892800  1
  O  O1693  1  0.278000  0.723400  0.922100  1
  O  O1694  1  0.722000  0.776600  0.422100  1
  O  O1695  1  0.722000  0.276600  0.077900  1
  O  O1696  1  0.278000  0.223400  0.577900  1
  O  O1697  1  0.934000  0.513500  0.909800  1
  O  O1698  1  0.066000  0.986500  0.409800  1
  O  O1699  1  0.066000  0.486500  0.090200  1
  O  O1700  1  0.934000  0.013500  0.590200  1
  O  O1701  1  0.062400  0.635900  0.984200  1
  O  O1702  1  0.937600  0.864100  0.484200  1
  O  O1703  1  0.937600  0.364100  0.015800  1
  O  O1704  1  0.062400  0.135900  0.515800  1
  O  O1705  1  0.028600  0.162300  0.792600  1
  O  O1706  1  0.971400  0.337700  0.292600  1
  O  O1707  1  0.971400  0.837700  0.207400  1
  O  O1708  1  0.028600  0.662300  0.707400  1
  O  O1709  1  0.132000  0.209400  0.744500  1
  O  O1710  1  0.868000  0.290600  0.244500  1
  O  O1711  1  0.868000  0.790600  0.255500  1
  O  O1712  1  0.132000  0.709400  0.755500  1
  O  O1713  1  0.275000  0.106100  0.898000  1
  O  O1714  1  0.725000  0.393900  0.398000  1
  O  O1715  1  0.725000  0.893900  0.102000  1
  O  O1716  1  0.275000  0.606100  0.602000  1
  O  O1717  1  0.015000  0.436500  0.921700  1
  O  O1718  1  0.985000  0.063500  0.421700  1
  O  O1719  1  0.985000  0.563500  0.078300  1
  O  O1720  1  0.015000  0.936500  0.578300  1
  O  O1721  1  0.631100  0.148000  0.461100  1
  O  O1722  1  0.368900  0.352000  0.961100  1
  O  O1723  1  0.368900  0.852000  0.538900  1
  O  O1724  1  0.631100  0.648000  0.038900  1
  O  O1725  1  0.093000  0.363000  0.823100  1
  O  O1726  1  0.907000  0.137000  0.323100  1
  O  O1727  1  0.907000  0.637000  0.176900  1
  O  O1728  1  0.093000  0.863000  0.676900  1
  O  O1729  1  0.996600  0.786500  0.646400  1
  O  O1730  1  0.003400  0.713500  0.146400  1
  O  O1731  1  0.003400  0.213500  0.353600  1
  O  O1732  1  0.996600  0.286500  0.853600  1
  O  O1733  1  0.973600  0.839900  0.590600  1
  O  O1734  1  0.026400  0.660100  0.090600  1
  O  O1735  1  0.026400  0.160100  0.409400  1
  O  O1736  1  0.973600  0.339900  0.909400  1
  O  O1737  1  0.571600  0.706500  0.601600  1
  O  O1738  1  0.428400  0.793500  0.101600  1
  O  O1739  1  0.428400  0.293500  0.398400  1
  O  O1740  1  0.571600  0.206500  0.898400  1
  O  O1741  1  0.565300  0.200700  0.508500  1
  O  O1742  1  0.434700  0.299300  0.008500  1
  O  O1743  1  0.434700  0.799300  0.491500  1
  O  O1744  1  0.565300  0.700700  0.991500  1
  O  O1745  1  0.499600  0.395500  0.789900  1
  O  O1746  1  0.500400  0.104500  0.289900  1
  O  O1747  1  0.500400  0.604500  0.210100  1
  O  O1748  1  0.499600  0.895500  0.710100  1
  O  O1749  1  0.872000  0.051200  0.527200  1
  O  O1750  1  0.128000  0.448800  0.027200  1
  O  O1751  1  0.128000  0.948800  0.472800  1
  O  O1752  1  0.872000  0.551200  0.972800  1
  O  O1753  1  0.849000  0.203400  0.531500  1
  O  O1754  1  0.151000  0.296600  0.031500  1
  O  O1755  1  0.151000  0.796600  0.468500  1
  O  O1756  1  0.849000  0.703400  0.968500  1
  O  O1757  1  0.594000  0.573000  0.598000  1
  O  O1758  1  0.406000  0.927000  0.098000  1
  O  O1759  1  0.406000  0.427000  0.402000  1
  O  O1760  1  0.594000  0.073000  0.902000  1
  O  O1761  1  0.335000  0.846000  0.751600  1
  O  O1762  1  0.665000  0.654000  0.251600  1
  O  O1763  1  0.665000  0.154000  0.248400  1
  O  O1764  1  0.335000  0.346000  0.748400  1
  O  O1765  1  0.387000  0.725300  0.722300  1
  O  O1766  1  0.613000  0.774700  0.222300  1
  O  O1767  1  0.613000  0.274700  0.277700  1
  O  O1768  1  0.387000  0.225300  0.777700  1
  O  O1769  1  0.851000  0.284600  0.594100  1
  O  O1770  1  0.149000  0.215400  0.094100  1
  O  O1771  1  0.149000  0.715400  0.405900  1
  O  O1772  1  0.851000  0.784600  0.905900  1
  O  O1773  1  0.175000  0.318800  0.767800  1
  O  O1774  1  0.825000  0.181200  0.267800  1
  O  O1775  1  0.825000  0.681200  0.232200  1
  O  O1776  1  0.175000  0.818800  0.732200  1
  O  O1777  1  0.580600  0.686800  0.488500  1
  O  O1778  1  0.419400  0.813200  0.988500  1
  O  O1779  1  0.419400  0.313200  0.511500  1
  O  O1780  1  0.580600  0.186800  0.011500  1
  O  O1781  1  0.456000  0.749400  0.617300  1
  O  O1782  1  0.544000  0.750600  0.117300  1
  O  O1783  1  0.544000  0.250600  0.382700  1
  O  O1784  1  0.456000  0.249400  0.882700  1
  O  O1785  1  0.263300  0.834300  0.925100  1
  O  O1786  1  0.736700  0.665700  0.425100  1
  O  O1787  1  0.736700  0.165700  0.074900  1
  O  O1788  1  0.263300  0.334300  0.574900  1
  O  O1789  1  0.223200  0.887400  0.949900  1
  O  O1790  1  0.776800  0.612600  0.449900  1
  O  O1791  1  0.776800  0.112600  0.050100  1
  O  O1792  1  0.223200  0.387400  0.550100  1
  O  O1793  1  0.164700  0.826100  0.961900  1
  O  O1794  1  0.835300  0.673900  0.461900  1
  O  O1795  1  0.835300  0.173900  0.038100  1
  O  O1796  1  0.164700  0.326100  0.538100  1
  O  O1797  1  0.481000  0.075800  0.825300  1
  O  O1798  1  0.519000  0.424200  0.325300  1
  O  O1799  1  0.519000  0.924200  0.174700  1
  O  O1800  1  0.481000  0.575800  0.674700  1
  O  O1801  1  0.773000  0.514300  0.482400  1
  O  O1802  1  0.227000  0.985700  0.982400  1
  O  O1803  1  0.227000  0.485700  0.517600  1
  O  O1804  1  0.773000  0.014300  0.017600  1
  O  O1805  1  0.576000  0.990000  0.953600  1
  O  O1806  1  0.424000  0.510000  0.453600  1
  O  O1807  1  0.424000  0.010000  0.046400  1
  O  O1808  1  0.576000  0.490000  0.546400  1
  O  O1809  1  0.978000  0.855400  0.988700  1
  O  O1810  1  0.022000  0.644600  0.488700  1
  O  O1811  1  0.022000  0.144600  0.011300  1
  O  O1812  1  0.978000  0.355400  0.511300  1
  O  O1813  1  0.973000  0.511500  0.835500  1
  O  O1814  1  0.027000  0.988500  0.335500  1
  O  O1815  1  0.027000  0.488500  0.164500  1
  O  O1816  1  0.973000  0.011500  0.664500  1
  O  O1817  1  0.025200  0.576000  0.585500  1
  O  O1818  1  0.974800  0.924000  0.085500  1
  O  O1819  1  0.974800  0.424000  0.414500  1
  O  O1820  1  0.025200  0.076000  0.914500  1
  O  O1821  1  0.102000  0.571000  0.543600  1
  O  O1822  1  0.898000  0.929000  0.043600  1
  O  O1823  1  0.898000  0.429000  0.456400  1
  O  O1824  1  0.102000  0.071000  0.956400  1
  O  O1825  1  0.129000  0.619100  0.587600  1
  O  O1826  1  0.871000  0.880900  0.087600  1
  O  O1827  1  0.871000  0.380900  0.412400  1
  O  O1828  1  0.129000  0.119100  0.912400  1
  O  O1829  1  0.813000  0.453700  0.603800  1
  O  O1830  1  0.187000  0.046300  0.103800  1
  O  O1831  1  0.187000  0.546300  0.396200  1
  O  O1832  1  0.813000  0.953700  0.896200  1
  O  O1833  1  0.971100  0.406600  0.591000  1
  O  O1834  1  0.028900  0.093400  0.091000  1
  O  O1835  1  0.028900  0.593400  0.409000  1
  O  O1836  1  0.971100  0.906600  0.909000  1
  O  O1837  1  0.484000  0.376200  0.814700  1
  O  O1838  1  0.516000  0.123800  0.314700  1
  O  O1839  1  0.516000  0.623800  0.185300  1
  O  O1840  1  0.484000  0.876200  0.685300  1
  O  O1841  1  0.847000  0.130000  0.556600  1
  O  O1842  1  0.153000  0.370000  0.056600  1
  O  O1843  1  0.153000  0.870000  0.443400  1
  O  O1844  1  0.847000  0.630000  0.943400  1
  O  O1845  1  0.009000  0.463200  0.991300  1
  O  O1846  1  0.991000  0.036800  0.491300  1
  O  O1847  1  0.991000  0.536800  0.008700  1
  O  O1848  1  0.009000  0.963200  0.508700  1
  O  O1849  1  0.433000  0.853900  0.769600  1
  O  O1850  1  0.567000  0.646100  0.269600  1
  O  O1851  1  0.567000  0.146100  0.230400  1
  O  O1852  1  0.433000  0.353900  0.730400  1
  O  O1853  1  0.317000  0.753800  0.764800  1
  O  O1854  1  0.683000  0.746200  0.264800  1
  O  O1855  1  0.683000  0.246200  0.235200  1
  O  O1856  1  0.317000  0.253800  0.735200  1
