
#######################################################################
#
#                 Cambridge Crystallographic Data Centre
#                                CCDC 
#
#######################################################################
#
# If this CIF has been generated from an entry in the Cambridge 
# Structural Database, then it will include bibliographic, chemical, 
# crystal, experimental, refinement or atomic coordinate data resulting 
# from the CCDC's data processing and validation procedures.
#
#######################################################################

data_JAFDUS
_chemical_formula_moiety         
'C90 H120 N30 Pd6 12+,C16 H10 N2 O4,C20 H10,18(H2 O1),12(N1 O3 1-)'
_chemical_name_systematic        
"bis(\m-2,4,6-tri(pyridin-4-yl)-1,3,5-triazine)-tris(\m-2,2',6,6'-tetramethyl-4,4'-bipyridine)-hexakis(ethane-1,2-diamine)-hexa-palladium(ii) dodecakis(nitrate) dibenzo[ghi,mno]fluoranthene 2,7-dimethylbenzo[lmn][3,8]phenanthroline-1,3,6,8(2H,7H)-tetrone clathrate octadecahydrate"
_symmetry_cell_setting           monoclinic
_symmetry_space_group_name_H-M   'P 21/c'
_symmetry_Int_Tables_number      14
_space_group_name_Hall           '-P 2ybc'
loop_
_symmetry_equiv_pos_site_id
_symmetry_equiv_pos_as_xyz
1 x,y,z
2 -x,1/2+y,1/2-z
3 -x,-y,-z
4 x,1/2-y,1/2+z
_cell_length_a                   18.705(4)
_cell_length_b                   37.303(8)
_cell_length_c                   27.809(6)
_cell_angle_alpha                90
_cell_angle_beta                 98.28(3)
_cell_angle_gamma                90
_cell_volume                     19201.5
_exptl_crystal_colour            orange
_exptl_crystal_description       block
_cell_formula_units_Z            4
loop_
_atom_site_label
_atom_site_type_symbol
_atom_site_fract_x
_atom_site_fract_y
_atom_site_fract_z
Pd1 Pd 0.33440(5) 0.43862(2) 0.04943(3)
Pd2 Pd 0.14446(5) 0.44157(2) 0.41055(3)
Pd3 Pd 0.60752(4) 0.16880(2) 0.47328(3)
Pd4 Pd -0.08415(4) 0.11195(2) 0.35706(3)
Pd5 Pd -0.15411(4) 0.18700(3) -0.03314(4)
Pd6 Pd 0.51101(16) 0.09131(5) 0.08807(8)
N1 N 0.5822(13) 0.0504(5) 0.0960(7)
H1 H 0.6270 0.0585 0.0923
H2 H 0.5845 0.0409 0.1263
N2 N 0.4890(14) 0.0731(5) 0.0172(7)
H3 H 0.4440 0.0633 0.0119
H4 H 0.4905 0.0917 -0.0037
C1 C 0.5575(13) 0.0212(5) 0.0571(8)
H5 H 0.5129 0.0089 0.0635
H6 H 0.5958 0.0032 0.0549
C2 C 0.543(2) 0.0461(8) 0.0093(9)
H7 H 0.5888 0.0579 0.0036
H8 H 0.5255 0.0313 -0.0196
N3 N 0.4369(17) 0.1326(5) 0.0758(11)
C3 C 0.4601(17) 0.1642(9) 0.0750(12)
H9 H 0.5102 0.1696 0.0785
C4 C 0.402(2) 0.1933(6) 0.0681(14)
H10 H 0.4146 0.2178 0.0738
C5 C 0.341(2) 0.1853(7) 0.0557(14)
C6 C 0.3201(18) 0.1500(6) 0.0513(13)
H11 H 0.2714 0.1436 0.0400
C7 C 0.3720(18) 0.1245(5) 0.0637(11)
H12 H 0.3583 0.0999 0.0632
N4 N 0.5333(12) 0.1053(5) 0.1587(7)
C8 C 0.5905(16) 0.1253(8) 0.1757(10)
C9 C 0.6050(18) 0.1365(9) 0.2208(9)
H13 H 0.6471 0.1504 0.2307
C10 C 0.5580(11) 0.1278(6) 0.2550(9)
C11 C 0.5044(16) 0.1014(9) 0.2400(10)
H14 H 0.4778 0.0901 0.2624
C12 C 0.4931(13) 0.0929(6) 0.1908(10)
C13 C 0.6374(18) 0.1382(7) 0.1375(10)
H15 H 0.6194 0.1275 0.1059
H16 H 0.6347 0.1644 0.1348
H17 H 0.6877 0.1310 0.1475
C14 C 0.4324(16) 0.0703(6) 0.1691(12)
H18 H 0.4051 0.0621 0.1946
H19 H 0.4005 0.0843 0.1450
H20 H 0.4510 0.0495 0.1532
N5 N 0.100(2) 0.4338(7) 0.4705(11)
H21 H 0.0576 0.4216 0.4630
H22 H 0.1301 0.4203 0.4920
N6 N 0.117(2) 0.4963(7) 0.4198(12)
H23 H 0.1550 0.5088 0.4356
H24 H 0.1015 0.5070 0.3908
C15 C 0.086(3) 0.4683(9) 0.4930(13)
H25 H 0.0508 0.4654 0.5159
H26 H 0.1316 0.4782 0.5109
C16 C 0.056(2) 0.4934(7) 0.4505(14)
H27 H 0.0439 0.5172 0.4628
H28 H 0.0122 0.4829 0.4314
N7 N 0.3786(6) 0.4373(2) -0.0131(4)
H29 H 0.4233 0.4271 -0.0076
H30 H 0.3504 0.4240 -0.0359
N8 N 0.3574(6) 0.4920(2) 0.0493(4)
H31 H 0.3164 0.5048 0.0398
H32 H 0.3764 0.4993 0.0797
C17 C 0.3839(8) 0.4746(3) -0.0304(5)
H33 H 0.3360 0.4831 -0.0461
H34 H 0.4180 0.4759 -0.0545
C18 C 0.4112(8) 0.4982(3) 0.0144(5)
H35 H 0.4604 0.4908 0.0291
H36 H 0.4124 0.5238 0.0051
N9 N -0.0778(7) 0.1062(4) 0.4304(4)
H37 H -0.0320 0.0998 0.4431
H38 H -0.0879 0.1275 0.4437
N10 N -0.1622(7) 0.0737(3) 0.3538(4)
H39 H -0.1978 0.0779 0.3284
H40 H -0.1434 0.0515 0.3501
N11 N -0.1580(6) 0.2039(5) -0.1028(4)
H41 H -0.1534 0.2281 -0.1034
H42 H -0.1207 0.1940 -0.1160
N12 N -0.2607(6) 0.1766(5) -0.0531(6)
H43 H -0.2677 0.1527 -0.0592
H44 H -0.2862 0.1830 -0.0290
N13 N 0.6185(18) 0.1916(7) 0.5436(11)
H45 H 0.6126 0.2158 0.5420
H46 H 0.5856 0.1822 0.5612
N14 N 0.709(3) 0.1465(14) 0.4905(13)
H47 H 0.7080 0.1223 0.4857
H48 H 0.7409 0.1563 0.4721
C19 C 0.6903(18) 0.1824(8) 0.5646(11)
H49 H 0.6880 0.1754 0.5987
H50 H 0.7190 0.2048 0.5660
C20 C 0.7318(17) 0.1554(13) 0.5446(11)
H51 H 0.7292 0.1331 0.5636
H52 H 0.7830 0.1632 0.5492
C21 C -0.1290(12) 0.0786(6) 0.4432(6)
H53 H -0.1046 0.0550 0.4467
H54 H -0.1448 0.0847 0.4747
C22 C -0.1931(10) 0.0765(6) 0.4047(6)
H55 H -0.2235 0.0982 0.4053
H56 H -0.2228 0.0552 0.4096
C23 C -0.2258(11) 0.1934(9) -0.1310(7)
H57 H -0.2234 0.1682 -0.1416
H58 H -0.2362 0.2088 -0.1602
C24 C -0.2856(10) 0.1980(9) -0.0984(8)
H59 H -0.3323 0.1887 -0.1150
H60 H -0.2915 0.2235 -0.0903
C25 C -0.0285(6) 0.2345(3) -0.0216(5)
H61 H -0.0643 0.2518 -0.0329
C26 C 0.0431(6) 0.2452(3) -0.0095(4)
H62 H 0.0556 0.2697 -0.0125
C27 C 0.0958(5) 0.2205(2) 0.0069(3)
C28 C 0.0753(5) 0.1851(2) 0.0110(3)
H63 H 0.1102 0.1673 0.0221
C29 C 0.0026(5) 0.1759(3) -0.0013(4)
H64 H -0.0117 0.1517 0.0019
C30 C 0.3600(6) 0.3601(3) 0.0577(4)
H65 H 0.4077 0.3673 0.0703
C31 C 0.3444(6) 0.3244(3) 0.0536(4)
H66 H 0.3814 0.3071 0.0620
C32 C 0.2739(5) 0.3134(2) 0.0371(3)
C33 C 0.2227(7) 0.3392(2) 0.0247(5)
H67 H 0.1739 0.3327 0.0138
C34 C 0.2425(7) 0.3749(3) 0.0282(5)
H68 H 0.2068 0.3926 0.0187
C35 C 0.1715(5) 0.2314(2) 0.0202(3)
C36 C 0.2550(5) 0.2750(2) 0.0335(3)
C37 C 0.2883(5) 0.2174(2) 0.0408(3)
C38 C 0.0654(6) 0.1355(3) 0.3820(4)
H69 H 0.0726 0.1104 0.3864
C39 C 0.1247(5) 0.1583(3) 0.3919(4)
H70 H 0.1719 0.1490 0.4011
C40 C 0.1134(4) 0.1950(2) 0.3878(4)
C41 C 0.0429(5) 0.2077(3) 0.3709(4)
H71 H 0.0337 0.2325 0.3658
C42 C -0.0116(5) 0.1830(3) 0.3620(4)
H72 H -0.0593 0.1914 0.3521
C43 C 0.4927(5) 0.2233(3) 0.4625(4)
H73 H 0.5325 0.2386 0.4733
C44 C 0.4236(5) 0.2386(2) 0.4517(4)
H74 H 0.4162 0.2635 0.4554
C45 C 0.3673(4) 0.2161(2) 0.4358(3)
C46 C 0.3804(4) 0.1796(2) 0.4324(3)
H75 H 0.3417 0.1636 0.4224
C47 C 0.4496(5) 0.1668(2) 0.4435(4)
H76 H 0.4586 0.1419 0.4406
C48 C 0.2378(6) 0.3765(2) 0.4203(4)
H77 H 0.2757 0.3936 0.4266
C49 C 0.2562(5) 0.3407(2) 0.4205(4)
H78 H 0.3052 0.3333 0.4271
C50 C 0.2006(5) 0.3159(2) 0.4106(4)
C51 C 0.1293(6) 0.3287(3) 0.4013(5)
H79 H 0.0899 0.3126 0.3944
C52 C 0.1179(6) 0.3641(3) 0.4024(5)
H80 H 0.0696 0.3726 0.3961
C53 C 0.1740(4) 0.2203(2) 0.3993(3)
C54 C 0.2923(5) 0.2302(2) 0.4230(3)
C55 C 0.2155(5) 0.2769(2) 0.4098(3)
C56 C 0.2440(5) 0.4579(2) 0.3394(4)
C57 C 0.2691(5) 0.4583(2) 0.2944(4)
H81 H 0.3171 0.4658 0.2923
C58 C 0.2242(7) 0.4479(3) 0.2536(5)
C59 C 0.1529(7) 0.4376(3) 0.2575(5)
H82 H 0.1201 0.4314 0.2294
C60 C 0.1316(6) 0.4365(3) 0.3033(4)
C61 C 0.3428(6) 0.4354(3) 0.1565(5)
C62 C 0.3220(6) 0.4379(2) 0.2012(4)
H83 H 0.3557 0.4337 0.2296
C63 C 0.2514(7) 0.4467(3) 0.2049(5)
C64 C 0.2039(7) 0.4547(3) 0.1630(5)
H84 H 0.1555 0.4615 0.1651
C65 C 0.2286(7) 0.4525(3) 0.1170(4)
C66 C 0.2903(7) 0.4703(3) 0.3840(5)
H85 H 0.3373 0.4779 0.3759
H86 H 0.2670 0.4906 0.3979
H87 H 0.2972 0.4507 0.4077
C67 C 0.0563(7) 0.4249(4) 0.3079(5)
H88 H 0.0306 0.4188 0.2757
H89 H 0.0580 0.4039 0.3292
H90 H 0.0309 0.4445 0.3218
C68 C 0.1810(8) 0.4621(5) 0.0732(5)
H91 H 0.1334 0.4684 0.0814
H92 H 0.2011 0.4826 0.0577
H93 H 0.1763 0.4417 0.0507
C69 C 0.4214(7) 0.4250(3) 0.1532(6)
H94 H 0.4471 0.4206 0.1859
H95 H 0.4221 0.4032 0.1335
H96 H 0.4451 0.4446 0.1380
C70 C -0.1545(5) 0.1441(3) 0.2656(4)
C71 C -0.1665(5) 0.1542(3) 0.2184(4)
H97 H -0.2030 0.1712 0.2076
C72 C -0.1249(5) 0.1395(3) 0.1859(4)
C73 C -0.0718(6) 0.1152(3) 0.2052(4)
H98 H -0.0425 0.1040 0.1843
C74 C -0.0611(7) 0.1070(3) 0.2539(5)
C75 C -0.1565(5) 0.1950(3) 0.0729(4)
C76 C -0.1488(5) 0.1854(3) 0.1214(4)
H99 H -0.1530 0.2030 0.1457
C77 C -0.1350(5) 0.1501(3) 0.1342(4)
C78 C -0.1328(5) 0.1250(3) 0.0982(4)
H100 H -0.1242 0.1005 0.1063
C79 C -0.1432(5) 0.1359(3) 0.0496(4)
C80 C -0.2055(6) 0.1588(4) 0.3006(5)
H101 H -0.2408 0.1751 0.2828
H102 H -0.2307 0.1388 0.3135
H103 H -0.1769 0.1717 0.3274
C81 C -0.0038(9) 0.0817(4) 0.2762(5)
H104 H 0.0234 0.0728 0.2511
H105 H 0.0290 0.0942 0.3014
H106 H -0.0263 0.0614 0.2908
C82 C -0.1677(8) 0.2337(4) 0.0569(6)
H107 H -0.1685 0.2490 0.0855
H108 H -0.1280 0.2412 0.0396
H109 H -0.2136 0.2360 0.0352
C83 C -0.1445(8) 0.1088(4) 0.0081(5)
H110 H -0.1359 0.0847 0.0217
H111 H -0.1917 0.1096 -0.0123
H112 H -0.1066 0.1148 -0.0114
C84 C 0.5828(8) 0.1199(3) 0.3871(5)
C85 C 0.5709(8) 0.1116(3) 0.3391(5)
H113 H 0.5548 0.0881 0.3295
C86 C 0.5815(5) 0.1361(3) 0.3039(4)
C87 C 0.6041(5) 0.1706(3) 0.3195(4)
H114 H 0.6121 0.1885 0.2966
C88 C 0.6146(5) 0.1783(3) 0.3686(4)
C89 C 0.5743(13) 0.0927(4) 0.4251(7)
H115 H 0.5607 0.0696 0.4096
H116 H 0.6201 0.0901 0.4469
H117 H 0.5365 0.1005 0.4439
C90 C 0.6351(7) 0.2151(4) 0.3858(5)
H118 H 0.6430 0.2301 0.3581
H119 H 0.5963 0.2254 0.4016
H120 H 0.6797 0.2141 0.4091
N15 N -0.0475(5) 0.2004(3) -0.0175(4)
N16 N 0.3096(5) 0.38537(19) 0.0443(3)
N17 N 0.1859(4) 0.26685(18) 0.0209(3)
N18 N 0.3089(4) 0.2510(2) 0.0445(3)
N19 N 0.2210(4) 0.20560(18) 0.0296(3)
N20 N -0.0009(4) 0.1476(2) 0.3666(3)
N21 N 0.5046(4) 0.1889(2) 0.4583(3)
N22 N 0.1717(5) 0.38843(19) 0.4121(4)
N23 N 0.2400(3) 0.20652(18) 0.4122(3)
N24 N 0.2836(4) 0.26603(17) 0.4229(3)
N25 N 0.1589(4) 0.25518(19) 0.3987(3)
N26 N 0.1764(4) 0.44624(17) 0.3436(3)
N27 N 0.2975(5) 0.4427(2) 0.1156(4)
N28 N -0.1026(5) 0.1213(2) 0.2833(3)
N29 N -0.1541(4) 0.1703(2) 0.0372(4)
N30 N 0.6014(4) 0.1534(2) 0.4016(3)
N31 N 0.7920(14) 0.0516(7) 0.1802(10)
O1 O 0.8120(12) 0.0482(6) 0.1372(8)
O2 O 0.8299(13) 0.0413(7) 0.2115(9)
O3 O 0.7278(13) 0.0657(7) 0.1801(10)
N32 N 0.3206(15) 0.0290(7) 0.0206(10)
O4 O 0.3049(16) 0.0552(8) 0.0035(11)
O5 O 0.3756(19) 0.0249(10) 0.0410(14)
O6 O 0.281(2) 0.0063(10) 0.0170(16)
N33 N 0.5020(12) 0.1640(6) -0.0384(9)
O7 O 0.4400(13) 0.1683(7) -0.0484(9)
O8 O 0.5378(19) 0.1879(10) -0.0229(16)
O9 O 0.5277(19) 0.1359(9) -0.0428(15)
O10 O 0.7143(14) 0.0671(7) 0.0654(9)
O11 O 0.9548(14) 0.0102(7) 0.1974(9)
C91 C 0.3437(15) 0.2396(7) 0.1679(8)
C92 C 0.2816(16) 0.2196(5) 0.1524(7)
C93 C 0.2231(16) 0.2434(6) 0.1415(9)
C94 C 0.2466(14) 0.2778(5) 0.1492(8)
C95 C 0.3229(14) 0.2770(6) 0.1662(7)
C96 C 0.4043(16) 0.2277(8) 0.1934(8)
C97 C 0.410(2) 0.1906(8) 0.1944(14)
H121 H 0.4555 0.1794 0.2010
C98 C 0.3424(16) 0.1684(7) 0.1849(7)
H122 H 0.3432 0.1436 0.1923
C99 C 0.2784(13) 0.1855(6) 0.1647(7)
C100 C 0.2082(15) 0.1722(6) 0.1557(7)
H123 H 0.2007 0.1471 0.1577
C101 C 0.1447(15) 0.1960(5) 0.1429(6)
H124 H 0.0980 0.1854 0.1380
C102 C 0.1497(14) 0.2330(5) 0.1378(6)
C103 C 0.1049(16) 0.2627(7) 0.1359(8)
H125 H 0.0544 0.2582 0.1304
C104 C 0.1277(13) 0.3009(8) 0.1415(13)
H126 H 0.0945 0.3204 0.1388
C105 C 0.2027(12) 0.3055(5) 0.1513(6)
C106 C 0.2401(17) 0.3360(5) 0.1696(11)
H127 H 0.2143 0.3579 0.1692
C107 C 0.3184(16) 0.3359(6) 0.1899(8)
H128 H 0.3419 0.3565 0.2048
C108 C 0.3548(15) 0.3041(6) 0.1857(8)
C109 C 0.4297(19) 0.2958(10) 0.2180(12)
H129 H 0.4590 0.3128 0.2372
C110 C 0.4467(17) 0.2571(12) 0.2133(12)
H130 H 0.4950 0.2510 0.2261
C111 C 0.1489(11) 0.2652(5) 0.2707(6)
C112 C 0.1627(13) 0.2993(6) 0.2760(7)
H131 H 0.1233 0.3155 0.2701
C113 C 0.2340(14) 0.3141(5) 0.2903(7)
H132 H 0.2417 0.3393 0.2913
C114 C 0.2966(14) 0.2881(6) 0.3037(7)
C115 C 0.2772(11) 0.2525(5) 0.2985(5)
C116 C 0.2125(11) 0.2397(5) 0.2846(6)
C117 C 0.1919(11) 0.2020(5) 0.2790(5)
C118 C 0.2554(12) 0.1775(6) 0.2904(6)
H133 H 0.2495 0.1523 0.2887
C119 C 0.3184(11) 0.1916(5) 0.3027(6)
H134 H 0.3585 0.1757 0.3067
C120 C 0.3336(11) 0.2284(6) 0.3107(5)
C121 C 0.0832(11) 0.2490(5) 0.2534(7)
C122 C 0.1245(12) 0.1876(5) 0.2613(6)
C123 C 0.3560(16) 0.3017(8) 0.3161(13)
C124 C 0.4053(13) 0.2415(8) 0.3279(9)
C125 C -0.0018(15) 0.1993(9) 0.2284(10)
H135 H 0.0009 0.1731 0.2280
H136 H -0.0376 0.2069 0.2488
H137 H -0.0159 0.2082 0.1952
C126 C 0.4971(14) 0.2923(8) 0.3588(14)
H138 H 0.4967 0.3185 0.3607
H139 H 0.5090 0.2822 0.3915
H140 H 0.5334 0.2846 0.3388
N34 N 0.0715(10) 0.2145(5) 0.2488(7)
N35 N 0.4148(13) 0.2776(7) 0.3335(8)
O12 O 0.0291(9) 0.2709(5) 0.2379(7)
O13 O 0.1089(11) 0.1567(4) 0.2583(6)
O14 O 0.3778(13) 0.3340(6) 0.3248(8)
O15 O 0.4613(10) 0.2188(7) 0.3394(7)
N36 N 0.3780(8) 0.5236(4) 0.1683(5)
O16 O 0.3201(7) 0.5275(3) 0.1448(4)
O17 O 0.4299(8) 0.5118(4) 0.1472(5)
O18 O 0.3890(8) 0.5297(4) 0.2130(5)
N37 N 0.6437(12) 0.2213(6) 0.0292(8)
O19 O 0.6574(8) 0.2359(4) -0.0088(5)
O20 O 0.6111(10) 0.2345(5) 0.0565(7)
O21 O 0.6650(18) 0.1883(10) 0.0338(12)
N38 N 0.3114(15) 0.4000(7) 0.8865(10)
O22 O 0.2772(9) 0.3986(4) 0.9150(6)
O23 O 0.3859(15) 0.4059(7) 0.8806(10)
O24 O 0.266(2) 0.4017(10) 0.8418(14)
N39 N 0.2444(12) 0.5544(6) 0.9814(8)
O25 O 0.2295(10) 0.5228(5) 0.9912(6)
O26 O 0.2180(18) 0.5792(10) 0.9540(12)
O27 O 0.2955(14) 0.5685(7) 1.0116(9)
N40 N 0.4553(8) 0.5914(4) 0.9439(5)
O28 O 0.4630(7) 0.5589(3) 0.9405(4)
O29 O 0.4963(8) 0.6084(4) 0.9758(5)
O30 O 0.4092(19) 0.6053(10) 0.9084(13)
N41 N 0.8177(8) 0.2970(4) 0.9235(5)
O31 O 0.8017(7) 0.2804(4) 0.9569(5)
O32 O 0.8036(7) 0.3301(4) 0.9184(5)
O33 O 0.8455(9) 0.2803(4) 0.8885(6)
N42 N 0.9407(9) 0.1724(4) 0.5162(5)
O34 O 0.9571(11) 0.1784(5) 0.4762(6)
O35 O 0.9092(10) 0.1445(5) 0.5243(6)
O36 O 0.9525(16) 0.1949(6) 0.5489(8)
N43 N 0.9241(17) 0.3803(10) 0.3963(13)
O37 O 0.9637(17) 0.3972(9) 0.4237(11)
O38 O 0.945(3) 0.3557(15) 0.3758(18)
O39 O 0.863(3) 0.389(2) 0.388(3)
N44 N 0.0723(11) 0.4024(6) 0.5792(7)
O40 O 0.0164(10) 0.4090(6) 0.5483(7)
O41 O 0.0690(16) 0.4055(10) 0.6250(10)
O42 O 0.1322(15) 0.3928(9) 0.5652(10)
O43 O 0.7220(7) 0.0779(3) 0.2766(5)
O44 O 0.0660(10) 0.0902(5) 0.4865(7)
O45 O 0.9376(9) 0.0158(5) 0.3641(6)
O46 O 0.9714(14) 0.2074(7) 0.8377(10)
O47 O 0.868(2) 0.2555(11) 0.7906(14)
O48 O 0.725(2) 0.1020(11) 0.8939(14)
O49 O 0.985(2) 0.0783(10) 0.5635(13)
O50 O 0.3689(16) 0.5389(8) 0.8520(10)
O51 O 0.907(2) 0.1769(11) 0.6370(14)
O52 O 0.0034(17) 0.3536(9) 0.2135(11)
O53 O 0.0264(16) 0.4094(8) 0.1601(11)
O54 O 0.4284(16) 0.3984(8) 0.2935(11)
O55 O 0.4347(19) 0.4915(10) 0.7993(12)
O56 O 0.5004(16) 0.2101(8) 0.6045(10)
O57 O 0.128(2) 0.4728(12) 0.9488(15)
O58 O 0.151(2) 0.4685(12) 0.7966(15)
O59 O 0.406(3) 0.4020(17) 0.427(2)
O60 O 0.665(3) 0.2484(17) 0.154(2)
O61 O 0.613(3) 0.2777(14) 0.2747(18)
O62 O 0.149(2) 0.4059(11) 0.7154(14)
O63 O 0.825(2) 0.2322(13) 0.6812(16)
O64 O 0.4194(15) 0.5115(8) 0.3132(10)
O65 O 0.544(3) 0.3827(15) 0.2506(19)
Pd7? Pd 0.54591(11) 0.10760(9) 0.07488(7)
N45? N 0.6258(18) 0.0712(13) 0.0780(8)
H141? H 0.6587 0.0742 0.1052
H142? H 0.6082 0.0485 0.0775
N46? N 0.5358(15) 0.0990(13) 0.0026(8)
H143? H 0.4899 0.0922 -0.0090
H144? H 0.5460 0.1194 -0.0130
C127? C 0.6601(17) 0.0796(15) 0.0308(11)
H145? H 0.7007 0.0634 0.0267
H146? H 0.6752 0.1049 0.0289
C128? C 0.587(2) 0.0704(15) -0.0059(12)
H147? H 0.5963 0.0706 -0.0401
H148? H 0.5680 0.0466 0.0014
N47? N 0.4642(10) 0.1429(6) 0.0644(7)
C129? C 0.4771(9) 0.1781(6) 0.0719(8)
H149? H 0.5248 0.1859 0.0838
C130? C 0.4227(9) 0.2032(6) 0.0627(7)
H150? H 0.4348 0.2278 0.0666
C131? C 0.3520(13) 0.1941(6) 0.0481(11)
C132? C 0.3396(12) 0.1581(8) 0.0456(14)
H151? H 0.2914 0.1494 0.0386
C133? C 0.3968(13) 0.1337(6) 0.0532(10)
H152? H 0.3857 0.1088 0.0499
N48? N 0.5612(11) 0.1145(6) 0.1495(7)
C134? C 0.6112(12) 0.1373(6) 0.1704(7)
C135? C 0.6209(16) 0.1459(8) 0.2168(7)
H153? H 0.6539 0.1643 0.2287
C136? C 0.5812(11) 0.1272(5) 0.2487(7)
C137? C 0.5232(18) 0.1057(8) 0.2267(9)
H154? H 0.4895 0.0957 0.2453
C138? C 0.5170(15) 0.0998(6) 0.1770(7)
C139? C 0.6617(10) 0.1541(9) 0.1370(7)
H155? H 0.6960 0.1703 0.1560
H156? H 0.6881 0.1350 0.1229
H157? H 0.6327 0.1675 0.1108
C140? C 0.463(3) 0.0750(11) 0.1517(13)
H158? H 0.4331 0.0655 0.1747
H159? H 0.4328 0.0877 0.1255
H160? H 0.4881 0.0552 0.1379
N49? N 0.119(2) 0.4446(7) 0.4855(10)
H161? H 0.0926 0.4251 0.4923
H162? H 0.1599 0.4456 0.5073
N50? N 0.1117(12) 0.4905(6) 0.4095(9)
H163? H 0.1400 0.5040 0.3924
H164? H 0.0657 0.4916 0.3935
C141? C 0.078(3) 0.4761(10) 0.4869(14)
H165? H 0.0761 0.4827 0.5211
H166? H 0.0284 0.4720 0.4706
C142? C 0.1134(16) 0.5072(6) 0.4612(9)
H167? H 0.0844 0.5294 0.4602
H168? H 0.1634 0.5121 0.4768
N51? N 0.7794(12) 0.0542(6) 0.1532(9)
O66? O 0.7367(12) 0.0749(6) 0.1657(9)
O67? O 0.7768(11) 0.0501(5) 0.1126(8)
O68? O 0.8353(17) 0.0381(8) 0.1739(11)
O69? O 0.519(2) 0.1747(13) -0.0758(17)
O70? O 0.227(3) 0.5176(13) 0.4857(16)
O71? O 0.424(2) 0.0464(13) 0.0100(16)
O72? O 0.022(2) 0.0113(12) 0.1446(15)
N52? N 0.6161(15) 0.1784(5) 0.5427(12)
H169? H 0.6098 0.2023 0.5467
H170? H 0.5792 0.1670 0.5543
N53? N 0.715(2) 0.1570(14) 0.4958(17)
H171? H 0.7195 0.1334 0.5044
H172? H 0.7409 0.1610 0.4712
C143? C 0.6843(19) 0.1678(12) 0.5730(15)
H173? H 0.6923 0.1812 0.6040
H174? H 0.6860 0.1417 0.5797
C144? C 0.7410(16) 0.1794(11) 0.5370(13)
H175? H 0.7914 0.1736 0.5507
H176? H 0.7372 0.2052 0.5286
O73? O 1.027(3) 0.1645(15) 0.4885(19)
N54? N 0.9147(16) 0.4278(9) 0.4116(11)
O74? O 0.9748(18) 0.4145(10) 0.4240(12)
O75? O 0.898(2) 0.4564(11) 0.4290(14)
O76? O 0.871(2) 0.4124(13) 0.3809(17)
O77? O 0.187(2) 0.3962(11) 0.5463(14)
O78? O 0.0289(19) 0.4090(10) 0.5934(13)
O79? O 0.516(2) 0.1853(12) 0.6238(15)
O80? O 0.153(3) 0.4434(14) 0.8700(18)
O81? O 0.991(2) 0.0087(12) 0.5368(14)
O82? O 0.567(3) 0.2304(14) 0.1461(18)
O83? O 0.683(3) 0.2352(14) 0.2462(19)
loop_
_geom_bond_atom_site_label_1
_geom_bond_atom_site_label_2
_geom_bond_site_symmetry_1
_geom_bond_site_symmetry_2
Pd1 N7 1_555 1_555
Pd2 N5 1_555 1_555
Pd3 N13 1_555 1_555
Pd4 N9 1_555 1_555
Pd5 N11 1_555 1_555
Pd6 N1 1_555 1_555
N1 H1 1_555 1_555
H2 N1 1_555 1_555
N2 Pd6 1_555 1_555
H3 N2 1_555 1_555
H4 N2 1_555 1_555
C1 N1 1_555 1_555
H5 C1 1_555 1_555
H6 C1 1_555 1_555
C2 N2 1_555 1_555
H7 C2 1_555 1_555
H8 C2 1_555 1_555
N3 Pd6 1_555 1_555
C3 N3 1_555 1_555
H9 C3 1_555 1_555
C4 C3 1_555 1_555
H10 C4 1_555 1_555
C5 C4 1_555 1_555
C6 C5 1_555 1_555
H11 C6 1_555 1_555
C7 N3 1_555 1_555
H12 C7 1_555 1_555
N4 Pd6 1_555 1_555
C8 N4 1_555 1_555
C9 C8 1_555 1_555
H13 C9 1_555 1_555
C10 C9 1_555 1_555
C11 C10 1_555 1_555
H14 C11 1_555 1_555
C12 N4 1_555 1_555
C13 C8 1_555 1_555
H15 C13 1_555 1_555
H16 C13 1_555 1_555
H17 C13 1_555 1_555
C14 C12 1_555 1_555
H18 C14 1_555 1_555
H19 C14 1_555 1_555
H20 C14 1_555 1_555
N5 H21 1_555 1_555
H22 N5 1_555 1_555
N6 Pd2 1_555 1_555
H23 N6 1_555 1_555
H24 N6 1_555 1_555
C15 N5 1_555 1_555
H25 C15 1_555 1_555
H26 C15 1_555 1_555
C16 N6 1_555 1_555
H27 C16 1_555 1_555
H28 C16 1_555 1_555
N7 H29 1_555 1_555
H30 N7 1_555 1_555
N8 Pd1 1_555 1_555
H31 N8 1_555 1_555
H32 N8 1_555 1_555
C17 N7 1_555 1_555
H33 C17 1_555 1_555
H34 C17 1_555 1_555
C18 N8 1_555 1_555
H35 C18 1_555 1_555
H36 C18 1_555 1_555
N9 H37 1_555 1_555
H38 N9 1_555 1_555
N10 Pd4 1_555 1_555
H39 N10 1_555 1_555
H40 N10 1_555 1_555
N11 H41 1_555 1_555
H42 N11 1_555 1_555
N12 Pd5 1_555 1_555
H43 N12 1_555 1_555
H44 N12 1_555 1_555
N13 H45 1_555 1_555
H46 N13 1_555 1_555
N14 Pd3 1_555 1_555
H47 N14 1_555 1_555
H48 N14 1_555 1_555
C19 N13 1_555 1_555
H49 C19 1_555 1_555
H50 C19 1_555 1_555
C20 N14 1_555 1_555
H51 C20 1_555 1_555
H52 C20 1_555 1_555
C21 N9 1_555 1_555
H53 C21 1_555 1_555
H54 C21 1_555 1_555
C22 N10 1_555 1_555
H55 C22 1_555 1_555
H56 C22 1_555 1_555
C23 N11 1_555 1_555
H57 C23 1_555 1_555
H58 C23 1_555 1_555
C24 N12 1_555 1_555
H59 C24 1_555 1_555
H60 C24 1_555 1_555
C25 H61 1_555 1_555
C26 C25 1_555 1_555
H62 C26 1_555 1_555
C27 C26 1_555 1_555
C28 C27 1_555 1_555
H63 C28 1_555 1_555
C29 C28 1_555 1_555
H64 C29 1_555 1_555
C30 H65 1_555 1_555
C31 C30 1_555 1_555
H66 C31 1_555 1_555
C32 C31 1_555 1_555
C33 C32 1_555 1_555
H67 C33 1_555 1_555
C34 C33 1_555 1_555
H68 C34 1_555 1_555
C35 C27 1_555 1_555
C36 C32 1_555 1_555
C37 C5 1_555 1_555
C38 H69 1_555 1_555
C39 C38 1_555 1_555
H70 C39 1_555 1_555
C40 C39 1_555 1_555
C41 C40 1_555 1_555
H71 C41 1_555 1_555
C42 C41 1_555 1_555
H72 C42 1_555 1_555
C43 H73 1_555 1_555
C44 C43 1_555 1_555
H74 C44 1_555 1_555
C45 C44 1_555 1_555
C46 C45 1_555 1_555
H75 C46 1_555 1_555
C47 C46 1_555 1_555
H76 C47 1_555 1_555
C48 H77 1_555 1_555
C49 C48 1_555 1_555
H78 C49 1_555 1_555
C50 C49 1_555 1_555
C51 C50 1_555 1_555
H79 C51 1_555 1_555
C52 C51 1_555 1_555
H80 C52 1_555 1_555
C53 C40 1_555 1_555
C54 C45 1_555 1_555
C55 C50 1_555 1_555
C56 C57 1_555 1_555
C57 H81 1_555 1_555
C58 C57 1_555 1_555
C59 C58 1_555 1_555
H82 C59 1_555 1_555
C60 C59 1_555 1_555
C61 C62 1_555 1_555
C62 H83 1_555 1_555
C63 C58 1_555 1_555
C64 C63 1_555 1_555
H84 C64 1_555 1_555
C65 C64 1_555 1_555
C66 C56 1_555 1_555
H85 C66 1_555 1_555
H86 C66 1_555 1_555
H87 C66 1_555 1_555
C67 C60 1_555 1_555
H88 C67 1_555 1_555
H89 C67 1_555 1_555
H90 C67 1_555 1_555
C68 C65 1_555 1_555
H91 C68 1_555 1_555
H92 C68 1_555 1_555
H93 C68 1_555 1_555
C69 C61 1_555 1_555
H94 C69 1_555 1_555
H95 C69 1_555 1_555
H96 C69 1_555 1_555
C70 C71 1_555 1_555
C71 H97 1_555 1_555
C72 C71 1_555 1_555
C73 C72 1_555 1_555
H98 C73 1_555 1_555
C74 C73 1_555 1_555
C75 C76 1_555 1_555
C76 H99 1_555 1_555
C77 C72 1_555 1_555
C78 C77 1_555 1_555
H100 C78 1_555 1_555
C79 C78 1_555 1_555
C80 C70 1_555 1_555
H101 C80 1_555 1_555
H102 C80 1_555 1_555
H103 C80 1_555 1_555
C81 C74 1_555 1_555
H104 C81 1_555 1_555
H105 C81 1_555 1_555
H106 C81 1_555 1_555
C82 C75 1_555 1_555
H107 C82 1_555 1_555
H108 C82 1_555 1_555
H109 C82 1_555 1_555
C83 C79 1_555 1_555
H110 C83 1_555 1_555
H111 C83 1_555 1_555
H112 C83 1_555 1_555
C84 C85 1_555 1_555
C85 H113 1_555 1_555
C86 C10 1_555 1_555
C87 C86 1_555 1_555
H114 C87 1_555 1_555
C88 C87 1_555 1_555
C89 C84 1_555 1_555
H115 C89 1_555 1_555
H116 C89 1_555 1_555
H117 C89 1_555 1_555
C90 C88 1_555 1_555
H118 C90 1_555 1_555
H119 C90 1_555 1_555
H120 C90 1_555 1_555
N15 Pd5 1_555 1_555
N16 Pd1 1_555 1_555
N17 C35 1_555 1_555
N18 C36 1_555 1_555
N19 C35 1_555 1_555
N20 Pd4 1_555 1_555
N21 Pd3 1_555 1_555
N22 Pd2 1_555 1_555
N23 C53 1_555 1_555
N24 C54 1_555 1_555
N25 C53 1_555 1_555
N26 Pd2 1_555 1_555
N27 Pd1 1_555 1_555
N28 Pd4 1_555 1_555
N29 Pd5 1_555 1_555
N30 Pd3 1_555 1_555
N31 O1 1_555 1_555
O2 N31 1_555 1_555
O3 N31 1_555 1_555
N32 O4 1_555 1_555
O5 N32 1_555 1_555
O6 N32 1_555 1_555
N33 O7 1_555 1_555
O8 N33 1_555 1_555
O9 N33 1_555 1_555
C91 C92 1_555 1_555
C92 C93 1_555 1_555
C93 C94 1_555 1_555
C94 C95 1_555 1_555
C95 C91 1_555 1_555
C96 C91 1_555 1_555
C97 C96 1_555 1_555
H121 C97 1_555 1_555
C98 C97 1_555 1_555
H122 C98 1_555 1_555
C99 C92 1_555 1_555
C100 C99 1_555 1_555
H123 C100 1_555 1_555
C101 C100 1_555 1_555
H124 C101 1_555 1_555
C102 C93 1_555 1_555
C103 C102 1_555 1_555
H125 C103 1_555 1_555
C104 C103 1_555 1_555
H126 C104 1_555 1_555
C105 C94 1_555 1_555
C106 C105 1_555 1_555
H127 C106 1_555 1_555
C107 C106 1_555 1_555
H128 C107 1_555 1_555
C108 C95 1_555 1_555
C109 C108 1_555 1_555
H129 C109 1_555 1_555
C110 C96 1_555 1_555
H130 C110 1_555 1_555
C111 C112 1_555 1_555
C112 H131 1_555 1_555
C113 C112 1_555 1_555
H132 C113 1_555 1_555
C114 C113 1_555 1_555
C115 C114 1_555 1_555
C116 C111 1_555 1_555
C117 C116 1_555 1_555
C118 C117 1_555 1_555
H133 C118 1_555 1_555
C119 C118 1_555 1_555
H134 C119 1_555 1_555
C120 C115 1_555 1_555
C121 C111 1_555 1_555
C122 C117 1_555 1_555
C123 C114 1_555 1_555
C124 C120 1_555 1_555
C125 H135 1_555 1_555
H136 C125 1_555 1_555
H137 C125 1_555 1_555
C126 H138 1_555 1_555
H139 C126 1_555 1_555
H140 C126 1_555 1_555
N34 C121 1_555 1_555
N35 C123 1_555 1_555
O12 C121 1_555 1_555
O13 C122 1_555 1_555
O14 C123 1_555 1_555
O15 C124 1_555 1_555
N36 O16 1_555 1_555
O17 N36 1_555 1_555
O18 N36 1_555 1_555
N37 O19 1_555 1_555
O20 N37 1_555 1_555
O21 N37 1_555 1_555
N38 O22 1_555 1_555
O23 N38 1_555 1_555
O24 N38 1_555 1_555
N39 O25 1_555 1_555
O26 N39 1_555 1_555
O27 N39 1_555 1_555
N40 O28 1_555 1_555
O29 N40 1_555 1_555
O30 N40 1_555 1_555
N41 O31 1_555 1_555
O32 N41 1_555 1_555
O33 N41 1_555 1_555
N42 O34 1_555 1_555
O35 N42 1_555 1_555
O36 N42 1_555 1_555
N43 O37 1_555 1_555
O38 N43 1_555 1_555
O39 N43 1_555 1_555
N44 O40 1_555 1_555
O41 N44 1_555 1_555
O42 N44 1_555 1_555
C1 C2 1_555 1_555
C6 C7 1_555 1_555
C11 C12 1_555 1_555
C15 C16 1_555 1_555
C17 C18 1_555 1_555
C19 C20 1_555 1_555
C21 C22 1_555 1_555
C23 C24 1_555 1_555
C25 N15 1_555 1_555
C29 N15 1_555 1_555
C30 N16 1_555 1_555
C34 N16 1_555 1_555
C36 N17 1_555 1_555
C37 N18 1_555 1_555
C37 N19 1_555 1_555
C38 N20 1_555 1_555
C42 N20 1_555 1_555
C43 N21 1_555 1_555
C47 N21 1_555 1_555
C48 N22 1_555 1_555
C52 N22 1_555 1_555
C54 N23 1_555 1_555
C55 N24 1_555 1_555
C55 N25 1_555 1_555
C56 N26 1_555 1_555
C60 N26 1_555 1_555
C61 N27 1_555 1_555
C62 C63 1_555 1_555
C65 N27 1_555 1_555
C70 N28 1_555 1_555
C74 N28 1_555 1_555
C75 N29 1_555 1_555
C76 C77 1_555 1_555
C79 N29 1_555 1_555
C84 N30 1_555 1_555
C85 C86 1_555 1_555
C88 N30 1_555 1_555
C98 C99 1_555 1_555
C101 C102 1_555 1_555
C104 C105 1_555 1_555
C107 C108 1_555 1_555
C109 C110 1_555 1_555
C115 C116 1_555 1_555
C119 C120 1_555 1_555
C122 N34 1_555 1_555
C124 N35 1_555 1_555
C125 N34 1_555 1_555
C126 N35 1_555 1_555

#END
