# generated using pymatgen
data_H164Pd9C166Br4N40O57
_symmetry_space_group_name_H-M   'P 1'
_cell_length_a   19.33000000
_cell_length_b   27.20680000
_cell_length_c   37.40230000
_cell_angle_alpha   90.00000000
_cell_angle_beta   90.00000000
_cell_angle_gamma   101.22800000
_symmetry_Int_Tables_number   1
_chemical_formula_structural   H164Pd9C166Br4N40O57
_chemical_formula_sum   'H656 Pd36 C664 Br16 N160 O228'
_cell_volume   19293.66366954
_cell_formula_units_Z   4
loop_
 _symmetry_equiv_pos_site_id
 _symmetry_equiv_pos_as_xyz
  1  'x, y, z'
loop_
 _atom_site_type_symbol
 _atom_site_label
 _atom_site_symmetry_multiplicity
 _atom_site_fract_x
 _atom_site_fract_y
 _atom_site_fract_z
 _atom_site_occupancy
  H  H1  1  0.660200  0.642900  0.653000  1
  H  H2  1  0.339800  0.857100  0.153000  1
  H  H3  1  0.339800  0.357100  0.347000  1
  H  H4  1  0.660200  0.142900  0.847000  1
  H  H5  1  0.814000  0.678100  0.634600  1
  H  H6  1  0.186000  0.821900  0.134600  1
  H  H7  1  0.186000  0.321900  0.365400  1
  H  H8  1  0.814000  0.178100  0.865400  1
  H  H9  1  0.912700  0.685600  0.663300  1
  H  H10  1  0.087300  0.814400  0.163300  1
  H  H11  1  0.087300  0.314400  0.336700  1
  H  H12  1  0.912700  0.185600  0.836700  1
  H  H13  1  0.822100  0.685400  0.868600  1
  H  H14  1  0.177900  0.814600  0.368600  1
  H  H15  1  0.177900  0.314600  0.131400  1
  H  H16  1  0.822100  0.185400  0.631400  1
  H  H17  1  0.709300  0.654800  0.871000  1
  H  H18  1  0.290700  0.845200  0.371000  1
  H  H19  1  0.290700  0.345200  0.129000  1
  H  H20  1  0.709300  0.154800  0.629000  1
  H  H21  1  0.581000  0.627900  0.820500  1
  H  H22  1  0.419000  0.872100  0.320500  1
  H  H23  1  0.419000  0.372100  0.179500  1
  H  H24  1  0.581000  0.127900  0.679500  1
  H  H25  1  0.539300  0.626600  0.767000  1
  H  H26  1  0.460700  0.873400  0.267000  1
  H  H27  1  0.460700  0.373400  0.233000  1
  H  H28  1  0.539300  0.126600  0.733000  1
  H  H29  1  0.789100  0.803100  0.651300  1
  H  H30  1  0.210900  0.696900  0.151300  1
  H  H31  1  0.210900  0.196900  0.348700  1
  H  H32  1  0.789100  0.303100  0.848700  1
  H  H33  1  0.641400  0.766900  0.632200  1
  H  H34  1  0.358600  0.733100  0.132200  1
  H  H35  1  0.358600  0.233100  0.367800  1
  H  H36  1  0.641400  0.266900  0.867800  1
  H  H37  1  0.548000  0.759300  0.662900  1
  H  H38  1  0.452000  0.740700  0.162900  1
  H  H39  1  0.452000  0.240700  0.337100  1
  H  H40  1  0.548000  0.259300  0.837100  1
  H  H41  1  0.670000  0.762100  0.865300  1
  H  H42  1  0.330000  0.737900  0.365300  1
  H  H43  1  0.330000  0.237900  0.134700  1
  H  H44  1  0.670000  0.262100  0.634700  1
  H  H45  1  0.779100  0.801100  0.873200  1
  H  H46  1  0.220900  0.698900  0.373200  1
  H  H47  1  0.220900  0.198900  0.126800  1
  H  H48  1  0.779100  0.301100  0.626800  1
  H  H49  1  0.871600  0.828800  0.818100  1
  H  H50  1  0.128400  0.671200  0.318100  1
  H  H51  1  0.128400  0.171200  0.181900  1
  H  H52  1  0.871600  0.328800  0.681900  1
  H  H53  1  0.908400  0.816200  0.764600  1
  H  H54  1  0.091600  0.683800  0.264600  1
  H  H55  1  0.091600  0.183800  0.235400  1
  H  H56  1  0.908400  0.316200  0.735400  1
  H  H57  1  0.214700  0.465300  0.688400  1
  H  H58  1  0.785300  0.034700  0.188400  1
  H  H59  1  0.785300  0.534700  0.311600  1
  H  H60  1  0.214700  0.965300  0.811600  1
  H  H61  1  0.241100  0.437800  0.658800  1
  H  H62  1  0.758900  0.062200  0.158800  1
  H  H63  1  0.758900  0.562200  0.341200  1
  H  H64  1  0.241100  0.937800  0.841200  1
  H  H65  1  0.176600  0.375700  0.690300  1
  H  H66  1  0.823400  0.124300  0.190300  1
  H  H67  1  0.823400  0.624300  0.309700  1
  H  H68  1  0.176600  0.875700  0.809700  1
  H  H69  1  0.205100  0.402600  0.726900  1
  H  H70  1  0.794900  0.097400  0.226900  1
  H  H71  1  0.794900  0.597400  0.273100  1
  H  H72  1  0.205100  0.902600  0.773100  1
  H  H73  1  0.262900  0.334400  0.721000  1
  H  H74  1  0.737100  0.165600  0.221000  1
  H  H75  1  0.737100  0.665600  0.279000  1
  H  H76  1  0.262900  0.834400  0.779000  1
  H  H77  1  0.284600  0.349000  0.680200  1
  H  H78  1  0.715400  0.151000  0.180200  1
  H  H79  1  0.715400  0.651000  0.319800  1
  H  H80  1  0.284600  0.849000  0.819800  1
  H  H81  1  0.380200  0.385500  0.709200  1
  H  H82  1  0.619800  0.114500  0.209200  1
  H  H83  1  0.619800  0.614500  0.290800  1
  H  H84  1  0.380200  0.885500  0.790800  1
  H  H85  1  0.342500  0.396300  0.741300  1
  H  H86  1  0.657500  0.103700  0.241300  1
  H  H87  1  0.657500  0.603700  0.258700  1
  H  H88  1  0.342500  0.896300  0.758700  1
  H  H89  1  0.079800  0.611600  0.545600  1
  H  H90  1  0.920200  0.888400  0.045600  1
  H  H91  1  0.920200  0.388400  0.454400  1
  H  H92  1  0.079800  0.111600  0.954400  1
  H  H93  1  0.122100  0.581700  0.566000  1
  H  H94  1  0.877900  0.918300  0.066000  1
  H  H95  1  0.877900  0.418300  0.434000  1
  H  H96  1  0.122100  0.081700  0.934000  1
  H  H97  1  0.097000  0.537700  0.516000  1
  H  H98  1  0.903000  0.962300  0.016000  1
  H  H99  1  0.903000  0.462300  0.484000  1
  H  H100  1  0.097000  0.037700  0.984000  1
  H  H101  1  0.016100  0.544600  0.518200  1
  H  H102  1  0.983900  0.955400  0.018200  1
  H  H103  1  0.983900  0.455400  0.481800  1
  H  H104  1  0.016100  0.044600  0.981800  1
  H  H105  1  0.022400  0.461700  0.544600  1
  H  H106  1  0.977600  0.038300  0.044600  1
  H  H107  1  0.977600  0.538300  0.455400  1
  H  H108  1  0.022400  0.961700  0.955400  1
  H  H109  1  0.082300  0.488100  0.571900  1
  H  H110  1  0.917700  0.011900  0.071900  1
  H  H111  1  0.917700  0.511900  0.428100  1
  H  H112  1  0.082300  0.988100  0.928100  1
  H  H113  1  0.983300  0.481200  0.604200  1
  H  H114  1  0.016700  0.018800  0.104200  1
  H  H115  1  0.016700  0.518800  0.395800  1
  H  H116  1  0.983300  0.981200  0.895800  1
  H  H117  1  0.940100  0.493400  0.574100  1
  H  H118  1  0.059900  0.006600  0.074100  1
  H  H119  1  0.059900  0.506600  0.425900  1
  H  H120  1  0.940100  0.993400  0.925900  1
  H  H121  1  0.850000  0.466400  0.923900  1
  H  H122  1  0.150000  0.033600  0.423900  1
  H  H123  1  0.150000  0.533600  0.076100  1
  H  H124  1  0.850000  0.966400  0.576100  1
  H  H125  1  0.921200  0.497600  0.927500  1
  H  H126  1  0.078800  0.002400  0.427500  1
  H  H127  1  0.078800  0.502400  0.072500  1
  H  H128  1  0.921200  0.997600  0.572500  1
  H  H129  1  0.917000  0.444800  0.973300  1
  H  H130  1  0.083000  0.055200  0.473300  1
  H  H131  1  0.083000  0.555200  0.026700  1
  H  H132  1  0.917000  0.944800  0.526700  1
  H  H133  1  0.837600  0.450400  0.982200  1
  H  H134  1  0.162400  0.049600  0.482200  1
  H  H135  1  0.162400  0.549600  0.017800  1
  H  H136  1  0.837600  0.950400  0.517800  1
  H  H137  1  0.915000  0.501600  0.024000  1
  H  H138  1  0.085000  0.998400  0.524000  1
  H  H139  1  0.085000  0.498400  0.976000  1
  H  H140  1  0.915000  0.001600  0.476000  1
  H  H141  1  0.960100  0.530600  0.991400  1
  H  H142  1  0.039900  0.969400  0.491400  1
  H  H143  1  0.039900  0.469400  0.008600  1
  H  H144  1  0.960100  0.030600  0.508600  1
  H  H145  1  0.879400  0.577400  0.004200  1
  H  H146  1  0.120600  0.922600  0.504200  1
  H  H147  1  0.120600  0.422600  0.995800  1
  H  H148  1  0.879400  0.077400  0.495800  1
  H  H149  1  0.821300  0.533800  0.008400  1
  H  H150  1  0.178700  0.966200  0.508400  1
  H  H151  1  0.178700  0.466200  0.991600  1
  H  H152  1  0.821300  0.033800  0.491600  1
  H  H153  1  0.639400  0.001300  0.930100  1
  H  H154  1  0.360600  0.498700  0.430100  1
  H  H155  1  0.360600  0.998700  0.069900  1
  H  H156  1  0.639400  0.501300  0.569900  1
  H  H157  1  0.571200  0.966400  0.925100  1
  H  H158  1  0.428800  0.533600  0.425100  1
  H  H159  1  0.428800  0.033600  0.074900  1
  H  H160  1  0.571200  0.466400  0.574900  1
  H  H161  1  0.624200  0.012500  0.987600  1
  H  H162  1  0.375800  0.487500  0.487600  1
  H  H163  1  0.375800  0.987500  0.012400  1
  H  H164  1  0.624200  0.512500  0.512400  1
  H  H165  1  0.547000  0.010500  0.971500  1
  H  H166  1  0.453000  0.489500  0.471500  1
  H  H167  1  0.453000  0.989500  0.028500  1
  H  H168  1  0.547000  0.510500  0.528500  1
  H  H169  1  0.515400  0.928200  0.987000  1
  H  H170  1  0.484600  0.571800  0.487000  1
  H  H171  1  0.484600  0.071800  0.013000  1
  H  H172  1  0.515400  0.428200  0.513000  1
  H  H173  1  0.545100  0.961200  0.021600  1
  H  H174  1  0.454900  0.538800  0.521600  1
  H  H175  1  0.454900  0.038800  0.978400  1
  H  H176  1  0.545100  0.461200  0.478400  1
  H  H177  1  0.608700  0.889100  0.010200  1
  H  H178  1  0.391300  0.610900  0.510200  1
  H  H179  1  0.391300  0.110900  0.989800  1
  H  H180  1  0.608700  0.389100  0.489800  1
  H  H181  1  0.658500  0.937400  0.014200  1
  H  H182  1  0.341500  0.562600  0.514200  1
  H  H183  1  0.341500  0.062600  0.985800  1
  H  H184  1  0.658500  0.437400  0.485800  1
  H  H185  1  0.405300  0.957200  0.631300  1
  H  H186  1  0.594700  0.542800  0.131300  1
  H  H187  1  0.594700  0.042800  0.368700  1
  H  H188  1  0.405300  0.457200  0.868700  1
  H  H189  1  0.464400  0.957100  0.606400  1
  H  H190  1  0.535600  0.542900  0.106400  1
  H  H191  1  0.535600  0.042900  0.393600  1
  H  H192  1  0.464400  0.457100  0.893600  1
  H  H193  1  0.354800  0.982500  0.582500  1
  H  H194  1  0.645200  0.517500  0.082500  1
  H  H195  1  0.645200  0.017500  0.417500  1
  H  H196  1  0.354800  0.482500  0.917500  1
  H  H197  1  0.398000  0.951800  0.557000  1
  H  H198  1  0.602000  0.548200  0.057000  1
  H  H199  1  0.602000  0.048200  0.443000  1
  H  H200  1  0.398000  0.451800  0.943000  1
  H  H201  1  0.284400  0.911200  0.555300  1
  H  H202  1  0.715600  0.588800  0.055300  1
  H  H203  1  0.715600  0.088800  0.444700  1
  H  H204  1  0.284400  0.411200  0.944700  1
  H  H205  1  0.278100  0.911900  0.598100  1
  H  H206  1  0.721900  0.588100  0.098100  1
  H  H207  1  0.721900  0.088100  0.401900  1
  H  H208  1  0.278100  0.411900  0.901900  1
  H  H209  1  0.355700  0.855100  0.558600  1
  H  H210  1  0.644300  0.644900  0.058600  1
  H  H211  1  0.644300  0.144900  0.441400  1
  H  H212  1  0.355700  0.355100  0.941400  1
  H  H213  1  0.300100  0.835700  0.584900  1
  H  H214  1  0.699900  0.664300  0.084900  1
  H  H215  1  0.699900  0.164300  0.415100  1
  H  H216  1  0.300100  0.335700  0.915100  1
  H  H217  1  0.069600  0.066300  0.676600  1
  H  H218  1  0.930400  0.433700  0.176600  1
  H  H219  1  0.930400  0.933700  0.323400  1
  H  H220  1  0.069600  0.566300  0.823400  1
  H  H221  1  0.102100  0.053700  0.710100  1
  H  H222  1  0.897900  0.446300  0.210100  1
  H  H223  1  0.897900  0.946300  0.289900  1
  H  H224  1  0.102100  0.553700  0.789900  1
  H  H225  1  0.165200  0.098700  0.652000  1
  H  H226  1  0.834800  0.401300  0.152000  1
  H  H227  1  0.834800  0.901300  0.348000  1
  H  H228  1  0.165200  0.598700  0.848000  1
  H  H229  1  0.191300  0.105000  0.692600  1
  H  H230  1  0.808700  0.395000  0.192600  1
  H  H231  1  0.808700  0.895000  0.307400  1
  H  H232  1  0.191300  0.605000  0.807400  1
  H  H233  1  0.247500  0.044500  0.689500  1
  H  H234  1  0.752500  0.455500  0.189500  1
  H  H235  1  0.752500  0.955500  0.310500  1
  H  H236  1  0.247500  0.544500  0.810500  1
  H  H237  1  0.258300  0.066900  0.650000  1
  H  H238  1  0.741700  0.433100  0.150000  1
  H  H239  1  0.741700  0.933100  0.350000  1
  H  H240  1  0.258300  0.566900  0.850000  1
  H  H241  1  0.218000  0.976500  0.659200  1
  H  H242  1  0.782000  0.523500  0.159200  1
  H  H243  1  0.782000  0.023500  0.340800  1
  H  H244  1  0.218000  0.476500  0.840800  1
  H  H245  1  0.192700  0.000600  0.627800  1
  H  H246  1  0.807300  0.499400  0.127800  1
  H  H247  1  0.807300  0.999400  0.372200  1
  H  H248  1  0.192700  0.500600  0.872200  1
  H  H249  1  0.488500  0.498900  0.659000  1
  H  H250  1  0.511500  0.001100  0.159000  1
  H  H251  1  0.511500  0.501100  0.341000  1
  H  H252  1  0.488500  0.998900  0.841000  1
  H  H253  1  0.607000  0.520000  0.673000  1
  H  H254  1  0.393000  0.980000  0.173000  1
  H  H255  1  0.393000  0.480000  0.327000  1
  H  H256  1  0.607000  0.020000  0.827000  1
  H  H257  1  0.555100  0.504000  0.778200  1
  H  H258  1  0.444900  0.996000  0.278200  1
  H  H259  1  0.444900  0.496000  0.221800  1
  H  H260  1  0.555100  0.004000  0.721800  1
  H  H261  1  0.436900  0.478400  0.761100  1
  H  H262  1  0.563100  0.021600  0.261100  1
  H  H263  1  0.563100  0.521600  0.238900  1
  H  H264  1  0.436900  0.978400  0.738900  1
  H  H265  1  0.862100  0.547100  0.608700  1
  H  H266  1  0.137900  0.952900  0.108700  1
  H  H267  1  0.137900  0.452900  0.391300  1
  H  H268  1  0.862100  0.047100  0.891300  1
  H  H269  1  0.774100  0.538100  0.651400  1
  H  H270  1  0.225900  0.961900  0.151400  1
  H  H271  1  0.225900  0.461900  0.348600  1
  H  H272  1  0.774100  0.038100  0.848600  1
  H  H273  1  0.924900  0.572000  0.727400  1
  H  H274  1  0.075100  0.928000  0.227400  1
  H  H275  1  0.075100  0.428000  0.272600  1
  H  H276  1  0.924900  0.072000  0.772600  1
  H  H277  1  0.007300  0.581400  0.682500  1
  H  H278  1  0.992700  0.918600  0.182500  1
  H  H279  1  0.992700  0.418600  0.317500  1
  H  H280  1  0.007300  0.081400  0.817500  1
  H  H281  1  0.707900  0.533500  0.898400  1
  H  H282  1  0.292100  0.966500  0.398400  1
  H  H283  1  0.292100  0.466500  0.101600  1
  H  H284  1  0.707900  0.033500  0.601600  1
  H  H285  1  0.672000  0.530400  0.838500  1
  H  H286  1  0.328000  0.969600  0.338500  1
  H  H287  1  0.328000  0.469600  0.161500  1
  H  H288  1  0.672000  0.030400  0.661500  1
  H  H289  1  0.878600  0.564800  0.811000  1
  H  H290  1  0.121400  0.935200  0.311000  1
  H  H291  1  0.121400  0.435200  0.189000  1
  H  H292  1  0.878600  0.064800  0.689000  1
  H  H293  1  0.906300  0.567200  0.871600  1
  H  H294  1  0.093700  0.932800  0.371600  1
  H  H295  1  0.093700  0.432800  0.128400  1
  H  H296  1  0.906300  0.067200  0.628400  1
  H  H297  1  0.574300  0.901200  0.880100  1
  H  H298  1  0.425700  0.598800  0.380100  1
  H  H299  1  0.425700  0.098800  0.119900  1
  H  H300  1  0.574300  0.401200  0.619900  1
  H  H301  1  0.592100  0.901800  0.819300  1
  H  H302  1  0.407900  0.598200  0.319300  1
  H  H303  1  0.407900  0.098200  0.180700  1
  H  H304  1  0.592100  0.401800  0.680700  1
  H  H305  1  0.801300  0.925600  0.837000  1
  H  H306  1  0.198700  0.574400  0.337000  1
  H  H307  1  0.198700  0.074400  0.163000  1
  H  H308  1  0.801300  0.425600  0.663000  1
  H  H309  1  0.776400  0.922500  0.898700  1
  H  H310  1  0.223600  0.577500  0.398700  1
  H  H311  1  0.223600  0.077500  0.101300  1
  H  H312  1  0.776400  0.422500  0.601300  1
  H  H313  1  0.565200  0.902900  0.619100  1
  H  H314  1  0.434800  0.597100  0.119100  1
  H  H315  1  0.434800  0.097100  0.380900  1
  H  H316  1  0.565200  0.402900  0.880900  1
  H  H317  1  0.659600  0.915400  0.654900  1
  H  H318  1  0.340400  0.584600  0.154900  1
  H  H319  1  0.340400  0.084600  0.345100  1
  H  H320  1  0.659600  0.415400  0.845100  1
  H  H321  1  0.529700  0.871700  0.738900  1
  H  H322  1  0.470300  0.628300  0.238900  1
  H  H323  1  0.470300  0.128300  0.261100  1
  H  H324  1  0.529700  0.371700  0.761100  1
  H  H325  1  0.436900  0.855000  0.698700  1
  H  H326  1  0.563100  0.645000  0.198700  1
  H  H327  1  0.563100  0.145000  0.301300  1
  H  H328  1  0.436900  0.355000  0.801300  1
  H  H329  1  0.941300  0.947800  0.644700  1
  H  H330  1  0.058700  0.552200  0.144700  1
  H  H331  1  0.058700  0.052200  0.355300  1
  H  H332  1  0.941300  0.447800  0.855300  1
  H  H333  1  0.827500  0.926900  0.667400  1
  H  H334  1  0.172500  0.573100  0.167400  1
  H  H335  1  0.172500  0.073100  0.332600  1
  H  H336  1  0.827500  0.426900  0.832600  1
  H  H337  1  0.909000  0.953900  0.766800  1
  H  H338  1  0.091000  0.546100  0.266800  1
  H  H339  1  0.091000  0.046100  0.233200  1
  H  H340  1  0.909000  0.453900  0.733200  1
  H  H341  1  0.020200  0.976200  0.741300  1
  H  H342  1  0.979800  0.523800  0.241300  1
  H  H343  1  0.979800  0.023800  0.258700  1
  H  H344  1  0.020200  0.476200  0.758700  1
  H  H345  1  0.338200  0.649100  0.709300  1
  H  H346  1  0.661800  0.850900  0.209300  1
  H  H347  1  0.661800  0.350900  0.290700  1
  H  H348  1  0.338200  0.149100  0.790700  1
  H  H349  1  0.376000  0.609200  0.608500  1
  H  H350  1  0.624000  0.890800  0.108500  1
  H  H351  1  0.624000  0.390800  0.391500  1
  H  H352  1  0.376000  0.109200  0.891500  1
  H  H353  1  0.324400  0.589300  0.755500  1
  H  H354  1  0.675600  0.910700  0.255500  1
  H  H355  1  0.675600  0.410700  0.244500  1
  H  H356  1  0.324400  0.089300  0.744500  1
  H  H357  1  0.285600  0.534600  0.743000  1
  H  H358  1  0.714400  0.965400  0.243000  1
  H  H359  1  0.714400  0.465400  0.257000  1
  H  H360  1  0.285600  0.034600  0.757000  1
  H  H361  1  0.369000  0.546200  0.749800  1
  H  H362  1  0.631000  0.953800  0.249800  1
  H  H363  1  0.631000  0.453800  0.250200  1
  H  H364  1  0.369000  0.046200  0.750200  1
  H  H365  1  0.371200  0.522700  0.594100  1
  H  H366  1  0.628800  0.977300  0.094100  1
  H  H367  1  0.628800  0.477300  0.405900  1
  H  H368  1  0.371200  0.022700  0.905900  1
  H  H369  1  0.401000  0.491700  0.624900  1
  H  H370  1  0.599000  0.008300  0.124900  1
  H  H371  1  0.599000  0.508300  0.375100  1
  H  H372  1  0.401000  0.991700  0.875100  1
  H  H373  1  0.317700  0.484800  0.618600  1
  H  H374  1  0.682300  0.015200  0.118600  1
  H  H375  1  0.682300  0.515200  0.381400  1
  H  H376  1  0.317700  0.984800  0.881400  1
  H  H377  1  0.138000  0.734500  0.657900  1
  H  H378  1  0.862000  0.765500  0.157900  1
  H  H379  1  0.862000  0.265500  0.342100  1
  H  H380  1  0.138000  0.234500  0.842100  1
  H  H381  1  0.976800  0.750600  0.592800  1
  H  H382  1  0.023200  0.749400  0.092800  1
  H  H383  1  0.023200  0.249400  0.407200  1
  H  H384  1  0.976800  0.250600  0.907200  1
  H  H385  1  0.177600  0.661500  0.664400  1
  H  H386  1  0.822400  0.838500  0.164400  1
  H  H387  1  0.822400  0.338500  0.335600  1
  H  H388  1  0.177600  0.161500  0.835600  1
  H  H389  1  0.116700  0.612400  0.664700  1
  H  H390  1  0.883300  0.887600  0.164700  1
  H  H391  1  0.883300  0.387600  0.335300  1
  H  H392  1  0.116700  0.112400  0.835300  1
  H  H393  1  0.167700  0.624500  0.630700  1
  H  H394  1  0.832300  0.875500  0.130700  1
  H  H395  1  0.832300  0.375500  0.369300  1
  H  H396  1  0.167700  0.124500  0.869300  1
  H  H397  1  0.908200  0.682700  0.563300  1
  H  H398  1  0.091800  0.817300  0.063300  1
  H  H399  1  0.091800  0.317300  0.436700  1
  H  H400  1  0.908200  0.182700  0.936700  1
  H  H401  1  0.953400  0.642400  0.550800  1
  H  H402  1  0.046600  0.857600  0.050800  1
  H  H403  1  0.046600  0.357600  0.449200  1
  H  H404  1  0.953400  0.142400  0.949200  1
  H  H405  1  0.901700  0.630800  0.584400  1
  H  H406  1  0.098300  0.869200  0.084400  1
  H  H407  1  0.098300  0.369200  0.415600  1
  H  H408  1  0.901700  0.130800  0.915600  1
  H  H409  1  0.661500  0.660600  0.972300  1
  H  H410  1  0.338500  0.839400  0.472300  1
  H  H411  1  0.338500  0.339400  0.027700  1
  H  H412  1  0.661500  0.160600  0.527700  1
  H  H413  1  0.852400  0.735400  0.938900  1
  H  H414  1  0.147600  0.764600  0.438900  1
  H  H415  1  0.147600  0.264600  0.061100  1
  H  H416  1  0.852400  0.235400  0.561100  1
  H  H417  1  0.643400  0.573600  0.981900  1
  H  H418  1  0.356600  0.926400  0.481900  1
  H  H419  1  0.356600  0.426400  0.018100  1
  H  H420  1  0.643400  0.073600  0.518100  1
  H  H421  1  0.682500  0.545200  0.953000  1
  H  H422  1  0.317500  0.954800  0.453000  1
  H  H423  1  0.317500  0.454800  0.047000  1
  H  H424  1  0.682500  0.045200  0.547000  1
  H  H425  1  0.713000  0.553500  0.992800  1
  H  H426  1  0.287000  0.946500  0.492800  1
  H  H427  1  0.287000  0.446500  0.007200  1
  H  H428  1  0.713000  0.053500  0.507200  1
  H  H429  1  0.941800  0.693700  0.925000  1
  H  H430  1  0.058200  0.806300  0.425000  1
  H  H431  1  0.058200  0.306300  0.075000  1
  H  H432  1  0.941800  0.193700  0.575000  1
  H  H433  1  0.941600  0.643400  0.947300  1
  H  H434  1  0.058400  0.856600  0.447300  1
  H  H435  1  0.058400  0.356600  0.052700  1
  H  H436  1  0.941600  0.143400  0.552700  1
  H  H437  1  0.913600  0.640200  0.906900  1
  H  H438  1  0.086400  0.859800  0.406900  1
  H  H439  1  0.086400  0.359800  0.093100  1
  H  H440  1  0.913600  0.140200  0.593100  1
  H  H441  1  0.816700  0.798000  0.975400  1
  H  H442  1  0.183300  0.702000  0.475400  1
  H  H443  1  0.183300  0.202000  0.024600  1
  H  H444  1  0.816700  0.298000  0.524600  1
  H  H445  1  0.625700  0.726200  0.940400  1
  H  H446  1  0.374300  0.773800  0.440400  1
  H  H447  1  0.374300  0.273800  0.059600  1
  H  H448  1  0.625700  0.226200  0.559600  1
  H  H449  1  0.767100  0.919600  0.974300  1
  H  H450  1  0.232900  0.580400  0.474300  1
  H  H451  1  0.232900  0.080400  0.025700  1
  H  H452  1  0.767100  0.419600  0.525700  1
  H  H453  1  0.807300  0.890700  0.002400  1
  H  H454  1  0.192700  0.609300  0.502400  1
  H  H455  1  0.192700  0.109300  0.997600  1
  H  H456  1  0.807300  0.390700  0.497600  1
  H  H457  1  0.835900  0.899300  0.962300  1
  H  H458  1  0.164100  0.600700  0.462300  1
  H  H459  1  0.164100  0.100700  0.037700  1
  H  H460  1  0.835900  0.399300  0.537700  1
  H  H461  1  0.537200  0.770700  0.927300  1
  H  H462  1  0.462800  0.729300  0.427300  1
  H  H463  1  0.462800  0.229300  0.072700  1
  H  H464  1  0.537200  0.270700  0.572700  1
  H  H465  1  0.538200  0.819300  0.951600  1
  H  H466  1  0.461800  0.680700  0.451600  1
  H  H467  1  0.461800  0.180700  0.048400  1
  H  H468  1  0.538200  0.319300  0.548400  1
  H  H469  1  0.565800  0.825400  0.911200  1
  H  H470  1  0.434200  0.674600  0.411200  1
  H  H471  1  0.434200  0.174600  0.088800  1
  H  H472  1  0.565800  0.325400  0.588800  1
  H  H473  1  0.293400  0.710600  0.677500  1
  H  H474  1  0.706600  0.789400  0.177500  1
  H  H475  1  0.706600  0.289400  0.322500  1
  H  H476  1  0.293400  0.210600  0.822500  1
  H  H477  1  0.451200  0.693200  0.610600  1
  H  H478  1  0.548800  0.806800  0.110600  1
  H  H479  1  0.548800  0.306800  0.389400  1
  H  H480  1  0.451200  0.193200  0.889400  1
  H  H481  1  0.306400  0.838300  0.655800  1
  H  H482  1  0.693600  0.661700  0.155800  1
  H  H483  1  0.693600  0.161700  0.344200  1
  H  H484  1  0.306400  0.338300  0.844200  1
  H  H485  1  0.242900  0.791000  0.658400  1
  H  H486  1  0.757100  0.709000  0.158400  1
  H  H487  1  0.757100  0.209000  0.341600  1
  H  H488  1  0.242900  0.291000  0.841600  1
  H  H489  1  0.295000  0.805700  0.691600  1
  H  H490  1  0.705000  0.694300  0.191600  1
  H  H491  1  0.705000  0.194300  0.308400  1
  H  H492  1  0.295000  0.305700  0.808400  1
  H  H493  1  0.519400  0.762600  0.582100  1
  H  H494  1  0.480600  0.737400  0.082100  1
  H  H495  1  0.480600  0.237400  0.417900  1
  H  H496  1  0.519400  0.262600  0.917900  1
  H  H497  1  0.474000  0.803000  0.569800  1
  H  H498  1  0.526000  0.697000  0.069800  1
  H  H499  1  0.526000  0.197000  0.430200  1
  H  H500  1  0.474000  0.303000  0.930200  1
  H  H501  1  0.525300  0.814000  0.603700  1
  H  H502  1  0.474700  0.686000  0.103700  1
  H  H503  1  0.474700  0.186000  0.396300  1
  H  H504  1  0.525300  0.314000  0.896300  1
  H  H505  1  0.039100  0.829000  0.588500  1
  H  H506  1  0.960900  0.671000  0.088500  1
  H  H507  1  0.960900  0.171000  0.411500  1
  H  H508  1  0.039100  0.329000  0.911500  1
  H  H509  1  0.098100  0.798700  0.688800  1
  H  H510  1  0.901900  0.701300  0.188800  1
  H  H511  1  0.901900  0.201300  0.311200  1
  H  H512  1  0.098100  0.298700  0.811200  1
  H  H513  1  0.036900  0.910600  0.571600  1
  H  H514  1  0.963100  0.589400  0.071600  1
  H  H515  1  0.963100  0.089400  0.428400  1
  H  H516  1  0.036900  0.410600  0.928400  1
  H  H517  1  0.011800  0.943600  0.602600  1
  H  H518  1  0.988200  0.556400  0.102600  1
  H  H519  1  0.988200  0.056400  0.397400  1
  H  H520  1  0.011800  0.443600  0.897400  1
  H  H521  1  0.093100  0.952900  0.591300  1
  H  H522  1  0.906900  0.547100  0.091300  1
  H  H523  1  0.906900  0.047100  0.408700  1
  H  H524  1  0.093100  0.452900  0.908700  1
  H  H525  1  0.113400  0.924500  0.718500  1
  H  H526  1  0.886600  0.575500  0.218500  1
  H  H527  1  0.886600  0.075500  0.281500  1
  H  H528  1  0.113400  0.424500  0.781500  1
  H  H529  1  0.072800  0.871200  0.732900  1
  H  H530  1  0.927200  0.628800  0.232900  1
  H  H531  1  0.927200  0.128800  0.267100  1
  H  H532  1  0.072800  0.371200  0.767100  1
  H  H533  1  0.155600  0.880100  0.724800  1
  H  H534  1  0.844400  0.619900  0.224800  1
  H  H535  1  0.844400  0.119900  0.275200  1
  H  H536  1  0.155600  0.380100  0.775200  1
  H  H537  1  0.579200  0.643700  0.799700  1
  H  H538  1  0.420800  0.856300  0.299700  1
  H  H539  1  0.420800  0.356300  0.200300  1
  H  H540  1  0.579200  0.143700  0.700300  1
  H  H541  1  0.676200  0.660100  0.863800  1
  H  H542  1  0.323800  0.839900  0.363800  1
  H  H543  1  0.323800  0.339900  0.136200  1
  H  H544  1  0.676200  0.160100  0.636200  1
  H  H545  1  0.785900  0.694900  0.871500  1
  H  H546  1  0.214100  0.805100  0.371500  1
  H  H547  1  0.214100  0.305100  0.128500  1
  H  H548  1  0.785900  0.194900  0.628500  1
  H  H549  1  0.978400  0.697900  0.685500  1
  H  H550  1  0.021600  0.802100  0.185500  1
  H  H551  1  0.021600  0.302100  0.314500  1
  H  H552  1  0.978400  0.197900  0.814500  1
  H  H553  1  0.891000  0.699400  0.648500  1
  H  H554  1  0.109000  0.800600  0.148500  1
  H  H555  1  0.109000  0.300600  0.351500  1
  H  H556  1  0.891000  0.199400  0.851500  1
  H  H557  1  0.729000  0.655400  0.646200  1
  H  H558  1  0.271000  0.844600  0.146200  1
  H  H559  1  0.271000  0.344600  0.353800  1
  H  H560  1  0.729000  0.155400  0.853800  1
  H  H561  1  0.629900  0.654200  0.672600  1
  H  H562  1  0.370100  0.845800  0.172600  1
  H  H563  1  0.370100  0.345800  0.327400  1
  H  H564  1  0.629900  0.154200  0.827400  1
  H  H565  1  0.841900  0.802500  0.820600  1
  H  H566  1  0.158100  0.697500  0.320600  1
  H  H567  1  0.158100  0.197500  0.179400  1
  H  H568  1  0.841900  0.302500  0.679400  1
  H  H569  1  0.739500  0.807100  0.878100  1
  H  H570  1  0.260500  0.692900  0.378100  1
  H  H571  1  0.260500  0.192900  0.121900  1
  H  H572  1  0.739500  0.307100  0.621900  1
  H  H573  1  0.638200  0.756400  0.872300  1
  H  H574  1  0.361800  0.743600  0.372300  1
  H  H575  1  0.361800  0.243600  0.127700  1
  H  H576  1  0.638200  0.256400  0.627700  1
  H  H577  1  0.505500  0.756400  0.674500  1
  H  H578  1  0.494500  0.743600  0.174500  1
  H  H579  1  0.494500  0.243600  0.325500  1
  H  H580  1  0.505500  0.256400  0.825500  1
  H  H581  1  0.591700  0.770800  0.637800  1
  H  H582  1  0.408300  0.729200  0.137800  1
  H  H583  1  0.408300  0.229200  0.362200  1
  H  H584  1  0.591700  0.270800  0.862200  1
  H  H585  1  0.733500  0.790800  0.658200  1
  H  H586  1  0.266500  0.709200  0.158200  1
  H  H587  1  0.266500  0.209200  0.341800  1
  H  H588  1  0.733500  0.290800  0.841800  1
  H  H589  1  0.823800  0.803700  0.691600  1
  H  H590  1  0.176200  0.696300  0.191600  1
  H  H591  1  0.176200  0.196300  0.308400  1
  H  H592  1  0.823800  0.303700  0.808400  1
  H  H593  1  0.095400  0.578800  0.554200  1
  H  H594  1  0.904600  0.921200  0.054200  1
  H  H595  1  0.904600  0.421200  0.445800  1
  H  H596  1  0.095400  0.078800  0.945800  1
  H  H597  1  0.153500  0.596500  0.579300  1
  H  H598  1  0.846500  0.903500  0.079300  1
  H  H599  1  0.846500  0.403500  0.420700  1
  H  H600  1  0.153500  0.096500  0.920700  1
  H  H601  1  0.185500  0.528200  0.583300  1
  H  H602  1  0.814500  0.971800  0.083300  1
  H  H603  1  0.814500  0.471800  0.416700  1
  H  H604  1  0.185500  0.028200  0.916700  1
  H  H605  1  0.149300  0.521200  0.544700  1
  H  H606  1  0.850700  0.978800  0.044700  1
  H  H607  1  0.850700  0.478800  0.455300  1
  H  H608  1  0.149300  0.021200  0.955300  1
  H  H609  1  0.056500  0.463500  0.564300  1
  H  H610  1  0.943500  0.036500  0.064300  1
  H  H611  1  0.943500  0.536500  0.435700  1
  H  H612  1  0.056500  0.963500  0.935700  1
  H  H613  1  0.110700  0.454700  0.594800  1
  H  H614  1  0.889300  0.045300  0.094800  1
  H  H615  1  0.889300  0.545300  0.405200  1
  H  H616  1  0.110700  0.954700  0.905200  1
  H  H617  1  0.046700  0.480200  0.634200  1
  H  H618  1  0.953300  0.019800  0.134200  1
  H  H619  1  0.953300  0.519800  0.365800  1
  H  H620  1  0.046700  0.980200  0.865800  1
  H  H621  1  0.990800  0.477700  0.607100  1
  H  H622  1  0.009200  0.022300  0.107100  1
  H  H623  1  0.009200  0.522300  0.392900  1
  H  H624  1  0.990800  0.977700  0.892900  1
  H  H625  1  0.697500  0.002400  0.952300  1
  H  H626  1  0.302500  0.497600  0.452300  1
  H  H627  1  0.302500  0.997600  0.047700  1
  H  H628  1  0.697500  0.502400  0.547700  1
  H  H629  1  0.632400  0.003500  0.931700  1
  H  H630  1  0.367600  0.496500  0.431700  1
  H  H631  1  0.367600  0.996500  0.068300  1
  H  H632  1  0.632400  0.503500  0.568300  1
  H  H633  1  0.625400  0.031100  0.991500  1
  H  H634  1  0.374600  0.468900  0.491500  1
  H  H635  1  0.374600  0.968900  0.008500  1
  H  H636  1  0.625400  0.531100  0.508500  1
  H  H637  1  0.561600  0.987500  0.979600  1
  H  H638  1  0.438400  0.512500  0.479600  1
  H  H639  1  0.438400  0.012500  0.020400  1
  H  H640  1  0.561600  0.487500  0.520400  1
  H  H641  1  0.597600  0.967600  0.033800  1
  H  H642  1  0.402400  0.532400  0.533800  1
  H  H643  1  0.402400  0.032400  0.966200  1
  H  H644  1  0.597600  0.467600  0.466200  1
  H  H645  1  0.678300  0.974900  0.020300  1
  H  H646  1  0.321700  0.525100  0.520300  1
  H  H647  1  0.321700  0.025100  0.979700  1
  H  H648  1  0.678300  0.474900  0.479700  1
  H  H649  1  0.565100  0.895800  0.998300  1
  H  H650  1  0.434900  0.604200  0.498300  1
  H  H651  1  0.434900  0.104200  0.001700  1
  H  H652  1  0.565100  0.395800  0.501700  1
  H  H653  1  0.637000  0.889500  0.007200  1
  H  H654  1  0.363000  0.610500  0.507200  1
  H  H655  1  0.363000  0.110500  0.992800  1
  H  H656  1  0.637000  0.389500  0.492800  1
  Pd  Pd657  1  0.344700  0.467610  0.694000  1
  Pd  Pd658  1  0.655300  0.032390  0.194000  1
  Pd  Pd659  1  0.655300  0.532390  0.306000  1
  Pd  Pd660  1  0.344700  0.967610  0.806000  1
  Pd  Pd661  1  0.835050  0.551430  0.942810  1
  Pd  Pd662  1  0.164950  0.948570  0.442810  1
  Pd  Pd663  1  0.164950  0.448570  0.057190  1
  Pd  Pd664  1  0.835050  0.051430  0.557190  1
  Pd  Pd665  1  0.410400  0.867560  0.619180  1
  Pd  Pd666  1  0.589600  0.632440  0.119180  1
  Pd  Pd667  1  0.589600  0.132440  0.380820  1
  Pd  Pd668  1  0.410400  0.367560  0.880820  1
  Pd  Pd669  1  0.089830  0.978710  0.670220  1
  Pd  Pd670  1  0.910170  0.521290  0.170220  1
  Pd  Pd671  1  0.910170  0.021290  0.329780  1
  Pd  Pd672  1  0.089830  0.478710  0.829780  1
  Pd  Pd673  1  0.007690  0.576450  0.598700  1
  Pd  Pd674  1  0.992310  0.923550  0.098700  1
  Pd  Pd675  1  0.992310  0.423550  0.401300  1
  Pd  Pd676  1  0.007690  0.076450  0.901300  1
  Pd  Pd677  1  0.658800  0.913290  0.949820  1
  Pd  Pd678  1  0.341200  0.586710  0.449820  1
  Pd  Pd679  1  0.341200  0.086710  0.050180  1
  Pd  Pd680  1  0.658800  0.413290  0.550180  1
  Pd  Pd681  1  0.356500  0.469800  0.702800  1
  Pd  Pd682  1  0.643500  0.030200  0.202800  1
  Pd  Pd683  1  0.643500  0.530200  0.297200  1
  Pd  Pd684  1  0.356500  0.969800  0.797200  1
  Pd  Pd685  1  0.045330  0.569620  0.615400  1
  Pd  Pd686  1  0.954670  0.930380  0.115400  1
  Pd  Pd687  1  0.954670  0.430380  0.384600  1
  Pd  Pd688  1  0.045330  0.069620  0.884600  1
  Pd  Pd689  1  0.635700  0.910220  0.942800  1
  Pd  Pd690  1  0.364300  0.589780  0.442800  1
  Pd  Pd691  1  0.364300  0.089780  0.057200  1
  Pd  Pd692  1  0.635700  0.410220  0.557200  1
  C  C693  1  0.619800  0.644800  0.697200  1
  C  C694  1  0.380200  0.855200  0.197200  1
  C  C695  1  0.380200  0.355200  0.302800  1
  C  C696  1  0.619800  0.144800  0.802800  1
  C  C697  1  0.670500  0.649700  0.677600  1
  C  C698  1  0.329500  0.850300  0.177600  1
  C  C699  1  0.329500  0.350300  0.322400  1
  C  C700  1  0.670500  0.149700  0.822400  1
  C  C701  1  0.752000  0.666000  0.687100  1
  C  C702  1  0.248000  0.834000  0.187100  1
  C  C703  1  0.248000  0.334000  0.312900  1
  C  C704  1  0.752000  0.166000  0.812900  1
  C  C705  1  0.769000  0.668000  0.721700  1
  C  C706  1  0.231000  0.832000  0.221700  1
  C  C707  1  0.231000  0.332000  0.278300  1
  C  C708  1  0.769000  0.168000  0.778300  1
  C  C709  1  0.709800  0.659100  0.745800  1
  C  C710  1  0.290200  0.840900  0.245800  1
  C  C711  1  0.290200  0.340900  0.254200  1
  C  C712  1  0.709800  0.159100  0.754200  1
  C  C713  1  0.641900  0.647300  0.738300  1
  C  C714  1  0.358100  0.852700  0.238300  1
  C  C715  1  0.358100  0.352700  0.261700  1
  C  C716  1  0.641900  0.147300  0.761700  1
  C  C717  1  0.817100  0.676800  0.659900  1
  C  C718  1  0.182900  0.823200  0.159900  1
  C  C719  1  0.182900  0.323200  0.340100  1
  C  C720  1  0.817100  0.176800  0.840100  1
  C  C721  1  0.871000  0.683300  0.677400  1
  C  C722  1  0.129000  0.816700  0.177400  1
  C  C723  1  0.129000  0.316700  0.322600  1
  C  C724  1  0.871000  0.183300  0.822600  1
  C  C725  1  0.886400  0.688500  0.719000  1
  C  C726  1  0.113600  0.811500  0.219000  1
  C  C727  1  0.113600  0.311500  0.281000  1
  C  C728  1  0.886400  0.188500  0.781000  1
  C  C729  1  0.833300  0.682700  0.742100  1
  C  C730  1  0.166700  0.817300  0.242100  1
  C  C731  1  0.166700  0.317300  0.257900  1
  C  C732  1  0.833300  0.182700  0.757900  1
  C  C733  1  0.843500  0.679300  0.811600  1
  C  C734  1  0.156500  0.820700  0.311600  1
  C  C735  1  0.156500  0.320700  0.188400  1
  C  C736  1  0.843500  0.179300  0.688400  1
  C  C737  1  0.813300  0.675900  0.779600  1
  C  C738  1  0.186700  0.824100  0.279600  1
  C  C739  1  0.186700  0.324100  0.220400  1
  C  C740  1  0.813300  0.175900  0.720400  1
  C  C741  1  0.797600  0.675700  0.846900  1
  C  C742  1  0.202400  0.824300  0.346900  1
  C  C743  1  0.202400  0.324300  0.153100  1
  C  C744  1  0.797600  0.175700  0.653100  1
  C  C745  1  0.733800  0.661600  0.848900  1
  C  C746  1  0.266200  0.838400  0.348900  1
  C  C747  1  0.266200  0.338400  0.151100  1
  C  C748  1  0.733800  0.161600  0.651100  1
  C  C749  1  0.695100  0.655700  0.810400  1
  C  C750  1  0.304900  0.844300  0.310400  1
  C  C751  1  0.304900  0.344300  0.189600  1
  C  C752  1  0.695100  0.155700  0.689600  1
  C  C753  1  0.737800  0.663500  0.781900  1
  C  C754  1  0.262200  0.836500  0.281900  1
  C  C755  1  0.262200  0.336500  0.218100  1
  C  C756  1  0.737800  0.163500  0.718100  1
  C  C757  1  0.612800  0.637500  0.801200  1
  C  C758  1  0.387200  0.862500  0.301200  1
  C  C759  1  0.387200  0.362500  0.198800  1
  C  C760  1  0.612800  0.137500  0.698800  1
  C  C761  1  0.588700  0.635300  0.770900  1
  C  C762  1  0.411300  0.864700  0.270900  1
  C  C763  1  0.411300  0.364700  0.229100  1
  C  C764  1  0.588700  0.135300  0.729100  1
  C  C765  1  0.823400  0.804700  0.699800  1
  C  C766  1  0.176600  0.695300  0.199800  1
  C  C767  1  0.176600  0.195300  0.300200  1
  C  C768  1  0.823400  0.304700  0.800200  1
  C  C769  1  0.774200  0.799100  0.675500  1
  C  C770  1  0.225800  0.700900  0.175500  1
  C  C771  1  0.225800  0.200900  0.324500  1
  C  C772  1  0.774200  0.299100  0.824500  1
  C  C773  1  0.698200  0.787200  0.682100  1
  C  C774  1  0.301800  0.712800  0.182100  1
  C  C775  1  0.301800  0.212800  0.317900  1
  C  C776  1  0.698200  0.287200  0.817900  1
  C  C777  1  0.677100  0.782700  0.721600  1
  C  C778  1  0.322900  0.717300  0.221600  1
  C  C779  1  0.322900  0.217300  0.278400  1
  C  C780  1  0.677100  0.282700  0.778400  1
  C  C781  1  0.736700  0.793900  0.749000  1
  C  C782  1  0.263300  0.706100  0.249000  1
  C  C783  1  0.263300  0.206100  0.251000  1
  C  C784  1  0.736700  0.293900  0.751000  1
  C  C785  1  0.814000  0.808000  0.738900  1
  C  C786  1  0.186000  0.692000  0.238900  1
  C  C787  1  0.186000  0.192000  0.261100  1
  C  C788  1  0.814000  0.308000  0.761100  1
  C  C789  1  0.640300  0.771000  0.657400  1
  C  C790  1  0.359700  0.729000  0.157400  1
  C  C791  1  0.359700  0.229000  0.342600  1
  C  C792  1  0.640300  0.271000  0.842600  1
  C  C793  1  0.587300  0.763900  0.678700  1
  C  C794  1  0.412700  0.736100  0.178700  1
  C  C795  1  0.412700  0.236100  0.321300  1
  C  C796  1  0.587300  0.263900  0.821300  1
  C  C797  1  0.554500  0.759000  0.714000  1
  C  C798  1  0.445500  0.741000  0.214000  1
  C  C799  1  0.445500  0.241000  0.286000  1
  C  C800  1  0.554500  0.259000  0.786000  1
  C  C801  1  0.610100  0.768500  0.743800  1
  C  C802  1  0.389900  0.731500  0.243800  1
  C  C803  1  0.389900  0.231500  0.256200  1
  C  C804  1  0.610100  0.268500  0.756200  1
  C  C805  1  0.623400  0.773900  0.824500  1
  C  C806  1  0.376600  0.726100  0.324500  1
  C  C807  1  0.376600  0.226100  0.175500  1
  C  C808  1  0.623400  0.273900  0.675500  1
  C  C809  1  0.630300  0.774000  0.783400  1
  C  C810  1  0.369700  0.726000  0.283400  1
  C  C811  1  0.369700  0.226000  0.216600  1
  C  C812  1  0.630300  0.274000  0.716600  1
  C  C813  1  0.686200  0.780000  0.844100  1
  C  C814  1  0.313800  0.720000  0.344100  1
  C  C815  1  0.313800  0.220000  0.155900  1
  C  C816  1  0.686200  0.280000  0.655900  1
  C  C817  1  0.752700  0.794900  0.851700  1
  C  C818  1  0.247300  0.705100  0.351700  1
  C  C819  1  0.247300  0.205100  0.148300  1
  C  C820  1  0.752700  0.294900  0.648300  1
  C  C821  1  0.769400  0.798000  0.815400  1
  C  C822  1  0.230600  0.702000  0.315400  1
  C  C823  1  0.230600  0.202000  0.184600  1
  C  C824  1  0.769400  0.298000  0.684600  1
  C  C825  1  0.709900  0.788300  0.787400  1
  C  C826  1  0.290100  0.711700  0.287400  1
  C  C827  1  0.290100  0.211700  0.212600  1
  C  C828  1  0.709900  0.288300  0.712600  1
  C  C829  1  0.836800  0.814500  0.801200  1
  C  C830  1  0.163200  0.685500  0.301200  1
  C  C831  1  0.163200  0.185500  0.198800  1
  C  C832  1  0.836800  0.314500  0.698800  1
  C  C833  1  0.859300  0.813300  0.768600  1
  C  C834  1  0.140700  0.686700  0.268600  1
  C  C835  1  0.140700  0.186700  0.231400  1
  C  C836  1  0.859300  0.313300  0.731400  1
  C  C837  1  0.218800  0.395100  0.702300  1
  C  C838  1  0.781200  0.104900  0.202300  1
  C  C839  1  0.781200  0.604900  0.297700  1
  C  C840  1  0.218800  0.895100  0.797700  1
  C  C841  1  0.276700  0.362600  0.704100  1
  C  C842  1  0.723300  0.137400  0.204100  1
  C  C843  1  0.723300  0.637400  0.295900  1
  C  C844  1  0.276700  0.862600  0.795900  1
  C  C845  1  0.057800  0.540600  0.532400  1
  C  C846  1  0.942200  0.959400  0.032400  1
  C  C847  1  0.942200  0.459400  0.467600  1
  C  C848  1  0.057800  0.040600  0.967600  1
  C  C849  1  0.039500  0.492400  0.558700  1
  C  C850  1  0.960500  0.007600  0.058700  1
  C  C851  1  0.960500  0.507600  0.441300  1
  C  C852  1  0.039500  0.992400  0.941300  1
  C  C853  1  0.884200  0.468500  0.973800  1
  C  C854  1  0.115800  0.031500  0.473800  1
  C  C855  1  0.115800  0.531500  0.026200  1
  C  C856  1  0.884200  0.968500  0.526200  1
  C  C857  1  0.912500  0.513100  0.999000  1
  C  C858  1  0.087500  0.986900  0.499000  1
  C  C859  1  0.087500  0.486900  0.001000  1
  C  C860  1  0.912500  0.013100  0.501000  1
  C  C861  1  0.584200  0.990700  0.975400  1
  C  C862  1  0.415800  0.509300  0.475400  1
  C  C863  1  0.415800  0.009300  0.024600  1
  C  C864  1  0.584200  0.490700  0.524600  1
  C  C865  1  0.557500  0.949700  0.997700  1
  C  C866  1  0.442500  0.550300  0.497700  1
  C  C867  1  0.442500  0.050300  0.002300  1
  C  C868  1  0.557500  0.449700  0.502300  1
  C  C869  1  0.371000  0.950300  0.579600  1
  C  C870  1  0.629000  0.549700  0.079600  1
  C  C871  1  0.629000  0.049700  0.420400  1
  C  C872  1  0.371000  0.450300  0.920400  1
  C  C873  1  0.310400  0.909500  0.577900  1
  C  C874  1  0.689600  0.590500  0.077900  1
  C  C875  1  0.689600  0.090500  0.422100  1
  C  C876  1  0.310400  0.409500  0.922100  1
  C  C877  1  0.172200  0.080100  0.674000  1
  C  C878  1  0.827800  0.419900  0.174000  1
  C  C879  1  0.827800  0.919900  0.326000  1
  C  C880  1  0.172200  0.580100  0.826000  1
  C  C881  1  0.222700  0.049200  0.667000  1
  C  C882  1  0.777300  0.450800  0.167000  1
  C  C883  1  0.777300  0.950800  0.333000  1
  C  C884  1  0.222700  0.549200  0.833000  1
  C  C885  1  0.669500  0.526900  0.737300  1
  C  C886  1  0.330500  0.973100  0.237300  1
  C  C887  1  0.330500  0.473100  0.262700  1
  C  C888  1  0.669500  0.026900  0.762700  1
  C  C889  1  0.783500  0.545900  0.721810  1
  C  C890  1  0.216500  0.954100  0.221810  1
  C  C891  1  0.216500  0.454100  0.278190  1
  C  C892  1  0.783500  0.045900  0.778190  1
  C  C893  1  0.752300  0.542700  0.780060  1
  C  C894  1  0.247700  0.957300  0.280060  1
  C  C895  1  0.247700  0.457300  0.219940  1
  C  C896  1  0.752300  0.042700  0.719940  1
  C  C897  1  0.502900  0.499500  0.683300  1
  C  C898  1  0.497100  0.000500  0.183300  1
  C  C899  1  0.497100  0.500500  0.316700  1
  C  C900  1  0.502900  0.999500  0.816700  1
  C  C901  1  0.573000  0.512200  0.691500  1
  C  C902  1  0.427000  0.987800  0.191500  1
  C  C903  1  0.427000  0.487800  0.308500  1
  C  C904  1  0.573000  0.012200  0.808500  1
  C  C905  1  0.594200  0.513600  0.727200  1
  C  C906  1  0.405800  0.986400  0.227200  1
  C  C907  1  0.405800  0.486400  0.272800  1
  C  C908  1  0.594200  0.013600  0.772800  1
  C  C909  1  0.542600  0.502200  0.753600  1
  C  C910  1  0.457400  0.997800  0.253600  1
  C  C911  1  0.457400  0.497800  0.246400  1
  C  C912  1  0.542600  0.002200  0.746400  1
  C  C913  1  0.471900  0.488000  0.743200  1
  C  C914  1  0.528100  0.012000  0.243200  1
  C  C915  1  0.528100  0.512000  0.256800  1
  C  C916  1  0.471900  0.988000  0.756800  1
  C  C917  1  0.874600  0.552400  0.633100  1
  C  C918  1  0.125400  0.947600  0.133100  1
  C  C919  1  0.125400  0.447600  0.366900  1
  C  C920  1  0.874600  0.052400  0.866900  1
  C  C921  1  0.822200  0.546700  0.658300  1
  C  C922  1  0.177800  0.953300  0.158300  1
  C  C923  1  0.177800  0.453300  0.341700  1
  C  C924  1  0.822200  0.046700  0.841700  1
  C  C925  1  0.840200  0.553400  0.694000  1
  C  C926  1  0.159800  0.946600  0.194000  1
  C  C927  1  0.159800  0.446600  0.306000  1
  C  C928  1  0.840200  0.053400  0.806000  1
  C  C929  1  0.910700  0.566800  0.703200  1
  C  C930  1  0.089300  0.933200  0.203200  1
  C  C931  1  0.089300  0.433200  0.296800  1
  C  C932  1  0.910700  0.066800  0.796800  1
  C  C933  1  0.958800  0.572100  0.676300  1
  C  C934  1  0.041200  0.927900  0.176300  1
  C  C935  1  0.041200  0.427900  0.323700  1
  C  C936  1  0.958800  0.072100  0.823700  1
  C  C937  1  0.742600  0.539800  0.880100  1
  C  C938  1  0.257400  0.960200  0.380100  1
  C  C939  1  0.257400  0.460200  0.119900  1
  C  C940  1  0.742600  0.039800  0.619900  1
  C  C941  1  0.720700  0.537500  0.844500  1
  C  C942  1  0.279300  0.962500  0.344500  1
  C  C943  1  0.279300  0.462500  0.155500  1
  C  C944  1  0.720700  0.037500  0.655500  1
  C  C945  1  0.772100  0.545900  0.818270  1
  C  C946  1  0.227900  0.954100  0.318270  1
  C  C947  1  0.227900  0.454100  0.181730  1
  C  C948  1  0.772100  0.045900  0.681730  1
  C  C949  1  0.842300  0.557800  0.828400  1
  C  C950  1  0.157700  0.942200  0.328400  1
  C  C951  1  0.157700  0.442200  0.171600  1
  C  C952  1  0.842300  0.057800  0.671600  1
  C  C953  1  0.858200  0.559400  0.864500  1
  C  C954  1  0.141800  0.940600  0.364500  1
  C  C955  1  0.141800  0.440600  0.135500  1
  C  C956  1  0.858200  0.059400  0.635500  1
  C  C957  1  0.621100  0.906100  0.871100  1
  C  C958  1  0.378900  0.593900  0.371100  1
  C  C959  1  0.378900  0.093900  0.128900  1
  C  C960  1  0.621100  0.406100  0.628900  1
  C  C961  1  0.631400  0.906200  0.835000  1
  C  C962  1  0.368600  0.593800  0.335000  1
  C  C963  1  0.368600  0.093800  0.165000  1
  C  C964  1  0.631400  0.406200  0.665000  1
  C  C965  1  0.698700  0.912700  0.821400  1
  C  C966  1  0.301300  0.587300  0.321400  1
  C  C967  1  0.301300  0.087300  0.178600  1
  C  C968  1  0.698700  0.412700  0.678600  1
  C  C969  1  0.753900  0.919900  0.845200  1
  C  C970  1  0.246100  0.580100  0.345200  1
  C  C971  1  0.246100  0.080100  0.154800  1
  C  C972  1  0.753900  0.419900  0.654800  1
  C  C973  1  0.738700  0.918800  0.882000  1
  C  C974  1  0.261300  0.581200  0.382000  1
  C  C975  1  0.261300  0.081200  0.118000  1
  C  C976  1  0.738700  0.418800  0.618000  1
  C  C977  1  0.558300  0.896200  0.643900  1
  C  C978  1  0.441700  0.603800  0.143900  1
  C  C979  1  0.441700  0.103800  0.356100  1
  C  C980  1  0.558300  0.396200  0.856100  1
  C  C981  1  0.613900  0.904200  0.664600  1
  C  C982  1  0.386100  0.595800  0.164600  1
  C  C983  1  0.386100  0.095800  0.335400  1
  C  C984  1  0.613900  0.404200  0.835400  1
  C  C985  1  0.605200  0.896000  0.701200  1
  C  C986  1  0.394800  0.604000  0.201200  1
  C  C987  1  0.394800  0.104000  0.298800  1
  C  C988  1  0.605200  0.396000  0.798800  1
  C  C989  1  0.537700  0.877800  0.714100  1
  C  C990  1  0.462300  0.622200  0.214100  1
  C  C991  1  0.462300  0.122200  0.285900  1
  C  C992  1  0.537700  0.377800  0.785900  1
  C  C993  1  0.482800  0.869000  0.690100  1
  C  C994  1  0.517200  0.631000  0.190100  1
  C  C995  1  0.517200  0.131000  0.309900  1
  C  C996  1  0.482800  0.369000  0.809900  1
  C  C997  1  0.934100  0.949000  0.669800  1
  C  C998  1  0.065900  0.551000  0.169800  1
  C  C999  1  0.065900  0.051000  0.330200  1
  C  C1000  1  0.934100  0.449000  0.830200  1
  C  C1001  1  0.866500  0.936600  0.683000  1
  C  C1002  1  0.133500  0.563400  0.183000  1
  C  C1003  1  0.133500  0.063400  0.317000  1
  C  C1004  1  0.866500  0.436600  0.817000  1
  C  C1005  1  0.856500  0.938800  0.719600  1
  C  C1006  1  0.143500  0.561200  0.219600  1
  C  C1007  1  0.143500  0.061200  0.280400  1
  C  C1008  1  0.856500  0.438800  0.780400  1
  C  C1009  1  0.914500  0.952800  0.741600  1
  C  C1010  1  0.085500  0.547200  0.241600  1
  C  C1011  1  0.085500  0.047200  0.258400  1
  C  C1012  1  0.914500  0.452800  0.758400  1
  C  C1013  1  0.980500  0.965400  0.726300  1
  C  C1014  1  0.019500  0.534600  0.226300  1
  C  C1015  1  0.019500  0.034600  0.273700  1
  C  C1016  1  0.980500  0.465400  0.773700  1
  C  C1017  1  0.710800  0.913200  0.781800  1
  C  C1018  1  0.289200  0.586800  0.281800  1
  C  C1019  1  0.289200  0.086800  0.218200  1
  C  C1020  1  0.710800  0.413200  0.718200  1
  C  C1021  1  0.666800  0.905600  0.726800  1
  C  C1022  1  0.333200  0.594400  0.226800  1
  C  C1023  1  0.333200  0.094400  0.273200  1
  C  C1024  1  0.666800  0.405600  0.773200  1
  C  C1025  1  0.784800  0.926200  0.735200  1
  C  C1026  1  0.215200  0.573800  0.235200  1
  C  C1027  1  0.215200  0.073800  0.264800  1
  C  C1028  1  0.784800  0.426200  0.764800  1
  C  C1029  1  0.340900  0.575200  0.703200  1
  C  C1030  1  0.659100  0.924800  0.203200  1
  C  C1031  1  0.659100  0.424800  0.296800  1
  C  C1032  1  0.340900  0.075200  0.796800  1
  C  C1033  1  0.345800  0.624700  0.692300  1
  C  C1034  1  0.654200  0.875300  0.192300  1
  C  C1035  1  0.654200  0.375300  0.307700  1
  C  C1036  1  0.345800  0.124700  0.807700  1
  C  C1037  1  0.361800  0.639100  0.657000  1
  C  C1038  1  0.638200  0.860900  0.157000  1
  C  C1039  1  0.638200  0.360900  0.343000  1
  C  C1040  1  0.361800  0.139100  0.843000  1
  C  C1041  1  0.367200  0.601300  0.633000  1
  C  C1042  1  0.632800  0.898700  0.133000  1
  C  C1043  1  0.632800  0.398700  0.367000  1
  C  C1044  1  0.367200  0.101300  0.867000  1
  C  C1045  1  0.359900  0.550700  0.644500  1
  C  C1046  1  0.640100  0.949300  0.144500  1
  C  C1047  1  0.640100  0.449300  0.355500  1
  C  C1048  1  0.359900  0.050700  0.855500  1
  C  C1049  1  0.329000  0.560100  0.741100  1
  C  C1050  1  0.671000  0.939900  0.241100  1
  C  C1051  1  0.671000  0.439900  0.258900  1
  C  C1052  1  0.329000  0.060100  0.758900  1
  C  C1053  1  0.362700  0.508800  0.618200  1
  C  C1054  1  0.637300  0.991200  0.118200  1
  C  C1055  1  0.637300  0.491200  0.381800  1
  C  C1056  1  0.362700  0.008800  0.881800  1
  C  C1057  1  0.088600  0.671000  0.631800  1
  C  C1058  1  0.911400  0.829000  0.131800  1
  C  C1059  1  0.911400  0.329000  0.368200  1
  C  C1060  1  0.088600  0.171000  0.868200  1
  C  C1061  1  0.101000  0.721300  0.641800  1
  C  C1062  1  0.899000  0.778700  0.141800  1
  C  C1063  1  0.899000  0.278700  0.358200  1
  C  C1064  1  0.101000  0.221300  0.858200  1
  C  C1065  1  0.058800  0.751000  0.627800  1
  C  C1066  1  0.941200  0.749000  0.127800  1
  C  C1067  1  0.941200  0.249000  0.372200  1
  C  C1068  1  0.058800  0.251000  0.872200  1
  C  C1069  1  0.005100  0.729900  0.603700  1
  C  C1070  1  0.994900  0.770100  0.103700  1
  C  C1071  1  0.994900  0.270100  0.396300  1
  C  C1072  1  0.005100  0.229900  0.896300  1
  C  C1073  1  0.993600  0.680900  0.596200  1
  C  C1074  1  0.006400  0.819100  0.096200  1
  C  C1075  1  0.006400  0.319100  0.403800  1
  C  C1076  1  0.993600  0.180900  0.903800  1
  C  C1077  1  0.143100  0.639200  0.649700  1
  C  C1078  1  0.856900  0.860800  0.149700  1
  C  C1079  1  0.856900  0.360800  0.350300  1
  C  C1080  1  0.143100  0.139200  0.850300  1
  C  C1081  1  0.933900  0.657100  0.571500  1
  C  C1082  1  0.066100  0.842900  0.071500  1
  C  C1083  1  0.066100  0.342900  0.428500  1
  C  C1084  1  0.933900  0.157100  0.928500  1
  C  C1085  1  0.733400  0.616600  0.962500  1
  C  C1086  1  0.266600  0.883400  0.462500  1
  C  C1087  1  0.266600  0.383400  0.037500  1
  C  C1088  1  0.733400  0.116600  0.537500  1
  C  C1089  1  0.708600  0.661200  0.964800  1
  C  C1090  1  0.291400  0.838800  0.464800  1
  C  C1091  1  0.291400  0.338800  0.035200  1
  C  C1092  1  0.708600  0.161200  0.535200  1
  C  C1093  1  0.751900  0.706700  0.956200  1
  C  C1094  1  0.248100  0.793300  0.456200  1
  C  C1095  1  0.248100  0.293300  0.043800  1
  C  C1096  1  0.751900  0.206700  0.543800  1
  C  C1097  1  0.821000  0.705100  0.944900  1
  C  C1098  1  0.179000  0.794900  0.444900  1
  C  C1099  1  0.179000  0.294900  0.055100  1
  C  C1100  1  0.821000  0.205100  0.555100  1
  C  C1101  1  0.843700  0.660300  0.942400  1
  C  C1102  1  0.156300  0.839700  0.442400  1
  C  C1103  1  0.156300  0.339700  0.057600  1
  C  C1104  1  0.843700  0.160300  0.557600  1
  C  C1105  1  0.689300  0.568100  0.973500  1
  C  C1106  1  0.310700  0.931900  0.473500  1
  C  C1107  1  0.310700  0.431900  0.026500  1
  C  C1108  1  0.689300  0.068100  0.526500  1
  C  C1109  1  0.916400  0.659300  0.929300  1
  C  C1110  1  0.083600  0.840700  0.429300  1
  C  C1111  1  0.083600  0.340700  0.070700  1
  C  C1112  1  0.916400  0.159300  0.570700  1
  C  C1113  1  0.747000  0.842500  0.966100  1
  C  C1114  1  0.253000  0.657500  0.466100  1
  C  C1115  1  0.253000  0.157500  0.033900  1
  C  C1116  1  0.747000  0.342500  0.533900  1
  C  C1117  1  0.770200  0.798400  0.967400  1
  C  C1118  1  0.229800  0.701600  0.467400  1
  C  C1119  1  0.229800  0.201600  0.032600  1
  C  C1120  1  0.770200  0.298400  0.532600  1
  C  C1121  1  0.726400  0.754100  0.957200  1
  C  C1122  1  0.273600  0.745900  0.457200  1
  C  C1123  1  0.273600  0.245900  0.042800  1
  C  C1124  1  0.726400  0.254100  0.542800  1
  C  C1125  1  0.657700  0.756100  0.946600  1
  C  C1126  1  0.342300  0.743900  0.446600  1
  C  C1127  1  0.342300  0.243900  0.053400  1
  C  C1128  1  0.657700  0.256100  0.553400  1
  C  C1129  1  0.636000  0.802200  0.945200  1
  C  C1130  1  0.364000  0.697800  0.445200  1
  C  C1131  1  0.364000  0.197800  0.054800  1
  C  C1132  1  0.636000  0.302200  0.554800  1
  C  C1133  1  0.793500  0.892600  0.977300  1
  C  C1134  1  0.206500  0.607400  0.477300  1
  C  C1135  1  0.206500  0.107400  0.022700  1
  C  C1136  1  0.793500  0.392600  0.522700  1
  C  C1137  1  0.563000  0.804600  0.932800  1
  C  C1138  1  0.437000  0.695400  0.432800  1
  C  C1139  1  0.437000  0.195400  0.067200  1
  C  C1140  1  0.563000  0.304600  0.567200  1
  C  C1141  1  0.338400  0.771700  0.651300  1
  C  C1142  1  0.661600  0.728300  0.151300  1
  C  C1143  1  0.661600  0.228300  0.348700  1
  C  C1144  1  0.338400  0.271700  0.848700  1
  C  C1145  1  0.329100  0.723500  0.660700  1
  C  C1146  1  0.670900  0.776500  0.160700  1
  C  C1147  1  0.670900  0.276500  0.339300  1
  C  C1148  1  0.329100  0.223500  0.839300  1
  C  C1149  1  0.370700  0.691600  0.646300  1
  C  C1150  1  0.629300  0.808400  0.146300  1
  C  C1151  1  0.629300  0.308400  0.353700  1
  C  C1152  1  0.370700  0.191600  0.853700  1
  C  C1153  1  0.422800  0.713300  0.622100  1
  C  C1154  1  0.577200  0.786700  0.122100  1
  C  C1155  1  0.577200  0.286700  0.377900  1
  C  C1156  1  0.422800  0.213300  0.877900  1
  C  C1157  1  0.432800  0.763100  0.615000  1
  C  C1158  1  0.567200  0.736900  0.115000  1
  C  C1159  1  0.567200  0.236900  0.385000  1
  C  C1160  1  0.432800  0.263100  0.885000  1
  C  C1161  1  0.291700  0.804500  0.665500  1
  C  C1162  1  0.708300  0.695500  0.165500  1
  C  C1163  1  0.708300  0.195500  0.334500  1
  C  C1164  1  0.291700  0.304500  0.834500  1
  C  C1165  1  0.493400  0.787900  0.590400  1
  C  C1166  1  0.506600  0.712100  0.090400  1
  C  C1167  1  0.506600  0.212100  0.409600  1
  C  C1168  1  0.493400  0.287900  0.909600  1
  C  C1169  1  0.062800  0.889700  0.621700  1
  C  C1170  1  0.937200  0.610300  0.121700  1
  C  C1171  1  0.937200  0.110300  0.378300  1
  C  C1172  1  0.062800  0.389700  0.878300  1
  C  C1173  1  0.054500  0.839400  0.611900  1
  C  C1174  1  0.945500  0.660600  0.111900  1
  C  C1175  1  0.945500  0.160600  0.388100  1
  C  C1176  1  0.054500  0.339400  0.888100  1
  C  C1177  1  0.069000  0.804500  0.636800  1
  C  C1178  1  0.931000  0.695500  0.136800  1
  C  C1179  1  0.931000  0.195500  0.363200  1
  C  C1180  1  0.069000  0.304500  0.863200  1
  C  C1181  1  0.088900  0.821700  0.671200  1
  C  C1182  1  0.911100  0.678300  0.171200  1
  C  C1183  1  0.911100  0.178300  0.328800  1
  C  C1184  1  0.088900  0.321700  0.828800  1
  C  C1185  1  0.095400  0.871200  0.680000  1
  C  C1186  1  0.904600  0.628800  0.180000  1
  C  C1187  1  0.904600  0.128800  0.320000  1
  C  C1188  1  0.095400  0.371200  0.820000  1
  C  C1189  1  0.050100  0.927500  0.594400  1
  C  C1190  1  0.949900  0.572500  0.094400  1
  C  C1191  1  0.949900  0.072500  0.405600  1
  C  C1192  1  0.050100  0.427500  0.905600  1
  C  C1193  1  0.110600  0.888200  0.717200  1
  C  C1194  1  0.889400  0.611800  0.217200  1
  C  C1195  1  0.889400  0.111800  0.282800  1
  C  C1196  1  0.110600  0.388200  0.782800  1
  C  C1197  1  0.602800  0.640000  0.752600  1
  C  C1198  1  0.397200  0.860000  0.252600  1
  C  C1199  1  0.397200  0.360000  0.247400  1
  C  C1200  1  0.602800  0.140000  0.747400  1
  C  C1201  1  0.618300  0.647000  0.783900  1
  C  C1202  1  0.381700  0.853000  0.283900  1
  C  C1203  1  0.381700  0.353000  0.216100  1
  C  C1204  1  0.618300  0.147000  0.716100  1
  C  C1205  1  0.693800  0.661000  0.802800  1
  C  C1206  1  0.306200  0.839000  0.302800  1
  C  C1207  1  0.306200  0.339000  0.197200  1
  C  C1208  1  0.693800  0.161000  0.697200  1
  C  C1209  1  0.751000  0.667100  0.782000  1
  C  C1210  1  0.249000  0.832900  0.282000  1
  C  C1211  1  0.249000  0.332900  0.218000  1
  C  C1212  1  0.751000  0.167100  0.718000  1
  C  C1213  1  0.735800  0.663200  0.744200  1
  C  C1214  1  0.264200  0.836800  0.244200  1
  C  C1215  1  0.264200  0.336800  0.255800  1
  C  C1216  1  0.735800  0.163200  0.755800  1
  C  C1217  1  0.672400  0.652000  0.728500  1
  C  C1218  1  0.327600  0.848000  0.228500  1
  C  C1219  1  0.327600  0.348000  0.271500  1
  C  C1220  1  0.672400  0.152000  0.771500  1
  C  C1221  1  0.710000  0.667500  0.844900  1
  C  C1222  1  0.290000  0.832500  0.344900  1
  C  C1223  1  0.290000  0.332500  0.155100  1
  C  C1224  1  0.710000  0.167500  0.655100  1
  C  C1225  1  0.773000  0.684000  0.848000  1
  C  C1226  1  0.227000  0.816000  0.348000  1
  C  C1227  1  0.227000  0.316000  0.152000  1
  C  C1228  1  0.773000  0.184000  0.652000  1
  C  C1229  1  0.838000  0.689600  0.821400  1
  C  C1230  1  0.162000  0.810400  0.321400  1
  C  C1231  1  0.162000  0.310400  0.178600  1
  C  C1232  1  0.838000  0.189600  0.678600  1
  C  C1233  1  0.826500  0.680600  0.786700  1
  C  C1234  1  0.173500  0.819400  0.286700  1
  C  C1235  1  0.173500  0.319400  0.213300  1
  C  C1236  1  0.826500  0.180600  0.713300  1
  C  C1237  1  0.922600  0.700300  0.736900  1
  C  C1238  1  0.077400  0.799700  0.236900  1
  C  C1239  1  0.077400  0.299700  0.263100  1
  C  C1240  1  0.922600  0.200300  0.763100  1
  C  C1241  1  0.859800  0.683900  0.751700  1
  C  C1242  1  0.140200  0.816100  0.251700  1
  C  C1243  1  0.140200  0.316100  0.248300  1
  C  C1244  1  0.859800  0.183900  0.748300  1
  C  C1245  1  0.932000  0.696600  0.694600  1
  C  C1246  1  0.068000  0.803400  0.194600  1
  C  C1247  1  0.068000  0.303400  0.305400  1
  C  C1248  1  0.932000  0.196600  0.805400  1
  C  C1249  1  0.884000  0.692000  0.673200  1
  C  C1250  1  0.116000  0.808000  0.173200  1
  C  C1251  1  0.116000  0.308000  0.326800  1
  C  C1252  1  0.884000  0.192000  0.826800  1
  C  C1253  1  0.806200  0.673700  0.689800  1
  C  C1254  1  0.193800  0.826300  0.189800  1
  C  C1255  1  0.193800  0.326300  0.310200  1
  C  C1256  1  0.806200  0.173700  0.810200  1
  C  C1257  1  0.802900  0.677000  0.725700  1
  C  C1258  1  0.197100  0.823000  0.225700  1
  C  C1259  1  0.197100  0.323000  0.274300  1
  C  C1260  1  0.802900  0.177000  0.774300  1
  C  C1261  1  0.730000  0.660000  0.671300  1
  C  C1262  1  0.270000  0.840000  0.171300  1
  C  C1263  1  0.270000  0.340000  0.328700  1
  C  C1264  1  0.730000  0.160000  0.828700  1
  C  C1265  1  0.672000  0.656000  0.685900  1
  C  C1266  1  0.328000  0.844000  0.185900  1
  C  C1267  1  0.328000  0.344000  0.314100  1
  C  C1268  1  0.672000  0.156000  0.814100  1
  C  C1269  1  0.818300  0.810500  0.771000  1
  C  C1270  1  0.181700  0.689500  0.271000  1
  C  C1271  1  0.181700  0.189500  0.229000  1
  C  C1272  1  0.818300  0.310500  0.729000  1
  C  C1273  1  0.804200  0.804000  0.804600  1
  C  C1274  1  0.195800  0.696000  0.304600  1
  C  C1275  1  0.195800  0.196000  0.195400  1
  C  C1276  1  0.804200  0.304000  0.695400  1
  C  C1277  1  0.733400  0.798900  0.819300  1
  C  C1278  1  0.266600  0.701100  0.319300  1
  C  C1279  1  0.266600  0.201100  0.180700  1
  C  C1280  1  0.733400  0.298900  0.680700  1
  C  C1281  1  0.674400  0.783000  0.791600  1
  C  C1282  1  0.325600  0.717000  0.291600  1
  C  C1283  1  0.325600  0.217000  0.208400  1
  C  C1284  1  0.674400  0.283000  0.708400  1
  C  C1285  1  0.694600  0.784000  0.752100  1
  C  C1286  1  0.305400  0.716000  0.252100  1
  C  C1287  1  0.305400  0.216000  0.247900  1
  C  C1288  1  0.694600  0.284000  0.747900  1
  C  C1289  1  0.772100  0.797200  0.739900  1
  C  C1290  1  0.227900  0.702800  0.239900  1
  C  C1291  1  0.227900  0.202800  0.260100  1
  C  C1292  1  0.772100  0.297200  0.760100  1
  C  C1293  1  0.713600  0.796800  0.856900  1
  C  C1294  1  0.286400  0.703200  0.356900  1
  C  C1295  1  0.286400  0.203200  0.143100  1
  C  C1296  1  0.713600  0.296800  0.643100  1
  C  C1297  1  0.649100  0.776100  0.851300  1
  C  C1298  1  0.350900  0.723900  0.351300  1
  C  C1299  1  0.350900  0.223900  0.148700  1
  C  C1300  1  0.649100  0.276100  0.648700  1
  C  C1301  1  0.582600  0.764900  0.831900  1
  C  C1302  1  0.417400  0.735100  0.331900  1
  C  C1303  1  0.417400  0.235100  0.168100  1
  C  C1304  1  0.582600  0.264900  0.668100  1
  C  C1305  1  0.593200  0.774000  0.791600  1
  C  C1306  1  0.406800  0.726000  0.291600  1
  C  C1307  1  0.406800  0.226000  0.208400  1
  C  C1308  1  0.593200  0.274000  0.708400  1
  C  C1309  1  0.517500  0.745000  0.721800  1
  C  C1310  1  0.482500  0.755000  0.221800  1
  C  C1311  1  0.482500  0.255000  0.278200  1
  C  C1312  1  0.517500  0.245000  0.778200  1
  C  C1313  1  0.567300  0.762900  0.753400  1
  C  C1314  1  0.432700  0.737100  0.253400  1
  C  C1315  1  0.432700  0.237100  0.246600  1
  C  C1316  1  0.567300  0.262900  0.746600  1
  C  C1317  1  0.547200  0.757000  0.688100  1
  C  C1318  1  0.452800  0.743000  0.188100  1
  C  C1319  1  0.452800  0.243000  0.311900  1
  C  C1320  1  0.547200  0.257000  0.811900  1
  C  C1321  1  0.593900  0.768000  0.663100  1
  C  C1322  1  0.406100  0.732000  0.163100  1
  C  C1323  1  0.406100  0.232000  0.336900  1
  C  C1324  1  0.593900  0.268000  0.836900  1
  C  C1325  1  0.648700  0.774000  0.687900  1
  C  C1326  1  0.351300  0.726000  0.187900  1
  C  C1327  1  0.351300  0.226000  0.312100  1
  C  C1328  1  0.648700  0.274000  0.812100  1
  C  C1329  1  0.629900  0.774900  0.728000  1
  C  C1330  1  0.370100  0.725100  0.228000  1
  C  C1331  1  0.370100  0.225100  0.272000  1
  C  C1332  1  0.629900  0.274900  0.772000  1
  C  C1333  1  0.722000  0.787600  0.682900  1
  C  C1334  1  0.278000  0.712400  0.182900  1
  C  C1335  1  0.278000  0.212400  0.317100  1
  C  C1336  1  0.722000  0.287600  0.817100  1
  C  C1337  1  0.778500  0.797000  0.702500  1
  C  C1338  1  0.221500  0.703000  0.202500  1
  C  C1339  1  0.221500  0.203000  0.297500  1
  C  C1340  1  0.778500  0.297000  0.797500  1
  C  C1341  1  0.140400  0.526100  0.570400  1
  C  C1342  1  0.859600  0.973900  0.070400  1
  C  C1343  1  0.859600  0.473900  0.429600  1
  C  C1344  1  0.140400  0.026100  0.929600  1
  C  C1345  1  0.084900  0.479500  0.584700  1
  C  C1346  1  0.915100  0.020500  0.084700  1
  C  C1347  1  0.915100  0.520500  0.415300  1
  C  C1348  1  0.084900  0.979500  0.915300  1
  C  C1349  1  0.613000  0.995400  0.984200  1
  C  C1350  1  0.387000  0.504600  0.484200  1
  C  C1351  1  0.387000  0.004600  0.015800  1
  C  C1352  1  0.613000  0.495400  0.515800  1
  C  C1353  1  0.628300  0.965300  0.012900  1
  C  C1354  1  0.371700  0.534700  0.512900  1
  C  C1355  1  0.371700  0.034700  0.987100  1
  C  C1356  1  0.628300  0.465300  0.487100  1
  Br  Br1357  1  0.530800  0.632000  0.683300  1
  Br  Br1358  1  0.469200  0.868000  0.183300  1
  Br  Br1359  1  0.469200  0.368000  0.316700  1
  Br  Br1360  1  0.530800  0.132000  0.816700  1
  Br  Br1361  1  0.911900  0.818800  0.689000  1
  Br  Br1362  1  0.088100  0.681200  0.189000  1
  Br  Br1363  1  0.088100  0.181200  0.311000  1
  Br  Br1364  1  0.911900  0.318800  0.811000  1
  Br  Br1365  1  0.515400  0.626300  0.734600  1
  Br  Br1366  1  0.484600  0.873700  0.234600  1
  Br  Br1367  1  0.484600  0.373700  0.265400  1
  Br  Br1368  1  0.515400  0.126300  0.765400  1
  Br  Br1369  1  0.906900  0.825200  0.758700  1
  Br  Br1370  1  0.093100  0.674800  0.258700  1
  Br  Br1371  1  0.093100  0.174800  0.241300  1
  Br  Br1372  1  0.906900  0.325200  0.741300  1
  N  N1373  1  0.861100  0.468000  0.278900  1
  N  N1374  1  0.138900  0.032000  0.778900  1
  N  N1375  1  0.138900  0.532000  0.721100  1
  N  N1376  1  0.861100  0.968000  0.221100  1
  N  N1377  1  0.717000  0.328800  0.440700  1
  N  N1378  1  0.283000  0.171200  0.940700  1
  N  N1379  1  0.283000  0.671200  0.559300  1
  N  N1380  1  0.717000  0.828800  0.059300  1
  N  N1381  1  0.115200  0.830600  0.527900  1
  N  N1382  1  0.884800  0.669400  0.027900  1
  N  N1383  1  0.884800  0.169400  0.472100  1
  N  N1384  1  0.115200  0.330600  0.972100  1
  N  N1385  1  0.311500  0.939200  0.692400  1
  N  N1386  1  0.688500  0.560800  0.192400  1
  N  N1387  1  0.688500  0.060800  0.307600  1
  N  N1388  1  0.311500  0.439200  0.807600  1
  N  N1389  1  0.041000  0.565100  0.909400  1
  N  N1390  1  0.959000  0.934900  0.409400  1
  N  N1391  1  0.959000  0.434900  0.090600  1
  N  N1392  1  0.041000  0.065100  0.590600  1
  N  N1393  1  0.757500  0.480200  0.062300  1
  N  N1394  1  0.242500  0.019800  0.562300  1
  N  N1395  1  0.242500  0.519800  0.937700  1
  N  N1396  1  0.757500  0.980200  0.437700  1
  N  N1397  1  0.242200  0.442800  0.682900  1
  N  N1398  1  0.757800  0.057200  0.182900  1
  N  N1399  1  0.757800  0.557200  0.317100  1
  N  N1400  1  0.242200  0.942800  0.817100  1
  N  N1401  1  0.342200  0.397700  0.717000  1
  N  N1402  1  0.657800  0.102300  0.217000  1
  N  N1403  1  0.657800  0.602300  0.283000  1
  N  N1404  1  0.342200  0.897700  0.783000  1
  N  N1405  1  0.078200  0.582000  0.557300  1
  N  N1406  1  0.921800  0.918000  0.057300  1
  N  N1407  1  0.921800  0.418000  0.442700  1
  N  N1408  1  0.078200  0.082000  0.942700  1
  N  N1409  1  0.983400  0.500900  0.584500  1
  N  N1410  1  0.016600  0.999100  0.084500  1
  N  N1411  1  0.016600  0.499100  0.415500  1
  N  N1412  1  0.983400  0.000900  0.915500  1
  N  N1413  1  0.877900  0.489400  0.937900  1
  N  N1414  1  0.122100  0.010600  0.437900  1
  N  N1415  1  0.122100  0.510600  0.062100  1
  N  N1416  1  0.877900  0.989400  0.562100  1
  N  N1417  1  0.860700  0.546400  0.995490  1
  N  N1418  1  0.139300  0.953600  0.495490  1
  N  N1419  1  0.139300  0.453600  0.004510  1
  N  N1420  1  0.860700  0.046400  0.504510  1
  N  N1421  1  0.608500  0.975500  0.940200  1
  N  N1422  1  0.391500  0.524500  0.440200  1
  N  N1423  1  0.391500  0.024500  0.059800  1
  N  N1424  1  0.608500  0.475500  0.559800  1
  N  N1425  1  0.623400  0.919900  0.000300  1
  N  N1426  1  0.376600  0.580100  0.500300  1
  N  N1427  1  0.376600  0.080100  0.999700  1
  N  N1428  1  0.623400  0.419900  0.499700  1
  N  N1429  1  0.418900  0.942700  0.611300  1
  N  N1430  1  0.581100  0.557300  0.111300  1
  N  N1431  1  0.581100  0.057300  0.388700  1
  N  N1432  1  0.418900  0.442700  0.888700  1
  N  N1433  1  0.336500  0.861400  0.580000  1
  N  N1434  1  0.663500  0.638600  0.080000  1
  N  N1435  1  0.663500  0.138600  0.420000  1
  N  N1436  1  0.336500  0.361400  0.920000  1
  N  N1437  1  0.104600  0.052200  0.685900  1
  N  N1438  1  0.895400  0.447800  0.185900  1
  N  N1439  1  0.895400  0.947800  0.314100  1
  N  N1440  1  0.104600  0.552200  0.814100  1
  N  N1441  1  0.192200  0.999300  0.652100  1
  N  N1442  1  0.807800  0.500700  0.152100  1
  N  N1443  1  0.807800  0.000700  0.347900  1
  N  N1444  1  0.192200  0.499300  0.847900  1
  N  N1445  1  0.716800  0.534600  0.710810  1
  N  N1446  1  0.283200  0.965400  0.210810  1
  N  N1447  1  0.283200  0.465400  0.289190  1
  N  N1448  1  0.716800  0.034600  0.789190  1
  N  N1449  1  0.804900  0.550800  0.756480  1
  N  N1450  1  0.195100  0.949200  0.256480  1
  N  N1451  1  0.195100  0.449200  0.243520  1
  N  N1452  1  0.804900  0.050800  0.743520  1
  N  N1453  1  0.684200  0.530400  0.772340  1
  N  N1454  1  0.315800  0.969600  0.272340  1
  N  N1455  1  0.315800  0.469600  0.227660  1
  N  N1456  1  0.684200  0.030400  0.727660  1
  N  N1457  1  0.452600  0.487700  0.709900  1
  N  N1458  1  0.547400  0.012300  0.209900  1
  N  N1459  1  0.547400  0.512300  0.290100  1
  N  N1460  1  0.452600  0.987700  0.790100  1
  N  N1461  1  0.942600  0.565200  0.641900  1
  N  N1462  1  0.057400  0.934800  0.141900  1
  N  N1463  1  0.057400  0.434800  0.358100  1
  N  N1464  1  0.942600  0.065200  0.858100  1
  N  N1465  1  0.809500  0.550500  0.889200  1
  N  N1466  1  0.190500  0.949500  0.389200  1
  N  N1467  1  0.190500  0.449500  0.110800  1
  N  N1468  1  0.809500  0.050500  0.610800  1
  N  N1469  1  0.673400  0.912600  0.893700  1
  N  N1470  1  0.326600  0.587400  0.393700  1
  N  N1471  1  0.326600  0.087400  0.106300  1
  N  N1472  1  0.673400  0.412600  0.606300  1
  N  N1473  1  0.491000  0.879000  0.655500  1
  N  N1474  1  0.509000  0.621000  0.155500  1
  N  N1475  1  0.509000  0.121000  0.344500  1
  N  N1476  1  0.491000  0.379000  0.844500  1
  N  N1477  1  0.990000  0.962600  0.691180  1
  N  N1478  1  0.010000  0.537400  0.191180  1
  N  N1479  1  0.010000  0.037400  0.308820  1
  N  N1480  1  0.990000  0.462600  0.808820  1
  N  N1481  1  0.653200  0.902700  0.761210  1
  N  N1482  1  0.346800  0.597300  0.261210  1
  N  N1483  1  0.346800  0.097300  0.238790  1
  N  N1484  1  0.653200  0.402700  0.738790  1
  N  N1485  1  0.731100  0.916500  0.711200  1
  N  N1486  1  0.268900  0.583500  0.211200  1
  N  N1487  1  0.268900  0.083500  0.288800  1
  N  N1488  1  0.731100  0.416500  0.788800  1
  N  N1489  1  0.777000  0.925100  0.770490  1
  N  N1490  1  0.223000  0.574900  0.270490  1
  N  N1491  1  0.223000  0.074900  0.229510  1
  N  N1492  1  0.777000  0.425100  0.729510  1
  N  N1493  1  0.348800  0.538700  0.678400  1
  N  N1494  1  0.651200  0.961300  0.178400  1
  N  N1495  1  0.651200  0.461300  0.321600  1
  N  N1496  1  0.348800  0.038700  0.821600  1
  N  N1497  1  0.035100  0.652100  0.610200  1
  N  N1498  1  0.964900  0.847900  0.110200  1
  N  N1499  1  0.964900  0.347900  0.389800  1
  N  N1500  1  0.035100  0.152100  0.889800  1
  N  N1501  1  0.799600  0.617200  0.949910  1
  N  N1502  1  0.200400  0.882800  0.449910  1
  N  N1503  1  0.200400  0.382800  0.050090  1
  N  N1504  1  0.799600  0.117200  0.550090  1
  N  N1505  1  0.680600  0.844700  0.954130  1
  N  N1506  1  0.319400  0.655300  0.454130  1
  N  N1507  1  0.319400  0.155300  0.045870  1
  N  N1508  1  0.680600  0.344700  0.545870  1
  N  N1509  1  0.392500  0.792000  0.628600  1
  N  N1510  1  0.607500  0.708000  0.128600  1
  N  N1511  1  0.607500  0.208000  0.371400  1
  N  N1512  1  0.392500  0.292000  0.871400  1
  N  N1513  1  0.081400  0.904600  0.654910  1
  N  N1514  1  0.918600  0.595400  0.154910  1
  N  N1515  1  0.918600  0.095400  0.345090  1
  N  N1516  1  0.081400  0.404600  0.845090  1
  N  N1517  1  0.115900  0.571400  0.575000  1
  N  N1518  1  0.884100  0.928600  0.075000  1
  N  N1519  1  0.884100  0.428600  0.425000  1
  N  N1520  1  0.115900  0.071400  0.925000  1
  N  N1521  1  0.036000  0.492200  0.612600  1
  N  N1522  1  0.964000  0.007800  0.112600  1
  N  N1523  1  0.964000  0.507800  0.387400  1
  N  N1524  1  0.036000  0.992200  0.887400  1
  N  N1525  1  0.650800  0.988700  0.950300  1
  N  N1526  1  0.349200  0.511300  0.450300  1
  N  N1527  1  0.349200  0.011300  0.049700  1
  N  N1528  1  0.650800  0.488700  0.549700  1
  N  N1529  1  0.612000  0.909300  0.995400  1
  N  N1530  1  0.388000  0.590700  0.495400  1
  N  N1531  1  0.388000  0.090700  0.004600  1
  N  N1532  1  0.612000  0.409300  0.504600  1
  O  O1533  1  0.830600  0.454200  0.305600  1
  O  O1534  1  0.169400  0.045800  0.805600  1
  O  O1535  1  0.169400  0.545800  0.694400  1
  O  O1536  1  0.830600  0.954200  0.194400  1
  O  O1537  1  0.900600  0.440800  0.263700  1
  O  O1538  1  0.099400  0.059200  0.763700  1
  O  O1539  1  0.099400  0.559200  0.736300  1
  O  O1540  1  0.900600  0.940800  0.236300  1
  O  O1541  1  0.851600  0.505800  0.265100  1
  O  O1542  1  0.148400  0.994200  0.765100  1
  O  O1543  1  0.148400  0.494200  0.734900  1
  O  O1544  1  0.851600  0.005800  0.234900  1
  O  O1545  1  0.698300  0.370800  0.443600  1
  O  O1546  1  0.301700  0.129200  0.943600  1
  O  O1547  1  0.301700  0.629200  0.556400  1
  O  O1548  1  0.698300  0.870800  0.056400  1
  O  O1549  1  0.675100  0.288900  0.451400  1
  O  O1550  1  0.324900  0.211100  0.951400  1
  O  O1551  1  0.324900  0.711100  0.548600  1
  O  O1552  1  0.675100  0.788900  0.048600  1
  O  O1553  1  0.770900  0.322200  0.426500  1
  O  O1554  1  0.229100  0.177800  0.926500  1
  O  O1555  1  0.229100  0.677800  0.573500  1
  O  O1556  1  0.770900  0.822200  0.073500  1
  O  O1557  1  0.068100  0.852300  0.516600  1
  O  O1558  1  0.931900  0.647700  0.016600  1
  O  O1559  1  0.931900  0.147700  0.483400  1
  O  O1560  1  0.068100  0.352300  0.983400  1
  O  O1561  1  0.098500  0.786300  0.534100  1
  O  O1562  1  0.901500  0.713700  0.034100  1
  O  O1563  1  0.901500  0.213700  0.465900  1
  O  O1564  1  0.098500  0.286300  0.965900  1
  O  O1565  1  0.177200  0.855900  0.533500  1
  O  O1566  1  0.822800  0.644100  0.033500  1
  O  O1567  1  0.822800  0.144100  0.466500  1
  O  O1568  1  0.177200  0.355900  0.966500  1
  O  O1569  1  0.298700  0.943200  0.662200  1
  O  O1570  1  0.701300  0.556800  0.162200  1
  O  O1571  1  0.701300  0.056800  0.337800  1
  O  O1572  1  0.298700  0.443200  0.837800  1
  O  O1573  1  0.356600  0.917700  0.704100  1
  O  O1574  1  0.643400  0.582300  0.204100  1
  O  O1575  1  0.643400  0.082300  0.295900  1
  O  O1576  1  0.356600  0.417700  0.795900  1
  O  O1577  1  0.270700  0.952100  0.713800  1
  O  O1578  1  0.729300  0.547900  0.213800  1
  O  O1579  1  0.729300  0.047900  0.286200  1
  O  O1580  1  0.270700  0.452100  0.786200  1
  O  O1581  1  0.006600  0.538800  0.889000  1
  O  O1582  1  0.993400  0.961200  0.389000  1
  O  O1583  1  0.993400  0.461200  0.111000  1
  O  O1584  1  0.006600  0.038800  0.611000  1
  O  O1585  1  0.090400  0.596700  0.899300  1
  O  O1586  1  0.909600  0.903300  0.399300  1
  O  O1587  1  0.909600  0.403300  0.100700  1
  O  O1588  1  0.090400  0.096700  0.600700  1
  O  O1589  1  0.032500  0.564900  0.941600  1
  O  O1590  1  0.967500  0.935100  0.441600  1
  O  O1591  1  0.967500  0.435100  0.058400  1
  O  O1592  1  0.032500  0.064900  0.558400  1
  O  O1593  1  0.741200  0.481500  0.030000  1
  O  O1594  1  0.258800  0.018500  0.530000  1
  O  O1595  1  0.258800  0.518500  0.970000  1
  O  O1596  1  0.741200  0.981500  0.470000  1
  O  O1597  1  0.805400  0.508700  0.072300  1
  O  O1598  1  0.194600  0.991300  0.572300  1
  O  O1599  1  0.194600  0.491300  0.927700  1
  O  O1600  1  0.805400  0.008700  0.427700  1
  O  O1601  1  0.722400  0.453600  0.085700  1
  O  O1602  1  0.277600  0.046400  0.585700  1
  O  O1603  1  0.277600  0.546400  0.914300  1
  O  O1604  1  0.722400  0.953600  0.414300  1
  O  O1605  1  0.220500  0.779800  0.582600  1
  O  O1606  1  0.779500  0.720200  0.082600  1
  O  O1607  1  0.779500  0.220200  0.417400  1
  O  O1608  1  0.220500  0.279800  0.917400  1
  O  O1609  1  0.435300  0.868100  0.519900  1
  O  O1610  1  0.564700  0.631900  0.019900  1
  O  O1611  1  0.564700  0.131900  0.480100  1
  O  O1612  1  0.435300  0.368100  0.980100  1
  O  O1613  1  0.765900  0.424000  0.894400  1
  O  O1614  1  0.234100  0.076000  0.394400  1
  O  O1615  1  0.234100  0.576000  0.105600  1
  O  O1616  1  0.765900  0.924000  0.605600  1
  O  O1617  1  0.551300  0.307300  0.479600  1
  O  O1618  1  0.448700  0.192700  0.979600  1
  O  O1619  1  0.448700  0.692700  0.520400  1
  O  O1620  1  0.551300  0.807300  0.020400  1
  O  O1621  1  0.463100  0.351600  0.703400  1
  O  O1622  1  0.536900  0.148400  0.203400  1
  O  O1623  1  0.536900  0.648400  0.296600  1
  O  O1624  1  0.463100  0.851600  0.796600  1
  O  O1625  1  0.766000  0.017000  0.020000  1
  O  O1626  1  0.234000  0.483000  0.520000  1
  O  O1627  1  0.234000  0.983000  0.980000  1
  O  O1628  1  0.766000  0.517000  0.480000  1
  O  O1629  1  0.079800  0.676500  0.518600  1
  O  O1630  1  0.920200  0.823500  0.018600  1
  O  O1631  1  0.920200  0.323500  0.481400  1
  O  O1632  1  0.079800  0.176500  0.981400  1
  O  O1633  1  0.997200  0.106700  0.709200  1
  O  O1634  1  0.002800  0.393300  0.209200  1
  O  O1635  1  0.002800  0.893300  0.290800  1
  O  O1636  1  0.997200  0.606700  0.790800  1
  O  O1637  1  0.937300  0.448900  0.664700  1
  O  O1638  1  0.062700  0.051100  0.164700  1
  O  O1639  1  0.062700  0.551100  0.335300  1
  O  O1640  1  0.937300  0.948900  0.835300  1
  O  O1641  1  0.370500  0.787600  0.746200  1
  O  O1642  1  0.629500  0.712400  0.246200  1
  O  O1643  1  0.629500  0.212400  0.253800  1
  O  O1644  1  0.370500  0.287600  0.753800  1
  O  O1645  1  0.508000  0.795700  0.494800  1
  O  O1646  1  0.492000  0.704300  0.994800  1
  O  O1647  1  0.492000  0.204300  0.505200  1
  O  O1648  1  0.508000  0.295700  0.005200  1
  O  O1649  1  0.463100  0.921300  0.903400  1
  O  O1650  1  0.536900  0.578700  0.403400  1
  O  O1651  1  0.536900  0.078700  0.096600  1
  O  O1652  1  0.463100  0.421300  0.596600  1
  O  O1653  1  0.837700  0.527900  0.528900  1
  O  O1654  1  0.162300  0.972100  0.028900  1
  O  O1655  1  0.162300  0.472100  0.471100  1
  O  O1656  1  0.837700  0.027900  0.971100  1
  O  O1657  1  0.902200  0.383100  0.595300  1
  O  O1658  1  0.097800  0.116900  0.095300  1
  O  O1659  1  0.097800  0.616900  0.404700  1
  O  O1660  1  0.902200  0.883100  0.904700  1
  O  O1661  1  0.672600  0.050100  0.892600  1
  O  O1662  1  0.327400  0.449900  0.392600  1
  O  O1663  1  0.327400  0.949900  0.107400  1
  O  O1664  1  0.672600  0.550100  0.607400  1
  O  O1665  1  0.522200  0.580300  0.592100  1
  O  O1666  1  0.477800  0.919700  0.092100  1
  O  O1667  1  0.477800  0.419700  0.407900  1
  O  O1668  1  0.522200  0.080300  0.907900  1
  O  O1669  1  0.010700  0.903800  0.807800  1
  O  O1670  1  0.989300  0.596200  0.307800  1
  O  O1671  1  0.989300  0.096200  0.192200  1
  O  O1672  1  0.010700  0.403800  0.692200  1
  O  O1673  1  0.938700  0.065500  0.999800  1
  O  O1674  1  0.061300  0.434500  0.499800  1
  O  O1675  1  0.061300  0.934500  0.000200  1
  O  O1676  1  0.938700  0.565500  0.500200  1
  O  O1677  1  0.588600  0.574300  0.895500  1
  O  O1678  1  0.411400  0.925700  0.395500  1
  O  O1679  1  0.411400  0.425700  0.104500  1
  O  O1680  1  0.588600  0.074300  0.604500  1
  O  O1681  1  0.569000  0.122500  0.148800  1
  O  O1682  1  0.431000  0.377500  0.648800  1
  O  O1683  1  0.431000  0.877500  0.851200  1
  O  O1684  1  0.569000  0.622500  0.351200  1
  O  O1685  1  0.803000  0.748000  0.555000  1
  O  O1686  1  0.197000  0.752000  0.055000  1
  O  O1687  1  0.197000  0.252000  0.445000  1
  O  O1688  1  0.803000  0.248000  0.945000  1
  O  O1689  1  0.561000  0.992800  0.584700  1
  O  O1690  1  0.439000  0.507200  0.084700  1
  O  O1691  1  0.439000  0.007200  0.415300  1
  O  O1692  1  0.561000  0.492800  0.915300  1
  O  O1693  1  0.304000  0.212900  0.734900  1
  O  O1694  1  0.696000  0.287100  0.234900  1
  O  O1695  1  0.696000  0.787100  0.265100  1
  O  O1696  1  0.304000  0.712900  0.765100  1
  O  O1697  1  0.539000  0.002600  0.891000  1
  O  O1698  1  0.461000  0.497400  0.391000  1
  O  O1699  1  0.461000  0.997400  0.109000  1
  O  O1700  1  0.539000  0.502600  0.609000  1
  O  O1701  1  0.230500  0.391700  0.610500  1
  O  O1702  1  0.769500  0.108300  0.110500  1
  O  O1703  1  0.769500  0.608300  0.389500  1
  O  O1704  1  0.230500  0.891700  0.889500  1
  O  O1705  1  0.437000  0.553200  0.829800  1
  O  O1706  1  0.563000  0.946800  0.329800  1
  O  O1707  1  0.563000  0.446800  0.170200  1
  O  O1708  1  0.437000  0.053200  0.670200  1
  O  O1709  1  0.000000  0.765000  0.893900  1
  O  O1710  1  1.000000  0.735000  0.393900  1
  O  O1711  1  0.000000  0.235000  0.106100  1
  O  O1712  1  1.000000  0.265000  0.606100  1
  O  O1713  1  0.855900  0.382800  0.904800  1
  O  O1714  1  0.144100  0.117200  0.404800  1
  O  O1715  1  0.144100  0.617200  0.095200  1
  O  O1716  1  0.855900  0.882800  0.595200  1
  O  O1717  1  0.505700  0.826400  0.867300  1
  O  O1718  1  0.494300  0.673600  0.367300  1
  O  O1719  1  0.494300  0.173600  0.132700  1
  O  O1720  1  0.505700  0.326400  0.632700  1
  O  O1721  1  0.933200  0.349100  0.268500  1
  O  O1722  1  0.066800  0.150900  0.768500  1
  O  O1723  1  0.066800  0.650900  0.731500  1
  O  O1724  1  0.933200  0.849100  0.231500  1
  O  O1725  1  0.510000  0.663500  0.918100  1
  O  O1726  1  0.490000  0.836500  0.418100  1
  O  O1727  1  0.490000  0.336500  0.081900  1
  O  O1728  1  0.510000  0.163500  0.581900  1
  O  O1729  1  0.607300  0.070100  0.049900  1
  O  O1730  1  0.392700  0.429900  0.549900  1
  O  O1731  1  0.392700  0.929900  0.950100  1
  O  O1732  1  0.607300  0.570100  0.450100  1
  O  O1733  1  0.637000  0.119000  0.916000  1
  O  O1734  1  0.363000  0.381000  0.416000  1
  O  O1735  1  0.363000  0.881000  0.084000  1
  O  O1736  1  0.637000  0.619000  0.584000  1
  O  O1737  1  0.124700  0.652600  0.966700  1
  O  O1738  1  0.875300  0.847400  0.466700  1
  O  O1739  1  0.875300  0.347400  0.033300  1
  O  O1740  1  0.124700  0.152600  0.533300  1
  O  O1741  1  0.151000  0.750100  0.743500  1
  O  O1742  1  0.849000  0.749900  0.243500  1
  O  O1743  1  0.849000  0.249900  0.256500  1
  O  O1744  1  0.151000  0.250100  0.756500  1
  O  O1745  1  0.378000  0.552500  0.993900  1
  O  O1746  1  0.622000  0.947500  0.493900  1
  O  O1747  1  0.622000  0.447500  0.006100  1
  O  O1748  1  0.378000  0.052500  0.506100  1
  O  O1749  1  0.180000  0.510600  0.640000  1
  O  O1750  1  0.820000  0.989400  0.140000  1
  O  O1751  1  0.820000  0.489400  0.360000  1
  O  O1752  1  0.180000  0.010600  0.860000  1
  O  O1753  1  0.653000  0.932200  0.565500  1
  O  O1754  1  0.347000  0.567800  0.065500  1
  O  O1755  1  0.347000  0.067800  0.434500  1
  O  O1756  1  0.653000  0.432200  0.934500  1
  O  O1757  1  0.838500  0.502500  0.556100  1
  O  O1758  1  0.161500  0.997500  0.056100  1
  O  O1759  1  0.161500  0.497500  0.443900  1
  O  O1760  1  0.838500  0.002500  0.943900  1
