
#######################################################################
#
#                 Cambridge Crystallographic Data Centre
#                                CCDC 
#
#######################################################################
#
# If this CIF has been generated from an entry in the Cambridge 
# Structural Database, then it will include bibliographic, chemical, 
# crystal, experimental, refinement or atomic coordinate data resulting 
# from the CCDC's data processing and validation procedures.
#
#######################################################################

data_JAFFAA
_chemical_formula_moiety         
'C90 H120 N30 Pd6 12+,2(C18 H9 Br1),12(N1 O3 1-),13.8(H2 O1)'
_chemical_name_systematic        
"bis(\m-2,4,6-tri(pyridin-4-yl)-1,3,5-triazine)-tris(\m-2,2',6,6'-tetramethyl-4,4'-bipyridine)-hexakis(ethane-1,2-diamine)-hexa-palladium dodecakis(nitrate) bromocorannulene chlathrate hydrate"
_symmetry_cell_setting           monoclinic
_symmetry_space_group_name_H-M   'P 21/c'
_symmetry_Int_Tables_number      14
_space_group_name_Hall           '-P 2ybc'
loop_
_symmetry_equiv_pos_site_id
_symmetry_equiv_pos_as_xyz
1 x,y,z
2 -x,1/2+y,1/2-z
3 -x,-y,-z
4 x,1/2-y,1/2+z
_cell_length_a                   19.3300(3)
_cell_length_b                   37.4023(4)
_cell_length_c                   27.2068(3)
_cell_angle_alpha                90
_cell_angle_beta                 101.2280(10)
_cell_angle_gamma                90
_cell_volume                     19293.7
_exptl_crystal_colour            orange
_exptl_crystal_description       block
_cell_formula_units_Z            4
loop_
_atom_site_label
_atom_site_type_symbol
_atom_site_fract_x
_atom_site_fract_y
_atom_site_fract_z
Br1 Br 0.4692(7) 0.3167(6) 0.3680(4)
C1 C 0.3802(14) 0.3028(6) 0.3552(8)
C2 C 0.3295(13) 0.3224(9) 0.3503(14)
H1 H 0.3398 0.3470 0.3571
C3 C 0.2480(10) 0.3129(5) 0.3340(8)
C4 C 0.2310(9) 0.2783(4) 0.3320(6)
C5 C 0.2902(9) 0.2542(5) 0.3409(11)
C6 C 0.3581(11) 0.2617(6) 0.3527(9)
C7 C 0.1829(14) 0.3401(6) 0.3232(10)
H2 H 0.1860 0.3654 0.3219
C8 C 0.129(2) 0.3226(6) 0.3167(13)
H3 H 0.0873 0.3367 0.3144
C9 C 0.1136(11) 0.2810(5) 0.3115(6)
C10 C 0.1667(9) 0.2579(4) 0.3173(10)
C11 C 0.1565(14) 0.1884(6) 0.3207(10)
C12 C 0.1867(9) 0.2204(4) 0.3241(9)
C13 C 0.2024(17) 0.1531(6) 0.3243(8)
H4 H 0.1779 0.1314 0.3146
C14 C 0.2662(19) 0.1511(7) 0.3384(9)
H5 H 0.2907 0.1290 0.3452
C15 C 0.3049(11) 0.1896(6) 0.3443(13)
C16 C 0.2622(9) 0.2181(5) 0.3365(10)
C17 C 0.3872(12) 0.1988(9) 0.3625(13)
H6 H 0.4190 0.1795 0.3721
C18 C 0.4113(15) 0.2291(9) 0.3647(14)
H7 H 0.4607 0.2330 0.3734
Br2 Br 0.0881(8) 0.3110(5) 0.1812(3)
C19 C 0.1766(15) 0.3002(8) 0.1953(9)
C20 C 0.2258(13) 0.3245(9) 0.2009(10)
H8 H 0.2109 0.3487 0.1969
C21 C 0.3018(12) 0.3179(8) 0.2128(14)
C22 C 0.3229(11) 0.2784(7) 0.2173(7)
C23 C 0.2633(11) 0.2510(7) 0.2061(6)
C24 C 0.1860(11) 0.2611(8) 0.1920(10)
C25 C 0.3597(16) 0.3426(9) 0.2290(12)
H9 H 0.3586 0.3678 0.2331
C26 C 0.4127(19) 0.3213(9) 0.2361(18)
H10 H 0.4520 0.3371 0.2407
C27 C 0.4455(14) 0.2860(9) 0.2410(13)
C28 C 0.3899(12) 0.2562(7) 0.2315(11)
C29 C 0.3766(15) 0.1755(8) 0.2261(10)
C30 C 0.3697(12) 0.2166(7) 0.2260(11)
C31 C 0.3138(19) 0.1559(9) 0.2200(11)
H11 H 0.3300 0.1347 0.2379
C32 C 0.2473(18) 0.1483(8) 0.2051(9)
H12 H 0.2209 0.1268 0.1989
C33 C 0.2306(13) 0.1846(7) 0.2020(10)
C34 C 0.2901(12) 0.2126(7) 0.2117(10)
C35 C 0.1632(14) 0.1988(10) 0.1855(13)
H13 H 0.1284 0.1819 0.1712
C36 C 0.1407(14) 0.2314(9) 0.1867(9)
H14 H 0.0916 0.2354 0.1838
N1 N 0.1389(8) 0.7211(6) 0.5320(10)
O1 O 0.1694(16) 0.6944(7) 0.5458(13)
O2 O 0.0994(12) 0.7363(6) 0.5592(7)
O3 O 0.1484(7) 0.7349(5) 0.4942(6)
N2 N 0.2830(10) 0.5593(3) 0.6712(7)
O4 O 0.3017(11) 0.5564(3) 0.6292(8)
O5 O 0.3249(9) 0.5486(4) 0.7111(8)
O6 O 0.2291(8) 0.5735(4) 0.6778(6)
N3 N 0.8848(11) 0.4721(3) 0.1694(5)
O7 O 0.9319(7) 0.4834(3) 0.1477(5)
O8 O 0.9015(16) 0.4659(5) 0.2137(5)
O9 O 0.8228(10) 0.4665(4) 0.1441(7)
N4 N 0.6885(6) 0.3076(4) 0.0608(6)
O10 O 0.7013(11) 0.3378(4) 0.0568(12)
O11 O 0.6434(8) 0.2959(4) 0.0823(7)
O12 O 0.7293(9) 0.2862(5) 0.0479(7)
N5 N -0.0410(7) 0.0906(3) 0.4349(5)
O13 O -0.0066(7) 0.1110(4) 0.4612(6)
O14 O -0.0904(13) 0.1007(8) 0.4033(13)
O15 O -0.0325(8) 0.0584(3) 0.4351(6)
N6 N 0.2425(8) -0.0623(4) 0.5198(5)
O16 O 0.2588(7) -0.0300(3) 0.5185(5)
O17 O 0.1946(10) -0.0723(4) 0.4913(7)
O18 O 0.2776(10) -0.0857(4) 0.5464(7)
Pd1 Pd 0.6553(4) 0.3060(4) 0.53239(12)
Pd2 Pd 0.16495(4) 0.05719(2) 0.44857(3)
Pd3 Pd 0.58960(4) 0.38082(2) 0.13244(3)
Pd4 Pd -0.08983(4) 0.32978(2) 0.02129(2)
N7 N 0.7578(6) 0.3171(4) 0.5572(5)
H15 H 0.7853 0.3116 0.5347
H16 H 0.7589 0.3412 0.5622
C37 C 0.7812(8) 0.2977(5) 0.6049(8)
H17 H 0.8234 0.3097 0.6243
H18 H 0.7949 0.2731 0.5974
C38 C 0.7233(10) 0.2959(8) 0.6374(6)
H19 H 0.7371 0.2790 0.6656
H20 H 0.7154 0.3198 0.6510
N8 N 0.6578(7) 0.2830(5) 0.6023(4)
H21 H 0.6198 0.2908 0.6145
H22 H 0.6575 0.2587 0.6037
Pd5 Pd -0.00769(6) 0.40130(3) 0.42355(3)
N9 N -0.0782(6) 0.4427(3) 0.4180(5)
H23 H -0.0798 0.4544 0.3884
H24 H -0.1221 0.4340 0.4183
C39 C -0.0578(10) 0.4676(5) 0.4594(7)
H25 H -0.0970 0.4840 0.4623
H26 H -0.0161 0.4818 0.4554
C40 C -0.0395(11) 0.4413(5) 0.5076(6)
H27 H -0.0224 0.4554 0.5383
H28 H -0.0823 0.4281 0.5119
N10 N 0.0166(9) 0.4155(5) 0.4991(4)
H29 H 0.0167 0.3958 0.5188
H30 H 0.0599 0.4259 0.5066
N11 N 0.1221(6) 0.0621(2) 0.5106(4)
H31 H 0.1500 0.0761 0.5336
H32 H 0.0788 0.0725 0.5024
C41 C 0.1158(8) 0.0262(3) 0.5315(5)
H33 H 0.0830 0.0267 0.5552
H34 H 0.1624 0.0178 0.5496
C42 C 0.0875(7) 0.0010(3) 0.4869(5)
H35 H 0.0850 -0.0240 0.4984
H36 H 0.0399 0.0086 0.4694
N12 N 0.1393(5) 0.00451(19) 0.4536(4)
H37 H 0.1206 -0.0042 0.4226
H38 H 0.1787 -0.0084 0.4662
Pd6 Pd 0.3412(4) 0.05018(9) 0.08671(10)
N13 N 0.3915(19) 0.0598(6) 0.0245(9)
H39 H 0.3606 0.0699 -0.0013
H40 H 0.4288 0.0749 0.0336
C43 C 0.4158(15) 0.0246(6) 0.0093(9)
H41 H 0.3758 0.0124 -0.0125
H42 H 0.4530 0.0285 -0.0105
C44 C 0.4425(13) 0.0023(6) 0.0503(11)
H43 H 0.4846 0.0130 0.0718
H44 H 0.4549 -0.0216 0.0388
N14 N 0.3766(16) -0.0003(4) 0.0801(10)
H45 H 0.3913 -0.0102 0.1109
H46 H 0.3415 -0.0142 0.0626
N15 N 0.5811(6) 0.3887(3) 0.0573(4)
H47 H 0.5947 0.3687 0.0428
H48 H 0.5356 0.3936 0.0429
C45 C 0.6290(8) 0.4204(4) 0.0497(6)
H49 H 0.6452 0.4175 0.0175
H50 H 0.6020 0.4430 0.0482
C46 C 0.6896(7) 0.4221(4) 0.0905(5)
H51 H 0.7156 0.4447 0.0888
H52 H 0.7219 0.4019 0.0881
N16 N 0.6635(5) 0.4200(2) 0.1386(4)
H53 H 0.6443 0.4414 0.1449
H54 H 0.6999 0.4151 0.1643
N17 N -0.1046(5) 0.3141(3) -0.0522(3)
H55 H -0.0696 0.3234 -0.0663
H56 H -0.1021 0.2899 -0.0537
C47 C -0.1722(9) 0.3260(7) -0.0801(5)
H57 H -0.1652 0.3480 -0.0987
H58 H -0.1913 0.3074 -0.1050
C48 C -0.2227(8) 0.3330(6) -0.0492(5)
H59 H -0.2475 0.3105 -0.0445
H60 H -0.2583 0.3500 -0.0669
N18 N -0.1922(5) 0.3479(3) 0.0007(3)
H61 H -0.2180 0.3408 0.0235
H62 H -0.1927 0.3722 -0.0006
C49 C 0.3305(4) 0.2627(2) 0.4731(2)
N19 N 0.2832(4) 0.28919(16) 0.4654(2)
C50 C 0.2165(5) 0.27819(19) 0.4541(2)
N20 N 0.1951(4) 0.24352(16) 0.4492(2)
C51 C 0.2477(5) 0.21994(19) 0.4573(3)
N21 N 0.3158(4) 0.22766(16) 0.4696(2)
N22 N 0.5474(5) 0.2901(3) 0.5123(3)
C52 C 0.4971(6) 0.3167(3) 0.5005(4)
H63 H 0.5115 0.3410 0.5011
C53 C 0.4270(5) 0.3085(2) 0.4878(3)
H64 H 0.3930 0.3270 0.4800
C54 C 0.4058(5) 0.2728(2) 0.4864(3)
C55 C 0.4574(6) 0.2464(3) 0.4978(4)
H65 H 0.4449 0.2218 0.4960
C56 C 0.5281(6) 0.2568(3) 0.5120(4)
H66 H 0.5631 0.2389 0.5216
N23 N 0.0574(7) 0.3581(3) 0.4348(3)
C57 C 0.1254(10) 0.3669(3) 0.4476(4)
H67 H 0.1379 0.3913 0.4529
C58 C 0.1778(7) 0.3417(3) 0.4533(3)
H68 H 0.2259 0.3486 0.4619
C59 C 0.1598(5) 0.3060(2) 0.4466(3)
C60 C 0.0893(6) 0.2968(3) 0.4332(3)
H69 H 0.0751 0.2726 0.4280
C61 C 0.0412(8) 0.3237(3) 0.4279(4)
H70 H -0.0073 0.3175 0.4186
N24 N 0.1905(5) 0.1108(2) 0.4495(3)
C62 C 0.2574(6) 0.1199(2) 0.4602(4)
H71 H 0.2921 0.1016 0.4665
C63 C 0.2793(6) 0.1555(2) 0.4625(3)
H72 H 0.3280 0.1615 0.4696
C64 C 0.2279(5) 0.18173(19) 0.4541(3)
C65 C 0.1577(5) 0.1716(2) 0.4422(3)
H73 H 0.1214 0.1890 0.4352
C66 C 0.1418(6) 0.1355(2) 0.4406(4)
H74 H 0.0937 0.1284 0.4328
N25 N 0.3266(6) 0.1063(2) 0.0874(3)
C67 C 0.3789(7) 0.1289(3) 0.0939(5)
H75 H 0.4257 0.1199 0.0988
C68 C 0.3686(6) 0.1650(3) 0.0938(4)
H76 H 0.4079 0.1807 0.0982
C69 C 0.3013(5) 0.1786(2) 0.0873(3)
C70 C 0.2461(6) 0.1548(2) 0.0801(3)
H77 H 0.1987 0.1630 0.0744
C71 C 0.2613(6) 0.1180(2) 0.0812(3)
H78 H 0.2236 0.1013 0.0775
N26 N 0.5090(4) 0.3445(2) 0.1210(3)
C72 C 0.4417(5) 0.3561(3) 0.1038(4)
H79 H 0.4348 0.3809 0.0971
C73 C 0.3861(5) 0.3354(3) 0.0958(4)
H80 H 0.3404 0.3451 0.0846
C74 C 0.3948(4) 0.2988(2) 0.1040(3)
C75 C 0.4623(5) 0.2859(3) 0.1222(3)
H81 H 0.4703 0.2611 0.1283
C76 C 0.5172(5) 0.3099(3) 0.1310(4)
H82 H 0.5631 0.3013 0.1450
N27 N 0.0100(4) 0.30882(19) 0.0374(3)
C77 C 0.0659(5) 0.3302(2) 0.0510(3)
H83 H 0.0587 0.3553 0.0522
C78 C 0.1335(5) 0.3170(2) 0.0634(3)
H84 H 0.1725 0.3326 0.0731
C79 C 0.1435(4) 0.2804(2) 0.0612(3)
C80 C 0.0855(5) 0.2584(2) 0.0472(3)
H85 H 0.0910 0.2332 0.0461
C81 C 0.0195(6) 0.2737(2) 0.0346(4)
H86 H -0.0202 0.2587 0.0238
C82 C 0.2892(5) 0.2182(2) 0.0868(2)
N28 N 0.3468(4) 0.23879(18) 0.0973(2)
C83 C 0.3332(4) 0.2732(2) 0.0944(3)
N29 N 0.2689(3) 0.28880(18) 0.0835(2)
C84 C 0.2152(4) 0.2648(2) 0.0738(2)
N30 N 0.2230(4) 0.22951(17) 0.0749(2)
N31 N 0.6512(5) 0.3216(3) 0.4613(4)
C85 C 0.6591(6) 0.2968(3) 0.4248(5)
C86 C 0.6542(6) 0.3077(3) 0.3753(4)
H87 H 0.6618 0.2907 0.3509
C87 C 0.6382(5) 0.3430(3) 0.3609(4)
C88 C 0.6328(6) 0.3670(3) 0.3987(5)
H88 H 0.6240 0.3915 0.3908
C89 C 0.6401(5) 0.3555(3) 0.4493(4)
C90 C 0.6710(9) 0.2589(4) 0.4399(5)
H89 H 0.6756 0.2445 0.4107
H90 H 0.7144 0.2570 0.4654
H91 H 0.6310 0.2502 0.4538
C91 C 0.6373(8) 0.3818(4) 0.4912(6)
H92 H 0.6288 0.4059 0.4773
H93 H 0.5990 0.3751 0.5083
H94 H 0.6823 0.3814 0.5152
N32 N -0.0351(6) 0.3898(3) 0.3479(3)
C92 C -0.0886(6) 0.3682(3) 0.3290(4)
C93 C -0.1010(5) 0.3582(3) 0.2787(4)
H95 H -0.1380 0.3421 0.2655
C94 C -0.0588(5) 0.3722(2) 0.2490(3)
C95 C -0.0051(6) 0.3963(2) 0.2701(4)
H96 H 0.0232 0.4072 0.2494
C96 C 0.0064(7) 0.4038(3) 0.3191(4)
C97 C -0.1431(8) 0.3503(5) 0.3608(4)
H97 H -0.1776 0.3356 0.3385
H98 H -0.1167 0.3353 0.3876
H99 H -0.1677 0.3693 0.3755
C98 C 0.0661(8) 0.4285(3) 0.3429(5)
H100 H 0.0918 0.4367 0.3173
H101 H 0.0466 0.4492 0.3576
H102 H 0.0983 0.4156 0.3692
N33 N 0.2004(4) 0.05009(17) 0.3828(3)
C99 C 0.2666(6) 0.0375(2) 0.3834(4)
C100 C 0.2914(5) 0.0352(2) 0.3388(3)
H103 H 0.3385 0.0277 0.3394
C101 C 0.2481(5) 0.0438(2) 0.2933(4)
C102 C 0.1790(5) 0.0551(2) 0.2949(4)
H104 H 0.1476 0.0611 0.2646
C103 C 0.1563(5) 0.0576(2) 0.3397(4)
C104 C 0.3107(6) 0.0265(3) 0.4319(4)
H105 H 0.3566 0.0181 0.4264
H106 H 0.3175 0.0470 0.4548
H107 H 0.2870 0.0072 0.4465
C105 C 0.0836(6) 0.0707(3) 0.3407(4)
H108 H 0.0582 0.0750 0.3063
H109 H 0.0584 0.0527 0.3566
H110 H 0.0864 0.0931 0.3598
N34 N 0.3194(4) 0.04587(19) 0.1553(3)
C106 C 0.2530(5) 0.0339(2) 0.1575(4)
C107 C 0.2298(5) 0.0326(2) 0.2016(4)
H111 H 0.1833 0.0246 0.2020
C108 C 0.2736(5) 0.0428(2) 0.2459(4)
C109 C 0.3423(5) 0.0534(2) 0.2439(4)
H112 H 0.3743 0.0596 0.2738
C110 C 0.3640(6) 0.0548(2) 0.1978(4)
C111 C 0.2065(7) 0.0227(3) 0.1074(4)
H113 H 0.2329 0.0257 0.0804
H114 H 0.1927 -0.0024 0.1093
H115 H 0.1641 0.0377 0.1007
C112 C 0.4370(6) 0.0672(4) 0.1954(4)
H116 H 0.4628 0.0727 0.2293
H117 H 0.4618 0.0484 0.1807
H118 H 0.4342 0.0888 0.1746
N35 N 0.6075(4) 0.3714(2) 0.2080(3)
C113 C 0.6616(4) 0.3487(3) 0.2283(4)
C114 C 0.6709(5) 0.3393(3) 0.2765(4)
H119 H 0.7066 0.3225 0.2894
C115 C 0.6293(5) 0.3537(2) 0.3084(4)
C116 C 0.5772(5) 0.3779(3) 0.2867(4)
H120 H 0.5488 0.3894 0.3068
C117 C 0.5672(5) 0.3850(3) 0.2369(4)
C118 C 0.7083(5) 0.3345(4) 0.1955(5)
H121 H 0.6936 0.3442 0.1617
H122 H 0.7571 0.3416 0.2090
H123 H 0.7050 0.3084 0.1943
C119 C 0.5066(6) 0.4096(3) 0.2121(5)
H124 H 0.4806 0.4179 0.2374
H125 H 0.5260 0.4302 0.1970
H126 H 0.4747 0.3963 0.1860
N36 N -0.0814(4) 0.34509(19) 0.0954(3)
C120 C -0.0628(6) 0.3783(2) 0.1103(4)
C121 C -0.0545(6) 0.3881(2) 0.1606(4)
H127 H -0.0391 0.4115 0.1710
C122 C -0.0690(5) 0.3632(2) 0.1955(3)
C123 C -0.0889(5) 0.3288(3) 0.1783(4)
H128 H -0.0981 0.3112 0.2013
C124 C -0.0954(6) 0.3200(3) 0.1288(3)
C125 C -0.0501(8) 0.4056(3) 0.0725(5)
H129 H -0.0369 0.4284 0.0894
H130 H -0.0118 0.3974 0.0564
H131 H -0.0931 0.4087 0.0471
C126 C -0.1106(9) 0.2828(3) 0.1118(4)
H132 H -0.1134 0.2815 0.0755
H133 H -0.0728 0.2671 0.1288
H134 H -0.1556 0.2752 0.1199
O19 O 0.7795(6) 0.4174(3) 0.2202(4)
O20 O 0.5647(6) 0.4801(3) 0.1319(4)
O21 O 0.2341(7) 0.1056(4) 0.5760(5)
O22 O 0.4487(9) 0.5204(5) 0.6927(6)
O23 O 0.5369(13) 0.2966(7) 0.6484(9)
O24 O 0.234(2) -0.0200(11) -0.017(2)
O25 O 0.9202(10) 0.4814(5) 0.3235(7)
O26 O 0.0028(13) 0.2908(6) -0.1067(9)
O27 O 0.0627(12) 0.3353(6) 0.5511(8)
O28 O 0.6295(15) 0.2538(8) 0.2124(10)
O29 O 0.4920(10) 0.5052(5) 0.2043(7)
O30 O 0.5369(16) 0.0966(8) 0.0787(11)
O31 O 0.1623(12) 0.4711(6) 0.4721(8)
O32 O 0.0978(19) 0.4047(9) 0.6169(12)
O33 O 0.3274(18) 0.1074(9) -0.0501(12)
O34 O 0.4778(19) 0.4079(9) 0.4197(12)
O35 O -0.0107(16) 0.1922(9) 0.0962(12)
O36 O 0.0613(14) 0.0002(8) -0.0655(14)
O37 O 0.4114(19) 0.1045(9) 0.4257(10)
O38 O 0.431(2) -0.1488(8) -0.1225(15)
O39 O 0.197(5) 0.445(2) 0.252(3)
O40 O 0.4390(17) 0.4153(8) 0.0072(10)
O41 O -0.304(3) 0.2651(14) -0.2129(15)
O42 O 0.461(3) 0.1090(12) -0.0026(17)
O43 O 0.7695(16) 0.3895(8) 0.6083(11)
O44 O 0.563(2) 0.1702(10) 0.4468(14)
O45 O 0.000(3) 0.1061(16) 0.235(2)
O46 O 0.1441(16) 0.0952(10) 0.6172(13)
O47 O 0.4943(17) 0.1327(8) 0.1736(12)
O48 O 0.0668(19) 0.7315(9) 0.6509(12)
O49 O 0.490(2) 0.0819(10) 0.3365(13)
O50 O 0.3927(18) -0.0499(8) -0.0701(12)
O51 O 0.363(2) 0.084(5) -0.119(3)
O52 O -0.1247(16) 0.0333(8) 0.3474(10)
O53 O -0.151(2) 0.2565(10) 0.2499(15)
O54 O 0.622(2) 0.0061(10) 0.4475(13)
O55 O -0.180(2) 0.3600(8) 0.4894(13)
O56 O 0.347(2) 0.4345(11) 0.0678(14)
Br3? Br 0.4846(9) 0.2654(8) 0.3737(5)
C127? C 0.3972(16) 0.2474(11) 0.360(2)
C128? C 0.3817(18) 0.2161(14) 0.353(2)
H135? H 0.4208 0.2003 0.3563
C129? C 0.3062(17) 0.1972(10) 0.339(3)
C130? C 0.2490(16) 0.2180(9) 0.3329(16)
C131? C 0.2642(15) 0.2558(9) 0.3368(19)
C132? C 0.3276(16) 0.2715(10) 0.348(2)
C133? C 0.290(2) 0.1551(10) 0.3325(18)
H136? H 0.3238 0.1362 0.3399
C134? C 0.227(3) 0.1520(12) 0.316(2)
H137? H 0.2141 0.1285 0.3051
C135? C 0.162(2) 0.1786(11) 0.3104(17)
C136? C 0.1735(17) 0.2133(10) 0.3194(15)
C137? C 0.0774(18) 0.2631(13) 0.2997(16)
C138? C 0.1402(16) 0.2483(10) 0.3161(14)
C139? C 0.068(2) 0.3054(12) 0.3034(13)
H138? H 0.0216 0.3145 0.3021
C140? C 0.116(2) 0.3268(12) 0.308(2)
H139? H 0.1090 0.3515 0.3006
C141? C 0.1938(18) 0.3102(10) 0.3263(16)
C142? C 0.1971(17) 0.2743(9) 0.323(2)
C143? C 0.270(2) 0.3287(11) 0.340(2)
H140? H 0.2710 0.3538 0.3446
C144? C 0.328(2) 0.3141(11) 0.344(3)
H141? H 0.3701 0.3274 0.3458
Br4? Br 0.0931(13) 0.2413(10) 0.1748(6)
C145? C 0.1817(15) 0.2290(7) 0.1895(13)
C146? C 0.1958(16) 0.1954(8) 0.1960(11)
H142? H 0.1581 0.1794 0.1975
C147? C 0.2666(15) 0.1807(6) 0.2011(8)
C148? C 0.3256(17) 0.2084(7) 0.2170(19)
C149? C 0.3054(17) 0.2479(7) 0.216(2)
C150? C 0.2279(17) 0.2601(7) 0.2028(11)
C151? C 0.2864(18) 0.1431(7) 0.2032(15)
H143? H 0.2605 0.1219 0.1929
C152? C 0.3509(14) 0.1487(6) 0.2239(11)
H144? H 0.3618 0.1277 0.2436
C153? C 0.4174(16) 0.1681(9) 0.2351(18)
C154? C 0.4068(17) 0.2084(7) 0.226(2)
C155? C 0.4825(19) 0.2782(10) 0.255(2)
C156? C 0.4327(18) 0.2466(7) 0.2371(16)
C157? C 0.4528(19) 0.3119(8) 0.2430(14)
H145? H 0.4945 0.3255 0.2436
C158? C 0.4061(18) 0.3369(7) 0.2320(14)
H146? H 0.4083 0.3622 0.2292
C159? C 0.3513(15) 0.3121(8) 0.226(2)
C160? C 0.3701(17) 0.2720(7) 0.2251(18)
C161? C 0.2780(16) 0.3171(9) 0.2124(19)
H147? H 0.2665 0.3418 0.2092
C162? C 0.2215(18) 0.2975(7) 0.2030(16)
H148? H 0.1762 0.3084 0.1963
Pd7? Pd 0.6435(5) 0.2972(2) 0.5302(3)
Pd8? Pd -0.04533(11) 0.38460(6) 0.43038(7)
N37? N -0.1159(14) 0.4250(6) 0.4286(8)
H149? H -0.0954 0.4458 0.4212
H150? H -0.1535 0.4207 0.4035
C163? C -0.1404(19) 0.4296(9) 0.4739(12)
H151? H -0.1855 0.4167 0.4718
H152? H -0.1493 0.4553 0.4788
C164? C -0.0849(16) 0.4153(9) 0.5205(10)
H153? H -0.0565 0.4357 0.5365
H154? H -0.1107 0.4052 0.5453
N38? N -0.0360(17) 0.3874(9) 0.5078(7)
H155? H -0.0467 0.3658 0.5198
H156? H 0.0092 0.3929 0.5223
Pd9? Pd 0.3643(3) 0.0572(2) 0.08978(18)
N39? N 0.3492(15) 0.0497(5) 0.0113(7)
H157? H 0.3025 0.0477 -0.0024
H158? H 0.3676 0.0683 -0.0035
C165? C 0.387(2) 0.0158(7) 0.0046(12)
H159? H 0.3746 0.0085 -0.0311
H160? H 0.4384 0.0204 0.0125
C166? C 0.3717(16) -0.0129(5) 0.0347(10)
H161? H 0.4024 -0.0338 0.0324
H162? H 0.3217 -0.0203 0.0251
N40? N 0.388(3) 0.0046(7) 0.0907(9)
H163? H 0.4349 0.0017 0.1042
H164? H 0.3630 -0.0072 0.1105
O57? O 0.1615(13) 0.4439(7) 0.4975(9)
loop_
_geom_bond_atom_site_label_1
_geom_bond_atom_site_label_2
_geom_bond_site_symmetry_1
_geom_bond_site_symmetry_2
Br1 C1 1_555 1_555
C1 C2 1_555 1_555
C2 H1 1_555 1_555
C3 C2 1_555 1_555
C4 C3 1_555 1_555
C5 C4 1_555 1_555
C6 C1 1_555 1_555
C7 C3 1_555 1_555
H2 C7 1_555 1_555
C8 C7 1_555 1_555
H3 C8 1_555 1_555
C9 C8 1_555 1_555
C10 C4 1_555 1_555
C11 C12 1_555 1_555
C12 C10 1_555 1_555
C13 C11 1_555 1_555
H4 C13 1_555 1_555
C14 C13 1_555 1_555
H5 C14 1_555 1_555
C15 C14 1_555 1_555
C16 C5 1_555 1_555
C17 C15 1_555 1_555
H6 C17 1_555 1_555
C18 C6 1_555 1_555
H7 C18 1_555 1_555
Br2 C19 1_555 1_555
C19 C20 1_555 1_555
C20 H8 1_555 1_555
C21 C20 1_555 1_555
C22 C21 1_555 1_555
C23 C22 1_555 1_555
C24 C19 1_555 1_555
C25 C21 1_555 1_555
H9 C25 1_555 1_555
C26 C25 1_555 1_555
H10 C26 1_555 1_555
C27 C26 1_555 1_555
C28 C22 1_555 1_555
C29 C30 1_555 1_555
C30 C28 1_555 1_555
C31 C29 1_555 1_555
H11 C31 1_555 1_555
C32 C31 1_555 1_555
H12 C32 1_555 1_555
C33 C32 1_555 1_555
C34 C23 1_555 1_555
C35 C33 1_555 1_555
H13 C35 1_555 1_555
C36 C24 1_555 1_555
H14 C36 1_555 1_555
N1 O1 1_555 1_555
O2 N1 1_555 1_555
O3 N1 1_555 1_555
N2 O4 1_555 1_555
O5 N2 1_555 1_555
O6 N2 1_555 1_555
N3 O7 1_555 1_555
O8 N3 1_555 1_555
O9 N3 1_555 1_555
N4 O10 1_555 1_555
O11 N4 1_555 1_555
O12 N4 1_555 1_555
N5 O13 1_555 1_555
O14 N5 1_555 1_555
O15 N5 1_555 1_555
N6 O16 1_555 1_555
O17 N6 1_555 1_555
O18 N6 1_555 1_555
Pd1 N7 1_555 1_555
Pd2 N11 1_555 1_555
Pd3 N15 1_555 1_555
Pd4 N17 1_555 1_555
N7 H15 1_555 1_555
H16 N7 1_555 1_555
C37 N7 1_555 1_555
H17 C37 1_555 1_555
H18 C37 1_555 1_555
C38 C37 1_555 1_555
H19 C38 1_555 1_555
H20 C38 1_555 1_555
N8 Pd1 1_555 1_555
H21 N8 1_555 1_555
H22 N8 1_555 1_555
Pd5 N9 1_555 1_555
N9 H23 1_555 1_555
H24 N9 1_555 1_555
C39 N9 1_555 1_555
H25 C39 1_555 1_555
H26 C39 1_555 1_555
C40 C39 1_555 1_555
H27 C40 1_555 1_555
H28 C40 1_555 1_555
N10 Pd5 1_555 1_555
H29 N10 1_555 1_555
H30 N10 1_555 1_555
N11 H31 1_555 1_555
H32 N11 1_555 1_555
C41 N11 1_555 1_555
H33 C41 1_555 1_555
H34 C41 1_555 1_555
C42 C41 1_555 1_555
H35 C42 1_555 1_555
H36 C42 1_555 1_555
N12 Pd2 1_555 1_555
H37 N12 1_555 1_555
H38 N12 1_555 1_555
Pd6 N13 1_555 1_555
N13 H39 1_555 1_555
H40 N13 1_555 1_555
C43 N13 1_555 1_555
H41 C43 1_555 1_555
H42 C43 1_555 1_555
C44 C43 1_555 1_555
H43 C44 1_555 1_555
H44 C44 1_555 1_555
N14 Pd6 1_555 1_555
H45 N14 1_555 1_555
H46 N14 1_555 1_555
N15 H47 1_555 1_555
H48 N15 1_555 1_555
C45 N15 1_555 1_555
H49 C45 1_555 1_555
H50 C45 1_555 1_555
C46 C45 1_555 1_555
H51 C46 1_555 1_555
H52 C46 1_555 1_555
N16 Pd3 1_555 1_555
H53 N16 1_555 1_555
H54 N16 1_555 1_555
N17 H55 1_555 1_555
H56 N17 1_555 1_555
C47 N17 1_555 1_555
H57 C47 1_555 1_555
H58 C47 1_555 1_555
C48 C47 1_555 1_555
H59 C48 1_555 1_555
H60 C48 1_555 1_555
N18 Pd4 1_555 1_555
H61 N18 1_555 1_555
H62 N18 1_555 1_555
C49 N19 1_555 1_555
N19 C50 1_555 1_555
C50 N20 1_555 1_555
N20 C51 1_555 1_555
C51 N21 1_555 1_555
N21 C49 1_555 1_555
N22 Pd1 1_555 1_555
C52 N22 1_555 1_555
H63 C52 1_555 1_555
C53 C52 1_555 1_555
H64 C53 1_555 1_555
C54 C49 1_555 1_555
C55 C54 1_555 1_555
H65 C55 1_555 1_555
C56 N22 1_555 1_555
H66 C56 1_555 1_555
N23 Pd5 1_555 1_555
C57 N23 1_555 1_555
H67 C57 1_555 1_555
C58 C57 1_555 1_555
H68 C58 1_555 1_555
C59 C50 1_555 1_555
C60 C59 1_555 1_555
H69 C60 1_555 1_555
C61 N23 1_555 1_555
H70 C61 1_555 1_555
N24 Pd2 1_555 1_555
C62 N24 1_555 1_555
H71 C62 1_555 1_555
C63 C62 1_555 1_555
H72 C63 1_555 1_555
C64 C51 1_555 1_555
C65 C64 1_555 1_555
H73 C65 1_555 1_555
C66 N24 1_555 1_555
H74 C66 1_555 1_555
N25 Pd6 1_555 1_555
C67 N25 1_555 1_555
H75 C67 1_555 1_555
C68 C67 1_555 1_555
H76 C68 1_555 1_555
C69 C68 1_555 1_555
C70 C69 1_555 1_555
H77 C70 1_555 1_555
C71 N25 1_555 1_555
H78 C71 1_555 1_555
N26 Pd3 1_555 1_555
C72 N26 1_555 1_555
H79 C72 1_555 1_555
C73 C72 1_555 1_555
H80 C73 1_555 1_555
C74 C73 1_555 1_555
C75 C74 1_555 1_555
H81 C75 1_555 1_555
C76 N26 1_555 1_555
H82 C76 1_555 1_555
N27 Pd4 1_555 1_555
C77 N27 1_555 1_555
H83 C77 1_555 1_555
C78 C77 1_555 1_555
H84 C78 1_555 1_555
C79 C78 1_555 1_555
C80 C79 1_555 1_555
H85 C80 1_555 1_555
C81 N27 1_555 1_555
H86 C81 1_555 1_555
C82 C69 1_555 1_555
N28 C82 1_555 1_555
C83 C74 1_555 1_555
N29 C83 1_555 1_555
C84 C79 1_555 1_555
N30 C82 1_555 1_555
N31 Pd1 1_555 1_555
C85 N31 1_555 1_555
C86 C85 1_555 1_555
H87 C86 1_555 1_555
C87 C86 1_555 1_555
C88 C87 1_555 1_555
H88 C88 1_555 1_555
C89 N31 1_555 1_555
C90 C85 1_555 1_555
H89 C90 1_555 1_555
H90 C90 1_555 1_555
H91 C90 1_555 1_555
C91 C89 1_555 1_555
H92 C91 1_555 1_555
H93 C91 1_555 1_555
H94 C91 1_555 1_555
N32 Pd5 1_555 1_555
C92 N32 1_555 1_555
C93 C92 1_555 1_555
H95 C93 1_555 1_555
C94 C93 1_555 1_555
C95 C94 1_555 1_555
H96 C95 1_555 1_555
C96 N32 1_555 1_555
C97 C92 1_555 1_555
H97 C97 1_555 1_555
H98 C97 1_555 1_555
H99 C97 1_555 1_555
C98 C96 1_555 1_555
H100 C98 1_555 1_555
H101 C98 1_555 1_555
H102 C98 1_555 1_555
N33 Pd2 1_555 1_555
C99 N33 1_555 1_555
C100 C99 1_555 1_555
H103 C100 1_555 1_555
C101 C100 1_555 1_555
C102 C101 1_555 1_555
H104 C102 1_555 1_555
C103 N33 1_555 1_555
C104 C99 1_555 1_555
H105 C104 1_555 1_555
H106 C104 1_555 1_555
H107 C104 1_555 1_555
C105 C103 1_555 1_555
H108 C105 1_555 1_555
H109 C105 1_555 1_555
H110 C105 1_555 1_555
N34 Pd6 1_555 1_555
C106 N34 1_555 1_555
C107 C106 1_555 1_555
H111 C107 1_555 1_555
C108 C101 1_555 1_555
C109 C108 1_555 1_555
H112 C109 1_555 1_555
C110 N34 1_555 1_555
C111 C106 1_555 1_555
H113 C111 1_555 1_555
H114 C111 1_555 1_555
H115 C111 1_555 1_555
C112 C110 1_555 1_555
H116 C112 1_555 1_555
H117 C112 1_555 1_555
H118 C112 1_555 1_555
N35 Pd3 1_555 1_555
C113 N35 1_555 1_555
C114 C113 1_555 1_555
H119 C114 1_555 1_555
C115 C87 1_555 1_555
C116 C115 1_555 1_555
H120 C116 1_555 1_555
C117 N35 1_555 1_555
C118 C113 1_555 1_555
H121 C118 1_555 1_555
H122 C118 1_555 1_555
H123 C118 1_555 1_555
C119 C117 1_555 1_555
H124 C119 1_555 1_555
H125 C119 1_555 1_555
H126 C119 1_555 1_555
N36 Pd4 1_555 1_555
C120 N36 1_555 1_555
C121 C120 1_555 1_555
H127 C121 1_555 1_555
C122 C94 1_555 1_555
C123 C122 1_555 1_555
H128 C123 1_555 1_555
C124 N36 1_555 1_555
C125 C120 1_555 1_555
H129 C125 1_555 1_555
H130 C125 1_555 1_555
H131 C125 1_555 1_555
C126 C124 1_555 1_555
H132 C126 1_555 1_555
H133 C126 1_555 1_555
H134 C126 1_555 1_555
C5 C6 1_555 1_555
C9 C10 1_555 1_555
C12 C16 1_555 1_555
C15 C16 1_555 1_555
C17 C18 1_555 1_555
C23 C24 1_555 1_555
C27 C28 1_555 1_555
C30 C34 1_555 1_555
C33 C34 1_555 1_555
C35 C36 1_555 1_555
C38 N8 1_555 1_555
C40 N10 1_555 1_555
C42 N12 1_555 1_555
C44 N14 1_555 1_555
C46 N16 1_555 1_555
C48 N18 1_555 1_555
C53 C54 1_555 1_555
C55 C56 1_555 1_555
C58 C59 1_555 1_555
C60 C61 1_555 1_555
C63 C64 1_555 1_555
C65 C66 1_555 1_555
C70 C71 1_555 1_555
C75 C76 1_555 1_555
C80 C81 1_555 1_555
N28 C83 1_555 1_555
N29 C84 1_555 1_555
C84 N30 1_555 1_555
C88 C89 1_555 1_555
C95 C96 1_555 1_555
C102 C103 1_555 1_555
C107 C108 1_555 1_555
C109 C110 1_555 1_555
C114 C115 1_555 1_555
C116 C117 1_555 1_555
C121 C122 1_555 1_555
C123 C124 1_555 1_555

#END
