
#######################################################################
#
#                 Cambridge Crystallographic Data Centre
#                                CCDC 
#
#######################################################################
#
# If this CIF has been generated from an entry in the Cambridge 
# Structural Database, then it will include bibliographic, chemical, 
# crystal, experimental, refinement or atomic coordinate data resulting 
# from the CCDC's data processing and validation procedures.
#
#######################################################################

data_JAJWAV
_chemical_formula_moiety         'C40 H46 Cu2 N6 O8,13.5(H2 O1)'
_chemical_name_systematic        
'bis(\m-(2-(((2-((2-((2-oxy-3-methoxybenzylidene)amino)ethyl)amino)ethyl)imino)methyl)-6-methoxyphenolato))-di-copper(ii) hydrate'
_symmetry_cell_setting           orthorhombic
_symmetry_space_group_name_H-M   'P c a b'
_symmetry_Int_Tables_number      61
_space_group_name_Hall           '-P 2bc 2ac'
loop_
_symmetry_equiv_pos_site_id
_symmetry_equiv_pos_as_xyz
1 x,y,z
2 -x,1/2-y,1/2+z
3 1/2+x,-y,1/2-z
4 1/2-x,1/2+y,-z
5 -x,-y,-z
6 x,1/2+y,1/2-z
7 1/2-x,y,1/2+z
8 1/2+x,1/2-y,z
_cell_length_a                   14.256(3)
_cell_length_b                   27.055(6)
_cell_length_c                   27.175(5)
_cell_angle_alpha                90
_cell_angle_beta                 90
_cell_angle_gamma                90
_cell_volume                     10481.3
_exptl_crystal_colour            green
_exptl_crystal_description       prismatic
_cell_formula_units_Z            8
loop_
_atom_site_label
_atom_site_type_symbol
_atom_site_fract_x
_atom_site_fract_y
_atom_site_fract_z
Cu1 Cu 0.95094(8) 0.14978(4) 0.69243(4)
Cu2 Cu 0.69718(8) 0.16316(4) 0.69401(4)
N1 N 0.8408(8) 0.1511(4) 0.8106(5)
N2 N 0.9820(5) 0.1903(3) 0.7513(3)
N3 N 0.6793(5) 0.1246(4) 0.7541(3)
O1 O 0.9181(4) 0.2055(2) 0.6547(2)
O2 O 0.8816(5) 0.2655(2) 0.5844(3)
O3 O 0.7287(4) 0.1062(2) 0.6570(2)
O4 O 0.7425(6) 0.0452(3) 0.5853(3)
C1 C 0.9298(9) 0.1650(5) 0.8339(5)
H1 H 0.9453 0.1411 0.8592
H2 H 0.9231 0.1971 0.8495
C2 C 1.0107(8) 0.1672(5) 0.7955(4)
H3 H 1.0632 0.1852 0.8094
H4 H 1.0318 0.1339 0.7883
C3 C 0.9904(6) 0.2376(4) 0.7487(4)
H5 H 1.0143 0.2526 0.7768
C4 C 0.9687(6) 0.2704(4) 0.7096(4)
C5 C 0.9347(6) 0.2530(3) 0.6636(4)
C6 C 0.9159(7) 0.2859(4) 0.6257(4)
C7 C 0.9321(8) 0.3359(4) 0.6324(6)
H6 H 0.9198 0.3586 0.6075
C8 C 0.9692(8) 0.3515(5) 0.6800(6)
H7 H 0.9829 0.3847 0.6850
C9 C 0.9837(7) 0.3204(4) 0.7158(5)
H8 H 1.0045 0.3321 0.7461
C10 C 0.8676(9) 0.2983(5) 0.5434(5)
H9 H 0.8431 0.2801 0.5160
H10 H 0.8240 0.3238 0.5524
H11 H 0.9264 0.3131 0.5343
C11 C 0.7423(9) 0.1423(8) 0.8279(7)
H12 H 0.7406 0.1087 0.8403
H13 H 0.7329 0.1638 0.8561
C12 C 0.6723(8) 0.1472(6) 0.8014(4)
H14 H 0.6606 0.1823 0.7969
H15 H 0.6186 0.1334 0.8183
C13 C 0.6644(7) 0.0755(6) 0.7524(5)
H16 H 0.6486 0.0606 0.7821
C14 C 0.6696(8) 0.0441(4) 0.7119(5)
C15 C 0.7036(7) 0.0605(4) 0.6655(4)
C16 C 0.7084(7) 0.0263(4) 0.6269(5)
C17 C 0.6818(8) -0.0228(5) 0.6334(6)
H17 H 0.6874 -0.0457 0.6080
C18 C 0.6472(10) -0.0361(5) 0.6785(8)
H18 H 0.6261 -0.0684 0.6822
C19 C 0.6411(8) -0.0054(6) 0.7186(6)
H19 H 0.6193 -0.0167 0.7489
C20 C 0.7482(10) 0.0149(5) 0.5440(5)
H20 H 0.7739 0.0333 0.5170
H21 H 0.7879 -0.0129 0.5510
H22 H 0.6866 0.0033 0.5354
N4 N 0.8192(5) 0.1543(3) 0.5845(3)
N5 N 0.9664(5) 0.1083(3) 0.6336(3)
N6 N 0.6719(5) 0.2020(3) 0.6328(3)
O5 O 0.9182(4) 0.0960(2) 0.7338(2)
O6 O 0.8738(7) 0.0349(3) 0.8006(3)
O7 O 0.7237(6) 0.2187(3) 0.7309(2)
O8 O 0.7723(8) 0.2817(4) 0.7971(4)
C21 C 0.9023(8) 0.1351(4) 0.5539(4)
H23 H 0.8868 0.1030 0.5402
H24 H 0.9145 0.1576 0.5269
C22 C 0.9866(7) 0.1308(4) 0.5847(4)
H25 H 1.0135 0.1634 0.5894
H26 H 1.0326 0.1106 0.5677
C23 C 0.9643(7) 0.0605(4) 0.6358(4)
H27 H 0.9779 0.0442 0.6065
C24 C 0.9445(7) 0.0301(4) 0.6757(4)
C25 C 0.9186(6) 0.0491(4) 0.7216(4)
C26 C 0.8974(8) 0.0139(5) 0.7580(5)
C27 C 0.8971(8) -0.0357(4) 0.7506(6)
H28 H 0.8800 -0.0575 0.7755
C28 C 0.9233(9) -0.0526(4) 0.7042(6)
H29 H 0.9244 -0.0865 0.6985
C29 C 0.9471(7) -0.0219(4) 0.6672(5)
H30 H 0.9650 -0.0344 0.6368
C30 C 0.8674(13) 0.0049(7) 0.8440(7)
H31 H 0.8498 0.0252 0.8715
H32 H 0.8211 -0.0203 0.8392
H33 H 0.9272 -0.0101 0.8504
C31 C 0.7394(7) 0.1695(4) 0.5541(3)
H34 H 0.7274 0.1446 0.5293
H35 H 0.7543 0.2003 0.5374
C32 C 0.6500(7) 0.1767(4) 0.5865(3)
H36 H 0.6041 0.1960 0.5684
H37 H 0.6225 0.1447 0.5937
C33 C 0.6680(6) 0.2497(4) 0.6317(4)
H38 H 0.6504 0.2647 0.6024
C34 C 0.6895(4) 0.2819(3) 0.6738(3)
C35 C 0.7193(5) 0.2654(3) 0.7197(3)
C36 C 0.7424(6) 0.2993(4) 0.7561(3)
C37 C 0.7356(6) 0.3497(4) 0.7468(4)
H39 H 0.7510 0.3723 0.7712
C38 C 0.7058(6) 0.3661(2) 0.7009(5)
H40 H 0.7012 0.3998 0.6947
C39 C 0.6827(5) 0.3322(3) 0.6644(3)
H41 H 0.6628 0.3433 0.6338
C40 C 0.7954(12) 0.3150(7) 0.8343(8)
H42 H 0.8166 0.2972 0.8628
H43 H 0.8443 0.3366 0.8230
H44 H 0.7411 0.3342 0.8428
H45 H 0.841(7) 0.1391(11) 0.7797
H46 H 0.7800(10) 0.1348(12) 0.6017(10)
O9 O 0.9357(8) 0.2437(4) 0.3982(4)
O10 O 0.7154(9) 0.1060(5) 0.4301(5)
O11 O 0.8115(10) 0.3748(5) 0.9704(5)
O12 O 0.6224(9) 0.3597 0.9242(5)
O13 O 0.5920(9) 0.2809(4) 0.4986(4)
O14 O 0.7414(8) 0.4317(5) 0.5606(4)
O15 O 0.7500(8) 0.2134(5) 0.4385(4)
loop_
_geom_bond_atom_site_label_1
_geom_bond_atom_site_label_2
_geom_bond_site_symmetry_1
_geom_bond_site_symmetry_2
Cu1 N2 1_555 1_555
Cu2 N3 1_555 1_555
N1 C1 1_555 1_555
N2 C2 1_555 1_555
N3 C12 1_555 1_555
O1 Cu1 1_555 1_555
O2 C6 1_555 1_555
O3 Cu2 1_555 1_555
O4 C16 1_555 1_555
C1 H1 1_555 1_555
H2 C1 1_555 1_555
C2 C1 1_555 1_555
H3 C2 1_555 1_555
H4 C2 1_555 1_555
C3 N2 1_555 1_555
H5 C3 1_555 1_555
C4 C3 1_555 1_555
C5 O1 1_555 1_555
C6 C5 1_555 1_555
C7 C6 1_555 1_555
H6 C7 1_555 1_555
C8 C7 1_555 1_555
H7 C8 1_555 1_555
C9 C4 1_555 1_555
H8 C9 1_555 1_555
C10 O2 1_555 1_555
H9 C10 1_555 1_555
H10 C10 1_555 1_555
H11 C10 1_555 1_555
C11 N1 1_555 1_555
H12 C11 1_555 1_555
H13 C11 1_555 1_555
C12 C11 1_555 1_555
H14 C12 1_555 1_555
H15 C12 1_555 1_555
C13 N3 1_555 1_555
H16 C13 1_555 1_555
C14 C13 1_555 1_555
C15 O3 1_555 1_555
C16 C15 1_555 1_555
C17 C16 1_555 1_555
H17 C17 1_555 1_555
C18 C17 1_555 1_555
H18 C18 1_555 1_555
C19 C14 1_555 1_555
H19 C19 1_555 1_555
C20 O4 1_555 1_555
H20 C20 1_555 1_555
H21 C20 1_555 1_555
H22 C20 1_555 1_555
N4 C21 1_555 1_555
N5 Cu1 1_555 1_555
N6 Cu2 1_555 1_555
O5 Cu1 1_555 1_555
O6 C26 1_555 1_555
O7 Cu2 1_555 1_555
O8 C36 1_555 1_555
C21 H23 1_555 1_555
H24 C21 1_555 1_555
C22 N5 1_555 1_555
H25 C22 1_555 1_555
H26 C22 1_555 1_555
C23 N5 1_555 1_555
H27 C23 1_555 1_555
C24 C23 1_555 1_555
C25 O5 1_555 1_555
C26 C25 1_555 1_555
C27 C26 1_555 1_555
H28 C27 1_555 1_555
C28 C27 1_555 1_555
H29 C28 1_555 1_555
C29 C24 1_555 1_555
H30 C29 1_555 1_555
C30 O6 1_555 1_555
H31 C30 1_555 1_555
H32 C30 1_555 1_555
H33 C30 1_555 1_555
C31 N4 1_555 1_555
H34 C31 1_555 1_555
H35 C31 1_555 1_555
C32 N6 1_555 1_555
H36 C32 1_555 1_555
H37 C32 1_555 1_555
C33 N6 1_555 1_555
H38 C33 1_555 1_555
C34 C33 1_555 1_555
C35 O7 1_555 1_555
C36 C35 1_555 1_555
C37 C36 1_555 1_555
H39 C37 1_555 1_555
C38 C37 1_555 1_555
H40 C38 1_555 1_555
C39 C34 1_555 1_555
H41 C39 1_555 1_555
C40 O8 1_555 1_555
H42 C40 1_555 1_555
H43 C40 1_555 1_555
H44 C40 1_555 1_555
H45 N1 1_555 1_555
H46 N4 1_555 1_555
C4 C5 1_555 1_555
C8 C9 1_555 1_555
C14 C15 1_555 1_555
C18 C19 1_555 1_555
C21 C22 1_555 1_555
C24 C25 1_555 1_555
C28 C29 1_555 1_555
C31 C32 1_555 1_555
C34 C35 1_555 1_555
C38 C39 1_555 1_555

#END
