# generated using pymatgen
data_Cu2H46C40(N2O5)3
_symmetry_space_group_name_H-M   'P 1'
_cell_length_a   14.25600000
_cell_length_b   27.05500000
_cell_length_c   27.17500000
_cell_angle_alpha   90.00000000
_cell_angle_beta   90.00000000
_cell_angle_gamma   90.00000000
_symmetry_Int_Tables_number   1
_chemical_formula_structural   Cu2H46C40(N2O5)3
_chemical_formula_sum   'Cu16 H368 C320 N48 O120'
_cell_volume   10481.29097400
_cell_formula_units_Z   8
loop_
 _symmetry_equiv_pos_site_id
 _symmetry_equiv_pos_as_xyz
  1  'x, y, z'
loop_
 _atom_site_type_symbol
 _atom_site_label
 _atom_site_symmetry_multiplicity
 _atom_site_fract_x
 _atom_site_fract_y
 _atom_site_fract_z
 _atom_site_occupancy
  Cu  Cu1  1  0.950940  0.149780  0.692430  1
  Cu  Cu2  1  0.049060  0.350220  0.192430  1
  Cu  Cu3  1  0.450940  0.850220  0.807570  1
  Cu  Cu4  1  0.549060  0.649780  0.307570  1
  Cu  Cu5  1  0.049060  0.850220  0.307570  1
  Cu  Cu6  1  0.950940  0.649780  0.807570  1
  Cu  Cu7  1  0.549060  0.149780  0.192430  1
  Cu  Cu8  1  0.450940  0.350220  0.692430  1
  Cu  Cu9  1  0.697180  0.163160  0.694010  1
  Cu  Cu10  1  0.302820  0.336840  0.194010  1
  Cu  Cu11  1  0.197180  0.836840  0.805990  1
  Cu  Cu12  1  0.802820  0.663160  0.305990  1
  Cu  Cu13  1  0.302820  0.836840  0.305990  1
  Cu  Cu14  1  0.697180  0.663160  0.805990  1
  Cu  Cu15  1  0.802820  0.163160  0.194010  1
  Cu  Cu16  1  0.197180  0.336840  0.694010  1
  H  H17  1  0.945300  0.141100  0.859200  1
  H  H18  1  0.054700  0.358900  0.359200  1
  H  H19  1  0.445300  0.858900  0.640800  1
  H  H20  1  0.554700  0.641100  0.140800  1
  H  H21  1  0.054700  0.858900  0.140800  1
  H  H22  1  0.945300  0.641100  0.640800  1
  H  H23  1  0.554700  0.141100  0.359200  1
  H  H24  1  0.445300  0.358900  0.859200  1
  H  H25  1  0.923100  0.197100  0.849500  1
  H  H26  1  0.076900  0.302900  0.349500  1
  H  H27  1  0.423100  0.802900  0.650500  1
  H  H28  1  0.576900  0.697100  0.150500  1
  H  H29  1  0.076900  0.802900  0.150500  1
  H  H30  1  0.923100  0.697100  0.650500  1
  H  H31  1  0.576900  0.197100  0.349500  1
  H  H32  1  0.423100  0.302900  0.849500  1
  H  H33  1  0.063200  0.185200  0.809400  1
  H  H34  1  0.936800  0.314800  0.309400  1
  H  H35  1  0.563200  0.814800  0.690600  1
  H  H36  1  0.436800  0.685200  0.190600  1
  H  H37  1  0.936800  0.814800  0.190600  1
  H  H38  1  0.063200  0.685200  0.690600  1
  H  H39  1  0.436800  0.185200  0.309400  1
  H  H40  1  0.563200  0.314800  0.809400  1
  H  H41  1  0.031800  0.133900  0.788300  1
  H  H42  1  0.968200  0.366100  0.288300  1
  H  H43  1  0.531800  0.866100  0.711700  1
  H  H44  1  0.468200  0.633900  0.211700  1
  H  H45  1  0.968200  0.866100  0.211700  1
  H  H46  1  0.031800  0.633900  0.711700  1
  H  H47  1  0.468200  0.133900  0.288300  1
  H  H48  1  0.531800  0.366100  0.788300  1
  H  H49  1  0.014300  0.252600  0.776800  1
  H  H50  1  0.985700  0.247400  0.276800  1
  H  H51  1  0.514300  0.747400  0.723200  1
  H  H52  1  0.485700  0.752600  0.223200  1
  H  H53  1  0.985700  0.747400  0.223200  1
  H  H54  1  0.014300  0.752600  0.723200  1
  H  H55  1  0.485700  0.252600  0.276800  1
  H  H56  1  0.514300  0.247400  0.776800  1
  H  H57  1  0.919800  0.358600  0.607500  1
  H  H58  1  0.080200  0.141400  0.107500  1
  H  H59  1  0.419800  0.641400  0.892500  1
  H  H60  1  0.580200  0.858600  0.392500  1
  H  H61  1  0.080200  0.641400  0.392500  1
  H  H62  1  0.919800  0.858600  0.892500  1
  H  H63  1  0.580200  0.358600  0.107500  1
  H  H64  1  0.419800  0.141400  0.607500  1
  H  H65  1  0.982900  0.384700  0.685000  1
  H  H66  1  0.017100  0.115300  0.185000  1
  H  H67  1  0.482900  0.615300  0.815000  1
  H  H68  1  0.517100  0.884700  0.315000  1
  H  H69  1  0.017100  0.615300  0.315000  1
  H  H70  1  0.982900  0.884700  0.815000  1
  H  H71  1  0.517100  0.384700  0.185000  1
  H  H72  1  0.482900  0.115300  0.685000  1
  H  H73  1  0.004500  0.332100  0.746100  1
  H  H74  1  0.995500  0.167900  0.246100  1
  H  H75  1  0.504500  0.667900  0.753900  1
  H  H76  1  0.495500  0.832100  0.253900  1
  H  H77  1  0.995500  0.667900  0.253900  1
  H  H78  1  0.004500  0.832100  0.753900  1
  H  H79  1  0.495500  0.332100  0.246100  1
  H  H80  1  0.504500  0.167900  0.746100  1
  H  H81  1  0.843100  0.280100  0.516000  1
  H  H82  1  0.156900  0.219900  0.016000  1
  H  H83  1  0.343100  0.719900  0.984000  1
  H  H84  1  0.656900  0.780100  0.484000  1
  H  H85  1  0.156900  0.719900  0.484000  1
  H  H86  1  0.843100  0.780100  0.984000  1
  H  H87  1  0.656900  0.280100  0.016000  1
  H  H88  1  0.343100  0.219900  0.516000  1
  H  H89  1  0.824000  0.323800  0.552400  1
  H  H90  1  0.176000  0.176200  0.052400  1
  H  H91  1  0.324000  0.676200  0.947600  1
  H  H92  1  0.676000  0.823800  0.447600  1
  H  H93  1  0.176000  0.676200  0.447600  1
  H  H94  1  0.824000  0.823800  0.947600  1
  H  H95  1  0.676000  0.323800  0.052400  1
  H  H96  1  0.324000  0.176200  0.552400  1
  H  H97  1  0.926400  0.313100  0.534300  1
  H  H98  1  0.073600  0.186900  0.034300  1
  H  H99  1  0.426400  0.686900  0.965700  1
  H  H100  1  0.573600  0.813100  0.465700  1
  H  H101  1  0.073600  0.686900  0.465700  1
  H  H102  1  0.926400  0.813100  0.965700  1
  H  H103  1  0.573600  0.313100  0.034300  1
  H  H104  1  0.426400  0.186900  0.534300  1
  H  H105  1  0.740600  0.108700  0.840300  1
  H  H106  1  0.259400  0.391300  0.340300  1
  H  H107  1  0.240600  0.891300  0.659700  1
  H  H108  1  0.759400  0.608700  0.159700  1
  H  H109  1  0.259400  0.891300  0.159700  1
  H  H110  1  0.740600  0.608700  0.659700  1
  H  H111  1  0.759400  0.108700  0.340300  1
  H  H112  1  0.240600  0.391300  0.840300  1
  H  H113  1  0.732900  0.163800  0.856100  1
  H  H114  1  0.267100  0.336200  0.356100  1
  H  H115  1  0.232900  0.836200  0.643900  1
  H  H116  1  0.767100  0.663800  0.143900  1
  H  H117  1  0.267100  0.836200  0.143900  1
  H  H118  1  0.732900  0.663800  0.643900  1
  H  H119  1  0.767100  0.163800  0.356100  1
  H  H120  1  0.232900  0.336200  0.856100  1
  H  H121  1  0.660600  0.182300  0.796900  1
  H  H122  1  0.339400  0.317700  0.296900  1
  H  H123  1  0.160600  0.817700  0.703100  1
  H  H124  1  0.839400  0.682300  0.203100  1
  H  H125  1  0.339400  0.817700  0.203100  1
  H  H126  1  0.660600  0.682300  0.703100  1
  H  H127  1  0.839400  0.182300  0.296900  1
  H  H128  1  0.160600  0.317700  0.796900  1
  H  H129  1  0.618600  0.133400  0.818300  1
  H  H130  1  0.381400  0.366600  0.318300  1
  H  H131  1  0.118600  0.866600  0.681700  1
  H  H132  1  0.881400  0.633400  0.181700  1
  H  H133  1  0.381400  0.866600  0.181700  1
  H  H134  1  0.618600  0.633400  0.681700  1
  H  H135  1  0.881400  0.133400  0.318300  1
  H  H136  1  0.118600  0.366600  0.818300  1
  H  H137  1  0.648600  0.060600  0.782100  1
  H  H138  1  0.351400  0.439400  0.282100  1
  H  H139  1  0.148600  0.939400  0.717900  1
  H  H140  1  0.851400  0.560600  0.217900  1
  H  H141  1  0.351400  0.939400  0.217900  1
  H  H142  1  0.648600  0.560600  0.717900  1
  H  H143  1  0.851400  0.060600  0.282100  1
  H  H144  1  0.148600  0.439400  0.782100  1
  H  H145  1  0.687400  0.954300  0.608000  1
  H  H146  1  0.312600  0.545700  0.108000  1
  H  H147  1  0.187400  0.045700  0.892000  1
  H  H148  1  0.812600  0.454300  0.392000  1
  H  H149  1  0.312600  0.045700  0.392000  1
  H  H150  1  0.687400  0.454300  0.892000  1
  H  H151  1  0.812600  0.954300  0.108000  1
  H  H152  1  0.187400  0.545700  0.608000  1
  H  H153  1  0.626100  0.931600  0.682200  1
  H  H154  1  0.373900  0.568400  0.182200  1
  H  H155  1  0.126100  0.068400  0.817800  1
  H  H156  1  0.873900  0.431600  0.317800  1
  H  H157  1  0.373900  0.068400  0.317800  1
  H  H158  1  0.626100  0.431600  0.817800  1
  H  H159  1  0.873900  0.931600  0.182200  1
  H  H160  1  0.126100  0.568400  0.682200  1
  H  H161  1  0.619300  0.983300  0.748900  1
  H  H162  1  0.380700  0.516700  0.248900  1
  H  H163  1  0.119300  0.016700  0.751100  1
  H  H164  1  0.880700  0.483300  0.251100  1
  H  H165  1  0.380700  0.016700  0.251100  1
  H  H166  1  0.619300  0.483300  0.751100  1
  H  H167  1  0.880700  0.983300  0.248900  1
  H  H168  1  0.119300  0.516700  0.748900  1
  H  H169  1  0.773900  0.033300  0.517000  1
  H  H170  1  0.226100  0.466700  0.017000  1
  H  H171  1  0.273900  0.966700  0.983000  1
  H  H172  1  0.726100  0.533300  0.483000  1
  H  H173  1  0.226100  0.966700  0.483000  1
  H  H174  1  0.773900  0.533300  0.983000  1
  H  H175  1  0.726100  0.033300  0.017000  1
  H  H176  1  0.273900  0.466700  0.517000  1
  H  H177  1  0.787900  0.987100  0.551000  1
  H  H178  1  0.212100  0.512900  0.051000  1
  H  H179  1  0.287900  0.012900  0.949000  1
  H  H180  1  0.712100  0.487100  0.449000  1
  H  H181  1  0.212100  0.012900  0.449000  1
  H  H182  1  0.787900  0.487100  0.949000  1
  H  H183  1  0.712100  0.987100  0.051000  1
  H  H184  1  0.287900  0.512900  0.551000  1
  H  H185  1  0.686600  0.003300  0.535400  1
  H  H186  1  0.313400  0.496700  0.035400  1
  H  H187  1  0.186600  0.996700  0.964600  1
  H  H188  1  0.813400  0.503300  0.464600  1
  H  H189  1  0.313400  0.996700  0.464600  1
  H  H190  1  0.686600  0.503300  0.964600  1
  H  H191  1  0.813400  0.003300  0.035400  1
  H  H192  1  0.186600  0.496700  0.535400  1
  H  H193  1  0.886800  0.103000  0.540200  1
  H  H194  1  0.113200  0.397000  0.040200  1
  H  H195  1  0.386800  0.897000  0.959800  1
  H  H196  1  0.613200  0.603000  0.459800  1
  H  H197  1  0.113200  0.897000  0.459800  1
  H  H198  1  0.886800  0.603000  0.959800  1
  H  H199  1  0.613200  0.103000  0.040200  1
  H  H200  1  0.386800  0.397000  0.540200  1
  H  H201  1  0.914500  0.157600  0.526900  1
  H  H202  1  0.085500  0.342400  0.026900  1
  H  H203  1  0.414500  0.842400  0.973100  1
  H  H204  1  0.585500  0.657600  0.473100  1
  H  H205  1  0.085500  0.842400  0.473100  1
  H  H206  1  0.914500  0.657600  0.973100  1
  H  H207  1  0.585500  0.157600  0.026900  1
  H  H208  1  0.414500  0.342400  0.526900  1
  H  H209  1  0.013500  0.163400  0.589400  1
  H  H210  1  0.986500  0.336600  0.089400  1
  H  H211  1  0.513500  0.836600  0.910600  1
  H  H212  1  0.486500  0.663400  0.410600  1
  H  H213  1  0.986500  0.836600  0.410600  1
  H  H214  1  0.013500  0.663400  0.910600  1
  H  H215  1  0.486500  0.163400  0.089400  1
  H  H216  1  0.513500  0.336600  0.589400  1
  H  H217  1  0.032600  0.110600  0.567700  1
  H  H218  1  0.967400  0.389400  0.067700  1
  H  H219  1  0.532600  0.889400  0.932300  1
  H  H220  1  0.467400  0.610600  0.432300  1
  H  H221  1  0.967400  0.889400  0.432300  1
  H  H222  1  0.032600  0.610600  0.932300  1
  H  H223  1  0.467400  0.110600  0.067700  1
  H  H224  1  0.532600  0.389400  0.567700  1
  H  H225  1  0.977900  0.044200  0.606500  1
  H  H226  1  0.022100  0.455800  0.106500  1
  H  H227  1  0.477900  0.955800  0.893500  1
  H  H228  1  0.522100  0.544200  0.393500  1
  H  H229  1  0.022100  0.955800  0.393500  1
  H  H230  1  0.977900  0.544200  0.893500  1
  H  H231  1  0.522100  0.044200  0.106500  1
  H  H232  1  0.477900  0.455800  0.606500  1
  H  H233  1  0.880000  0.942500  0.775500  1
  H  H234  1  0.120000  0.557500  0.275500  1
  H  H235  1  0.380000  0.057500  0.724500  1
  H  H236  1  0.620000  0.442500  0.224500  1
  H  H237  1  0.120000  0.057500  0.224500  1
  H  H238  1  0.880000  0.442500  0.724500  1
  H  H239  1  0.620000  0.942500  0.275500  1
  H  H240  1  0.380000  0.557500  0.775500  1
  H  H241  1  0.924400  0.913500  0.698500  1
  H  H242  1  0.075600  0.586500  0.198500  1
  H  H243  1  0.424400  0.086500  0.801500  1
  H  H244  1  0.575600  0.413500  0.301500  1
  H  H245  1  0.075600  0.086500  0.301500  1
  H  H246  1  0.924400  0.413500  0.801500  1
  H  H247  1  0.575600  0.913500  0.198500  1
  H  H248  1  0.424400  0.586500  0.698500  1
  H  H249  1  0.965000  0.965600  0.636800  1
  H  H250  1  0.035000  0.534400  0.136800  1
  H  H251  1  0.465000  0.034400  0.863200  1
  H  H252  1  0.535000  0.465600  0.363200  1
  H  H253  1  0.035000  0.034400  0.363200  1
  H  H254  1  0.965000  0.465600  0.863200  1
  H  H255  1  0.535000  0.965600  0.136800  1
  H  H256  1  0.465000  0.534400  0.636800  1
  H  H257  1  0.849800  0.025200  0.871500  1
  H  H258  1  0.150200  0.474800  0.371500  1
  H  H259  1  0.349800  0.974800  0.628500  1
  H  H260  1  0.650200  0.525200  0.128500  1
  H  H261  1  0.150200  0.974800  0.128500  1
  H  H262  1  0.849800  0.525200  0.628500  1
  H  H263  1  0.650200  0.025200  0.371500  1
  H  H264  1  0.349800  0.474800  0.871500  1
  H  H265  1  0.821100  0.979700  0.839200  1
  H  H266  1  0.178900  0.520300  0.339200  1
  H  H267  1  0.321100  0.020300  0.660800  1
  H  H268  1  0.678900  0.479700  0.160800  1
  H  H269  1  0.178900  0.020300  0.160800  1
  H  H270  1  0.821100  0.479700  0.660800  1
  H  H271  1  0.678900  0.979700  0.339200  1
  H  H272  1  0.321100  0.520300  0.839200  1
  H  H273  1  0.927200  0.989900  0.850400  1
  H  H274  1  0.072800  0.510100  0.350400  1
  H  H275  1  0.427200  0.010100  0.649600  1
  H  H276  1  0.572800  0.489900  0.149600  1
  H  H277  1  0.072800  0.010100  0.149600  1
  H  H278  1  0.927200  0.489900  0.649600  1
  H  H279  1  0.572800  0.989900  0.350400  1
  H  H280  1  0.427200  0.510100  0.850400  1
  H  H281  1  0.727400  0.144600  0.529300  1
  H  H282  1  0.272600  0.355400  0.029300  1
  H  H283  1  0.227400  0.855400  0.970700  1
  H  H284  1  0.772600  0.644600  0.470700  1
  H  H285  1  0.272600  0.855400  0.470700  1
  H  H286  1  0.727400  0.644600  0.970700  1
  H  H287  1  0.772600  0.144600  0.029300  1
  H  H288  1  0.227400  0.355400  0.529300  1
  H  H289  1  0.754300  0.200300  0.537400  1
  H  H290  1  0.245700  0.299700  0.037400  1
  H  H291  1  0.254300  0.799700  0.962600  1
  H  H292  1  0.745700  0.700300  0.462600  1
  H  H293  1  0.245700  0.799700  0.462600  1
  H  H294  1  0.754300  0.700300  0.962600  1
  H  H295  1  0.745700  0.200300  0.037400  1
  H  H296  1  0.254300  0.299700  0.537400  1
  H  H297  1  0.604100  0.196000  0.568400  1
  H  H298  1  0.395900  0.304000  0.068400  1
  H  H299  1  0.104100  0.804000  0.931600  1
  H  H300  1  0.895900  0.696000  0.431600  1
  H  H301  1  0.395900  0.804000  0.431600  1
  H  H302  1  0.604100  0.696000  0.931600  1
  H  H303  1  0.895900  0.196000  0.068400  1
  H  H304  1  0.104100  0.304000  0.568400  1
  H  H305  1  0.622500  0.144700  0.593700  1
  H  H306  1  0.377500  0.355300  0.093700  1
  H  H307  1  0.122500  0.855300  0.906300  1
  H  H308  1  0.877500  0.644700  0.406300  1
  H  H309  1  0.377500  0.855300  0.406300  1
  H  H310  1  0.622500  0.644700  0.906300  1
  H  H311  1  0.877500  0.144700  0.093700  1
  H  H312  1  0.122500  0.355300  0.593700  1
  H  H313  1  0.650400  0.264700  0.602400  1
  H  H314  1  0.349600  0.235300  0.102400  1
  H  H315  1  0.150400  0.735300  0.897600  1
  H  H316  1  0.849600  0.764700  0.397600  1
  H  H317  1  0.349600  0.735300  0.397600  1
  H  H318  1  0.650400  0.764700  0.897600  1
  H  H319  1  0.849600  0.264700  0.102400  1
  H  H320  1  0.150400  0.235300  0.602400  1
  H  H321  1  0.751000  0.372300  0.771200  1
  H  H322  1  0.249000  0.127700  0.271200  1
  H  H323  1  0.251000  0.627700  0.728800  1
  H  H324  1  0.749000  0.872300  0.228800  1
  H  H325  1  0.249000  0.627700  0.228800  1
  H  H326  1  0.751000  0.872300  0.728800  1
  H  H327  1  0.749000  0.372300  0.271200  1
  H  H328  1  0.251000  0.127700  0.771200  1
  H  H329  1  0.701200  0.399800  0.694700  1
  H  H330  1  0.298800  0.100200  0.194700  1
  H  H331  1  0.201200  0.600200  0.805300  1
  H  H332  1  0.798800  0.899800  0.305300  1
  H  H333  1  0.298800  0.600200  0.305300  1
  H  H334  1  0.701200  0.899800  0.805300  1
  H  H335  1  0.798800  0.399800  0.194700  1
  H  H336  1  0.201200  0.100200  0.694700  1
  H  H337  1  0.662800  0.343300  0.633800  1
  H  H338  1  0.337200  0.156700  0.133800  1
  H  H339  1  0.162800  0.656700  0.866200  1
  H  H340  1  0.837200  0.843300  0.366200  1
  H  H341  1  0.337200  0.656700  0.366200  1
  H  H342  1  0.662800  0.843300  0.866200  1
  H  H343  1  0.837200  0.343300  0.133800  1
  H  H344  1  0.162800  0.156700  0.633800  1
  H  H345  1  0.816600  0.297200  0.862800  1
  H  H346  1  0.183400  0.202800  0.362800  1
  H  H347  1  0.316600  0.702800  0.637200  1
  H  H348  1  0.683400  0.797200  0.137200  1
  H  H349  1  0.183400  0.702800  0.137200  1
  H  H350  1  0.816600  0.797200  0.637200  1
  H  H351  1  0.683400  0.297200  0.362800  1
  H  H352  1  0.316600  0.202800  0.862800  1
  H  H353  1  0.844300  0.336600  0.823000  1
  H  H354  1  0.155700  0.163400  0.323000  1
  H  H355  1  0.344300  0.663400  0.677000  1
  H  H356  1  0.655700  0.836600  0.177000  1
  H  H357  1  0.155700  0.663400  0.177000  1
  H  H358  1  0.844300  0.836600  0.677000  1
  H  H359  1  0.655700  0.336600  0.323000  1
  H  H360  1  0.344300  0.163400  0.823000  1
  H  H361  1  0.741100  0.334200  0.842800  1
  H  H362  1  0.258900  0.165800  0.342800  1
  H  H363  1  0.241100  0.665800  0.657200  1
  H  H364  1  0.758900  0.834200  0.157200  1
  H  H365  1  0.258900  0.665800  0.157200  1
  H  H366  1  0.741100  0.834200  0.657200  1
  H  H367  1  0.758900  0.334200  0.342800  1
  H  H368  1  0.241100  0.165800  0.842800  1
  H  H369  1  0.841000  0.139100  0.779700  1
  H  H370  1  0.159000  0.360900  0.279700  1
  H  H371  1  0.341000  0.860900  0.720300  1
  H  H372  1  0.659000  0.639100  0.220300  1
  H  H373  1  0.159000  0.860900  0.220300  1
  H  H374  1  0.841000  0.639100  0.720300  1
  H  H375  1  0.659000  0.139100  0.279700  1
  H  H376  1  0.341000  0.360900  0.779700  1
  H  H377  1  0.780000  0.134800  0.601700  1
  H  H378  1  0.220000  0.365200  0.101700  1
  H  H379  1  0.280000  0.865200  0.898300  1
  H  H380  1  0.720000  0.634800  0.398300  1
  H  H381  1  0.220000  0.865200  0.398300  1
  H  H382  1  0.780000  0.634800  0.898300  1
  H  H383  1  0.720000  0.134800  0.101700  1
  H  H384  1  0.280000  0.365200  0.601700  1
  C  C385  1  0.929800  0.165000  0.833900  1
  C  C386  1  0.070200  0.335000  0.333900  1
  C  C387  1  0.429800  0.835000  0.666100  1
  C  C388  1  0.570200  0.665000  0.166100  1
  C  C389  1  0.070200  0.835000  0.166100  1
  C  C390  1  0.929800  0.665000  0.666100  1
  C  C391  1  0.570200  0.165000  0.333900  1
  C  C392  1  0.429800  0.335000  0.833900  1
  C  C393  1  0.010700  0.167200  0.795500  1
  C  C394  1  0.989300  0.332800  0.295500  1
  C  C395  1  0.510700  0.832800  0.704500  1
  C  C396  1  0.489300  0.667200  0.204500  1
  C  C397  1  0.989300  0.832800  0.204500  1
  C  C398  1  0.010700  0.667200  0.704500  1
  C  C399  1  0.489300  0.167200  0.295500  1
  C  C400  1  0.510700  0.332800  0.795500  1
  C  C401  1  0.990400  0.237600  0.748700  1
  C  C402  1  0.009600  0.262400  0.248700  1
  C  C403  1  0.490400  0.762400  0.751300  1
  C  C404  1  0.509600  0.737600  0.251300  1
  C  C405  1  0.009600  0.762400  0.251300  1
  C  C406  1  0.990400  0.737600  0.751300  1
  C  C407  1  0.509600  0.237600  0.248700  1
  C  C408  1  0.490400  0.262400  0.748700  1
  C  C409  1  0.968700  0.270400  0.709600  1
  C  C410  1  0.031300  0.229600  0.209600  1
  C  C411  1  0.468700  0.729600  0.790400  1
  C  C412  1  0.531300  0.770400  0.290400  1
  C  C413  1  0.031300  0.729600  0.290400  1
  C  C414  1  0.968700  0.770400  0.790400  1
  C  C415  1  0.531300  0.270400  0.209600  1
  C  C416  1  0.468700  0.229600  0.709600  1
  C  C417  1  0.934700  0.253000  0.663600  1
  C  C418  1  0.065300  0.247000  0.163600  1
  C  C419  1  0.434700  0.747000  0.836400  1
  C  C420  1  0.565300  0.753000  0.336400  1
  C  C421  1  0.065300  0.747000  0.336400  1
  C  C422  1  0.934700  0.753000  0.836400  1
  C  C423  1  0.565300  0.253000  0.163600  1
  C  C424  1  0.434700  0.247000  0.663600  1
  C  C425  1  0.915900  0.285900  0.625700  1
  C  C426  1  0.084100  0.214100  0.125700  1
  C  C427  1  0.415900  0.714100  0.874300  1
  C  C428  1  0.584100  0.785900  0.374300  1
  C  C429  1  0.084100  0.714100  0.374300  1
  C  C430  1  0.915900  0.785900  0.874300  1
  C  C431  1  0.584100  0.285900  0.125700  1
  C  C432  1  0.415900  0.214100  0.625700  1
  C  C433  1  0.932100  0.335900  0.632400  1
  C  C434  1  0.067900  0.164100  0.132400  1
  C  C435  1  0.432100  0.664100  0.867600  1
  C  C436  1  0.567900  0.835900  0.367600  1
  C  C437  1  0.067900  0.664100  0.367600  1
  C  C438  1  0.932100  0.835900  0.867600  1
  C  C439  1  0.567900  0.335900  0.132400  1
  C  C440  1  0.432100  0.164100  0.632400  1
  C  C441  1  0.969200  0.351500  0.680000  1
  C  C442  1  0.030800  0.148500  0.180000  1
  C  C443  1  0.469200  0.648500  0.820000  1
  C  C444  1  0.530800  0.851500  0.320000  1
  C  C445  1  0.030800  0.648500  0.320000  1
  C  C446  1  0.969200  0.851500  0.820000  1
  C  C447  1  0.530800  0.351500  0.180000  1
  C  C448  1  0.469200  0.148500  0.680000  1
  C  C449  1  0.983700  0.320400  0.715800  1
  C  C450  1  0.016300  0.179600  0.215800  1
  C  C451  1  0.483700  0.679600  0.784200  1
  C  C452  1  0.516300  0.820400  0.284200  1
  C  C453  1  0.016300  0.679600  0.284200  1
  C  C454  1  0.983700  0.820400  0.784200  1
  C  C455  1  0.516300  0.320400  0.215800  1
  C  C456  1  0.483700  0.179600  0.715800  1
  C  C457  1  0.867600  0.298300  0.543400  1
  C  C458  1  0.132400  0.201700  0.043400  1
  C  C459  1  0.367600  0.701700  0.956600  1
  C  C460  1  0.632400  0.798300  0.456600  1
  C  C461  1  0.132400  0.701700  0.456600  1
  C  C462  1  0.867600  0.798300  0.956600  1
  C  C463  1  0.632400  0.298300  0.043400  1
  C  C464  1  0.367600  0.201700  0.543400  1
  C  C465  1  0.742300  0.142300  0.827900  1
  C  C466  1  0.257700  0.357700  0.327900  1
  C  C467  1  0.242300  0.857700  0.672100  1
  C  C468  1  0.757700  0.642300  0.172100  1
  C  C469  1  0.257700  0.857700  0.172100  1
  C  C470  1  0.742300  0.642300  0.672100  1
  C  C471  1  0.757700  0.142300  0.327900  1
  C  C472  1  0.242300  0.357700  0.827900  1
  C  C473  1  0.672300  0.147200  0.801400  1
  C  C474  1  0.327700  0.352800  0.301400  1
  C  C475  1  0.172300  0.852800  0.698600  1
  C  C476  1  0.827700  0.647200  0.198600  1
  C  C477  1  0.327700  0.852800  0.198600  1
  C  C478  1  0.672300  0.647200  0.698600  1
  C  C479  1  0.827700  0.147200  0.301400  1
  C  C480  1  0.172300  0.352800  0.801400  1
  C  C481  1  0.664400  0.075500  0.752400  1
  C  C482  1  0.335600  0.424500  0.252400  1
  C  C483  1  0.164400  0.924500  0.747600  1
  C  C484  1  0.835600  0.575500  0.247600  1
  C  C485  1  0.335600  0.924500  0.247600  1
  C  C486  1  0.664400  0.575500  0.747600  1
  C  C487  1  0.835600  0.075500  0.252400  1
  C  C488  1  0.164400  0.424500  0.752400  1
  C  C489  1  0.669600  0.044100  0.711900  1
  C  C490  1  0.330400  0.455900  0.211900  1
  C  C491  1  0.169600  0.955900  0.788100  1
  C  C492  1  0.830400  0.544100  0.288100  1
  C  C493  1  0.330400  0.955900  0.288100  1
  C  C494  1  0.669600  0.544100  0.788100  1
  C  C495  1  0.830400  0.044100  0.211900  1
  C  C496  1  0.169600  0.455900  0.711900  1
  C  C497  1  0.703600  0.060500  0.665500  1
  C  C498  1  0.296400  0.439500  0.165500  1
  C  C499  1  0.203600  0.939500  0.834500  1
  C  C500  1  0.796400  0.560500  0.334500  1
  C  C501  1  0.296400  0.939500  0.334500  1
  C  C502  1  0.703600  0.560500  0.834500  1
  C  C503  1  0.796400  0.060500  0.165500  1
  C  C504  1  0.203600  0.439500  0.665500  1
  C  C505  1  0.708400  0.026300  0.626900  1
  C  C506  1  0.291600  0.473700  0.126900  1
  C  C507  1  0.208400  0.973700  0.873100  1
  C  C508  1  0.791600  0.526300  0.373100  1
  C  C509  1  0.291600  0.973700  0.373100  1
  C  C510  1  0.708400  0.526300  0.873100  1
  C  C511  1  0.791600  0.026300  0.126900  1
  C  C512  1  0.208400  0.473700  0.626900  1
  C  C513  1  0.681800  0.977200  0.633400  1
  C  C514  1  0.318200  0.522800  0.133400  1
  C  C515  1  0.181800  0.022800  0.866600  1
  C  C516  1  0.818200  0.477200  0.366600  1
  C  C517  1  0.318200  0.022800  0.366600  1
  C  C518  1  0.681800  0.477200  0.866600  1
  C  C519  1  0.818200  0.977200  0.133400  1
  C  C520  1  0.181800  0.522800  0.633400  1
  C  C521  1  0.647200  0.963900  0.678500  1
  C  C522  1  0.352800  0.536100  0.178500  1
  C  C523  1  0.147200  0.036100  0.821500  1
  C  C524  1  0.852800  0.463900  0.321500  1
  C  C525  1  0.352800  0.036100  0.321500  1
  C  C526  1  0.647200  0.463900  0.821500  1
  C  C527  1  0.852800  0.963900  0.178500  1
  C  C528  1  0.147200  0.536100  0.678500  1
  C  C529  1  0.641100  0.994600  0.718600  1
  C  C530  1  0.358900  0.505400  0.218600  1
  C  C531  1  0.141100  0.005400  0.781400  1
  C  C532  1  0.858900  0.494600  0.281400  1
  C  C533  1  0.358900  0.005400  0.281400  1
  C  C534  1  0.641100  0.494600  0.781400  1
  C  C535  1  0.858900  0.994600  0.218600  1
  C  C536  1  0.141100  0.505400  0.718600  1
  C  C537  1  0.748200  0.014900  0.544000  1
  C  C538  1  0.251800  0.485100  0.044000  1
  C  C539  1  0.248200  0.985100  0.956000  1
  C  C540  1  0.751800  0.514900  0.456000  1
  C  C541  1  0.251800  0.985100  0.456000  1
  C  C542  1  0.748200  0.514900  0.956000  1
  C  C543  1  0.751800  0.014900  0.044000  1
  C  C544  1  0.248200  0.485100  0.544000  1
  C  C545  1  0.902300  0.135100  0.553900  1
  C  C546  1  0.097700  0.364900  0.053900  1
  C  C547  1  0.402300  0.864900  0.946100  1
  C  C548  1  0.597700  0.635100  0.446100  1
  C  C549  1  0.097700  0.864900  0.446100  1
  C  C550  1  0.902300  0.635100  0.946100  1
  C  C551  1  0.597700  0.135100  0.053900  1
  C  C552  1  0.402300  0.364900  0.553900  1
  C  C553  1  0.986600  0.130800  0.584700  1
  C  C554  1  0.013400  0.369200  0.084700  1
  C  C555  1  0.486600  0.869200  0.915300  1
  C  C556  1  0.513400  0.630800  0.415300  1
  C  C557  1  0.013400  0.869200  0.415300  1
  C  C558  1  0.986600  0.630800  0.915300  1
  C  C559  1  0.513400  0.130800  0.084700  1
  C  C560  1  0.486600  0.369200  0.584700  1
  C  C561  1  0.964300  0.060500  0.635800  1
  C  C562  1  0.035700  0.439500  0.135800  1
  C  C563  1  0.464300  0.939500  0.864200  1
  C  C564  1  0.535700  0.560500  0.364200  1
  C  C565  1  0.035700  0.939500  0.364200  1
  C  C566  1  0.964300  0.560500  0.864200  1
  C  C567  1  0.535700  0.060500  0.135800  1
  C  C568  1  0.464300  0.439500  0.635800  1
  C  C569  1  0.944500  0.030100  0.675700  1
  C  C570  1  0.055500  0.469900  0.175700  1
  C  C571  1  0.444500  0.969900  0.824300  1
  C  C572  1  0.555500  0.530100  0.324300  1
  C  C573  1  0.055500  0.969900  0.324300  1
  C  C574  1  0.944500  0.530100  0.824300  1
  C  C575  1  0.555500  0.030100  0.175700  1
  C  C576  1  0.444500  0.469900  0.675700  1
  C  C577  1  0.918600  0.049100  0.721600  1
  C  C578  1  0.081400  0.450900  0.221600  1
  C  C579  1  0.418600  0.950900  0.778400  1
  C  C580  1  0.581400  0.549100  0.278400  1
  C  C581  1  0.081400  0.950900  0.278400  1
  C  C582  1  0.918600  0.549100  0.778400  1
  C  C583  1  0.581400  0.049100  0.221600  1
  C  C584  1  0.418600  0.450900  0.721600  1
  C  C585  1  0.897400  0.013900  0.758000  1
  C  C586  1  0.102600  0.486100  0.258000  1
  C  C587  1  0.397400  0.986100  0.742000  1
  C  C588  1  0.602600  0.513900  0.242000  1
  C  C589  1  0.102600  0.986100  0.242000  1
  C  C590  1  0.897400  0.513900  0.742000  1
  C  C591  1  0.602600  0.013900  0.258000  1
  C  C592  1  0.397400  0.486100  0.758000  1
  C  C593  1  0.897100  0.964300  0.750600  1
  C  C594  1  0.102900  0.535700  0.250600  1
  C  C595  1  0.397100  0.035700  0.749400  1
  C  C596  1  0.602900  0.464300  0.249400  1
  C  C597  1  0.102900  0.035700  0.249400  1
  C  C598  1  0.897100  0.464300  0.749400  1
  C  C599  1  0.602900  0.964300  0.250600  1
  C  C600  1  0.397100  0.535700  0.750600  1
  C  C601  1  0.923300  0.947400  0.704200  1
  C  C602  1  0.076700  0.552600  0.204200  1
  C  C603  1  0.423300  0.052600  0.795800  1
  C  C604  1  0.576700  0.447400  0.295800  1
  C  C605  1  0.076700  0.052600  0.295800  1
  C  C606  1  0.923300  0.447400  0.795800  1
  C  C607  1  0.576700  0.947400  0.204200  1
  C  C608  1  0.423300  0.552600  0.704200  1
  C  C609  1  0.947100  0.978100  0.667200  1
  C  C610  1  0.052900  0.521900  0.167200  1
  C  C611  1  0.447100  0.021900  0.832800  1
  C  C612  1  0.552900  0.478100  0.332800  1
  C  C613  1  0.052900  0.021900  0.332800  1
  C  C614  1  0.947100  0.478100  0.832800  1
  C  C615  1  0.552900  0.978100  0.167200  1
  C  C616  1  0.447100  0.521900  0.667200  1
  C  C617  1  0.867400  0.004900  0.844000  1
  C  C618  1  0.132600  0.495100  0.344000  1
  C  C619  1  0.367400  0.995100  0.656000  1
  C  C620  1  0.632600  0.504900  0.156000  1
  C  C621  1  0.132600  0.995100  0.156000  1
  C  C622  1  0.867400  0.504900  0.656000  1
  C  C623  1  0.632600  0.004900  0.344000  1
  C  C624  1  0.367400  0.495100  0.844000  1
  C  C625  1  0.739400  0.169500  0.554100  1
  C  C626  1  0.260600  0.330500  0.054100  1
  C  C627  1  0.239400  0.830500  0.945900  1
  C  C628  1  0.760600  0.669500  0.445900  1
  C  C629  1  0.260600  0.830500  0.445900  1
  C  C630  1  0.739400  0.669500  0.945900  1
  C  C631  1  0.760600  0.169500  0.054100  1
  C  C632  1  0.239400  0.330500  0.554100  1
  C  C633  1  0.650000  0.176700  0.586500  1
  C  C634  1  0.350000  0.323300  0.086500  1
  C  C635  1  0.150000  0.823300  0.913500  1
  C  C636  1  0.850000  0.676700  0.413500  1
  C  C637  1  0.350000  0.823300  0.413500  1
  C  C638  1  0.650000  0.676700  0.913500  1
  C  C639  1  0.850000  0.176700  0.086500  1
  C  C640  1  0.150000  0.323300  0.586500  1
  C  C641  1  0.668000  0.249700  0.631700  1
  C  C642  1  0.332000  0.250300  0.131700  1
  C  C643  1  0.168000  0.750300  0.868300  1
  C  C644  1  0.832000  0.749700  0.368300  1
  C  C645  1  0.332000  0.750300  0.368300  1
  C  C646  1  0.668000  0.749700  0.868300  1
  C  C647  1  0.832000  0.249700  0.131700  1
  C  C648  1  0.168000  0.250300  0.631700  1
  C  C649  1  0.689500  0.281900  0.673800  1
  C  C650  1  0.310500  0.218100  0.173800  1
  C  C651  1  0.189500  0.718100  0.826200  1
  C  C652  1  0.810500  0.781900  0.326200  1
  C  C653  1  0.310500  0.718100  0.326200  1
  C  C654  1  0.689500  0.781900  0.826200  1
  C  C655  1  0.810500  0.281900  0.173800  1
  C  C656  1  0.189500  0.218100  0.673800  1
  C  C657  1  0.719300  0.265400  0.719700  1
  C  C658  1  0.280700  0.234600  0.219700  1
  C  C659  1  0.219300  0.734600  0.780300  1
  C  C660  1  0.780700  0.765400  0.280300  1
  C  C661  1  0.280700  0.734600  0.280300  1
  C  C662  1  0.719300  0.765400  0.780300  1
  C  C663  1  0.780700  0.265400  0.219700  1
  C  C664  1  0.219300  0.234600  0.719700  1
  C  C665  1  0.742400  0.299300  0.756100  1
  C  C666  1  0.257600  0.200700  0.256100  1
  C  C667  1  0.242400  0.700700  0.743900  1
  C  C668  1  0.757600  0.799300  0.243900  1
  C  C669  1  0.257600  0.700700  0.243900  1
  C  C670  1  0.742400  0.799300  0.743900  1
  C  C671  1  0.757600  0.299300  0.256100  1
  C  C672  1  0.242400  0.200700  0.756100  1
  C  C673  1  0.735600  0.349700  0.746800  1
  C  C674  1  0.264400  0.150300  0.246800  1
  C  C675  1  0.235600  0.650300  0.753200  1
  C  C676  1  0.764400  0.849700  0.253200  1
  C  C677  1  0.264400  0.650300  0.253200  1
  C  C678  1  0.735600  0.849700  0.753200  1
  C  C679  1  0.764400  0.349700  0.246800  1
  C  C680  1  0.235600  0.150300  0.746800  1
  C  C681  1  0.705800  0.366100  0.700900  1
  C  C682  1  0.294200  0.133900  0.200900  1
  C  C683  1  0.205800  0.633900  0.799100  1
  C  C684  1  0.794200  0.866100  0.299100  1
  C  C685  1  0.294200  0.633900  0.299100  1
  C  C686  1  0.705800  0.866100  0.799100  1
  C  C687  1  0.794200  0.366100  0.200900  1
  C  C688  1  0.205800  0.133900  0.700900  1
  C  C689  1  0.682700  0.332200  0.664400  1
  C  C690  1  0.317300  0.167800  0.164400  1
  C  C691  1  0.182700  0.667800  0.835600  1
  C  C692  1  0.817300  0.832200  0.335600  1
  C  C693  1  0.317300  0.667800  0.335600  1
  C  C694  1  0.682700  0.832200  0.835600  1
  C  C695  1  0.817300  0.332200  0.164400  1
  C  C696  1  0.182700  0.167800  0.664400  1
  C  C697  1  0.795400  0.315000  0.834300  1
  C  C698  1  0.204600  0.185000  0.334300  1
  C  C699  1  0.295400  0.685000  0.665700  1
  C  C700  1  0.704600  0.815000  0.165700  1
  C  C701  1  0.204600  0.685000  0.165700  1
  C  C702  1  0.795400  0.815000  0.665700  1
  C  C703  1  0.704600  0.315000  0.334300  1
  C  C704  1  0.295400  0.185000  0.834300  1
  N  N705  1  0.840800  0.151100  0.810600  1
  N  N706  1  0.159200  0.348900  0.310600  1
  N  N707  1  0.340800  0.848900  0.689400  1
  N  N708  1  0.659200  0.651100  0.189400  1
  N  N709  1  0.159200  0.848900  0.189400  1
  N  N710  1  0.840800  0.651100  0.689400  1
  N  N711  1  0.659200  0.151100  0.310600  1
  N  N712  1  0.340800  0.348900  0.810600  1
  N  N713  1  0.982000  0.190300  0.751300  1
  N  N714  1  0.018000  0.309700  0.251300  1
  N  N715  1  0.482000  0.809700  0.748700  1
  N  N716  1  0.518000  0.690300  0.248700  1
  N  N717  1  0.018000  0.809700  0.248700  1
  N  N718  1  0.982000  0.690300  0.748700  1
  N  N719  1  0.518000  0.190300  0.251300  1
  N  N720  1  0.482000  0.309700  0.751300  1
  N  N721  1  0.679300  0.124600  0.754100  1
  N  N722  1  0.320700  0.375400  0.254100  1
  N  N723  1  0.179300  0.875400  0.745900  1
  N  N724  1  0.820700  0.624600  0.245900  1
  N  N725  1  0.320700  0.875400  0.245900  1
  N  N726  1  0.679300  0.624600  0.745900  1
  N  N727  1  0.820700  0.124600  0.254100  1
  N  N728  1  0.179300  0.375400  0.754100  1
  N  N729  1  0.819200  0.154300  0.584500  1
  N  N730  1  0.180800  0.345700  0.084500  1
  N  N731  1  0.319200  0.845700  0.915500  1
  N  N732  1  0.680800  0.654300  0.415500  1
  N  N733  1  0.180800  0.845700  0.415500  1
  N  N734  1  0.819200  0.654300  0.915500  1
  N  N735  1  0.680800  0.154300  0.084500  1
  N  N736  1  0.319200  0.345700  0.584500  1
  N  N737  1  0.966400  0.108300  0.633600  1
  N  N738  1  0.033600  0.391700  0.133600  1
  N  N739  1  0.466400  0.891700  0.866400  1
  N  N740  1  0.533600  0.608300  0.366400  1
  N  N741  1  0.033600  0.891700  0.366400  1
  N  N742  1  0.966400  0.608300  0.866400  1
  N  N743  1  0.533600  0.108300  0.133600  1
  N  N744  1  0.466400  0.391700  0.633600  1
  N  N745  1  0.671900  0.202000  0.632800  1
  N  N746  1  0.328100  0.298000  0.132800  1
  N  N747  1  0.171900  0.798000  0.867200  1
  N  N748  1  0.828100  0.702000  0.367200  1
  N  N749  1  0.328100  0.798000  0.367200  1
  N  N750  1  0.671900  0.702000  0.867200  1
  N  N751  1  0.828100  0.202000  0.132800  1
  N  N752  1  0.171900  0.298000  0.632800  1
  O  O753  1  0.918100  0.205500  0.654700  1
  O  O754  1  0.081900  0.294500  0.154700  1
  O  O755  1  0.418100  0.794500  0.845300  1
  O  O756  1  0.581900  0.705500  0.345300  1
  O  O757  1  0.081900  0.794500  0.345300  1
  O  O758  1  0.918100  0.705500  0.845300  1
  O  O759  1  0.581900  0.205500  0.154700  1
  O  O760  1  0.418100  0.294500  0.654700  1
  O  O761  1  0.881600  0.265500  0.584400  1
  O  O762  1  0.118400  0.234500  0.084400  1
  O  O763  1  0.381600  0.734500  0.915600  1
  O  O764  1  0.618400  0.765500  0.415600  1
  O  O765  1  0.118400  0.734500  0.415600  1
  O  O766  1  0.881600  0.765500  0.915600  1
  O  O767  1  0.618400  0.265500  0.084400  1
  O  O768  1  0.381600  0.234500  0.584400  1
  O  O769  1  0.728700  0.106200  0.657000  1
  O  O770  1  0.271300  0.393800  0.157000  1
  O  O771  1  0.228700  0.893800  0.843000  1
  O  O772  1  0.771300  0.606200  0.343000  1
  O  O773  1  0.271300  0.893800  0.343000  1
  O  O774  1  0.728700  0.606200  0.843000  1
  O  O775  1  0.771300  0.106200  0.157000  1
  O  O776  1  0.228700  0.393800  0.657000  1
  O  O777  1  0.742500  0.045200  0.585300  1
  O  O778  1  0.257500  0.454800  0.085300  1
  O  O779  1  0.242500  0.954800  0.914700  1
  O  O780  1  0.757500  0.545200  0.414700  1
  O  O781  1  0.257500  0.954800  0.414700  1
  O  O782  1  0.742500  0.545200  0.914700  1
  O  O783  1  0.757500  0.045200  0.085300  1
  O  O784  1  0.242500  0.454800  0.585300  1
  O  O785  1  0.918200  0.096000  0.733800  1
  O  O786  1  0.081800  0.404000  0.233800  1
  O  O787  1  0.418200  0.904000  0.766200  1
  O  O788  1  0.581800  0.596000  0.266200  1
  O  O789  1  0.081800  0.904000  0.266200  1
  O  O790  1  0.918200  0.596000  0.766200  1
  O  O791  1  0.581800  0.096000  0.233800  1
  O  O792  1  0.418200  0.404000  0.733800  1
  O  O793  1  0.873800  0.034900  0.800600  1
  O  O794  1  0.126200  0.465100  0.300600  1
  O  O795  1  0.373800  0.965100  0.699400  1
  O  O796  1  0.626200  0.534900  0.199400  1
  O  O797  1  0.126200  0.965100  0.199400  1
  O  O798  1  0.873800  0.534900  0.699400  1
  O  O799  1  0.626200  0.034900  0.300600  1
  O  O800  1  0.373800  0.465100  0.800600  1
  O  O801  1  0.723700  0.218700  0.730900  1
  O  O802  1  0.276300  0.281300  0.230900  1
  O  O803  1  0.223700  0.781300  0.769100  1
  O  O804  1  0.776300  0.718700  0.269100  1
  O  O805  1  0.276300  0.781300  0.269100  1
  O  O806  1  0.723700  0.718700  0.769100  1
  O  O807  1  0.776300  0.218700  0.230900  1
  O  O808  1  0.223700  0.281300  0.730900  1
  O  O809  1  0.772300  0.281700  0.797100  1
  O  O810  1  0.227700  0.218300  0.297100  1
  O  O811  1  0.272300  0.718300  0.702900  1
  O  O812  1  0.727700  0.781700  0.202900  1
  O  O813  1  0.227700  0.718300  0.202900  1
  O  O814  1  0.772300  0.781700  0.702900  1
  O  O815  1  0.727700  0.281700  0.297100  1
  O  O816  1  0.272300  0.218300  0.797100  1
  O  O817  1  0.935700  0.243700  0.398200  1
  O  O818  1  0.064300  0.256300  0.898200  1
  O  O819  1  0.435700  0.756300  0.101800  1
  O  O820  1  0.564300  0.743700  0.601800  1
  O  O821  1  0.064300  0.756300  0.601800  1
  O  O822  1  0.935700  0.743700  0.101800  1
  O  O823  1  0.564300  0.243700  0.898200  1
  O  O824  1  0.435700  0.256300  0.398200  1
  O  O825  1  0.715400  0.106000  0.430100  1
  O  O826  1  0.284600  0.394000  0.930100  1
  O  O827  1  0.215400  0.894000  0.069900  1
  O  O828  1  0.784600  0.606000  0.569900  1
  O  O829  1  0.284600  0.894000  0.569900  1
  O  O830  1  0.715400  0.606000  0.069900  1
  O  O831  1  0.784600  0.106000  0.930100  1
  O  O832  1  0.215400  0.394000  0.430100  1
  O  O833  1  0.811500  0.374800  0.970400  1
  O  O834  1  0.188500  0.125200  0.470400  1
  O  O835  1  0.311500  0.625200  0.529600  1
  O  O836  1  0.688500  0.874800  0.029600  1
  O  O837  1  0.188500  0.625200  0.029600  1
  O  O838  1  0.811500  0.874800  0.529600  1
  O  O839  1  0.688500  0.374800  0.470400  1
  O  O840  1  0.311500  0.125200  0.970400  1
  O  O841  1  0.622400  0.359700  0.924200  1
  O  O842  1  0.377600  0.140300  0.424200  1
  O  O843  1  0.122400  0.640300  0.575800  1
  O  O844  1  0.877600  0.859700  0.075800  1
  O  O845  1  0.377600  0.640300  0.075800  1
  O  O846  1  0.622400  0.859700  0.575800  1
  O  O847  1  0.877600  0.359700  0.424200  1
  O  O848  1  0.122400  0.140300  0.924200  1
  O  O849  1  0.592000  0.280900  0.498600  1
  O  O850  1  0.408000  0.219100  0.998600  1
  O  O851  1  0.092000  0.719100  0.001400  1
  O  O852  1  0.908000  0.780900  0.501400  1
  O  O853  1  0.408000  0.719100  0.501400  1
  O  O854  1  0.592000  0.780900  0.001400  1
  O  O855  1  0.908000  0.280900  0.998600  1
  O  O856  1  0.092000  0.219100  0.498600  1
  O  O857  1  0.741400  0.431700  0.560600  1
  O  O858  1  0.258600  0.068300  0.060600  1
  O  O859  1  0.241400  0.568300  0.939400  1
  O  O860  1  0.758600  0.931700  0.439400  1
  O  O861  1  0.258600  0.568300  0.439400  1
  O  O862  1  0.741400  0.931700  0.939400  1
  O  O863  1  0.758600  0.431700  0.060600  1
  O  O864  1  0.241400  0.068300  0.560600  1
  O  O865  1  0.750000  0.213400  0.438500  1
  O  O866  1  0.250000  0.286600  0.938500  1
  O  O867  1  0.250000  0.786600  0.061500  1
  O  O868  1  0.750000  0.713400  0.561500  1
  O  O869  1  0.250000  0.786600  0.561500  1
  O  O870  1  0.750000  0.713400  0.061500  1
  O  O871  1  0.750000  0.213400  0.938500  1
  O  O872  1  0.250000  0.286600  0.438500  1
