
#######################################################################
#
#                 Cambridge Crystallographic Data Centre
#                                CCDC 
#
#######################################################################
#
# If this CIF has been generated from an entry in the Cambridge 
# Structural Database, then it will include bibliographic, chemical, 
# crystal, experimental, refinement or atomic coordinate data resulting 
# from the CCDC's data processing and validation procedures.
#
#######################################################################

data_JANFOT
_chemical_formula_moiety         
'C58 H52 P3 Pt1 1+,C1 F3 O3 S1 1-,0.5(C1 H2 Cl2)'
_chemical_name_systematic        
'(trans-2-Butenyl)-tris(triphenylphosphine)-platinum(ii) trifluoromethanesulfonate dichloromethane solvate'
_symmetry_cell_setting           triclinic
_symmetry_space_group_name_H-M   'P -1'
_symmetry_Int_Tables_number      2
_space_group_name_Hall           '-P 1'
loop_
_symmetry_equiv_pos_site_id
_symmetry_equiv_pos_as_xyz
1 x,y,z
2 -x,-y,-z
_cell_length_a                   12.670(4)
_cell_length_b                   19.928(6)
_cell_length_c                   12.904(4)
_cell_angle_alpha                80.81(3)
_cell_angle_beta                 66.65(2)
_cell_angle_gamma                73.51(2)
_cell_volume                     2864.11
_exptl_crystal_colour            colorless
_cell_formula_units_Z            2
loop_
_atom_site_label
_atom_site_type_symbol
_atom_site_fract_x
_atom_site_fract_y
_atom_site_fract_z
Pt1 Pt 0.10862(4) 0.22274(2) 0.30826(4)
P1 P -0.06364(23) 0.25488(13) 0.26200(23)
P2 P 0.07957(23) 0.33103(13) 0.38202(22)
P3 P 0.29093(25) 0.17062(14) 0.32573(24)
C1 C 0.0086(30) 0.0884(14) 0.4376(31)
C2 C 0.1244(14) 0.12597(69) 0.2567(17)
C3 C 0.0852(32) 0.0783(12) 0.3220(52)
C4 C 0.2010(15) 0.11214(88) 0.1248(18)
C5 C -0.1550(10) 0.19093(59) 0.3172(10)
C6 C -0.2509(13) 0.19644(76) 0.4257(12)
C7 C -0.3132(16) 0.14473(92) 0.4653(14)
C8 C -0.2849(14) 0.08877(82) 0.4056(13)
C9 C -0.2043(14) 0.08383(83) 0.3037(13)
C10 C -0.1372(12) 0.13529(71) 0.2565(11)
C11 C -0.0252(9) 0.25830(54) 0.1103(8)
C12 C -0.1069(12) 0.25567(69) 0.0667(11)
C13 C -0.0826(13) 0.26684(74) -0.0494(12)
C14 C 0.0248(14) 0.28001(80) -0.1217(13)
C15 C 0.1070(13) 0.28076(74) -0.0801(12)
C16 C 0.0835(11) 0.26975(64) 0.0357(10)
C17 C -0.1751(9) 0.34062(52) 0.2959(8)
C18 C -0.24606(11) 0.35762(65) 0.4060(10)
C19 C -0.3334(13) 0.42062(76) 0.4276(12)
C20 C -0.3445(13) 0.46770(75) 0.3403(12)
C21 C -0.2746(13) 0.45345(75) 0.2354(12)
C22 C -0.1869(11) 0.38915(65) 0.2109(10)
C23 C 0.0457(8) 0.40570(51) 0.2889(8)
C24 C -0.0430(10) 0.46633(58) 0.3245(9)
C25 C -0.0585(12) 0.52226(68) 0.2465(11)
C26 C 0.0130(12) 0.51723(72) 0.1355(11)
C27 C 0.1043(12) 0.45669(71) 0.0963(11)
C28 C 0.1171(10) 0.40099(57) 0.1750(9)
C29 C -0.0401(9) 0.34130(54) 0.5210(8)
C30 C -0.0987(10) 0.28875(59) 0.5689(9)
C31 C -0.1899(12) 0.29434(70) 0.6779(11)
C32 C -0.2162(13) 0.35211(77) 0.7361(12)
C33 C -0.1553(13) 0.40373(74) 0.6928(12)
C34 C -0.0681(10) 0.39946(60) 0.5850(9)
C35 C 0.1930(9) 0.35364(53) 0.4161(8)
C36 C 0.2107(10) 0.32240(62) 0.5151(10)
C37 C 0.2952(13) 0.34000(74) 0.5454(11)
C38 C 0.3530(13) 0.38944(79) 0.4798(13)
C39 C 0.3380(13) 0.41825(75) 0.3865(12)
C40 C 0.2571(10) 0.40087(62) 0.3500(10)
C41 C 0.2811(9) 0.14260(54) 0.4696(8)
C42 C 0.1724(11) 0.15512(66) 0.5593(10)
C43 C 0.1639(13) 0.13407(74) 0.6705(12)
C44 C 0.2682(13) 0.09964(78) 0.6895(12)
C45 C 0.3728(13) 0.08532(74) 0.6030(12)
C46 C 0.3813(11) 0.10646(64) 0.4925(10)
C47 C 0.3804(10) 0.08838(59) 0.2552(9)
C48 C 0.3491(11) 0.02549(65) 0.3050(10)
C49 C 0.4151(12) -0.03676(71) 0.2503(11)
C50 C 0.5080(14) -0.03565(84) 0.1524(13)
C51 C 0.5466(15) 0.02192(92) 0.1040(14)
C52 C 0.4783(13) 0.08811(77) 0.1578(12)
C53 C 0.3943(9) 0.22744(54) 0.2658(8)
C54 C 0.4021(11) 0.26007(65) 0.1599(10)
C55 C 0.4859(12) 0.30009(73) 0.1044(11)
C56 C 0.5549(13) 0.30809(74) 0.1565(12)
C57 C 0.5480(12) 0.27713(71) 0.2615(11)
C58 C 0.4688(10) 0.23524(61) 0.3164(10)
H1 H -0.03219 0.13660 0.48144
H2 H 0.01686 0.05436 0.51497
H3 H 0.08763 0.02901 0.31806
H4 H -0.26796 0.23804 0.47273
H5 H -0.38058 0.14874 0.54276
H6 H -0.32576 0.04925 0.43906
H7 H -0.18676 0.04225 0.25502
H8 H -0.07474 0.13237 0.17629
H9 H -0.18694 0.24608 0.12044
H10 H -0.14401 0.26524 -0.08148
H11 H 0.04293 0.28862 -0.20717
H12 H 0.18546 0.29166 -0.13265
H13 H 0.14763 0.26929 0.06602
H14 H -0.23494 0.32425 0.47053
H15 H -0.38751 0.43325 0.50811
H16 H -0.40591 0.51362 0.35747
H17 H -0.28279 0.48836 0.16891
H18 H -0.13222 0.37874 0.12796
H19 H -0.09755 0.47022 0.40797
H20 H -0.12451 0.56616 0.27244
H21 H 0.00019 0.55865 0.08011
H22 H 0.15991 0.45477 0.01335
H23 H 0.17952 0.35534 0.14876
H24 H -0.07549 0.24518 0.52387
H25 H -0.23364 0.25587 0.71254
H26 H -0.28152 0.35730 0.81443
H27 H -0.17626 0.44591 0.73811
H28 H -0.02355 0.43825 0.55137
H29 H 0.16384 0.28724 0.56322
H30 H 0.30888 0.31672 0.61745
H31 H 0.40765 0.40408 0.50843
H32 H 0.38434 0.45318 0.33724
H33 H 0.24707 0.42194 0.27661
H34 H 0.09601 0.17939 0.54293
H35 H 0.08391 0.14464 0.73554
H36 H 0.26339 0.08628 0.76983
H37 H 0.44800 0.05864 0.61725
H38 H 0.46285 0.09546 0.42646
H39 H 0.27897 0.02591 0.37898
H40 H 0.39320 -0.08232 0.28350
H41 H 0.55376 -0.08128 0.11331
H42 H 0.61988 0.02153 0.03210
H43 H 0.50098 0.13471 0.12048
H44 H 0.34861 0.25431 0.12229
H45 H 0.49221 0.32354 0.02689
H46 H 0.61492 0.33820 0.11588
H47 H 0.60129 0.28417 0.29842
H48 H 0.46338 0.21114 0.39318
loop_
_geom_bond_atom_site_label_1
_geom_bond_atom_site_label_2
_geom_bond_site_symmetry_1
_geom_bond_site_symmetry_2
Pt1 P1 1_555 1_555
P1 C5 1_555 1_555
P2 Pt1 1_555 1_555
P3 Pt1 1_555 1_555
C1 C3 1_555 1_555
C2 Pt1 1_555 1_555
C3 C2 1_555 1_555
C4 C2 1_555 1_555
C5 C6 1_555 1_555
C6 C7 1_555 1_555
C7 C8 1_555 1_555
C8 C9 1_555 1_555
C9 C10 1_555 1_555
C10 C5 1_555 1_555
C11 P1 1_555 1_555
C12 C11 1_555 1_555
C13 C12 1_555 1_555
C14 C13 1_555 1_555
C15 C14 1_555 1_555
C16 C11 1_555 1_555
C17 P1 1_555 1_555
C18 C17 1_555 1_555
C19 C18 1_555 1_555
C20 C19 1_555 1_555
C21 C20 1_555 1_555
C22 C17 1_555 1_555
C23 P2 1_555 1_555
C24 C23 1_555 1_555
C25 C24 1_555 1_555
C26 C25 1_555 1_555
C27 C26 1_555 1_555
C28 C23 1_555 1_555
C29 P2 1_555 1_555
C30 C29 1_555 1_555
C31 C30 1_555 1_555
C32 C31 1_555 1_555
C33 C32 1_555 1_555
C34 C29 1_555 1_555
C35 P2 1_555 1_555
C36 C35 1_555 1_555
C37 C36 1_555 1_555
C38 C37 1_555 1_555
C39 C38 1_555 1_555
C40 C35 1_555 1_555
C41 P3 1_555 1_555
C42 C41 1_555 1_555
C43 C42 1_555 1_555
C44 C43 1_555 1_555
C45 C44 1_555 1_555
C46 C41 1_555 1_555
C47 P3 1_555 1_555
C48 C47 1_555 1_555
C49 C48 1_555 1_555
C50 C49 1_555 1_555
C51 C50 1_555 1_555
C52 C47 1_555 1_555
C53 P3 1_555 1_555
C54 C53 1_555 1_555
C55 C54 1_555 1_555
C56 C55 1_555 1_555
C57 C56 1_555 1_555
C58 C53 1_555 1_555
H1 C1 1_555 1_555
H2 C1 1_555 1_555
H3 C3 1_555 1_555
H4 C6 1_555 1_555
H5 C7 1_555 1_555
H6 C8 1_555 1_555
H7 C9 1_555 1_555
H8 C10 1_555 1_555
H9 C12 1_555 1_555
H10 C13 1_555 1_555
H11 C14 1_555 1_555
H12 C15 1_555 1_555
H13 C16 1_555 1_555
H14 C18 1_555 1_555
H15 C19 1_555 1_555
H16 C20 1_555 1_555
H17 C21 1_555 1_555
H18 C22 1_555 1_555
H19 C24 1_555 1_555
H20 C25 1_555 1_555
H21 C26 1_555 1_555
H22 C27 1_555 1_555
H23 C28 1_555 1_555
H24 C30 1_555 1_555
H25 C31 1_555 1_555
H26 C32 1_555 1_555
H27 C33 1_555 1_555
H28 C34 1_555 1_555
H29 C36 1_555 1_555
H30 C37 1_555 1_555
H31 C38 1_555 1_555
H32 C39 1_555 1_555
H33 C40 1_555 1_555
H34 C42 1_555 1_555
H35 C43 1_555 1_555
H36 C44 1_555 1_555
H37 C45 1_555 1_555
H38 C46 1_555 1_555
H39 C48 1_555 1_555
H40 C49 1_555 1_555
H41 C50 1_555 1_555
H42 C51 1_555 1_555
H43 C52 1_555 1_555
H44 C54 1_555 1_555
H45 C55 1_555 1_555
H46 C56 1_555 1_555
H47 C57 1_555 1_555
H48 C58 1_555 1_555
C15 C16 1_555 1_555
C21 C22 1_555 1_555
C27 C28 1_555 1_555
C33 C34 1_555 1_555
C39 C40 1_555 1_555
C45 C46 1_555 1_555
C51 C52 1_555 1_555
C57 C58 1_555 1_555

#END
