
#######################################################################
#
#                 Cambridge Crystallographic Data Centre
#                                CCDC 
#
#######################################################################
#
# If this CIF has been generated from an entry in the Cambridge 
# Structural Database, then it will include bibliographic, chemical, 
# crystal, experimental, refinement or atomic coordinate data resulting 
# from the CCDC's data processing and validation procedures.
#
#######################################################################

data_JANYUT01
_chemical_name_common            IRMOP-50
_chemical_formula_moiety         
'C108 H84 Fe12 N12 O76 S12 8-,8(C2 H8 N1 1+),12(H2 O1)'
_chemical_name_systematic        
"octakis(Dimethylammonium) hexakis(\m~4~-benzene-1,4-dicarboxylato-O,O',O'',O''')-tetrakis(\m~3~-oxo)-dodecakis(\m~2~-sulfato-O,O')-dodecakis(pyridine-N)-dodeca-iron dodecahydrate unknown clathrate"
_symmetry_cell_setting           cubic
_symmetry_space_group_name_H-M   'F -4 3 m'
_symmetry_Int_Tables_number      216
_space_group_name_Hall           'F -4 2 3'
loop_
_symmetry_equiv_pos_site_id
_symmetry_equiv_pos_as_xyz
1 x,y,z
2 -x,-y,z
3 -x,y,-z
4 x,-y,-z
5 z,x,y
6 z,-x,-y
7 -z,-x,y
8 -z,x,-y
9 y,z,x
10 -y,z,-x
11 y,-z,-x
12 -y,-z,x
13 y,x,z
14 -y,-x,z
15 y,-x,-z
16 -y,x,-z
17 x,z,y
18 -x,z,-y
19 -x,-z,y
20 x,-z,-y
21 z,y,x
22 z,-y,-x
23 -z,y,-x
24 -z,-y,x
25 x,1/2+y,1/2+z
26 -x,1/2-y,1/2+z
27 -x,1/2+y,1/2-z
28 x,1/2-y,1/2-z
29 z,1/2+x,1/2+y
30 z,1/2-x,1/2-y
31 -z,1/2-x,1/2+y
32 -z,1/2+x,1/2-y
33 y,1/2+z,1/2+x
34 -y,1/2+z,1/2-x
35 y,1/2-z,1/2-x
36 -y,1/2-z,1/2+x
37 y,1/2+x,1/2+z
38 -y,1/2-x,1/2+z
39 y,1/2-x,1/2-z
40 -y,1/2+x,1/2-z
41 x,1/2+z,1/2+y
42 -x,1/2+z,1/2-y
43 -x,1/2-z,1/2+y
44 x,1/2-z,1/2-y
45 z,1/2+y,1/2+x
46 z,1/2-y,1/2-x
47 -z,1/2+y,1/2-x
48 -z,1/2-y,1/2+x
49 1/2+x,y,1/2+z
50 1/2-x,-y,1/2+z
51 1/2-x,y,1/2-z
52 1/2+x,-y,1/2-z
53 1/2+z,x,1/2+y
54 1/2+z,-x,1/2-y
55 1/2-z,-x,1/2+y
56 1/2-z,x,1/2-y
57 1/2+y,z,1/2+x
58 1/2-y,z,1/2-x
59 1/2+y,-z,1/2-x
60 1/2-y,-z,1/2+x
61 1/2+y,x,1/2+z
62 1/2-y,-x,1/2+z
63 1/2+y,-x,1/2-z
64 1/2-y,x,1/2-z
65 1/2+x,z,1/2+y
66 1/2-x,z,1/2-y
67 1/2-x,-z,1/2+y
68 1/2+x,-z,1/2-y
69 1/2+z,y,1/2+x
70 1/2+z,-y,1/2-x
71 1/2-z,y,1/2-x
72 1/2-z,-y,1/2+x
73 1/2+x,1/2+y,z
74 1/2-x,1/2-y,z
75 1/2-x,1/2+y,-z
76 1/2+x,1/2-y,-z
77 1/2+z,1/2+x,y
78 1/2+z,1/2-x,-y
79 1/2-z,1/2-x,y
80 1/2-z,1/2+x,-y
81 1/2+y,1/2+z,x
82 1/2-y,1/2+z,-x
83 1/2+y,1/2-z,-x
84 1/2-y,1/2-z,x
85 1/2+y,1/2+x,z
86 1/2-y,1/2-x,z
87 1/2+y,1/2-x,-z
88 1/2-y,1/2+x,-z
89 1/2+x,1/2+z,y
90 1/2-x,1/2+z,-y
91 1/2-x,1/2-z,y
92 1/2+x,1/2-z,-y
93 1/2+z,1/2+y,x
94 1/2+z,1/2-y,-x
95 1/2-z,1/2+y,-x
96 1/2-z,1/2-y,x
_cell_length_a                   32.6504(13)
_cell_length_b                   32.6504(13)
_cell_length_c                   32.6504(13)
_cell_angle_alpha                90
_cell_angle_beta                 90
_cell_angle_gamma                90
_cell_volume                     34806.9
_exptl_crystal_colour            orange
_exptl_crystal_description       cube
_cell_formula_units_Z            4
loop_
_atom_site_label
_atom_site_type_symbol
_atom_site_fract_x
_atom_site_fract_y
_atom_site_fract_z
Fe1 Fe 0.419364(15) 0.347291(11) 0.152709(11)
S1 S 0.37997(2) 0.37997(2) 0.23684(3)
O1 O 0.37057(6) 0.37057(6) 0.12943(6)
O2 O 0.40132(5) 0.34919(6) 0.21083(5)
O3 O 0.44913(5) 0.40066(5) 0.15766(6)
N1 N 0.47650(10) 0.32242(7) 0.17758(7)
O4 O 0.35810(7) 0.35810(7) 0.26842(8)
C1 C 0.46995(7) 0.46995(7) 0.15876(13)
C2 C 0.43734(8) 0.43734(8) 0.15849(12)
C3 C 0.45904(8) 0.51095(8) 0.15989(12)
H1 H 0.4315 0.5183 0.1607
O5 O 0.40926(7) 0.40926(7) 0.25348(9)
C4 C 0.49445(10) 0.33949(11) 0.21040(11)
H2 H 0.4820 0.3622 0.2222
C5 C 0.53039(14) 0.32524(15) 0.22772(17)
H3 H 0.5424 0.3378 0.2503
C6 C 0.5474(2) 0.29095(16) 0.20905(16)
H4 H 0.5713 0.2800 0.2200
Fe1L Fe 0.347291(11) 0.419364(15) 0.152709(11)
Fe1HA Fe 0.347291(11) 0.347291(11) 0.080636(15)
Fe1N Fe 0.347291(11) 0.580636(15) -0.152709(11)
Fe1FA Fe 0.347291(11) 0.652709(11) -0.080636(15)
Fe1C Fe 0.419364(15) 0.652709(11) -0.152709(11)
Fe1O Fe 0.652709(11) 0.419364(15) -0.152709(11)
Fe1B Fe 0.580636(15) 0.347291(11) -0.152709(11)
Fe1IA Fe 0.652709(11) 0.347291(11) -0.080636(15)
Fe1M Fe 0.652709(11) 0.580636(15) 0.152709(11)
Fe1GA Fe 0.652709(11) 0.652709(11) 0.080636(15)
Fe1A Fe 0.580636(15) 0.652709(11) 0.152709(11)
S1HA S 0.37997(2) 0.26316(3) 0.12003(2)
S1CB S 0.26316(3) 0.37997(2) 0.12003(2)
S1BB S 0.26316(3) 0.62003(2) -0.12003(2)
S1C S 0.37997(2) 0.62003(2) -0.23684(3)
S1FA S 0.37997(2) 0.73684(3) -0.12003(2)
S1B S 0.62003(2) 0.37997(2) -0.23684(3)
S1ZA S 0.73684(3) 0.37997(2) -0.12003(2)
S1IA S 0.62003(2) 0.26316(3) -0.12003(2)
S1AB S 0.73684(3) 0.62003(2) 0.12003(2)
S1A S 0.62003(2) 0.62003(2) 0.23684(3)
S1GA S 0.62003(2) 0.73684(3) 0.12003(2)
O1C O 0.37057(6) 0.62943(6) -0.12943(6)
O1B O 0.62943(6) 0.37057(6) -0.12943(6)
O1A O 0.62943(6) 0.62943(6) 0.12943(6)
O2L O 0.34919(6) 0.40132(5) 0.21083(5)
O2QA O 0.40132(5) 0.28917(5) 0.15081(6)
O2HA O 0.34919(6) 0.28917(5) 0.09868(5)
O2RB O 0.28917(5) 0.34919(6) 0.09868(5)
O2CB O 0.28917(5) 0.40132(5) 0.15081(6)
O2SB O 0.28917(5) 0.65081(6) -0.09868(5)
O2BB O 0.28917(5) 0.59868(5) -0.15081(6)
O2N O 0.34919(6) 0.59868(5) -0.21083(5)
O2C O 0.40132(5) 0.65081(6) -0.21083(5)
O2NA O 0.40132(5) 0.71083(5) -0.15081(6)
O2FA O 0.34919(6) 0.71083(5) -0.09868(5)
O2B O 0.59868(5) 0.34919(6) -0.21083(5)
O2O O 0.65081(6) 0.40132(5) -0.21083(5)
O2ZA O 0.71083(5) 0.40132(5) -0.15081(6)
O2PB O 0.71083(5) 0.34919(6) -0.09868(5)
O2IA O 0.65081(6) 0.28917(5) -0.09868(5)
O2PA O 0.59868(5) 0.28917(5) -0.15081(6)
O2QB O 0.71083(5) 0.65081(6) 0.09868(5)
O2AB O 0.71083(5) 0.59868(5) 0.15081(6)
O2M O 0.65081(6) 0.59868(5) 0.21083(5)
O2A O 0.59868(5) 0.65081(6) 0.21083(5)
O2OA O 0.59868(5) 0.71083(5) 0.15081(6)
O2GA O 0.65081(6) 0.71083(5) 0.09868(5)
O3L O 0.40066(5) 0.44913(5) 0.15766(6)
O3QA O 0.44913(5) 0.34234(6) 0.09934(5)
O3HA O 0.40066(5) 0.34234(6) 0.05087(5)
O3RB O 0.34234(6) 0.40066(5) 0.05087(5)
O3CB O 0.34234(6) 0.44913(5) 0.09934(5)
O3BB O 0.34234(6) 0.55087(5) -0.09934(5)
O3SB O 0.34234(6) 0.59934(5) -0.05087(5)
O3FA O 0.40066(5) 0.65766(6) -0.05087(5)
O3NA O 0.44913(5) 0.65766(6) -0.09934(5)
O3C O 0.44913(5) 0.59934(5) -0.15766(6)
O3N O 0.40066(5) 0.55087(5) -0.15766(6)
O3O O 0.59934(5) 0.44913(5) -0.15766(6)
O3B O 0.55087(5) 0.40066(5) -0.15766(6)
O3PA O 0.55087(5) 0.34234(6) -0.09934(5)
O3IA O 0.59934(5) 0.34234(6) -0.05087(5)
O3PB O 0.65766(6) 0.40066(5) -0.05087(5)
O3ZA O 0.65766(6) 0.44913(5) -0.09934(5)
O3AB O 0.65766(6) 0.55087(5) 0.09934(5)
O3QB O 0.65766(6) 0.59934(5) 0.05087(5)
O3GA O 0.59934(5) 0.65766(6) 0.05087(5)
O3OA O 0.55087(5) 0.65766(6) 0.09934(5)
O3A O 0.55087(5) 0.59934(5) 0.15766(6)
O3M O 0.59934(5) 0.55087(5) 0.15766(6)
N1L N 0.32242(7) 0.47650(10) 0.17758(7)
N1N N 0.32242(7) 0.52350(10) -0.17758(7)
N1O N 0.67758(7) 0.47650(10) -0.17758(7)
N1M N 0.67758(7) 0.52350(10) 0.17758(7)
N1A N 0.52350(10) 0.67758(7) 0.17758(7)
N1GA N 0.67758(7) 0.67758(7) 0.02350(10)
N1IA N 0.67758(7) 0.32242(7) -0.02350(10)
N1B N 0.52350(10) 0.32242(7) -0.17758(7)
N1C N 0.47650(10) 0.67758(7) -0.17758(7)
N1FA N 0.32242(7) 0.67758(7) -0.02350(10)
N1HA N 0.32242(7) 0.32242(7) 0.02350(10)
O4GA O 0.64190(7) 0.76842(8) 0.14190(7)
O4A O 0.64190(7) 0.64190(7) 0.26842(8)
O4AB O 0.76842(8) 0.64190(7) 0.14190(7)
O4IA O 0.64190(7) 0.23158(8) -0.14190(7)
O4ZA O 0.76842(8) 0.35810(7) -0.14190(7)
O4B O 0.64190(7) 0.35810(7) -0.26842(8)
O4FA O 0.35810(7) 0.76842(8) -0.14190(7)
O4C O 0.35810(7) 0.64190(7) -0.26842(8)
O4BB O 0.23158(8) 0.64190(7) -0.14190(7)
O4CB O 0.23158(8) 0.35810(7) 0.14190(7)
O4HA O 0.35810(7) 0.23158(8) 0.14190(7)
C1CB C 0.34124(13) 0.46995(7) 0.03005(7)
C1BB C 0.34124(13) 0.53005(7) -0.03005(7)
C1C C 0.46995(7) 0.53005(7) -0.15876(13)
C1B C 0.53005(7) 0.46995(7) -0.15876(13)
C1ZA C 0.65876(13) 0.46995(7) -0.03005(7)
C1AB C 0.65876(13) 0.53005(7) 0.03005(7)
C1A C 0.53005(7) 0.53005(7) 0.15876(13)
C1GA C 0.53005(7) 0.65876(13) 0.03005(7)
C1FA C 0.46995(7) 0.65876(13) -0.03005(7)
C1IA C 0.53005(7) 0.34124(13) -0.03005(7)
C1HA C 0.46995(7) 0.34124(13) 0.03005(7)
C2HA C 0.43734(8) 0.34151(12) 0.06266(8)
C2CB C 0.34151(12) 0.43734(8) 0.06266(8)
C2BB C 0.34151(12) 0.56266(8) -0.06266(8)
C2FA C 0.43734(8) 0.65849(12) -0.06266(8)
C2C C 0.43734(8) 0.56266(8) -0.15849(12)
C2B C 0.56266(8) 0.43734(8) -0.15849(12)
C2IA C 0.56266(8) 0.34151(12) -0.06266(8)
C2ZA C 0.65849(12) 0.43734(8) -0.06266(8)
C2AB C 0.65849(12) 0.56266(8) 0.06266(8)
C2GA C 0.56266(8) 0.65849(12) 0.06266(8)
C2A C 0.56266(8) 0.56266(8) 0.15849(12)
C3RB C 0.34011(12) 0.51095(8) 0.04096(8)
C3BB C 0.34011(12) 0.54096(8) 0.01095(8)
C3C C 0.45904(8) 0.48905(8) -0.15989(12)
C3O C 0.48905(8) 0.45904(8) -0.15989(12)
C3PB C 0.65989(12) 0.51095(8) -0.04096(8)
C3AB C 0.65989(12) 0.54096(8) -0.01095(8)
C3A C 0.54096(8) 0.48905(8) 0.15989(12)
C3L C 0.51095(8) 0.45904(8) 0.15989(12)
C3M C 0.48905(8) 0.54096(8) 0.15989(12)
C3GA C 0.48905(8) 0.65989(12) 0.04096(8)
C3NA C 0.45904(8) 0.65989(12) 0.01095(8)
C3FA C 0.51095(8) 0.65989(12) -0.04096(8)
C3OA C 0.54096(8) 0.65989(12) -0.01095(8)
C3QB C 0.65989(12) 0.48905(8) 0.04096(8)
C3ZA C 0.65989(12) 0.45904(8) 0.01095(8)
C3PA C 0.54096(8) 0.34011(12) 0.01095(8)
C3HA C 0.51095(8) 0.34011(12) 0.04096(8)
C3QA C 0.45904(8) 0.34011(12) -0.01095(8)
C3IA C 0.48905(8) 0.34011(12) -0.04096(8)
C3B C 0.54096(8) 0.51095(8) -0.15989(12)
C3N C 0.51095(8) 0.54096(8) -0.15989(12)
C3SB C 0.34011(12) 0.48905(8) -0.04096(8)
C3CB C 0.34011(12) 0.45904(8) -0.01095(8)
H1M H 0.4817 0.5685 0.1607
H1L H 0.5183 0.4315 0.1607
H1A H 0.5685 0.4817 0.1607
H1OA H 0.5685 0.6607 -0.0183
H1FA H 0.5183 0.6607 -0.0685
H1NA H 0.4315 0.6607 0.0183
H1GA H 0.4817 0.6607 0.0685
H1ZA H 0.6607 0.4315 0.0183
H1QB H 0.6607 0.4817 0.0685
H1AB H 0.6607 0.5685 -0.0183
H1PB H 0.6607 0.5183 -0.0685
H1IA H 0.4817 0.3393 -0.0685
H1QA H 0.4315 0.3393 -0.0183
H1HA H 0.5183 0.3393 0.0685
H1PA H 0.5685 0.3393 0.0183
H1N H 0.5183 0.5685 -0.1607
H1B H 0.5685 0.5183 -0.1607
H1O H 0.4817 0.4315 -0.1607
H1C H 0.4315 0.4817 -0.1607
H1CB H 0.3393 0.4315 -0.0183
H1SB H 0.3393 0.4817 -0.0685
H1BB H 0.3393 0.5685 0.0183
H1RB H 0.3393 0.5183 0.0685
O5GA O 0.59074(7) 0.75348(9) 0.09074(7)
O5A O 0.59074(7) 0.59074(7) 0.25348(9)
O5AB O 0.75348(9) 0.59074(7) 0.09074(7)
O5IA O 0.59074(7) 0.24652(9) -0.09074(7)
O5ZA O 0.75348(9) 0.40926(7) -0.09074(7)
O5B O 0.59074(7) 0.40926(7) -0.25348(9)
O5FA O 0.40926(7) 0.75348(9) -0.09074(7)
O5C O 0.40926(7) 0.59074(7) -0.25348(9)
O5BB O 0.24652(9) 0.59074(7) -0.09074(7)
O5CB O 0.24652(9) 0.40926(7) 0.09074(7)
O5HA O 0.40926(7) 0.24652(9) 0.09074(7)
C4L C 0.33949(11) 0.49445(10) 0.21040(11)
C4CB C 0.28960(11) 0.49445(10) 0.16051(11)
C4BB C 0.28960(11) 0.50555(10) -0.16051(11)
C4N C 0.33949(11) 0.50555(10) -0.21040(11)
C4O C 0.66051(11) 0.49445(10) -0.21040(11)
C4ZA C 0.71040(11) 0.49445(10) -0.16051(11)
C4AB C 0.71040(11) 0.50555(10) 0.16051(11)
C4M C 0.66051(11) 0.50555(10) 0.21040(11)
C4A C 0.50555(10) 0.66051(11) 0.21040(11)
C4OA C 0.50555(10) 0.71040(11) 0.16051(11)
C4QB C 0.71040(11) 0.66051(11) 0.00555(10)
C4GA C 0.66051(11) 0.71040(11) 0.00555(10)
C4PB C 0.71040(11) 0.33949(11) -0.00555(10)
C4IA C 0.66051(11) 0.28960(11) -0.00555(10)
C4B C 0.50555(10) 0.33949(11) -0.21040(11)
C4PA C 0.50555(10) 0.28960(11) -0.16051(11)
C4C C 0.49445(10) 0.66051(11) -0.21040(11)
C4NA C 0.49445(10) 0.71040(11) -0.16051(11)
C4SB C 0.28960(11) 0.66051(11) -0.00555(10)
C4FA C 0.33949(11) 0.71040(11) -0.00555(10)
C4HA C 0.33949(11) 0.28960(11) 0.00555(10)
C4RB C 0.28960(11) 0.33949(11) 0.00555(10)
C4QA C 0.49445(10) 0.28960(11) 0.16051(11)
H2L H 0.3622 0.4820 0.2222
H2CB H 0.2778 0.4820 0.1378
H2BB H 0.2778 0.5180 -0.1378
H2N H 0.3622 0.5180 -0.2222
H2O H 0.6378 0.4820 -0.2222
H2ZA H 0.7222 0.4820 -0.1378
H2AB H 0.7222 0.5180 0.1378
H2M H 0.6378 0.5180 0.2222
H2A H 0.5180 0.6378 0.2222
H2OA H 0.5180 0.7222 0.1378
H2QB H 0.7222 0.6378 0.0180
H2GA H 0.6378 0.7222 0.0180
H2PB H 0.7222 0.3622 -0.0180
H2IA H 0.6378 0.2778 -0.0180
H2B H 0.5180 0.3622 -0.2222
H2PA H 0.5180 0.2778 -0.1378
H2C H 0.4820 0.6378 -0.2222
H2NA H 0.4820 0.7222 -0.1378
H2SB H 0.2778 0.6378 -0.0180
H2FA H 0.3622 0.7222 -0.0180
H2HA H 0.3622 0.2778 0.0180
H2RB H 0.2778 0.3622 0.0180
H2QA H 0.4820 0.2778 0.1378
C5L C 0.32524(15) 0.53039(14) 0.22772(17)
C5CB C 0.27228(17) 0.53039(14) 0.17476(15)
C5BB C 0.27228(17) 0.46961(14) -0.17476(15)
C5N C 0.32524(15) 0.46961(14) -0.22772(17)
C5O C 0.67476(15) 0.53039(14) -0.22772(17)
C5ZA C 0.72772(17) 0.53039(14) -0.17476(15)
C5AB C 0.72772(17) 0.46961(14) 0.17476(15)
C5M C 0.67476(15) 0.46961(14) 0.22772(17)
C5A C 0.46961(14) 0.67476(15) 0.22772(17)
C5OA C 0.46961(14) 0.72772(17) 0.17476(15)
C5QB C 0.72772(17) 0.67476(15) -0.03039(14)
C5GA C 0.67476(15) 0.72772(17) -0.03039(14)
C5PB C 0.72772(17) 0.32524(15) 0.03039(14)
C5IA C 0.67476(15) 0.27228(17) 0.03039(14)
C5B C 0.46961(14) 0.32524(15) -0.22772(17)
C5PA C 0.46961(14) 0.27228(17) -0.17476(15)
C5C C 0.53039(14) 0.67476(15) -0.22772(17)
C5NA C 0.53039(14) 0.72772(17) -0.17476(15)
C5SB C 0.27228(17) 0.67476(15) 0.03039(14)
C5FA C 0.32524(15) 0.72772(17) 0.03039(14)
C5HA C 0.32524(15) 0.27228(17) -0.03039(14)
C5RB C 0.27228(17) 0.32524(15) -0.03039(14)
C5QA C 0.53039(14) 0.27228(17) 0.17476(15)
H3L H 0.3378 0.5424 0.2503
H3CB H 0.2497 0.5424 0.1622
H3BB H 0.2497 0.4576 -0.1622
H3N H 0.3378 0.4576 -0.2503
H3O H 0.6622 0.5424 -0.2503
H3ZA H 0.7503 0.5424 -0.1622
H3AB H 0.7503 0.4576 0.1622
H3M H 0.6622 0.4576 0.2503
H3A H 0.4576 0.6622 0.2503
H3OA H 0.4576 0.7503 0.1622
H3QB H 0.7503 0.6622 -0.0424
H3GA H 0.6622 0.7503 -0.0424
H3PB H 0.7503 0.3378 0.0424
H3IA H 0.6622 0.2497 0.0424
H3B H 0.4576 0.3378 -0.2503
H3PA H 0.4576 0.2497 -0.1622
H3C H 0.5424 0.6622 -0.2503
H3NA H 0.5424 0.7503 -0.1622
H3SB H 0.2497 0.6622 0.0424
H3FA H 0.3378 0.7503 0.0424
H3HA H 0.3378 0.2497 -0.0424
H3RB H 0.2497 0.3378 -0.0424
H3QA H 0.5424 0.2497 0.1622
C6L C 0.29095(16) 0.5474(2) 0.20905(16)
C6N C 0.29095(16) 0.4526(2) -0.20905(16)
C6O C 0.70905(16) 0.5474(2) -0.20905(16)
C6M C 0.70905(16) 0.4526(2) 0.20905(16)
C6A C 0.4526(2) 0.70905(16) 0.20905(16)
C6GA C 0.70905(16) 0.70905(16) -0.0474(2)
C6IA C 0.70905(16) 0.29095(16) 0.0474(2)
C6B C 0.4526(2) 0.29095(16) -0.20905(16)
C6C C 0.5474(2) 0.70905(16) -0.20905(16)
C6FA C 0.29095(16) 0.70905(16) 0.0474(2)
C6HA C 0.29095(16) 0.29095(16) -0.0474(2)
H4L H 0.2800 0.5713 0.2200
H4N H 0.2800 0.4287 -0.2200
H4O H 0.7200 0.5713 -0.2200
H4M H 0.7200 0.4287 0.2200
H4A H 0.4287 0.7200 0.2200
H4GA H 0.7200 0.7200 -0.0713
H4IA H 0.7200 0.2800 0.0713
H4B H 0.4287 0.2800 -0.2200
H4C H 0.5713 0.7200 -0.2200
H4FA H 0.2800 0.7200 0.0713
H4HA H 0.2800 0.2800 -0.0713
loop_
_geom_bond_atom_site_label_1
_geom_bond_atom_site_label_2
_geom_bond_site_symmetry_1
_geom_bond_site_symmetry_2
Fe1 O1 1_555 1_555
S1 O2 1_555 1_555
O1 Fe1L 1_555 1_555
O2 Fe1 1_555 1_555
O3 Fe1 1_555 1_555
N1 Fe1 1_555 1_555
O4 S1 1_555 1_555
C1 C2 1_555 1_555
C2 O3 1_555 1_555
C3 C1 1_555 1_555
H1 C3 1_555 1_555
O5 S1 1_555 1_555
C4 N1 1_555 1_555
H2 C4 1_555 1_555
C5 C4 1_555 1_555
H3 C5 1_555 1_555
C6 C5 1_555 1_555
H4 C6 1_555 1_555
Fe1L O2L 1_555 1_555
Fe1HA O1 1_555 1_555
Fe1N O1C 1_555 1_555
Fe1FA O1C 1_555 1_555
Fe1C O1C 1_555 1_555
Fe1O O1B 1_555 1_555
Fe1B O1B 1_555 1_555
Fe1IA O1B 1_555 1_555
Fe1M O1A 1_555 1_555
Fe1GA O1A 1_555 1_555
Fe1A O1A 1_555 1_555
S1HA O2QA 1_555 1_555
S1CB O2RB 1_555 1_555
S1BB O2SB 1_555 1_555
S1C O2N 1_555 1_555
S1FA O2NA 1_555 1_555
S1B O2B 1_555 1_555
S1ZA O2ZA 1_555 1_555
S1IA O2IA 1_555 1_555
S1AB O2QB 1_555 1_555
S1A O2M 1_555 1_555
S1GA O2OA 1_555 1_555
O2L S1 1_555 1_555
O2QA Fe1 1_555 1_555
O2HA Fe1HA 1_555 1_555
O2RB Fe1HA 1_555 1_555
O2CB Fe1L 1_555 1_555
O2SB Fe1FA 1_555 1_555
O2BB Fe1N 1_555 1_555
O2N Fe1N 1_555 1_555
O2C Fe1C 1_555 1_555
O2NA Fe1C 1_555 1_555
O2FA Fe1FA 1_555 1_555
O2B Fe1B 1_555 1_555
O2O Fe1O 1_555 1_555
O2ZA Fe1O 1_555 1_555
O2PB Fe1IA 1_555 1_555
O2IA Fe1IA 1_555 1_555
O2PA Fe1B 1_555 1_555
O2QB Fe1GA 1_555 1_555
O2AB Fe1M 1_555 1_555
O2M Fe1M 1_555 1_555
O2A Fe1A 1_555 1_555
O2OA Fe1A 1_555 1_555
O2GA Fe1GA 1_555 1_555
O3L C2 1_555 1_555
O3QA Fe1 1_555 1_555
O3HA Fe1HA 1_555 1_555
O3RB Fe1HA 1_555 1_555
O3CB Fe1L 1_555 1_555
O3BB Fe1N 1_555 1_555
O3SB Fe1FA 1_555 1_555
O3FA Fe1FA 1_555 1_555
O3NA Fe1C 1_555 1_555
O3C Fe1C 1_555 1_555
O3N Fe1N 1_555 1_555
O3O Fe1O 1_555 1_555
O3B Fe1B 1_555 1_555
O3PA Fe1B 1_555 1_555
O3IA Fe1IA 1_555 1_555
O3PB Fe1IA 1_555 1_555
O3ZA Fe1O 1_555 1_555
O3AB Fe1M 1_555 1_555
O3QB Fe1GA 1_555 1_555
O3GA Fe1GA 1_555 1_555
O3OA Fe1A 1_555 1_555
O3A Fe1A 1_555 1_555
O3M Fe1M 1_555 1_555
N1L Fe1L 1_555 1_555
N1N Fe1N 1_555 1_555
N1O Fe1O 1_555 1_555
N1M Fe1M 1_555 1_555
N1A Fe1A 1_555 1_555
N1GA Fe1GA 1_555 1_555
N1IA Fe1IA 1_555 1_555
N1B Fe1B 1_555 1_555
N1C Fe1C 1_555 1_555
N1FA Fe1FA 1_555 1_555
N1HA Fe1HA 1_555 1_555
O4GA S1GA 1_555 1_555
O4A S1A 1_555 1_555
O4AB S1AB 1_555 1_555
O4IA S1IA 1_555 1_555
O4ZA S1ZA 1_555 1_555
O4B S1B 1_555 1_555
O4FA S1FA 1_555 1_555
O4C S1C 1_555 1_555
O4BB S1BB 1_555 1_555
O4CB S1CB 1_555 1_555
O4HA S1HA 1_555 1_555
C1CB C2CB 1_555 1_555
C1BB C2BB 1_555 1_555
C1C C2C 1_555 1_555
C1B C2B 1_555 1_555
C1ZA C2ZA 1_555 1_555
C1AB C2AB 1_555 1_555
C1A C2A 1_555 1_555
C1GA C2GA 1_555 1_555
C1FA C2FA 1_555 1_555
C1IA C2IA 1_555 1_555
C1HA C2HA 1_555 1_555
C2HA O3QA 1_555 1_555
C2CB O3RB 1_555 1_555
C2BB O3BB 1_555 1_555
C2FA O3FA 1_555 1_555
C2C O3C 1_555 1_555
C2B O3O 1_555 1_555
C2IA O3PA 1_555 1_555
C2ZA O3PB 1_555 1_555
C2AB O3AB 1_555 1_555
C2GA O3GA 1_555 1_555
C2A O3A 1_555 1_555
C3RB C1CB 1_555 1_555
C3BB C1BB 1_555 1_555
C3C C1C 1_555 1_555
C3O C1B 1_555 1_555
C3PB C1ZA 1_555 1_555
C3AB C1AB 1_555 1_555
C3A C1A 1_555 1_555
C3L C1 1_555 1_555
C3M C3 1_555 1_555
C3GA C1GA 1_555 1_555
C3NA C1FA 1_555 1_555
C3FA C1FA 1_555 1_555
C3OA C1GA 1_555 1_555
C3QB C1AB 1_555 1_555
C3ZA C1ZA 1_555 1_555
C3PA C1IA 1_555 1_555
C3HA C1HA 1_555 1_555
C3QA C1HA 1_555 1_555
C3IA C1IA 1_555 1_555
C3B C1B 1_555 1_555
C3N C1C 1_555 1_555
C3SB C1BB 1_555 1_555
C3CB C1CB 1_555 1_555
H1M C3M 1_555 1_555
H1L C3L 1_555 1_555
H1A C3A 1_555 1_555
H1OA C3OA 1_555 1_555
H1FA C3FA 1_555 1_555
H1NA C3NA 1_555 1_555
H1GA C3GA 1_555 1_555
H1ZA C3ZA 1_555 1_555
H1QB C3QB 1_555 1_555
H1AB C3AB 1_555 1_555
H1PB C3PB 1_555 1_555
H1IA C3IA 1_555 1_555
H1QA C3QA 1_555 1_555
H1HA C3HA 1_555 1_555
H1PA C3PA 1_555 1_555
H1N C3N 1_555 1_555
H1B C3B 1_555 1_555
H1O C3O 1_555 1_555
H1C C3C 1_555 1_555
H1CB C3CB 1_555 1_555
H1SB C3SB 1_555 1_555
H1BB C3BB 1_555 1_555
H1RB C3RB 1_555 1_555
O5GA S1GA 1_555 1_555
O5A S1A 1_555 1_555
O5AB S1AB 1_555 1_555
O5IA S1IA 1_555 1_555
O5ZA S1ZA 1_555 1_555
O5B S1B 1_555 1_555
O5FA S1FA 1_555 1_555
O5C S1C 1_555 1_555
O5BB S1BB 1_555 1_555
O5CB S1CB 1_555 1_555
O5HA S1HA 1_555 1_555
C4L N1L 1_555 1_555
C4CB N1L 1_555 1_555
C4BB N1N 1_555 1_555
C4N N1N 1_555 1_555
C4O N1O 1_555 1_555
C4ZA N1O 1_555 1_555
C4AB N1M 1_555 1_555
C4M N1M 1_555 1_555
C4A N1A 1_555 1_555
C4OA N1A 1_555 1_555
C4QB N1GA 1_555 1_555
C4GA N1GA 1_555 1_555
C4PB N1IA 1_555 1_555
C4IA N1IA 1_555 1_555
C4B N1B 1_555 1_555
C4PA N1B 1_555 1_555
C4C N1C 1_555 1_555
C4NA N1C 1_555 1_555
C4SB N1FA 1_555 1_555
C4FA N1FA 1_555 1_555
C4HA N1HA 1_555 1_555
C4RB N1HA 1_555 1_555
C4QA N1 1_555 1_555
H2L C4L 1_555 1_555
H2CB C4CB 1_555 1_555
H2BB C4BB 1_555 1_555
H2N C4N 1_555 1_555
H2O C4O 1_555 1_555
H2ZA C4ZA 1_555 1_555
H2AB C4AB 1_555 1_555
H2M C4M 1_555 1_555
H2A C4A 1_555 1_555
H2OA C4OA 1_555 1_555
H2QB C4QB 1_555 1_555
H2GA C4GA 1_555 1_555
H2PB C4PB 1_555 1_555
H2IA C4IA 1_555 1_555
H2B C4B 1_555 1_555
H2PA C4PA 1_555 1_555
H2C C4C 1_555 1_555
H2NA C4NA 1_555 1_555
H2SB C4SB 1_555 1_555
H2FA C4FA 1_555 1_555
H2HA C4HA 1_555 1_555
H2RB C4RB 1_555 1_555
H2QA C4QA 1_555 1_555
C5L C4L 1_555 1_555
C5CB C4CB 1_555 1_555
C5BB C4BB 1_555 1_555
C5N C4N 1_555 1_555
C5O C4O 1_555 1_555
C5ZA C4ZA 1_555 1_555
C5AB C4AB 1_555 1_555
C5M C4M 1_555 1_555
C5A C4A 1_555 1_555
C5OA C4OA 1_555 1_555
C5QB C4QB 1_555 1_555
C5GA C4GA 1_555 1_555
C5PB C4PB 1_555 1_555
C5IA C4IA 1_555 1_555
C5B C4B 1_555 1_555
C5PA C4PA 1_555 1_555
C5C C4C 1_555 1_555
C5NA C4NA 1_555 1_555
C5SB C4SB 1_555 1_555
C5FA C4FA 1_555 1_555
C5HA C4HA 1_555 1_555
C5RB C4RB 1_555 1_555
C5QA C6 1_555 1_555
H3L C5L 1_555 1_555
H3CB C5CB 1_555 1_555
H3BB C5BB 1_555 1_555
H3N C5N 1_555 1_555
H3O C5O 1_555 1_555
H3ZA C5ZA 1_555 1_555
H3AB C5AB 1_555 1_555
H3M C5M 1_555 1_555
H3A C5A 1_555 1_555
H3OA C5OA 1_555 1_555
H3QB C5QB 1_555 1_555
H3GA C5GA 1_555 1_555
H3PB C5PB 1_555 1_555
H3IA C5IA 1_555 1_555
H3B C5B 1_555 1_555
H3PA C5PA 1_555 1_555
H3C C5C 1_555 1_555
H3NA C5NA 1_555 1_555
H3SB C5SB 1_555 1_555
H3FA C5FA 1_555 1_555
H3HA C5HA 1_555 1_555
H3RB C5RB 1_555 1_555
H3QA C5QA 1_555 1_555
C6L C5L 1_555 1_555
C6N C5BB 1_555 1_555
C6O C5O 1_555 1_555
C6M C5AB 1_555 1_555
C6A C5A 1_555 1_555
C6GA C5QB 1_555 1_555
C6IA C5PB 1_555 1_555
C6B C5B 1_555 1_555
C6C C5C 1_555 1_555
C6FA C5SB 1_555 1_555
C6HA C5HA 1_555 1_555
H4L C6L 1_555 1_555
H4N C6N 1_555 1_555
H4O C6O 1_555 1_555
H4M C6M 1_555 1_555
H4A C6A 1_555 1_555
H4GA C6GA 1_555 1_555
H4IA C6IA 1_555 1_555
H4B C6B 1_555 1_555
H4C C6C 1_555 1_555
H4FA C6FA 1_555 1_555
H4HA C6HA 1_555 1_555
Fe1L O3L 1_555 1_555
S1HA O2HA 1_555 1_555
S1CB O2CB 1_555 1_555
S1BB O2BB 1_555 1_555
S1C O2C 1_555 1_555
S1FA O2FA 1_555 1_555
S1B O2O 1_555 1_555
S1ZA O2PB 1_555 1_555
S1IA O2PA 1_555 1_555
S1AB O2AB 1_555 1_555
S1A O2A 1_555 1_555
S1GA O2GA 1_555 1_555
O3HA C2HA 1_555 1_555
O3CB C2CB 1_555 1_555
O3SB C2BB 1_555 1_555
O3NA C2FA 1_555 1_555
O3N C2C 1_555 1_555
O3B C2B 1_555 1_555
O3IA C2IA 1_555 1_555
O3ZA C2ZA 1_555 1_555
O3QB C2AB 1_555 1_555
O3OA C2GA 1_555 1_555
O3M C2A 1_555 1_555
C1A C3M 1_555 1_555
C3RB C3BB 1_555 1_555
C3C C3O 1_555 1_555
C3PB C3AB 1_555 1_555
C3A C3L 1_555 1_555
C3GA C3NA 1_555 1_555
C3FA C3OA 1_555 1_555
C3QB C3ZA 1_555 1_555
C3PA C3HA 1_555 1_555
C3QA C3IA 1_555 1_555
C3B C3N 1_555 1_555
C3SB C3CB 1_555 1_555
C4QA C5QA 1_555 1_555
C5CB C6L 1_555 1_555
C5N C6N 1_555 1_555
C5ZA C6O 1_555 1_555
C5M C6M 1_555 1_555
C5OA C6A 1_555 1_555
C5GA C6GA 1_555 1_555
C5IA C6IA 1_555 1_555
C5PA C6B 1_555 1_555
C5NA C6C 1_555 1_555
C5FA C6FA 1_555 1_555
C5RB C6HA 1_555 1_555

#END
