
#######################################################################
#
#                 Cambridge Crystallographic Data Centre
#                                CCDC 
#
#######################################################################
#
# If this CIF has been generated from an entry in the Cambridge 
# Structural Database, then it will include bibliographic, chemical, 
# crystal, experimental, refinement or atomic coordinate data resulting 
# from the CCDC's data processing and validation procedures.
#
#######################################################################

data_JANYUT
_chemical_name_common            IRMOP-50
_chemical_formula_moiety         
'C108 H84 Fe12 N12 O76 S12 8-,8(C2 H8 N1 1+),12(H2 O1)'
_chemical_name_systematic        
"octakis(Dimethylammonium) hexakis(\m~4~-benzene-1,4-dicarboxylato-O,O',O'',O''')-tetrakis(\m~3~-oxo)-dodecakis(\m~2~-sulfato-O,O')-dodecakis(pyridine-N)-dodeca-iron dodecahydrate unknown clathrate"
_symmetry_cell_setting           cubic
_symmetry_space_group_name_H-M   'F -4 3 m'
_symmetry_Int_Tables_number      216
_space_group_name_Hall           'F -4 2 3'
loop_
_symmetry_equiv_pos_site_id
_symmetry_equiv_pos_as_xyz
1 x,y,z
2 -x,-y,z
3 -x,y,-z
4 x,-y,-z
5 z,x,y
6 z,-x,-y
7 -z,-x,y
8 -z,x,-y
9 y,z,x
10 -y,z,-x
11 y,-z,-x
12 -y,-z,x
13 y,x,z
14 -y,-x,z
15 y,-x,-z
16 -y,x,-z
17 x,z,y
18 -x,z,-y
19 -x,-z,y
20 x,-z,-y
21 z,y,x
22 z,-y,-x
23 -z,y,-x
24 -z,-y,x
25 x,1/2+y,1/2+z
26 -x,1/2-y,1/2+z
27 -x,1/2+y,1/2-z
28 x,1/2-y,1/2-z
29 z,1/2+x,1/2+y
30 z,1/2-x,1/2-y
31 -z,1/2-x,1/2+y
32 -z,1/2+x,1/2-y
33 y,1/2+z,1/2+x
34 -y,1/2+z,1/2-x
35 y,1/2-z,1/2-x
36 -y,1/2-z,1/2+x
37 y,1/2+x,1/2+z
38 -y,1/2-x,1/2+z
39 y,1/2-x,1/2-z
40 -y,1/2+x,1/2-z
41 x,1/2+z,1/2+y
42 -x,1/2+z,1/2-y
43 -x,1/2-z,1/2+y
44 x,1/2-z,1/2-y
45 z,1/2+y,1/2+x
46 z,1/2-y,1/2-x
47 -z,1/2+y,1/2-x
48 -z,1/2-y,1/2+x
49 1/2+x,y,1/2+z
50 1/2-x,-y,1/2+z
51 1/2-x,y,1/2-z
52 1/2+x,-y,1/2-z
53 1/2+z,x,1/2+y
54 1/2+z,-x,1/2-y
55 1/2-z,-x,1/2+y
56 1/2-z,x,1/2-y
57 1/2+y,z,1/2+x
58 1/2-y,z,1/2-x
59 1/2+y,-z,1/2-x
60 1/2-y,-z,1/2+x
61 1/2+y,x,1/2+z
62 1/2-y,-x,1/2+z
63 1/2+y,-x,1/2-z
64 1/2-y,x,1/2-z
65 1/2+x,z,1/2+y
66 1/2-x,z,1/2-y
67 1/2-x,-z,1/2+y
68 1/2+x,-z,1/2-y
69 1/2+z,y,1/2+x
70 1/2+z,-y,1/2-x
71 1/2-z,y,1/2-x
72 1/2-z,-y,1/2+x
73 1/2+x,1/2+y,z
74 1/2-x,1/2-y,z
75 1/2-x,1/2+y,-z
76 1/2+x,1/2-y,-z
77 1/2+z,1/2+x,y
78 1/2+z,1/2-x,-y
79 1/2-z,1/2-x,y
80 1/2-z,1/2+x,-y
81 1/2+y,1/2+z,x
82 1/2-y,1/2+z,-x
83 1/2+y,1/2-z,-x
84 1/2-y,1/2-z,x
85 1/2+y,1/2+x,z
86 1/2-y,1/2-x,z
87 1/2+y,1/2-x,-z
88 1/2-y,1/2+x,-z
89 1/2+x,1/2+z,y
90 1/2-x,1/2+z,-y
91 1/2-x,1/2-z,y
92 1/2+x,1/2-z,-y
93 1/2+z,1/2+y,x
94 1/2+z,1/2-y,-x
95 1/2-z,1/2+y,-x
96 1/2-z,1/2-y,x
_cell_length_a                   32.6504(13)
_cell_length_b                   32.6504(13)
_cell_length_c                   32.6504(13)
_cell_angle_alpha                90
_cell_angle_beta                 90
_cell_angle_gamma                90
_cell_volume                     34806.9
_exptl_crystal_colour            orange
_exptl_crystal_description       cube
_cell_formula_units_Z            4
loop_
_atom_site_label
_atom_site_type_symbol
_atom_site_fract_x
_atom_site_fract_y
_atom_site_fract_z
O6 O 0.3730(6) 0.2500(5) 0.2500(5)
Fe1 Fe 0.41933(4) 0.34726(3) 0.15274(3)
S1 S 0.37989(7) 0.37989(7) 0.23674(8)
O1 O 0.37031(18) 0.37031(18) 0.12969(18)
O2 O 0.40096(17) 0.34869(18) 0.21094(15)
O3 O 0.44953(17) 0.40085(15) 0.15772(19)
N1 N 0.4766(3) 0.3222(2) 0.1778(2)
O4 O 0.3574(2) 0.3574(2) 0.2676(3)
C1 C 0.4701(2) 0.4701(2) 0.1589(4)
C2 C 0.4377(2) 0.4377(2) 0.1583(4)
C3 C 0.4594(2) 0.5105(3) 0.1595(5)
H1 H 0.4319 0.5179 0.1599
O5 O 0.4091(2) 0.4091(2) 0.2534(3)
C4 C 0.4946(3) 0.3388(4) 0.2106(3)
H2 H 0.4828 0.3617 0.2228
C5 C 0.5313(4) 0.3225(5) 0.2274(5)
H3 H 0.5418 0.3340 0.2512
C6 C 0.5520(6) 0.2903(5) 0.2097(5)
H4 H 0.5775 0.2813 0.2187
Fe1L Fe 0.34726(3) 0.41933(4) 0.15274(3)
Fe1HA Fe 0.34726(3) 0.34726(3) 0.08067(4)
Fe1N Fe 0.34726(3) 0.58067(4) -0.15274(3)
Fe1FA Fe 0.34726(3) 0.65274(3) -0.08067(4)
Fe1C Fe 0.41933(4) 0.65274(3) -0.15274(3)
Fe1O Fe 0.65274(3) 0.41933(4) -0.15274(3)
Fe1B Fe 0.58067(4) 0.34726(3) -0.15274(3)
Fe1IA Fe 0.65274(3) 0.34726(3) -0.08067(4)
Fe1M Fe 0.65274(3) 0.58067(4) 0.15274(3)
Fe1GA Fe 0.65274(3) 0.65274(3) 0.08067(4)
Fe1A Fe 0.58067(4) 0.65274(3) 0.15274(3)
S1HA S 0.37989(7) 0.26326(8) 0.12011(7)
S1CB S 0.26326(8) 0.37989(7) 0.12011(7)
S1BB S 0.26326(8) 0.62011(7) -0.12011(7)
S1C S 0.37989(7) 0.62011(7) -0.23674(8)
S1FA S 0.37989(7) 0.73674(8) -0.12011(7)
S1B S 0.62011(7) 0.37989(7) -0.23674(8)
S1ZA S 0.73674(8) 0.37989(7) -0.12011(7)
S1IA S 0.62011(7) 0.26326(8) -0.12011(7)
S1AB S 0.73674(8) 0.62011(7) 0.12011(7)
S1A S 0.62011(7) 0.62011(7) 0.23674(8)
S1GA S 0.62011(7) 0.73674(8) 0.12011(7)
O1C O 0.37031(18) 0.62969(18) -0.12969(18)
O1B O 0.62969(18) 0.37031(18) -0.12969(18)
O1A O 0.62969(18) 0.62969(18) 0.12969(18)
O2L O 0.34869(18) 0.40096(17) 0.21094(15)
O2QA O 0.40096(17) 0.28906(15) 0.15131(18)
O2HA O 0.34869(18) 0.28906(15) 0.09904(17)
O2RB O 0.28906(15) 0.34869(18) 0.09904(17)
O2CB O 0.28906(15) 0.40096(17) 0.15131(18)
O2SB O 0.28906(15) 0.65131(18) -0.09904(17)
O2BB O 0.28906(15) 0.59904(17) -0.15131(18)
O2N O 0.34869(18) 0.59904(17) -0.21094(15)
O2C O 0.40096(17) 0.65131(18) -0.21094(15)
O2NA O 0.40096(17) 0.71094(15) -0.15131(18)
O2FA O 0.34869(18) 0.71094(15) -0.09904(17)
O2B O 0.59904(17) 0.34869(18) -0.21094(15)
O2O O 0.65131(18) 0.40096(17) -0.21094(15)
O2ZA O 0.71094(15) 0.40096(17) -0.15131(18)
O2PB O 0.71094(15) 0.34869(18) -0.09904(17)
O2IA O 0.65131(18) 0.28906(15) -0.09904(17)
O2PA O 0.59904(17) 0.28906(15) -0.15131(18)
O2QB O 0.71094(15) 0.65131(18) 0.09904(17)
O2AB O 0.71094(15) 0.59904(17) 0.15131(18)
O2M O 0.65131(18) 0.59904(17) 0.21094(15)
O2A O 0.59904(17) 0.65131(18) 0.21094(15)
O2OA O 0.59904(17) 0.71094(15) 0.15131(18)
O2GA O 0.65131(18) 0.71094(15) 0.09904(17)
O3L O 0.40085(15) 0.44953(17) 0.15772(19)
O3QA O 0.44953(17) 0.34228(19) 0.09915(15)
O3HA O 0.40085(15) 0.34228(19) 0.05047(17)
O3RB O 0.34228(19) 0.40085(15) 0.05047(17)
O3CB O 0.34228(19) 0.44953(17) 0.09915(15)
O3BB O 0.34228(19) 0.55047(17) -0.09915(15)
O3SB O 0.34228(19) 0.59915(15) -0.05047(17)
O3FA O 0.40085(15) 0.65772(19) -0.05047(17)
O3NA O 0.44953(17) 0.65772(19) -0.09915(15)
O3C O 0.44953(17) 0.59915(15) -0.15772(19)
O3N O 0.40085(15) 0.55047(17) -0.15772(19)
O3O O 0.59915(15) 0.44953(17) -0.15772(19)
O3B O 0.55047(17) 0.40085(15) -0.15772(19)
O3PA O 0.55047(17) 0.34228(19) -0.09915(15)
O3IA O 0.59915(15) 0.34228(19) -0.05047(17)
O3PB O 0.65772(19) 0.40085(15) -0.05047(17)
O3ZA O 0.65772(19) 0.44953(17) -0.09915(15)
O3AB O 0.65772(19) 0.55047(17) 0.09915(15)
O3QB O 0.65772(19) 0.59915(15) 0.05047(17)
O3GA O 0.59915(15) 0.65772(19) 0.05047(17)
O3OA O 0.55047(17) 0.65772(19) 0.09915(15)
O3A O 0.55047(17) 0.59915(15) 0.15772(19)
O3M O 0.59915(15) 0.55047(17) 0.15772(19)
N1L N 0.3222(2) 0.4766(3) 0.1778(2)
N1N N 0.3222(2) 0.5234(3) -0.1778(2)
N1O N 0.6778(2) 0.4766(3) -0.1778(2)
N1M N 0.6778(2) 0.5234(3) 0.1778(2)
N1A N 0.5234(3) 0.6778(2) 0.1778(2)
N1GA N 0.6778(2) 0.6778(2) 0.0234(3)
N1IA N 0.6778(2) 0.3222(2) -0.0234(3)
N1B N 0.5234(3) 0.3222(2) -0.1778(2)
N1C N 0.4766(3) 0.6778(2) -0.1778(2)
N1FA N 0.3222(2) 0.6778(2) -0.0234(3)
N1HA N 0.3222(2) 0.3222(2) 0.0234(3)
O4GA O 0.6426(2) 0.7676(3) 0.1426(2)
O4A O 0.6426(2) 0.6426(2) 0.2676(3)
O4AB O 0.7676(3) 0.6426(2) 0.1426(2)
O4IA O 0.6426(2) 0.2324(3) -0.1426(2)
O4ZA O 0.7676(3) 0.3574(2) -0.1426(2)
O4B O 0.6426(2) 0.3574(2) -0.2676(3)
O4FA O 0.3574(2) 0.7676(3) -0.1426(2)
O4C O 0.3574(2) 0.6426(2) -0.2676(3)
O4BB O 0.2324(3) 0.6426(2) -0.1426(2)
O4CB O 0.2324(3) 0.3574(2) 0.1426(2)
O4HA O 0.3574(2) 0.2324(3) 0.1426(2)
C1CB C 0.3411(4) 0.4701(2) 0.0299(2)
C1BB C 0.3411(4) 0.5299(2) -0.0299(2)
C1C C 0.4701(2) 0.5299(2) -0.1589(4)
C1B C 0.5299(2) 0.4701(2) -0.1589(4)
C1ZA C 0.6589(4) 0.4701(2) -0.0299(2)
C1AB C 0.6589(4) 0.5299(2) 0.0299(2)
C1A C 0.5299(2) 0.5299(2) 0.1589(4)
C1GA C 0.5299(2) 0.6589(4) 0.0299(2)
C1FA C 0.4701(2) 0.6589(4) -0.0299(2)
C1IA C 0.5299(2) 0.3411(4) -0.0299(2)
C1HA C 0.4701(2) 0.3411(4) 0.0299(2)
C2HA C 0.4377(2) 0.3417(4) 0.0623(2)
C2CB C 0.3417(4) 0.4377(2) 0.0623(2)
C2BB C 0.3417(4) 0.5623(2) -0.0623(2)
C2FA C 0.4377(2) 0.6583(4) -0.0623(2)
C2C C 0.4377(2) 0.5623(2) -0.1583(4)
C2B C 0.5623(2) 0.4377(2) -0.1583(4)
C2IA C 0.5623(2) 0.3417(4) -0.0623(2)
C2ZA C 0.6583(4) 0.4377(2) -0.0623(2)
C2AB C 0.6583(4) 0.5623(2) 0.0623(2)
C2GA C 0.5623(2) 0.6583(4) 0.0623(2)
C2A C 0.5623(2) 0.5623(2) 0.1583(4)
C3RB C 0.3405(5) 0.5105(3) 0.0406(2)
C3BB C 0.3405(5) 0.5406(2) 0.0105(3)
C3C C 0.4594(2) 0.4895(3) -0.1595(5)
C3O C 0.4895(3) 0.4594(2) -0.1595(5)
C3PB C 0.6595(5) 0.5105(3) -0.0406(2)
C3AB C 0.6595(5) 0.5406(2) -0.0105(3)
C3A C 0.5406(2) 0.4895(3) 0.1595(5)
C3L C 0.5105(3) 0.4594(2) 0.1595(5)
C3M C 0.4895(3) 0.5406(2) 0.1595(5)
C3GA C 0.4895(3) 0.6595(5) 0.0406(2)
C3NA C 0.4594(2) 0.6595(5) 0.0105(3)
C3FA C 0.5105(3) 0.6595(5) -0.0406(2)
C3OA C 0.5406(2) 0.6595(5) -0.0105(3)
C3QB C 0.6595(5) 0.4895(3) 0.0406(2)
C3ZA C 0.6595(5) 0.4594(2) 0.0105(3)
C3PA C 0.5406(2) 0.3405(5) 0.0105(3)
C3HA C 0.5105(3) 0.3405(5) 0.0406(2)
C3QA C 0.4594(2) 0.3405(5) -0.0105(3)
C3IA C 0.4895(3) 0.3405(5) -0.0406(2)
C3B C 0.5406(2) 0.5105(3) -0.1595(5)
C3N C 0.5105(3) 0.5406(2) -0.1595(5)
C3SB C 0.3405(5) 0.4895(3) -0.0406(2)
C3CB C 0.3405(5) 0.4594(2) -0.0105(3)
H1M H 0.4821 0.5681 0.1599
H1L H 0.5179 0.4319 0.1599
H1A H 0.5681 0.4821 0.1599
H1OA H 0.5681 0.6599 -0.0179
H1FA H 0.5179 0.6599 -0.0681
H1NA H 0.4319 0.6599 0.0179
H1GA H 0.4821 0.6599 0.0681
H1ZA H 0.6599 0.4319 0.0179
H1QB H 0.6599 0.4821 0.0681
H1AB H 0.6599 0.5681 -0.0179
H1PB H 0.6599 0.5179 -0.0681
H1IA H 0.4821 0.3401 -0.0681
H1QA H 0.4319 0.3401 -0.0179
H1HA H 0.5179 0.3401 0.0681
H1PA H 0.5681 0.3401 0.0179
H1N H 0.5179 0.5681 -0.1599
H1B H 0.5681 0.5179 -0.1599
H1O H 0.4821 0.4319 -0.1599
H1C H 0.4319 0.4821 -0.1599
H1CB H 0.3401 0.4319 -0.0179
H1SB H 0.3401 0.4821 -0.0681
H1BB H 0.3401 0.5681 0.0179
H1RB H 0.3401 0.5179 0.0681
O5GA O 0.5909(2) 0.7534(3) 0.0909(2)
O5A O 0.5909(2) 0.5909(2) 0.2534(3)
O5AB O 0.7534(3) 0.5909(2) 0.0909(2)
O5IA O 0.5909(2) 0.2466(3) -0.0909(2)
O5ZA O 0.7534(3) 0.4091(2) -0.0909(2)
O5B O 0.5909(2) 0.4091(2) -0.2534(3)
O5FA O 0.4091(2) 0.7534(3) -0.0909(2)
O5C O 0.4091(2) 0.5909(2) -0.2534(3)
O5BB O 0.2466(3) 0.5909(2) -0.0909(2)
O5CB O 0.2466(3) 0.4091(2) 0.0909(2)
O5HA O 0.4091(2) 0.2466(3) 0.0909(2)
C4L C 0.3388(4) 0.4946(3) 0.2106(3)
C4CB C 0.2894(3) 0.4946(3) 0.1612(4)
C4BB C 0.2894(3) 0.5054(3) -0.1612(4)
C4N C 0.3388(4) 0.5054(3) -0.2106(3)
C4O C 0.6612(4) 0.4946(3) -0.2106(3)
C4ZA C 0.7106(3) 0.4946(3) -0.1612(4)
C4AB C 0.7106(3) 0.5054(3) 0.1612(4)
C4M C 0.6612(4) 0.5054(3) 0.2106(3)
C4A C 0.5054(3) 0.6612(4) 0.2106(3)
C4OA C 0.5054(3) 0.7106(3) 0.1612(4)
C4QB C 0.7106(3) 0.6612(4) 0.0054(3)
C4GA C 0.6612(4) 0.7106(3) 0.0054(3)
C4PB C 0.7106(3) 0.3388(4) -0.0054(3)
C4IA C 0.6612(4) 0.2894(3) -0.0054(3)
C4B C 0.5054(3) 0.3388(4) -0.2106(3)
C4PA C 0.5054(3) 0.2894(3) -0.1612(4)
C4C C 0.4946(3) 0.6612(4) -0.2106(3)
C4NA C 0.4946(3) 0.7106(3) -0.1612(4)
C4SB C 0.2894(3) 0.6612(4) -0.0054(3)
C4FA C 0.3388(4) 0.7106(3) -0.0054(3)
C4HA C 0.3388(4) 0.2894(3) 0.0054(3)
C4RB C 0.2894(3) 0.3388(4) 0.0054(3)
C4QA C 0.4946(3) 0.2894(3) 0.1612(4)
H2L H 0.3617 0.4828 0.2228
H2CB H 0.2772 0.4828 0.1383
H2BB H 0.2772 0.5172 -0.1383
H2N H 0.3617 0.5172 -0.2228
H2O H 0.6383 0.4828 -0.2228
H2ZA H 0.7228 0.4828 -0.1383
H2AB H 0.7228 0.5172 0.1383
H2M H 0.6383 0.5172 0.2228
H2A H 0.5172 0.6383 0.2228
H2OA H 0.5172 0.7228 0.1383
H2QB H 0.7228 0.6383 0.0172
H2GA H 0.6383 0.7228 0.0172
H2PB H 0.7228 0.3617 -0.0172
H2IA H 0.6383 0.2772 -0.0172
H2B H 0.5172 0.3617 -0.2228
H2PA H 0.5172 0.2772 -0.1383
H2C H 0.4828 0.6383 -0.2228
H2NA H 0.4828 0.7228 -0.1383
H2SB H 0.2772 0.6383 -0.0172
H2FA H 0.3617 0.7228 -0.0172
H2HA H 0.3617 0.2772 0.0172
H2RB H 0.2772 0.3617 0.0172
H2QA H 0.4828 0.2772 0.1383
C5L C 0.3225(5) 0.5313(4) 0.2274(5)
C5CB C 0.2726(5) 0.5313(4) 0.1775(5)
C5BB C 0.2726(5) 0.4687(4) -0.1775(5)
C5N C 0.3225(5) 0.4687(4) -0.2274(5)
C5O C 0.6775(5) 0.5313(4) -0.2274(5)
C5ZA C 0.7274(5) 0.5313(4) -0.1775(5)
C5AB C 0.7274(5) 0.4687(4) 0.1775(5)
C5M C 0.6775(5) 0.4687(4) 0.2274(5)
C5A C 0.4687(4) 0.6775(5) 0.2274(5)
C5OA C 0.4687(4) 0.7274(5) 0.1775(5)
C5QB C 0.7274(5) 0.6775(5) -0.0313(4)
C5GA C 0.6775(5) 0.7274(5) -0.0313(4)
C5PB C 0.7274(5) 0.3225(5) 0.0313(4)
C5IA C 0.6775(5) 0.2726(5) 0.0313(4)
C5B C 0.4687(4) 0.3225(5) -0.2274(5)
C5PA C 0.4687(4) 0.2726(5) -0.1775(5)
C5C C 0.5313(4) 0.6775(5) -0.2274(5)
C5NA C 0.5313(4) 0.7274(5) -0.1775(5)
C5SB C 0.2726(5) 0.6775(5) 0.0313(4)
C5FA C 0.3225(5) 0.7274(5) 0.0313(4)
C5HA C 0.3225(5) 0.2726(5) -0.0313(4)
C5RB C 0.2726(5) 0.3225(5) -0.0313(4)
C5QA C 0.5313(4) 0.2726(5) 0.1775(5)
H3L H 0.3340 0.5418 0.2512
H3CB H 0.2488 0.5418 0.1660
H3BB H 0.2488 0.4582 -0.1660
H3N H 0.3340 0.4582 -0.2512
H3O H 0.6660 0.5418 -0.2512
H3ZA H 0.7512 0.5418 -0.1660
H3AB H 0.7512 0.4582 0.1660
H3M H 0.6660 0.4582 0.2512
H3A H 0.4582 0.6660 0.2512
H3OA H 0.4582 0.7512 0.1660
H3QB H 0.7512 0.6660 -0.0418
H3GA H 0.6660 0.7512 -0.0418
H3PB H 0.7512 0.3340 0.0418
H3IA H 0.6660 0.2488 0.0418
H3B H 0.4582 0.3340 -0.2512
H3PA H 0.4582 0.2488 -0.1660
H3C H 0.5418 0.6660 -0.2512
H3NA H 0.5418 0.7512 -0.1660
H3SB H 0.2488 0.6660 0.0418
H3FA H 0.3340 0.7512 0.0418
H3HA H 0.3340 0.2488 -0.0418
H3RB H 0.2488 0.3340 -0.0418
H3QA H 0.5418 0.2488 0.1660
C6L C 0.2903(5) 0.5520(6) 0.2097(5)
C6N C 0.2903(5) 0.4480(6) -0.2097(5)
C6O C 0.7097(5) 0.5520(6) -0.2097(5)
C6M C 0.7097(5) 0.4480(6) 0.2097(5)
C6A C 0.4480(6) 0.7097(5) 0.2097(5)
C6GA C 0.7097(5) 0.7097(5) -0.0520(6)
C6IA C 0.7097(5) 0.2903(5) 0.0520(6)
C6B C 0.4480(6) 0.2903(5) -0.2097(5)
C6C C 0.5520(6) 0.7097(5) -0.2097(5)
C6FA C 0.2903(5) 0.7097(5) 0.0520(6)
C6HA C 0.2903(5) 0.2903(5) -0.0520(6)
H4L H 0.2813 0.5775 0.2187
H4N H 0.2813 0.4225 -0.2187
H4O H 0.7187 0.5775 -0.2187
H4M H 0.7187 0.4225 0.2187
H4A H 0.4225 0.7187 0.2187
H4GA H 0.7187 0.7187 -0.0775
H4IA H 0.7187 0.2813 0.0775
H4B H 0.4225 0.2813 -0.2187
H4C H 0.5775 0.7187 -0.2187
H4FA H 0.2813 0.7187 0.0775
H4HA H 0.2813 0.2813 -0.0775
loop_
_geom_bond_atom_site_label_1
_geom_bond_atom_site_label_2
_geom_bond_site_symmetry_1
_geom_bond_site_symmetry_2
Fe1 O1 1_555 1_555
S1 O2 1_555 1_555
O1 Fe1L 1_555 1_555
O2 Fe1 1_555 1_555
O3 Fe1 1_555 1_555
N1 Fe1 1_555 1_555
O4 S1 1_555 1_555
C1 C2 1_555 1_555
C2 O3 1_555 1_555
C3 C1 1_555 1_555
H1 C3 1_555 1_555
O5 S1 1_555 1_555
C4 N1 1_555 1_555
H2 C4 1_555 1_555
C5 C4 1_555 1_555
H3 C5 1_555 1_555
C6 C5 1_555 1_555
H4 C6 1_555 1_555
Fe1L O2L 1_555 1_555
Fe1HA O1 1_555 1_555
Fe1N O1C 1_555 1_555
Fe1FA O1C 1_555 1_555
Fe1C O1C 1_555 1_555
Fe1O O1B 1_555 1_555
Fe1B O1B 1_555 1_555
Fe1IA O1B 1_555 1_555
Fe1M O1A 1_555 1_555
Fe1GA O1A 1_555 1_555
Fe1A O1A 1_555 1_555
S1HA O2QA 1_555 1_555
S1CB O2RB 1_555 1_555
S1BB O2SB 1_555 1_555
S1C O2N 1_555 1_555
S1FA O2NA 1_555 1_555
S1B O2B 1_555 1_555
S1ZA O2ZA 1_555 1_555
S1IA O2IA 1_555 1_555
S1AB O2QB 1_555 1_555
S1A O2M 1_555 1_555
S1GA O2OA 1_555 1_555
O2L S1 1_555 1_555
O2QA Fe1 1_555 1_555
O2HA Fe1HA 1_555 1_555
O2RB Fe1HA 1_555 1_555
O2CB Fe1L 1_555 1_555
O2SB Fe1FA 1_555 1_555
O2BB Fe1N 1_555 1_555
O2N Fe1N 1_555 1_555
O2C Fe1C 1_555 1_555
O2NA Fe1C 1_555 1_555
O2FA Fe1FA 1_555 1_555
O2B Fe1B 1_555 1_555
O2O Fe1O 1_555 1_555
O2ZA Fe1O 1_555 1_555
O2PB Fe1IA 1_555 1_555
O2IA Fe1IA 1_555 1_555
O2PA Fe1B 1_555 1_555
O2QB Fe1GA 1_555 1_555
O2AB Fe1M 1_555 1_555
O2M Fe1M 1_555 1_555
O2A Fe1A 1_555 1_555
O2OA Fe1A 1_555 1_555
O2GA Fe1GA 1_555 1_555
O3L C2 1_555 1_555
O3QA Fe1 1_555 1_555
O3HA Fe1HA 1_555 1_555
O3RB Fe1HA 1_555 1_555
O3CB Fe1L 1_555 1_555
O3BB Fe1N 1_555 1_555
O3SB Fe1FA 1_555 1_555
O3FA Fe1FA 1_555 1_555
O3NA Fe1C 1_555 1_555
O3C Fe1C 1_555 1_555
O3N Fe1N 1_555 1_555
O3O Fe1O 1_555 1_555
O3B Fe1B 1_555 1_555
O3PA Fe1B 1_555 1_555
O3IA Fe1IA 1_555 1_555
O3PB Fe1IA 1_555 1_555
O3ZA Fe1O 1_555 1_555
O3AB Fe1M 1_555 1_555
O3QB Fe1GA 1_555 1_555
O3GA Fe1GA 1_555 1_555
O3OA Fe1A 1_555 1_555
O3A Fe1A 1_555 1_555
O3M Fe1M 1_555 1_555
N1L Fe1L 1_555 1_555
N1N Fe1N 1_555 1_555
N1O Fe1O 1_555 1_555
N1M Fe1M 1_555 1_555
N1A Fe1A 1_555 1_555
N1GA Fe1GA 1_555 1_555
N1IA Fe1IA 1_555 1_555
N1B Fe1B 1_555 1_555
N1C Fe1C 1_555 1_555
N1FA Fe1FA 1_555 1_555
N1HA Fe1HA 1_555 1_555
O4GA S1GA 1_555 1_555
O4A S1A 1_555 1_555
O4AB S1AB 1_555 1_555
O4IA S1IA 1_555 1_555
O4ZA S1ZA 1_555 1_555
O4B S1B 1_555 1_555
O4FA S1FA 1_555 1_555
O4C S1C 1_555 1_555
O4BB S1BB 1_555 1_555
O4CB S1CB 1_555 1_555
O4HA S1HA 1_555 1_555
C1CB C2CB 1_555 1_555
C1BB C2BB 1_555 1_555
C1C C2C 1_555 1_555
C1B C2B 1_555 1_555
C1ZA C2ZA 1_555 1_555
C1AB C2AB 1_555 1_555
C1A C2A 1_555 1_555
C1GA C2GA 1_555 1_555
C1FA C2FA 1_555 1_555
C1IA C2IA 1_555 1_555
C1HA C2HA 1_555 1_555
C2HA O3QA 1_555 1_555
C2CB O3RB 1_555 1_555
C2BB O3BB 1_555 1_555
C2FA O3FA 1_555 1_555
C2C O3C 1_555 1_555
C2B O3O 1_555 1_555
C2IA O3PA 1_555 1_555
C2ZA O3PB 1_555 1_555
C2AB O3AB 1_555 1_555
C2GA O3GA 1_555 1_555
C2A O3A 1_555 1_555
C3RB C1CB 1_555 1_555
C3BB C1BB 1_555 1_555
C3C C1C 1_555 1_555
C3O C1B 1_555 1_555
C3PB C1ZA 1_555 1_555
C3AB C1AB 1_555 1_555
C3A C1A 1_555 1_555
C3L C1 1_555 1_555
C3M C3 1_555 1_555
C3GA C1GA 1_555 1_555
C3NA C1FA 1_555 1_555
C3FA C1FA 1_555 1_555
C3OA C1GA 1_555 1_555
C3QB C1AB 1_555 1_555
C3ZA C1ZA 1_555 1_555
C3PA C1IA 1_555 1_555
C3HA C1HA 1_555 1_555
C3QA C1HA 1_555 1_555
C3IA C1IA 1_555 1_555
C3B C1B 1_555 1_555
C3N C1C 1_555 1_555
C3SB C1BB 1_555 1_555
C3CB C1CB 1_555 1_555
H1M C3M 1_555 1_555
H1L C3L 1_555 1_555
H1A C3A 1_555 1_555
H1OA C3OA 1_555 1_555
H1FA C3FA 1_555 1_555
H1NA C3NA 1_555 1_555
H1GA C3GA 1_555 1_555
H1ZA C3ZA 1_555 1_555
H1QB C3QB 1_555 1_555
H1AB C3AB 1_555 1_555
H1PB C3PB 1_555 1_555
H1IA C3IA 1_555 1_555
H1QA C3QA 1_555 1_555
H1HA C3HA 1_555 1_555
H1PA C3PA 1_555 1_555
H1N C3N 1_555 1_555
H1B C3B 1_555 1_555
H1O C3O 1_555 1_555
H1C C3C 1_555 1_555
H1CB C3CB 1_555 1_555
H1SB C3SB 1_555 1_555
H1BB C3BB 1_555 1_555
H1RB C3RB 1_555 1_555
O5GA S1GA 1_555 1_555
O5A S1A 1_555 1_555
O5AB S1AB 1_555 1_555
O5IA S1IA 1_555 1_555
O5ZA S1ZA 1_555 1_555
O5B S1B 1_555 1_555
O5FA S1FA 1_555 1_555
O5C S1C 1_555 1_555
O5BB S1BB 1_555 1_555
O5CB S1CB 1_555 1_555
O5HA S1HA 1_555 1_555
C4L N1L 1_555 1_555
C4CB N1L 1_555 1_555
C4BB N1N 1_555 1_555
C4N N1N 1_555 1_555
C4O N1O 1_555 1_555
C4ZA N1O 1_555 1_555
C4AB N1M 1_555 1_555
C4M N1M 1_555 1_555
C4A N1A 1_555 1_555
C4OA N1A 1_555 1_555
C4QB N1GA 1_555 1_555
C4GA N1GA 1_555 1_555
C4PB N1IA 1_555 1_555
C4IA N1IA 1_555 1_555
C4B N1B 1_555 1_555
C4PA N1B 1_555 1_555
C4C N1C 1_555 1_555
C4NA N1C 1_555 1_555
C4SB N1FA 1_555 1_555
C4FA N1FA 1_555 1_555
C4HA N1HA 1_555 1_555
C4RB N1HA 1_555 1_555
C4QA N1 1_555 1_555
H2L C4L 1_555 1_555
H2CB C4CB 1_555 1_555
H2BB C4BB 1_555 1_555
H2N C4N 1_555 1_555
H2O C4O 1_555 1_555
H2ZA C4ZA 1_555 1_555
H2AB C4AB 1_555 1_555
H2M C4M 1_555 1_555
H2A C4A 1_555 1_555
H2OA C4OA 1_555 1_555
H2QB C4QB 1_555 1_555
H2GA C4GA 1_555 1_555
H2PB C4PB 1_555 1_555
H2IA C4IA 1_555 1_555
H2B C4B 1_555 1_555
H2PA C4PA 1_555 1_555
H2C C4C 1_555 1_555
H2NA C4NA 1_555 1_555
H2SB C4SB 1_555 1_555
H2FA C4FA 1_555 1_555
H2HA C4HA 1_555 1_555
H2RB C4RB 1_555 1_555
H2QA C4QA 1_555 1_555
C5L C4L 1_555 1_555
C5CB C4CB 1_555 1_555
C5BB C4BB 1_555 1_555
C5N C4N 1_555 1_555
C5O C4O 1_555 1_555
C5ZA C4ZA 1_555 1_555
C5AB C4AB 1_555 1_555
C5M C4M 1_555 1_555
C5A C4A 1_555 1_555
C5OA C4OA 1_555 1_555
C5QB C4QB 1_555 1_555
C5GA C4GA 1_555 1_555
C5PB C4PB 1_555 1_555
C5IA C4IA 1_555 1_555
C5B C4B 1_555 1_555
C5PA C4PA 1_555 1_555
C5C C4C 1_555 1_555
C5NA C4NA 1_555 1_555
C5SB C4SB 1_555 1_555
C5FA C4FA 1_555 1_555
C5HA C4HA 1_555 1_555
C5RB C4RB 1_555 1_555
C5QA C6 1_555 1_555
H3L C5L 1_555 1_555
H3CB C5CB 1_555 1_555
H3BB C5BB 1_555 1_555
H3N C5N 1_555 1_555
H3O C5O 1_555 1_555
H3ZA C5ZA 1_555 1_555
H3AB C5AB 1_555 1_555
H3M C5M 1_555 1_555
H3A C5A 1_555 1_555
H3OA C5OA 1_555 1_555
H3QB C5QB 1_555 1_555
H3GA C5GA 1_555 1_555
H3PB C5PB 1_555 1_555
H3IA C5IA 1_555 1_555
H3B C5B 1_555 1_555
H3PA C5PA 1_555 1_555
H3C C5C 1_555 1_555
H3NA C5NA 1_555 1_555
H3SB C5SB 1_555 1_555
H3FA C5FA 1_555 1_555
H3HA C5HA 1_555 1_555
H3RB C5RB 1_555 1_555
H3QA C5QA 1_555 1_555
C6L C5L 1_555 1_555
C6N C5BB 1_555 1_555
C6O C5O 1_555 1_555
C6M C5AB 1_555 1_555
C6A C5A 1_555 1_555
C6GA C5QB 1_555 1_555
C6IA C5PB 1_555 1_555
C6B C5B 1_555 1_555
C6C C5C 1_555 1_555
C6FA C5SB 1_555 1_555
C6HA C5HA 1_555 1_555
H4L C6L 1_555 1_555
H4N C6N 1_555 1_555
H4O C6O 1_555 1_555
H4M C6M 1_555 1_555
H4A C6A 1_555 1_555
H4GA C6GA 1_555 1_555
H4IA C6IA 1_555 1_555
H4B C6B 1_555 1_555
H4C C6C 1_555 1_555
H4FA C6FA 1_555 1_555
H4HA C6HA 1_555 1_555
Fe1L O3L 1_555 1_555
S1HA O2HA 1_555 1_555
S1CB O2CB 1_555 1_555
S1BB O2BB 1_555 1_555
S1C O2C 1_555 1_555
S1FA O2FA 1_555 1_555
S1B O2O 1_555 1_555
S1ZA O2PB 1_555 1_555
S1IA O2PA 1_555 1_555
S1AB O2AB 1_555 1_555
S1A O2A 1_555 1_555
S1GA O2GA 1_555 1_555
O3HA C2HA 1_555 1_555
O3CB C2CB 1_555 1_555
O3SB C2BB 1_555 1_555
O3NA C2FA 1_555 1_555
O3N C2C 1_555 1_555
O3B C2B 1_555 1_555
O3IA C2IA 1_555 1_555
O3ZA C2ZA 1_555 1_555
O3QB C2AB 1_555 1_555
O3OA C2GA 1_555 1_555
O3M C2A 1_555 1_555
C1A C3M 1_555 1_555
C3RB C3BB 1_555 1_555
C3C C3O 1_555 1_555
C3PB C3AB 1_555 1_555
C3A C3L 1_555 1_555
C3GA C3NA 1_555 1_555
C3FA C3OA 1_555 1_555
C3QB C3ZA 1_555 1_555
C3PA C3HA 1_555 1_555
C3QA C3IA 1_555 1_555
C3B C3N 1_555 1_555
C3SB C3CB 1_555 1_555
C4QA C5QA 1_555 1_555
C5CB C6L 1_555 1_555
C5N C6N 1_555 1_555
C5ZA C6O 1_555 1_555
C5M C6M 1_555 1_555
C5OA C6A 1_555 1_555
C5GA C6GA 1_555 1_555
C5IA C6IA 1_555 1_555
C5PA C6B 1_555 1_555
C5NA C6C 1_555 1_555
C5FA C6FA 1_555 1_555
C5RB C6HA 1_555 1_555

#END
