# generated using pymatgen
data_Fe6H66C113S6N13O47
_symmetry_space_group_name_H-M   'P 1'
_cell_length_a   22.67100000
_cell_length_b   24.62867811
_cell_length_c   37.49628696
_cell_angle_alpha   80.50936980
_cell_angle_beta   72.40360399
_cell_angle_gamma   62.59636385
_symmetry_Int_Tables_number   1
_chemical_formula_structural   Fe6H66C113S6N13O47
_chemical_formula_sum   'Fe24 H264 C452 S24 N52 O188'
_cell_volume   17709.07097937
_cell_formula_units_Z   4
loop_
 _symmetry_equiv_pos_site_id
 _symmetry_equiv_pos_as_xyz
  1  'x, y, z'
loop_
 _atom_site_type_symbol
 _atom_site_label
 _atom_site_symmetry_multiplicity
 _atom_site_fract_x
 _atom_site_fract_y
 _atom_site_fract_z
 _atom_site_occupancy
  C  C1  1  0.183700  0.504500  0.500100  1
  C  C2  1  0.188300  0.995500  0.999900  1
  C  C3  1  0.816300  0.495500  0.499900  1
  C  C4  1  0.811700  0.004500  0.000100  1
  C  C5  1  0.207000  0.542000  0.510000  1
  C  C6  1  0.259000  0.958000  0.990000  1
  C  C7  1  0.793000  0.458000  0.490000  1
  C  C8  1  0.741000  0.042000  0.010000  1
  C  C9  1  0.175900  0.569200  0.545000  1
  C  C10  1  0.290100  0.930800  0.955000  1
  C  C11  1  0.824100  0.430800  0.455000  1
  C  C12  1  0.709900  0.069200  0.045000  1
  C  C13  1  0.121800  0.559000  0.569400  1
  C  C14  1  0.250200  0.941000  0.930600  1
  C  C15  1  0.878200  0.441000  0.430600  1
  C  C16  1  0.749800  0.059000  0.069400  1
  C  C17  1  0.099000  0.521000  0.559000  1
  C  C18  1  0.179000  0.979000  0.941000  1
  C  C19  1  0.901000  0.479000  0.441000  1
  C  C20  1  0.821000  0.021000  0.059000  1
  C  C21  1  0.000000  0.585800  0.206000  1
  C  C22  1  0.791800  0.914200  0.294000  1
  C  C23  1  1.000000  0.414200  0.794000  1
  C  C24  1  0.208200  0.085800  0.706000  1
  C  C25  1  0.975300  0.605000  0.174400  1
  C  C26  1  0.754700  0.895000  0.325600  1
  C  C27  1  0.024700  0.395000  0.825600  1
  C  C28  1  0.245300  0.105000  0.674400  1
  C  C29  1  0.913600  0.606000  0.174800  1
  C  C30  1  0.694400  0.894000  0.325200  1
  C  C31  1  0.086400  0.394000  0.825200  1
  C  C32  1  0.305600  0.106000  0.674800  1
  C  C33  1  0.876000  0.587600  0.207000  1
  C  C34  1  0.670600  0.912400  0.293000  1
  C  C35  1  0.124000  0.412400  0.793000  1
  C  C36  1  0.329400  0.087600  0.707000  1
  C  C37  1  0.900600  0.568000  0.238800  1
  C  C38  1  0.707400  0.932000  0.261200  1
  C  C39  1  0.099400  0.432000  0.761200  1
  C  C40  1  0.292600  0.068000  0.738800  1
  C  C41  1  0.244000  0.510200  0.157800  1
  C  C42  1  0.912000  0.989800  0.342200  1
  C  C43  1  0.756000  0.489800  0.842200  1
  C  C44  1  0.088000  0.010200  0.657800  1
  C  C45  1  0.198400  0.566200  0.145000  1
  C  C46  1  0.909600  0.933800  0.355000  1
  C  C47  1  0.801600  0.433800  0.855000  1
  C  C48  1  0.090400  0.066200  0.645000  1
  C  C49  1  0.179000  0.569000  0.113000  1
  C  C50  1  0.861000  0.931000  0.387000  1
  C  C51  1  0.821000  0.431000  0.887000  1
  C  C52  1  0.139000  0.069000  0.613000  1
  C  C53  1  0.205900  0.517000  0.092800  1
  C  C54  1  0.815700  0.983000  0.407200  1
  C  C55  1  0.794100  0.483000  0.907200  1
  C  C56  1  0.184300  0.017000  0.592800  1
  C  C57  1  0.252000  0.461000  0.105000  1
  C  C58  1  0.818000  0.039000  0.395000  1
  C  C59  1  0.748000  0.539000  0.895000  1
  C  C60  1  0.182000  0.961000  0.605000  1
  C  C61  1  0.836500  0.833100  0.182900  1
  C  C62  1  0.852500  0.666900  0.317100  1
  C  C63  1  0.163500  0.166900  0.817100  1
  C  C64  1  0.147500  0.333100  0.682900  1
  C  C65  1  0.845000  0.779000  0.171000  1
  C  C66  1  0.795000  0.721000  0.329000  1
  C  C67  1  0.155000  0.221000  0.829000  1
  C  C68  1  0.205000  0.279000  0.671000  1
  C  C69  1  0.837900  0.776200  0.136000  1
  C  C70  1  0.750100  0.723800  0.364000  1
  C  C71  1  0.162100  0.223800  0.864000  1
  C  C72  1  0.249900  0.276200  0.636000  1
  C  C73  1  0.822300  0.827300  0.112700  1
  C  C74  1  0.762300  0.672700  0.387300  1
  C  C75  1  0.177700  0.172700  0.887300  1
  C  C76  1  0.237700  0.327300  0.612700  1
  C  C77  1  0.814000  0.882000  0.124000  1
  C  C78  1  0.820000  0.618000  0.376000  1
  C  C79  1  0.186000  0.118000  0.876000  1
  C  C80  1  0.180000  0.382000  0.624000  1
  C  C81  1  0.464900  0.607200  0.077000  1
  C  C82  1  0.149100  0.892800  0.423000  1
  C  C83  1  0.535100  0.392800  0.923000  1
  C  C84  1  0.850900  0.107200  0.577000  1
  C  C85  1  0.450000  0.620000  0.114000  1
  C  C86  1  0.184000  0.880000  0.386000  1
  C  C87  1  0.550000  0.380000  0.886000  1
  C  C88  1  0.816000  0.120000  0.614000  1
  C  C89  1  0.385700  0.628600  0.138000  1
  C  C90  1  0.152300  0.871400  0.362000  1
  C  C91  1  0.614300  0.371400  0.862000  1
  C  C92  1  0.847700  0.128600  0.638000  1
  C  C93  1  0.336800  0.626400  0.124000  1
  C  C94  1  0.087200  0.873600  0.376000  1
  C  C95  1  0.663200  0.373600  0.876000  1
  C  C96  1  0.912800  0.126400  0.624000  1
  C  C97  1  0.351300  0.615000  0.087000  1
  C  C98  1  0.053300  0.885000  0.413000  1
  C  C99  1  0.648700  0.385000  0.913000  1
  C  C100  1  0.946700  0.115000  0.587000  1
  C  C101  1  0.948000  0.551600  0.966200  1
  C  C102  1  0.465800  0.948400  0.533800  1
  C  C103  1  0.052000  0.448400  0.033800  1
  C  C104  1  0.534200  0.051600  0.466200  1
  C  C105  1  0.956000  0.510100  0.905100  1
  C  C106  1  0.371200  0.989900  0.594900  1
  C  C107  1  0.044000  0.489900  0.094900  1
  C  C108  1  0.628800  0.010100  0.405100  1
  C  C109  1  0.721900  0.827500  0.847300  1
  C  C110  1  0.396700  0.672500  0.652700  1
  C  C111  1  0.278100  0.172500  0.152700  1
  C  C112  1  0.603300  0.327500  0.347300  1
  C  C113  1  0.756500  0.887600  0.851800  1
  C  C114  1  0.495900  0.612400  0.648200  1
  C  C115  1  0.243500  0.112400  0.148200  1
  C  C116  1  0.504100  0.387600  0.351800  1
  C  C117  1  0.631100  0.479100  0.154500  1.0
  C  C118  1  0.264700  0.020900  0.345500  1.0
  C  C119  1  0.368900  0.520900  0.845500  1.0
  C  C120  1  0.735300  0.979100  0.654500  1.0
  C  C121  1  0.624500  0.500400  0.120400  1.0
  C  C122  1  0.245300  0.999600  0.379600  1.0
  C  C123  1  0.375500  0.499600  0.879600  1.0
  C  C124  1  0.754700  0.000400  0.620400  1.0
  C  C125  1  0.578100  0.493600  0.110600  1.0
  C  C126  1  0.182300  0.006400  0.389400  1.0
  C  C127  1  0.421900  0.506400  0.889400  1.0
  C  C128  1  0.817700  0.993600  0.610600  1.0
  C  C129  1  0.463900  0.489000  0.127000  1.0
  C  C130  1  0.079900  0.011000  0.373000  1.0
  C  C131  1  0.536100  0.511000  0.873000  1.0
  C  C132  1  0.920100  0.989000  0.627000  1.0
  C  C133  1  0.427500  0.459800  0.145200  1.0
  C  C134  1  0.032500  0.040200  0.354800  1.0
  C  C135  1  0.572500  0.540200  0.854800  1.0
  C  C136  1  0.967500  0.959800  0.645200  1.0
  C  C137  1  0.381700  0.422000  0.210800  1.0
  C  C138  1  0.014500  0.078000  0.289200  1.0
  C  C139  1  0.618300  0.578000  0.789200  1.0
  C  C140  1  0.985500  0.922000  0.710800  1.0
  C  C141  1  0.386200  0.407800  0.246800  1.0
  C  C142  1  0.040800  0.092200  0.253200  1.0
  C  C143  1  0.613800  0.592200  0.753200  1.0
  C  C144  1  0.959200  0.907800  0.746800  1.0
  C  C145  1  0.442600  0.400400  0.257000  1.0
  C  C146  1  0.100000  0.099600  0.243000  1.0
  C  C147  1  0.557400  0.599600  0.743000  1.0
  C  C148  1  0.900000  0.900400  0.757000  1.0
  C  C149  1  0.553500  0.404800  0.240000  1.0
  C  C150  1  0.198300  0.095200  0.260000  1.0
  C  C151  1  0.446500  0.595200  0.760000  1.0
  C  C152  1  0.801700  0.904800  0.740000  1.0
  C  C153  1  0.601100  0.416000  0.214000  1.0
  C  C154  1  0.231100  0.084000  0.286000  1.0
  C  C155  1  0.398900  0.584000  0.786000  1.0
  C  C156  1  0.768900  0.916000  0.714000  1.0
  C  C157  1  0.587300  0.459600  0.180000  1.0
  C  C158  1  0.226900  0.040400  0.320000  1.0
  C  C159  1  0.412700  0.540400  0.820000  1.0
  C  C160  1  0.773100  0.959600  0.680000  1.0
  C  C161  1  0.531600  0.460100  0.169500  1.0
  C  C162  1  0.161200  0.039900  0.330500  1.0
  C  C163  1  0.468400  0.539900  0.830500  1.0
  C  C164  1  0.838800  0.960100  0.669500  1.0
  C  C165  1  0.522800  0.483200  0.134600  1.0
  C  C166  1  0.140600  0.016800  0.365400  1.0
  C  C167  1  0.477200  0.516800  0.865400  1.0
  C  C168  1  0.859400  0.983200  0.634600  1.0
  C  C169  1  0.428900  0.442100  0.187100  1.0
  C  C170  1  0.058100  0.057900  0.312900  1.0
  C  C171  1  0.571100  0.557900  0.812900  1.0
  C  C172  1  0.941900  0.942100  0.687100  1.0
  C  C173  1  0.482200  0.440300  0.198100  1.0
  C  C174  1  0.120600  0.059700  0.301900  1.0
  C  C175  1  0.517800  0.559700  0.801900  1.0
  C  C176  1  0.879400  0.940300  0.698100  1.0
  C  C177  1  0.487500  0.416200  0.233400  1.0
  C  C178  1  0.137100  0.083800  0.266600  1.0
  C  C179  1  0.512500  0.583800  0.766600  1.0
  C  C180  1  0.862900  0.916200  0.733400  1.0
  C  C181  1  0.672300  0.524300  0.093300  1.0
  C  C182  1  0.289900  0.975700  0.406700  1.0
  C  C183  1  0.327700  0.475700  0.906700  1.0
  C  C184  1  0.710100  0.024300  0.593300  1.0
  C  C185  1  0.332600  0.393300  0.274700  1.0
  C  C186  1  0.000600  0.106700  0.225300  1.0
  C  C187  1  0.667400  0.606700  0.725300  1.0
  C  C188  1  0.999400  0.893300  0.774700  1.0
  C  C189  1  0.726000  0.670300  0.121300  1.0
  C  C190  1  0.517600  0.829700  0.378700  1.0
  C  C191  1  0.274000  0.329700  0.878700  1.0
  C  C192  1  0.482400  0.170300  0.621300  1.0
  C  C193  1  0.702300  0.693400  0.160000  1.0
  C  C194  1  0.555700  0.806600  0.340000  1.0
  C  C195  1  0.297700  0.306600  0.840000  1.0
  C  C196  1  0.444300  0.193400  0.660000  1.0
  C  C197  1  0.707700  0.656300  0.189700  1.0
  C  C198  1  0.553700  0.843700  0.310300  1.0
  C  C199  1  0.292300  0.343700  0.810300  1.0
  C  C200  1  0.446300  0.156300  0.689700  1.0
  C  C201  1  0.682200  0.678100  0.224100  1.0
  C  C202  1  0.584400  0.821900  0.275900  1.0
  C  C203  1  0.317800  0.321900  0.775900  1.0
  C  C204  1  0.415600  0.178100  0.724100  1.0
  C  C205  1  0.652100  0.738700  0.229700  1.0
  C  C206  1  0.620500  0.761300  0.270300  1.0
  C  C207  1  0.347900  0.261300  0.770300  1.0
  C  C208  1  0.379500  0.238700  0.729700  1.0
  C  C209  1  0.649900  0.776500  0.199500  1.0
  C  C210  1  0.625900  0.723500  0.300500  1.0
  C  C211  1  0.350100  0.223500  0.800500  1.0
  C  C212  1  0.374100  0.276500  0.699500  1.0
  C  C213  1  0.674100  0.753200  0.165600  1.0
  C  C214  1  0.592900  0.746800  0.334400  1.0
  C  C215  1  0.325900  0.246800  0.834400  1.0
  C  C216  1  0.407100  0.253200  0.665600  1.0
  C  C217  1  0.678300  0.631200  0.264200  1.0
  C  C218  1  0.573700  0.868800  0.235800  1.0
  C  C219  1  0.321700  0.368800  0.735800  1.0
  C  C220  1  0.426300  0.131200  0.764200  1.0
  C  C221  1  0.609300  0.844700  0.204700  1.0
  C  C222  1  0.658700  0.655300  0.295300  1.0
  C  C223  1  0.390700  0.155300  0.795300  1.0
  C  C224  1  0.341300  0.344700  0.704700  1.0
  C  C225  1  0.597900  0.720300  0.042100  1.0
  C  C226  1  0.360300  0.779700  0.457900  1.0
  C  C227  1  0.402100  0.279700  0.957900  1.0
  C  C228  1  0.639700  0.220300  0.542100  1.0
  C  C229  1  0.525800  0.767000  0.049800  1.0
  C  C230  1  0.342600  0.733000  0.450200  1.0
  C  C231  1  0.474200  0.233000  0.950200  1.0
  C  C232  1  0.657400  0.267000  0.549800  1.0
  C  C233  1  0.474300  0.755300  0.046300  1.0
  C  C234  1  0.275900  0.744700  0.453700  1.0
  C  C235  1  0.525700  0.244700  0.953700  1.0
  C  C236  1  0.724100  0.255300  0.546300  1.0
  C  C237  1  0.407100  0.796300  0.056900  1.0
  C  C238  1  0.260300  0.703700  0.443100  1.0
  C  C239  1  0.592900  0.203700  0.943100  1.0
  C  C240  1  0.739700  0.296300  0.556900  1.0
  C  C241  1  0.387600  0.855300  0.067500  1.0
  C  C242  1  0.310400  0.644700  0.432500  1.0
  C  C243  1  0.612400  0.144700  0.932500  1.0
  C  C244  1  0.689600  0.355300  0.567500  1.0
  C  C245  1  0.439600  0.869500  0.070100  1.0
  C  C246  1  0.379200  0.630500  0.429900  1.0
  C  C247  1  0.560400  0.130500  0.929900  1.0
  C  C248  1  0.620800  0.369500  0.570100  1.0
  C  C249  1  0.508900  0.821600  0.061600  1.0
  C  C250  1  0.392100  0.678400  0.438400  1.0
  C  C251  1  0.491100  0.178400  0.938400  1.0
  C  C252  1  0.607900  0.321600  0.561600  1.0
  C  C253  1  0.412300  0.934800  0.084400  1.0
  C  C254  1  0.431500  0.565200  0.415600  1.0
  C  C255  1  0.587700  0.065200  0.915600  1.0
  C  C256  1  0.568500  0.434800  0.584400  1.0
  C  C257  1  0.347900  0.781300  0.052500  1.0
  C  C258  1  0.181700  0.718700  0.447500  1.0
  C  C259  1  0.652100  0.218700  0.947500  1.0
  C  C260  1  0.818300  0.281300  0.552500  1.0
  C  C261  1  0.283200  0.818400  0.070600  1.0
  C  C262  1  0.172200  0.681600  0.429400  1.0
  C  C263  1  0.716800  0.181600  0.929400  1.0
  C  C264  1  0.827800  0.318400  0.570600  1.0
  C  C265  1  0.108900  0.536700  0.305300  1.0
  C  C266  1  0.950900  0.963300  0.194700  1.0
  C  C267  1  0.891100  0.463300  0.694700  1.0
  C  C268  1  0.049100  0.036700  0.805300  1.0
  C  C269  1  0.081100  0.600500  0.288300  1.0
  C  C270  1  0.969900  0.899500  0.211700  1.0
  C  C271  1  0.918900  0.399500  0.711700  1.0
  C  C272  1  0.030100  0.100500  0.788300  1.0
  C  C273  1  0.039000  0.648600  0.308400  1.0
  C  C274  1  0.996000  0.851400  0.191600  1.0
  C  C275  1  0.961000  0.351400  0.691600  1.0
  C  C276  1  0.004000  0.148600  0.808400  1.0
  C  C277  1  0.018600  0.707600  0.292000  1.0
  C  C278  1  0.018200  0.792400  0.208000  1.0
  C  C279  1  0.981400  0.292400  0.708000  1.0
  C  C280  1  0.981800  0.207600  0.792000  1.0
  C  C281  1  0.034300  0.721900  0.257500  1.0
  C  C282  1  0.013700  0.778100  0.242500  1.0
  C  C283  1  0.965700  0.278100  0.742500  1.0
  C  C284  1  0.986300  0.221900  0.757500  1.0
  C  C285  1  0.071000  0.672500  0.236100  1.0
  C  C286  1  0.979600  0.827500  0.263900  1.0
  C  C287  1  0.929000  0.327500  0.763900  1.0
  C  C288  1  0.020400  0.172500  0.736100  1.0
  C  C289  1  0.096300  0.612000  0.250600  1.0
  C  C290  1  0.958900  0.888000  0.249400  1.0
  C  C291  1  0.903700  0.388000  0.749400  1.0
  C  C292  1  0.041100  0.112000  0.750600  1.0
  C  C293  1  0.091400  0.683500  0.195700  1.0
  C  C294  1  0.970600  0.816500  0.304300  1.0
  C  C295  1  0.908600  0.316500  0.804300  1.0
  C  C296  1  0.029400  0.183500  0.695700  1.0
  C  C297  1  0.976400  0.756900  0.316300  1.0
  C  C298  1  0.049600  0.743100  0.183700  1.0
  C  C299  1  0.023600  0.243100  0.683700  1.0
  C  C300  1  0.950400  0.256900  0.816300  1.0
  C  C301  1  0.249700  0.465000  0.386200  1.0
  C  C302  1  0.100900  0.035000  0.113800  1.0
  C  C303  1  0.750300  0.535000  0.613800  1.0
  C  C304  1  0.899100  0.965000  0.886200  1.0
  C  C305  1  0.266200  0.515200  0.402200  1.0
  C  C306  1  0.183600  0.984800  0.097800  1.0
  C  C307  1  0.733800  0.484800  0.597800  1.0
  C  C308  1  0.816400  0.015200  0.902200  1.0
  C  C309  1  0.329500  0.498600  0.404600  1.0
  C  C310  1  0.232700  0.001400  0.095400  1.0
  C  C311  1  0.670500  0.501400  0.595400  1.0
  C  C312  1  0.767300  0.998600  0.904600  1.0
  C  C313  1  0.341400  0.540000  0.415000  1.0
  C  C314  1  0.296400  0.960000  0.085000  1.0
  C  C315  1  0.658600  0.460000  0.585000  1.0
  C  C316  1  0.703600  0.040000  0.915000  1.0
  C  C317  1  0.315000  0.901200  0.077400  1.0
  C  C318  1  0.293600  0.598800  0.422600  1.0
  C  C319  1  0.685000  0.098800  0.922600  1.0
  C  C320  1  0.706400  0.401200  0.577400  1.0
  C  C321  1  0.267000  0.884700  0.078300  1.0
  C  C322  1  0.230000  0.615300  0.421700  1.0
  C  C323  1  0.733000  0.115300  0.921700  1.0
  C  C324  1  0.770000  0.384700  0.578300  1.0
  C  C325  1  0.208100  0.577200  0.412200  1.0
  C  C326  1  0.197500  0.922800  0.087800  1.0
  C  C327  1  0.791900  0.422800  0.587800  1.0
  C  C328  1  0.802500  0.077200  0.912200  1.0
  C  C329  1  0.351000  0.980800  0.080200  1.0
  C  C330  1  0.412000  0.519200  0.419800  1.0
  C  C331  1  0.649000  0.019200  0.919800  1.0
  C  C332  1  0.588000  0.480800  0.580200  1.0
  C  C333  1  0.870200  0.501800  0.141400  1.0
  C  C334  1  0.513400  0.998200  0.358600  1.0
  C  C335  1  0.129800  0.498200  0.858600  1.0
  C  C336  1  0.486600  0.001800  0.641400  1.0
  C  C337  1  0.901100  0.460800  0.167800  1.0
  C  C338  1  0.529700  0.039200  0.332200  1.0
  C  C339  1  0.098900  0.539200  0.832200  1.0
  C  C340  1  0.470300  0.960800  0.667800  1.0
  C  C341  1  0.905700  0.401900  0.171700  1.0
  C  C342  1  0.479300  0.098100  0.328300  1.0
  C  C343  1  0.094300  0.598100  0.828300  1.0
  C  C344  1  0.520700  0.901900  0.671700  1.0
  C  C345  1  0.879200  0.384300  0.149100  1.0
  C  C346  1  0.412600  0.115700  0.350900  1.0
  C  C347  1  0.120800  0.615700  0.850900  1.0
  C  C348  1  0.587400  0.884300  0.649100  1.0
  C  C349  1  0.848300  0.425300  0.122700  1.0
  C  C350  1  0.396300  0.074700  0.377300  1.0
  C  C351  1  0.151700  0.574700  0.877300  1.0
  C  C352  1  0.603700  0.925300  0.622700  1.0
  C  C353  1  0.712200  0.818600  0.000600  1.0
  C  C354  1  0.531400  0.681400  0.499400  1.0
  C  C355  1  0.287800  0.181400  0.999400  1.0
  C  C356  1  0.468600  0.318600  0.500600  1.0
  C  C357  1  0.707900  0.877400  0.993600  1.0
  C  C358  1  0.578900  0.622600  0.506400  1.0
  C  C359  1  0.292100  0.122600  0.006400  1.0
  C  C360  1  0.421100  0.377400  0.493600  1.0
  C  C361  1  0.731200  0.899800  0.015400  1.0
  C  C362  1  0.646400  0.600200  0.484600  1.0
  C  C363  1  0.268800  0.100200  0.984600  1.0
  C  C364  1  0.353600  0.399800  0.515400  1.0
  C  C365  1  0.758800  0.863600  0.044200  1.0
  C  C366  1  0.666600  0.636400  0.455800  1.0
  C  C367  1  0.241200  0.136400  0.955800  1.0
  C  C368  1  0.333400  0.363600  0.544200  1.0
  C  C369  1  0.763100  0.804800  0.051200  1.0
  C  C370  1  0.619100  0.695200  0.448800  1.0
  C  C371  1  0.236900  0.195200  0.948800  1.0
  C  C372  1  0.380900  0.304800  0.551200  1.0
  C  C373  1  0.634700  0.512500  0.999500  1.0
  C  C374  1  0.146700  0.987500  0.500500  1.0
  C  C375  1  0.365300  0.487500  0.000500  1.0
  C  C376  1  0.853300  0.012500  0.499500  1.0
  C  C377  1  0.592900  0.500800  0.984400  1.0
  C  C378  1  0.078100  0.999200  0.515600  1.0
  C  C379  1  0.407100  0.499200  0.015600  1.0
  C  C380  1  0.921900  0.000800  0.484400  1.0
  C  C381  1  0.549600  0.546900  0.964700  1.0
  C  C382  1  0.061200  0.953100  0.535300  1.0
  C  C383  1  0.450400  0.453100  0.035300  1.0
  C  C384  1  0.938800  0.046900  0.464700  1.0
  C  C385  1  0.548200  0.604600  0.960000  1.0
  C  C386  1  0.112800  0.895400  0.540000  1.0
  C  C387  1  0.451800  0.395400  0.040000  1.0
  C  C388  1  0.887200  0.104600  0.460000  1.0
  C  C389  1  0.590100  0.616300  0.975100  1.0
  C  C390  1  0.181500  0.883700  0.524900  1.0
  C  C391  1  0.409900  0.383700  0.024900  1.0
  C  C392  1  0.818500  0.116300  0.475100  1.0
  C  C393  1  0.235400  0.354900  0.209900  1.0
  C  C394  1  0.800200  0.145100  0.290100  1.0
  C  C395  1  0.764600  0.645100  0.790100  1.0
  C  C396  1  0.199800  0.854900  0.709900  1.0
  C  C397  1  0.228000  0.350700  0.175100  1.0
  C  C398  1  0.753800  0.149300  0.324900  1.0
  C  C399  1  0.772000  0.649300  0.824900  1.0
  C  C400  1  0.246200  0.850700  0.675100  1.0
  C  C401  1  0.166800  0.388900  0.165500  1.0
  C  C402  1  0.721200  0.111100  0.334500  1.0
  C  C403  1  0.833200  0.611100  0.834500  1.0
  C  C404  1  0.278800  0.888900  0.665500  1.0
  C  C405  1  0.113000  0.431600  0.190600  1.0
  C  C406  1  0.735200  0.068400  0.309400  1.0
  C  C407  1  0.887000  0.568400  0.809400  1.0
  C  C408  1  0.264800  0.931600  0.690600  1.0
  C  C409  1  0.120300  0.436000  0.225400  1.0
  C  C410  1  0.781700  0.064000  0.274600  1.0
  C  C411  1  0.879700  0.564000  0.774600  1.0
  C  C412  1  0.218300  0.936000  0.725400  1.0
  C  C413  1  0.378200  0.313700  0.404700  1.0
  C  C414  1  0.096600  0.186300  0.095300  1.0
  C  C415  1  0.621800  0.686300  0.595300  1.0
  C  C416  1  0.903400  0.813700  0.904700  1.0
  C  C417  1  0.437800  0.278400  0.416600  1.0
  C  C418  1  0.132800  0.221600  0.083400  1.0
  C  C419  1  0.562200  0.721600  0.583400  1.0
  C  C420  1  0.867200  0.778400  0.916600  1.0
  C  C421  1  0.495300  0.236000  0.393000  1.0
  C  C422  1  0.124300  0.264000  0.107000  1.0
  C  C423  1  0.504700  0.764000  0.607000  1.0
  C  C424  1  0.875700  0.736000  0.893000  1.0
  C  C425  1  0.493500  0.228500  0.357500  1.0
  C  C426  1  0.079500  0.271500  0.142500  1.0
  C  C427  1  0.506500  0.771500  0.642500  1.0
  C  C428  1  0.920500  0.728500  0.857500  1.0
  C  C429  1  0.433900  0.263900  0.345500  1.0
  C  C430  1  0.043300  0.236100  0.154500  1.0
  C  C431  1  0.566100  0.736100  0.654500  1.0
  C  C432  1  0.956700  0.763900  0.845500  1.0
  C  C433  1  0.971300  0.566400  0.401600  1.0
  C  C434  1  0.939300  0.933600  0.098400  1.0
  C  C435  1  0.028700  0.433600  0.598400  1.0
  C  C436  1  0.060700  0.066400  0.901600  1.0
  C  C437  1  0.916000  0.610600  0.425200  1.0
  C  C438  1  0.951800  0.889400  0.074800  1.0
  C  C439  1  0.084000  0.389400  0.574800  1.0
  C  C440  1  0.048200  0.110600  0.925200  1.0
  C  C441  1  0.920300  0.617600  0.460200  1.0
  C  C442  1  0.998100  0.882400  0.039800  1.0
  C  C443  1  0.079700  0.382400  0.539800  1.0
  C  C444  1  0.001900  0.117600  0.960200  1.0
  C  C445  1  0.979900  0.580100  0.471700  1.0
  C  C446  1  0.031700  0.919900  0.028300  1.0
  C  C447  1  0.020100  0.419900  0.528300  1.0
  C  C448  1  0.968300  0.080100  0.971700  1.0
  C  C449  1  0.035100  0.535900  0.448100  1.0
  C  C450  1  0.019100  0.964100  0.051900  1.0
  C  C451  1  0.964900  0.464100  0.551900  1.0
  C  C452  1  0.980900  0.035900  0.948100  1.0
  Fe  Fe453  1  0.794310  0.550190  0.079470  1.0
  Fe  Fe454  1  0.423970  0.949810  0.420530  1.0
  Fe  Fe455  1  0.205690  0.449810  0.920530  1.0
  Fe  Fe456  1  0.576030  0.050190  0.579470  1.0
  Fe  Fe457  1  0.745030  0.689410  0.038550  1.0
  Fe  Fe458  1  0.472990  0.810590  0.461450  1.0
  Fe  Fe459  1  0.254970  0.310590  0.961450  1.0
  Fe  Fe460  1  0.527010  0.189410  0.538550  1.0
  Fe  Fe461  1  0.695650  0.592000  0.020640  1.0
  Fe  Fe462  1  0.308290  0.908000  0.479360  1.0
  Fe  Fe463  1  0.304350  0.408000  0.979360  1.0
  Fe  Fe464  1  0.691710  0.092000  0.520640  1.0
  Fe  Fe465  1  0.189910  0.401540  0.292000  1.0
  Fe  Fe466  1  0.883450  0.098460  0.208000  1.0
  Fe  Fe467  1  0.810090  0.598460  0.708000  1.0
  Fe  Fe468  1  0.116550  0.901540  0.792000  1.0
  Fe  Fe469  1  0.283220  0.356290  0.354650  1.0
  Fe  Fe470  1  0.994160  0.143710  0.145350  1.0
  Fe  Fe471  1  0.716780  0.643710  0.645350  1.0
  Fe  Fe472  1  0.005840  0.856290  0.854650  1.0
  Fe  Fe473  1  0.120890  0.460660  0.376360  1.0
  Fe  Fe474  1  0.957910  0.039340  0.123640  1.0
  Fe  Fe475  1  0.879110  0.539340  0.623640  1.0
  Fe  Fe476  1  0.042090  0.960660  0.876360  1.0
  H  H477  1  0.668000  0.477400  0.161400  1.0
  H  H478  1  0.306800  0.022600  0.338600  1.0
  H  H479  1  0.332000  0.522600  0.838600  1.0
  H  H480  1  0.693200  0.977400  0.661400  1.0
  H  H481  1  0.581800  0.495700  0.085100  1.0
  H  H482  1  0.162600  0.004300  0.414900  1.0
  H  H483  1  0.418200  0.504300  0.914900  1.0
  H  H484  1  0.837400  0.995700  0.585100  1.0
  H  H485  1  0.432300  0.532500  0.128900  1.0
  H  H486  1  0.093700  0.967500  0.371100  1.0
  H  H487  1  0.567700  0.467500  0.871100  1.0
  H  H488  1  0.906300  0.032500  0.628900  1.0
  H  H489  1  0.476600  0.480000  0.100800  1.0
  H  H490  1  0.057400  0.020000  0.399200  1.0
  H  H491  1  0.523400  0.520000  0.899200  1.0
  H  H492  1  0.942600  0.980000  0.600800  1.0
  H  H493  1  0.444000  0.422700  0.132100  1.0
  H  H494  1  0.998800  0.077300  0.367900  1.0
  H  H495  1  0.556000  0.577300  0.867900  1.0
  H  H496  1  0.001200  0.922700  0.632100  1.0
  H  H497  1  0.380100  0.484900  0.144300  1.0
  H  H498  1  0.009300  0.015100  0.355700  1.0
  H  H499  1  0.619900  0.515100  0.855700  1.0
  H  H500  1  0.990700  0.984900  0.644300  1.0
  H  H501  1  0.348900  0.418600  0.202400  1.0
  H  H502  1  0.969900  0.081400  0.297600  1.0
  H  H503  1  0.651100  0.581400  0.797600  1.0
  H  H504  1  0.030100  0.918600  0.702400  1.0
  H  H505  1  0.448800  0.384100  0.280500  1.0
  H  H506  1  0.113400  0.115900  0.219500  1.0
  H  H507  1  0.551200  0.615900  0.719500  1.0
  H  H508  1  0.886600  0.884100  0.780500  1.0
  H  H509  1  0.542100  0.427900  0.261700  1.0
  H  H510  1  0.231700  0.072100  0.238300  1.0
  H  H511  1  0.457900  0.572100  0.738300  1.0
  H  H512  1  0.768300  0.927900  0.761700  1.0
  H  H513  1  0.575300  0.361800  0.247200  1.0
  H  H514  1  0.184300  0.138200  0.252800  1.0
  H  H515  1  0.424700  0.638200  0.752800  1.0
  H  H516  1  0.815700  0.861800  0.747200  1.0
  H  H517  1  0.636500  0.377200  0.204200  1.0
  H  H518  1  0.217900  0.122800  0.295800  1.0
  H  H519  1  0.363500  0.622800  0.795800  1.0
  H  H520  1  0.782100  0.877200  0.704200  1.0
  H  H521  1  0.621200  0.431600  0.227000  1.0
  H  H522  1  0.279800  0.068400  0.273000  1.0
  H  H523  1  0.378800  0.568400  0.773000  1.0
  H  H524  1  0.720200  0.931600  0.727000  1.0
  H  H525  1  0.729700  0.614200  0.186600  1.0
  H  H526  1  0.530500  0.885800  0.313400  1.0
  H  H527  1  0.270300  0.385800  0.813400  1.0
  H  H528  1  0.469500  0.114200  0.686600  1.0
  H  H529  1  0.671200  0.779700  0.144900  1.0
  H  H530  1  0.595800  0.720300  0.355100  1.0
  H  H531  1  0.328800  0.220300  0.855100  1.0
  H  H532  1  0.404200  0.279700  0.644900  1.0
  H  H533  1  0.647800  0.613700  0.264100  1.0
  H  H534  1  0.525600  0.886300  0.235900  1.0
  H  H535  1  0.352200  0.386300  0.735900  1.0
  H  H536  1  0.474400  0.113700  0.764100  1.0
  H  H537  1  0.723700  0.597700  0.262300  1.0
  H  H538  1  0.583700  0.902300  0.237700  1.0
  H  H539  1  0.276300  0.402300  0.737700  1.0
  H  H540  1  0.416300  0.097700  0.762300  1.0
  H  H541  1  0.641600  0.862100  0.194500  1.0
  H  H542  1  0.698200  0.637900  0.305500  1.0
  H  H543  1  0.358400  0.137900  0.805500  1.0
  H  H544  1  0.301800  0.362100  0.694500  1.0
  H  H545  1  0.578100  0.859200  0.188600  1.0
  H  H546  1  0.625900  0.640800  0.311400  1.0
  H  H547  1  0.421900  0.140800  0.811400  1.0
  H  H548  1  0.374100  0.359200  0.688600  1.0
  H  H549  1  0.485700  0.718300  0.036500  1.0
  H  H550  1  0.240500  0.781700  0.463500  1.0
  H  H551  1  0.514300  0.281700  0.963500  1.0
  H  H552  1  0.759500  0.218300  0.536500  1.0
  H  H553  1  0.543700  0.829200  0.064600  1.0
  H  H554  1  0.437500  0.670800  0.435400  1.0
  H  H555  1  0.456300  0.170800  0.935400  1.0
  H  H556  1  0.562500  0.329200  0.564600  1.0
  H  H557  1  0.409600  0.930400  0.111000  1.0
  H  H558  1  0.451000  0.569600  0.389000  1.0
  H  H559  1  0.590400  0.069600  0.889000  1.0
  H  H560  1  0.549000  0.430400  0.611000  1.0
  H  H561  1  0.447300  0.949000  0.072400  1.0
  H  H562  1  0.468700  0.551000  0.427600  1.0
  H  H563  1  0.552700  0.051000  0.927600  1.0
  H  H564  1  0.531300  0.449000  0.572400  1.0
  H  H565  1  0.350200  0.783300  0.026100  1.0
  H  H566  1  0.159600  0.716700  0.473900  1.0
  H  H567  1  0.649800  0.216700  0.973900  1.0
  H  H568  1  0.840400  0.283300  0.526100  1.0
  H  H569  1  0.357400  0.739600  0.061600  1.0
  H  H570  1  0.158600  0.760400  0.438400  1.0
  H  H571  1  0.642600  0.260400  0.938400  1.0
  H  H572  1  0.841400  0.239600  0.561600  1.0
  H  H573  1  0.271500  0.798500  0.094500  1.0
  H  H574  1  0.164500  0.701500  0.405500  1.0
  H  H575  1  0.728500  0.201500  0.905500  1.0
  H  H576  1  0.835500  0.298500  0.594500  1.0
  H  H577  1  0.252800  0.821200  0.056200  1.0
  H  H578  1  0.130200  0.678800  0.443800  1.0
  H  H579  1  0.747200  0.178800  0.943800  1.0
  H  H580  1  0.869800  0.321200  0.556200  1.0
  H  H581  1  0.022200  0.643600  0.334000  1.0
  H  H582  1  0.999800  0.856400  0.166000  1.0
  H  H583  1  0.977800  0.356400  0.666000  1.0
  H  H584  1  0.000200  0.143600  0.834000  1.0
  H  H585  1  0.123500  0.579700  0.234300  1.0
  H  H586  1  0.937500  0.920300  0.265700  1.0
  H  H587  1  0.876500  0.420300  0.765700  1.0
  H  H588  1  0.062500  0.079700  0.734300  1.0
  H  H589  1  0.138500  0.677300  0.188300  1.0
  H  H590  1  0.004100  0.822700  0.311700  1.0
  H  H591  1  0.861500  0.322700  0.811700  1.0
  H  H592  1  0.995900  0.177300  0.688300  1.0
  H  H593  1  0.088200  0.653900  0.182900  1.0
  H  H594  1  0.925000  0.846100  0.317100  1.0
  H  H595  1  0.911800  0.346100  0.817100  1.0
  H  H596  1  0.075000  0.153900  0.682900  1.0
  H  H597  1  0.992500  0.746400  0.338800  1.0
  H  H598  1  0.077700  0.753600  0.161200  1.0
  H  H599  1  0.007500  0.253600  0.661200  1.0
  H  H600  1  0.922300  0.246400  0.838800  1.0
  H  H601  1  0.930400  0.759300  0.323500  1.0
  H  H602  1  0.013200  0.740700  0.176500  1.0
  H  H603  1  0.069600  0.240700  0.676500  1.0
  H  H604  1  0.986800  0.259300  0.823500  1.0
  H  H605  1  0.363800  0.459200  0.399200  1.0
  H  H606  1  0.222200  0.040800  0.100800  1.0
  H  H607  1  0.636200  0.540800  0.600800  1.0
  H  H608  1  0.777800  0.959200  0.899200  1.0
  H  H609  1  0.163000  0.588300  0.412100  1.0
  H  H610  1  0.163400  0.911700  0.087900  1.0
  H  H611  1  0.837000  0.411700  0.587900  1.0
  H  H612  1  0.836600  0.088300  0.912100  1.0
  H  H613  1  0.358400  0.999600  0.055400  1.0
  H  H614  1  0.413400  0.500400  0.444600  1.0
  H  H615  1  0.641600  0.000400  0.944600  1.0
  H  H616  1  0.586600  0.499600  0.555400  1.0
  H  H617  1  0.334800  0.011700  0.098300  1.0
  H  H618  1  0.444800  0.488300  0.401700  1.0
  H  H619  1  0.665200  0.988300  0.901700  1.0
  H  H620  1  0.555200  0.511700  0.598300  1.0
  H  H621  1  0.867200  0.541200  0.138800  1.0
  H  H622  1  0.547200  0.958800  0.361200  1.0
  H  H623  1  0.132800  0.458800  0.861200  1.0
  H  H624  1  0.452800  0.041200  0.638800  1.0
  H  H625  1  0.918900  0.472500  0.182900  1.0
  H  H626  1  0.574300  0.027500  0.317100  1.0
  H  H627  1  0.081100  0.527500  0.817100  1.0
  H  H628  1  0.425700  0.972500  0.682900  1.0
  H  H629  1  0.926400  0.374500  0.189300  1.0
  H  H630  1  0.490200  0.125500  0.310700  1.0
  H  H631  1  0.073600  0.625500  0.810700  1.0
  H  H632  1  0.509800  0.874500  0.689300  1.0
  H  H633  1  0.882200  0.344900  0.151700  1.0
  H  H634  1  0.378800  0.155100  0.348300  1.0
  H  H635  1  0.117800  0.655100  0.848300  1.0
  H  H636  1  0.621200  0.844900  0.651700  1.0
  H  H637  1  0.830500  0.413500  0.107700  1.0
  H  H638  1  0.351700  0.086500  0.392300  1.0
  H  H639  1  0.169500  0.586500  0.892300  1.0
  H  H640  1  0.648300  0.913500  0.607700  1.0
  H  H641  1  0.696600  0.803600  0.986000  1.0
  H  H642  1  0.486200  0.696400  0.514000  1.0
  H  H643  1  0.303400  0.196400  0.014000  1.0
  H  H644  1  0.513800  0.303600  0.486000  1.0
  H  H645  1  0.689500  0.901700  0.974300  1.0
  H  H646  1  0.565500  0.598300  0.525700  1.0
  H  H647  1  0.310500  0.098300  0.025700  1.0
  H  H648  1  0.434500  0.401700  0.474300  1.0
  H  H649  1  0.728400  0.939100  0.010700  1.0
  H  H650  1  0.678200  0.560900  0.489300  1.0
  H  H651  1  0.271600  0.060900  0.989300  1.0
  H  H652  1  0.321800  0.439100  0.510700  1.0
  H  H653  1  0.774400  0.878600  0.058800  1.0
  H  H654  1  0.711800  0.621400  0.441200  1.0
  H  H655  1  0.225600  0.121400  0.941200  1.0
  H  H656  1  0.288200  0.378600  0.558800  1.0
  H  H657  1  0.781600  0.780500  0.070500  1.0
  H  H658  1  0.632600  0.719500  0.429500  1.0
  H  H659  1  0.218400  0.219500  0.929500  1.0
  H  H660  1  0.367400  0.280500  0.570500  1.0
  H  H661  1  0.663700  0.481700  0.012700  1.0
  H  H662  1  0.158100  0.018300  0.487300  1.0
  H  H663  1  0.336300  0.518300  0.987300  1.0
  H  H664  1  0.841900  0.981700  0.512700  1.0
  H  H665  1  0.593800  0.462300  0.987500  1.0
  H  H666  1  0.043600  0.037700  0.512500  1.0
  H  H667  1  0.406200  0.537700  0.012500  1.0
  H  H668  1  0.956400  0.962300  0.487500  1.0
  H  H669  1  0.521600  0.539000  0.954600  1.0
  H  H670  1  0.015200  0.961000  0.545400  1.0
  H  H671  1  0.478400  0.461000  0.045400  1.0
  H  H672  1  0.984800  0.039000  0.454600  1.0
  H  H673  1  0.519300  0.635400  0.946800  1.0
  H  H674  1  0.101500  0.864600  0.553200  1.0
  H  H675  1  0.480700  0.364600  0.053200  1.0
  H  H676  1  0.898500  0.135400  0.446800  1.0
  H  H677  1  0.589200  0.654900  0.971900  1.0
  H  H678  1  0.216000  0.845100  0.528100  1.0
  H  H679  1  0.410800  0.345100  0.028100  1.0
  H  H680  1  0.784000  0.154900  0.471900  1.0
  H  H681  1  0.276300  0.329200  0.216400  1.0
  H  H682  1  0.821900  0.170800  0.283600  1.0
  H  H683  1  0.723700  0.670800  0.783600  1.0
  H  H684  1  0.178100  0.829200  0.716400  1.0
  H  H685  1  0.264000  0.322100  0.158300  1.0
  H  H686  1  0.744400  0.177900  0.341700  1.0
  H  H687  1  0.736000  0.677900  0.841700  1.0
  H  H688  1  0.255600  0.822100  0.658300  1.0
  H  H689  1  0.161900  0.386000  0.142200  1.0
  H  H690  1  0.690100  0.114000  0.357800  1.0
  H  H691  1  0.838100  0.614000  0.857800  1.0
  H  H692  1  0.309900  0.886000  0.642200  1.0
  H  H693  1  0.072100  0.457300  0.184100  1.0
  H  H694  1  0.713500  0.042700  0.315900  1.0
  H  H695  1  0.927900  0.542700  0.815900  1.0
  H  H696  1  0.286500  0.957300  0.684100  1.0
  H  H697  1  0.084400  0.464400  0.242200  1.0
  H  H698  1  0.791000  0.035600  0.257800  1.0
  H  H699  1  0.915600  0.535600  0.757800  1.0
  H  H700  1  0.209000  0.964400  0.742200  1.0
  H  H701  1  0.339800  0.342100  0.420500  1.0
  H  H702  1  0.102400  0.157900  0.079500  1.0
  H  H703  1  0.660200  0.657900  0.579500  1.0
  H  H704  1  0.897600  0.842100  0.920500  1.0
  H  H705  1  0.439000  0.283400  0.440400  1.0
  H  H706  1  0.162800  0.216600  0.059600  1.0
  H  H707  1  0.561000  0.716600  0.559600  1.0
  H  H708  1  0.837200  0.783400  0.940400  1.0
  H  H709  1  0.535100  0.212400  0.401000  1.0
  H  H710  1  0.148500  0.287600  0.099000  1.0
  H  H711  1  0.464900  0.787600  0.599000  1.0
  H  H712  1  0.851500  0.712400  0.901000  1.0
  H  H713  1  0.532000  0.200100  0.341700  1.0
  H  H714  1  0.073800  0.299900  0.158300  1.0
  H  H715  1  0.468000  0.799900  0.658300  1.0
  H  H716  1  0.926200  0.700100  0.841700  1.0
  H  H717  1  0.432700  0.258800  0.321800  1.0
  H  H718  1  0.013300  0.241200  0.178200  1.0
  H  H719  1  0.567300  0.741200  0.678200  1.0
  H  H720  1  0.986700  0.758800  0.821800  1.0
  H  H721  1  0.968400  0.561900  0.378100  1.0
  H  H722  1  0.908400  0.938100  0.121900  1.0
  H  H723  1  0.031600  0.438100  0.621900  1.0
  H  H724  1  0.091600  0.061900  0.878100  1.0
  H  H725  1  0.876200  0.635700  0.417500  1.0
  H  H726  1  0.929400  0.864300  0.082500  1.0
  H  H727  1  0.123800  0.364300  0.582500  1.0
  H  H728  1  0.070600  0.135700  0.917500  1.0
  H  H729  1  0.883300  0.647200  0.476000  1.0
  H  H730  1  0.006500  0.852800  0.024000  1.0
  H  H731  1  0.116700  0.352800  0.524000  1.0
  H  H732  1  0.993500  0.147200  0.976000  1.0
  H  H733  1  0.982700  0.584800  0.495200  1.0
  H  H734  1  0.062700  0.915200  0.004800  1.0
  H  H735  1  0.017300  0.415200  0.504800  1.0
  H  H736  1  0.937300  0.084800  0.995200  1.0
  H  H737  1  0.075000  0.510800  0.455800  1.0
  H  H738  1  0.041600  0.989200  0.044200  1.0
  H  H739  1  0.925000  0.489200  0.544200  1.0
  H  H740  1  0.958400  0.010800  0.955800  1.0
  N  N741  1  0.130500  0.494000  0.525000  1
  N  N742  1  0.149500  0.006000  0.975000  1
  N  N743  1  0.869500  0.506000  0.475000  1
  N  N744  1  0.850500  0.994000  0.025000  1
  N  N745  1  0.962200  0.567200  0.238400  1
  N  N746  1  0.767800  0.932800  0.261600  1
  N  N747  1  0.037800  0.432800  0.761600  1
  N  N748  1  0.232200  0.067200  0.738400  1
  N  N749  1  0.270000  0.458000  0.138000  1
  N  N750  1  0.866000  0.042000  0.362000  1
  N  N751  1  0.730000  0.542000  0.862000  1
  N  N752  1  0.134000  0.958000  0.638000  1
  N  N753  1  0.820600  0.885400  0.159000  1
  N  N754  1  0.865000  0.614600  0.341000  1
  N  N755  1  0.179400  0.114600  0.841000  1
  N  N756  1  0.135000  0.385400  0.659000  1
  N  N757  1  0.416000  0.604900  0.063100  1
  N  N758  1  0.084000  0.895100  0.436900  1
  N  N759  1  0.584000  0.395100  0.936900  1
  N  N760  1  0.916000  0.104900  0.563100  1
  N  N761  1  0.920600  0.522100  0.948300  1
  N  N762  1  0.391000  0.977900  0.551700  1
  N  N763  1  0.079400  0.477900  0.051700  1
  N  N764  1  0.609000  0.022100  0.448300  1
  N  N765  1  0.714400  0.851500  0.885100  1
  N  N766  1  0.451000  0.648500  0.614900  1
  N  N767  1  0.285600  0.148500  0.114900  1
  N  N768  1  0.549000  0.351500  0.385100  1
  N  N769  1  0.843700  0.484100  0.118900  1.0
  N  N770  1  0.446700  0.015900  0.381100  1.0
  N  N771  1  0.156300  0.515900  0.881100  1.0
  N  N772  1  0.553300  0.984100  0.618900  1.0
  N  N773  1  0.739800  0.782400  0.029400  1.0
  N  N774  1  0.551600  0.717600  0.470600  1.0
  N  N775  1  0.260200  0.217600  0.970600  1.0
  N  N776  1  0.448400  0.282400  0.529400  1.0
  N  N777  1  0.633400  0.570200  0.994800  1.0
  N  N778  1  0.198400  0.929800  0.505200  1.0
  N  N779  1  0.366600  0.429800  0.005200  1.0
  N  N780  1  0.801600  0.070200  0.494800  1.0
  N  N781  1  0.181500  0.397600  0.235000  1.0
  N  N782  1  0.814100  0.102400  0.265000  1.0
  N  N783  1  0.818500  0.602400  0.765000  1.0
  N  N784  1  0.185900  0.897600  0.735000  1.0
  N  N785  1  0.376400  0.306300  0.369100  1.0
  N  N786  1  0.051800  0.193700  0.130900  1.0
  N  N787  1  0.623600  0.693700  0.630900  1.0
  N  N788  1  0.948200  0.806300  0.869100  1.0
  N  N789  1  0.030900  0.528900  0.413100  1.0
  N  N790  1  0.972900  0.971100  0.086900  1.0
  N  N791  1  0.969100  0.471100  0.586900  1.0
  N  N792  1  0.027100  0.028900  0.913100  1.0
  O  O793  1  0.247300  0.582200  0.311200  1
  O  O794  1  0.140700  0.917800  0.188800  1
  O  O795  1  0.752700  0.417800  0.688800  1
  O  O796  1  0.859300  0.082200  0.811200  1
  O  O797  1  0.991100  0.305400  0.037200  1
  O  O798  1  0.333700  0.194600  0.462800  1
  O  O799  1  0.008900  0.694600  0.962800  1
  O  O800  1  0.666300  0.805400  0.537200  1
  O  O801  1  0.475000  0.868400  0.955600  1
  O  O802  1  0.299000  0.631600  0.544400  1
  O  O803  1  0.525000  0.131600  0.044400  1
  O  O804  1  0.701000  0.368400  0.455600  1
  O  O805  1  0.546200  0.879800  0.961800  1
  O  O806  1  0.387800  0.620200  0.538200  1
  O  O807  1  0.453800  0.120200  0.038200  1
  O  O808  1  0.612200  0.379800  0.461800  1
  O  O809  1  0.827600  0.478600  0.348200  1
  O  O810  1  0.654400  0.021400  0.151800  1
  O  O811  1  0.172400  0.521400  0.651800  1
  O  O812  1  0.345600  0.978600  0.848200  1
  O  O813  1  0.994600  0.708900  0.021900  1
  O  O814  1  0.725400  0.791100  0.478100  1
  O  O815  1  0.005400  0.291100  0.978100  1
  O  O816  1  0.274600  0.208900  0.521900  1
  O  O817  1  0.158400  0.252100  0.383100  1
  O  O818  1  0.793600  0.247900  0.116900  1
  O  O819  1  0.841600  0.747900  0.616900  1
  O  O820  1  0.206400  0.752100  0.883100  1
  O  O821  1  0.266100  0.566600  0.271200  1
  O  O822  1  0.103900  0.933400  0.228800  1
  O  O823  1  0.733900  0.433400  0.728800  1
  O  O824  1  0.896100  0.066600  0.771200  1
  O  O825  1  0.425900  0.941100  0.959100  1
  O  O826  1  0.326100  0.558900  0.540900  1
  O  O827  1  0.574100  0.058900  0.040900  1
  O  O828  1  0.673900  0.441100  0.459100  1
  O  O829  1  0.746800  0.609700  0.044900  1.0
  O  O830  1  0.401400  0.890300  0.455100  1.0
  O  O831  1  0.253200  0.390300  0.955100  1.0
  O  O832  1  0.598600  0.109700  0.544900  1.0
  O  O833  1  0.197400  0.405200  0.341400  1.0
  O  O834  1  0.944000  0.094800  0.158600  1.0
  O  O835  1  0.802600  0.594800  0.658600  1.0
  O  O836  1  0.056000  0.905200  0.841400  1.0
  O  O837  1  0.879800  0.561500  0.064500  1.0
  O  O838  1  0.505800  0.938500  0.435500  1.0
  O  O839  1  0.120200  0.438500  0.935500  1.0
  O  O840  1  0.494200  0.061500  0.564500  1.0
  O  O841  1  0.842800  0.663900  0.036700  1.0
  O  O842  1  0.543400  0.836100  0.463300  1.0
  O  O843  1  0.157200  0.336100  0.963300  1.0
  O  O844  1  0.456600  0.163900  0.536700  1.0
  O  O845  1  0.876800  0.643900  0.094300  1.0
  O  O846  1  0.615000  0.856100  0.405700  1.0
  O  O847  1  0.123200  0.356100  0.905700  1.0
  O  O848  1  0.385000  0.143900  0.594300  1.0
  O  O849  1  0.959300  0.604300  0.036700  1.0
  O  O850  1  0.600300  0.895700  0.463300  1.0
  O  O851  1  0.040700  0.395700  0.963300  1.0
  O  O852  1  0.399700  0.104300  0.536700  1.0
  O  O853  1  0.771000  0.688200  0.983000  1.0
  O  O854  1  0.442200  0.811800  0.517000  1.0
  O  O855  1  0.229000  0.311800  0.017000  1.0
  O  O856  1  0.557800  0.188200  0.483000  1.0
  O  O857  1  0.716900  0.630700  0.971900  1.0
  O  O858  1  0.319500  0.869300  0.528100  1.0
  O  O859  1  0.283100  0.369300  0.028100  1.0
  O  O860  1  0.680500  0.130700  0.471900  1.0
  O  O861  1  0.707600  0.722400  0.936800  1.0
  O  O862  1  0.366800  0.777600  0.563200  1.0
  O  O863  1  0.292400  0.277600  0.063200  1.0
  O  O864  1  0.633200  0.222400  0.436800  1.0
  O  O865  1  0.810100  0.635200  0.926800  1.0
  O  O866  1  0.372100  0.864800  0.573200  1.0
  O  O867  1  0.189900  0.364800  0.073200  1.0
  O  O868  1  0.627900  0.135200  0.426800  1.0
  O  O869  1  0.770700  0.513400  0.002000  1.0
  O  O870  1  0.286100  0.986600  0.498000  1.0
  O  O871  1  0.229300  0.486600  0.998000  1.0
  O  O872  1  0.713900  0.013400  0.502000  1.0
  O  O873  1  0.841000  0.481900  0.045300  1.0
  O  O874  1  0.368200  0.018100  0.454700  1.0
  O  O875  1  0.159000  0.518100  0.954700  1.0
  O  O876  1  0.631800  0.981900  0.545300  1.0
  O  O877  1  0.789200  0.418900  0.038300  1.0
  O  O878  1  0.246400  0.081100  0.461700  1.0
  O  O879  1  0.210800  0.581100  0.961700  1.0
  O  O880  1  0.753600  0.918900  0.538300  1.0
  O  O881  1  0.882000  0.428600  0.987600  1.0
  O  O882  1  0.298200  0.071400  0.512400  1.0
  O  O883  1  0.118000  0.571400  0.012400  1.0
  O  O884  1  0.701800  0.928600  0.487600  1.0
  O  O885  1  0.099500  0.402000  0.307600  1.0
  O  O886  1  0.809100  0.098000  0.192400  1.0
  O  O887  1  0.900500  0.598000  0.692400  1.0
  O  O888  1  0.190900  0.902000  0.807600  1.0
  O  O889  1  0.049900  0.442000  0.369200  1.0
  O  O890  1  0.861100  0.058000  0.130800  1.0
  O  O891  1  0.950100  0.558000  0.630800  1.0
  O  O892  1  0.138900  0.942000  0.869200  1.0
  O  O893  1  0.991800  0.496200  0.319600  1.0
  O  O894  1  0.807600  0.003800  0.180400  1.0
  O  O895  1  0.008200  0.503800  0.680400  1.0
  O  O896  1  0.192400  0.996200  0.819600  1.0
  O  O897  1  0.995900  0.397500  0.346100  1.0
  O  O898  1  0.739500  0.102500  0.153900  1.0
  O  O899  1  0.004100  0.602500  0.653900  1.0
  O  O900  1  0.260500  0.897500  0.846100  1.0
  O  O901  1  0.127600  0.404900  0.421300  1.0
  O  O902  1  0.953800  0.095100  0.078700  1.0
  O  O903  1  0.872400  0.595100  0.578700  1.0
  O  O904  1  0.046200  0.904900  0.921300  1.0
  O  O905  1  0.245500  0.327900  0.403700  1.0
  O  O906  1  0.977100  0.172100  0.096300  1.0
  O  O907  1  0.754500  0.672100  0.596300  1.0
  O  O908  1  0.022900  0.827900  0.903700  1.0
  O  O909  1  0.206700  0.387300  0.458100  1.0
  O  O910  1  0.052100  0.112700  0.041900  1.0
  O  O911  1  0.793300  0.612700  0.541900  1.0
  O  O912  1  0.947900  0.887300  0.958100  1.0
  O  O913  1  0.166400  0.312000  0.457800  1.0
  O  O914  1  0.936200  0.188000  0.042200  1.0
  O  O915  1  0.833600  0.688000  0.542200  1.0
  O  O916  1  0.063800  0.812000  0.957800  1.0
  O  O917  1  0.300700  0.278800  0.335600  1.0
  O  O918  1  0.915100  0.221200  0.164400  1.0
  O  O919  1  0.699300  0.721200  0.664400  1.0
  O  O920  1  0.084900  0.778800  0.835600  1.0
  O  O921  1  0.232100  0.312200  0.290400  1.0
  O  O922  1  0.834700  0.187800  0.209600  1.0
  O  O923  1  0.767900  0.687800  0.709600  1.0
  O  O924  1  0.165300  0.812200  0.790400  1.0
  O  O925  1  0.356800  0.254400  0.270000  1.0
  O  O926  1  0.881200  0.245600  0.230000  1.0
  O  O927  1  0.643200  0.745600  0.730000  1.0
  O  O928  1  0.118800  0.754400  0.770000  1.0
  O  O929  1  0.286000  0.206200  0.308000  1.0
  O  O930  1  0.800200  0.293800  0.192000  1.0
  O  O931  1  0.714000  0.793800  0.692000  1.0
  O  O932  1  0.199800  0.706200  0.808000  1.0
  O  O933  1  0.655600  0.551200  0.064800  1.0
  O  O934  1  0.271600  0.948800  0.435200  1.0
  O  O935  1  0.344400  0.448800  0.935200  1.0
  O  O936  1  0.728400  0.051200  0.564800  1.0
  O  O937  1  0.718500  0.523600  0.105000  1.0
  O  O938  1  0.347100  0.976400  0.395000  1.0
  O  O939  1  0.281500  0.476400  0.895000  1.0
  O  O940  1  0.652900  0.023600  0.605000  1.0
  O  O941  1  0.341600  0.375200  0.306600  1.0
  O  O942  1  0.023400  0.124800  0.193400  1.0
  O  O943  1  0.658400  0.624800  0.693400  1.0
  O  O944  1  0.976600  0.875200  0.806600  1.0
  O  O945  1  0.279300  0.405200  0.264000  1.0
  O  O946  1  0.948500  0.094800  0.236000  1.0
  O  O947  1  0.720700  0.594800  0.736000  1.0
  O  O948  1  0.051500  0.905200  0.764000  1.0
  O  O949  1  0.753200  0.609900  0.120300  1.0
  O  O950  1  0.483400  0.890100  0.379700  1.0
  O  O951  1  0.246800  0.390100  0.879700  1.0
  O  O952  1  0.516600  0.109900  0.620300  1.0
  O  O953  1  0.718000  0.705300  0.094100  1.0
  O  O954  1  0.517400  0.794700  0.405900  1.0
  O  O955  1  0.282000  0.294700  0.905900  1.0
  O  O956  1  0.482600  0.205300  0.594100  1.0
  O  O957  1  0.642300  0.737500  0.041900  1.0
  O  O958  1  0.421700  0.762500  0.458100  1.0
  O  O959  1  0.357700  0.262500  0.958100  1.0
  O  O960  1  0.578300  0.237500  0.541900  1.0
  O  O961  1  0.607700  0.668500  0.036700  1.0
  O  O962  1  0.312900  0.831500  0.463300  1.0
  O  O963  1  0.392300  0.331500  0.963300  1.0
  O  O964  1  0.687100  0.168500  0.536700  1.0
  O  O965  1  0.144600  0.493800  0.282400  1.0
  O  O966  1  0.920800  0.006200  0.217600  1.0
  O  O967  1  0.855400  0.506200  0.717600  1.0
  O  O968  1  0.079200  0.993800  0.782400  1.0
  O  O969  1  0.099500  0.531800  0.338600  1.0
  O  O970  1  0.969900  0.968200  0.161400  1.0
  O  O971  1  0.900500  0.468200  0.661400  1.0
  O  O972  1  0.030100  0.031800  0.838600  1.0
  O  O973  1  0.178200  0.494100  0.390100  1.0
  O  O974  1  0.062400  0.005900  0.109900  1.0
  O  O975  1  0.821800  0.505900  0.609900  1.0
  O  O976  1  0.937600  0.994100  0.890100  1.0
  O  O977  1  0.289100  0.421200  0.375200  1.0
  O  O978  1  0.085500  0.078800  0.124800  1.0
  O  O979  1  0.710900  0.578800  0.624800  1.0
  O  O980  1  0.914500  0.921200  0.875200  1.0
  S  S981  1  0.891040  0.618840  0.058880  1.0
  S  S982  1  0.568760  0.881160  0.441120  1.0
  S  S983  1  0.108960  0.381160  0.941120  1.0
  S  S984  1  0.431240  0.118840  0.558880  1.0
  S  S985  1  0.750230  0.670590  0.954350  1.0
  S  S986  1  0.375170  0.829410  0.545650  1.0
  S  S987  1  0.249770  0.329410  0.045650  1.0
  S  S988  1  0.624830  0.170590  0.454350  1.0
  S  S989  1  0.821540  0.458900  0.018220  1.0
  S  S990  1  0.298660  0.041100  0.481780  1.0
  S  S991  1  0.178460  0.541100  0.981780  1.0
  S  S992  1  0.701340  0.958900  0.518220  1.0
  S  S993  1  0.032350  0.434030  0.335470  1.0
  S  S994  1  0.801850  0.065970  0.164530  1.0
  S  S995  1  0.967650  0.565970  0.664530  1.0
  S  S996  1  0.198150  0.934030  0.835470  1.0
  S  S997  1  0.185590  0.358020  0.436400  1.0
  S  S998  1  0.980010  0.141980  0.063600  1.0
  S  S999  1  0.814410  0.641980  0.563600  1.0
  S  S1000  1  0.019990  0.858020  0.936400  1.0
  S  S1001  1  0.296490  0.260690  0.300330  1.0
  S  S1002  1  0.857510  0.239310  0.199670  1.0
  S  S1003  1  0.703510  0.739310  0.699670  1.0
  S  S1004  1  0.142490  0.760690  0.800330  1.0
