
#######################################################################
#
#                 Cambridge Crystallographic Data Centre
#                                CCDC 
#
#######################################################################
#
# If this CIF has been generated from an entry in the Cambridge 
# Structural Database, then it will include bibliographic, chemical, 
# crystal, experimental, refinement or atomic coordinate data resulting 
# from the CCDC's data processing and validation procedures.
#
#######################################################################

data_JANZUU
_chemical_name_common            IRMOP-54
_chemical_formula_moiety         
'C168 H120 Fe12 N12 O76 S12 8-,8(C2 H8 N1 1+),x(C3 H7 N1 O1),x(C5 H5 N1),x(H2 O1)'
_chemical_name_systematic        
"octakis(Dimethylammonium) tetrakis(\m~6~-1,3,5-tris(4-carboxyphenyl)benzene)-tetrakis(\m~3~-oxo)-dodecakis(\m~2~-sulfato-O,O')-dodecakis(pyridine-N)-dodeca-iron dimethylformamide pyridine hydrate clathrate"
_symmetry_cell_setting           tetragonal
_symmetry_space_group_name_H-M   'I 41/a'
_symmetry_Int_Tables_number      88
_space_group_name_Hall           '-I 4ad'
loop_
_symmetry_equiv_pos_site_id
_symmetry_equiv_pos_as_xyz
1 x,y,z
2 3/4-y,1/4+x,1/4+z
3 1/2+x,1/2+y,1/2+z
4 1/4-y,3/4+x,3/4+z
5 1/4+y,1/4-x,1/4+z
6 1/2-x,-y,1/2+z
7 3/4+y,3/4-x,3/4+z
8 -x,1/2-y,z
9 -x,-y,-z
10 1/4+y,3/4-x,3/4-z
11 1/2-x,1/2-y,1/2-z
12 3/4+y,1/4-x,1/4-z
13 3/4-y,3/4+x,3/4-z
14 1/2+x,y,1/2-z
15 1/4-y,1/4+x,1/4-z
16 x,1/2+y,-z
_cell_length_a                   26.8549(13)
_cell_length_b                   26.8549(13)
_cell_length_c                   40.9221(19)
_cell_angle_alpha                90
_cell_angle_beta                 90
_cell_angle_gamma                90
_cell_volume                     29512.4
_exptl_crystal_colour            orange
_exptl_crystal_description       octahedron
_cell_formula_units_Z            4
loop_
_atom_site_label
_atom_site_type_symbol
_atom_site_fract_x
_atom_site_fract_y
_atom_site_fract_z
O20 O 0.0000 0.2500 0.0735(10)
O23 O 0.1187(5) 0.3480(4) 0.1597(3)
O24 O 0.1007(6) 0.3808(6) 0.1072(4)
O29 O 0.2489(15) 0.2768(17) 0.3013(10)
N4 N 0.5000 0.2500 0.0522(10)
C43 C 0.453(2) 0.2564(19) 0.0450(11)
C44 C 0.4519(16) 0.2632(15) 0.0051(9)
C45 C 0.5000 0.2500 -0.0031(11)
C43G C 0.547(2) 0.2436(19) 0.0450(11)
C44G C 0.5481(16) 0.2368(15) 0.0051(9)
O30 O 0.2786(12) 0.5903(11) 0.4156(8)
C46 C 0.2129(11) 0.6606(11) 0.3847(8)
C47 C 0.2495(12) 0.5885(13) 0.3793(9)
C48 C 0.2541(14) 0.5673(14) 0.3462(10)
N5 N 0.2278(15) 0.6457(15) 0.3593(10)
O31 O 0.0000 0.2500 0.1250
O32 O 0.5000 0.2500 0.1363(9)
O33 O 0.2583(9) 0.3569(9) 0.1198(6)
O34 O 0.2602(11) 0.3428(12) 0.2027(8)
O35 O 0.415(2) 0.876(2) 0.1690(16)
O37 O 0.384(2) 0.759(2) 0.3439(13)
O41 O 0.3171(9) 0.6837(9) 0.3239(6)
Fe1 Fe 0.57544(3) 0.49763(3) 0.31077(2)
Fe2 Fe 0.65678(3) 0.44883(3) 0.25791(2)
Fe3 Fe 0.53800(3) 0.41280(3) 0.25695(2)
S1 S 0.49302(6) 0.41585(7) 0.33041(4)
S2 S 0.68803(6) 0.47299(6) 0.33206(4)
S3 S 0.62524(7) 0.33347(6) 0.24762(5)
O1 O 0.59035(13) 0.45231(14) 0.27542(10)
O2 O 0.50457(19) 0.39290(18) 0.29863(12)
O3 O 0.53519(16) 0.45050(17) 0.33788(11)
O4 O 0.4920(2) 0.3769(2) 0.35472(14)
O5 O 0.44636(17) 0.4425(2) 0.32892(14)
O6 O 0.63394(16) 0.48065(17) 0.33826(11)
O7 O 0.69179(15) 0.44475(16) 0.30043(11)
O8 O 0.71315(19) 0.52046(19) 0.32939(14)
O9 O 0.70714(19) 0.4417(2) 0.35783(12)
O10 O 0.66011(16) 0.37523(16) 0.25417(12)
O11 O 0.57462(16) 0.34922(15) 0.25892(12)
O12 O 0.6408(2) 0.29059(18) 0.26622(16)
O13 O 0.6238(3) 0.3246(3) 0.21327(15)
O14 O 0.51219(16) 0.52464(16) 0.28992(11)
O15 O 0.49065(17) 0.47077(16) 0.25081(13)
O16 O 0.63408(17) 0.45539(16) 0.21039(10)
O17 O 0.55660(16) 0.42591(17) 0.21012(11)
O18 O 0.66747(16) 0.52351(15) 0.25594(11)
O19 O 0.61098(16) 0.55519(15) 0.29020(11)
N1 N 0.5576(2) 0.5516(2) 0.34845(13)
N2 N 0.7318(2) 0.4487(2) 0.23560(15)
N3 N 0.4772(2) 0.3692(2) 0.23516(15)
C1 C 0.3395(3) 0.6540(2) 0.22250(17)
C2 C 0.3095(3) 0.6471(2) 0.19483(17)
H1 H 0.3080 0.6158 0.1852
C3 C 0.2816(3) 0.6861(2) 0.18136(17)
C4 C 0.2836(3) 0.7328(2) 0.19659(18)
H2 H 0.2645 0.7588 0.1883
C5 C 0.3137(3) 0.7415(2) 0.22407(17)
C6 C 0.3411(3) 0.7009(2) 0.23639(17)
H3 H 0.3612 0.7059 0.2546
C7 C 0.3741(3) 0.6138(2) 0.23408(18)
C8 C 0.3938(3) 0.5795(3) 0.2136(2)
H4 H 0.3841 0.5792 0.1918
C9 C 0.4277(3) 0.5449(3) 0.2244(2)
H5 H 0.4392 0.5206 0.2101
C10 C 0.4450(2) 0.5456(2) 0.25590(18)
C11 C 0.4224(3) 0.5781(3) 0.27724(19)
H6 H 0.4310 0.5773 0.2993
C12 C 0.3876(3) 0.6118(3) 0.26670(19)
H7 H 0.3729 0.6334 0.2816
C13 C 0.4856(2) 0.5109(2) 0.26635(17)
C14 C 0.2547(3) 0.6783(2) 0.14966(17)
C15 C 0.2388(3) 0.6323(2) 0.13980(17)
H8 H 0.2410 0.6055 0.1541
C16 C 0.2196(3) 0.6252(2) 0.10890(17)
H9 H 0.2103 0.5933 0.1025
C17 C 0.2139(2) 0.6637(2) 0.08745(16)
C18 C 0.2264(3) 0.7108(3) 0.09825(19)
H10 H 0.2202 0.7381 0.0849
C19 C 0.2480(3) 0.7180(3) 0.12845(19)
H11 H 0.2581 0.7497 0.1346
C20 C 0.5927(2) 0.4470(2) 0.19703(15)
C21 C 0.32072(19) 0.79234(12) 0.23817(14)
C22 C 0.28682(16) 0.83033(16) 0.23206(15)
H12 H 0.2576 0.8236 0.2207
C23 C 0.29662(17) 0.87839(14) 0.24292(15)
H13 H 0.2739 0.9038 0.2388
C24 C 0.34032(18) 0.88846(12) 0.25987(13)
C25 C 0.37422(19) 0.85047(17) 0.26598(17)
H14 H 0.4035 0.8572 0.2773
C26 C 0.3644(2) 0.80241(15) 0.25513(18)
H15 H 0.3871 0.7770 0.2592
C27 C 0.6456(2) 0.5589(2) 0.26973(17)
C28 C 0.5104(3) 0.5579(3) 0.35835(19)
H16 H 0.4855 0.5387 0.3488
C29 C 0.4975(3) 0.5918(4) 0.3821(2)
H17 H 0.4644 0.5958 0.3881
C30 C 0.5333(4) 0.6191(5) 0.3965(3)
H18 H 0.5253 0.6424 0.4125
C31 C 0.5824(4) 0.6120(4) 0.3872(3)
H19 H 0.6079 0.6290 0.3977
C32 C 0.5929(3) 0.5795(3) 0.3621(2)
H20 H 0.6254 0.5769 0.3545
C33 C 0.7689(3) 0.4757(3) 0.2489(2)
H21 H 0.7627 0.4936 0.2679
C34 C 0.8161(3) 0.4776(4) 0.2351(3)
H22 H 0.8414 0.4950 0.2456
C35 C 0.8250(4) 0.4550(5) 0.2075(3)
H23 H 0.8564 0.4567 0.1980
C36 C 0.7865(4) 0.4279(5) 0.1922(3)
H24 H 0.7921 0.4117 0.1725
C37 C 0.7399(3) 0.4257(4) 0.2072(2)
H25 H 0.7143 0.4080 0.1974
C38 C 0.4858(3) 0.3331(3) 0.2151(2)
H26 H 0.5180 0.3288 0.2071
C39 C 0.4479(5) 0.2998(4) 0.2049(3)
H27 H 0.4554 0.2735 0.1909
C40 C 0.4002(4) 0.3069(5) 0.2158(3)
H28 H 0.3749 0.2847 0.2104
C41 C 0.3913(4) 0.3473(5) 0.2345(4)
H29 H 0.3588 0.3555 0.2403
C42 C 0.4307(3) 0.3763(4) 0.2450(3)
H30 H 0.4242 0.4020 0.2596
Fe1G Fe 0.42456(3) 1.00237(3) 0.31077(2)
Fe1N Fe 0.75237(3) 0.82544(3) -0.06077(2)
Fe1K Fe 0.24763(3) 0.67456(3) -0.06077(2)
Fe2G Fe 0.34322(3) 1.05117(3) 0.25791(2)
Fe2N Fe 0.80117(3) 0.90678(3) -0.00791(2)
Fe2K Fe 0.19883(3) 0.59322(3) -0.00791(2)
Fe3G Fe 0.46200(3) 1.08720(3) 0.25695(2)
Fe3N Fe 0.83720(3) 0.78800(3) -0.00695(2)
Fe3K Fe 0.16280(3) 0.71200(3) -0.00695(2)
S1G S 0.50698(6) 1.08415(7) 0.33041(4)
S1N S 0.83415(7) 0.74302(6) -0.08041(4)
S1K S 0.16585(7) 0.75698(6) -0.08041(4)
S2G S 0.31197(6) 1.02701(6) 0.33206(4)
S2N S 0.77701(6) 0.93803(6) -0.08206(4)
S2K S 0.22299(6) 0.56197(6) -0.08206(4)
S3G S 0.37476(7) 1.16653(6) 0.24762(5)
S3N S 0.91653(6) 0.87524(7) 0.00238(5)
S3K S 0.08347(6) 0.62476(7) 0.00238(5)
O1G O 0.40965(13) 1.04769(14) 0.27542(10)
O1N O 0.79769(14) 0.84035(13) -0.02542(10)
O1K O 0.20231(14) 0.65965(13) -0.02542(10)
O2G O 0.49543(19) 1.10710(18) 0.29863(12)
O2N O 0.85710(18) 0.75457(19) -0.04863(12)
O2K O 0.14290(18) 0.74543(19) -0.04863(12)
O3G O 0.46481(16) 1.04950(17) 0.33788(11)
O3N O 0.79950(17) 0.78519(16) -0.08788(11)
O3K O 0.20050(17) 0.71481(16) -0.08788(11)
O4K O 0.1269(2) 0.7580(2) -0.10472(14)
O4N O 0.8731(2) 0.7420(2) -0.10472(14)
O4G O 0.5080(2) 1.1231(2) 0.35472(14)
O5K O 0.1925(2) 0.80364(17) -0.07892(14)
O5N O 0.8075(2) 0.69636(17) -0.07892(14)
O5G O 0.55364(17) 1.0575(2) 0.32892(14)
O6G O 0.36606(16) 1.01935(17) 0.33826(11)
O6N O 0.76935(17) 0.88394(16) -0.08826(11)
O6K O 0.23065(17) 0.61606(16) -0.08826(11)
O7G O 0.30821(15) 1.05525(16) 0.30043(11)
O7N O 0.80525(16) 0.94179(15) -0.05043(11)
O7K O 0.19475(16) 0.55821(15) -0.05043(11)
O8K O 0.27046(19) 0.53685(19) -0.07939(14)
O8N O 0.72954(19) 0.96315(19) -0.07939(14)
O8G O 0.28685(19) 0.97954(19) 0.32939(14)
O9K O 0.1917(2) 0.54286(19) -0.10783(12)
O9N O 0.8083(2) 0.95714(19) -0.10783(12)
O9G O 0.29286(19) 1.0583(2) 0.35783(12)
O10G O 0.33989(16) 1.12477(16) 0.25417(12)
O10N O 0.87477(16) 0.91011(16) -0.00417(12)
O10K O 0.12523(16) 0.58989(16) -0.00417(12)
O11G O 0.42538(16) 1.15078(15) 0.25892(12)
O11N O 0.90078(15) 0.82462(16) -0.00892(12)
O11K O 0.09922(15) 0.67538(16) -0.00892(12)
O12K O 0.04059(18) 0.6092(2) -0.01622(16)
O12N O 0.95941(18) 0.8908(2) -0.01622(16)
O12G O 0.3592(2) 1.20941(18) 0.26622(16)
O13K O 0.0746(3) 0.6262(3) 0.03673(15)
O13N O 0.9254(3) 0.8738(3) 0.03673(15)
O13G O 0.3762(3) 1.1754(3) 0.21327(15)
O14G O 0.48781(16) 0.97536(16) 0.28992(11)
O14N O 0.72536(16) 0.76219(16) -0.03992(11)
O14K O 0.27464(16) 0.73781(16) -0.03992(11)
O15G O 0.50935(17) 1.02923(16) 0.25081(13)
O15N O 0.77923(16) 0.74065(17) -0.00081(13)
O15K O 0.22077(16) 0.75935(17) -0.00081(13)
O16G O 0.36592(17) 1.04461(16) 0.21039(10)
O16N O 0.79461(16) 0.88408(17) 0.03961(10)
O16K O 0.20539(16) 0.61592(17) 0.03961(10)
O17G O 0.44340(16) 1.07409(17) 0.21012(11)
O17N O 0.82409(17) 0.80660(16) 0.03988(11)
O17K O 0.17591(17) 0.69340(16) 0.03988(11)
O18N O 0.72649(15) 0.91747(16) -0.00594(11)
O18K O 0.27351(15) 0.58253(16) -0.00594(11)
O18G O 0.33253(16) 0.97649(15) 0.25594(11)
O19G O 0.38902(16) 0.94481(15) 0.29020(11)
O19K O 0.30519(15) 0.63902(16) -0.04020(11)
O19N O 0.69481(15) 0.86098(16) -0.04020(11)
N1G N 0.4424(2) 0.9484(2) 0.34845(13)
N1K N 0.3016(2) 0.6924(2) -0.09845(13)
N1N N 0.6984(2) 0.8076(2) -0.09845(13)
N2N N 0.8013(2) 0.9818(2) 0.01440(15)
N2K N 0.1987(2) 0.5182(2) 0.01440(15)
N2G N 0.2682(2) 1.0513(2) 0.23560(15)
N3G N 0.5228(2) 1.1308(2) 0.23516(15)
N3N N 0.8808(2) 0.7272(2) 0.01484(15)
N3K N 0.1192(2) 0.7728(2) 0.01484(15)
C1G C 0.6605(3) 0.8460(2) 0.22250(17)
C1K C 0.4040(2) 0.9105(3) 0.02750(17)
C1N C 0.5960(2) 0.5895(3) 0.02750(17)
C2G C 0.6905(3) 0.8529(2) 0.19483(17)
C2K C 0.3971(2) 0.9405(3) 0.05517(17)
C2N C 0.6029(2) 0.5595(3) 0.05517(17)
H1N H 0.6342 0.5580 0.0648
H1K H 0.3658 0.9420 0.0648
H1G H 0.6920 0.8842 0.1852
C3G C 0.7184(3) 0.8139(2) 0.18136(17)
C3K C 0.4361(2) 0.9684(3) 0.06864(17)
C3N C 0.5639(2) 0.5316(3) 0.06864(17)
C4G C 0.7164(3) 0.7672(2) 0.19659(18)
C4K C 0.4828(2) 0.9664(3) 0.05341(18)
C4N C 0.5172(2) 0.5336(3) 0.05341(18)
H2K H 0.5088 0.9855 0.0617
H2N H 0.4912 0.5145 0.0617
H2G H 0.7355 0.7412 0.1883
C5G C 0.6863(3) 0.7585(2) 0.22407(17)
C5K C 0.4915(2) 0.9363(3) 0.02593(17)
C5N C 0.5085(2) 0.5637(3) 0.02593(17)
C6G C 0.6589(3) 0.7991(2) 0.23639(17)
C6K C 0.4509(2) 0.9089(3) 0.01361(17)
C6N C 0.5491(2) 0.5911(3) 0.01361(17)
H3G H 0.6388 0.7941 0.2546
H3N H 0.5441 0.6112 -0.0046
H3K H 0.4559 0.8888 -0.0046
C7G C 0.6259(3) 0.8862(2) 0.23408(18)
C7N C 0.6362(2) 0.6241(3) 0.01592(18)
C7K C 0.3638(2) 0.8759(3) 0.01592(18)
C8G C 0.6062(3) 0.9205(3) 0.2136(2)
C8N C 0.6705(3) 0.6438(3) 0.0364(2)
C8K C 0.3295(3) 0.8562(3) 0.0364(2)
H4G H 0.6159 0.9208 0.1918
H4K H 0.3292 0.8659 0.0582
H4N H 0.6708 0.6341 0.0582
C9G C 0.5723(3) 0.9551(3) 0.2244(2)
C9N C 0.7051(3) 0.6777(3) 0.0256(2)
C9K C 0.2949(3) 0.8223(3) 0.0256(2)
H5G H 0.5608 0.9794 0.2101
H5K H 0.2706 0.8108 0.0399
H5N H 0.7294 0.6892 0.0399
C10G C 0.5550(2) 0.9544(2) 0.25590(18)
C10N C 0.7044(2) 0.6950(2) -0.00590(18)
C10K C 0.2956(2) 0.8050(2) -0.00590(18)
C11G C 0.5776(3) 0.9219(3) 0.27724(19)
C11K C 0.3281(3) 0.8276(3) -0.02724(19)
C11N C 0.6719(3) 0.6724(3) -0.02724(19)
H6G H 0.5690 0.9227 0.2993
H6K H 0.3273 0.8190 -0.0493
H6N H 0.6727 0.6810 -0.0493
C12G C 0.6124(3) 0.8882(3) 0.26670(19)
C12K C 0.3618(3) 0.8624(3) -0.01670(19)
C12N C 0.6382(3) 0.6376(3) -0.01670(19)
H7G H 0.6271 0.8666 0.2816
H7K H 0.3834 0.8771 -0.0316
H7N H 0.6166 0.6229 -0.0316
C13G C 0.5144(2) 0.9891(2) 0.26635(17)
C13N C 0.7391(2) 0.7356(2) -0.01635(17)
C13K C 0.2609(2) 0.7644(2) -0.01635(17)
C14K C 0.4283(2) 0.9953(3) 0.10034(17)
C14G C 0.7453(3) 0.8217(2) 0.14966(17)
C14N C 0.5717(2) 0.5047(3) 0.10034(17)
C15K C 0.3823(2) 1.0112(3) 0.11020(17)
C15G C 0.7612(3) 0.8677(2) 0.13980(17)
C15N C 0.6177(2) 0.4888(3) 0.11020(17)
H8G H 0.7590 0.8945 0.1541
H8N H 0.6445 0.4910 0.0959
H8K H 0.3555 1.0090 0.0959
C16K C 0.3752(2) 1.0304(3) 0.14110(17)
C16G C 0.7804(3) 0.8748(2) 0.10890(17)
C16N C 0.6248(2) 0.4696(3) 0.14110(17)
H9G H 0.7897 0.9067 0.1025
H9N H 0.6567 0.4603 0.1475
H9K H 0.3433 1.0397 0.1475
C17K C 0.4137(2) 1.0361(2) 0.16255(16)
C17G C 0.7861(2) 0.8363(2) 0.08745(16)
C17N C 0.5863(2) 0.4639(2) 0.16255(16)
C18G C 0.7736(3) 0.7892(3) 0.09825(19)
C18N C 0.5392(3) 0.4764(3) 0.15175(19)
C18K C 0.4608(3) 1.0236(3) 0.15175(19)
H10G H 0.7798 0.7619 0.0849
H10N H 0.5119 0.4702 0.1651
H10K H 0.4881 1.0298 0.1651
C19G C 0.7520(3) 0.7820(3) 0.12845(19)
C19N C 0.5320(3) 0.4980(3) 0.12155(19)
C19K C 0.4680(3) 1.0020(3) 0.12155(19)
H11G H 0.7419 0.7503 0.1346
H11N H 0.5003 0.5081 0.1154
H11K H 0.4997 0.9919 0.1154
C20G C 0.4073(2) 1.0530(2) 0.19703(15)
C20N C 0.8030(2) 0.8427(2) 0.05297(15)
C20K C 0.1970(2) 0.6573(2) 0.05297(15)
C21G C 0.67928(19) 0.70766(12) 0.23817(14)
C21K C 0.54234(12) 0.92928(19) 0.01183(14)
C21N C 0.45766(12) 0.57072(19) 0.01183(14)
C22G C 0.71318(16) 0.66967(16) 0.23206(15)
C22K C 0.58033(16) 0.96318(16) 0.01794(15)
C22N C 0.41967(16) 0.53682(16) 0.01794(15)
H12K H 0.5736 0.9924 0.0293
H12N H 0.4264 0.5076 0.0293
H12G H 0.7424 0.6764 0.2207
C23G C 0.70338(17) 0.62161(14) 0.24292(15)
C23K C 0.62839(14) 0.95338(17) 0.00708(15)
C23N C 0.37161(14) 0.54662(17) 0.00708(15)
H13K H 0.6538 0.9761 0.0112
H13N H 0.3462 0.5239 0.0112
H13G H 0.7261 0.5962 0.2388
C24G C 0.65968(18) 0.61154(12) 0.25987(13)
C24K C 0.63846(12) 0.90968(18) -0.00987(13)
C24N C 0.36154(12) 0.59032(18) -0.00987(13)
C25K C 0.60047(17) 0.87578(19) -0.01598(17)
C25N C 0.39953(17) 0.62422(19) -0.01598(17)
C25G C 0.62578(19) 0.64953(17) 0.26598(17)
H14K H 0.6072 0.8465 -0.0273
H14N H 0.3928 0.6535 -0.0273
H14G H 0.5965 0.6428 0.2773
C26K C 0.55241(15) 0.8856(2) -0.00513(18)
C26N C 0.44759(15) 0.6144(2) -0.00513(18)
C26G C 0.6356(2) 0.69759(15) 0.25513(18)
H15K H 0.5270 0.8629 -0.0092
H15N H 0.4730 0.6371 -0.0092
H15G H 0.6129 0.7230 0.2592
C27N C 0.6911(2) 0.8956(2) -0.01973(17)
C27K C 0.3089(2) 0.6044(2) -0.01973(17)
C27G C 0.3544(2) 0.9411(2) 0.26973(17)
C28G C 0.4896(3) 0.9421(3) 0.35835(19)
C28K C 0.3079(3) 0.7396(3) -0.10835(19)
C28N C 0.6921(3) 0.7604(3) -0.10835(19)
H16G H 0.5145 0.9613 0.3488
H16K H 0.2887 0.7645 -0.0988
H16N H 0.7113 0.7355 -0.0988
C29G C 0.5025(3) 0.9082(4) 0.3821(2)
C29K C 0.3418(4) 0.7525(3) -0.1321(2)
C29N C 0.6582(4) 0.7475(3) -0.1321(2)
H17G H 0.5356 0.9042 0.3881
H17K H 0.3458 0.7856 -0.1381
H17N H 0.6542 0.7144 -0.1381
C30G C 0.4667(4) 0.8809(5) 0.3965(3)
C30K C 0.3691(5) 0.7167(4) -0.1465(3)
C30N C 0.6309(5) 0.7833(4) -0.1465(3)
H18G H 0.4747 0.8576 0.4125
H18K H 0.3924 0.7247 -0.1625
H18N H 0.6076 0.7753 -0.1625
C31G C 0.4176(4) 0.8880(4) 0.3872(3)
C31K C 0.3620(4) 0.6676(4) -0.1372(3)
C31N C 0.6380(4) 0.8324(4) -0.1372(3)
H19G H 0.3921 0.8710 0.3977
H19K H 0.3790 0.6421 -0.1477
H19N H 0.6210 0.8579 -0.1477
C32G C 0.4071(3) 0.9205(3) 0.3621(2)
C32K C 0.3295(3) 0.6571(3) -0.1121(2)
C32N C 0.6705(3) 0.8429(3) -0.1121(2)
H20G H 0.3746 0.9231 0.3545
H20K H 0.3269 0.6246 -0.1045
H20N H 0.6731 0.8754 -0.1045
C33N C 0.7743(3) 1.0189(3) 0.0011(2)
C33K C 0.2257(3) 0.4811(3) 0.0011(2)
C33G C 0.2311(3) 1.0243(3) 0.2489(2)
H21N H 0.7564 1.0127 -0.0179
H21K H 0.2436 0.4873 -0.0179
H21G H 0.2373 1.0064 0.2679
C34N C 0.7724(4) 1.0661(3) 0.0149(3)
C34K C 0.2276(4) 0.4339(3) 0.0149(3)
C34G C 0.1839(3) 1.0224(4) 0.2351(3)
H22N H 0.7550 1.0914 0.0044
H22K H 0.2450 0.4086 0.0044
H22G H 0.1586 1.0050 0.2456
C35N C 0.7950(5) 1.0750(4) 0.0425(3)
C35K C 0.2050(5) 0.4250(4) 0.0425(3)
C35G C 0.1750(4) 1.0450(5) 0.2075(3)
H23N H 0.7933 1.1064 0.0520
H23K H 0.2067 0.3936 0.0520
H23G H 0.1436 1.0433 0.1980
C36N C 0.8221(5) 1.0365(4) 0.0578(3)
C36K C 0.1779(5) 0.4635(4) 0.0578(3)
C36G C 0.2135(4) 1.0721(5) 0.1922(3)
H24N H 0.8383 1.0421 0.0775
H24K H 0.1617 0.4579 0.0775
H24G H 0.2079 1.0883 0.1725
C37N C 0.8243(4) 0.9899(3) 0.0428(2)
C37K C 0.1757(4) 0.5101(3) 0.0428(2)
C37G C 0.2601(3) 1.0743(4) 0.2072(2)
H25N H 0.8420 0.9643 0.0526
H25K H 0.1580 0.5357 0.0526
H25G H 0.2857 1.0920 0.1974
C38G C 0.5142(3) 1.1669(3) 0.2151(2)
C38N C 0.9169(3) 0.7358(3) 0.0349(2)
C38K C 0.0831(3) 0.7642(3) 0.0349(2)
H26G H 0.4820 1.1712 0.2071
H26N H 0.9212 0.7680 0.0429
H26K H 0.0788 0.7320 0.0429
C39G C 0.5521(5) 1.2002(4) 0.2049(3)
C39N C 0.9502(4) 0.6979(5) 0.0451(3)
C39K C 0.0498(4) 0.8021(5) 0.0451(3)
H27G H 0.5446 1.2265 0.1909
H27N H 0.9765 0.7054 0.0591
H27K H 0.0235 0.7946 0.0591
C40G C 0.5998(4) 1.1931(5) 0.2158(3)
C40N C 0.9431(5) 0.6502(4) 0.0342(3)
C40K C 0.0569(5) 0.8498(4) 0.0342(3)
H28G H 0.6251 1.2153 0.2104
H28N H 0.9653 0.6249 0.0396
H28K H 0.0347 0.8751 0.0396
C41G C 0.6087(4) 1.1527(5) 0.2345(4)
C41N C 0.9027(5) 0.6413(4) 0.0155(4)
C41K C 0.0973(5) 0.8587(4) 0.0155(4)
H29G H 0.6412 1.1445 0.2403
H29N H 0.8945 0.6088 0.0097
H29K H 0.1055 0.8912 0.0097
C42G C 0.5693(3) 1.1237(4) 0.2450(3)
C42N C 0.8737(4) 0.6807(3) 0.0050(3)
C42K C 0.1263(4) 0.8193(3) 0.0050(3)
H30G H 0.5758 1.0980 0.2596
H30N H 0.8480 0.6742 -0.0096
H30K H 0.1520 0.8258 -0.0096
O21? O 0.0121(12) 0.2873(12) 0.0500(7)
O22? O 0.0883(6) 0.3434(5) 0.1313(4)
O25? O 0.1677(9) 0.3525(8) 0.1374(5)
O26? O 0.2026(11) 0.3159(12) 0.1631(8)
O27? O 0.2481(16) 0.2295(19) 0.2832(11)
O28? O 0.2629(15) 0.2815(15) 0.2615(11)
O36? O 0.4457(13) 0.9042(13) 0.1976(9)
O38? O 0.3504(13) 0.7213(14) 0.3321(8)
O39? O 0.3854(17) 0.7193(19) 0.3639(12)
O40? O 0.1306(13) 0.3643(11) 0.1294(8)
loop_
_geom_bond_atom_site_label_1
_geom_bond_atom_site_label_2
_geom_bond_site_symmetry_1
_geom_bond_site_symmetry_2
Fe1 O1 1_555 1_555
Fe2 O1 1_555 1_555
Fe3 O1 1_555 1_555
S1 O2 1_555 1_555
S2 O6 1_555 1_555
S3 O10 1_555 1_555
O2 Fe3 1_555 1_555
O3 Fe1 1_555 1_555
O4 S1 1_555 1_555
O5 S1 1_555 1_555
O6 Fe1 1_555 1_555
O7 Fe2 1_555 1_555
O8 S2 1_555 1_555
O9 S2 1_555 1_555
O10 Fe2 1_555 1_555
O11 Fe3 1_555 1_555
O12 S3 1_555 1_555
O13 S3 1_555 1_555
O14 Fe1 1_555 1_555
O15 Fe3 1_555 1_555
O16 Fe2 1_555 1_555
O17 Fe3 1_555 1_555
O18 Fe2 1_555 1_555
O19 Fe1 1_555 1_555
N1 Fe1 1_555 1_555
N2 Fe2 1_555 1_555
N3 Fe3 1_555 1_555
C1 C2 1_555 1_555
C2 H1 1_555 1_555
C3 C2 1_555 1_555
C4 C3 1_555 1_555
H2 C4 1_555 1_555
C5 C4 1_555 1_555
C6 C1 1_555 1_555
H3 C6 1_555 1_555
C7 C1 1_555 1_555
C8 C7 1_555 1_555
H4 C8 1_555 1_555
C9 C8 1_555 1_555
H5 C9 1_555 1_555
C10 C9 1_555 1_555
C11 C10 1_555 1_555
H6 C11 1_555 1_555
C12 C7 1_555 1_555
H7 C12 1_555 1_555
C13 O14 1_555 1_555
C14 C3 1_555 1_555
C15 C14 1_555 1_555
H8 C15 1_555 1_555
C16 C15 1_555 1_555
H9 C16 1_555 1_555
C17 C16 1_555 1_555
C18 C17 1_555 1_555
H10 C18 1_555 1_555
C19 C14 1_555 1_555
H11 C19 1_555 1_555
C20 O16 1_555 1_555
C21 C5 1_555 1_555
C22 C21 1_555 1_555
H12 C22 1_555 1_555
C23 C22 1_555 1_555
H13 C23 1_555 1_555
C24 C23 1_555 1_555
C25 C24 1_555 1_555
H14 C25 1_555 1_555
C26 C21 1_555 1_555
H15 C26 1_555 1_555
C27 O18 1_555 1_555
C28 N1 1_555 1_555
H16 C28 1_555 1_555
C29 C28 1_555 1_555
H17 C29 1_555 1_555
C30 C29 1_555 1_555
H18 C30 1_555 1_555
C31 C30 1_555 1_555
H19 C31 1_555 1_555
C32 N1 1_555 1_555
H20 C32 1_555 1_555
C33 N2 1_555 1_555
H21 C33 1_555 1_555
C34 C33 1_555 1_555
H22 C34 1_555 1_555
C35 C34 1_555 1_555
H23 C35 1_555 1_555
C36 C35 1_555 1_555
H24 C36 1_555 1_555
C37 N2 1_555 1_555
H25 C37 1_555 1_555
C38 N3 1_555 1_555
H26 C38 1_555 1_555
C39 C38 1_555 1_555
H27 C39 1_555 1_555
C40 C39 1_555 1_555
H28 C40 1_555 1_555
C41 C40 1_555 1_555
H29 C41 1_555 1_555
C42 N3 1_555 1_555
H30 C42 1_555 1_555
N4 C43 1_555 1_555
C43 C44 1_555 1_555
C44 C45 1_555 1_555
C45 C44G 1_555 1_555
O30 C47 1_555 1_555
C46 N5 1_555 1_555
C47 C48 1_555 1_555
N5 C47 1_555 1_555
Fe1G O1G 1_555 1_555
Fe1N O1N 1_555 1_555
Fe1K O1K 1_555 1_555
Fe2G O1G 1_555 1_555
Fe2N O1N 1_555 1_555
Fe2K O1K 1_555 1_555
Fe3G O1G 1_555 1_555
Fe3N O1N 1_555 1_555
Fe3K O1K 1_555 1_555
S1G O2G 1_555 1_555
S1N O2N 1_555 1_555
S1K O2K 1_555 1_555
S2G O6G 1_555 1_555
S2N O6N 1_555 1_555
S2K O6K 1_555 1_555
S3G O10G 1_555 1_555
S3N O10N 1_555 1_555
S3K O10K 1_555 1_555
O2G Fe3G 1_555 1_555
O2N Fe3N 1_555 1_555
O2K Fe3K 1_555 1_555
O3G Fe1G 1_555 1_555
O3N Fe1N 1_555 1_555
O3K Fe1K 1_555 1_555
O4K S1K 1_555 1_555
O4N S1N 1_555 1_555
O4G S1G 1_555 1_555
O5K S1K 1_555 1_555
O5N S1N 1_555 1_555
O5G S1G 1_555 1_555
O6G Fe1G 1_555 1_555
O6N Fe1N 1_555 1_555
O6K Fe1K 1_555 1_555
O7G Fe2G 1_555 1_555
O7N Fe2N 1_555 1_555
O7K Fe2K 1_555 1_555
O8K S2K 1_555 1_555
O8N S2N 1_555 1_555
O8G S2G 1_555 1_555
O9K S2K 1_555 1_555
O9N S2N 1_555 1_555
O9G S2G 1_555 1_555
O10G Fe2G 1_555 1_555
O10N Fe2N 1_555 1_555
O10K Fe2K 1_555 1_555
O11G Fe3G 1_555 1_555
O11N Fe3N 1_555 1_555
O11K Fe3K 1_555 1_555
O12K S3K 1_555 1_555
O12N S3N 1_555 1_555
O12G S3G 1_555 1_555
O13K S3K 1_555 1_555
O13N S3N 1_555 1_555
O13G S3G 1_555 1_555
O14G Fe1G 1_555 1_555
O14N Fe1N 1_555 1_555
O14K Fe1K 1_555 1_555
O15G Fe3G 1_555 1_555
O15N Fe3N 1_555 1_555
O15K Fe3K 1_555 1_555
O16G Fe2G 1_555 1_555
O16N Fe2N 1_555 1_555
O16K Fe2K 1_555 1_555
O17G Fe3G 1_555 1_555
O17N Fe3N 1_555 1_555
O17K Fe3K 1_555 1_555
O18N Fe2N 1_555 1_555
O18K Fe2K 1_555 1_555
O18G Fe2G 1_555 1_555
O19G Fe1G 1_555 1_555
O19K Fe1K 1_555 1_555
O19N Fe1N 1_555 1_555
N1G Fe1G 1_555 1_555
N1K Fe1K 1_555 1_555
N1N Fe1N 1_555 1_555
N2N Fe2N 1_555 1_555
N2K Fe2K 1_555 1_555
N2G Fe2G 1_555 1_555
N3G Fe3G 1_555 1_555
N3N Fe3N 1_555 1_555
N3K Fe3K 1_555 1_555
C1G C2G 1_555 1_555
C1K C2K 1_555 1_555
C1N C2N 1_555 1_555
C2G H1G 1_555 1_555
C2K H1K 1_555 1_555
C2N H1N 1_555 1_555
C3G C2G 1_555 1_555
C3K C2K 1_555 1_555
C3N C2N 1_555 1_555
C4G C3G 1_555 1_555
C4K C3K 1_555 1_555
C4N C3N 1_555 1_555
H2K C4K 1_555 1_555
H2N C4N 1_555 1_555
H2G C4G 1_555 1_555
C5G C4G 1_555 1_555
C5K C4K 1_555 1_555
C5N C4N 1_555 1_555
C6G C1G 1_555 1_555
C6K C1K 1_555 1_555
C6N C1N 1_555 1_555
H3G C6G 1_555 1_555
H3N C6N 1_555 1_555
H3K C6K 1_555 1_555
C7G C1G 1_555 1_555
C7N C1N 1_555 1_555
C7K C1K 1_555 1_555
C8G C7G 1_555 1_555
C8N C7N 1_555 1_555
C8K C7K 1_555 1_555
H4G C8G 1_555 1_555
H4K C8K 1_555 1_555
H4N C8N 1_555 1_555
C9G C8G 1_555 1_555
C9N C8N 1_555 1_555
C9K C8K 1_555 1_555
H5G C9G 1_555 1_555
H5K C9K 1_555 1_555
H5N C9N 1_555 1_555
C10G C9G 1_555 1_555
C10N C9N 1_555 1_555
C10K C9K 1_555 1_555
C11G C10G 1_555 1_555
C11K C10K 1_555 1_555
C11N C10N 1_555 1_555
H6G C11G 1_555 1_555
H6K C11K 1_555 1_555
H6N C11N 1_555 1_555
C12G C7G 1_555 1_555
C12K C7K 1_555 1_555
C12N C7N 1_555 1_555
H7G C12G 1_555 1_555
H7K C12K 1_555 1_555
H7N C12N 1_555 1_555
C13G O14G 1_555 1_555
C13N O14N 1_555 1_555
C13K O14K 1_555 1_555
C14K C3K 1_555 1_555
C14G C3G 1_555 1_555
C14N C3N 1_555 1_555
C15K C14K 1_555 1_555
C15G C14G 1_555 1_555
C15N C14N 1_555 1_555
H8G C15G 1_555 1_555
H8N C15N 1_555 1_555
H8K C15K 1_555 1_555
C16K C15K 1_555 1_555
C16G C15G 1_555 1_555
C16N C15N 1_555 1_555
H9G C16G 1_555 1_555
H9N C16N 1_555 1_555
H9K C16K 1_555 1_555
C17K C16K 1_555 1_555
C17G C16G 1_555 1_555
C17N C20 1_555 1_555
C18G C17G 1_555 1_555
C18N C17N 1_555 1_555
C18K C17K 1_555 1_555
H10G C18G 1_555 1_555
H10N C18N 1_555 1_555
H10K C18K 1_555 1_555
C19G C14G 1_555 1_555
C19N C14N 1_555 1_555
C19K C14K 1_555 1_555
H11G C19G 1_555 1_555
H11N C19N 1_555 1_555
H11K C19K 1_555 1_555
C20G O16G 1_555 1_555
C20N O16N 1_555 1_555
C20K C17 1_555 1_555
C21G C5G 1_555 1_555
C21K C5K 1_555 1_555
C21N C5N 1_555 1_555
C22G C21G 1_555 1_555
C22K C21K 1_555 1_555
C22N C21N 1_555 1_555
H12K C22K 1_555 1_555
H12N C22N 1_555 1_555
H12G C22G 1_555 1_555
C23G C22G 1_555 1_555
C23K C22K 1_555 1_555
C23N C22N 1_555 1_555
H13K C23K 1_555 1_555
H13N C23N 1_555 1_555
H13G C23G 1_555 1_555
C24G C27 1_555 1_555
C24K C23K 1_555 1_555
C24N C23N 1_555 1_555
C25K C24K 1_555 1_555
C25N C24N 1_555 1_555
C25G C24G 1_555 1_555
H14K C25K 1_555 1_555
H14N C25N 1_555 1_555
H14G C25G 1_555 1_555
C26K C21K 1_555 1_555
C26N C21N 1_555 1_555
C26G C21G 1_555 1_555
H15K C26K 1_555 1_555
H15N C26N 1_555 1_555
H15G C26G 1_555 1_555
C27N O18N 1_555 1_555
C27K O18K 1_555 1_555
C27G C24 1_555 1_555
C28G N1G 1_555 1_555
C28K N1K 1_555 1_555
C28N N1N 1_555 1_555
H16G C28G 1_555 1_555
H16K C28K 1_555 1_555
H16N C28N 1_555 1_555
C29G C28G 1_555 1_555
C29K C28K 1_555 1_555
C29N C28N 1_555 1_555
H17G C29G 1_555 1_555
H17K C29K 1_555 1_555
H17N C29N 1_555 1_555
C30G C29G 1_555 1_555
C30K C29K 1_555 1_555
C30N C29N 1_555 1_555
H18G C30G 1_555 1_555
H18K C30K 1_555 1_555
H18N C30N 1_555 1_555
C31G C30G 1_555 1_555
C31K C30K 1_555 1_555
C31N C30N 1_555 1_555
H19G C31G 1_555 1_555
H19K C31K 1_555 1_555
H19N C31N 1_555 1_555
C32G N1G 1_555 1_555
C32K N1K 1_555 1_555
C32N N1N 1_555 1_555
H20G C32G 1_555 1_555
H20K C32K 1_555 1_555
H20N C32N 1_555 1_555
C33N N2N 1_555 1_555
C33K N2K 1_555 1_555
C33G N2G 1_555 1_555
H21N C33N 1_555 1_555
H21K C33K 1_555 1_555
H21G C33G 1_555 1_555
C34N C33N 1_555 1_555
C34K C33K 1_555 1_555
C34G C33G 1_555 1_555
H22N C34N 1_555 1_555
H22K C34K 1_555 1_555
H22G C34G 1_555 1_555
C35N C34N 1_555 1_555
C35K C34K 1_555 1_555
C35G C34G 1_555 1_555
H23N C35N 1_555 1_555
H23K C35K 1_555 1_555
H23G C35G 1_555 1_555
C36N C35N 1_555 1_555
C36K C35K 1_555 1_555
C36G C35G 1_555 1_555
H24N C36N 1_555 1_555
H24K C36K 1_555 1_555
H24G C36G 1_555 1_555
C37N N2N 1_555 1_555
C37K N2K 1_555 1_555
C37G N2G 1_555 1_555
H25N C37N 1_555 1_555
H25K C37K 1_555 1_555
H25G C37G 1_555 1_555
C38G N3G 1_555 1_555
C38N N3N 1_555 1_555
C38K N3K 1_555 1_555
H26G C38G 1_555 1_555
H26N C38N 1_555 1_555
H26K C38K 1_555 1_555
C39G C38G 1_555 1_555
C39N C38N 1_555 1_555
C39K C38K 1_555 1_555
H27G C39G 1_555 1_555
H27N C39N 1_555 1_555
H27K C39K 1_555 1_555
C40G C39G 1_555 1_555
C40N C39N 1_555 1_555
C40K C39K 1_555 1_555
H28G C40G 1_555 1_555
H28N C40N 1_555 1_555
H28K C40K 1_555 1_555
C41G C40G 1_555 1_555
C41N C40N 1_555 1_555
C41K C40K 1_555 1_555
H29G C41G 1_555 1_555
H29N C41N 1_555 1_555
H29K C41K 1_555 1_555
C42G N3G 1_555 1_555
C42N N3N 1_555 1_555
C42K N3K 1_555 1_555
H30G C42G 1_555 1_555
H30N C42N 1_555 1_555
H30K C42K 1_555 1_555
C43G N4 1_555 1_555
C44G C43G 1_555 1_555
S1 O3 1_555 1_555
S2 O7 1_555 1_555
S3 O11 1_555 1_555
O15 C13 1_555 1_555
O17 C20 1_555 1_555
O19 C27 1_555 1_555
C5 C6 1_555 1_555
C10 C13 1_555 1_555
C11 C12 1_555 1_555
C18 C19 1_555 1_555
C25 C26 1_555 1_555
C31 C32 1_555 1_555
C36 C37 1_555 1_555
C41 C42 1_555 1_555
S1G O3G 1_555 1_555
S1N O3N 1_555 1_555
S1K O3K 1_555 1_555
S2G O7G 1_555 1_555
S2N O7N 1_555 1_555
S2K O7K 1_555 1_555
S3G O11G 1_555 1_555
S3N O11N 1_555 1_555
S3K O11K 1_555 1_555
O15G C13G 1_555 1_555
O15N C13N 1_555 1_555
O15K C13K 1_555 1_555
O16K C20K 1_555 1_555
O17G C20G 1_555 1_555
O17N C20N 1_555 1_555
O17K C20K 1_555 1_555
O18G C27G 1_555 1_555
O19G C27G 1_555 1_555
O19K C27K 1_555 1_555
O19N C27N 1_555 1_555
C5G C6G 1_555 1_555
C5K C6K 1_555 1_555
C5N C6N 1_555 1_555
C10G C13G 1_555 1_555
C10N C13N 1_555 1_555
C10K C13K 1_555 1_555
C11G C12G 1_555 1_555
C11K C12K 1_555 1_555
C11N C12N 1_555 1_555
C16N C17N 1_555 1_555
C17K C20G 1_555 1_555
C17G C20N 1_555 1_555
C18G C19G 1_555 1_555
C18N C19N 1_555 1_555
C18K C19K 1_555 1_555
C23G C24G 1_555 1_555
C24K C27N 1_555 1_555
C24N C27K 1_555 1_555
C25K C26K 1_555 1_555
C25N C26N 1_555 1_555
C25G C26G 1_555 1_555
C31G C32G 1_555 1_555
C31K C32K 1_555 1_555
C31N C32N 1_555 1_555
C36N C37N 1_555 1_555
C36K C37K 1_555 1_555
C36G C37G 1_555 1_555
C41G C42G 1_555 1_555
C41N C42N 1_555 1_555
C41K C42K 1_555 1_555

#END
