
#######################################################################
#
#                 Cambridge Crystallographic Data Centre
#                                CCDC 
#
#######################################################################
#
# If this CIF has been generated from an entry in the Cambridge 
# Structural Database, then it will include bibliographic, chemical, 
# crystal, experimental, refinement or atomic coordinate data resulting 
# from the CCDC's data processing and validation procedures.
#
#######################################################################

data_JANZAA
_chemical_name_common            IRMOP-51t
_chemical_formula_moiety         
'C144 H108 Fe12 N12 O76 S12 8-,8(C2 H8 N1 1+),x(C3 H7 N1 O1),x(C5 H5 N1),x(H2 O1)'
_chemical_name_systematic        
"octakis(Dimethylammonium) hexakis(\m~4~-4,4'-biphenyldicarboxylato-O,O',O'',O''')-tetrakis(\m~3~-oxo)-dodecakis(\m~2~-sulfato-O,O')-dodecakis(pyridine-N)-dodeca-iron dimethylformamide pyridine clathrate hydrate"
_symmetry_cell_setting           triclinic
_symmetry_space_group_name_H-M   'P -1'
_symmetry_Int_Tables_number      2
_space_group_name_Hall           '-P 1'
loop_
_symmetry_equiv_pos_site_id
_symmetry_equiv_pos_as_xyz
1 x,y,z
2 -x,-y,-z
_cell_length_a                   25.8626(9)
_cell_length_b                   26.8359(9)
_cell_length_c                   28.1926(10)
_cell_angle_alpha                75.1380(10)
_cell_angle_beta                 88.5680(10)
_cell_angle_gamma                63.7830(10)
_cell_volume                     16878.6
_exptl_crystal_colour            orange
_exptl_crystal_description       block
_cell_formula_units_Z            2
loop_
_atom_site_label
_atom_site_type_symbol
_atom_site_fract_x
_atom_site_fract_y
_atom_site_fract_z
N13 N 0.4409(2) 0.0703(3) 0.0777(3)
C154 C 0.4651(3) 0.0177(3) 0.1138(2)
C155 C 0.5172(3) -0.0266(2) 0.1079(2)
C156 C 0.5450(2) -0.0185(3) 0.0659(3)
C157 C 0.5207(3) 0.0341(3) 0.0298(2)
C158 C 0.4687(3) 0.0785(2) 0.0357(2)
N14 N 0.6681(8) 0.2892(10) 0.8260(8)
C159 C 0.6325(11) 0.2642(7) 0.8455(9)
C160 C 0.5837(9) 0.2948(10) 0.8670(8)
C161 C 0.5706(8) 0.3503(10) 0.8690(8)
C162 C 0.6063(11) 0.3752(7) 0.8495(9)
C163 C 0.6550(9) 0.3447(11) 0.8280(8)
N15 N 0.6963(8) 0.1220(8) 0.9777(7)
C164 C 0.7535(9) 0.0971(9) 0.9979(6)
C165 C 0.7983(7) 0.0818(9) 0.9679(9)
C166 C 0.7859(10) 0.0914(10) 0.9177(9)
C167 C 0.7287(12) 0.1164(11) 0.8975(6)
C168 C 0.6839(8) 0.1316(9) 0.9275(8)
N16 N 0.8265(13) 0.6607(12) 0.4664(14)
C169 C 0.8706(19) 0.6307(18) 0.4405(8)
C170 C 0.9200(16) 0.5823(18) 0.4658(16)
C171 C 0.9253(14) 0.5639(14) 0.5170(16)
C172 C 0.8812(19) 0.5939(17) 0.5430(8)
C173 C 0.8318(14) 0.6423(16) 0.5177(14)
N17 N 0.3726(14) 0.4440(17) 0.3606(19)
C174 C 0.419(2) 0.403(2) 0.3952(10)
C175 C 0.4733(18) 0.3750(15) 0.3803(17)
C176 C 0.4821(14) 0.3888(18) 0.331(2)
C177 C 0.436(2) 0.430(2) 0.2961(11)
C178 C 0.3815(17) 0.4579(14) 0.3111(16)
N18 N 0.771(3) 0.358(3) 0.070(3)
C179 C 0.823(4) 0.340(3) 0.0498(19)
C180 C 0.872(2) 0.335(3) 0.074(3)
C181 C 0.868(3) 0.348(3) 0.119(3)
C182 C 0.816(4) 0.366(4) 0.140(2)
C183 C 0.767(3) 0.371(3) 0.115(3)
N19 N 1.036(2) 0.333(2) -0.1081(13)
C184 C 0.9889(16) 0.3520(17) -0.1421(17)
C185 C 0.9928(15) 0.3237(18) -0.1780(14)
C186 C 1.0442(19) 0.2760(17) -0.1798(13)
C187 C 1.0915(15) 0.2567(17) -0.1458(18)
C188 C 1.0876(17) 0.285(2) -0.1099(15)
N20 N 0.493(2) 0.841(2) 0.4152(12)
C189 C 0.5277(13) 0.782(3) 0.4324(17)
C190 C 0.506(2) 0.7462(15) 0.461(2)
C191 C 0.449(3) 0.770(3) 0.4731(17)
C192 C 0.4141(14) 0.829(3) 0.4559(17)
C193 C 0.436(2) 0.8644(15) 0.4269(17)
N22 N 1.031(3) 0.359(2) 0.3045(19)
C199 C 1.0655(19) 0.382(2) 0.3186(19)
C200 C 1.045(2) 0.418(2) 0.3490(18)
C201 C 0.991(3) 0.432(3) 0.365(3)
C202 C 0.956(2) 0.410(4) 0.351(3)
C203 C 0.977(3) 0.373(3) 0.321(3)
O77 O 1.1927 -0.2154 0.6898
C204 C 1.2350 -0.2333 0.7197
N23 N 1.2800 -0.2868 0.7242
C205 C 1.2879 -0.3295 0.6968
C206 C 1.3288 -0.3050 0.7610
O78 O 0.688(2) 0.561(2) 0.3423(15)
C207 C 0.6903(19) 0.546(2) 0.3045(17)
N24 N 0.7217(16) 0.5603(17) 0.2670(16)
C208 C 0.747(3) 0.592(3) 0.286(3)
C209 C 0.740(3) 0.544(3) 0.221(2)
O79 O 0.9126(19) 0.0353(19) 0.5250(18)
C210 C 0.9105(17) 0.0190(18) 0.4883(15)
N25 N 0.8815(17) -0.0141(16) 0.491(2)
C211 C 0.852(3) -0.029(3) 0.532(2)
C212 C 0.884(3) -0.023(3) 0.442(2)
O80 O 0.7192(19) -0.1227(19) 0.4442(18)
C213 C 0.7145(18) -0.0735(19) 0.4363(16)
N26 N 0.6934(15) -0.040(2) 0.4695(19)
C214 C 0.672(3) -0.057(3) 0.517(2)
C215 C 0.689(3) 0.018(2) 0.457(2)
O83 O 0.4952(8) 0.0928(8) 0.4020(7)
C222 C 0.5042(12) 0.0520(10) 0.3816(8)
N29 N 0.5067(11) 0.0122(10) 0.3568(8)
C223 C 0.4600(11) -0.0016(13) 0.3431(10)
C224 C 0.5629(11) -0.0366(13) 0.3803(11)
O84 O 1.1053(19) 0.5074(18) -0.0423(18)
C225 C 1.0657(18) 0.5565(19) -0.0502(16)
N30 N 1.0339(17) 0.5786(19) -0.0147(15)
C226 C 1.049(3) 0.543(3) 0.0367(18)
C227 C 0.989(2) 0.639(2) -0.028(2)
O85 O 0.5009(18) 0.418(2) 0.5356(15)
C228 C 0.554(2) 0.3856(19) 0.5404(19)
N31 N 0.590(2) 0.407(2) 0.5522(12)
C229 C 0.546(3) 0.465(3) 0.553(3)
C230 C 0.6498(19) 0.395(3) 0.567(2)
N33 N 0.4132(11) -0.0374(10) 0.1826(9)
C234 C 0.3603(14) -0.0409(13) 0.1606(11)
C235 C 0.4093(13) -0.0224(13) 0.2303(12)
N34 N 0.6045(11) 0.1628(12) 1.0273(9)
C236 C 0.5743(13) 0.1249(13) 1.0372(11)
C237 C 0.5705(14) 0.2152(15) 0.9996(11)
N37 N 0.7343(10) -0.0607(10) -0.0252(9)
C240 C 0.7409(12) -0.1198(10) -0.0219(11)
C241 C 0.6847(13) -0.0112(11) -0.0107(11)
N39 N 1.4467(11) 0.1554(12) 0.2110(9)
C242 C 1.4020(14) 0.2112(14) 0.1852(11)
C243 C 1.4484(13) 0.1025(14) 0.1996(11)
N41 N 0.8735(11) 0.2186(10) 0.8387(8)
C246 C 0.9072(11) 0.2447(13) 0.8592(11)
C247 C 0.8174(11) 0.2384(13) 0.8672(11)
N42 N 0.7141(10) 0.7921(11) 0.4884(9)
C248 C 0.6700(12) 0.7903(13) 0.5285(10)
C249 C 0.6770(13) 0.7906(13) 0.4439(10)
O87 O 0.842(3) 0.428(3) -0.103(2)
O88 O 1.142(3) 0.416(3) 0.654(2)
O89 O 0.410(3) 0.384(3) 0.137(2)
O91 O 0.497(3) 0.488(3) -0.031(2)
O92 O 0.923(3) -0.101(3) 0.628(2)
O93 O 1.040(3) 0.178(3) 0.007(2)
O94 O 0.984(3) -0.202(3) 0.649(2)
Fe1 Fe 0.62609(5) 0.78334(5) 0.12393(4)
Fe2 Fe 0.54714(5) 0.79537(5) 0.21976(4)
Fe3 Fe 0.67566(5) 0.79425(5) 0.22735(4)
Fe4 Fe 0.76841(6) 0.30131(6) 0.69173(5)
Fe5 Fe 1.20692(5) 0.25921(6) 0.15768(5)
Fe6 Fe 0.65191(6) 0.21153(6) 0.13950(5)
Fe7 Fe 0.57000(6) 0.21720(6) 0.23234(5)
Fe8 Fe 1.25655(6) 0.15343(6) 0.26255(5)
Fe9 Fe 0.89081(6) 0.31476(6) 0.69067(5)
Fe10 Fe 1.24686(6) 0.28238(6) 0.25802(5)
Fe11 Fe 0.89503(6) 0.18885(6) 0.69211(5)
Fe12 Fe 0.69802(6) 0.10242(6) 0.24156(5)
O1 O 0.8515(2) 0.2682(3) 0.6921(2)
O2 O 0.6161(2) 0.7924(2) 0.19001(19)
O3 O 1.2380(2) 0.2314(3) 0.2256(2)
O4 O 0.6398(2) 0.1766(2) 0.2046(2)
S1 S 0.99733(13) 0.19544(13) 0.74874(12)
O5 O 0.9615(3) 0.1672(3) 0.7396(2)
O6 O 0.9571(3) 0.2574(3) 0.7411(2)
O7 O 1.0223(5) 0.1708(4) 0.7996(4)
O8 O 1.0394(3) 0.1900(4) 0.7129(4)
S2 S 0.78899(14) 0.37957(15) 0.75207(12)
O9 O 0.7619(3) 0.3442(3) 0.7411(3)
O10 O 0.8513(3) 0.3517(3) 0.7428(2)
O11 O 0.7600(4) 0.4360(4) 0.7206(4)
O12 O 0.7862(4) 0.3788(5) 0.8023(3)
S3 S 0.79702(14) 0.17220(14) 0.75598(12)
O13 O 0.8586(3) 0.1562(3) 0.7448(2)
O14 O 0.7658(3) 0.2363(3) 0.7436(2)
O15 O 0.7708(4) 0.1521(4) 0.7249(4)
O16 O 0.7947(5) 0.1499(4) 0.8068(4)
S4 S 0.56700(10) 0.88061(10) 0.27198(9)
O17 O 0.5310(2) 0.8649(2) 0.2433(2)
O18 O 0.6259(3) 0.8596(3) 0.2540(2)
O19 O 0.5417(3) 0.9432(3) 0.2602(3)
O20 O 0.5725(4) 0.8523(4) 0.3229(3)
S5 S 0.69880(11) 0.85501(11) 0.12092(9)
O21 O 0.6538(3) 0.8435(2) 0.0999(2)
O22 O 0.6905(3) 0.8496(3) 0.1748(2)
O23 O 0.7558(3) 0.8129(3) 0.1156(3)
O24 O 0.6874(3) 0.9148(3) 0.0968(3)
S6 S 0.48764(10) 0.85033(10) 0.10801(8)
O25 O 0.5469(2) 0.8394(2) 0.0927(2)
O26 O 0.4905(2) 0.8498(2) 0.16159(19)
O27 O 0.4748(3) 0.8043(3) 0.1041(2)
O28 O 0.4462(3) 0.9063(3) 0.0802(2)
S7 S 1.27119(14) 0.33860(15) 0.15021(12)
O29 O 1.2545(3) 0.2990(3) 0.1328(2)
O30 O 1.2840(3) 0.3155(3) 0.2050(3)
O31 O 1.2237(4) 0.3965(4) 0.1374(3)
O32 O 1.3214(4) 0.3375(4) 0.1284(3)
S8 S 1.35611(13) 0.16531(15) 0.31746(13)
O33 O 1.3237(3) 0.2273(3) 0.2945(3)
O34 O 1.3339(3) 0.1352(3) 0.2916(3)
O35 O 1.3454(4) 0.1552(4) 0.3650(4)
O36 O 1.4179(3) 0.1458(4) 0.3104(4)
S9 S 1.28306(12) 0.12827(12) 0.15641(11)
O37 O 1.2941(3) 0.1150(3) 0.2115(3)
O38 O 1.2620(3) 0.1919(3) 0.1364(2)
O39 O 1.3370(4) 0.0976(3) 0.1376(3)
O40 O 1.2378(4) 0.1141(4) 0.1455(4)
S10 S 0.72264(13) 0.07992(12) 0.13445(11)
O41 O 0.7124(3) 0.0637(3) 0.1874(3)
O42 O 0.6808(3) 0.1425(3) 0.1131(2)
O43 O 0.7804(3) 0.0721(4) 0.1315(3)
O44 O 0.7068(4) 0.0469(4) 0.1093(3)
S11 S 0.58774(11) 0.08831(11) 0.28668(11)
O45 O 0.6458(3) 0.0671(3) 0.2658(3)
O46 O 0.5527(3) 0.1504(3) 0.2577(3)
O47 O 0.5944(4) 0.0840(4) 0.3380(3)
O48 O 0.5589(3) 0.0562(3) 0.2757(3)
S12 S 0.52022(16) 0.2340(3) 0.12530(15)
O49 O 0.5746(3) 0.2347(3) 0.1066(2)
O50 O 0.5143(3) 0.2437(3) 0.1734(3)
O51 O 0.5309(7) 0.1671(6) 0.1360(6)
O52 O 0.4727(4) 0.2672(5) 0.0920(3)
O53 O 0.7546(3) 0.2689(4) 0.6384(3)
O54 O 0.8397(3) 0.1933(3) 0.6399(2)
O55 O 0.6116(3) 0.2027(3) 0.2975(3)
O56 O 0.6968(3) 0.1253(3) 0.3049(2)
C1 C 0.6594(5) 0.1652(5) 0.3209(4)
C2 C 0.6741(5) 0.1685(5) 0.3699(5)
C3 C 0.7306(9) 0.1355(9) 0.3914(8)
C5 C 0.7468(11) 0.1419(11) 0.4351(9)
C7 C 0.7115(13) 0.1892(13) 0.4519(11)
C9 C 0.6571(11) 0.2276(11) 0.4266(9)
C11 C 0.6388(6) 0.2145(7) 0.3860(5)
C12 C 0.7886(5) 0.2247(5) 0.6238(4)
C13 C 0.7627(5) 0.2120(6) 0.5848(5)
C14 C 0.7141(12) 0.2558(12) 0.5540(10)
C16 C 0.6972(13) 0.2454(13) 0.5113(11)
C18 C 0.7264(10) 0.1955(10) 0.4989(8)
C20 C 0.7821(17) 0.1606(17) 0.5191(14)
C22 C 0.8014(12) 0.1673(12) 0.5676(10)
O57 O 0.7528(3) 0.3719(3) 0.6354(3)
O58 O 0.8349(3) 0.3825(3) 0.6366(2)
O59 O 0.5870(3) 0.7415(3) 0.2868(2)
O60 O 0.6746(3) 0.7376(3) 0.2900(2)
C24 C 0.6366(4) 0.7236(4) 0.3075(3)
C25 C 0.6534(4) 0.6792(4) 0.3562(4)
C26 C 0.7059(6) 0.6594(7) 0.3813(5)
H1 H 0.7295 0.6767 0.3690
C27 C 0.7256(6) 0.6151(7) 0.4238(5)
H2 H 0.7640 0.5992 0.4369
C28 C 0.6898(5) 0.5938(5) 0.4475(4)
C29 C 0.6368(6) 0.6144(6) 0.4213(5)
H3 H 0.6116 0.5995 0.4345
C30 C 0.6195(5) 0.6552(6) 0.3773(5)
H4 H 0.5834 0.6669 0.3612
C31 C 0.7833(5) 0.3979(4) 0.6195(4)
C32 C 0.7567(4) 0.4496(5) 0.5770(3)
C33 C 0.7064(6) 0.4648(6) 0.5520(5)
H5 H 0.6856 0.4441 0.5635
C34 C 0.6841(6) 0.5107(7) 0.5093(5)
H6 H 0.6509 0.5175 0.4913
C35 C 0.7101(5) 0.5461(5) 0.4932(4)
C36 C 0.7602(5) 0.5330(5) 0.5225(4)
H7 H 0.7781 0.5571 0.5144
C37 C 0.7837(6) 0.4844(5) 0.5640(4)
H8 H 0.8174 0.4760 0.5823
O61 O 0.9393(3) 0.2895(3) 0.6352(2)
O62 O 0.9406(3) 0.2058(3) 0.6354(3)
O63 O 1.2197(3) 0.1722(3) 0.3234(3)
O64 O 1.2078(3) 0.2617(3) 0.3180(3)
C38 C 1.2035(5) 0.2161(7) 0.3392(4)
C39 C 1.1733(5) 0.2168(6) 0.3854(4)
C40 C 1.1656(8) 0.1716(7) 0.4103(6)
H9 H 1.1804 0.1390 0.3987
C41 C 1.1370(8) 0.1700(8) 0.4527(7)
H10 H 1.1345 0.1367 0.4697
C42 C 1.1126(6) 0.2188(6) 0.4689(5)
C43 C 1.1213(7) 0.2657(8) 0.4439(6)
H11 H 1.1077 0.2983 0.4554
C44 C 1.1505(7) 0.2643(7) 0.4015(5)
H12 H 1.1542 0.2968 0.3842
C45 C 0.9564(4) 0.2438(4) 0.6213(3)
C46 C 0.9995(5) 0.2363(5) 0.5847(4)
C47 C 1.0157(7) 0.1919(6) 0.5630(6)
H13 H 1.0014 0.1650 0.5735
C48 C 1.0525(7) 0.1859(7) 0.5261(5)
H14 H 1.0609 0.1563 0.5112
C49 C 1.0767(6) 0.2230(6) 0.5111(5)
C50 C 1.0637(7) 0.2652(7) 0.5353(6)
H15 H 1.0816 0.2893 0.5279
C51 C 1.0249(7) 0.2724(7) 0.5701(5)
H16 H 1.0155 0.3027 0.5842
O65 O 0.7336(3) 0.1954(3) 0.1585(3)
O66 O 0.7649(3) 0.1216(3) 0.2265(3)
O67 O 1.1804(3) 0.1582(3) 0.2417(3)
O68 O 1.1486(3) 0.2267(3) 0.1707(3)
C52 C 0.7720(5) 0.1575(5) 0.1931(5)
C53 C 0.8281(5) 0.1594(5) 0.1927(5)
C54 C 0.8731(6) 0.1205(7) 0.2262(6)
H17 H 0.8703 0.0901 0.2488
C55 C 0.9243(6) 0.1263(8) 0.2266(7)
H18 H 0.9534 0.1009 0.2519
C56 C 0.9345(6) 0.1655(6) 0.1934(5)
C57 C 0.8897(7) 0.2033(8) 0.1595(6)
H19 H 0.8923 0.2344 0.1376
C58 C 0.8385(6) 0.1966(7) 0.1564(6)
H20 H 0.8116 0.2182 0.1288
C59 C 1.1449(4) 0.1893(5) 0.2046(5)
C60 C 1.0903(4) 0.1815(6) 0.2002(4)
C61 C 1.0817(6) 0.1428(7) 0.2345(6)
H21 H 1.1094 0.1197 0.2613
C62 C 1.0316(7) 0.1360(7) 0.2311(6)
H22 H 1.0278 0.1070 0.2551
C63 C 0.9892(5) 0.1691(6) 0.1950(5)
C64 C 0.9993(6) 0.2081(9) 0.1608(6)
H23 H 0.9713 0.2325 0.1344
C65 C 1.0501(6) 0.2131(8) 0.1636(6)
H24 H 1.0557 0.2399 0.1385
O69 O 0.7406(3) 0.7267(3) 0.2109(2)
O70 O 0.7088(3) 0.7198(3) 0.1410(2)
O71 O 1.1678(3) 0.3487(3) 0.2313(3)
O72 O 1.1402(3) 0.3340(3) 0.1630(3)
C66 C 0.7473(4) 0.7057(4) 0.1751(4)
C67 C 0.8055(4) 0.6568(4) 0.1744(4)
C68 C 0.8163(5) 0.6295(5) 0.1395(4)
H25 H 0.7878 0.6418 0.1138
C69 C 0.8712(5) 0.5813(5) 0.1410(4)
H26 H 0.8771 0.5609 0.1176
C70 C 0.9149(4) 0.5650(5) 0.1761(4)
C71 C 0.9032(5) 0.5948(7) 0.2106(6)
H27 H 0.9322 0.5847 0.2352
C72 C 0.8489(5) 0.6399(6) 0.2100(5)
H28 H 0.8421 0.6590 0.2345
C73 C 1.1333(4) 0.3619(4) 0.1940(4)
C74 C 1.0776(4) 0.4159(4) 0.1877(4)
C75 C 1.0364(6) 0.4328(6) 0.1515(6)
H29 H 1.0437 0.4113 0.1288
C76 C 0.9827(6) 0.4811(7) 0.1460(6)
H30 H 0.9552 0.4915 0.1199
C77 C 0.9707(5) 0.5136(5) 0.1799(5)
C78 C 1.0132(6) 0.4967(7) 0.2159(6)
H31 H 1.0067 0.5171 0.2394
C79 C 1.0674(6) 0.4485(6) 0.2186(6)
H32 H 1.0966 0.4393 0.2426
O73 O 0.6037(3) 0.7181(2) 0.1386(2)
O74 O 0.5512(3) 0.7252(2) 0.2035(2)
O75 O 0.6268(3) 0.2902(3) 0.1500(3)
O76 O 0.5732(3) 0.2934(3) 0.2136(3)
C80 C 0.5969(5) 0.3144(4) 0.1813(4)
C81 C 0.5910(5) 0.3727(5) 0.1792(4)
C82 C 0.5524(7) 0.4062(5) 0.2047(5)
H33 H 0.5296 0.3924 0.2245
C83 C 0.5465(8) 0.4618(6) 0.2014(6)
H34 H 0.5182 0.4855 0.2175
C84 C 0.5826(6) 0.4813(5) 0.1745(5)
C85 C 0.6184(7) 0.4479(6) 0.1493(6)
H35 H 0.6407 0.4615 0.1288
C86 C 0.6242(7) 0.3942(6) 0.1519(6)
H36 H 0.6517 0.3717 0.1345
C87 C 0.5762(4) 0.7015(4) 0.1701(4)
C88 C 0.5756(5) 0.6457(4) 0.1716(4)
C89 C 0.5547(5) 0.6179(4) 0.2098(4)
H37 H 0.5392 0.6342 0.2354
C90 C 0.5573(6) 0.5659(5) 0.2091(5)
H38 H 0.5439 0.5474 0.2353
C91 C 0.5781(6) 0.5398(5) 0.1729(5)
C92 C 0.5942(7) 0.5696(6) 0.1334(6)
H39 H 0.6059 0.5543 0.1066
C93 C 0.5935(7) 0.6217(5) 0.1320(5)
H40 H 0.6050 0.6408 0.1047
N1 N 0.9430(4) 0.1000(4) 0.6848(3)
C94 C 0.9160(6) 0.0683(6) 0.6828(5)
H41 H 0.8770 0.0821 0.6878
C95 C 0.9453(10) 0.0142(7) 0.6734(7)
H42 H 0.9256 -0.0075 0.6729
C96 C 0.9994(11) -0.0062(8) 0.6653(7)
H43 H 1.0189 -0.0412 0.6576
C97 C 1.0262(9) 0.0272(9) 0.6689(8)
H44 H 1.0657 0.0132 0.6658
C98 C 0.9968(7) 0.0794(6) 0.6766(5)
H45 H 1.0160 0.1018 0.6760
N2 N 0.9342(4) 0.3712(4) 0.6830(3)
C99 C 0.9920(6) 0.3497(6) 0.6797(5)
H46 H 1.0124 0.3105 0.6822
C100 C 1.0231(7) 0.3814(7) 0.6730(6)
H47 H 1.0628 0.3649 0.6703
C101 C 0.9917(9) 0.4380(10) 0.6707(6)
H48 H 1.0107 0.4610 0.6668
C102 C 0.9280(9) 0.4652(7) 0.6742(6)
H49 H 0.9065 0.5042 0.6720
C103 C 0.9035(6) 0.4275(5) 0.6811(4)
H50 H 0.8641 0.4417 0.6845
N3 N 0.6721(4) 0.3410(4) 0.6890(3)
C104 C 0.6433(6) 0.3961(8) 0.6892(6)
H51 H 0.6632 0.4176 0.6898
C105 C 0.5823(7) 0.4217(8) 0.6885(7)
H52 H 0.5613 0.4604 0.6875
C106 C 0.5548(7) 0.3876(9) 0.6893(8)
H53 H 0.5150 0.4024 0.6913
C107 C 0.5845(6) 0.3353(7) 0.6873(8)
H54 H 0.5659 0.3132 0.6844
C108 C 0.6454(6) 0.3115(6) 0.6893(5)
H55 H 0.6666 0.2725 0.6910
N4 N 1.2731(5) 0.0641(4) 0.3059(4)
C109 C 1.2998(8) 0.0426(7) 0.3508(6)
H56 H 1.3148 0.0612 0.3658
C110 C 1.3031(13) -0.0180(11) 0.3759(10)
H57 H 1.3148 -0.0330 0.4095
C111 C 1.2917(16) -0.0478(11) 0.3550(12)
H58 H 1.2999 -0.0857 0.3711
C112 C 1.2680(10) -0.0243(8) 0.3102(8)
H59 H 1.2566 -0.0449 0.2944
C113 C 1.2589(7) 0.0320(6) 0.2844(7)
H60 H 1.2426 0.0472 0.2517
N5 N 1.2474(4) 0.3456(4) 0.2950(4)
C114 C 1.2364(5) 0.3990(6) 0.2682(5)
H61 H 1.2300 0.4072 0.2342
C115 C 1.2337(7) 0.4418(7) 0.2864(7)
H62 H 1.2250 0.4782 0.2658
C116 C 1.2442(8) 0.4299(9) 0.3358(10)
H63 H 1.2429 0.4584 0.3495
C117 C 1.2566(7) 0.3765(9) 0.3657(6)
H64 H 1.2639 0.3678 0.3997
C118 C 1.2579(6) 0.3340(6) 0.3425(5)
H65 H 1.2664 0.2971 0.3621
N6 N 1.1669(4) 0.2904(4) 0.0810(3)
C119 C 1.1565(5) 0.2565(6) 0.0612(4)
H66 H 1.1661 0.2190 0.0799
C120 C 1.1316(7) 0.2748(8) 0.0132(6)
H67 H 1.1215 0.2510 0.0008
C121 C 1.1214(8) 0.3302(9) -0.0171(6)
H68 H 1.1064 0.3429 -0.0499
C122 C 1.1339(8) 0.3622(8) 0.0029(6)
H69 H 1.1288 0.3983 -0.0162
C123 C 1.1558(6) 0.3432(6) 0.0543(4)
H70 H 1.1622 0.3679 0.0686
N7 N 0.7669(4) 0.0190(4) 0.2838(4)
C124 C 0.8130(5) -0.0107(5) 0.2636(6)
H71 H 0.8172 0.0057 0.2313
C125 C 0.8549(7) -0.0646(8) 0.2879(8)
H72 H 0.8859 -0.0842 0.2715
C126 C 0.8523(7) -0.0887(7) 0.3331(9)
H73 H 0.8817 -0.1248 0.3492
C127 C 0.8057(8) -0.0607(7) 0.3577(6)
H74 H 0.8028 -0.0770 0.3904
C128 C 0.7614(6) -0.0040(6) 0.3292(6)
H75 H 0.7287 0.0159 0.3437
N8 N 0.4942(3) 0.2631(4) 0.2638(3)
C129 C 0.4808(4) 0.2357(4) 0.3081(3)
H76 H 0.5055 0.1970 0.3229
C130 C 0.4327(6) 0.2632(7) 0.3308(4)
H77 H 0.4241 0.2481 0.3617
C131 C 0.3920(4) 0.3299(6) 0.2921(6)
H78 H 0.3578 0.3546 0.3020
C132 C 0.4055(5) 0.3453(4) 0.2537(6)
H79 H 0.3780 0.3796 0.2328
C133 C 0.4631(6) 0.3157(4) 0.2341(4)
H80 H 0.4749 0.3320 0.2053
N9 N 0.6678(5) 0.2539(5) 0.0659(4)
C134 C 0.6299(7) 0.3051(7) 0.0388(5)
H81 H 0.5955 0.3240 0.0519
C135 C 0.6372(10) 0.3324(10) -0.0067(7)
H82 H 0.6107 0.3698 -0.0233
C136 C 0.6863(13) 0.3013(12) -0.0266(8)
H83 H 0.6914 0.3167 -0.0589
C137 C 0.7275(9) 0.2489(11) -0.0005(8)
H84 H 0.7614 0.2283 -0.0135
C138 C 0.7159(7) 0.2276(7) 0.0470(6)
H85 H 0.7442 0.1927 0.0665
N10 N 0.6414(3) 0.7682(3) 0.0507(3)
C139 C 0.6881(4) 0.7688(4) 0.0296(3)
H86 H 0.7145 0.7743 0.0469
C140 C 0.6984(5) 0.7616(6) -0.0169(4)
H87 H 0.7312 0.7620 -0.0308
C141 C 0.6595(6) 0.7537(6) -0.0425(5)
H88 H 0.6661 0.7480 -0.0738
C142 C 0.6111(5) 0.7543(5) -0.0217(4)
H89 H 0.5836 0.7499 -0.0387
C143 C 0.6038(4) 0.7616(4) 0.0255(4)
H90 H 0.5710 0.7618 0.0399
N11 N 0.7488(3) 0.7911(4) 0.2712(3)
C144 C 0.7455(6) 0.7942(6) 0.3160(4)
H91 H 0.7111 0.8005 0.3302
C145 C 0.7939(8) 0.7882(8) 0.3444(6)
H92 H 0.7926 0.7864 0.3778
C146 C 0.8430(6) 0.7851(7) 0.3216(8)
H93 H 0.8745 0.7830 0.3388
C147 C 0.8439(6) 0.7852(6) 0.2745(6)
H94 H 0.8753 0.7848 0.2574
C148 C 0.7973(4) 0.7859(5) 0.2516(5)
H95 H 0.8001 0.7824 0.2196
N12 N 0.4675(3) 0.8010(3) 0.2538(3)
C149 C 0.4243(4) 0.8009(4) 0.2288(4)
H96 H 0.4300 0.7936 0.1981
C150 C 0.3707(5) 0.8115(6) 0.2471(5)
H97 H 0.3416 0.8113 0.2286
C151 C 0.3614(6) 0.8222(6) 0.2928(5)
H98 H 0.3256 0.8308 0.3050
C152 C 0.4069(6) 0.8198(6) 0.3197(5)
H99 H 0.4027 0.8250 0.3511
C153 C 0.4589(4) 0.8093(5) 0.2990(4)
H100 H 0.4891 0.8080 0.3173
loop_
_geom_bond_atom_site_label_1
_geom_bond_atom_site_label_2
_geom_bond_site_symmetry_1
_geom_bond_site_symmetry_2
Fe1 O2 1_555 1_555
Fe2 O2 1_555 1_555
Fe3 O2 1_555 1_555
Fe4 O1 1_555 1_555
Fe5 O3 1_555 1_555
Fe6 O4 1_555 1_555
Fe7 O4 1_555 1_555
Fe8 O3 1_555 1_555
Fe9 O1 1_555 1_555
Fe10 O3 1_555 1_555
Fe11 O1 1_555 1_555
Fe12 O4 1_555 1_555
S1 O5 1_555 1_555
O5 Fe11 1_555 1_555
O6 Fe9 1_555 1_555
O7 S1 1_555 1_555
O8 S1 1_555 1_555
S2 O9 1_555 1_555
O9 Fe4 1_555 1_555
O10 Fe9 1_555 1_555
O11 S2 1_555 1_555
O12 S2 1_555 1_555
S3 O13 1_555 1_555
O13 Fe11 1_555 1_555
O14 Fe4 1_555 1_555
O15 S3 1_555 1_555
O16 S3 1_555 1_555
S4 O17 1_555 1_555
O17 Fe2 1_555 1_555
O18 Fe3 1_555 1_555
O19 S4 1_555 1_555
O20 S4 1_555 1_555
S5 O21 1_555 1_555
O21 Fe1 1_555 1_555
O22 Fe3 1_555 1_555
O23 S5 1_555 1_555
O24 S5 1_555 1_555
S6 O25 1_555 1_555
O25 Fe1 1_555 1_555
O26 Fe2 1_555 1_555
O27 S6 1_555 1_555
O28 S6 1_555 1_555
S7 O29 1_555 1_555
O29 Fe5 1_555 1_555
O30 Fe10 1_555 1_555
O31 S7 1_555 1_555
O32 S7 1_555 1_555
S8 O33 1_555 1_555
O33 Fe10 1_555 1_555
O34 Fe8 1_555 1_555
O35 S8 1_555 1_555
O36 S8 1_555 1_555
S9 O37 1_555 1_555
O37 Fe8 1_555 1_555
O38 Fe5 1_555 1_555
O39 S9 1_555 1_555
O40 S9 1_555 1_555
S10 O41 1_555 1_555
O41 Fe12 1_555 1_555
O42 Fe6 1_555 1_555
O43 S10 1_555 1_555
O44 S10 1_555 1_555
S11 O45 1_555 1_555
O45 Fe12 1_555 1_555
O46 Fe7 1_555 1_555
O47 S11 1_555 1_555
O48 S11 1_555 1_555
S12 O49 1_555 1_555
O49 Fe6 1_555 1_555
O50 Fe7 1_555 1_555
O51 S12 1_555 1_555
O52 S12 1_555 1_555
O53 Fe4 1_555 1_555
O54 Fe11 1_555 1_555
O55 Fe7 1_555 1_555
O56 Fe12 1_555 1_555
C1 O55 1_555 1_555
C2 C1 1_555 1_555
C3 C2 1_555 1_555
C5 C3 1_555 1_555
C7 C5 1_555 1_555
C9 C7 1_555 1_555
C11 C2 1_555 1_555
C12 O53 1_555 1_555
C13 C12 1_555 1_555
C14 C13 1_555 1_555
C16 C14 1_555 1_555
C18 C7 1_555 1_555
C20 C18 1_555 1_555
C22 C13 1_555 1_555
O57 Fe4 1_555 1_555
O58 Fe9 1_555 1_555
O59 Fe2 1_555 1_555
O60 Fe3 1_555 1_555
C24 O59 1_555 1_555
C25 C24 1_555 1_555
C26 C25 1_555 1_555
H1 C26 1_555 1_555
C27 C26 1_555 1_555
H2 C27 1_555 1_555
C28 C27 1_555 1_555
C29 C28 1_555 1_555
H3 C29 1_555 1_555
C30 C25 1_555 1_555
H4 C30 1_555 1_555
C31 O57 1_555 1_555
C32 C31 1_555 1_555
C33 C32 1_555 1_555
H5 C33 1_555 1_555
C34 C33 1_555 1_555
H6 C34 1_555 1_555
C35 C28 1_555 1_555
C36 C35 1_555 1_555
H7 C36 1_555 1_555
C37 C32 1_555 1_555
H8 C37 1_555 1_555
O61 Fe9 1_555 1_555
O62 Fe11 1_555 1_555
O63 Fe8 1_555 1_555
O64 Fe10 1_555 1_555
C38 O63 1_555 1_555
C39 C38 1_555 1_555
C40 C39 1_555 1_555
H9 C40 1_555 1_555
C41 C40 1_555 1_555
H10 C41 1_555 1_555
C42 C41 1_555 1_555
C43 C42 1_555 1_555
H11 C43 1_555 1_555
C44 C39 1_555 1_555
H12 C44 1_555 1_555
C45 O61 1_555 1_555
C46 C45 1_555 1_555
C47 C46 1_555 1_555
H13 C47 1_555 1_555
C48 C47 1_555 1_555
H14 C48 1_555 1_555
C49 C42 1_555 1_555
C50 C49 1_555 1_555
H15 C50 1_555 1_555
C51 C46 1_555 1_555
H16 C51 1_555 1_555
O65 Fe6 1_555 1_555
O66 Fe12 1_555 1_555
O67 Fe8 1_555 1_555
O68 Fe5 1_555 1_555
C52 O65 1_555 1_555
C53 C52 1_555 1_555
C54 C53 1_555 1_555
H17 C54 1_555 1_555
C55 C54 1_555 1_555
H18 C55 1_555 1_555
C56 C55 1_555 1_555
C57 C56 1_555 1_555
H19 C57 1_555 1_555
C58 C53 1_555 1_555
H20 C58 1_555 1_555
C59 O67 1_555 1_555
C60 C59 1_555 1_555
C61 C60 1_555 1_555
H21 C61 1_555 1_555
C62 C61 1_555 1_555
H22 C62 1_555 1_555
C63 C56 1_555 1_555
C64 C63 1_555 1_555
H23 C64 1_555 1_555
C65 C60 1_555 1_555
H24 C65 1_555 1_555
O69 Fe3 1_555 1_555
O70 Fe1 1_555 1_555
O71 Fe10 1_555 1_555
O72 Fe5 1_555 1_555
C66 O69 1_555 1_555
C67 C66 1_555 1_555
C68 C67 1_555 1_555
H25 C68 1_555 1_555
C69 C68 1_555 1_555
H26 C69 1_555 1_555
C70 C69 1_555 1_555
C71 C70 1_555 1_555
H27 C71 1_555 1_555
C72 C67 1_555 1_555
H28 C72 1_555 1_555
C73 O71 1_555 1_555
C74 C73 1_555 1_555
C75 C74 1_555 1_555
H29 C75 1_555 1_555
C76 C75 1_555 1_555
H30 C76 1_555 1_555
C77 C70 1_555 1_555
C78 C77 1_555 1_555
H31 C78 1_555 1_555
C79 C74 1_555 1_555
H32 C79 1_555 1_555
O73 Fe1 1_555 1_555
O74 Fe2 1_555 1_555
O75 Fe6 1_555 1_555
O76 Fe7 1_555 1_555
C80 O75 1_555 1_555
C81 C80 1_555 1_555
C82 C81 1_555 1_555
H33 C82 1_555 1_555
C83 C82 1_555 1_555
H34 C83 1_555 1_555
C84 C83 1_555 1_555
C85 C84 1_555 1_555
H35 C85 1_555 1_555
C86 C81 1_555 1_555
H36 C86 1_555 1_555
C87 O73 1_555 1_555
C88 C87 1_555 1_555
C89 C88 1_555 1_555
H37 C89 1_555 1_555
C90 C89 1_555 1_555
H38 C90 1_555 1_555
C91 C84 1_555 1_555
C92 C91 1_555 1_555
H39 C92 1_555 1_555
C93 C88 1_555 1_555
H40 C93 1_555 1_555
N1 Fe11 1_555 1_555
C94 N1 1_555 1_555
H41 C94 1_555 1_555
C95 C94 1_555 1_555
H42 C95 1_555 1_555
C96 C95 1_555 1_555
H43 C96 1_555 1_555
C97 C96 1_555 1_555
H44 C97 1_555 1_555
C98 N1 1_555 1_555
H45 C98 1_555 1_555
N2 Fe9 1_555 1_555
C99 N2 1_555 1_555
H46 C99 1_555 1_555
C100 C99 1_555 1_555
H47 C100 1_555 1_555
C101 C100 1_555 1_555
H48 C101 1_555 1_555
C102 C101 1_555 1_555
H49 C102 1_555 1_555
C103 N2 1_555 1_555
H50 C103 1_555 1_555
N3 Fe4 1_555 1_555
C104 N3 1_555 1_555
H51 C104 1_555 1_555
C105 C104 1_555 1_555
H52 C105 1_555 1_555
C106 C105 1_555 1_555
H53 C106 1_555 1_555
C107 C106 1_555 1_555
H54 C107 1_555 1_555
C108 N3 1_555 1_555
H55 C108 1_555 1_555
N4 Fe8 1_555 1_555
C109 N4 1_555 1_555
H56 C109 1_555 1_555
C110 C109 1_555 1_555
H57 C110 1_555 1_555
C111 C110 1_555 1_555
H58 C111 1_555 1_555
C112 C111 1_555 1_555
H59 C112 1_555 1_555
C113 N4 1_555 1_555
H60 C113 1_555 1_555
N5 Fe10 1_555 1_555
C114 N5 1_555 1_555
H61 C114 1_555 1_555
C115 C114 1_555 1_555
H62 C115 1_555 1_555
C116 C115 1_555 1_555
H63 C116 1_555 1_555
C117 C116 1_555 1_555
H64 C117 1_555 1_555
C118 N5 1_555 1_555
H65 C118 1_555 1_555
N6 Fe5 1_555 1_555
C119 N6 1_555 1_555
H66 C119 1_555 1_555
C120 C119 1_555 1_555
H67 C120 1_555 1_555
C121 C120 1_555 1_555
H68 C121 1_555 1_555
C122 C121 1_555 1_555
H69 C122 1_555 1_555
C123 N6 1_555 1_555
H70 C123 1_555 1_555
N7 Fe12 1_555 1_555
C124 N7 1_555 1_555
H71 C124 1_555 1_555
C125 C124 1_555 1_555
H72 C125 1_555 1_555
C126 C125 1_555 1_555
H73 C126 1_555 1_555
C127 C126 1_555 1_555
H74 C127 1_555 1_555
C128 N7 1_555 1_555
H75 C128 1_555 1_555
N8 Fe7 1_555 1_555
C129 N8 1_555 1_555
H76 C129 1_555 1_555
C130 C129 1_555 1_555
H77 C130 1_555 1_555
C131 C130 1_555 1_555
H78 C131 1_555 1_555
C132 C131 1_555 1_555
H79 C132 1_555 1_555
C133 N8 1_555 1_555
H80 C133 1_555 1_555
N9 Fe6 1_555 1_555
C134 N9 1_555 1_555
H81 C134 1_555 1_555
C135 C134 1_555 1_555
H82 C135 1_555 1_555
C136 C135 1_555 1_555
H83 C136 1_555 1_555
C137 C136 1_555 1_555
H84 C137 1_555 1_555
C138 N9 1_555 1_555
H85 C138 1_555 1_555
N10 Fe1 1_555 1_555
C139 N10 1_555 1_555
H86 C139 1_555 1_555
C140 C139 1_555 1_555
H87 C140 1_555 1_555
C141 C140 1_555 1_555
H88 C141 1_555 1_555
C142 C141 1_555 1_555
H89 C142 1_555 1_555
C143 N10 1_555 1_555
H90 C143 1_555 1_555
N11 Fe3 1_555 1_555
C144 N11 1_555 1_555
H91 C144 1_555 1_555
C145 C144 1_555 1_555
H92 C145 1_555 1_555
C146 C145 1_555 1_555
H93 C146 1_555 1_555
C147 C146 1_555 1_555
H94 C147 1_555 1_555
C148 N11 1_555 1_555
H95 C148 1_555 1_555
N12 Fe2 1_555 1_555
C149 N12 1_555 1_555
H96 C149 1_555 1_555
C150 C149 1_555 1_555
H97 C150 1_555 1_555
C151 C150 1_555 1_555
H98 C151 1_555 1_555
C152 C151 1_555 1_555
H99 C152 1_555 1_555
C153 N12 1_555 1_555
H100 C153 1_555 1_555
N13 C154 1_555 1_555
C154 C155 1_555 1_555
C155 C156 1_555 1_555
C156 C157 1_555 1_555
C157 C158 1_555 1_555
C158 N13 1_555 1_555
N14 C159 1_555 1_555
C159 C160 1_555 1_555
C160 C161 1_555 1_555
C161 C162 1_555 1_555
C162 C163 1_555 1_555
C163 N14 1_555 1_555
N15 C164 1_555 1_555
C164 C165 1_555 1_555
C165 C166 1_555 1_555
C166 C167 1_555 1_555
C167 C168 1_555 1_555
C168 N15 1_555 1_555
N16 C169 1_555 1_555
C169 C170 1_555 1_555
C170 C171 1_555 1_555
C171 C172 1_555 1_555
C172 C173 1_555 1_555
C173 N16 1_555 1_555
N17 C174 1_555 1_555
C174 C175 1_555 1_555
C175 C176 1_555 1_555
C176 C177 1_555 1_555
C177 C178 1_555 1_555
C178 N17 1_555 1_555
N18 C179 1_555 1_555
C179 C180 1_555 1_555
C180 C181 1_555 1_555
C181 C182 1_555 1_555
C182 C183 1_555 1_555
C183 N18 1_555 1_555
N19 C184 1_555 1_555
C184 C185 1_555 1_555
C185 C186 1_555 1_555
C186 C187 1_555 1_555
C187 C188 1_555 1_555
C188 N19 1_555 1_555
N20 C189 1_555 1_555
C189 C190 1_555 1_555
C190 C191 1_555 1_555
C191 C192 1_555 1_555
C192 C193 1_555 1_555
C193 N20 1_555 1_555
N22 C199 1_555 1_555
C199 C200 1_555 1_555
C200 C201 1_555 1_555
C201 C202 1_555 1_555
C202 C203 1_555 1_555
C203 N22 1_555 1_555
O77 C204 1_555 1_555
C204 N23 1_555 1_555
N23 C205 1_555 1_555
C206 N23 1_555 1_555
O78 C207 1_555 1_555
C207 N24 1_555 1_555
N24 C208 1_555 1_555
C209 N24 1_555 1_555
O79 C210 1_555 1_555
C210 N25 1_555 1_555
N25 C211 1_555 1_555
C212 N25 1_555 1_555
O80 C213 1_555 1_555
C213 N26 1_555 1_555
N26 C214 1_555 1_555
C215 N26 1_555 1_555
O83 C222 1_555 1_555
C222 N29 1_555 1_555
N29 C223 1_555 1_555
C224 N29 1_555 1_555
O84 C225 1_555 1_555
C225 N30 1_555 1_555
N30 C226 1_555 1_555
C227 N30 1_555 1_555
O85 C228 1_555 1_555
C228 N31 1_555 1_555
N31 C229 1_555 1_555
C230 N31 1_555 1_555
N33 C234 1_555 1_555
C235 N33 1_555 1_555
N34 C236 1_555 1_555
C237 N34 1_555 1_555
N37 C240 1_555 1_555
C241 N37 1_555 1_555
N39 C242 1_555 1_555
C243 N39 1_555 1_555
N41 C246 1_555 1_555
C247 N41 1_555 1_555
N42 C248 1_555 1_555
C249 N42 1_555 1_555
S1 O6 1_555 1_555
S2 O10 1_555 1_555
S3 O14 1_555 1_555
S4 O18 1_555 1_555
S5 O22 1_555 1_555
S6 O26 1_555 1_555
S7 O30 1_555 1_555
S8 O34 1_555 1_555
S9 O38 1_555 1_555
S10 O42 1_555 1_555
S11 O46 1_555 1_555
S12 O50 1_555 1_555
O54 C12 1_555 1_555
O56 C1 1_555 1_555
C9 C11 1_555 1_555
C16 C18 1_555 1_555
C20 C22 1_555 1_555
O58 C31 1_555 1_555
O60 C24 1_555 1_555
C29 C30 1_555 1_555
C34 C35 1_555 1_555
C36 C37 1_555 1_555
O62 C45 1_555 1_555
O64 C38 1_555 1_555
C43 C44 1_555 1_555
C48 C49 1_555 1_555
C50 C51 1_555 1_555
O66 C52 1_555 1_555
O68 C59 1_555 1_555
C57 C58 1_555 1_555
C62 C63 1_555 1_555
C64 C65 1_555 1_555
O70 C66 1_555 1_555
O72 C73 1_555 1_555
C71 C72 1_555 1_555
C76 C77 1_555 1_555
C78 C79 1_555 1_555
O74 C87 1_555 1_555
O76 C80 1_555 1_555
C85 C86 1_555 1_555
C90 C91 1_555 1_555
C92 C93 1_555 1_555
C97 C98 1_555 1_555
C102 C103 1_555 1_555
C107 C108 1_555 1_555
C112 C113 1_555 1_555
C117 C118 1_555 1_555
C122 C123 1_555 1_555
C127 C128 1_555 1_555
C132 C133 1_555 1_555
C137 C138 1_555 1_555
C142 C143 1_555 1_555
C147 C148 1_555 1_555
C152 C153 1_555 1_555

#END
