# generated using pymatgen
data_Fe3H33C42S3N3O19
_symmetry_space_group_name_H-M   'P 1'
_cell_length_a   22.67100000
_cell_length_b   24.62867811
_cell_length_c   37.49628696
_cell_angle_alpha   80.50936980
_cell_angle_beta   72.40360399
_cell_angle_gamma   62.59636385
_symmetry_Int_Tables_number   1
_chemical_formula_structural   Fe3H33C42S3N3O19
_chemical_formula_sum   'Fe24 H264 C336 S24 N24 O152'
_cell_volume   17709.07097937
_cell_formula_units_Z   8
loop_
 _symmetry_equiv_pos_site_id
 _symmetry_equiv_pos_as_xyz
  1  'x, y, z'
loop_
 _atom_site_type_symbol
 _atom_site_label
 _atom_site_symmetry_multiplicity
 _atom_site_fract_x
 _atom_site_fract_y
 _atom_site_fract_z
 _atom_site_occupancy
  C  C1  1  0.632200  0.477700  0.152900  1.0
  C  C2  1  0.262800  0.022300  0.347100  1.0
  C  C3  1  0.367800  0.522300  0.847100  1.0
  C  C4  1  0.737200  0.977700  0.652900  1.0
  C  C5  1  0.621100  0.500800  0.119800  1.0
  C  C6  1  0.241700  0.999200  0.380200  1.0
  C  C7  1  0.378900  0.499200  0.880200  1.0
  C  C8  1  0.758300  0.000800  0.619800  1.0
  C  C9  1  0.574000  0.496900  0.109300  1.0
  C  C10  1  0.180200  0.003100  0.390700  1.0
  C  C11  1  0.426000  0.503100  0.890700  1.0
  C  C12  1  0.819800  0.996900  0.609300  1.0
  C  C13  1  0.474600  0.474300  0.122100  1.0
  C  C14  1  0.071000  0.025700  0.377900  1.0
  C  C15  1  0.525400  0.525700  0.877900  1.0
  C  C16  1  0.929000  0.974300  0.622100  1.0
  C  C17  1  0.425400  0.462200  0.146200  1.0
  C  C18  1  0.033800  0.037800  0.353800  1.0
  C  C19  1  0.574600  0.537800  0.853800  1.0
  C  C20  1  0.966200  0.962200  0.646200  1.0
  C  C21  1  0.378900  0.426900  0.211100  1.0
  C  C22  1  0.016900  0.073100  0.288900  1.0
  C  C23  1  0.621100  0.573100  0.788900  1.0
  C  C24  1  0.983100  0.926900  0.711100  1.0
  C  C25  1  0.386400  0.409000  0.246600  1.0
  C  C26  1  0.042000  0.091000  0.253400  1.0
  C  C27  1  0.613600  0.591000  0.753400  1.0
  C  C28  1  0.958000  0.909000  0.746600  1.0
  C  C29  1  0.441900  0.401100  0.259300  1.0
  C  C30  1  0.102300  0.098900  0.240700  1.0
  C  C31  1  0.558100  0.598900  0.740700  1.0
  C  C32  1  0.897700  0.901100  0.759300  1.0
  C  C33  1  0.542700  0.421800  0.245600  1.0
  C  C34  1  0.210100  0.078200  0.254400  1.0
  C  C35  1  0.457300  0.578200  0.754400  1.0
  C  C36  1  0.789900  0.921800  0.745600  1.0
  C  C37  1  0.603600  0.409700  0.213700  1.0
  C  C38  1  0.227000  0.090300  0.286300  1.0
  C  C39  1  0.396400  0.590300  0.786300  1.0
  C  C40  1  0.773000  0.909700  0.713700  1.0
  C  C41  1  0.585300  0.455700  0.177900  1.0
  C  C42  1  0.218900  0.044300  0.322100  1.0
  C  C43  1  0.414700  0.544300  0.822100  1.0
  C  C44  1  0.781100  0.955700  0.677900  1.0
  C  C45  1  0.532200  0.457500  0.169100  1.0
  C  C46  1  0.158800  0.042500  0.330900  1.0
  C  C47  1  0.467800  0.542500  0.830900  1.0
  C  C48  1  0.841200  0.957500  0.669100  1.0
  C  C49  1  0.524000  0.481800  0.135800  1.0
  C  C50  1  0.141600  0.018200  0.364200  1.0
  C  C51  1  0.476000  0.518200  0.864200  1.0
  C  C52  1  0.858400  0.981800  0.635800  1.0
  C  C53  1  0.426400  0.443500  0.186500  1.0
  C  C54  1  0.056400  0.056500  0.313500  1.0
  C  C55  1  0.573600  0.556500  0.813500  1.0
  C  C56  1  0.943600  0.943500  0.686500  1.0
  C  C57  1  0.480500  0.440800  0.196400  1.0
  C  C58  1  0.117700  0.059200  0.303600  1.0
  C  C59  1  0.519500  0.559200  0.803600  1.0
  C  C60  1  0.882300  0.940800  0.696400  1.0
  C  C61  1  0.481500  0.423000  0.235000  1.0
  C  C62  1  0.139500  0.077000  0.265000  1.0
  C  C63  1  0.518500  0.577000  0.765000  1.0
  C  C64  1  0.860500  0.923000  0.735000  1.0
  C  C65  1  0.670200  0.524700  0.094100  1.0
  C  C66  1  0.289000  0.975300  0.405900  1.0
  C  C67  1  0.329800  0.475300  0.905900  1.0
  C  C68  1  0.711000  0.024700  0.594100  1.0
  C  C69  1  0.334000  0.394600  0.274400  1.0
  C  C70  1  0.003000  0.105400  0.225600  1.0
  C  C71  1  0.666000  0.605400  0.725600  1.0
  C  C72  1  0.997000  0.894600  0.774400  1.0
  C  C73  1  0.724000  0.675800  0.119000  1.0
  C  C74  1  0.518800  0.824200  0.381000  1.0
  C  C75  1  0.276000  0.324200  0.881000  1.0
  C  C76  1  0.481200  0.175800  0.619000  1.0
  C  C77  1  0.703000  0.691800  0.160200  1.0
  C  C78  1  0.555000  0.808200  0.339800  1.0
  C  C79  1  0.297000  0.308200  0.839800  1.0
  C  C80  1  0.445000  0.191800  0.660200  1.0
  C  C81  1  0.709300  0.653800  0.190400  1.0
  C  C82  1  0.553500  0.846200  0.309600  1.0
  C  C83  1  0.290700  0.346200  0.809600  1.0
  C  C84  1  0.446500  0.153800  0.690400  1.0
  C  C85  1  0.683800  0.676600  0.224800  1.0
  C  C86  1  0.585200  0.823400  0.275200  1.0
  C  C87  1  0.316200  0.323400  0.775200  1.0
  C  C88  1  0.414800  0.176600  0.724800  1.0
  C  C89  1  0.654000  0.737700  0.229100  1.0
  C  C90  1  0.620800  0.762300  0.270900  1.0
  C  C91  1  0.346000  0.262300  0.770900  1.0
  C  C92  1  0.379200  0.237700  0.729100  1.0
  C  C93  1  0.650200  0.776200  0.198800  1.0
  C  C94  1  0.625200  0.723800  0.301200  1.0
  C  C95  1  0.349800  0.223800  0.801200  1.0
  C  C96  1  0.374800  0.276200  0.698800  1.0
  C  C97  1  0.675300  0.752600  0.163600  1.0
  C  C98  1  0.591500  0.747400  0.336400  1.0
  C  C99  1  0.324700  0.247400  0.836400  1.0
  C  C100  1  0.408500  0.252600  0.663600  1.0
  C  C101  1  0.680100  0.634900  0.261100  1.0
  C  C102  1  0.576100  0.865100  0.238900  1.0
  C  C103  1  0.319900  0.365100  0.738900  1.0
  C  C104  1  0.423900  0.134900  0.761100  1.0
  C  C105  1  0.608600  0.845200  0.205800  1.0
  C  C106  1  0.659600  0.654800  0.294200  1.0
  C  C107  1  0.391400  0.154800  0.794200  1.0
  C  C108  1  0.340400  0.345200  0.705800  1.0
  C  C109  1  0.602900  0.725700  0.041700  1.0
  C  C110  1  0.370300  0.774300  0.458300  1.0
  C  C111  1  0.397100  0.274300  0.958300  1.0
  C  C112  1  0.629700  0.225700  0.541700  1.0
  C  C113  1  0.528000  0.769400  0.049800  1.0
  C  C114  1  0.347200  0.730600  0.450200  1.0
  C  C115  1  0.472000  0.230600  0.950200  1.0
  C  C116  1  0.652800  0.269400  0.549800  1.0
  C  C117  1  0.474200  0.754200  0.047000  1.0
  C  C118  1  0.275400  0.745800  0.453000  1.0
  C  C119  1  0.525800  0.245800  0.953000  1.0
  C  C120  1  0.724600  0.254200  0.547000  1.0
  C  C121  1  0.407500  0.800300  0.056700  1.0
  C  C122  1  0.264500  0.699700  0.443300  1.0
  C  C123  1  0.592500  0.199700  0.943300  1.0
  C  C124  1  0.735500  0.300300  0.556700  1.0
  C  C125  1  0.392900  0.858800  0.067000  1.0
  C  C126  1  0.318700  0.641200  0.433000  1.0
  C  C127  1  0.607100  0.141200  0.933000  1.0
  C  C128  1  0.681300  0.358800  0.567000  1.0
  C  C129  1  0.442700  0.871000  0.069400  1.0
  C  C130  1  0.383100  0.629000  0.430600  1.0
  C  C131  1  0.557300  0.129000  0.930600  1.0
  C  C132  1  0.616900  0.371000  0.569400  1.0
  C  C133  1  0.510100  0.824600  0.061200  1.0
  C  C134  1  0.395900  0.675400  0.438800  1.0
  C  C135  1  0.489900  0.175400  0.938800  1.0
  C  C136  1  0.604100  0.324600  0.561200  1.0
  C  C137  1  0.418300  0.932900  0.081300  1.0
  C  C138  1  0.432500  0.567100  0.418700  1.0
  C  C139  1  0.581700  0.067100  0.918700  1.0
  C  C140  1  0.567500  0.432900  0.581300  1.0
  C  C141  1  0.359800  0.776200  0.052800  1.0
  C  C142  1  0.188800  0.723800  0.447200  1.0
  C  C143  1  0.640200  0.223800  0.947200  1.0
  C  C144  1  0.811200  0.276200  0.552800  1.0
  C  C145  1  0.293300  0.815000  0.070000  1.0
  C  C146  1  0.178300  0.685000  0.430000  1.0
  C  C147  1  0.706700  0.185000  0.930000  1.0
  C  C148  1  0.821700  0.315000  0.570000  1.0
  C  C149  1  0.109900  0.536000  0.305000  1.0
  C  C150  1  0.950900  0.964000  0.195000  1.0
  C  C151  1  0.890100  0.464000  0.695000  1.0
  C  C152  1  0.049100  0.036000  0.805000  1.0
  C  C153  1  0.083800  0.598700  0.285500  1.0
  C  C154  1  0.968000  0.901300  0.214500  1.0
  C  C155  1  0.916200  0.401300  0.714500  1.0
  C  C156  1  0.032000  0.098700  0.785500  1.0
  C  C157  1  0.044200  0.647500  0.307900  1.0
  C  C158  1  0.999600  0.852500  0.192100  1.0
  C  C159  1  0.955800  0.352500  0.692100  1.0
  C  C160  1  0.000400  0.147500  0.807900  1.0
  C  C161  1  0.018300  0.709700  0.291500  1.0
  C  C162  1  0.019500  0.790300  0.208500  1.0
  C  C163  1  0.981700  0.290300  0.708500  1.0
  C  C164  1  0.980500  0.209700  0.791500  1.0
  C  C165  1  0.035700  0.721400  0.255800  1.0
  C  C166  1  0.012900  0.778600  0.244200  1.0
  C  C167  1  0.964300  0.278600  0.744200  1.0
  C  C168  1  0.987100  0.221400  0.755800  1.0
  C  C169  1  0.073300  0.671500  0.234100  1.0
  C  C170  1  0.978900  0.828500  0.265900  1.0
  C  C171  1  0.926700  0.328500  0.765900  1.0
  C  C172  1  0.021100  0.171500  0.734100  1.0
  C  C173  1  0.096600  0.611600  0.247200  1.0
  C  C174  1  0.955400  0.888400  0.252800  1.0
  C  C175  1  0.903400  0.388400  0.752800  1.0
  C  C176  1  0.044600  0.111600  0.747200  1.0
  C  C177  1  0.105300  0.686700  0.194700  1.0
  C  C178  1  0.986700  0.813300  0.305300  1.0
  C  C179  1  0.894700  0.313300  0.805300  1.0
  C  C180  1  0.013300  0.186700  0.694700  1.0
  C  C181  1  0.981800  0.758400  0.316400  1.0
  C  C182  1  0.056600  0.741600  0.183600  1.0
  C  C183  1  0.018200  0.241600  0.683600  1.0
  C  C184  1  0.943400  0.258400  0.816400  1.0
  C  C185  1  0.242700  0.473500  0.388100  1.0
  C  C186  1  0.104300  0.026500  0.111900  1.0
  C  C187  1  0.757300  0.526500  0.611900  1.0
  C  C188  1  0.895700  0.973500  0.888100  1.0
  C  C189  1  0.263100  0.515900  0.401300  1.0
  C  C190  1  0.180300  0.984100  0.098700  1.0
  C  C191  1  0.736900  0.484100  0.598700  1.0
  C  C192  1  0.819700  0.015900  0.901300  1.0
  C  C193  1  0.325700  0.499200  0.404600  1.0
  C  C194  1  0.229500  0.000800  0.095400  1.0
  C  C195  1  0.674300  0.500800  0.595400  1.0
  C  C196  1  0.770500  0.999200  0.904600  1.0
  C  C197  1  0.344900  0.539900  0.413500  1.0
  C  C198  1  0.298300  0.960100  0.086500  1.0
  C  C199  1  0.655100  0.460100  0.586500  1.0
  C  C200  1  0.701700  0.039900  0.913500  1.0
  C  C201  1  0.313900  0.906800  0.079000  1.0
  C  C202  1  0.299700  0.593200  0.421000  1.0
  C  C203  1  0.686100  0.093200  0.921000  1.0
  C  C204  1  0.700300  0.406800  0.579000  1.0
  C  C205  1  0.269300  0.886200  0.078600  1.0
  C  C206  1  0.234100  0.613800  0.421400  1.0
  C  C207  1  0.730700  0.113800  0.921400  1.0
  C  C208  1  0.765900  0.386200  0.578600  1.0
  C  C209  1  0.210500  0.574800  0.410200  1.0
  C  C210  1  0.195500  0.925200  0.089800  1.0
  C  C211  1  0.789500  0.425200  0.589800  1.0
  C  C212  1  0.804500  0.074800  0.910200  1.0
  C  C213  1  0.357100  0.977600  0.078400  1.0
  C  C214  1  0.413100  0.522400  0.421600  1.0
  C  C215  1  0.642900  0.022400  0.921600  1.0
  C  C216  1  0.586900  0.477600  0.578400  1.0
  C  C217  1  0.869300  0.503100  0.141500  1.0
  C  C218  1  0.513900  0.996900  0.358500  1.0
  C  C219  1  0.130700  0.496900  0.858500  1.0
  C  C220  1  0.486100  0.003100  0.641500  1.0
  C  C221  1  0.901100  0.463200  0.168000  1.0
  C  C222  1  0.532300  0.036800  0.332000  1.0
  C  C223  1  0.098900  0.536800  0.832000  1.0
  C  C224  1  0.467700  0.963200  0.668000  1.0
  C  C225  1  0.906000  0.404250  0.172950  1.0
  C  C226  1  0.483200  0.095750  0.327050  1.0
  C  C227  1  0.094000  0.595750  0.827050  1.0
  C  C228  1  0.516800  0.904250  0.672950  1.0
  C  C229  1  0.879130  0.385140  0.151400  1.0
  C  C230  1  0.415670  0.114860  0.348600  1.0
  C  C231  1  0.120870  0.614860  0.848600  1.0
  C  C232  1  0.584330  0.885140  0.651400  1.0
  C  C233  1  0.847300  0.425100  0.124900  1.0
  C  C234  1  0.397300  0.074900  0.375100  1.0
  C  C235  1  0.152700  0.574900  0.875100  1.0
  C  C236  1  0.602700  0.925100  0.624900  1.0
  C  C237  1  0.707400  0.817900  0.002500  1.0
  C  C238  1  0.527800  0.682100  0.497500  1.0
  C  C239  1  0.292600  0.182100  0.997500  1.0
  C  C240  1  0.472200  0.317900  0.502500  1.0
  C  C241  1  0.710800  0.873400  0.992200  1.0
  C  C242  1  0.576400  0.626600  0.507800  1.0
  C  C243  1  0.289200  0.126600  0.007800  1.0
  C  C244  1  0.423600  0.373400  0.492200  1.0
  C  C245  1  0.745300  0.891300  0.009300  1.0
  C  C246  1  0.645900  0.608700  0.490700  1.0
  C  C247  1  0.254700  0.108700  0.990700  1.0
  C  C248  1  0.354100  0.391300  0.509300  1.0
  C  C249  1  0.776400  0.853900  0.036700  1.0
  C  C250  1  0.667000  0.646100  0.463300  1.0
  C  C251  1  0.223600  0.146100  0.963300  1.0
  C  C252  1  0.333000  0.353900  0.536700  1.0
  C  C253  1  0.773100  0.798200  0.047000  1.0
  C  C254  1  0.618300  0.701800  0.453000  1.0
  C  C255  1  0.226900  0.201800  0.953000  1.0
  C  C256  1  0.381700  0.298200  0.547000  1.0
  C  C257  1  0.636500  0.513300  0.998900  1.0
  C  C258  1  0.148700  0.986700  0.501100  1.0
  C  C259  1  0.363500  0.486700  0.001100  1.0
  C  C260  1  0.851300  0.013300  0.498900  1.0
  C  C261  1  0.595400  0.501500  0.983300  1.0
  C  C262  1  0.080200  0.998500  0.516700  1.0
  C  C263  1  0.404600  0.498500  0.016700  1.0
  C  C264  1  0.919800  0.001500  0.483300  1.0
  C  C265  1  0.552000  0.547900  0.963700  1.0
  C  C266  1  0.063600  0.952100  0.536300  1.0
  C  C267  1  0.448000  0.452100  0.036300  1.0
  C  C268  1  0.936400  0.047900  0.463700  1.0
  C  C269  1  0.549800  0.605800  0.959800  1.0
  C  C270  1  0.115400  0.894200  0.540200  1.0
  C  C271  1  0.450200  0.394200  0.040200  1.0
  C  C272  1  0.884600  0.105800  0.459800  1.0
  C  C273  1  0.590900  0.617500  0.975500  1.0
  C  C274  1  0.183900  0.882500  0.524500  1.0
  C  C275  1  0.409100  0.382500  0.024500  1.0
  C  C276  1  0.816100  0.117500  0.475500  1.0
  C  C277  1  0.235400  0.354300  0.209900  1.0
  C  C278  1  0.799600  0.145700  0.290100  1.0
  C  C279  1  0.764600  0.645700  0.790100  1.0
  C  C280  1  0.200400  0.854300  0.709900  1.0
  C  C281  1  0.229060  0.348180  0.175300  1.0
  C  C282  1  0.752540  0.151820  0.324700  1.0
  C  C283  1  0.770940  0.651820  0.824700  1.0
  C  C284  1  0.247460  0.848180  0.675300  1.0
  C  C285  1  0.168400  0.385880  0.164920  1.0
  C  C286  1  0.719200  0.114120  0.335080  1.0
  C  C287  1  0.831600  0.614120  0.835080  1.0
  C  C288  1  0.280800  0.885880  0.664920  1.0
  C  C289  1  0.114100  0.429500  0.189300  1.0
  C  C290  1  0.732900  0.070500  0.310700  1.0
  C  C291  1  0.885900  0.570500  0.810700  1.0
  C  C292  1  0.267100  0.929500  0.689300  1.0
  C  C293  1  0.120430  0.435540  0.224000  1.0
  C  C294  1  0.779970  0.064460  0.276000  1.0
  C  C295  1  0.879570  0.564460  0.776000  1.0
  C  C296  1  0.220030  0.935540  0.724000  1.0
  C  C297  1  0.387300  0.307500  0.404300  1.0
  C  C298  1  0.099100  0.192500  0.095700  1.0
  C  C299  1  0.612700  0.692500  0.595700  1.0
  C  C300  1  0.900900  0.807500  0.904300  1.0
  C  C301  1  0.448700  0.271900  0.414300  1.0
  C  C302  1  0.134900  0.228100  0.085700  1.0
  C  C303  1  0.551300  0.728100  0.585700  1.0
  C  C304  1  0.865100  0.771900  0.914300  1.0
  C  C305  1  0.505000  0.231300  0.389100  1.0
  C  C306  1  0.125400  0.268700  0.110900  1.0
  C  C307  1  0.495000  0.768700  0.610900  1.0
  C  C308  1  0.874600  0.731300  0.889100  1.0
  C  C309  1  0.499950  0.226200  0.353900  1.0
  C  C310  1  0.080050  0.273800  0.146100  1.0
  C  C311  1  0.500050  0.773800  0.646100  1.0
  C  C312  1  0.919950  0.726200  0.853900  1.0
  C  C313  1  0.438500  0.261910  0.343890  1.0
  C  C314  1  0.044300  0.238090  0.156110  1.0
  C  C315  1  0.561500  0.738090  0.656110  1.0
  C  C316  1  0.955700  0.761910  0.843890  1.0
  C  C317  1  0.974300  0.568270  0.402530  1.0
  C  C318  1  0.945100  0.931730  0.097470  1.0
  C  C319  1  0.025700  0.431730  0.597470  1.0
  C  C320  1  0.054900  0.068270  0.902530  1.0
  C  C321  1  0.920200  0.612600  0.426600  1.0
  C  C322  1  0.959400  0.887400  0.073400  1.0
  C  C323  1  0.079800  0.387400  0.573400  1.0
  C  C324  1  0.040600  0.112600  0.926600  1.0
  C  C325  1  0.925340  0.617520  0.461800  1.0
  C  C326  1  0.004660  0.882480  0.038200  1.0
  C  C327  1  0.074660  0.382480  0.538200  1.0
  C  C328  1  0.995340  0.117520  0.961800  1.0
  C  C329  1  0.984600  0.578010  0.472990  1.0
  C  C330  1  0.035600  0.921990  0.027010  1.0
  C  C331  1  0.015400  0.421990  0.527010  1.0
  C  C332  1  0.964400  0.078010  0.972990  1.0
  C  C333  1  0.038700  0.533800  0.449000  1.0
  C  C334  1  0.021500  0.966200  0.051000  1.0
  C  C335  1  0.961300  0.466200  0.551000  1.0
  C  C336  1  0.978500  0.033800  0.949000  1.0
  Fe  Fe337  1  0.794240  0.550140  0.079380  1.0
  Fe  Fe338  1  0.423760  0.949860  0.420620  1.0
  Fe  Fe339  1  0.205760  0.449860  0.920620  1.0
  Fe  Fe340  1  0.576240  0.050140  0.579380  1.0
  Fe  Fe341  1  0.744920  0.689640  0.038560  1.0
  Fe  Fe342  1  0.473120  0.810360  0.461440  1.0
  Fe  Fe343  1  0.255080  0.310360  0.961440  1.0
  Fe  Fe344  1  0.526880  0.189640  0.538560  1.0
  Fe  Fe345  1  0.695380  0.592120  0.020600  1.0
  Fe  Fe346  1  0.308100  0.907880  0.479400  1.0
  Fe  Fe347  1  0.304620  0.407880  0.979400  1.0
  Fe  Fe348  1  0.691900  0.092120  0.520600  1.0
  Fe  Fe349  1  0.189860  0.401640  0.292040  1.0
  Fe  Fe350  1  0.883540  0.098360  0.207960  1.0
  Fe  Fe351  1  0.810140  0.598360  0.707960  1.0
  Fe  Fe352  1  0.116460  0.901640  0.792040  1.0
  Fe  Fe353  1  0.283090  0.356470  0.354710  1.0
  Fe  Fe354  1  0.994270  0.143530  0.145290  1.0
  Fe  Fe355  1  0.716910  0.643530  0.645290  1.0
  Fe  Fe356  1  0.005730  0.856470  0.854710  1.0
  Fe  Fe357  1  0.120990  0.460810  0.376390  1.0
  Fe  Fe358  1  0.958190  0.039190  0.123610  1.0
  Fe  Fe359  1  0.879010  0.539190  0.623610  1.0
  Fe  Fe360  1  0.041810  0.960810  0.876390  1.0
  H  H361  1  0.669200  0.475900  0.159700  1.0
  H  H362  1  0.304800  0.024100  0.340300  1.0
  H  H363  1  0.330800  0.524100  0.840300  1.0
  H  H364  1  0.695200  0.975900  0.659700  1.0
  H  H365  1  0.573000  0.503900  0.084300  1.0
  H  H366  1  0.161200  0.996100  0.415700  1.0
  H  H367  1  0.427000  0.496100  0.915700  1.0
  H  H368  1  0.838800  0.003900  0.584300  1.0
  H  H369  1  0.452600  0.511400  0.108200  1.0
  H  H370  1  0.072200  0.988600  0.391800  1.0
  H  H371  1  0.547400  0.488600  0.891800  1.0
  H  H372  1  0.927800  0.011400  0.608200  1.0
  H  H373  1  0.500500  0.441700  0.104300  1.0
  H  H374  1  0.046500  0.058300  0.395700  1.0
  H  H375  1  0.499500  0.558300  0.895700  1.0
  H  H376  1  0.953500  0.941700  0.604300  1.0
  H  H377  1  0.423000  0.430100  0.135700  1.0
  H  H378  1  0.988800  0.069900  0.364300  1.0
  H  H379  1  0.577000  0.569900  0.864300  1.0
  H  H380  1  0.011200  0.930100  0.635700  1.0
  H  H381  1  0.382300  0.498400  0.146600  1.0
  H  H382  1  0.027300  0.001600  0.353400  1.0
  H  H383  1  0.617700  0.501600  0.853400  1.0
  H  H384  1  0.972700  0.998400  0.646600  1.0
  H  H385  1  0.342700  0.427700  0.203900  1.0
  H  H386  1  0.974300  0.072300  0.296100  1.0
  H  H387  1  0.657300  0.572300  0.796100  1.0
  H  H388  1  0.025700  0.927700  0.703900  1.0
  H  H389  1  0.449900  0.382400  0.282200  1.0
  H  H390  1  0.114500  0.117600  0.217800  1.0
  H  H391  1  0.550100  0.617600  0.717800  1.0
  H  H392  1  0.885500  0.882400  0.782200  1.0
  H  H393  1  0.528800  0.460700  0.255900  1.0
  H  H394  1  0.245400  0.039300  0.244100  1.0
  H  H395  1  0.471200  0.539300  0.744100  1.0
  H  H396  1  0.754600  0.960700  0.755900  1.0
  H  H397  1  0.555100  0.390300  0.264900  1.0
  H  H398  1  0.210300  0.109700  0.235100  1.0
  H  H399  1  0.444900  0.609700  0.735100  1.0
  H  H400  1  0.789700  0.890300  0.764900  1.0
  H  H401  1  0.622700  0.367900  0.206300  1.0
  H  H402  1  0.196900  0.132100  0.293700  1.0
  H  H403  1  0.377300  0.632100  0.793700  1.0
  H  H404  1  0.803100  0.867900  0.706300  1.0
  H  H405  1  0.638100  0.414400  0.221400  1.0
  H  H406  1  0.273900  0.085600  0.278600  1.0
  H  H407  1  0.361900  0.585600  0.778600  1.0
  H  H408  1  0.726100  0.914400  0.721400  1.0
  H  H409  1  0.731300  0.611700  0.187500  1.0
  H  H410  1  0.530500  0.888300  0.312500  1.0
  H  H411  1  0.268700  0.388300  0.812500  1.0
  H  H412  1  0.469500  0.111700  0.687500  1.0
  H  H413  1  0.673300  0.778400  0.142400  1.0
  H  H414  1  0.594100  0.721600  0.357600  1.0
  H  H415  1  0.326700  0.221600  0.857600  1.0
  H  H416  1  0.405900  0.278400  0.642400  1.0
  H  H417  1  0.650900  0.616500  0.260100  1.0
  H  H418  1  0.527500  0.883500  0.239900  1.0
  H  H419  1  0.349100  0.383500  0.739900  1.0
  H  H420  1  0.472500  0.116500  0.760100  1.0
  H  H421  1  0.725900  0.601800  0.258800  1.0
  H  H422  1  0.586500  0.898200  0.241200  1.0
  H  H423  1  0.274100  0.398200  0.741200  1.0
  H  H424  1  0.413500  0.101800  0.758800  1.0
  H  H425  1  0.640100  0.863800  0.195400  1.0
  H  H426  1  0.699300  0.636200  0.304600  1.0
  H  H427  1  0.359900  0.136200  0.804600  1.0
  H  H428  1  0.300700  0.363800  0.695400  1.0
  H  H429  1  0.575200  0.861400  0.191000  1.0
  H  H430  1  0.627600  0.638600  0.309000  1.0
  H  H431  1  0.424800  0.138600  0.809000  1.0
  H  H432  1  0.372400  0.361400  0.691000  1.0
  H  H433  1  0.484100  0.716100  0.039300  1.0
  H  H434  1  0.239500  0.783900  0.460700  1.0
  H  H435  1  0.515900  0.283900  0.960700  1.0
  H  H436  1  0.760500  0.216100  0.539300  1.0
  H  H437  1  0.544600  0.832900  0.063900  1.0
  H  H438  1  0.441400  0.667100  0.436100  1.0
  H  H439  1  0.455400  0.167100  0.936100  1.0
  H  H440  1  0.558600  0.332900  0.563900  1.0
  H  H441  1  0.418300  0.929800  0.107400  1.0
  H  H442  1  0.455500  0.570200  0.392600  1.0
  H  H443  1  0.581700  0.070200  0.892600  1.0
  H  H444  1  0.544500  0.429800  0.607400  1.0
  H  H445  1  0.452600  0.947100  0.067500  1.0
  H  H446  1  0.467200  0.552900  0.432500  1.0
  H  H447  1  0.547400  0.052900  0.932500  1.0
  H  H448  1  0.532800  0.447100  0.567500  1.0
  H  H449  1  0.364200  0.773700  0.026500  1.0
  H  H450  1  0.164400  0.726300  0.473500  1.0
  H  H451  1  0.635800  0.226300  0.973500  1.0
  H  H452  1  0.835600  0.273700  0.526500  1.0
  H  H453  1  0.371700  0.735500  0.064300  1.0
  H  H454  1  0.171500  0.764500  0.435700  1.0
  H  H455  1  0.628300  0.264500  0.935700  1.0
  H  H456  1  0.828500  0.235500  0.564300  1.0
  H  H457  1  0.280700  0.795600  0.093800  1.0
  H  H458  1  0.170100  0.704400  0.406200  1.0
  H  H459  1  0.719300  0.204400  0.906200  1.0
  H  H460  1  0.829900  0.295600  0.593800  1.0
  H  H461  1  0.264700  0.816000  0.055000  1.0
  H  H462  1  0.135700  0.684000  0.445000  1.0
  H  H463  1  0.735300  0.184000  0.945000  1.0
  H  H464  1  0.864300  0.316000  0.555000  1.0
  H  H465  1  0.033400  0.641600  0.333800  1.0
  H  H466  1  0.008800  0.858400  0.166200  1.0
  H  H467  1  0.966600  0.358400  0.666200  1.0
  H  H468  1  0.991200  0.141600  0.833800  1.0
  H  H469  1  0.120900  0.580000  0.230400  1.0
  H  H470  1  0.931300  0.920000  0.269600  1.0
  H  H471  1  0.879100  0.420000  0.769600  1.0
  H  H472  1  0.068700  0.080000  0.730400  1.0
  H  H473  1  0.146200  0.690900  0.193700  1.0
  H  H474  1  0.030800  0.809100  0.306300  1.0
  H  H475  1  0.853800  0.309100  0.806300  1.0
  H  H476  1  0.969200  0.190900  0.693700  1.0
  H  H477  1  0.118100  0.654500  0.178100  1.0
  H  H478  1  0.950700  0.845500  0.321900  1.0
  H  H479  1  0.881900  0.345500  0.821900  1.0
  H  H480  1  0.049300  0.154500  0.678100  1.0
  H  H481  1  0.933500  0.767400  0.322600  1.0
  H  H482  1  0.023500  0.732600  0.177400  1.0
  H  H483  1  0.066500  0.232600  0.677400  1.0
  H  H484  1  0.976500  0.267400  0.822600  1.0
  H  H485  1  0.996600  0.743900  0.339300  1.0
  H  H486  1  0.079800  0.756100  0.160700  1.0
  H  H487  1  0.003400  0.256100  0.660700  1.0
  H  H488  1  0.920200  0.243900  0.839300  1.0
  H  H489  1  0.357800  0.458600  0.400800  1.0
  H  H490  1  0.217200  0.041400  0.099200  1.0
  H  H491  1  0.642200  0.541400  0.599200  1.0
  H  H492  1  0.782800  0.958600  0.900800  1.0
  H  H493  1  0.165500  0.587600  0.409200  1.0
  H  H494  1  0.162300  0.912400  0.090800  1.0
  H  H495  1  0.834500  0.412400  0.590800  1.0
  H  H496  1  0.837700  0.087600  0.909200  1.0
  H  H497  1  0.362800  0.995200  0.053200  1.0
  H  H498  1  0.411200  0.504800  0.446800  1.0
  H  H499  1  0.637200  0.004800  0.946800  1.0
  H  H500  1  0.588800  0.495200  0.553200  1.0
  H  H501  1  0.343900  0.009400  0.095400  1.0
  H  H502  1  0.448700  0.490600  0.404600  1.0
  H  H503  1  0.656100  0.990600  0.904600  1.0
  H  H504  1  0.551300  0.509400  0.595400  1.0
  H  H505  1  0.866000  0.542600  0.138200  1.0
  H  H506  1  0.546800  0.957400  0.361800  1.0
  H  H507  1  0.134000  0.457400  0.861800  1.0
  H  H508  1  0.453200  0.042600  0.638200  1.0
  H  H509  1  0.919000  0.476000  0.182400  1.0
  H  H510  1  0.577400  0.024000  0.317600  1.0
  H  H511  1  0.081000  0.524000  0.817600  1.0
  H  H512  1  0.422600  0.976000  0.682400  1.0
  H  H513  1  0.927200  0.377500  0.190700  1.0
  H  H514  1  0.495400  0.122500  0.309300  1.0
  H  H515  1  0.072800  0.622500  0.809300  1.0
  H  H516  1  0.504600  0.877500  0.690700  1.0
  H  H517  1  0.882400  0.345700  0.154700  1.0
  H  H518  1  0.382800  0.154300  0.345300  1.0
  H  H519  1  0.117600  0.654300  0.845300  1.0
  H  H520  1  0.617200  0.845700  0.654700  1.0
  H  H521  1  0.829300  0.412400  0.110400  1.0
  H  H522  1  0.352100  0.087600  0.389600  1.0
  H  H523  1  0.170700  0.587600  0.889600  1.0
  H  H524  1  0.647900  0.912400  0.610400  1.0
  H  H525  1  0.684400  0.805700  0.991100  1.0
  H  H526  1  0.481200  0.694300  0.508900  1.0
  H  H527  1  0.315600  0.194300  0.008900  1.0
  H  H528  1  0.518800  0.305700  0.491100  1.0
  H  H529  1  0.690000  0.898500  0.973900  1.0
  H  H530  1  0.562400  0.601500  0.526100  1.0
  H  H531  1  0.310000  0.101500  0.026100  1.0
  H  H532  1  0.437600  0.398500  0.473900  1.0
  H  H533  1  0.747600  0.928500  0.002300  1.0
  H  H534  1  0.678400  0.571500  0.497700  1.0
  H  H535  1  0.252400  0.071500  0.997700  1.0
  H  H536  1  0.321600  0.428500  0.502300  1.0
  H  H537  1  0.799500  0.865900  0.048100  1.0
  H  H538  1  0.713500  0.634100  0.451900  1.0
  H  H539  1  0.200500  0.134100  0.951900  1.0
  H  H540  1  0.286500  0.365900  0.548100  1.0
  H  H541  1  0.793800  0.773300  0.065300  1.0
  H  H542  1  0.632400  0.726700  0.434700  1.0
  H  H543  1  0.206200  0.226700  0.934700  1.0
  H  H544  1  0.367600  0.273300  0.565300  1.0
  H  H545  1  0.665600  0.482200  0.012000  1.0
  H  H546  1  0.159800  0.017800  0.488000  1.0
  H  H547  1  0.334400  0.517800  0.988000  1.0
  H  H548  1  0.840200  0.982200  0.512000  1.0
  H  H549  1  0.596800  0.462700  0.985900  1.0
  H  H550  1  0.045400  0.037300  0.514100  1.0
  H  H551  1  0.403200  0.537300  0.014100  1.0
  H  H552  1  0.954600  0.962700  0.485900  1.0
  H  H553  1  0.524400  0.540200  0.953200  1.0
  H  H554  1  0.017800  0.959800  0.546800  1.0
  H  H555  1  0.475600  0.459800  0.046800  1.0
  H  H556  1  0.982200  0.040200  0.453200  1.0
  H  H557  1  0.520700  0.636900  0.946700  1.0
  H  H558  1  0.104300  0.863100  0.553300  1.0
  H  H559  1  0.479300  0.363100  0.053300  1.0
  H  H560  1  0.895700  0.136900  0.446700  1.0
  H  H561  1  0.589500  0.656300  0.972900  1.0
  H  H562  1  0.218700  0.843700  0.527100  1.0
  H  H563  1  0.410500  0.343700  0.027100  1.0
  H  H564  1  0.781300  0.156300  0.472900  1.0
  H  H565  1  0.276000  0.329100  0.216900  1.0
  H  H566  1  0.822000  0.170900  0.283100  1.0
  H  H567  1  0.724000  0.670900  0.783100  1.0
  H  H568  1  0.178000  0.829100  0.716900  1.0
  H  H569  1  0.265400  0.319000  0.159000  1.0
  H  H570  1  0.743400  0.181000  0.341000  1.0
  H  H571  1  0.734600  0.681000  0.841000  1.0
  H  H572  1  0.256600  0.819000  0.659000  1.0
  H  H573  1  0.164100  0.381900  0.141700  1.0
  H  H574  1  0.687700  0.118100  0.358300  1.0
  H  H575  1  0.835900  0.618100  0.858300  1.0
  H  H576  1  0.312300  0.881900  0.641700  1.0
  H  H577  1  0.073500  0.454600  0.182400  1.0
  H  H578  1  0.710500  0.045400  0.317600  1.0
  H  H579  1  0.926500  0.545400  0.817600  1.0
  H  H580  1  0.289500  0.954600  0.682400  1.0
  H  H581  1  0.084100  0.464800  0.240200  1.0
  H  H582  1  0.789100  0.035200  0.259800  1.0
  H  H583  1  0.915900  0.535200  0.759800  1.0
  H  H584  1  0.210900  0.964800  0.740200  1.0
  H  H585  1  0.349600  0.334600  0.421200  1.0
  H  H586  1  0.105400  0.165400  0.078800  1.0
  H  H587  1  0.650400  0.665400  0.578800  1.0
  H  H588  1  0.894600  0.834600  0.921200  1.0
  H  H589  1  0.452200  0.275100  0.437900  1.0
  H  H590  1  0.165200  0.224900  0.062100  1.0
  H  H591  1  0.547800  0.724900  0.562100  1.0
  H  H592  1  0.834800  0.775100  0.937900  1.0
  H  H593  1  0.546100  0.207400  0.395800  1.0
  H  H594  1  0.149300  0.292600  0.104200  1.0
  H  H595  1  0.453900  0.792600  0.604200  1.0
  H  H596  1  0.850700  0.707400  0.895800  1.0
  H  H597  1  0.537600  0.199000  0.337000  1.0
  H  H598  1  0.073600  0.301000  0.163000  1.0
  H  H599  1  0.462400  0.801000  0.663000  1.0
  H  H600  1  0.926400  0.699000  0.837000  1.0
  H  H601  1  0.435100  0.258500  0.320300  1.0
  H  H602  1  0.013900  0.241500  0.179700  1.0
  H  H603  1  0.564900  0.741500  0.679700  1.0
  H  H604  1  0.986100  0.758500  0.820300  1.0
  H  H605  1  0.970800  0.565000  0.379000  1.0
  H  H606  1  0.914800  0.935000  0.121000  1.0
  H  H607  1  0.029200  0.435000  0.621000  1.0
  H  H608  1  0.085200  0.065000  0.879000  1.0
  H  H609  1  0.880400  0.639100  0.419100  1.0
  H  H610  1  0.938600  0.860900  0.080900  1.0
  H  H611  1  0.119600  0.360900  0.580900  1.0
  H  H612  1  0.061400  0.139100  0.919100  1.0
  H  H613  1  0.889100  0.647100  0.477900  1.0
  H  H614  1  0.014100  0.852900  0.022100  1.0
  H  H615  1  0.110900  0.352900  0.522100  1.0
  H  H616  1  0.985900  0.147100  0.977900  1.0
  H  H617  1  0.988000  0.581400  0.496600  1.0
  H  H618  1  0.066000  0.918600  0.003400  1.0
  H  H619  1  0.012000  0.418600  0.503400  1.0
  H  H620  1  0.934000  0.081400  0.996600  1.0
  H  H621  1  0.078400  0.507300  0.456500  1.0
  H  H622  1  0.042200  0.992700  0.043500  1.0
  H  H623  1  0.921600  0.492700  0.543500  1.0
  H  H624  1  0.957800  0.007300  0.956500  1.0
  N  N625  1  0.842400  0.484080  0.119920  1.0
  N  N626  1  0.446400  0.015920  0.380080  1.0
  N  N627  1  0.157600  0.515920  0.880080  1.0
  N  N628  1  0.553600  0.984080  0.619920  1.0
  N  N629  1  0.738490  0.780320  0.029900  1.0
  N  N630  1  0.548710  0.719680  0.470100  1.0
  N  N631  1  0.261510  0.219680  0.970100  1.0
  N  N632  1  0.451290  0.280320  0.529900  1.0
  N  N633  1  0.634300  0.571190  0.995010  1.0
  N  N634  1  0.200500  0.928810  0.504990  1.0
  N  N635  1  0.365700  0.428810  0.004990  1.0
  N  N636  1  0.799500  0.071190  0.495010  1.0
  N  N637  1  0.181100  0.397900  0.234300  1.0
  N  N638  1  0.813300  0.102100  0.265700  1.0
  N  N639  1  0.818900  0.602100  0.765700  1.0
  N  N640  1  0.186700  0.897900  0.734300  1.0
  N  N641  1  0.382200  0.302500  0.369100  1.0
  N  N642  1  0.053800  0.197500  0.130900  1.0
  N  N643  1  0.617800  0.697500  0.630900  1.0
  N  N644  1  0.946200  0.802500  0.869100  1.0
  N  N645  1  0.033590  0.528920  0.413700  1.0
  N  N646  1  0.976210  0.971080  0.086300  1.0
  N  N647  1  0.966410  0.471080  0.586300  1.0
  N  N648  1  0.023790  0.028920  0.913700  1.0
  O  O649  1  0.747620  0.610020  0.044640  1.0
  O  O650  1  0.402280  0.889980  0.455360  1.0
  O  O651  1  0.252380  0.389980  0.955360  1.0
  O  O652  1  0.597720  0.110020  0.544640  1.0
  O  O653  1  0.197660  0.404550  0.341130  1.0
  O  O654  1  0.943340  0.095450  0.158870  1.0
  O  O655  1  0.802340  0.595450  0.658870  1.0
  O  O656  1  0.056660  0.904550  0.841130  1.0
  O  O657  1  0.879990  0.561870  0.063750  1.0
  O  O658  1  0.505610  0.938130  0.436250  1.0
  O  O659  1  0.120010  0.438130  0.936250  1.0
  O  O660  1  0.494390  0.061870  0.563750  1.0
  O  O661  1  0.842660  0.664440  0.035640  1.0
  O  O662  1  0.542740  0.835560  0.464360  1.0
  O  O663  1  0.157340  0.335560  0.964360  1.0
  O  O664  1  0.457260  0.164440  0.535640  1.0
  O  O665  1  0.876570  0.644800  0.094660  1.0
  O  O666  1  0.616030  0.855200  0.405340  1.0
  O  O667  1  0.123430  0.355200  0.905340  1.0
  O  O668  1  0.383970  0.144800  0.594660  1.0
  O  O669  1  0.960050  0.603250  0.035050  1.0
  O  O670  1  0.598350  0.896750  0.464950  1.0
  O  O671  1  0.039950  0.396750  0.964950  1.0
  O  O672  1  0.401650  0.103250  0.535050  1.0
  O  O673  1  0.770890  0.689210  0.983010  1.0
  O  O674  1  0.443110  0.810790  0.516990  1.0
  O  O675  1  0.229110  0.310790  0.016990  1.0
  O  O676  1  0.556890  0.189210  0.483010  1.0
  O  O677  1  0.716480  0.631980  0.972460  1.0
  O  O678  1  0.320920  0.868020  0.527540  1.0
  O  O679  1  0.283520  0.368020  0.027540  1.0
  O  O680  1  0.679080  0.131980  0.472460  1.0
  O  O681  1  0.709600  0.722500  0.935300  1.0
  O  O682  1  0.367400  0.777500  0.564700  1.0
  O  O683  1  0.290400  0.277500  0.064700  1.0
  O  O684  1  0.632600  0.222500  0.435300  1.0
  O  O685  1  0.811570  0.633730  0.926730  1.0
  O  O686  1  0.372030  0.866270  0.573270  1.0
  O  O687  1  0.188430  0.366270  0.073270  1.0
  O  O688  1  0.627970  0.133730  0.426730  1.0
  O  O689  1  0.771260  0.513010  0.001070  1.0
  O  O690  1  0.285340  0.986990  0.498930  1.0
  O  O691  1  0.228740  0.486990  0.998930  1.0
  O  O692  1  0.714660  0.013010  0.501070  1.0
  O  O693  1  0.840880  0.481820  0.045020  1.0
  O  O694  1  0.367720  0.018180  0.454980  1.0
  O  O695  1  0.159120  0.518180  0.954980  1.0
  O  O696  1  0.632280  0.981820  0.545020  1.0
  O  O697  1  0.791050  0.420020  0.036680  1.0
  O  O698  1  0.247750  0.079980  0.463320  1.0
  O  O699  1  0.208950  0.579980  0.963320  1.0
  O  O700  1  0.752250  0.920020  0.536680  1.0
  O  O701  1  0.882110  0.429080  0.987100  1.0
  O  O702  1  0.298290  0.070920  0.512900  1.0
  O  O703  1  0.117890  0.570920  0.012900  1.0
  O  O704  1  0.701710  0.929080  0.487100  1.0
  O  O705  1  0.100160  0.400450  0.306830  1.0
  O  O706  1  0.807440  0.099550  0.193170  1.0
  O  O707  1  0.899840  0.599550  0.693170  1.0
  O  O708  1  0.192560  0.900450  0.806830  1.0
  O  O709  1  0.048820  0.442020  0.369340  1.0
  O  O710  1  0.860180  0.057980  0.130660  1.0
  O  O711  1  0.951180  0.557980  0.630660  1.0
  O  O712  1  0.139820  0.942020  0.869340  1.0
  O  O713  1  0.991000  0.495100  0.319700  1.0
  O  O714  1  0.805800  0.004900  0.180300  1.0
  O  O715  1  0.009000  0.504900  0.680300  1.0
  O  O716  1  0.194200  0.995100  0.819700  1.0
  O  O717  1  0.996400  0.395740  0.345260  1.0
  O  O718  1  0.737400  0.104260  0.154740  1.0
  O  O719  1  0.003600  0.604260  0.654740  1.0
  O  O720  1  0.262600  0.895740  0.845260  1.0
  O  O721  1  0.126760  0.404670  0.421410  1.0
  O  O722  1  0.952840  0.095330  0.078590  1.0
  O  O723  1  0.873240  0.595330  0.578590  1.0
  O  O724  1  0.047160  0.904670  0.921410  1.0
  O  O725  1  0.246180  0.327360  0.403680  1.0
  O  O726  1  0.977220  0.172640  0.096320  1.0
  O  O727  1  0.753820  0.672640  0.596320  1.0
  O  O728  1  0.022780  0.827360  0.903680  1.0
  O  O729  1  0.207580  0.385900  0.458140  1.0
  O  O730  1  0.051620  0.114100  0.041860  1.0
  O  O731  1  0.792420  0.614100  0.541860  1.0
  O  O732  1  0.948380  0.885900  0.958140  1.0
  O  O733  1  0.167440  0.311100  0.457020  1.0
  O  O734  1  0.935560  0.188900  0.042980  1.0
  O  O735  1  0.832560  0.688900  0.542980  1.0
  O  O736  1  0.064440  0.811100  0.957020  1.0
  O  O737  1  0.300730  0.278750  0.335790  1.0
  O  O738  1  0.915270  0.221250  0.164210  1.0
  O  O739  1  0.699270  0.721250  0.664210  1.0
  O  O740  1  0.084730  0.778750  0.835790  1.0
  O  O741  1  0.232210  0.311580  0.290600  1.0
  O  O742  1  0.834390  0.188420  0.209400  1.0
  O  O743  1  0.767790  0.688420  0.709400  1.0
  O  O744  1  0.165610  0.811580  0.790600  1.0
  O  O745  1  0.357100  0.255030  0.270570  1.0
  O  O746  1  0.882700  0.244970  0.229430  1.0
  O  O747  1  0.642900  0.744970  0.729430  1.0
  O  O748  1  0.117300  0.755030  0.770570  1.0
  O  O749  1  0.282300  0.207280  0.308520  1.0
  O  O750  1  0.798100  0.292720  0.191480  1.0
  O  O751  1  0.717700  0.792720  0.691480  1.0
  O  O752  1  0.201900  0.707280  0.808520  1.0
  O  O753  1  0.654640  0.551840  0.064080  1.0
  O  O754  1  0.270560  0.948160  0.435920  1.0
  O  O755  1  0.345360  0.448160  0.935920  1.0
  O  O756  1  0.729440  0.051840  0.564080  1.0
  O  O757  1  0.719570  0.523020  0.105640  1.0
  O  O758  1  0.348230  0.976980  0.394360  1.0
  O  O759  1  0.280430  0.476980  0.894360  1.0
  O  O760  1  0.651770  0.023020  0.605640  1.0
  O  O761  1  0.340940  0.375510  0.306610  1.0
  O  O762  1  0.023060  0.124490  0.193390  1.0
  O  O763  1  0.659060  0.624490  0.693390  1.0
  O  O764  1  0.976940  0.875510  0.806610  1.0
  O  O765  1  0.279260  0.405060  0.264820  1.0
  O  O766  1  0.949140  0.094940  0.235180  1.0
  O  O767  1  0.720740  0.594940  0.735180  1.0
  O  O768  1  0.050860  0.905060  0.764820  1.0
  O  O769  1  0.750940  0.612530  0.120390  1.0
  O  O770  1  0.483860  0.887470  0.379610  1.0
  O  O771  1  0.249060  0.387470  0.879610  1.0
  O  O772  1  0.516140  0.112530  0.620390  1.0
  O  O773  1  0.716300  0.706340  0.092460  1.0
  O  O774  1  0.515100  0.793660  0.407540  1.0
  O  O775  1  0.283700  0.293660  0.907540  1.0
  O  O776  1  0.484900  0.206340  0.592460  1.0
  O  O777  1  0.645350  0.736900  0.042600  1.0
  O  O778  1  0.424850  0.763100  0.457400  1.0
  O  O779  1  0.354650  0.263100  0.957400  1.0
  O  O780  1  0.575150  0.236900  0.542600  1.0
  O  O781  1  0.608500  0.670580  0.037420  1.0
  O  O782  1  0.316500  0.829420  0.462580  1.0
  O  O783  1  0.391500  0.329420  0.962580  1.0
  O  O784  1  0.683500  0.170580  0.537420  1.0
  O  O785  1  0.145710  0.492310  0.282470  1.0
  O  O786  1  0.920490  0.007690  0.217530  1.0
  O  O787  1  0.854290  0.507690  0.717530  1.0
  O  O788  1  0.079510  0.992310  0.782470  1.0
  O  O789  1  0.101130  0.530390  0.338950  1.0
  O  O790  1  0.970470  0.969610  0.161050  1.0
  O  O791  1  0.898870  0.469610  0.661050  1.0
  O  O792  1  0.029530  0.030390  0.838950  1.0
  O  O793  1  0.177570  0.494610  0.389650  1.0
  O  O794  1  0.061830  0.005390  0.110350  1.0
  O  O795  1  0.822430  0.505390  0.610350  1.0
  O  O796  1  0.938170  0.994610  0.889650  1.0
  O  O797  1  0.286320  0.423640  0.376520  1.0
  O  O798  1  0.086480  0.076360  0.123480  1.0
  O  O799  1  0.713680  0.576360  0.623480  1.0
  O  O800  1  0.913520  0.923640  0.876520  1.0
  S  S801  1  0.890540  0.619270  0.058690  1.0
  S  S802  1  0.568500  0.880730  0.441310  1.0
  S  S803  1  0.109460  0.380730  0.941310  1.0
  S  S804  1  0.431500  0.119270  0.558690  1.0
  S  S805  1  0.750190  0.671220  0.954160  1.0
  S  S806  1  0.375570  0.828780  0.545840  1.0
  S  S807  1  0.249810  0.328780  0.045840  1.0
  S  S808  1  0.624430  0.171220  0.454160  1.0
  S  S809  1  0.821870  0.459200  0.017860  1.0
  S  S810  1  0.298930  0.040800  0.482140  1.0
  S  S811  1  0.178130  0.540800  0.982140  1.0
  S  S812  1  0.701070  0.959200  0.517860  1.0
  S  S813  1  0.032400  0.433560  0.335260  1.0
  S  S814  1  0.801220  0.066440  0.164740  1.0
  S  S815  1  0.967600  0.566440  0.664740  1.0
  S  S816  1  0.198780  0.933560  0.835260  1.0
  S  S817  1  0.186030  0.357960  0.436200  1.0
  S  S818  1  0.980190  0.142040  0.063800  1.0
  S  S819  1  0.813970  0.642040  0.563800  1.0
  S  S820  1  0.019810  0.857960  0.936200  1.0
  S  S821  1  0.296170  0.260780  0.300420  1.0
  S  S822  1  0.857370  0.239220  0.199580  1.0
  S  S823  1  0.703830  0.739220  0.699580  1.0
  S  S824  1  0.142630  0.760780  0.800420  1.0
