# generated using pymatgen
data_Fe12H100C249S12(N21O47)2
_symmetry_space_group_name_H-M   'P 1'
_cell_length_a   25.86260000
_cell_length_b   26.83590000
_cell_length_c   28.19260000
_cell_angle_alpha   75.13800000
_cell_angle_beta   88.56800000
_cell_angle_gamma   63.78300000
_symmetry_Int_Tables_number   1
_chemical_formula_structural   Fe12H100C249S12(N21O47)2
_chemical_formula_sum   'Fe24 H200 C498 S24 N84 O188'
_cell_volume   16878.57224579
_cell_formula_units_Z   2
loop_
 _symmetry_equiv_pos_site_id
 _symmetry_equiv_pos_as_xyz
  1  'x, y, z'
loop_
 _atom_site_type_symbol
 _atom_site_label
 _atom_site_symmetry_multiplicity
 _atom_site_fract_x
 _atom_site_fract_y
 _atom_site_fract_z
 _atom_site_occupancy
  Fe  Fe1  1  0.626090  0.783340  0.123930  1
  Fe  Fe2  1  0.373910  0.216660  0.876070  1
  Fe  Fe3  1  0.547140  0.795370  0.219760  1
  Fe  Fe4  1  0.452860  0.204630  0.780240  1
  Fe  Fe5  1  0.675660  0.794250  0.227350  1
  Fe  Fe6  1  0.324340  0.205750  0.772650  1
  Fe  Fe7  1  0.768410  0.301310  0.691730  1
  Fe  Fe8  1  0.231590  0.698690  0.308270  1
  Fe  Fe9  1  0.206920  0.259210  0.157680  1
  Fe  Fe10  1  0.793080  0.740790  0.842320  1
  Fe  Fe11  1  0.651910  0.211530  0.139500  1
  Fe  Fe12  1  0.348090  0.788470  0.860500  1
  Fe  Fe13  1  0.570000  0.217200  0.232340  1
  Fe  Fe14  1  0.430000  0.782800  0.767660  1
  Fe  Fe15  1  0.256550  0.153430  0.262550  1
  Fe  Fe16  1  0.743450  0.846570  0.737450  1
  Fe  Fe17  1  0.890810  0.314760  0.690670  1
  Fe  Fe18  1  0.109190  0.685240  0.309330  1
  Fe  Fe19  1  0.246860  0.282380  0.258020  1
  Fe  Fe20  1  0.753140  0.717620  0.741980  1
  Fe  Fe21  1  0.895030  0.188850  0.692110  1
  Fe  Fe22  1  0.104970  0.811150  0.307890  1
  Fe  Fe23  1  0.698020  0.102420  0.241560  1
  Fe  Fe24  1  0.301980  0.897580  0.758440  1
  H  H25  1  0.729500  0.676700  0.369000  1
  H  H26  1  0.270500  0.323300  0.631000  1
  H  H27  1  0.764000  0.599200  0.436900  1
  H  H28  1  0.236000  0.400800  0.563100  1
  H  H29  1  0.611600  0.599500  0.434500  1
  H  H30  1  0.388400  0.400500  0.565500  1
  H  H31  1  0.583400  0.666900  0.361200  1
  H  H32  1  0.416600  0.333100  0.638800  1
  H  H33  1  0.685600  0.444100  0.563500  1
  H  H34  1  0.314400  0.555900  0.436500  1
  H  H35  1  0.650900  0.517500  0.491300  1
  H  H36  1  0.349100  0.482500  0.508700  1
  H  H37  1  0.778100  0.557100  0.514400  1
  H  H38  1  0.221900  0.442900  0.485600  1
  H  H39  1  0.817400  0.476000  0.582300  1
  H  H40  1  0.182600  0.524000  0.417700  1
  H  H41  1  0.180400  0.139000  0.398700  1
  H  H42  1  0.819600  0.861000  0.601300  1
  H  H43  1  0.134500  0.136700  0.469700  1
  H  H44  1  0.865500  0.863300  0.530300  1
  H  H45  1  0.107700  0.298300  0.455400  1
  H  H46  1  0.892300  0.701700  0.544600  1
  H  H47  1  0.154200  0.296800  0.384200  1
  H  H48  1  0.845800  0.703200  0.615800  1
  H  H49  1  0.001400  0.165000  0.573500  1
  H  H50  1  0.998600  0.835000  0.426500  1
  H  H51  1  0.060900  0.156300  0.511200  1
  H  H52  1  0.939100  0.843700  0.488800  1
  H  H53  1  0.081600  0.289300  0.527900  1
  H  H54  1  0.918400  0.710700  0.472100  1
  H  H55  1  0.015500  0.302700  0.584200  1
  H  H56  1  0.984500  0.697300  0.415800  1
  H  H57  1  0.870300  0.090100  0.248800  1
  H  H58  1  0.129700  0.909900  0.751200  1
  H  H59  1  0.953400  0.100900  0.251900  1
  H  H60  1  0.046600  0.899100  0.748100  1
  H  H61  1  0.892300  0.234400  0.137600  1
  H  H62  1  0.107700  0.765600  0.862400  1
  H  H63  1  0.811600  0.218200  0.128800  1
  H  H64  1  0.188400  0.781800  0.871200  1
  H  H65  1  0.109400  0.119700  0.261300  1
  H  H66  1  0.890600  0.880300  0.738700  1
  H  H67  1  0.027800  0.107000  0.255100  1
  H  H68  1  0.972200  0.893000  0.744900  1
  H  H69  1  0.971300  0.232500  0.134400  1
  H  H70  1  0.028700  0.767500  0.865600  1
  H  H71  1  0.055700  0.239900  0.138500  1
  H  H72  1  0.944300  0.760100  0.861500  1
  H  H73  1  0.787800  0.641800  0.113800  1
  H  H74  1  0.212200  0.358200  0.886200  1
  H  H75  1  0.877100  0.560900  0.117600  1
  H  H76  1  0.122900  0.439100  0.882400  1
  H  H77  1  0.932200  0.584700  0.235200  1
  H  H78  1  0.067800  0.415300  0.764800  1
  H  H79  1  0.842100  0.659000  0.234500  1
  H  H80  1  0.157900  0.341000  0.765500  1
  H  H81  1  0.043700  0.411300  0.128800  1
  H  H82  1  0.956300  0.588700  0.871200  1
  H  H83  1  0.955200  0.491500  0.119900  1
  H  H84  1  0.044800  0.508500  0.880100  1
  H  H85  1  0.006700  0.517100  0.239400  1
  H  H86  1  0.993300  0.482900  0.760600  1
  H  H87  1  0.096600  0.439300  0.242600  1
  H  H88  1  0.903400  0.560700  0.757400  1
  H  H89  1  0.529600  0.392400  0.224500  1
  H  H90  1  0.470400  0.607600  0.775500  1
  H  H91  1  0.518200  0.485500  0.217500  1
  H  H92  1  0.481800  0.514500  0.782500  1
  H  H93  1  0.640700  0.461500  0.128800  1
  H  H94  1  0.359300  0.538500  0.871200  1
  H  H95  1  0.651700  0.371700  0.134500  1
  H  H96  1  0.348300  0.628300  0.865500  1
  H  H97  1  0.539200  0.634200  0.235400  1
  H  H98  1  0.460800  0.365800  0.764600  1
  H  H99  1  0.543900  0.547400  0.235300  1
  H  H100  1  0.456100  0.452600  0.764700  1
  H  H101  1  0.605900  0.554300  0.106600  1
  H  H102  1  0.394100  0.445700  0.893400  1
  H  H103  1  0.605000  0.640800  0.104700  1
  H  H104  1  0.395000  0.359200  0.895300  1
  H  H105  1  0.877000  0.082100  0.687800  1
  H  H106  1  0.123000  0.917900  0.312200  1
  H  H107  1  0.925600  0.992500  0.672900  1
  H  H108  1  0.074400  0.007500  0.327100  1
  H  H109  1  0.018900  0.958800  0.657600  1
  H  H110  1  0.981100  0.041200  0.342400  1
  H  H111  1  0.065700  0.013200  0.665800  1
  H  H112  1  0.934300  0.986800  0.334200  1
  H  H113  1  0.016000  0.101800  0.676000  1
  H  H114  1  0.984000  0.898200  0.324000  1
  H  H115  1  0.012400  0.310500  0.682200  1
  H  H116  1  0.987600  0.689500  0.317800  1
  H  H117  1  0.062800  0.364900  0.670300  1
  H  H118  1  0.937200  0.635100  0.329700  1
  H  H119  1  0.010700  0.461000  0.666800  1
  H  H120  1  0.989300  0.539000  0.333200  1
  H  H121  1  0.906500  0.504200  0.672000  1
  H  H122  1  0.093500  0.495800  0.328000  1
  H  H123  1  0.864100  0.441700  0.684500  1
  H  H124  1  0.135900  0.558300  0.315500  1
  H  H125  1  0.663200  0.417600  0.689800  1
  H  H126  1  0.336800  0.582400  0.310200  1
  H  H127  1  0.561300  0.460400  0.687500  1
  H  H128  1  0.438700  0.539600  0.312500  1
  H  H129  1  0.515000  0.402400  0.691300  1
  H  H130  1  0.485000  0.597600  0.308700  1
  H  H131  1  0.565900  0.313200  0.684400  1
  H  H132  1  0.434100  0.686800  0.315600  1
  H  H133  1  0.666667  0.272500  0.691000  1
  H  H134  1  0.333333  0.727500  0.309000  1
  H  H135  1  0.314800  0.061200  0.365800  1
  H  H136  1  0.685200  0.938800  0.634200  1
  H  H137  1  0.314800  0.967000  0.409500  1
  H  H138  1  0.685200  0.033000  0.590500  1
  H  H139  1  0.299900  0.914300  0.371100  1
  H  H140  1  0.700100  0.085700  0.628900  1
  H  H141  1  0.256600  0.955100  0.294400  1
  H  H142  1  0.743400  0.044900  0.705600  1
  H  H143  1  0.242600  0.047200  0.251700  1
  H  H144  1  0.757400  0.952800  0.748300  1
  H  H145  1  0.230000  0.407200  0.234200  1
  H  H146  1  0.770000  0.592800  0.765800  1
  H  H147  1  0.225000  0.478200  0.265800  1
  H  H148  1  0.775000  0.521800  0.734200  1
  H  H149  1  0.242900  0.458400  0.349500  1
  H  H150  1  0.757100  0.541600  0.650500  1
  H  H151  1  0.263900  0.367800  0.399700  1
  H  H152  1  0.736100  0.632200  0.600300  1
  H  H153  1  0.266400  0.297100  0.362100  1
  H  H154  1  0.733600  0.702900  0.637900  1
  H  H155  1  0.166100  0.219000  0.079900  1
  H  H156  1  0.833900  0.781000  0.920100  1
  H  H157  1  0.121500  0.251000  0.000800  1
  H  H158  1  0.878500  0.749000  0.999200  1
  H  H159  1  0.106400  0.342900  0.950100  1
  H  H160  1  0.893600  0.657100  0.049900  1
  H  H161  1  0.128800  0.398300  0.983800  1
  H  H162  1  0.871200  0.601700  0.016200  1
  H  H163  1  0.162200  0.367900  0.068600  1
  H  H164  1  0.837800  0.632100  0.931400  1
  H  H165  1  0.817200  0.005700  0.231300  1
  H  H166  1  0.182800  0.994300  0.768700  1
  H  H167  1  0.885900  0.915800  0.271500  1
  H  H168  1  0.114100  0.084200  0.728500  1
  H  H169  1  0.881700  0.875200  0.349200  1
  H  H170  1  0.118300  0.124800  0.650800  1
  H  H171  1  0.802800  0.923000  0.390400  1
  H  H172  1  0.197200  0.077000  0.609600  1
  H  H173  1  0.728700  0.015900  0.343700  1
  H  H174  1  0.271300  0.984100  0.656300  1
  H  H175  1  0.505500  0.197000  0.322900  1
  H  H176  1  0.494500  0.803000  0.677100  1
  H  H177  1  0.424100  0.248100  0.361700  1
  H  H178  1  0.575900  0.751900  0.638300  1
  H  H179  1  0.357800  0.354600  0.302000  1
  H  H180  1  0.642200  0.645400  0.698000  1
  H  H181  1  0.378000  0.379600  0.232800  1
  H  H182  1  0.622000  0.620400  0.767200  1
  H  H183  1  0.474900  0.332000  0.205300  1
  H  H184  1  0.525100  0.668000  0.794700  1
  H  H185  1  0.595500  0.324000  0.051900  1
  H  H186  1  0.404500  0.676000  0.948100  1
  H  H187  1  0.610700  0.369800  0.976700  1
  H  H188  1  0.389300  0.630200  0.023300  1
  H  H189  1  0.691400  0.316700  0.941100  1
  H  H190  1  0.308600  0.683300  0.058900  1
  H  H191  1  0.761400  0.228300  0.986500  1
  H  H192  1  0.238600  0.771700  0.013500  1
  H  H193  1  0.744200  0.192700  0.066500  1
  H  H194  1  0.255800  0.807300  0.933500  1
  H  H195  1  0.714500  0.774300  0.046900  1
  H  H196  1  0.285500  0.225700  0.953100  1
  H  H197  1  0.731200  0.762000  0.969200  1
  H  H198  1  0.268800  0.238000  0.030800  1
  H  H199  1  0.666100  0.748000  0.926200  1
  H  H200  1  0.333900  0.252000  0.073800  1
  H  H201  1  0.583600  0.749900  0.961300  1
  H  H202  1  0.416400  0.250100  0.038700  1
  H  H203  1  0.571000  0.761800  0.039900  1
  H  H204  1  0.429000  0.238200  0.960100  1
  H  H205  1  0.711100  0.800500  0.330200  1
  H  H206  1  0.288900  0.199500  0.669800  1
  H  H207  1  0.792600  0.786400  0.377800  1
  H  H208  1  0.207400  0.213600  0.622200  1
  H  H209  1  0.874500  0.783000  0.338800  1
  H  H210  1  0.125500  0.217000  0.661200  1
  H  H211  1  0.875300  0.784800  0.257400  1
  H  H212  1  0.124700  0.215200  0.742600  1
  H  H213  1  0.800100  0.782400  0.219600  1
  H  H214  1  0.199900  0.217600  0.780400  1
  H  H215  1  0.430000  0.793600  0.198100  1
  H  H216  1  0.570000  0.206400  0.801900  1
  H  H217  1  0.341600  0.811300  0.228600  1
  H  H218  1  0.658400  0.188700  0.771400  1
  H  H219  1  0.325600  0.830800  0.305000  1
  H  H220  1  0.674400  0.169200  0.695000  1
  H  H221  1  0.402700  0.825000  0.351100  1
  H  H222  1  0.597300  0.175000  0.648900  1
  H  H223  1  0.489100  0.808000  0.317300  1
  H  H224  1  0.510900  0.192000  0.682700  1
  C  C225  1  0.465100  0.017700  0.113800  1
  C  C226  1  0.534900  0.982300  0.886200  1
  C  C227  1  0.517200  0.973400  0.107900  1
  C  C228  1  0.482800  0.026600  0.892100  1
  C  C229  1  0.545000  0.981500  0.065900  1
  C  C230  1  0.455000  0.018500  0.934100  1
  C  C231  1  0.520700  0.034100  0.029800  1
  C  C232  1  0.479300  0.965900  0.970200  1
  C  C233  1  0.468700  0.078500  0.035700  1
  C  C234  1  0.531300  0.921500  0.964300  1
  C  C235  1  0.632500  0.264200  0.845500  1
  C  C236  1  0.367500  0.735800  0.154500  1
  C  C237  1  0.583700  0.294800  0.867000  1
  C  C238  1  0.416300  0.705200  0.133000  1
  C  C239  1  0.570600  0.350300  0.869000  1
  C  C240  1  0.429400  0.649700  0.131000  1
  C  C241  1  0.606300  0.375200  0.849500  1
  C  C242  1  0.393700  0.624800  0.150500  1
  C  C243  1  0.655000  0.344700  0.828000  1
  C  C244  1  0.345000  0.655300  0.172000  1
  C  C245  1  0.753500  0.097100  0.997900  1
  C  C246  1  0.246500  0.902900  0.002100  1
  C  C247  1  0.798300  0.081800  0.967900  1
  C  C248  1  0.201700  0.918200  0.032100  1
  C  C249  1  0.785900  0.091400  0.917700  1
  C  C250  1  0.214100  0.908600  0.082300  1
  C  C251  1  0.728700  0.116400  0.897500  1
  C  C252  1  0.271300  0.883600  0.102500  1
  C  C253  1  0.683900  0.131600  0.927500  1
  C  C254  1  0.316100  0.868400  0.072500  1
  C  C255  1  0.870600  0.630700  0.440500  1
  C  C256  1  0.129400  0.369300  0.559500  1
  C  C257  1  0.920000  0.582300  0.465800  1
  C  C258  1  0.080000  0.417700  0.534200  1
  C  C259  1  0.925300  0.563900  0.517000  1
  C  C260  1  0.074700  0.436100  0.483000  1
  C  C261  1  0.881200  0.593900  0.543000  1
  C  C262  1  0.118800  0.406100  0.457000  1
  C  C263  1  0.831800  0.642300  0.517700  1
  C  C264  1  0.168200  0.357700  0.482300  1
  C  C265  1  0.419000  0.403000  0.395200  1
  C  C266  1  0.581000  0.597000  0.604800  1
  C  C267  1  0.473300  0.375000  0.380300  1
  C  C268  1  0.526700  0.625000  0.619700  1
  C  C269  1  0.482100  0.388800  0.331000  1
  C  C270  1  0.517900  0.611200  0.669000  1
  C  C271  1  0.436000  0.430000  0.296100  1
  C  C272  1  0.564000  0.570000  0.703900  1
  C  C273  1  0.381500  0.457900  0.311100  1
  C  C274  1  0.618500  0.542100  0.688900  1
  C  C275  1  0.823000  0.340000  0.049800  1
  C  C276  1  0.177000  0.660000  0.950200  1
  C  C277  1  0.872000  0.335000  0.074000  1
  C  C278  1  0.128000  0.665000  0.926000  1
  C  C279  1  0.868000  0.348000  0.119000  1
  C  C280  1  0.132000  0.652000  0.881000  1
  C  C281  1  0.816000  0.366000  0.140000  1
  C  C282  1  0.184000  0.634000  0.860000  1
  C  C283  1  0.767000  0.371000  0.115000  1
  C  C284  1  0.233000  0.629000  0.885000  1
  C  C285  1  0.988900  0.352000  0.857900  1
  C  C286  1  0.011100  0.648000  0.142100  1
  C  C287  1  0.992800  0.323700  0.822000  1
  C  C288  1  0.007200  0.676300  0.178000  1
  C  C289  1  0.044200  0.276000  0.820200  1
  C  C290  1  0.955800  0.724000  0.179800  1
  C  C291  1  0.091500  0.256700  0.854200  1
  C  C292  1  0.908500  0.743300  0.145800  1
  C  C293  1  0.087600  0.285000  0.890100  1
  C  C294  1  0.912400  0.715000  0.109900  1
  C  C295  1  0.527700  0.782000  0.432400  1
  C  C296  1  0.472300  0.218000  0.567600  1
  C  C297  1  0.506000  0.746200  0.461000  1
  C  C298  1  0.494000  0.253800  0.539000  1
  C  C299  1  0.449000  0.770000  0.473100  1
  C  C300  1  0.551000  0.230000  0.526900  1
  C  C301  1  0.414100  0.829000  0.455900  1
  C  C302  1  0.585900  0.171000  0.544100  1
  C  C303  1  0.436000  0.864400  0.426900  1
  C  C304  1  0.564000  0.135600  0.573100  1
  C  C305  1  0.065500  0.382000  0.318600  1
  C  C306  1  0.934500  0.618000  0.681400  1
  C  C307  1  0.045000  0.418000  0.349000  1
  C  C308  1  0.955000  0.582000  0.651000  1
  C  C309  1  0.991000  0.432000  0.365000  1
  C  C310  1  0.009000  0.568000  0.635000  1
  C  C311  1  0.956000  0.410000  0.351000  1
  C  C312  1  0.044000  0.590000  0.649000  1
  C  C313  1  0.977000  0.373000  0.321000  1
  C  C314  1  0.023000  0.627000  0.679000  1
  C  C315  1  0.235000  0.766700  0.719700  1
  C  C316  1  0.765000  0.233300  0.280300  1
  C  C317  1  0.287900  0.670500  0.696800  1
  C  C318  1  0.712100  0.329500  0.303200  1
  C  C319  1  0.328800  0.695000  0.761000  1
  C  C320  1  0.671200  0.305000  0.239000  1
  C  C321  1  0.690300  0.546000  0.304500  1
  C  C322  1  0.309700  0.454000  0.695500  1
  C  C323  1  0.747000  0.592000  0.286000  1
  C  C324  1  0.253000  0.408000  0.714000  1
  C  C325  1  0.740000  0.544000  0.221000  1
  C  C326  1  0.260000  0.456000  0.779000  1
  C  C327  1  0.910500  0.019000  0.488300  1
  C  C328  1  0.089500  0.981000  0.511700  1
  C  C329  1  0.852000  0.971000  0.532000  1
  C  C330  1  0.148000  0.029000  0.468000  1
  C  C331  1  0.884000  0.977000  0.442000  1
  C  C332  1  0.116000  0.023000  0.558000  1
  C  C333  1  0.714500  0.926500  0.436300  1
  C  C334  1  0.285500  0.073500  0.563700  1
  C  C335  1  0.672000  0.943000  0.517000  1
  C  C336  1  0.328000  0.057000  0.483000  1
  C  C337  1  0.689000  0.018000  0.457000  1
  C  C338  1  0.311000  0.982000  0.543000  1
  C  C339  1  0.504200  0.052000  0.381600  1
  C  C340  1  0.495800  0.948000  0.618400  1
  C  C341  1  0.460000  0.998400  0.343100  1
  C  C342  1  0.540000  0.001600  0.656900  1
  C  C343  1  0.562900  0.963400  0.380300  1
  C  C344  1  0.437100  0.036600  0.619700  1
  C  C345  1  0.065700  0.556500  0.949800  1
  C  C346  1  0.934300  0.443500  0.050200  1
  C  C347  1  0.049000  0.543000  0.036700  1
  C  C348  1  0.951000  0.457000  0.963300  1
  C  C349  1  0.989000  0.639000  0.972000  1
  C  C350  1  0.011000  0.361000  0.028000  1
  C  C351  1  0.554000  0.385600  0.540400  1
  C  C352  1  0.446000  0.614400  0.459600  1
  C  C353  1  0.546000  0.465000  0.553000  1
  C  C354  1  0.454000  0.535000  0.447000  1
  C  C355  1  0.649800  0.395000  0.567000  1
  C  C356  1  0.350200  0.605000  0.433000  1
  C  C357  1  0.360300  0.959100  0.160600  1
  C  C358  1  0.639700  0.040900  0.839400  1
  C  C359  1  0.409300  0.977600  0.230300  1
  C  C360  1  0.590700  0.022400  0.769700  1
  C  C361  1  0.574300  0.124900  0.037200  1
  C  C362  1  0.425700  0.875100  0.962800  1
  C  C363  1  0.570500  0.215200  0.999600  1
  C  C364  1  0.429500  0.784800  0.000400  1
  C  C365  1  0.740900  0.880200  0.978100  1
  C  C366  1  0.259100  0.119800  0.021900  1
  C  C367  1  0.684700  0.988800  0.989300  1
  C  C368  1  0.315300  0.011200  0.010700  1
  C  C369  1  0.402000  0.211200  0.185200  1
  C  C370  1  0.598000  0.788800  0.814800  1
  C  C371  1  0.448400  0.102500  0.199600  1
  C  C372  1  0.551600  0.897500  0.800400  1
  C  C373  1  0.907200  0.244700  0.859200  1
  C  C374  1  0.092800  0.755300  0.140800  1
  C  C375  1  0.817400  0.238400  0.867200  1
  C  C376  1  0.182600  0.761600  0.132800  1
  C  C377  1  0.670000  0.790300  0.528500  1
  C  C378  1  0.330000  0.209700  0.471500  1
  C  C379  1  0.677000  0.790600  0.443900  1
  C  C380  1  0.323000  0.209400  0.556100  1
  C  C381  1  0.659400  0.165200  0.320900  1
  C  C382  1  0.340600  0.834800  0.679100  1
  C  C383  1  0.674100  0.168500  0.369900  1
  C  C384  1  0.325900  0.831500  0.630100  1
  C  C385  1  0.730600  0.135500  0.391400  1
  C  C386  1  0.269400  0.864500  0.608600  1
  C  C387  1  0.746800  0.141900  0.435100  1
  C  C388  1  0.253200  0.858100  0.564900  1
  C  C389  1  0.711500  0.189200  0.451900  1
  C  C390  1  0.288500  0.810800  0.548100  1
  C  C391  1  0.657100  0.227600  0.426600  1
  C  C392  1  0.342900  0.772400  0.573400  1
  C  C393  1  0.638800  0.214500  0.386000  1
  C  C394  1  0.361200  0.785500  0.614000  1
  C  C395  1  0.788600  0.224700  0.623800  1
  C  C396  1  0.211400  0.775300  0.376200  1
  C  C397  1  0.762700  0.212000  0.584800  1
  C  C398  1  0.237300  0.788000  0.415200  1
  C  C399  1  0.714100  0.255800  0.554000  1
  C  C400  1  0.285900  0.744200  0.446000  1
  C  C401  1  0.697200  0.245400  0.511300  1
  C  C402  1  0.302800  0.754600  0.488700  1
  C  C403  1  0.726400  0.195500  0.498900  1
  C  C404  1  0.273600  0.804500  0.501100  1
  C  C405  1  0.782100  0.160600  0.519100  1
  C  C406  1  0.217900  0.839400  0.480900  1
  C  C407  1  0.801400  0.167300  0.567600  1
  C  C408  1  0.198600  0.832700  0.432400  1
  C  C409  1  0.636600  0.723600  0.307500  1
  C  C410  1  0.363400  0.276400  0.692500  1
  C  C411  1  0.653400  0.679200  0.356200  1
  C  C412  1  0.346600  0.320800  0.643800  1
  C  C413  1  0.705900  0.659400  0.381300  1
  C  C414  1  0.294100  0.340600  0.618700  1
  C  C415  1  0.725600  0.615100  0.423800  1
  C  C416  1  0.274400  0.384900  0.576200  1
  C  C417  1  0.689800  0.593800  0.447500  1
  C  C418  1  0.310200  0.406200  0.552500  1
  C  C419  1  0.636800  0.614400  0.421300  1
  C  C420  1  0.363200  0.385600  0.578700  1
  C  C421  1  0.619500  0.655200  0.377300  1
  C  C422  1  0.380500  0.344800  0.622700  1
  C  C423  1  0.783300  0.397900  0.619500  1
  C  C424  1  0.216700  0.602100  0.380500  1
  C  C425  1  0.756700  0.449600  0.577000  1
  C  C426  1  0.243300  0.550400  0.423000  1
  C  C427  1  0.706400  0.464800  0.552000  1
  C  C428  1  0.293600  0.535200  0.448000  1
  C  C429  1  0.684100  0.510700  0.509300  1
  C  C430  1  0.315900  0.489300  0.490700  1
  C  C431  1  0.710100  0.546100  0.493200  1
  C  C432  1  0.289900  0.453900  0.506800  1
  C  C433  1  0.760200  0.533000  0.522500  1
  C  C434  1  0.239800  0.467000  0.477500  1
  C  C435  1  0.783700  0.484400  0.564000  1
  C  C436  1  0.216300  0.515600  0.436000  1
  C  C437  1  0.203500  0.216100  0.339200  1
  C  C438  1  0.796500  0.783900  0.660800  1
  C  C439  1  0.173300  0.216800  0.385400  1
  C  C440  1  0.826700  0.783200  0.614600  1
  C  C441  1  0.165600  0.171600  0.410300  1
  C  C442  1  0.834400  0.828400  0.589700  1
  C  C443  1  0.137000  0.170000  0.452700  1
  C  C444  1  0.863000  0.830000  0.547300  1
  C  C445  1  0.112600  0.218800  0.468900  1
  C  C446  1  0.887400  0.781200  0.531100  1
  C  C447  1  0.121300  0.265700  0.443900  1
  C  C448  1  0.878700  0.734300  0.556100  1
  C  C449  1  0.150500  0.264300  0.401500  1
  C  C450  1  0.849500  0.735700  0.598500  1
  C  C451  1  0.956400  0.243800  0.621300  1
  C  C452  1  0.043600  0.756200  0.378700  1
  C  C453  1  0.999500  0.236300  0.584700  1
  C  C454  1  0.000500  0.763700  0.415300  1
  C  C455  1  0.015700  0.191900  0.563000  1
  C  C456  1  0.984300  0.808100  0.437000  1
  C  C457  1  0.052500  0.185900  0.526100  1
  C  C458  1  0.947500  0.814100  0.473900  1
  C  C459  1  0.076700  0.223000  0.511100  1
  C  C460  1  0.923300  0.777000  0.488900  1
  C  C461  1  0.063700  0.265200  0.535300  1
  C  C462  1  0.936300  0.734800  0.464700  1
  C  C463  1  0.024900  0.272400  0.570100  1
  C  C464  1  0.975100  0.727600  0.429900  1
  C  C465  1  0.772000  0.157500  0.193100  1
  C  C466  1  0.228000  0.842500  0.806900  1
  C  C467  1  0.828100  0.159400  0.192700  1
  C  C468  1  0.171900  0.840600  0.807300  1
  C  C469  1  0.873100  0.120500  0.226200  1
  C  C470  1  0.126900  0.879500  0.773800  1
  C  C471  1  0.924300  0.126300  0.226600  1
  C  C472  1  0.075700  0.873700  0.773400  1
  C  C473  1  0.934500  0.165500  0.193400  1
  C  C474  1  0.065500  0.834500  0.806600  1
  C  C475  1  0.889700  0.203300  0.159500  1
  C  C476  1  0.110300  0.796700  0.840500  1
  C  C477  1  0.838500  0.196600  0.156400  1
  C  C478  1  0.161500  0.803400  0.843600  1
  C  C479  1  0.144900  0.189300  0.204600  1
  C  C480  1  0.855100  0.810700  0.795400  1
  C  C481  1  0.090300  0.181500  0.200200  1
  C  C482  1  0.909700  0.818500  0.799800  1
  C  C483  1  0.081700  0.142800  0.234500  1
  C  C484  1  0.918300  0.857200  0.765500  1
  C  C485  1  0.031600  0.136000  0.231100  1
  C  C486  1  0.968400  0.864000  0.768900  1
  C  C487  1  0.989200  0.169100  0.195000  1
  C  C488  1  0.010800  0.830900  0.805000  1
  C  C489  1  0.999300  0.208100  0.160800  1
  C  C490  1  0.000700  0.791900  0.839200  1
  C  C491  1  0.050100  0.213100  0.163600  1
  C  C492  1  0.949900  0.786900  0.836400  1
  C  C493  1  0.747300  0.705700  0.175100  1
  C  C494  1  0.252700  0.294300  0.824900  1
  C  C495  1  0.805500  0.656800  0.174400  1
  C  C496  1  0.194500  0.343200  0.825600  1
  C  C497  1  0.816300  0.629500  0.139500  1
  C  C498  1  0.183700  0.370500  0.860500  1
  C  C499  1  0.871200  0.581300  0.141000  1
  C  C500  1  0.128800  0.418700  0.859000  1
  C  C501  1  0.914900  0.565000  0.176100  1
  C  C502  1  0.085100  0.435000  0.823900  1
  C  C503  1  0.903200  0.594800  0.210600  1
  C  C504  1  0.096800  0.405200  0.789400  1
  C  C505  1  0.848900  0.639900  0.210000  1
  C  C506  1  0.151100  0.360100  0.790000  1
  C  C507  1  0.133300  0.361900  0.194000  1
  C  C508  1  0.866700  0.638100  0.806000  1
  C  C509  1  0.077600  0.415900  0.187700  1
  C  C510  1  0.922400  0.584100  0.812300  1
  C  C511  1  0.036400  0.432800  0.151500  1
  C  C512  1  0.963600  0.567200  0.848500  1
  C  C513  1  0.982700  0.481100  0.146000  1
  C  C514  1  0.017300  0.518900  0.854000  1
  C  C515  1  0.970700  0.513600  0.179900  1
  C  C516  1  0.029300  0.486400  0.820100  1
  C  C517  1  0.013200  0.496700  0.215900  1
  C  C518  1  0.986800  0.503300  0.784100  1
  C  C519  1  0.067400  0.448500  0.218600  1
  C  C520  1  0.932600  0.551500  0.781400  1
  C  C521  1  0.596900  0.314400  0.181300  1
  C  C522  1  0.403100  0.685600  0.818700  1
  C  C523  1  0.591000  0.372700  0.179200  1
  C  C524  1  0.409000  0.627300  0.820800  1
  C  C525  1  0.552400  0.406200  0.204700  1
  C  C526  1  0.447600  0.593800  0.795300  1
  C  C527  1  0.546500  0.461800  0.201400  1
  C  C528  1  0.453500  0.538200  0.798600  1
  C  C529  1  0.582600  0.481300  0.174500  1
  C  C530  1  0.417400  0.518700  0.825500  1
  C  C531  1  0.618400  0.447900  0.149300  1
  C  C532  1  0.381600  0.552100  0.850700  1
  C  C533  1  0.624200  0.394200  0.151900  1
  C  C534  1  0.375800  0.605800  0.848100  1
  C  C535  1  0.576200  0.701500  0.170100  1
  C  C536  1  0.423800  0.298500  0.829900  1
  C  C537  1  0.575600  0.645700  0.171600  1
  C  C538  1  0.424400  0.354300  0.828400  1
  C  C539  1  0.554700  0.617900  0.209800  1
  C  C540  1  0.445300  0.382100  0.790200  1
  C  C541  1  0.557300  0.565900  0.209100  1
  C  C542  1  0.442700  0.434100  0.790900  1
  C  C543  1  0.578100  0.539800  0.172900  1
  C  C544  1  0.421900  0.460200  0.827100  1
  C  C545  1  0.594200  0.569600  0.133400  1
  C  C546  1  0.405800  0.430400  0.866600  1
  C  C547  1  0.593500  0.621700  0.132000  1
  C  C548  1  0.406500  0.378300  0.868000  1
  C  C549  1  0.916000  0.068300  0.682800  1
  C  C550  1  0.084000  0.931700  0.317200  1
  C  C551  1  0.945300  0.014200  0.673400  1
  C  C552  1  0.054700  0.985800  0.326600  1
  C  C553  1  0.999400  0.993800  0.665300  1
  C  C554  1  0.000600  0.006200  0.334700  1
  C  C555  1  0.026200  0.027200  0.668900  1
  C  C556  1  0.973800  0.972800  0.331100  1
  C  C557  1  0.996800  0.079400  0.676600  1
  C  C558  1  0.003200  0.920600  0.323400  1
  C  C559  1  0.992000  0.349700  0.679700  1
  C  C560  1  0.008000  0.650300  0.320300  1
  C  C561  1  0.023100  0.381400  0.673000  1
  C  C562  1  0.976900  0.618600  0.327000  1
  C  C563  1  0.991700  0.438000  0.670700  1
  C  C564  1  0.008300  0.562000  0.329300  1
  C  C565  1  0.928000  0.465200  0.674200  1
  C  C566  1  0.072000  0.534800  0.325800  1
  C  C567  1  0.903500  0.427500  0.681100  1
  C  C568  1  0.096500  0.572500  0.318900  1
  C  C569  1  0.643300  0.396100  0.689200  1
  C  C570  1  0.356700  0.603900  0.310800  1
  C  C571  1  0.582300  0.421700  0.688500  1
  C  C572  1  0.417700  0.578300  0.311500  1
  C  C573  1  0.554800  0.387600  0.689300  1
  C  C574  1  0.445200  0.612400  0.310700  1
  C  C575  1  0.584500  0.335300  0.687300  1
  C  C576  1  0.415500  0.664700  0.312700  1
  C  C577  1  0.645400  0.311500  0.689300  1
  C  C578  1  0.354600  0.688500  0.310700  1
  C  C579  1  0.299800  0.042600  0.350800  1
  C  C580  1  0.700200  0.957400  0.649200  1
  C  C581  1  0.303100  0.982000  0.375900  1
  C  C582  1  0.696900  0.018000  0.624100  1
  C  C583  1  0.291700  0.952200  0.355000  1
  C  C584  1  0.708300  0.047800  0.645000  1
  C  C585  1  0.268000  0.975700  0.310200  1
  C  C586  1  0.732000  0.024300  0.689800  1
  C  C587  1  0.258900  0.032000  0.284400  1
  C  C588  1  0.741100  0.968000  0.715600  1
  C  C589  1  0.236400  0.399000  0.268200  1
  C  C590  1  0.763600  0.601000  0.731800  1
  C  C591  1  0.233700  0.441800  0.286400  1
  C  C592  1  0.766300  0.558200  0.713600  1
  C  C593  1  0.244200  0.429900  0.335800  1
  C  C594  1  0.755800  0.570100  0.664200  1
  C  C595  1  0.256600  0.376500  0.365700  1
  C  C596  1  0.743400  0.623500  0.634300  1
  C  C597  1  0.257900  0.334000  0.342500  1
  C  C598  1  0.742100  0.666000  0.657500  1
  C  C599  1  0.156500  0.256500  0.061200  1
  C  C600  1  0.843500  0.743500  0.938800  1
  C  C601  1  0.131600  0.274800  0.013200  1
  C  C602  1  0.868400  0.725200  0.986800  1
  C  C603  1  0.121400  0.330200  0.982900  1
  C  C604  1  0.878600  0.669800  0.017100  1
  C  C605  1  0.133900  0.362200  0.002900  1
  C  C606  1  0.866100  0.637800  0.997100  1
  C  C607  1  0.155800  0.343200  0.054300  1
  C  C608  1  0.844200  0.656800  0.945700  1
  C  C609  1  0.813000  0.989300  0.263600  1
  C  C610  1  0.187000  0.010700  0.736400  1
  C  C611  1  0.854900  0.935400  0.287900  1
  C  C612  1  0.145100  0.064600  0.712100  1
  C  C613  1  0.852300  0.911300  0.333100  1
  C  C614  1  0.147700  0.088700  0.666900  1
  C  C615  1  0.805700  0.939300  0.357700  1
  C  C616  1  0.194300  0.060700  0.642300  1
  C  C617  1  0.761400  0.996000  0.329200  1
  C  C618  1  0.238600  0.004000  0.670800  1
  C  C619  1  0.480800  0.235700  0.308100  1
  C  C620  1  0.519200  0.764300  0.691900  1
  C  C621  1  0.432700  0.263200  0.330800  1
  C  C622  1  0.567300  0.736800  0.669200  1
  C  C623  1  0.392000  0.329900  0.292100  1
  C  C624  1  0.608000  0.670100  0.707900  1
  C  C625  1  0.405500  0.345300  0.253700  1
  C  C626  1  0.594500  0.654700  0.746300  1
  C  C627  1  0.463100  0.315700  0.234100  1
  C  C628  1  0.536900  0.684300  0.765900  1
  C  C629  1  0.629900  0.305100  0.038800  1
  C  C630  1  0.370100  0.694900  0.961200  1
  C  C631  1  0.637200  0.332400  0.993300  1
  C  C632  1  0.362800  0.667600  0.006700  1
  C  C633  1  0.686300  0.301300  0.973400  1
  C  C634  1  0.313700  0.698700  0.026600  1
  C  C635  1  0.727500  0.248900  0.999500  1
  C  C636  1  0.272500  0.751100  0.000500  1
  C  C637  1  0.715900  0.227600  0.047000  1
  C  C638  1  0.284100  0.772400  0.953000  1
  C  C639  1  0.688100  0.768800  0.029600  1
  C  C640  1  0.311900  0.231200  0.970400  1
  C  C641  1  0.698400  0.761600  0.983100  1
  C  C642  1  0.301600  0.238400  0.016900  1
  C  C643  1  0.659500  0.753700  0.957500  1
  C  C644  1  0.340500  0.246300  0.042500  1
  C  C645  1  0.611100  0.754300  0.978300  1
  C  C646  1  0.388900  0.245700  0.021700  1
  C  C647  1  0.603800  0.761600  0.025500  1
  C  C648  1  0.396200  0.238400  0.974500  1
  C  C649  1  0.745500  0.794200  0.316000  1
  C  C650  1  0.254500  0.205800  0.684000  1
  C  C651  1  0.793900  0.788200  0.344400  1
  C  C652  1  0.206100  0.211800  0.655600  1
  C  C653  1  0.843000  0.785100  0.321600  1
  C  C654  1  0.157000  0.214900  0.678400  1
  C  C655  1  0.843900  0.785200  0.274500  1
  C  C656  1  0.156100  0.214800  0.725500  1
  C  C657  1  0.797300  0.785900  0.251600  1
  C  C658  1  0.202700  0.214100  0.748400  1
  C  C659  1  0.424300  0.800900  0.228800  1
  C  C660  1  0.575700  0.199100  0.771200  1
  C  C661  1  0.370700  0.811500  0.247100  1
  C  C662  1  0.629300  0.188500  0.752900  1
  C  C663  1  0.361400  0.822200  0.292800  1
  C  C664  1  0.638600  0.177800  0.707200  1
  C  C665  1  0.406900  0.819800  0.319700  1
  C  C666  1  0.593100  0.180200  0.680300  1
  C  C667  1  0.458900  0.809300  0.299000  1
  C  C668  1  0.541100  0.190700  0.701000  1
  C  C669  1  0.713300  0.121500  0.406800  1
  C  C670  1  0.286700  0.878500  0.593200  1
  C  C671  1  0.728400  0.128500  0.450600  1
  C  C672  1  0.271600  0.871500  0.549400  1
  C  C673  1  0.699100  0.174900  0.466400  1
  C  C674  1  0.300900  0.825100  0.533600  1
  C  C675  1  0.649900  0.208800  0.440800  1
  C  C676  1  0.350100  0.791200  0.559200  1
  C  C677  1  0.703600  0.231100  0.574400  1
  C  C678  1  0.296400  0.768900  0.425600  1
  C  C679  1  0.684000  0.220400  0.534900  1
  C  C680  1  0.316000  0.779600  0.465100  1
  C  C681  1  0.718900  0.177700  0.514700  1
  C  C682  1  0.281100  0.822300  0.485300  1
  C  C683  1  0.765800  0.144700  0.538500  1
  C  C684  1  0.234200  0.855300  0.461500  1
  C  C685  1  0.780200  0.154600  0.580900  1
  C  C686  1  0.219800  0.845400  0.419100  1
  C  C687  1  0.875000  0.388000  0.487000  1
  C  C688  1  0.125000  0.612000  0.513000  1
  C  C689  1  0.880000  0.340000  0.524000  1
  C  C690  1  0.120000  0.660000  0.476000  1
  C  C691  1  0.837000  0.321000  0.525200  1
  C  C692  1  0.163000  0.679000  0.474800  1
  C  C693  1  0.790000  0.352000  0.490000  1
  C  C694  1  0.210000  0.648000  0.510000  1
  C  C695  1  0.785000  0.400000  0.453000  1
  C  C696  1  0.215000  0.600000  0.547000  1
  C  C697  1  0.835300  0.915400  0.103200  1
  C  C698  1  0.164700  0.084600  0.896800  1
  C  C699  1  0.839000  0.905000  0.127000  1
  C  C700  1  0.161000  0.095000  0.873000  1
  C  C701  1  0.912000  0.942000  0.077000  1
  C  C702  1  0.088000  0.058000  0.923000  1
  C  C703  1  0.860500  0.965600  0.837900  1
  C  C704  1  0.139500  0.034400  0.162100  1
  C  C705  1  0.767000  0.008000  0.864000  1
  C  C706  1  0.233000  0.992000  0.136000  1
  C  C707  1  0.865000  0.977000  0.823000  1
  C  C708  1  0.135000  0.023000  0.177000  1
  C  C709  1  0.679100  0.496400  0.812700  1
  C  C710  1  0.320900  0.503600  0.187300  1
  C  C711  1  0.589000  0.532000  0.756200  1
  C  C712  1  0.411000  0.468000  0.243800  1
  C  C713  1  0.587000  0.539000  0.845000  1
  C  C714  1  0.413000  0.461000  0.155000  1
  C  C715  1  0.644200  0.966900  0.222500  1
  C  C716  1  0.355800  0.033100  0.777500  1
  C  C717  1  0.595700  0.025500  0.166800  1
  C  C718  1  0.404300  0.974500  0.833200  1
  C  C719  1  0.961800  0.077200  0.867100  1
  C  C720  1  0.038200  0.922800  0.132900  1
  C  C721  1  0.061800  0.966900  0.870800  1
  C  C722  1  0.938200  0.033100  0.129200  1
  S  S723  1  0.997330  0.195440  0.748740  1
  S  S724  1  0.002670  0.804560  0.251260  1
  S  S725  1  0.788990  0.379570  0.752070  1
  S  S726  1  0.211010  0.620430  0.247930  1
  S  S727  1  0.797020  0.172200  0.755980  1
  S  S728  1  0.202980  0.827800  0.244020  1
  S  S729  1  0.567000  0.880610  0.271980  1
  S  S730  1  0.433000  0.119390  0.728020  1
  S  S731  1  0.698800  0.855010  0.120920  1
  S  S732  1  0.301200  0.144990  0.879080  1
  S  S733  1  0.487640  0.850330  0.108010  1
  S  S734  1  0.512360  0.149670  0.891990  1
  S  S735  1  0.271190  0.338600  0.150210  1
  S  S736  1  0.728810  0.661400  0.849790  1
  S  S737  1  0.356110  0.165310  0.317460  1
  S  S738  1  0.643890  0.834690  0.682540  1
  S  S739  1  0.283060  0.128270  0.156410  1
  S  S740  1  0.716940  0.871730  0.843590  1
  S  S741  1  0.722640  0.079920  0.134450  1
  S  S742  1  0.277360  0.920080  0.865550  1
  S  S743  1  0.587740  0.088310  0.286680  1
  S  S744  1  0.412260  0.911690  0.713320  1
  S  S745  1  0.520220  0.234000  0.125300  1
  S  S746  1  0.479780  0.766000  0.874700  1
  N  N747  1  0.440900  0.070300  0.077700  1
  N  N748  1  0.559100  0.929700  0.922300  1
  N  N749  1  0.668100  0.289200  0.826000  1
  N  N750  1  0.331900  0.710800  0.174000  1
  N  N751  1  0.696300  0.122000  0.977700  1
  N  N752  1  0.303700  0.878000  0.022300  1
  N  N753  1  0.826500  0.660700  0.466400  1
  N  N754  1  0.173500  0.339300  0.533600  1
  N  N755  1  0.372600  0.444000  0.360600  1
  N  N756  1  0.627400  0.556000  0.639400  1
  N  N757  1  0.771000  0.358000  0.070000  1
  N  N758  1  0.229000  0.642000  0.930000  1
  N  N759  1  0.036000  0.333000  0.891900  1
  N  N760  1  0.964000  0.667000  0.108100  1
  N  N761  1  0.493000  0.841000  0.415200  1
  N  N762  1  0.507000  0.159000  0.584800  1
  N  N763  1  0.031000  0.359000  0.304500  1
  N  N764  1  0.969000  0.641000  0.695500  1
  N  N765  1  0.280000  0.713200  0.724200  1
  N  N766  1  0.720000  0.286800  0.275800  1
  N  N767  1  0.721700  0.560300  0.267000  1
  N  N768  1  0.278300  0.439700  0.733000  1
  N  N769  1  0.881500  0.985900  0.491000  1
  N  N770  1  0.118500  0.014100  0.509000  1
  N  N771  1  0.693400  0.960000  0.469500  1
  N  N772  1  0.306600  0.040000  0.530500  1
  N  N773  1  0.506700  0.012200  0.356800  1
  N  N774  1  0.493300  0.987800  0.643200  1
  N  N775  1  0.033900  0.578600  0.985300  1
  N  N776  1  0.966100  0.421400  0.014700  1
  N  N777  1  0.590000  0.407000  0.552200  1
  N  N778  1  0.410000  0.593000  0.447800  1
  N  N779  1  0.413200  0.962600  0.182600  1
  N  N780  1  0.586800  0.037400  0.817400  1
  N  N781  1  0.604500  0.162800  0.027300  1
  N  N782  1  0.395500  0.837200  0.972700  1
  N  N783  1  0.734300  0.939300  0.974800  1
  N  N784  1  0.265700  0.060700  0.025200  1
  N  N785  1  0.446700  0.155400  0.211000  1
  N  N786  1  0.553300  0.844600  0.789000  1
  N  N787  1  0.873500  0.218600  0.838700  1
  N  N788  1  0.126500  0.781400  0.161300  1
  N  N789  1  0.714100  0.792100  0.488400  1
  N  N790  1  0.285900  0.207900  0.511600  1
  N  N791  1  0.943000  0.100000  0.684800  1
  N  N792  1  0.057000  0.900000  0.315200  1
  N  N793  1  0.934200  0.371200  0.683000  1
  N  N794  1  0.065800  0.628800  0.317000  1
  N  N795  1  0.672100  0.341000  0.689000  1
  N  N796  1  0.327900  0.659000  0.311000  1
  N  N797  1  0.273100  0.064100  0.305900  1
  N  N798  1  0.726900  0.935900  0.694100  1
  N  N799  1  0.247400  0.345600  0.295000  1
  N  N800  1  0.752600  0.654400  0.705000  1
  N  N801  1  0.166900  0.290400  0.081000  1
  N  N802  1  0.833100  0.709600  0.919000  1
  N  N803  1  0.766900  0.019000  0.283800  1
  N  N804  1  0.233100  0.981000  0.716200  1
  N  N805  1  0.494200  0.263100  0.263800  1
  N  N806  1  0.505800  0.736900  0.736200  1
  N  N807  1  0.667800  0.253900  0.065900  1
  N  N808  1  0.332200  0.746100  0.934100  1
  N  N809  1  0.641400  0.768200  0.050700  1
  N  N810  1  0.358600  0.231800  0.949300  1
  N  N811  1  0.748800  0.791100  0.271200  1
  N  N812  1  0.251200  0.208900  0.728800  1
  N  N813  1  0.467500  0.801000  0.253800  1
  N  N814  1  0.532500  0.199000  0.746200  1
  N  N815  1  0.828000  0.418000  0.452000  1
  N  N816  1  0.172000  0.582000  0.548000  1
  N  N817  1  0.882700  0.922800  0.114100  1
  N  N818  1  0.117300  0.077200  0.885900  1
  N  N819  1  0.804000  0.009200  0.823000  1
  N  N820  1  0.196000  0.990800  0.177000  1
  N  N821  1  0.619300  0.519300  0.804400  1
  N  N822  1  0.380700  0.480700  0.195600  1
  N  N823  1  0.694900  0.944300  0.230000  1
  N  N824  1  0.305100  0.055700  0.770000  1
  N  N825  1  0.626800  0.993900  0.174200  1
  N  N826  1  0.373200  0.006100  0.825800  1
  N  N827  1  0.681500  0.938500  0.972000  1
  N  N828  1  0.318500  0.061500  0.028000  1
  N  N829  1  0.037400  0.019800  0.821600  1
  N  N830  1  0.962600  0.980200  0.178400  1
  O  O831  1  0.192700  0.784600  0.689800  1
  O  O832  1  0.807300  0.215400  0.310200  1
  O  O833  1  0.688000  0.561000  0.342300  1
  O  O834  1  0.312000  0.439000  0.657700  1
  O  O835  1  0.912600  0.035300  0.525000  1
  O  O836  1  0.087400  0.964700  0.475000  1
  O  O837  1  0.719200  0.877300  0.444200  1
  O  O838  1  0.280800  0.122700  0.555800  1
  O  O839  1  0.495200  0.092800  0.402000  1
  O  O840  1  0.504800  0.907200  0.598000  1
  O  O841  1  0.105300  0.507400  0.957700  1
  O  O842  1  0.894700  0.492600  0.042300  1
  O  O843  1  0.500900  0.418000  0.535600  1
  O  O844  1  0.499100  0.582000  0.464400  1
  O  O845  1  0.842000  0.428000  0.897000  1
  O  O846  1  0.158000  0.572000  0.103000  1
  O  O847  1  0.142000  0.416000  0.654000  1
  O  O848  1  0.858000  0.584000  0.346000  1
  O  O849  1  0.410000  0.384000  0.137000  1
  O  O850  1  0.590000  0.616000  0.863000  1
  O  O851  1  0.497000  0.488000  0.969000  1
  O  O852  1  0.503000  0.512000  0.031000  1
  O  O853  1  0.923000  0.899000  0.628000  1
  O  O854  1  0.077000  0.101000  0.372000  1
  O  O855  1  0.040000  0.178000  0.007000  1
  O  O856  1  0.960000  0.822000  0.993000  1
  O  O857  1  0.984000  0.798000  0.649000  1
  O  O858  1  0.016000  0.202000  0.351000  1
  O  O859  1  0.851500  0.268200  0.692100  1
  O  O860  1  0.148500  0.731800  0.307900  1
  O  O861  1  0.616100  0.792400  0.190010  1
  O  O862  1  0.383900  0.207600  0.809990  1
  O  O863  1  0.238000  0.231400  0.225600  1
  O  O864  1  0.762000  0.768600  0.774400  1
  O  O865  1  0.639800  0.176600  0.204600  1
  O  O866  1  0.360200  0.823400  0.795400  1
  O  O867  1  0.961500  0.167200  0.739600  1
  O  O868  1  0.038500  0.832800  0.260400  1
  O  O869  1  0.957100  0.257400  0.741100  1
  O  O870  1  0.042900  0.742600  0.258900  1
  O  O871  1  0.022300  0.170800  0.799600  1
  O  O872  1  0.977700  0.829200  0.200400  1
  O  O873  1  0.039400  0.190000  0.712900  1
  O  O874  1  0.960600  0.810000  0.287100  1
  O  O875  1  0.761900  0.344200  0.741100  1
  O  O876  1  0.238100  0.655800  0.258900  1
  O  O877  1  0.851300  0.351700  0.742800  1
  O  O878  1  0.148700  0.648300  0.257200  1
  O  O879  1  0.760000  0.436000  0.720600  1
  O  O880  1  0.240000  0.564000  0.279400  1
  O  O881  1  0.786200  0.378800  0.802300  1
  O  O882  1  0.213800  0.621200  0.197700  1
  O  O883  1  0.858600  0.156200  0.744800  1
  O  O884  1  0.141400  0.843800  0.255200  1
  O  O885  1  0.765800  0.236300  0.743600  1
  O  O886  1  0.234200  0.763700  0.256400  1
  O  O887  1  0.770800  0.152100  0.724900  1
  O  O888  1  0.229200  0.847900  0.275100  1
  O  O889  1  0.794700  0.149900  0.806800  1
  O  O890  1  0.205300  0.850100  0.193200  1
  O  O891  1  0.531000  0.864900  0.243300  1
  O  O892  1  0.469000  0.135100  0.756700  1
  O  O893  1  0.625900  0.859600  0.254000  1
  O  O894  1  0.374100  0.140400  0.746000  1
  O  O895  1  0.541700  0.943200  0.260200  1
  O  O896  1  0.458300  0.056800  0.739800  1
  O  O897  1  0.572500  0.852300  0.322900  1
  O  O898  1  0.427500  0.147700  0.677100  1
  O  O899  1  0.653800  0.843500  0.099900  1
  O  O900  1  0.346200  0.156500  0.900100  1
  O  O901  1  0.690500  0.849600  0.174800  1
  O  O902  1  0.309500  0.150400  0.825200  1
  O  O903  1  0.755800  0.812900  0.115600  1
  O  O904  1  0.244200  0.187100  0.884400  1
  O  O905  1  0.687400  0.914800  0.096800  1
  O  O906  1  0.312600  0.085200  0.903200  1
  O  O907  1  0.546900  0.839400  0.092700  1
  O  O908  1  0.453100  0.160600  0.907300  1
  O  O909  1  0.490500  0.849800  0.161590  1
  O  O910  1  0.509500  0.150200  0.838410  1
  O  O911  1  0.474800  0.804300  0.104100  1
  O  O912  1  0.525200  0.195700  0.895900  1
  O  O913  1  0.446200  0.906300  0.080200  1
  O  O914  1  0.553800  0.093700  0.919800  1
  O  O915  1  0.254500  0.299000  0.132800  1
  O  O916  1  0.745500  0.701000  0.867200  1
  O  O917  1  0.284000  0.315500  0.205000  1
  O  O918  1  0.716000  0.684500  0.795000  1
  O  O919  1  0.223700  0.396500  0.137400  1
  O  O920  1  0.776300  0.603500  0.862600  1
  O  O921  1  0.321400  0.337500  0.128400  1
  O  O922  1  0.678600  0.662500  0.871600  1
  O  O923  1  0.323700  0.227300  0.294500  1
  O  O924  1  0.676300  0.772700  0.705500  1
  O  O925  1  0.333900  0.135200  0.291600  1
  O  O926  1  0.666100  0.864800  0.708400  1
  O  O927  1  0.345400  0.155200  0.365000  1
  O  O928  1  0.654600  0.844800  0.635000  1
  O  O929  1  0.417900  0.145800  0.310400  1
  O  O930  1  0.582100  0.854200  0.689600  1
  O  O931  1  0.294100  0.115000  0.211500  1
  O  O932  1  0.705900  0.885000  0.788500  1
  O  O933  1  0.262000  0.191900  0.136400  1
  O  O934  1  0.738000  0.808100  0.863600  1
  O  O935  1  0.337000  0.097600  0.137600  1
  O  O936  1  0.663000  0.902400  0.862400  1
  O  O937  1  0.237800  0.114100  0.145500  1
  O  O938  1  0.762200  0.885900  0.854500  1
  O  O939  1  0.712400  0.063700  0.187400  1
  O  O940  1  0.287600  0.936300  0.812600  1
  O  O941  1  0.680800  0.142500  0.113100  1
  O  O942  1  0.319200  0.857500  0.886900  1
  O  O943  1  0.780400  0.072100  0.131500  1
  O  O944  1  0.219600  0.927900  0.868500  1
  O  O945  1  0.706800  0.046900  0.109300  1
  O  O946  1  0.293200  0.953100  0.890700  1
  O  O947  1  0.645800  0.067100  0.265800  1
  O  O948  1  0.354200  0.932900  0.734200  1
  O  O949  1  0.552700  0.150400  0.257700  1
  O  O950  1  0.447300  0.849600  0.742300  1
  O  O951  1  0.594400  0.084000  0.338000  1
  O  O952  1  0.405600  0.916000  0.662000  1
  O  O953  1  0.558900  0.056200  0.275700  1
  O  O954  1  0.441100  0.943800  0.724300  1
  O  O955  1  0.574600  0.234700  0.106600  1
  O  O956  1  0.425400  0.765300  0.893400  1
  O  O957  1  0.514300  0.243700  0.173400  1
  O  O958  1  0.485700  0.756300  0.826600  1
  O  O959  1  0.530900  0.167100  0.136000  1
  O  O960  1  0.469100  0.832900  0.864000  1
  O  O961  1  0.472700  0.267200  0.092000  1
  O  O962  1  0.527300  0.732800  0.908000  1
  O  O963  1  0.754600  0.268900  0.638400  1
  O  O964  1  0.245400  0.731100  0.361600  1
  O  O965  1  0.839700  0.193300  0.639900  1
  O  O966  1  0.160300  0.806700  0.360100  1
  O  O967  1  0.611600  0.202700  0.297500  1
  O  O968  1  0.388400  0.797300  0.702500  1
  O  O969  1  0.696800  0.125300  0.304900  1
  O  O970  1  0.303200  0.874700  0.695100  1
  O  O971  1  0.752800  0.371900  0.635400  1
  O  O972  1  0.247200  0.628100  0.364600  1
  O  O973  1  0.834900  0.382500  0.636600  1
  O  O974  1  0.165100  0.617500  0.363400  1
  O  O975  1  0.587000  0.741500  0.286800  1
  O  O976  1  0.413000  0.258500  0.713200  1
  O  O977  1  0.674600  0.737600  0.290000  1
  O  O978  1  0.325400  0.262400  0.710000  1
  O  O979  1  0.939300  0.289500  0.635200  1
  O  O980  1  0.060700  0.710500  0.364800  1
  O  O981  1  0.940600  0.205800  0.635400  1
  O  O982  1  0.059400  0.794200  0.364600  1
  O  O983  1  0.219700  0.172200  0.323400  1
  O  O984  1  0.780300  0.827800  0.676600  1
  O  O985  1  0.207800  0.261700  0.318000  1
  O  O986  1  0.792200  0.738300  0.682000  1
  O  O987  1  0.733600  0.195400  0.158500  1
  O  O988  1  0.266400  0.804600  0.841500  1
  O  O989  1  0.764900  0.121600  0.226500  1
  O  O990  1  0.235100  0.878400  0.773500  1
  O  O991  1  0.180400  0.158200  0.241700  1
  O  O992  1  0.819600  0.841800  0.758300  1
  O  O993  1  0.148600  0.226700  0.170700  1
  O  O994  1  0.851400  0.773300  0.829300  1
  O  O995  1  0.740600  0.726700  0.210900  1
  O  O996  1  0.259400  0.273300  0.789100  1
  O  O997  1  0.708800  0.719800  0.141000  1
  O  O998  1  0.291200  0.280200  0.859000  1
  O  O999  1  0.167800  0.348700  0.231300  1
  O  O1000  1  0.832200  0.651300  0.768700  1
  O  O1001  1  0.140200  0.334000  0.163000  1
  O  O1002  1  0.859800  0.666000  0.837000  1
  O  O1003  1  0.603700  0.718100  0.138600  1
  O  O1004  1  0.396300  0.281900  0.861400  1
  O  O1005  1  0.551200  0.725200  0.203500  1
  O  O1006  1  0.448800  0.274800  0.796500  1
  O  O1007  1  0.626800  0.290200  0.150000  1
  O  O1008  1  0.373200  0.709800  0.850000  1
  O  O1009  1  0.573200  0.293400  0.213600  1
  O  O1010  1  0.426800  0.706600  0.786400  1
  O  O1011  1  0.816000  0.928000  0.059900  1
  O  O1012  1  0.184000  0.072000  0.940100  1
  O  O1013  1  0.867000  0.933600  0.880100  1
  O  O1014  1  0.133000  0.066400  0.119900  1
  O  O1015  1  0.699000  0.493500  0.852600  1
  O  O1016  1  0.301000  0.506500  0.147400  1
  O  O1017  1  0.751000  0.357000  0.047000  1
  O  O1018  1  0.249000  0.643000  0.953000  1
