
#######################################################################
#
#                 Cambridge Crystallographic Data Centre
#                                CCDC 
#
#######################################################################
#
# If this CIF has been generated from an entry in the Cambridge 
# Structural Database, then it will include bibliographic, chemical, 
# crystal, experimental, refinement or atomic coordinate data resulting 
# from the CCDC's data processing and validation procedures.
#
#######################################################################

data_JANZAA01
_chemical_name_common            IRMOP-51t
_chemical_formula_moiety         
'C144 H108 Fe12 N12 O76 S12 8-,8(C2 H8 N1 1+),x(C3 H7 N1 O1),x(C5 H5 N1),x(H2 O1)'
_chemical_name_systematic        
"octakis(Dimethylammonium) hexakis(\m~4~-4,4'-biphenyldicarboxylato-O,O',O'',O''')-tetrakis(\m~3~-oxo)-dodecakis(\m~2~-sulfato-O,O')-dodecakis(pyridine-N)-dodeca-iron dimethylformamide pyridine clathrate hydrate"
_symmetry_cell_setting           triclinic
_symmetry_space_group_name_H-M   'P -1'
_symmetry_Int_Tables_number      2
_space_group_name_Hall           '-P 1'
loop_
_symmetry_equiv_pos_site_id
_symmetry_equiv_pos_as_xyz
1 x,y,z
2 -x,-y,-z
_cell_length_a                   25.8626(9)
_cell_length_b                   26.8359(9)
_cell_length_c                   28.1926(10)
_cell_angle_alpha                75.1380(10)
_cell_angle_beta                 88.5680(10)
_cell_angle_gamma                63.7830(10)
_cell_volume                     16878.6
_exptl_crystal_colour            orange
_exptl_crystal_description       block
_cell_formula_units_Z            2
loop_
_atom_site_label
_atom_site_type_symbol
_atom_site_fract_x
_atom_site_fract_y
_atom_site_fract_z
Fe1 Fe 0.62611(3) 0.78336(3) 0.12392(2)
Fe2 Fe 0.54720(3) 0.79534(3) 0.21973(2)
Fe3 Fe 0.67576(3) 0.79414(3) 0.22742(2)
Fe4 Fe 0.76836(3) 0.30131(3) 0.69173(2)
Fe5 Fe 1.20690(3) 0.25919(3) 0.15770(2)
Fe6 Fe 0.65205(3) 0.21150(3) 0.13946(2)
Fe7 Fe 0.56992(3) 0.21725(3) 0.23237(2)
Fe8 Fe 1.25659(3) 0.15338(3) 0.26262(2)
Fe9 Fe 0.89081(3) 0.31478(3) 0.69059(2)
Fe10 Fe 1.24682(3) 0.28231(3) 0.25811(3)
Fe11 Fe 0.89500(3) 0.18893(3) 0.69203(2)
Fe12 Fe 0.69810(3) 0.10237(3) 0.24155(3)
O1 O 0.85152(12) 0.26785(12) 0.69269(9)
O2 O 0.61580(11) 0.79249(11) 0.19000(9)
O3 O 1.23781(11) 0.23167(12) 0.22567(10)
O4 O 0.63968(11) 0.17659(11) 0.20400(10)
S1 S 0.99724(7) 0.19528(7) 0.74886(6)
O5 O 0.96182(13) 0.16697(14) 0.73957(11)
O6 O 0.95668(13) 0.25741(14) 0.74119(11)
O7 O 1.02271(18) 0.17110(18) 0.79944(15)
O8 O 1.03971(15) 0.18944(16) 0.71346(17)
S2 S 0.78894(7) 0.37927(8) 0.75211(6)
O9 O 0.76232(14) 0.34348(15) 0.74140(11)
O10 O 0.85136(14) 0.35161(15) 0.74237(11)
O11 O 0.76072(18) 0.43685(18) 0.71973(17)
O12 O 0.78640(18) 0.3771(2) 0.80391(15)
S3 S 0.79705(7) 0.17203(7) 0.75584(6)
O13 O 0.85865(13) 0.15591(13) 0.74521(11)
O14 O 0.76571(14) 0.23677(15) 0.74323(11)
O15 O 0.77086(16) 0.15207(19) 0.72403(16)
O16 O 0.79508(18) 0.14978(18) 0.80692(15)
S4 S 0.56696(5) 0.88073(6) 0.27188(5)
O17 O 0.53148(11) 0.86494(11) 0.24338(10)
O18 O 0.62614(12) 0.85957(13) 0.25399(11)
O19 O 0.54199(14) 0.94312(14) 0.26104(13)
O20 O 0.57156(15) 0.85323(16) 0.32306(12)
S5 S 0.69862(6) 0.85509(6) 0.12099(5)
O21 O 0.65349(12) 0.84353(12) 0.10035(9)
O22 O 0.69049(12) 0.84975(12) 0.17467(10)
O23 O 0.75627(13) 0.81323(15) 0.11536(12)
O24 O 0.68698(14) 0.91416(14) 0.09724(11)
S6 S 0.48759(5) 0.85020(5) 0.10798(4)
O25 O 0.54689(11) 0.83979(12) 0.09273(9)
O26 O 0.49053(11) 0.84952(12) 0.16167(9)
O27 O 0.47499(13) 0.80427(14) 0.10396(11)
O28 O 0.44597(12) 0.90691(14) 0.08033(10)
S7 S 1.27097(7) 0.33874(8) 0.15020(6)
O29 O 1.25461(13) 0.29919(14) 0.13288(11)
O30 O 1.28380(13) 0.31537(14) 0.20498(13)
O31 O 1.22384(18) 0.39635(16) 0.13786(14)
O32 O 1.32251(18) 0.33627(19) 0.12877(14)
S8 S 1.35566(7) 0.16545(8) 0.31788(7)
O33 O 1.32371(14) 0.22822(15) 0.29452(13)
O34 O 1.33391(13) 0.13521(14) 0.29184(13)
O35 O 1.34494(18) 0.15451(18) 0.36693(15)
O36 O 1.41809(14) 0.14686(18) 0.31077(17)
S9 S 1.28337(6) 0.12839(6) 0.15648(6)
O37 O 1.29461(13) 0.11523(13) 0.21118(12)
O38 O 1.26225(13) 0.19190(14) 0.13616(11)
O39 O 1.33688(16) 0.09794(15) 0.13788(13)
O40 O 1.23825(17) 0.11353(17) 0.14565(14)
S10 S 0.72254(7) 0.08005(6) 0.13444(6)
O41 O 0.71190(13) 0.06427(12) 0.18741(11)
O42 O 0.68114(14) 0.14242(14) 0.11308(11)
O43 O 0.78077(15) 0.07240(16) 0.13137(14)
O44 O 0.70768(16) 0.04629(15) 0.10942(13)
S11 S 0.58785(6) 0.08829(6) 0.28649(6)
O45 O 0.64535(13) 0.06716(12) 0.26599(11)
O46 O 0.55302(13) 0.14994(14) 0.25782(12)
O47 O 0.59533(16) 0.08345(16) 0.33837(13)
O48 O 0.55880(14) 0.05602(14) 0.27611(13)
S12 S 0.52016(8) 0.23501(13) 0.12491(7)
O49 O 0.57456(14) 0.23492(15) 0.10661(11)
O50 O 0.51451(13) 0.24324(14) 0.17343(12)
O51 O 0.5286(3) 0.1679(3) 0.1340(3)
O52 O 0.47379(17) 0.2674(2) 0.09147(14)
O53 O 0.75466(14) 0.26876(16) 0.63874(12)
O54 O 0.83983(15) 0.19340(15) 0.64023(11)
O55 O 0.61160(15) 0.20241(15) 0.29758(12)
O56 O 0.69736(14) 0.12519(14) 0.30466(12)
C1 C 0.6603(3) 0.1653(2) 0.32004(19)
C2 C 0.6738(2) 0.1692(3) 0.3698(2)
C3 C 0.7341(5) 0.1344(5) 0.3893(4)
C5 C 0.7485(5) 0.1409(5) 0.4361(4)
C7 C 0.7115(6) 0.1892(6) 0.4509(5)
C9 C 0.6557(6) 0.2296(6) 0.4258(5)
C11 C 0.6367(3) 0.2151(3) 0.3857(2)
C12 C 0.7880(3) 0.2254(3) 0.62487(19)
C13 C 0.7634(2) 0.2111(3) 0.5851(2)
C14 C 0.7158(5) 0.2559(6) 0.5541(5)
C16 C 0.6954(6) 0.2458(6) 0.5089(5)
C18 C 0.7271(6) 0.1967(6) 0.4985(4)
C20 C 0.7863(7) 0.1611(7) 0.5169(6)
C22 C 0.8014(6) 0.1714(6) 0.5644(5)
O57 O 0.75248(14) 0.37202(14) 0.63567(11)
O58 O 0.83463(14) 0.38226(14) 0.63680(11)
O59 O 0.58643(13) 0.74171(12) 0.28689(10)
O60 O 0.67487(13) 0.73802(13) 0.28964(10)
C24 C 0.6372(2) 0.7231(2) 0.30749(17)
C25 C 0.6530(2) 0.6790(2) 0.35662(17)
C26 C 0.7061(3) 0.6587(3) 0.3816(2)
H1 H 0.7308 0.6743 0.3682
C27 C 0.7244(3) 0.6168(3) 0.4250(2)
H2 H 0.7615 0.6033 0.4400
C28 C 0.6896(2) 0.5945(2) 0.44645(18)
C29 C 0.6365(3) 0.6150(3) 0.4213(2)
H3 H 0.6115 0.6000 0.4349
C30 C 0.6187(2) 0.6562(3) 0.3774(2)
H4 H 0.5822 0.6685 0.3617
C31 C 0.7835(3) 0.3972(2) 0.62034(18)
C32 C 0.7571(2) 0.4500(2) 0.57768(17)
C33 C 0.7070(3) 0.4649(3) 0.5520(2)
H5 H 0.6867 0.4436 0.5630
C34 C 0.6841(3) 0.5114(3) 0.5090(2)
H6 H 0.6507 0.5183 0.4911
C35 C 0.7099(2) 0.5464(3) 0.49316(19)
C36 C 0.7609(2) 0.5326(3) 0.5223(2)
H7 H 0.7794 0.5559 0.5135
C37 C 0.7839(3) 0.4852(3) 0.56357(19)
H8 H 0.8175 0.4772 0.5818
O61 O 0.93925(14) 0.28952(16) 0.63553(11)
O62 O 0.94012(14) 0.20624(16) 0.63548(12)
O63 O 1.21955(14) 0.17272(15) 0.32371(12)
O64 O 1.20795(14) 0.26130(17) 0.31831(12)
C38 C 1.2026(2) 0.2173(3) 0.3390(2)
C39 C 1.1734(2) 0.2171(3) 0.3845(2)
C40 C 1.1657(3) 0.1720(3) 0.4095(3)
H9 H 1.1804 0.1391 0.3982
C41 C 1.1365(4) 0.1718(3) 0.4519(3)
H10 H 1.1333 0.1389 0.4688
C42 C 1.1125(3) 0.2205(3) 0.4687(2)
C43 C 1.1214(3) 0.2652(3) 0.4435(3)
H11 H 1.1069 0.2984 0.4542
C44 C 1.1511(3) 0.2639(3) 0.4023(2)
H12 H 1.1560 0.2961 0.3863
C45 C 0.9567(2) 0.2452(2) 0.62153(16)
C46 C 0.9999(2) 0.2355(3) 0.58448(19)
C47 C 1.0166(3) 0.1908(3) 0.5632(2)
H13 H 1.0033 0.1632 0.5739
C48 C 1.0526(3) 0.1861(3) 0.5265(2)
H14 H 1.0617 0.1563 0.5119
C49 C 1.0757(3) 0.2235(3) 0.5107(2)
C50 C 1.0625(3) 0.2657(3) 0.5340(2)
H15 H 1.0788 0.2911 0.5254
C51 C 1.0249(3) 0.2711(3) 0.5703(2)
H16 H 1.0166 0.3003 0.5856
O65 O 0.73317(15) 0.19491(16) 0.15881(13)
O66 O 0.76516(13) 0.12090(15) 0.22685(13)
O67 O 1.17980(13) 0.15853(14) 0.24191(12)
O68 O 1.14870(13) 0.22727(15) 0.17076(12)
C52 C 0.7714(2) 0.1572(3) 0.1929(2)
C53 C 0.8287(2) 0.1594(3) 0.1930(2)
C54 C 0.8727(3) 0.1211(3) 0.2263(3)
H17 H 0.8693 0.0915 0.2497
C55 C 0.9246(3) 0.1261(4) 0.2258(3)
H18 H 0.9544 0.1001 0.2504
C56 C 0.9338(3) 0.1655(3) 0.1922(2)
C57 C 0.8887(3) 0.2040(4) 0.1599(3)
H19 H 0.8916 0.2349 0.1379
C58 C 0.8370(3) 0.1996(3) 0.1578(3)
H20 H 0.8082 0.2244 0.1321
C59 C 1.1443(2) 0.1897(3) 0.2044(2)
C60 C 1.0913(2) 0.1812(3) 0.2010(2)
C61 C 1.0822(3) 0.1433(3) 0.2363(3)
H21 H 1.1094 0.1212 0.2636
C62 C 1.0319(3) 0.1365(3) 0.2326(3)
H22 H 1.0277 0.1082 0.2571
C63 C 0.9893(3) 0.1691(3) 0.1954(3)
C64 C 1.0005(3) 0.2070(3) 0.1600(3)
H23 H 0.9732 0.2299 0.1328
C65 C 1.0513(3) 0.2134(3) 0.1624(3)
H24 H 1.0570 0.2400 0.1372
O69 O 0.74041(12) 0.72659(12) 0.21119(11)
O70 O 0.70856(12) 0.71974(12) 0.14079(11)
O71 O 1.16767(13) 0.34834(14) 0.23110(12)
O72 O 1.14058(13) 0.33382(14) 0.16313(12)
C66 C 0.74618(19) 0.70549(19) 0.1749(2)
C67 C 0.8054(2) 0.6562(2) 0.17465(18)
C68 C 0.8162(2) 0.6285(2) 0.13928(19)
H25 H 0.7875 0.6405 0.1139
C69 C 0.8702(2) 0.5819(2) 0.1404(2)
H26 H 0.8765 0.5623 0.1164
C70 C 0.9141(2) 0.5646(2) 0.1766(2)
C71 C 0.9028(2) 0.5944(3) 0.2115(2)
H27 H 0.9317 0.5833 0.2364
C72 C 0.8496(2) 0.6403(3) 0.2105(2)
H28 H 0.8435 0.6607 0.2339
C73 C 1.13338(19) 0.3618(2) 0.19407(17)
C74 C 1.0778(2) 0.4152(2) 0.1880(2)
C75 C 1.0372(3) 0.4329(3) 0.1522(2)
H29 H 1.0446 0.4123 0.1288
C76 C 0.9833(3) 0.4810(3) 0.1471(3)
H30 H 0.9553 0.4905 0.1219
C77 C 0.9721(2) 0.5135(2) 0.1788(2)
C78 C 1.0137(3) 0.4962(3) 0.2156(3)
H31 H 1.0070 0.5174 0.2385
C79 C 1.0668(3) 0.4472(3) 0.2202(3)
H32 H 1.0949 0.4367 0.2457
O73 O 0.60365(13) 0.71788(12) 0.13865(11)
O74 O 0.55122(12) 0.72522(12) 0.20346(11)
O75 O 0.62692(16) 0.28997(14) 0.15007(12)
O76 O 0.57239(15) 0.29372(14) 0.21341(13)
C80 C 0.5968(2) 0.3144(2) 0.1810(2)
C81 C 0.5911(2) 0.3728(2) 0.1789(2)
C82 C 0.5532(3) 0.4070(3) 0.2046(2)
H33 H 0.5298 0.3937 0.2239
C83 C 0.5480(3) 0.4606(3) 0.2032(3)
H34 H 0.5209 0.4831 0.2208
C84 C 0.5828(3) 0.4811(2) 0.1758(2)
C85 C 0.6176(3) 0.4485(3) 0.1485(3)
H35 H 0.6399 0.4622 0.1280
C86 C 0.6217(3) 0.3947(3) 0.1499(3)
H36 H 0.6464 0.3736 0.1302
C87 C 0.5760(2) 0.7011(2) 0.17062(19)
C88 C 0.5757(2) 0.6459(2) 0.17178(19)
C89 C 0.5559(2) 0.6177(2) 0.2094(2)
H37 H 0.5407 0.6347 0.2346
C90 C 0.5575(3) 0.5648(2) 0.2116(2)
H38 H 0.5444 0.5466 0.2383
C91 C 0.5783(3) 0.5396(2) 0.1745(2)
C92 C 0.5962(3) 0.5685(3) 0.1349(2)
H39 H 0.6102 0.5522 0.1091
C93 C 0.5937(3) 0.6219(2) 0.1335(2)
H40 H 0.6043 0.6416 0.1059
N1 N 0.9419(2) 0.1004(2) 0.68431(16)
C94 C 0.9151(3) 0.0683(3) 0.6830(2)
H41 H 0.8765 0.0822 0.6893
C95 C 0.9418(4) 0.0148(4) 0.6727(3)
H42 H 0.9214 -0.0061 0.6716
C96 C 0.9996(5) -0.0061(4) 0.6642(3)
H43 H 1.0188 -0.0412 0.6566
C97 C 1.0268(4) 0.0247(4) 0.6670(3)
H44 H 1.0659 0.0106 0.6623
C98 C 0.9975(3) 0.0782(3) 0.6769(2)
H45 H 1.0178 0.0991 0.6784
N2 N 0.9346(2) 0.3705(2) 0.68353(15)
C99 C 0.9925(3) 0.3478(3) 0.6801(2)
H46 H 1.0136 0.3087 0.6824
C100 C 1.0207(3) 0.3833(4) 0.6728(2)
H47 H 1.0602 0.3681 0.6696
C101 C 0.9888(4) 0.4413(4) 0.6706(3)
H48 H 1.0070 0.4651 0.6661
C102 C 0.9297(4) 0.4640(3) 0.6751(3)
H49 H 0.9077 0.5027 0.6737
C103 C 0.9044(3) 0.4267(3) 0.6818(2)
H50 H 0.8649 0.4412 0.6852
N3 N 0.67294(19) 0.3412(2) 0.68835(17)
C104 C 0.6434(3) 0.3951(4) 0.6895(2)
H51 H 0.6624 0.4172 0.6907
C105 C 0.5810(4) 0.4199(4) 0.6889(3)
H52 H 0.5591 0.4585 0.6883
C106 C 0.5548(4) 0.3847(5) 0.6892(4)
H53 H 0.5148 0.3994 0.6891
C107 C 0.5845(3) 0.3337(3) 0.6895(3)
H54 H 0.5674 0.3096 0.6894
C108 C 0.6451(3) 0.3130(3) 0.6900(2)
H55 H 0.6666 0.2740 0.6917
N4 N 1.2735(2) 0.0647(2) 0.3055(2)
C109 C 1.2995(4) 0.0420(4) 0.3512(3)
H56 H 1.3133 0.0608 0.3670
C110 C 1.3044(6) -0.0178(5) 0.3752(4)
H57 H 1.3199 -0.0345 0.4080
C111 C 1.2888(9) -0.0481(7) 0.3543(7)
H58 H 1.2928 -0.0843 0.3716
C112 C 1.2660(5) -0.0236(5) 0.3049(4)
H59 H 1.2563 -0.0438 0.2874
C113 C 1.2585(3) 0.0322(3) 0.2827(3)
H60 H 1.2422 0.0490 0.2501
N5 N 1.24830(18) 0.3452(2) 0.2953(2)
C114 C 1.2373(2) 0.3986(3) 0.2683(2)
H61 H 1.2316 0.4072 0.2342
C115 C 1.2340(3) 0.4413(3) 0.2885(3)
H62 H 1.2235 0.4786 0.2687
C116 C 1.2461(4) 0.4282(4) 0.3366(4)
H63 H 1.2468 0.4557 0.3506
C117 C 1.2576(3) 0.3745(4) 0.3661(3)
H64 H 1.2647 0.3655 0.4001
C118 C 1.2583(2) 0.3331(3) 0.3433(2)
H65 H 1.2661 0.2964 0.3627
N6 N 1.16720(17) 0.2900(2) 0.08138(15)
C119 C 1.1566(2) 0.2565(3) 0.0608(2)
H66 H 1.1653 0.2194 0.0799
C120 C 1.1334(3) 0.2724(4) 0.0130(3)
H67 H 1.1252 0.2478 0.0001
C121 C 1.1229(3) 0.3274(4) -0.0153(3)
H68 H 1.1081 0.3397 -0.0482
C122 C 1.1333(3) 0.3621(3) 0.0037(3)
H69 H 1.1257 0.3990 -0.0153
C123 C 1.1565(2) 0.3424(3) 0.0539(2)
H70 H 1.1644 0.3666 0.0677
N7 N 0.76696(19) 0.01848(19) 0.2839(2)
C124 C 0.8135(3) -0.0102(3) 0.2633(2)
H71 H 0.8177 0.0064 0.2311
C125 C 0.8553(3) -0.0634(4) 0.2880(4)
H72 H 0.8870 -0.0825 0.2720
C126 C 0.8520(4) -0.0885(4) 0.3340(4)
H73 H 0.8811 -0.1249 0.3501
C127 C 0.8055(4) -0.0606(3) 0.3579(3)
H74 H 0.8022 -0.0770 0.3904
C128 C 0.7625(3) -0.0053(3) 0.3303(3)
H75 H 0.7304 0.0147 0.3453
N8 N 0.49317(14) 0.26283(17) 0.26423(14)
C129 C 0.48317(19) 0.23493(17) 0.31005(15)
H76 H 0.5103 0.1973 0.3254
C130 C 0.4351(3) 0.2606(3) 0.33346(16)
H77 H 0.4284 0.2454 0.3652
C131 C 0.38997(17) 0.3250(3) 0.2939(3)
H78 H 0.3553 0.3484 0.3041
C132 C 0.4012(2) 0.3407(2) 0.2545(2)
H79 H 0.3717 0.3733 0.2335
C133 C 0.4586(2) 0.3138(2) 0.23377(15)
H80 H 0.4683 0.3306 0.2040
N9 N 0.6674(2) 0.2536(2) 0.06694(17)
C134 C 0.6281(4) 0.3062(4) 0.0395(3)
H81 H 0.5940 0.3250 0.0530
C135 C 0.6347(5) 0.3334(5) -0.0057(4)
H82 H 0.6065 0.3701 -0.0223
C136 C 0.6821(6) 0.3067(6) -0.0257(4)
H83 H 0.6866 0.3246 -0.0573
C137 C 0.7253(5) 0.2529(6) -0.0015(4)
H84 H 0.7587 0.2341 -0.0158
C138 C 0.7154(4) 0.2274(3) 0.0477(3)
H85 H 0.7438 0.1917 0.0660
N10 N 0.64208(16) 0.76790(15) 0.05095(13)
C139 C 0.6880(2) 0.7687(2) 0.02918(18)
H86 H 0.7144 0.7744 0.0462
C140 C 0.6983(2) 0.7616(3) -0.0168(2)
H87 H 0.7316 0.7615 -0.0301
C141 C 0.6600(3) 0.7547(3) -0.0434(2)
H88 H 0.6661 0.7507 -0.0751
C142 C 0.6118(3) 0.7537(2) -0.0218(2)
H89 H 0.5850 0.7482 -0.0384
C143 C 0.6040(2) 0.76125(19) 0.02549(17)
H90 H 0.5711 0.7616 0.0397
N11 N 0.74853(18) 0.79117(16) 0.27087(16)
C144 C 0.7455(3) 0.7933(3) 0.3166(2)
H91 H 0.7113 0.7984 0.3309
C145 C 0.7930(3) 0.7882(3) 0.3452(3)
H92 H 0.7914 0.7875 0.3783
C146 C 0.8423(3) 0.7842(3) 0.3214(3)
H93 H 0.8740 0.7815 0.3387
C147 C 0.8442(3) 0.7841(3) 0.2739(3)
H94 H 0.8764 0.7824 0.2577
C148 C 0.7976(2) 0.7868(2) 0.2500(2)
H95 H 0.7996 0.7854 0.2174
N12 N 0.46774(16) 0.80013(15) 0.25398(14)
C149 C 0.4237(2) 0.8005(2) 0.22886(19)
H96 H 0.4294 0.7928 0.1983
C150 C 0.3713(2) 0.8117(2) 0.2463(2)
H97 H 0.3417 0.8129 0.2272
C151 C 0.3620(3) 0.8211(3) 0.2918(3)
H98 H 0.3261 0.8293 0.3039
C152 C 0.4067(3) 0.8181(3) 0.3195(2)
H99 H 0.4026 0.8222 0.3513
C153 C 0.4588(2) 0.8088(2) 0.29842(19)
H100 H 0.4885 0.8087 0.3164
loop_
_geom_bond_atom_site_label_1
_geom_bond_atom_site_label_2
_geom_bond_site_symmetry_1
_geom_bond_site_symmetry_2
Fe1 O2 1_555 1_555
Fe2 O2 1_555 1_555
Fe3 O2 1_555 1_555
Fe4 O1 1_555 1_555
Fe5 O3 1_555 1_555
Fe6 O4 1_555 1_555
Fe7 O4 1_555 1_555
Fe8 O3 1_555 1_555
Fe9 O1 1_555 1_555
Fe10 O3 1_555 1_555
Fe11 O1 1_555 1_555
Fe12 O4 1_555 1_555
S1 O5 1_555 1_555
O5 Fe11 1_555 1_555
O6 Fe9 1_555 1_555
O7 S1 1_555 1_555
O8 S1 1_555 1_555
S2 O9 1_555 1_555
O9 Fe4 1_555 1_555
O10 Fe9 1_555 1_555
O11 S2 1_555 1_555
O12 S2 1_555 1_555
S3 O13 1_555 1_555
O13 Fe11 1_555 1_555
O14 Fe4 1_555 1_555
O15 S3 1_555 1_555
O16 S3 1_555 1_555
S4 O17 1_555 1_555
O17 Fe2 1_555 1_555
O18 Fe3 1_555 1_555
O19 S4 1_555 1_555
O20 S4 1_555 1_555
S5 O21 1_555 1_555
O21 Fe1 1_555 1_555
O22 Fe3 1_555 1_555
O23 S5 1_555 1_555
O24 S5 1_555 1_555
S6 O25 1_555 1_555
O25 Fe1 1_555 1_555
O26 Fe2 1_555 1_555
O27 S6 1_555 1_555
O28 S6 1_555 1_555
S7 O29 1_555 1_555
O29 Fe5 1_555 1_555
O30 Fe10 1_555 1_555
O31 S7 1_555 1_555
O32 S7 1_555 1_555
S8 O33 1_555 1_555
O33 Fe10 1_555 1_555
O34 Fe8 1_555 1_555
O35 S8 1_555 1_555
O36 S8 1_555 1_555
S9 O37 1_555 1_555
O37 Fe8 1_555 1_555
O38 Fe5 1_555 1_555
O39 S9 1_555 1_555
O40 S9 1_555 1_555
S10 O41 1_555 1_555
O41 Fe12 1_555 1_555
O42 Fe6 1_555 1_555
O43 S10 1_555 1_555
O44 S10 1_555 1_555
S11 O45 1_555 1_555
O45 Fe12 1_555 1_555
O46 Fe7 1_555 1_555
O47 S11 1_555 1_555
O48 S11 1_555 1_555
S12 O49 1_555 1_555
O49 Fe6 1_555 1_555
O50 Fe7 1_555 1_555
O51 S12 1_555 1_555
O52 S12 1_555 1_555
O53 Fe4 1_555 1_555
O54 Fe11 1_555 1_555
O55 Fe7 1_555 1_555
O56 Fe12 1_555 1_555
C1 O55 1_555 1_555
C2 C1 1_555 1_555
C3 C2 1_555 1_555
C5 C3 1_555 1_555
C7 C5 1_555 1_555
C9 C7 1_555 1_555
C11 C2 1_555 1_555
C12 O53 1_555 1_555
C13 C12 1_555 1_555
C14 C13 1_555 1_555
C16 C14 1_555 1_555
C18 C7 1_555 1_555
C20 C18 1_555 1_555
C22 C13 1_555 1_555
O57 Fe4 1_555 1_555
O58 Fe9 1_555 1_555
O59 Fe2 1_555 1_555
O60 Fe3 1_555 1_555
C24 O59 1_555 1_555
C25 C24 1_555 1_555
C26 C25 1_555 1_555
H1 C26 1_555 1_555
C27 C26 1_555 1_555
H2 C27 1_555 1_555
C28 C27 1_555 1_555
C29 C28 1_555 1_555
H3 C29 1_555 1_555
C30 C25 1_555 1_555
H4 C30 1_555 1_555
C31 O57 1_555 1_555
C32 C31 1_555 1_555
C33 C32 1_555 1_555
H5 C33 1_555 1_555
C34 C33 1_555 1_555
H6 C34 1_555 1_555
C35 C28 1_555 1_555
C36 C35 1_555 1_555
H7 C36 1_555 1_555
C37 C32 1_555 1_555
H8 C37 1_555 1_555
O61 Fe9 1_555 1_555
O62 Fe11 1_555 1_555
O63 Fe8 1_555 1_555
O64 Fe10 1_555 1_555
C38 O63 1_555 1_555
C39 C38 1_555 1_555
C40 C39 1_555 1_555
H9 C40 1_555 1_555
C41 C40 1_555 1_555
H10 C41 1_555 1_555
C42 C41 1_555 1_555
C43 C42 1_555 1_555
H11 C43 1_555 1_555
C44 C39 1_555 1_555
H12 C44 1_555 1_555
C45 O61 1_555 1_555
C46 C45 1_555 1_555
C47 C46 1_555 1_555
H13 C47 1_555 1_555
C48 C47 1_555 1_555
H14 C48 1_555 1_555
C49 C42 1_555 1_555
C50 C49 1_555 1_555
H15 C50 1_555 1_555
C51 C46 1_555 1_555
H16 C51 1_555 1_555
O65 Fe6 1_555 1_555
O66 Fe12 1_555 1_555
O67 Fe8 1_555 1_555
O68 Fe5 1_555 1_555
C52 O65 1_555 1_555
C53 C52 1_555 1_555
C54 C53 1_555 1_555
H17 C54 1_555 1_555
C55 C54 1_555 1_555
H18 C55 1_555 1_555
C56 C55 1_555 1_555
C57 C56 1_555 1_555
H19 C57 1_555 1_555
C58 C53 1_555 1_555
H20 C58 1_555 1_555
C59 O67 1_555 1_555
C60 C59 1_555 1_555
C61 C60 1_555 1_555
H21 C61 1_555 1_555
C62 C61 1_555 1_555
H22 C62 1_555 1_555
C63 C56 1_555 1_555
C64 C63 1_555 1_555
H23 C64 1_555 1_555
C65 C60 1_555 1_555
H24 C65 1_555 1_555
O69 Fe3 1_555 1_555
O70 Fe1 1_555 1_555
O71 Fe10 1_555 1_555
O72 Fe5 1_555 1_555
C66 O69 1_555 1_555
C67 C66 1_555 1_555
C68 C67 1_555 1_555
H25 C68 1_555 1_555
C69 C68 1_555 1_555
H26 C69 1_555 1_555
C70 C69 1_555 1_555
C71 C70 1_555 1_555
H27 C71 1_555 1_555
C72 C67 1_555 1_555
H28 C72 1_555 1_555
C73 O71 1_555 1_555
C74 C73 1_555 1_555
C75 C74 1_555 1_555
H29 C75 1_555 1_555
C76 C75 1_555 1_555
H30 C76 1_555 1_555
C77 C70 1_555 1_555
C78 C77 1_555 1_555
H31 C78 1_555 1_555
C79 C74 1_555 1_555
H32 C79 1_555 1_555
O73 Fe1 1_555 1_555
O74 Fe2 1_555 1_555
O75 Fe6 1_555 1_555
O76 Fe7 1_555 1_555
C80 O75 1_555 1_555
C81 C80 1_555 1_555
C82 C81 1_555 1_555
H33 C82 1_555 1_555
C83 C82 1_555 1_555
H34 C83 1_555 1_555
C84 C83 1_555 1_555
C85 C84 1_555 1_555
H35 C85 1_555 1_555
C86 C81 1_555 1_555
H36 C86 1_555 1_555
C87 O73 1_555 1_555
C88 C87 1_555 1_555
C89 C88 1_555 1_555
H37 C89 1_555 1_555
C90 C89 1_555 1_555
H38 C90 1_555 1_555
C91 C84 1_555 1_555
C92 C91 1_555 1_555
H39 C92 1_555 1_555
C93 C88 1_555 1_555
H40 C93 1_555 1_555
N1 Fe11 1_555 1_555
C94 N1 1_555 1_555
H41 C94 1_555 1_555
C95 C94 1_555 1_555
H42 C95 1_555 1_555
C96 C95 1_555 1_555
H43 C96 1_555 1_555
C97 C96 1_555 1_555
H44 C97 1_555 1_555
C98 N1 1_555 1_555
H45 C98 1_555 1_555
N2 Fe9 1_555 1_555
C99 N2 1_555 1_555
H46 C99 1_555 1_555
C100 C99 1_555 1_555
H47 C100 1_555 1_555
C101 C100 1_555 1_555
H48 C101 1_555 1_555
C102 C101 1_555 1_555
H49 C102 1_555 1_555
C103 N2 1_555 1_555
H50 C103 1_555 1_555
N3 Fe4 1_555 1_555
C104 N3 1_555 1_555
H51 C104 1_555 1_555
C105 C104 1_555 1_555
H52 C105 1_555 1_555
C106 C105 1_555 1_555
H53 C106 1_555 1_555
C107 C106 1_555 1_555
H54 C107 1_555 1_555
C108 N3 1_555 1_555
H55 C108 1_555 1_555
N4 Fe8 1_555 1_555
C109 N4 1_555 1_555
H56 C109 1_555 1_555
C110 C109 1_555 1_555
H57 C110 1_555 1_555
C111 C110 1_555 1_555
H58 C111 1_555 1_555
C112 C111 1_555 1_555
H59 C112 1_555 1_555
C113 N4 1_555 1_555
H60 C113 1_555 1_555
N5 Fe10 1_555 1_555
C114 N5 1_555 1_555
H61 C114 1_555 1_555
C115 C114 1_555 1_555
H62 C115 1_555 1_555
C116 C115 1_555 1_555
H63 C116 1_555 1_555
C117 C116 1_555 1_555
H64 C117 1_555 1_555
C118 N5 1_555 1_555
H65 C118 1_555 1_555
N6 Fe5 1_555 1_555
C119 N6 1_555 1_555
H66 C119 1_555 1_555
C120 C119 1_555 1_555
H67 C120 1_555 1_555
C121 C120 1_555 1_555
H68 C121 1_555 1_555
C122 C121 1_555 1_555
H69 C122 1_555 1_555
C123 N6 1_555 1_555
H70 C123 1_555 1_555
N7 Fe12 1_555 1_555
C124 N7 1_555 1_555
H71 C124 1_555 1_555
C125 C124 1_555 1_555
H72 C125 1_555 1_555
C126 C125 1_555 1_555
H73 C126 1_555 1_555
C127 C126 1_555 1_555
H74 C127 1_555 1_555
C128 N7 1_555 1_555
H75 C128 1_555 1_555
N8 Fe7 1_555 1_555
C129 N8 1_555 1_555
H76 C129 1_555 1_555
C130 C129 1_555 1_555
H77 C130 1_555 1_555
C131 C130 1_555 1_555
H78 C131 1_555 1_555
C132 C131 1_555 1_555
H79 C132 1_555 1_555
C133 N8 1_555 1_555
H80 C133 1_555 1_555
N9 Fe6 1_555 1_555
C134 N9 1_555 1_555
H81 C134 1_555 1_555
C135 C134 1_555 1_555
H82 C135 1_555 1_555
C136 C135 1_555 1_555
H83 C136 1_555 1_555
C137 C136 1_555 1_555
H84 C137 1_555 1_555
C138 N9 1_555 1_555
H85 C138 1_555 1_555
N10 Fe1 1_555 1_555
C139 N10 1_555 1_555
H86 C139 1_555 1_555
C140 C139 1_555 1_555
H87 C140 1_555 1_555
C141 C140 1_555 1_555
H88 C141 1_555 1_555
C142 C141 1_555 1_555
H89 C142 1_555 1_555
C143 N10 1_555 1_555
H90 C143 1_555 1_555
N11 Fe3 1_555 1_555
C144 N11 1_555 1_555
H91 C144 1_555 1_555
C145 C144 1_555 1_555
H92 C145 1_555 1_555
C146 C145 1_555 1_555
H93 C146 1_555 1_555
C147 C146 1_555 1_555
H94 C147 1_555 1_555
C148 N11 1_555 1_555
H95 C148 1_555 1_555
N12 Fe2 1_555 1_555
C149 N12 1_555 1_555
H96 C149 1_555 1_555
C150 C149 1_555 1_555
H97 C150 1_555 1_555
C151 C150 1_555 1_555
H98 C151 1_555 1_555
C152 C151 1_555 1_555
H99 C152 1_555 1_555
C153 N12 1_555 1_555
H100 C153 1_555 1_555
S1 O6 1_555 1_555
S2 O10 1_555 1_555
S3 O14 1_555 1_555
S4 O18 1_555 1_555
S5 O22 1_555 1_555
S6 O26 1_555 1_555
S7 O30 1_555 1_555
S8 O34 1_555 1_555
S9 O38 1_555 1_555
S10 O42 1_555 1_555
S11 O46 1_555 1_555
S12 O50 1_555 1_555
O54 C12 1_555 1_555
O56 C1 1_555 1_555
C9 C11 1_555 1_555
C16 C18 1_555 1_555
C20 C22 1_555 1_555
O58 C31 1_555 1_555
O60 C24 1_555 1_555
C29 C30 1_555 1_555
C34 C35 1_555 1_555
C36 C37 1_555 1_555
O62 C45 1_555 1_555
O64 C38 1_555 1_555
C43 C44 1_555 1_555
C48 C49 1_555 1_555
C50 C51 1_555 1_555
O66 C52 1_555 1_555
O68 C59 1_555 1_555
C57 C58 1_555 1_555
C62 C63 1_555 1_555
C64 C65 1_555 1_555
O70 C66 1_555 1_555
O72 C73 1_555 1_555
C71 C72 1_555 1_555
C76 C77 1_555 1_555
C78 C79 1_555 1_555
O74 C87 1_555 1_555
O76 C80 1_555 1_555
C85 C86 1_555 1_555
C90 C91 1_555 1_555
C92 C93 1_555 1_555
C97 C98 1_555 1_555
C102 C103 1_555 1_555
C107 C108 1_555 1_555
C112 C113 1_555 1_555
C117 C118 1_555 1_555
C122 C123 1_555 1_555
C127 C128 1_555 1_555
C132 C133 1_555 1_555
C137 C138 1_555 1_555
C142 C143 1_555 1_555
C147 C148 1_555 1_555
C152 C153 1_555 1_555

#END
