
#######################################################################
#
#                 Cambridge Crystallographic Data Centre
#                                CCDC 
#
#######################################################################
#
# If this CIF has been generated from an entry in the Cambridge 
# Structural Database, then it will include bibliographic, chemical, 
# crystal, experimental, refinement or atomic coordinate data resulting 
# from the CCDC's data processing and validation procedures.
#
#######################################################################

data_JANZOO01
_chemical_name_common            IRMOP53
_chemical_formula_moiety         
'C180 H132 Fe12 N12 O76 S12 8-,8(C2 H8 N1 1+),x(C5 H5 N1),x(H2 O1)'
_chemical_name_systematic        
"octakis(Dimethylammonium) hexakis(\m~4~-4,4''-terphenyldicarboxylato-O,O',O'',O''')-tetrakis(\m~3~-oxo)-dodecakis(\m~2~-sulfato-O,O')-dodecakis(pyridine-N)-dodeca-iron pyridine hydrate clathrate"
_symmetry_cell_setting           triclinic
_symmetry_space_group_name_H-M   'P -1'
_symmetry_Int_Tables_number      2
_space_group_name_Hall           '-P 1'
loop_
_symmetry_equiv_pos_site_id
_symmetry_equiv_pos_as_xyz
1 x,y,z
2 -x,-y,-z
_cell_length_a                   31.642(3)
_cell_length_b                   31.762(3)
_cell_length_c                   31.830(3)
_cell_angle_alpha                75.847(2)
_cell_angle_beta                 75.264(2)
_cell_angle_gamma                60.155(2)
_cell_volume                     26567.8
_exptl_crystal_colour            orange
_exptl_crystal_description       plate
_cell_formula_units_Z            2
loop_
_atom_site_label
_atom_site_type_symbol
_atom_site_fract_x
_atom_site_fract_y
_atom_site_fract_z
Fe1 Fe 0.083292(16) 0.577491(16) 0.287177(16)
Fe2 Fe -0.019545(17) 0.683543(16) 0.285155(16)
Fe3 Fe 0.034056(17) 0.635467(16) 0.374583(16)
Fe4 Fe 0.084656(19) 1.292732(17) 0.283598(17)
Fe5 Fe 0.035478(18) 1.244557(16) 0.374119(17)
Fe6 Fe -0.020812(18) 1.292338(16) 0.286596(17)
Fe7 Fe 0.37659(2) 0.863360(18) -0.235853(18)
Fe8 Fe 0.37512(2) 0.967195(18) -0.230514(17)
Fe9 Fe 0.27079(2) 0.966348(17) -0.230985(16)
Fe10 Fe 0.644718(18) 0.635901(18) 0.369917(19)
Fe11 Fe 0.695206(17) 0.684548(17) 0.280720(19)
Fe12 Fe 0.696856(17) 0.579115(17) 0.281610(19)
S1 S -0.00316(4) 0.59530(3) 0.23965(4)
S2 S 0.08358(5) 0.51864(4) 0.38476(4)
S3 S -0.08421(4) 0.68997(4) 0.38076(4)
S4 S 0.09004(5) 1.30502(4) 0.37854(4)
S5 S -0.00409(4) 1.38584(3) 0.23942(4)
S6 S -0.08234(4) 1.30537(5) 0.38362(4)
S7 S 0.46334(6) 0.88906(5) -0.28976(5)
S8 S 0.29301(6) 0.88813(5) -0.29086(5)
S9 S 0.28922(4) 1.05834(4) -0.27857(4)
S10 S 0.70558(4) 0.68925(4) 0.37664(5)
S11 S 0.70457(4) 0.51893(4) 0.37789(5)
S12 S 0.79042(4) 0.59661(4) 0.23489(5)
O1 O 0.03183(7) 0.63176(7) 0.31621(7)
O2 O -0.07511(7) 0.68800(8) 0.33307(8)
O3 O -0.11912(9) 0.67247(12) 0.40217(9)
O4 O -0.10026(11) 0.73992(10) 0.38766(10)
O5 O -0.03660(8) 0.65620(9) 0.39795(7)
O6 O 0.04834(9) 0.56737(8) 0.39976(7)
O7 O 0.13184(13) 0.50314(11) 0.39497(11)
O8 O 0.06442(14) 0.48443(11) 0.40496(10)
O9 O 0.08710(8) 0.52457(7) 0.33682(8)
O10 O 0.03972(8) 0.56372(7) 0.26374(8)
O11 O 0.01376(11) 0.60496(11) 0.19393(9)
O12 O -0.03425(9) 0.57139(10) 0.24870(10)
O13 O -0.03331(8) 0.64218(8) 0.25880(8)
O14 O -0.01602(8) 0.73887(7) 0.30248(8)
O15 O 0.02235(9) 0.70539(9) 0.36113(8)
O16 O 0.10644(9) 0.61735(9) 0.36319(8)
O17 O 0.13867(8) 0.58177(9) 0.30286(9)
O18 O 0.09392(8) 0.61872(9) 0.23003(7)
O19 O 0.02610(9) 0.69083(8) 0.22958(8)
O20 O 0.03280(8) 1.27744(7) 0.31465(7)
O21 O 0.09113(9) 1.31853(8) 0.33080(8)
O22 O 0.07433(14) 1.34753(12) 0.39751(10)
O23 O 0.13901(13) 1.26680(13) 0.38662(12)
O24 O 0.05444(9) 1.28504(8) 0.39636(7)
O25 O -0.03403(8) 1.28534(9) 0.39849(7)
O26 O -0.09759(13) 1.26800(15) 0.39384(11)
O27 O -0.11716(11) 1.34918(13) 0.40244(10)
O28 O -0.07506(8) 1.31845(8) 0.33528(8)
O29 O -0.03489(9) 1.36083(8) 0.26092(8)
O30 O 0.00824(11) 1.38322(11) 0.19307(10)
O31 O -0.03189(11) 1.43622(8) 0.24949(10)
O32 O 0.04113(9) 1.36132(8) 0.26032(8)
O33 O 0.13986(9) 1.22588(9) 0.29896(9)
O34 O 0.10667(10) 1.19396(8) 0.36085(9)
O35 O 0.01917(10) 1.19359(8) 0.36397(8)
O36 O -0.01687(9) 1.22520(8) 0.30464(9)
O37 O 0.02161(11) 1.26775(9) 0.22959(9)
O38 O 0.09187(10) 1.26892(9) 0.22764(8)
O39 O 0.34123(8) 0.93239(7) -0.23343(7)
O40 O 0.43214(11) 0.86434(9) -0.28113(9)
O41 O 0.48242(15) 0.89315(14) -0.33531(13)
O42 O 0.50121(13) 0.86315(13) -0.26243(15)
O43 O 0.43086(10) 0.93953(9) -0.27804(8)
O44 O 0.34253(9) 1.02537(8) -0.27305(8)
O45 O 0.26523(11) 1.09002(10) -0.24457(11)
O46 O 0.28778(12) 1.08370(11) -0.32225(11)
O47 O 0.26643(9) 1.02527(8) -0.27264(8)
O48 O 0.26846(10) 0.93860(9) -0.27866(8)
O49 O 0.26648(15) 0.86188(13) -0.26311(14)
O50 O 0.29381(15) 0.89284(12) -0.33705(12)
O51 O 0.34463(13) 0.86397(9) -0.28161(9)
O52 O 0.41549(10) 0.84680(9) -0.18765(9)
O53 O 0.41436(10) 0.91694(9) -0.18432(8)
O54 O 0.32774(11) 1.00178(9) -0.18018(8)
O55 O 0.25691(9) 1.00109(8) -0.17980(8)
O56 O 0.25818(9) 0.91580(9) -0.18531(8)
O57 O 0.32982(12) 0.84675(9) -0.18789(8)
O58 O 0.67968(7) 0.63280(7) 0.31119(7)
O59 O 0.76388(8) 0.64323(8) 0.25443(9)
O60 O 0.78761(12) 0.60605(12) 0.18913(11)
O61 O 0.84078(9) 0.57171(10) 0.24523(11)
O62 O 0.76580(8) 0.56587(8) 0.25779(9)
O63 O 0.72202(9) 0.52555(8) 0.33014(9)
O64 O 0.74652(12) 0.48313(11) 0.39916(10)
O65 O 0.66563(13) 0.50490(11) 0.38589(12)
O66 O 0.68483(8) 0.56704(8) 0.39430(8)
O67 O 0.68328(9) 0.65517(9) 0.39347(8)
O68 O 0.66877(13) 0.73878(11) 0.38338(11)
O69 O 0.74764(12) 0.67179(13) 0.39746(11)
O70 O 0.72242(9) 0.68830(8) 0.32823(9)
O71 O 0.67045(9) 0.69259(9) 0.22532(9)
O72 O 0.67409(9) 0.62091(9) 0.22523(9)
O73 O 0.62875(10) 0.58352(9) 0.29794(10)
O74 O 0.59531(9) 0.61926(10) 0.35814(10)
O75 O 0.59334(9) 0.70667(10) 0.35744(10)
O76 O 0.62820(9) 0.73936(8) 0.29837(10)
C1 C 0.14107(14) 0.59806(14) 0.33423(15)
C2 C 0.19054(14) 0.59304(16) 0.33551(14)
C3 C 0.19497(5) 0.61153(6) 0.36795(6)
H1 H 0.1683 0.6249 0.3897
C4 C 0.23954(5) 0.61013(6) 0.36808(6)
H2 H 0.2427 0.6228 0.3899
C5 C 0.27945(5) 0.58987(6) 0.33556(6)
C6 C 0.27478(5) 0.57100(6) 0.30291(6)
H3 H 0.3015 0.5574 0.2811
C7 C 0.23020(5) 0.57240(6) 0.30277(6)
H4 H 0.2271 0.5595 0.2811
C8 C 0.32657(5) 0.59137(6) 0.33396(6)
C9 C 0.32700(5) 0.62223(6) 0.35800(6)
H5 H 0.2978 0.6432 0.3739
C10 C 0.37105(5) 0.62182(6) 0.35835(6)
H6 H 0.3713 0.6425 0.3744
C11 C 0.41466(5) 0.59055(6) 0.33466(6)
C12 C 0.41422(5) 0.55969(6) 0.31062(6)
H7 H 0.4434 0.5388 0.2948
C13 C 0.37018(5) 0.56010(6) 0.31027(6)
H8 H 0.3699 0.5394 0.2942
C14 C 0.46323(5) 0.59265(6) 0.33141(6)
C15 C 0.46661(5) 0.61328(6) 0.36344(6)
H9 H 0.4398 0.6263 0.3853
C16 C 0.51006(5) 0.61451(6) 0.36284(6)
H10 H 0.5123 0.6283 0.3843
C17 C 0.55014(5) 0.59511(6) 0.33020(6)
C18 C 0.54676(5) 0.57448(6) 0.29817(6)
H11 H 0.5736 0.5615 0.2763
C19 C 0.50331(5) 0.57325(6) 0.29878(6)
H12 H 0.5010 0.5594 0.2773
C20 C 0.59431(16) 0.59969(16) 0.32879(18)
C21 C 0.00180(14) 0.74030(14) 0.33258(15)
C22 C -0.00071(14) 0.78855(13) 0.33429(13)
C23 C -0.02552(5) 0.82954(4) 0.30591(5)
H13 H -0.0412 0.8277 0.2859
C24 C -0.02700(5) 0.87364(4) 0.30738(5)
H14 H -0.0437 0.9014 0.2883
C25 C -0.00353(5) 0.87621(4) 0.33742(5)
C26 C 0.02142(5) 0.83468(4) 0.36598(5)
H15 H 0.0371 0.8364 0.3861
C27 C 0.02289(5) 0.79058(4) 0.36452(5)
H16 H 0.0395 0.7627 0.3835
C28 C -0.00534(5) 0.92421(4) 0.33995(5)
C29 C -0.03851(5) 0.96766(4) 0.31855(5)
H17 H -0.0606 0.9674 0.3043
C30 C -0.03869(5) 1.01151(4) 0.31853(5)
H18 H -0.0609 1.0406 0.3042
C31 C -0.00569(5) 1.01192(4) 0.33990(5)
C32 C 0.02748(5) 0.96847(4) 0.36130(5)
H19 H 0.0496 0.9687 0.3756
C33 C 0.02765(5) 0.92462(4) 0.36132(5)
H20 H 0.0498 0.8956 0.3756
C34 C -0.00574(5) 1.05931(4) 0.34077(5)
C35 C -0.02708(5) 1.09911(4) 0.30931(5)
H21 H -0.0422 1.0967 0.2891
C36 C -0.02582(5) 1.14254(4) 0.30802(5)
H22 H -0.0401 1.1692 0.2870
C37 C -0.00323(5) 1.14617(4) 0.33820(5)
C38 C 0.01811(5) 1.10636(4) 0.36965(5)
H23 H 0.0332 1.1088 0.3898
C39 C 0.01686(5) 1.06293(4) 0.37094(5)
H24 H 0.0311 1.0363 0.3920
C40 C -0.00062(15) 1.19261(14) 0.33537(15)
C41 C 0.06856(15) 0.66198(15) 0.21280(12)
C42 C 0.09026(15) 0.67958(14) 0.16975(13)
C43 C 0.13805(6) 0.65096(5) 0.15135(5)
H25 H 0.1564 0.6195 0.1651
C44 C 0.15886(6) 0.66917(5) 0.11216(5)
H26 H 0.1913 0.6501 0.0999
C45 C 0.13124(6) 0.71595(5) 0.09132(5)
C46 C 0.08282(6) 0.74453(5) 0.10966(5)
H27 H 0.0643 0.7758 0.0957
C47 C 0.06202(6) 0.72632(5) 0.14885(5)
H28 H 0.0295 0.7453 0.1609
C48 C 0.15491(6) 0.73641(5) 0.04968(5)
C49 C 0.20538(6) 0.71270(5) 0.03495(5)
H29 H 0.2255 0.6833 0.0506
C50 C 0.22583(6) 0.73287(5) -0.00312(5)
H30 H 0.2596 0.7170 -0.0130
C51 C 0.19582(6) 0.77676(5) -0.02646(5)
C52 C 0.14535(6) 0.80048(5) -0.01173(5)
H31 H 0.1253 0.8298 -0.0273
C53 C 0.12490(6) 0.78031(5) 0.02634(5)
H32 H 0.0911 0.7962 0.0362
C54 C 0.21921(6) 0.80094(5) -0.06535(5)
C55 C 0.26891(6) 0.77572(5) -0.08232(5)
H33 H 0.2880 0.7437 -0.0700
C56 C 0.29011(6) 0.79828(5) -0.11771(5)
H34 H 0.3234 0.7814 -0.1291
C57 C 0.26162(6) 0.84607(5) -0.13613(5)
C58 C 0.21192(6) 0.87129(5) -0.11917(5)
H35 H 0.1929 0.9033 -0.1315
C59 C 0.19071(6) 0.84872(5) -0.08378(5)
H36 H 0.1575 0.8656 -0.0724
C60 C 0.28444(19) 0.87145(17) -0.17334(13)
C61 C 0.42737(15) 0.87172(17) -0.17268(14)
C62 C 0.45793(16) 0.84718(15) -0.13633(14)
C63 C 0.46746(6) 0.79970(6) -0.11731(5)
H37 H 0.4560 0.7829 -0.1278
C64 C 0.49414(6) 0.77731(6) -0.08260(5)
H38 H 0.5014 0.7452 -0.0703
C65 C 0.50995(6) 0.80296(6) -0.06623(5)
C66 C 0.49909(6) 0.85101(6) -0.08457(5)
H39 H 0.5097 0.8682 -0.0736
C67 C 0.47241(6) 0.87340(6) -0.11928(5)
H40 H 0.4643 0.9058 -0.1311
C68 C 0.53721(6) 0.77984(6) -0.02663(5)
C69 C 0.53961(6) 0.73605(6) -0.00251(5)
H41 H 0.5254 0.7204 -0.0109
C70 C 0.56319(6) 0.71557(6) 0.03418(5)
H42 H 0.5648 0.6863 0.0503
C71 C 0.58436(6) 0.73888(6) 0.04675(5)
C72 C 0.58196(6) 0.78267(6) 0.02263(5)
H43 H 0.5961 0.7983 0.0310
C73 C 0.55838(6) 0.80315(6) -0.01406(5)
H44 H 0.5568 0.8324 -0.0302
C74 C 0.60773(6) 0.71852(6) 0.08758(5)
C75 C 0.61718(6) 0.67143(6) 0.10823(5)
H45 H 0.6103 0.6521 0.0961
C76 C 0.63695(6) 0.65321(6) 0.14699(5)
H46 H 0.6433 0.6217 0.1608
C77 C 0.64727(6) 0.68206(6) 0.16512(5)
C78 C 0.63782(6) 0.72915(6) 0.14448(5)
H47 H 0.6447 0.7485 0.1566
C79 C 0.61805(6) 0.74738(6) 0.10571(5)
H48 H 0.6117 0.7789 0.0919
C80 C 0.66549(14) 0.66434(16) 0.20817(14)
C81 C 0.59460(16) 0.74126(14) 0.32780(19)
C82 C 0.54689(15) 0.78952(14) 0.33098(16)
C83 C 0.50722(5) 0.79270(5) 0.36334(5)
H49 H 0.5093 0.7656 0.3839
C84 C 0.46415(5) 0.83705(5) 0.36471(5)
H50 H 0.4374 0.8399 0.3866
C85 C 0.46108(5) 0.87717(5) 0.33339(5)
C86 C 0.50108(5) 0.87295(5) 0.30069(5)
H51 H 0.4990 0.8998 0.2797
C87 C 0.54414(5) 0.82860(5) 0.29931(5)
H52 H 0.5709 0.8256 0.2774
C88 C 0.41360(5) 0.92523(5) 0.33383(5)
C89 C 0.37037(5) 0.92627(5) 0.35925(5)
H53 H 0.3709 0.8978 0.3765
C90 C 0.32641(5) 0.96979(5) 0.35887(5)
H54 H 0.2975 0.9705 0.3759
C91 C 0.32570(5) 1.01228(5) 0.33309(5)
C92 C 0.36893(5) 1.01124(5) 0.30768(5)
H55 H 0.3685 1.0397 0.2904
C93 C 0.41289(5) 0.96772(5) 0.30805(5)
H56 H 0.4418 0.9670 0.2910
C94 C 0.27792(5) 1.06031(5) 0.33418(5)
C95 C 0.23721(5) 1.06414(5) 0.36581(5)
H57 H 0.2397 1.0380 0.3878
C96 C 0.19279(5) 1.10712(5) 0.36464(5)
H58 H 0.1656 1.1097 0.3858
C97 C 0.18909(5) 1.14627(5) 0.33184(5)
C98 C 0.22981(5) 1.14243(5) 0.30020(5)
H59 H 0.2273 1.1686 0.2783
C99 C 0.27422(5) 1.09945(5) 0.30137(5)
H60 H 0.3015 1.0969 0.2802
C100 C 0.14113(16) 1.19319(14) 0.33114(17)
C101 C 0.2826(2) 1.01372(14) -0.16688(12)
C102 C 0.25675(16) 1.04726(14) -0.13165(12)
C103 C 0.28317(6) 1.06121(5) -0.11507(4)
H61 H 0.3162 1.0517 -0.1266
C104 C 0.26051(6) 1.08950(5) -0.08108(4)
H62 H 0.2784 1.0989 -0.0698
C105 C 0.21107(6) 1.10372(5) -0.06394(4)
C106 C 0.18429(6) 1.08964(5) -0.08080(4)
H63 H 0.1512 1.0992 -0.0693
C107 C 0.20695(6) 1.06134(5) -0.11480(4)
H64 H 0.1892 1.0521 -0.1264
C108 C 0.18554(6) 1.13399(5) -0.02599(4)
C109 C 0.21292(6) 1.14725(5) -0.00902(4)
H65 H 0.2446 1.1412 -0.0230
C110 C 0.19289(6) 1.16952(5) 0.02878(4)
H66 H 0.2112 1.1784 0.0401
C111 C 0.14547(6) 1.17854(5) 0.04962(4)
C112 C 0.11808(6) 1.16528(5) 0.03265(4)
H67 H 0.0864 1.1713 0.0466
C113 C 0.13812(6) 1.14301(5) -0.00515(4)
H68 H 0.1198 1.1341 -0.0165
C114 C 0.12286(6) 1.20173(5) 0.09159(4)
C115 C 0.15094(6) 1.21298(5) 0.10979(4)
H69 H 0.1828 1.2068 0.0961
C116 C 0.13145(6) 1.23352(5) 0.14852(4)
H70 H 0.1502 1.2410 0.1607
C117 C 0.08387(6) 1.24282(5) 0.16905(4)
C118 C 0.05578(6) 1.23158(5) 0.15085(4)
H71 H 0.0240 1.2378 0.1646
C119 C 0.07528(6) 1.21103(5) 0.11212(4)
H72 H 0.0565 1.2035 0.0999
C120 C 0.0641(2) 1.26164(13) 0.21187(13)
N1 N 0.14506(10) 0.51682(10) 0.25214(11)
C121 C 0.18465(2) 0.48335(2) 0.27313(2)
H73 H 0.1853 0.4859 0.3014
C122 C 0.22356(2) 0.44574(2) 0.25132(2)
H74 H 0.2505 0.4227 0.2651
C123 C 0.22223(2) 0.44253(2) 0.20894(2)
H75 H 0.2483 0.4174 0.1943
C124 C 0.18201(2) 0.47693(2) 0.18837(2)
H76 H 0.1811 0.4748 0.1600
C125 C 0.14311(2) 0.51454(2) 0.21019(2)
H77 H 0.1162 0.5378 0.1966
N2 N -0.07747(2) 0.74476(2) 0.25005(2)
C126 C -0.07710(2) 0.74569(2) 0.20607(2)
H78 H -0.0518 0.7205 0.1910
C127 C -0.11454(2) 0.78428(2) 0.18456(2)
H79 H -0.1143 0.7849 0.1551
C128 C -0.15236(2) 0.82194(2) 0.20702(2)
H80 H -0.1774 0.8478 0.1926
C129 C -0.15273(2) 0.82101(2) 0.25099(2)
H81 H -0.1780 0.8462 0.2660
C130 C -0.11528(2) 0.78242(2) 0.27251(2)
H82 H -0.1155 0.7818 0.3019
N3 N 0.03789(2) 0.64305(2) 0.43946(2)
C131 C 0.00168(2) 0.68402(2) 0.45875(2)
H83 H -0.0243 0.7077 0.4442
C132 C 0.00433(2) 0.68964(2) 0.49981(2)
H84 H -0.0199 0.7171 0.5127
C133 C 0.04318(2) 0.65428(2) 0.52159(2)
H85 H 0.0450 0.6580 0.5491
C134 C 0.07939(2) 0.61331(2) 0.50231(2)
H86 H 0.1054 0.5896 0.5169
C135 C 0.07674(2) 0.60769(2) 0.46125(2)
H87 H 0.1010 0.5803 0.4483
N4 N 0.14534(2) 1.30813(2) 0.24693(2)
C136 C 0.14226(2) 1.33361(2) 0.20464(2)
H88 H 0.1148 1.3435 0.1918
C137 C 0.18015(2) 1.34437(2) 0.18152(2)
H89 H 0.1781 1.3614 0.1532
C138 C 0.22112(2) 1.32966(2) 0.20070(2)
H90 H 0.2465 1.3369 0.1852
C139 C 0.22421(2) 1.30418(2) 0.24299(2)
H91 H 0.2516 1.2943 0.2558
C140 C 0.18632(2) 1.29341(2) 0.26611(2)
H92 H 0.1884 1.2764 0.2944
N5 N 0.04200(2) 1.20377(2) 0.43983(2)
C141 C 0.08336(2) 1.18918(2) 0.45839(2)
H93 H 0.1085 1.1966 0.4426
C142 C 0.08717(2) 1.16355(2) 0.50060(2)
H94 H 0.1148 1.1538 0.5130
C143 C 0.04962(2) 1.15252(2) 0.52425(2)
H95 H 0.0522 1.1354 0.5525
C144 C 0.00826(2) 1.16711(2) 0.50570(2)
H96 H -0.0169 1.1597 0.5215
C145 C 0.00445(2) 1.19273(2) 0.46349(2)
H97 H -0.0232 1.2025 0.4511
N6 N -0.08020(2) 1.30600(2) 0.25341(2)
C146 C -0.11521(2) 1.29055(2) 0.27515(2)
H98 H -0.1137 1.2747 0.3039
C147 C -0.15253(2) 1.29873(2) 0.25394(2)
H99 H -0.1760 1.2884 0.2685
C148 C -0.15484(2) 1.32237(2) 0.21099(2)
H100 H -0.1798 1.3278 0.1968
C149 C -0.11983(2) 1.33782(2) 0.18925(2)
H101 H -0.1214 1.3536 0.1605
C150 C -0.08251(2) 1.32963(2) 0.21046(2)
H102 H -0.0591 1.3400 0.1959
N7 N 0.41626(2) 0.78398(2) -0.23534(2)
C151 C 0.39114(2) 0.75876(2) -0.23627(2)
H103 H 0.3573 0.7755 -0.2362
C152 C 0.41667(2) 0.70848(2) -0.23725(2)
H104 H 0.3999 0.6916 -0.2379
C153 C 0.46733(2) 0.68341(2) -0.23730(2)
H105 H 0.4844 0.6498 -0.2380
C154 C 0.49245(2) 0.70863(2) -0.23637(2)
H106 H 0.5263 0.6919 -0.2364
C155 C 0.46692(2) 0.75892(2) -0.23539(2)
H107 H 0.4837 0.7758 -0.2348
N8 N 0.41368(2) 1.00564(2) -0.22319(2)
C156 C 0.46415(2) 0.98069(2) -0.22224(2)
H108 H 0.4821 0.9479 -0.2263
C157 C 0.48777(2) 1.00479(2) -0.21525(2)
H109 H 0.5215 0.9881 -0.2146
C158 C 0.46093(2) 1.05385(2) -0.20921(2)
H110 H 0.4767 1.0700 -0.2045
C159 C 0.41047(2) 1.07880(2) -0.21015(2)
H111 H 0.3925 1.1116 -0.2061
C160 C 0.38684(2) 1.05469(2) -0.21714(2)
H112 H 0.3531 1.0714 -0.2178
N9 N 0.18986(2) 1.00373(2) -0.22457(2)
C161 C 0.16380(2) 1.05270(2) -0.21824(2)
H113 H 0.1807 1.0696 -0.2178
C162 C 0.11254(2) 1.07644(2) -0.21261(2)
H114 H 0.0951 1.1092 -0.2084
C163 C 0.08735(2) 1.05121(2) -0.21332(2)
H115 H 0.0531 1.0671 -0.2096
C164 C 0.11341(2) 1.00224(2) -0.21965(2)
H116 H 0.0966 0.9854 -0.2201
C165 C 0.16466(2) 0.97850(2) -0.22528(2)
H117 H 0.1821 0.9457 -0.2295
N10 N 0.60119(2) 0.64007(2) 0.43663(2)
C166 C 0.58751(2) 0.60361(2) 0.45665(2)
H118 H 0.5983 0.5766 0.4427
C167 C 0.55775(2) 0.60746(2) 0.49749(2)
H119 H 0.5486 0.5831 0.5109
C168 C 0.54167(2) 0.64776(2) 0.51832(2)
H120 H 0.5218 0.6503 0.5456
C169 C 0.55535(2) 0.68421(2) 0.49830(2)
H121 H 0.5446 0.7112 0.5122
C170 C 0.58511(2) 0.68037(2) 0.45746(2)
H122 H 0.5943 0.7048 0.4441
N11 N 0.71048(2) 0.74541(2) 0.24611(2)
C171 C 0.69942(2) 0.78282(2) 0.26878(2)
H123 H 0.6851 0.7821 0.2982
C172 C 0.70969(2) 0.82124(2) 0.24752(2)
H124 H 0.7023 0.8463 0.2627
C173 C 0.73103(2) 0.82225(2) 0.20358(2)
H125 H 0.7379 0.8480 0.1894
C174 C 0.74209(2) 0.78484(2) 0.18091(2)
H126 H 0.7564 0.7855 0.1515
C175 C 0.73182(2) 0.74642(2) 0.20217(2)
H127 H 0.7392 0.7214 0.1870
N12 N 0.71343(2) 0.51945(2) 0.24755(2)
C176 C 0.73883(2) 0.51645(2) 0.20487(2)
H128 H 0.7492 0.5398 0.1907
C177 C 0.74870(2) 0.47858(2) 0.18340(2)
H129 H 0.7657 0.4766 0.1548
C178 C 0.73316(2) 0.44370(2) 0.20460(2)
H130 H 0.7398 0.4184 0.1902
C179 C 0.70776(2) 0.44670(2) 0.24728(2)
H131 H 0.6974 0.4234 0.2615
C180 C 0.69790(2) 0.48458(2) 0.26875(2)
H132 H 0.6809 0.4866 0.2973
loop_
_geom_bond_atom_site_label_1
_geom_bond_atom_site_label_2
_geom_bond_site_symmetry_1
_geom_bond_site_symmetry_2
Fe1 O1 1_555 1_555
Fe2 O1 1_555 1_555
Fe3 O1 1_555 1_555
Fe4 O20 1_555 1_555
Fe5 O20 1_555 1_555
Fe6 O20 1_555 1_555
Fe7 O39 1_555 1_555
Fe8 O39 1_555 1_555
Fe9 O39 1_555 1_555
Fe10 O58 1_555 1_555
Fe11 O58 1_555 1_555
Fe12 O58 1_555 1_555
S1 O10 1_555 1_555
S2 O6 1_555 1_555
S3 O2 1_555 1_555
S4 O21 1_555 1_555
S5 O29 1_555 1_555
S6 O25 1_555 1_555
S7 O40 1_555 1_555
S8 O48 1_555 1_555
S9 O44 1_555 1_555
S10 O67 1_555 1_555
S11 O63 1_555 1_555
S12 O59 1_555 1_555
O2 Fe2 1_555 1_555
O3 S3 1_555 1_555
O4 S3 1_555 1_555
O5 Fe3 1_555 1_555
O6 Fe3 1_555 1_555
O7 S2 1_555 1_555
O8 S2 1_555 1_555
O9 Fe1 1_555 1_555
O10 Fe1 1_555 1_555
O11 S1 1_555 1_555
O12 S1 1_555 1_555
O13 Fe2 1_555 1_555
O14 Fe2 1_555 1_555
O15 Fe3 1_555 1_555
O16 Fe3 1_555 1_555
O17 Fe1 1_555 1_555
O18 Fe1 1_555 1_555
O19 Fe2 1_555 1_555
O21 Fe4 1_555 1_555
O22 S4 1_555 1_555
O23 S4 1_555 1_555
O24 Fe5 1_555 1_555
O25 Fe5 1_555 1_555
O26 S6 1_555 1_555
O27 S6 1_555 1_555
O28 Fe6 1_555 1_555
O29 Fe6 1_555 1_555
O30 S5 1_555 1_555
O31 S5 1_555 1_555
O32 Fe4 1_555 1_555
O33 Fe4 1_555 1_555
O34 Fe5 1_555 1_555
O35 Fe5 1_555 1_555
O36 Fe6 1_555 1_555
O37 Fe6 1_555 1_555
O38 Fe4 1_555 1_555
O40 Fe7 1_555 1_555
O41 S7 1_555 1_555
O42 S7 1_555 1_555
O43 Fe8 1_555 1_555
O44 Fe8 1_555 1_555
O45 S9 1_555 1_555
O46 S9 1_555 1_555
O47 Fe9 1_555 1_555
O48 Fe9 1_555 1_555
O49 S8 1_555 1_555
O50 S8 1_555 1_555
O51 Fe7 1_555 1_555
O52 Fe7 1_555 1_555
O53 Fe8 1_555 1_555
O54 Fe8 1_555 1_555
O55 Fe9 1_555 1_555
O56 Fe9 1_555 1_555
O57 Fe7 1_555 1_555
O59 Fe11 1_555 1_555
O60 S12 1_555 1_555
O61 S12 1_555 1_555
O62 Fe12 1_555 1_555
O63 Fe12 1_555 1_555
O64 S11 1_555 1_555
O65 S11 1_555 1_555
O66 Fe10 1_555 1_555
O67 Fe10 1_555 1_555
O68 S10 1_555 1_555
O69 S10 1_555 1_555
O70 Fe11 1_555 1_555
O71 Fe11 1_555 1_555
O72 Fe12 1_555 1_555
O73 Fe12 1_555 1_555
O74 Fe10 1_555 1_555
O75 Fe10 1_555 1_555
O76 Fe11 1_555 1_555
C1 O16 1_555 1_555
C2 C1 1_555 1_555
C3 C2 1_555 1_555
H1 C3 1_555 1_555
C4 C3 1_555 1_555
H2 C4 1_555 1_555
C5 C4 1_555 1_555
C6 C5 1_555 1_555
H3 C6 1_555 1_555
C7 C2 1_555 1_555
H4 C7 1_555 1_555
C8 C5 1_555 1_555
C9 C8 1_555 1_555
H5 C9 1_555 1_555
C10 C9 1_555 1_555
H6 C10 1_555 1_555
C11 C10 1_555 1_555
C12 C11 1_555 1_555
H7 C12 1_555 1_555
C13 C8 1_555 1_555
H8 C13 1_555 1_555
C14 C11 1_555 1_555
C15 C14 1_555 1_555
H9 C15 1_555 1_555
C16 C15 1_555 1_555
H10 C16 1_555 1_555
C17 C16 1_555 1_555
C18 C17 1_555 1_555
H11 C18 1_555 1_555
C19 C14 1_555 1_555
H12 C19 1_555 1_555
C20 O73 1_555 1_555
C21 O14 1_555 1_555
C22 C21 1_555 1_555
C23 C22 1_555 1_555
H13 C23 1_555 1_555
C24 C23 1_555 1_555
H14 C24 1_555 1_555
C25 C24 1_555 1_555
C26 C25 1_555 1_555
H15 C26 1_555 1_555
C27 C22 1_555 1_555
H16 C27 1_555 1_555
C28 C25 1_555 1_555
C29 C28 1_555 1_555
H17 C29 1_555 1_555
C30 C29 1_555 1_555
H18 C30 1_555 1_555
C31 C30 1_555 1_555
C32 C31 1_555 1_555
H19 C32 1_555 1_555
C33 C28 1_555 1_555
H20 C33 1_555 1_555
C34 C31 1_555 1_555
C35 C34 1_555 1_555
H21 C35 1_555 1_555
C36 C35 1_555 1_555
H22 C36 1_555 1_555
C37 C36 1_555 1_555
C38 C37 1_555 1_555
H23 C38 1_555 1_555
C39 C34 1_555 1_555
H24 C39 1_555 1_555
C40 O35 1_555 1_555
C41 O18 1_555 1_555
C42 C41 1_555 1_555
C43 C42 1_555 1_555
H25 C43 1_555 1_555
C44 C43 1_555 1_555
H26 C44 1_555 1_555
C45 C44 1_555 1_555
C46 C45 1_555 1_555
H27 C46 1_555 1_555
C47 C42 1_555 1_555
H28 C47 1_555 1_555
C48 C45 1_555 1_555
C49 C48 1_555 1_555
H29 C49 1_555 1_555
C50 C49 1_555 1_555
H30 C50 1_555 1_555
C51 C50 1_555 1_555
C52 C51 1_555 1_555
H31 C52 1_555 1_555
C53 C48 1_555 1_555
H32 C53 1_555 1_555
C54 C51 1_555 1_555
C55 C54 1_555 1_555
H33 C55 1_555 1_555
C56 C55 1_555 1_555
H34 C56 1_555 1_555
C57 C56 1_555 1_555
C58 C57 1_555 1_555
H35 C58 1_555 1_555
C59 C54 1_555 1_555
H36 C59 1_555 1_555
C60 O56 1_555 1_555
C61 O52 1_555 1_555
C62 C61 1_555 1_555
C63 C62 1_555 1_555
H37 C63 1_555 1_555
C64 C63 1_555 1_555
H38 C64 1_555 1_555
C65 C64 1_555 1_555
C66 C65 1_555 1_555
H39 C66 1_555 1_555
C67 C62 1_555 1_555
H40 C67 1_555 1_555
C68 C65 1_555 1_555
C69 C68 1_555 1_555
H41 C69 1_555 1_555
C70 C69 1_555 1_555
H42 C70 1_555 1_555
C71 C70 1_555 1_555
C72 C71 1_555 1_555
H43 C72 1_555 1_555
C73 C68 1_555 1_555
H44 C73 1_555 1_555
C74 C71 1_555 1_555
C75 C74 1_555 1_555
H45 C75 1_555 1_555
C76 C75 1_555 1_555
H46 C76 1_555 1_555
C77 C76 1_555 1_555
C78 C77 1_555 1_555
H47 C78 1_555 1_555
C79 C74 1_555 1_555
H48 C79 1_555 1_555
C80 O71 1_555 1_555
C81 O75 1_555 1_555
C82 C81 1_555 1_555
C83 C82 1_555 1_555
H49 C83 1_555 1_555
C84 C83 1_555 1_555
H50 C84 1_555 1_555
C85 C84 1_555 1_555
C86 C85 1_555 1_555
H51 C86 1_555 1_555
C87 C82 1_555 1_555
H52 C87 1_555 1_555
C88 C85 1_555 1_555
C89 C88 1_555 1_555
H53 C89 1_555 1_555
C90 C89 1_555 1_555
H54 C90 1_555 1_555
C91 C90 1_555 1_555
C92 C91 1_555 1_555
H55 C92 1_555 1_555
C93 C88 1_555 1_555
H56 C93 1_555 1_555
C94 C91 1_555 1_555
C95 C94 1_555 1_555
H57 C95 1_555 1_555
C96 C95 1_555 1_555
H58 C96 1_555 1_555
C97 C96 1_555 1_555
C98 C97 1_555 1_555
H59 C98 1_555 1_555
C99 C94 1_555 1_555
H60 C99 1_555 1_555
C100 O33 1_555 1_555
C101 O54 1_555 1_555
C102 C101 1_555 1_555
C103 C102 1_555 1_555
H61 C103 1_555 1_555
C104 C103 1_555 1_555
H62 C104 1_555 1_555
C105 C104 1_555 1_555
C106 C105 1_555 1_555
H63 C106 1_555 1_555
C107 C102 1_555 1_555
H64 C107 1_555 1_555
C108 C105 1_555 1_555
C109 C108 1_555 1_555
H65 C109 1_555 1_555
C110 C109 1_555 1_555
H66 C110 1_555 1_555
C111 C110 1_555 1_555
C112 C111 1_555 1_555
H67 C112 1_555 1_555
C113 C108 1_555 1_555
H68 C113 1_555 1_555
C114 C111 1_555 1_555
C115 C114 1_555 1_555
H69 C115 1_555 1_555
C116 C115 1_555 1_555
H70 C116 1_555 1_555
C117 C116 1_555 1_555
C118 C117 1_555 1_555
H71 C118 1_555 1_555
C119 C114 1_555 1_555
H72 C119 1_555 1_555
C120 O37 1_555 1_555
N1 Fe1 1_555 1_555
C121 N1 1_555 1_555
H73 C121 1_555 1_555
C122 C121 1_555 1_555
H74 C122 1_555 1_555
C123 C122 1_555 1_555
H75 C123 1_555 1_555
C124 C123 1_555 1_555
H76 C124 1_555 1_555
C125 N1 1_555 1_555
H77 C125 1_555 1_555
N2 Fe2 1_555 1_555
C126 N2 1_555 1_555
H78 C126 1_555 1_555
C127 C126 1_555 1_555
H79 C127 1_555 1_555
C128 C127 1_555 1_555
H80 C128 1_555 1_555
C129 C128 1_555 1_555
H81 C129 1_555 1_555
C130 N2 1_555 1_555
H82 C130 1_555 1_555
N3 Fe3 1_555 1_555
C131 N3 1_555 1_555
H83 C131 1_555 1_555
C132 C131 1_555 1_555
H84 C132 1_555 1_555
C133 C132 1_555 1_555
H85 C133 1_555 1_555
C134 C133 1_555 1_555
H86 C134 1_555 1_555
C135 N3 1_555 1_555
H87 C135 1_555 1_555
N4 Fe4 1_555 1_555
C136 N4 1_555 1_555
H88 C136 1_555 1_555
C137 C136 1_555 1_555
H89 C137 1_555 1_555
C138 C137 1_555 1_555
H90 C138 1_555 1_555
C139 C138 1_555 1_555
H91 C139 1_555 1_555
C140 N4 1_555 1_555
H92 C140 1_555 1_555
N5 Fe5 1_555 1_555
C141 N5 1_555 1_555
H93 C141 1_555 1_555
C142 C141 1_555 1_555
H94 C142 1_555 1_555
C143 C142 1_555 1_555
H95 C143 1_555 1_555
C144 C143 1_555 1_555
H96 C144 1_555 1_555
C145 N5 1_555 1_555
H97 C145 1_555 1_555
N6 Fe6 1_555 1_555
C146 N6 1_555 1_555
H98 C146 1_555 1_555
C147 C146 1_555 1_555
H99 C147 1_555 1_555
C148 C147 1_555 1_555
H100 C148 1_555 1_555
C149 C148 1_555 1_555
H101 C149 1_555 1_555
C150 N6 1_555 1_555
H102 C150 1_555 1_555
N7 Fe7 1_555 1_555
C151 N7 1_555 1_555
H103 C151 1_555 1_555
C152 C151 1_555 1_555
H104 C152 1_555 1_555
C153 C152 1_555 1_555
H105 C153 1_555 1_555
C154 C153 1_555 1_555
H106 C154 1_555 1_555
C155 N7 1_555 1_555
H107 C155 1_555 1_555
N8 Fe8 1_555 1_555
C156 N8 1_555 1_555
H108 C156 1_555 1_555
C157 C156 1_555 1_555
H109 C157 1_555 1_555
C158 C157 1_555 1_555
H110 C158 1_555 1_555
C159 C158 1_555 1_555
H111 C159 1_555 1_555
C160 N8 1_555 1_555
H112 C160 1_555 1_555
N9 Fe9 1_555 1_555
C161 N9 1_555 1_555
H113 C161 1_555 1_555
C162 C161 1_555 1_555
H114 C162 1_555 1_555
C163 C162 1_555 1_555
H115 C163 1_555 1_555
C164 C163 1_555 1_555
H116 C164 1_555 1_555
C165 N9 1_555 1_555
H117 C165 1_555 1_555
N10 Fe10 1_555 1_555
C166 N10 1_555 1_555
H118 C166 1_555 1_555
C167 C166 1_555 1_555
H119 C167 1_555 1_555
C168 C167 1_555 1_555
H120 C168 1_555 1_555
C169 C168 1_555 1_555
H121 C169 1_555 1_555
C170 N10 1_555 1_555
H122 C170 1_555 1_555
N11 Fe11 1_555 1_555
C171 N11 1_555 1_555
H123 C171 1_555 1_555
C172 C171 1_555 1_555
H124 C172 1_555 1_555
C173 C172 1_555 1_555
H125 C173 1_555 1_555
C174 C173 1_555 1_555
H126 C174 1_555 1_555
C175 N11 1_555 1_555
H127 C175 1_555 1_555
N12 Fe12 1_555 1_555
C176 N12 1_555 1_555
H128 C176 1_555 1_555
C177 C176 1_555 1_555
H129 C177 1_555 1_555
C178 C177 1_555 1_555
H130 C178 1_555 1_555
C179 C178 1_555 1_555
H131 C179 1_555 1_555
C180 N12 1_555 1_555
H132 C180 1_555 1_555
S1 O13 1_555 1_555
S2 O9 1_555 1_555
S3 O5 1_555 1_555
S4 O24 1_555 1_555
S5 O32 1_555 1_555
S6 O28 1_555 1_555
S7 O43 1_555 1_555
S8 O51 1_555 1_555
S9 O47 1_555 1_555
S10 O70 1_555 1_555
S11 O66 1_555 1_555
S12 O62 1_555 1_555
O15 C21 1_555 1_555
O17 C1 1_555 1_555
O19 C41 1_555 1_555
O34 C100 1_555 1_555
O36 C40 1_555 1_555
O38 C120 1_555 1_555
O53 C61 1_555 1_555
O55 C101 1_555 1_555
O57 C60 1_555 1_555
O72 C80 1_555 1_555
O74 C20 1_555 1_555
O76 C81 1_555 1_555
C6 C7 1_555 1_555
C12 C13 1_555 1_555
C17 C20 1_555 1_555
C18 C19 1_555 1_555
C26 C27 1_555 1_555
C32 C33 1_555 1_555
C37 C40 1_555 1_555
C38 C39 1_555 1_555
C46 C47 1_555 1_555
C52 C53 1_555 1_555
C57 C60 1_555 1_555
C58 C59 1_555 1_555
C66 C67 1_555 1_555
C72 C73 1_555 1_555
C77 C80 1_555 1_555
C78 C79 1_555 1_555
C86 C87 1_555 1_555
C92 C93 1_555 1_555
C97 C100 1_555 1_555
C98 C99 1_555 1_555
C106 C107 1_555 1_555
C112 C113 1_555 1_555
C117 C120 1_555 1_555
C118 C119 1_555 1_555
C124 C125 1_555 1_555
C129 C130 1_555 1_555
C134 C135 1_555 1_555
C139 C140 1_555 1_555
C144 C145 1_555 1_555
C149 C150 1_555 1_555
C154 C155 1_555 1_555
C159 C160 1_555 1_555
C164 C165 1_555 1_555
C169 C170 1_555 1_555
C174 C175 1_555 1_555
C179 C180 1_555 1_555

#END
