
#######################################################################
#
#                 Cambridge Crystallographic Data Centre
#                                CCDC 
#
#######################################################################
#
# If this CIF has been generated from an entry in the Cambridge 
# Structural Database, then it will include bibliographic, chemical, 
# crystal, experimental, refinement or atomic coordinate data resulting 
# from the CCDC's data processing and validation procedures.
#
#######################################################################

data_JANZEE01
_chemical_name_common            IRMOP-51c
_chemical_formula_moiety         'C144 H108 Fe12 N12 O76 S12 8-,8(C2 H8 N1 1+)'
_chemical_name_systematic        
"octakis(Dimethylammonium) hexakis(\m~4~-4,4'-biphenyldicarboxylato-O,O',O'',O''')-tetrakis(\m~3~-oxo)-dodecakis(\m~2~-sulfato-O,O')-dodecakis(pyridine-N)-dodeca-iron unknown clathrate"
_symmetry_cell_setting           cubic
_symmetry_space_group_name_H-M   'F -4 3 m'
_symmetry_Int_Tables_number      216
_space_group_name_Hall           'F -4 2 3'
loop_
_symmetry_equiv_pos_site_id
_symmetry_equiv_pos_as_xyz
1 x,y,z
2 -x,-y,z
3 -x,y,-z
4 x,-y,-z
5 z,x,y
6 z,-x,-y
7 -z,-x,y
8 -z,x,-y
9 y,z,x
10 -y,z,-x
11 y,-z,-x
12 -y,-z,x
13 y,x,z
14 -y,-x,z
15 y,-x,-z
16 -y,x,-z
17 x,z,y
18 -x,z,-y
19 -x,-z,y
20 x,-z,-y
21 z,y,x
22 z,-y,-x
23 -z,y,-x
24 -z,-y,x
25 x,1/2+y,1/2+z
26 -x,1/2-y,1/2+z
27 -x,1/2+y,1/2-z
28 x,1/2-y,1/2-z
29 z,1/2+x,1/2+y
30 z,1/2-x,1/2-y
31 -z,1/2-x,1/2+y
32 -z,1/2+x,1/2-y
33 y,1/2+z,1/2+x
34 -y,1/2+z,1/2-x
35 y,1/2-z,1/2-x
36 -y,1/2-z,1/2+x
37 y,1/2+x,1/2+z
38 -y,1/2-x,1/2+z
39 y,1/2-x,1/2-z
40 -y,1/2+x,1/2-z
41 x,1/2+z,1/2+y
42 -x,1/2+z,1/2-y
43 -x,1/2-z,1/2+y
44 x,1/2-z,1/2-y
45 z,1/2+y,1/2+x
46 z,1/2-y,1/2-x
47 -z,1/2+y,1/2-x
48 -z,1/2-y,1/2+x
49 1/2+x,y,1/2+z
50 1/2-x,-y,1/2+z
51 1/2-x,y,1/2-z
52 1/2+x,-y,1/2-z
53 1/2+z,x,1/2+y
54 1/2+z,-x,1/2-y
55 1/2-z,-x,1/2+y
56 1/2-z,x,1/2-y
57 1/2+y,z,1/2+x
58 1/2-y,z,1/2-x
59 1/2+y,-z,1/2-x
60 1/2-y,-z,1/2+x
61 1/2+y,x,1/2+z
62 1/2-y,-x,1/2+z
63 1/2+y,-x,1/2-z
64 1/2-y,x,1/2-z
65 1/2+x,z,1/2+y
66 1/2-x,z,1/2-y
67 1/2-x,-z,1/2+y
68 1/2+x,-z,1/2-y
69 1/2+z,y,1/2+x
70 1/2+z,-y,1/2-x
71 1/2-z,y,1/2-x
72 1/2-z,-y,1/2+x
73 1/2+x,1/2+y,z
74 1/2-x,1/2-y,z
75 1/2-x,1/2+y,-z
76 1/2+x,1/2-y,-z
77 1/2+z,1/2+x,y
78 1/2+z,1/2-x,-y
79 1/2-z,1/2-x,y
80 1/2-z,1/2+x,-y
81 1/2+y,1/2+z,x
82 1/2-y,1/2+z,-x
83 1/2+y,1/2-z,-x
84 1/2-y,1/2-z,x
85 1/2+y,1/2+x,z
86 1/2-y,1/2-x,z
87 1/2+y,1/2-x,-z
88 1/2-y,1/2+x,-z
89 1/2+x,1/2+z,y
90 1/2-x,1/2+z,-y
91 1/2-x,1/2-z,y
92 1/2+x,1/2-z,-y
93 1/2+z,1/2+y,x
94 1/2+z,1/2-y,-x
95 1/2-z,1/2+y,-x
96 1/2-z,1/2-y,x
_cell_length_a                   38.508(9)
_cell_length_b                   38.508(9)
_cell_length_c                   38.508(9)
_cell_angle_alpha                90
_cell_angle_beta                 90
_cell_angle_gamma                90
_cell_volume                     57102.2
_exptl_crystal_colour            orange
_exptl_crystal_description       cube
_cell_formula_units_Z            4
loop_
_atom_site_label
_atom_site_type_symbol
_atom_site_fract_x
_atom_site_fract_y
_atom_site_fract_z
Fe1 Fe 0.83134(2) 0.16866(2) 0.89244(3)
S1 S 0.76051(8) 0.14143(6) 0.85857(6)
O1 O 0.85039(14) 0.14961(14) 0.85039(14)
O2 O 0.82601(14) 0.12241(15) 0.91785(13)
O3 O 0.78201(11) 0.16731(14) 0.87691(12)
O4 O 0.73408(19) 0.16075(17) 0.83925(17)
O5 O 0.7469(2) 0.11620(16) 0.88380(16)
N1 N 0.80995(18) 0.19005(18) 0.9407(3)
C1 C 0.8246(3) 0.0898(3) 0.9102(3)
C2 C 0.8234(4) 0.0662(2) 0.9338(2)
C3 C 0.8263(4) 0.0715(3) 0.9655(3)
H1 H 0.8305 0.0949 0.9718
C4 C 0.8242(5) 0.0478(3) 0.9937(3)
H2 H 0.8241 0.0558 1.0170
C5 C 0.8224(5) 0.0135(2) 0.9865(2)
C6 C 0.8234(3) 0.2172(3) 0.9566(3)
H3 H 0.8431 0.2277 0.9463
C7 C 0.8103(4) 0.2326(3) 0.9896(3)
H4 H 0.8204 0.2530 0.9991
C8 C 0.7835(6) 0.2165(6) 1.0056(6)
H5 H 0.7761 0.2239 1.0279
Fe1K Fe 0.83134(2) 0.10756(3) 0.83134(2)
Fe1E Fe 0.89244(3) 0.16866(2) 0.83134(2)
Fe1C Fe 0.83134(2) -0.16866(2) 1.10756(3)
Fe1I Fe 0.83134(2) -0.10756(3) 1.16866(2)
Fe1D Fe 0.89244(3) -0.16866(2) 1.16866(2)
Fe1G Fe 1.10756(3) -0.16866(2) 0.83134(2)
Fe1A Fe 1.16866(2) -0.16866(2) 0.89244(3)
Fe1H Fe 1.16866(2) -0.10756(3) 0.83134(2)
Fe1B Fe 1.16866(2) 0.16866(2) 1.10756(3)
Fe1J Fe 1.16866(2) 0.10756(3) 1.16866(2)
Fe1F Fe 1.10756(3) 0.16866(2) 1.16866(2)
S1K S 0.85857(6) 0.14143(6) 0.76051(8)
S1E S 0.85857(6) 0.23949(8) 0.85857(6)
S1C S 0.76051(8) -0.14143(6) 1.14143(6)
S1I S 0.85857(6) -0.14143(6) 1.23949(8)
S1D S 0.85857(6) -0.23949(8) 1.14143(6)
S1G S 1.14143(6) -0.23949(8) 0.85857(6)
S1A S 1.23949(8) -0.14143(6) 0.85857(6)
S1H S 1.14143(6) -0.14143(6) 0.76051(8)
S1B S 1.23949(8) 0.14143(6) 1.14143(6)
S1J S 1.14143(6) 0.14143(6) 1.23949(8)
S1F S 1.14143(6) 0.23949(8) 1.14143(6)
O1C O 0.85039(14) -0.14961(14) 1.14961(14)
O1A O 1.14961(14) -0.14961(14) 0.85039(14)
O1B O 1.14961(14) 0.14961(14) 1.14961(14)
O2K O 0.87759(15) 0.08215(13) 0.82601(14)
O2T O 0.91785(13) 0.12241(15) 0.82601(14)
O2E O 0.91785(13) 0.17399(14) 0.87759(15)
O2M O 0.87759(15) 0.17399(14) 0.91785(13)
O2S O 0.82601(14) 0.08215(13) 0.87759(15)
O2C O 0.82601(14) -0.12241(15) 1.08215(13)
O2I O 0.87759(15) -0.08215(13) 1.17399(14)
O2U O 0.91785(13) -0.12241(15) 1.17399(14)
O2D O 0.91785(13) -0.17399(14) 1.12241(15)
O2O O 0.87759(15) -0.17399(14) 1.08215(13)
O2P O 0.82601(14) -0.08215(13) 1.12241(15)
O2G O 1.08215(13) -0.17399(14) 0.87759(15)
O2A O 1.17399(14) -0.12241(15) 0.91785(13)
O2Q O 1.17399(14) -0.08215(13) 0.87759(15)
O2H O 1.12241(15) -0.08215(13) 0.82601(14)
O2W O 1.08215(13) -0.12241(15) 0.82601(14)
O2L O 1.12241(15) -0.17399(14) 0.91785(13)
O2B O 1.17399(14) 0.12241(15) 1.08215(13)
O2J O 1.12241(15) 0.08215(13) 1.17399(14)
O2V O 1.08215(13) 0.12241(15) 1.17399(14)
O2F O 1.08215(13) 0.17399(14) 1.12241(15)
O2N O 1.12241(15) 0.17399(14) 1.08215(13)
O2R O 1.17399(14) 0.08215(13) 1.12241(15)
O3K O 0.83269(14) 0.12309(12) 0.78201(11)
O3T O 0.87691(12) 0.16731(14) 0.78201(11)
O3E O 0.87691(12) 0.21799(11) 0.83269(14)
O3M O 0.83269(14) 0.21799(11) 0.87691(12)
O3S O 0.78201(11) 0.12309(12) 0.83269(14)
O3C O 0.78201(11) -0.16731(14) 1.12309(12)
O3P O 0.78201(11) -0.12309(12) 1.16731(14)
O3I O 0.83269(14) -0.12309(12) 1.21799(11)
O3U O 0.87691(12) -0.16731(14) 1.21799(11)
O3D O 0.87691(12) -0.21799(11) 1.16731(14)
O3O O 0.83269(14) -0.21799(11) 1.12309(12)
O3G O 1.12309(12) -0.21799(11) 0.83269(14)
O3L O 1.16731(14) -0.21799(11) 0.87691(12)
O3A O 1.21799(11) -0.16731(14) 0.87691(12)
O3Q O 1.21799(11) -0.12309(12) 0.83269(14)
O3H O 1.16731(14) -0.12309(12) 0.78201(11)
O3W O 1.12309(12) -0.16731(14) 0.78201(11)
O3B O 1.21799(11) 0.16731(14) 1.12309(12)
O3R O 1.21799(11) 0.12309(12) 1.16731(14)
O3J O 1.16731(14) 0.12309(12) 1.21799(11)
O3V O 1.12309(12) 0.16731(14) 1.21799(11)
O3F O 1.12309(12) 0.21799(11) 1.16731(14)
O3N O 1.16731(14) 0.21799(11) 1.12309(12)
O4E O 0.83925(17) 0.26592(19) 0.83925(17)
O4K O 0.83925(17) 0.16075(17) 0.73408(19)
O4D O 0.83925(17) -0.26592(19) 1.16075(17)
O4I O 0.83925(17) -0.16075(17) 1.26592(19)
O4C O 0.73408(19) -0.16075(17) 1.16075(17)
O4H O 1.16075(17) -0.16075(17) 0.73408(19)
O4A O 1.26592(19) -0.16075(17) 0.83925(17)
O4G O 1.16075(17) -0.26592(19) 0.83925(17)
O4F O 1.16075(17) 0.26592(19) 1.16075(17)
O4J O 1.16075(17) 0.16075(17) 1.26592(19)
O4B O 1.26592(19) 0.16075(17) 1.16075(17)
O5E O 0.88380(16) 0.2531(2) 0.88380(16)
O5K O 0.88380(16) 0.11620(16) 0.7469(2)
O5D O 0.88380(16) -0.2531(2) 1.11620(16)
O5I O 0.88380(16) -0.11620(16) 1.2531(2)
O5C O 0.7469(2) -0.11620(16) 1.11620(16)
O5H O 1.11620(16) -0.11620(16) 0.7469(2)
O5A O 1.2531(2) -0.11620(16) 0.88380(16)
O5G O 1.11620(16) -0.2531(2) 0.88380(16)
O5F O 1.11620(16) 0.2531(2) 1.11620(16)
O5J O 1.11620(16) 0.11620(16) 1.2531(2)
O5B O 1.2531(2) 0.11620(16) 1.11620(16)
N1K N 0.80995(18) 0.0593(3) 0.80995(18)
N1E N 0.9407(3) 0.19005(18) 0.80995(18)
N1C N 0.80995(18) -0.19005(18) 1.0593(3)
N1D N 0.9407(3) -0.19005(18) 1.19005(18)
N1I N 0.80995(18) -0.0593(3) 1.19005(18)
N1G N 1.0593(3) -0.19005(18) 0.80995(18)
N1H N 1.19005(18) -0.0593(3) 0.80995(18)
N1A N 1.19005(18) -0.19005(18) 0.9407(3)
N1B N 1.19005(18) 0.19005(18) 1.0593(3)
N1F N 1.0593(3) 0.19005(18) 1.19005(18)
N1J N 1.19005(18) 0.0593(3) 1.19005(18)
C1K C 0.9102(3) 0.0898(3) 0.8246(3)
C1E C 0.9102(3) 0.1754(3) 0.9102(3)
C1C C 0.8246(3) -0.0898(3) 1.0898(3)
C1I C 0.9102(3) -0.0898(3) 1.1754(3)
C1D C 0.9102(3) -0.1754(3) 1.0898(3)
C1G C 1.0898(3) -0.1754(3) 0.9102(3)
C1A C 1.1754(3) -0.0898(3) 0.9102(3)
C1H C 1.0898(3) -0.0898(3) 0.8246(3)
C1B C 1.1754(3) 0.0898(3) 1.0898(3)
C1J C 1.0898(3) 0.0898(3) 1.1754(3)
C1F C 1.0898(3) 0.1754(3) 1.0898(3)
C2C C 0.8234(4) -0.0662(2) 1.0662(2)
C2D C 0.9338(2) -0.1766(4) 1.0662(2)
C2G C 1.0662(2) -0.1766(4) 0.9338(2)
C2H C 1.0662(2) -0.0662(2) 0.8234(4)
C2K C 0.9338(2) 0.0662(2) 0.8234(4)
C2A C 1.1766(4) -0.0662(2) 0.9338(2)
C2B C 1.1766(4) 0.0662(2) 1.0662(2)
C2F C 1.0662(2) 0.1766(4) 1.0662(2)
C2E C 0.9338(2) 0.1766(4) 0.9338(2)
C2J C 1.0662(2) 0.0662(2) 1.1766(4)
C2I C 0.9338(2) -0.0662(2) 1.1766(4)
C3S C 0.8263(4) 0.0345(3) 0.9285(3)
C3C C 0.8263(4) -0.0715(3) 1.0345(3)
C3D C 0.9655(3) -0.1737(4) 1.0715(3)
C3O C 0.9285(3) -0.1737(4) 1.0345(3)
C3G C 1.0345(3) -0.1737(4) 0.9285(3)
C3H C 1.0715(3) -0.0345(3) 0.8263(4)
C3W C 1.0345(3) -0.0715(3) 0.8263(4)
C3K C 0.9285(3) 0.0345(3) 0.8263(4)
C3T C 0.9655(3) 0.0715(3) 0.8263(4)
C3A C 1.1737(4) -0.0715(3) 0.9655(3)
C3Q C 1.1737(4) -0.0345(3) 0.9285(3)
C3B C 1.1737(4) 0.0715(3) 1.0345(3)
C3F C 1.0345(3) 0.1737(4) 1.0715(3)
C3N C 1.0715(3) 0.1737(4) 1.0345(3)
C3E C 0.9655(3) 0.1737(4) 0.9285(3)
C3M C 0.9285(3) 0.1737(4) 0.9655(3)
C3J C 1.0715(3) 0.0345(3) 1.1737(4)
C3V C 1.0345(3) 0.0715(3) 1.1737(4)
C3I C 0.9285(3) -0.0345(3) 1.1737(4)
C3U C 0.9655(3) -0.0715(3) 1.1737(4)
C3R C 1.1737(4) 0.0345(3) 1.0715(3)
C3L C 1.0715(3) -0.1737(4) 0.9655(3)
C3P C 0.8263(4) -0.0345(3) 1.0715(3)
H1S H 0.8305 0.0282 0.9051
H1D H 0.9718 -0.1695 1.0949
H1O H 0.9051 -0.1695 1.0282
H1H H 1.0949 -0.0282 0.8305
H1W H 1.0282 -0.0949 0.8305
H1T H 0.9718 0.0949 0.8305
H1K H 0.9051 0.0282 0.8305
H1A H 1.1695 -0.0949 0.9718
H1Q H 1.1695 -0.0282 0.9051
H1F H 1.0282 0.1695 1.0949
H1N H 1.0949 0.1695 1.0282
H1M H 0.9051 0.1695 0.9718
H1E H 0.9718 0.1695 0.9051
H1J H 1.0949 0.0282 1.1695
H1V H 1.0282 0.0949 1.1695
H1U H 0.9718 -0.0949 1.1695
H1I H 0.9051 -0.0282 1.1695
H1R H 1.1695 0.0282 1.0949
H1B H 1.1695 0.0949 1.0282
H1L H 1.0949 -0.1695 0.9718
H1G H 1.0282 -0.1695 0.9051
H1P H 0.8305 -0.0282 1.0949
H1C H 0.8305 -0.0949 1.0282
C4S C 0.8242(5) 0.0063(3) 0.9522(3)
C4C C 0.8242(5) -0.0478(3) 1.0063(3)
C4D C 0.9937(3) -0.1758(5) 1.0478(3)
C4O C 0.9522(3) -0.1758(5) 1.0063(3)
C4G C 1.0063(3) -0.1758(5) 0.9522(3)
C4H C 1.0478(3) -0.0063(3) 0.8242(5)
C4W C 1.0063(3) -0.0478(3) 0.8242(5)
C4K C 0.9522(3) 0.0063(3) 0.8242(5)
C4T C 0.9937(3) 0.0478(3) 0.8242(5)
C4A C 1.1758(5) -0.0478(3) 0.9937(3)
C4Q C 1.1758(5) -0.0063(3) 0.9522(3)
C4B C 1.1758(5) 0.0478(3) 1.0063(3)
C4F C 1.0063(3) 0.1758(5) 1.0478(3)
C4N C 1.0478(3) 0.1758(5) 1.0063(3)
C4E C 0.9937(3) 0.1758(5) 0.9522(3)
C4M C 0.9522(3) 0.1758(5) 0.9937(3)
C4J C 1.0478(3) 0.0063(3) 1.1758(5)
C4V C 1.0063(3) 0.0478(3) 1.1758(5)
C4I C 0.9522(3) -0.0063(3) 1.1758(5)
C4U C 0.9937(3) -0.0478(3) 1.1758(5)
C4R C 1.1758(5) 0.0063(3) 1.0478(3)
C4L C 1.0478(3) -0.1758(5) 0.9937(3)
C4P C 0.8242(5) -0.0063(3) 1.0478(3)
H2S H 0.8241 -0.0170 0.9442
H2D H 1.0170 -0.1759 1.0558
H2O H 0.9442 -0.1759 0.9830
H2H H 1.0558 0.0170 0.8241
H2W H 0.9830 -0.0558 0.8241
H2T H 1.0170 0.0558 0.8241
H2K H 0.9442 -0.0170 0.8241
H2A H 1.1759 -0.0558 1.0170
H2Q H 1.1759 0.0170 0.9442
H2F H 0.9830 0.1759 1.0558
H2N H 1.0558 0.1759 0.9830
H2M H 0.9442 0.1759 1.0170
H2E H 1.0170 0.1759 0.9442
H2J H 1.0558 -0.0170 1.1759
H2V H 0.9830 0.0558 1.1759
H2U H 1.0170 -0.0558 1.1759
H2I H 0.9442 0.0170 1.1759
H2R H 1.1759 -0.0170 1.0558
H2B H 1.1759 0.0558 0.9830
H2L H 1.0558 -0.1759 1.0170
H2G H 0.9830 -0.1759 0.9442
H2P H 0.8241 0.0170 1.0558
H2C H 0.8241 -0.0558 0.9830
C5C C 0.8224(5) -0.0135(2) 1.0135(2)
C5D C 0.9865(2) -0.1776(5) 1.0135(2)
C5G C 1.0135(2) -0.1776(5) 0.9865(2)
C5H C 1.0135(2) -0.0135(2) 0.8224(5)
C5K C 0.9865(2) 0.0135(2) 0.8224(5)
C5A C 1.1776(5) -0.0135(2) 0.9865(2)
C5B C 1.1776(5) 0.0135(2) 1.0135(2)
C5F C 1.0135(2) 0.1776(5) 1.0135(2)
C5E C 0.9865(2) 0.1776(5) 0.9865(2)
C5J C 1.0135(2) 0.0135(2) 1.1776(5)
C5I C 0.9865(2) -0.0135(2) 1.1776(5)
C6K C 0.7828(3) 0.0434(3) 0.8234(3)
C6S C 0.8234(3) 0.0434(3) 0.7828(3)
C6M C 0.7828(3) 0.1766(3) 0.9566(3)
C6T C 0.9566(3) 0.2172(3) 0.8234(3)
C6E C 0.9566(3) 0.1766(3) 0.7828(3)
C6C C 0.8234(3) -0.2172(3) 1.0434(3)
C6O C 0.7828(3) -0.1766(3) 1.0434(3)
C6U C 0.9566(3) -0.2172(3) 1.1766(3)
C6D C 0.9566(3) -0.1766(3) 1.2172(3)
C6I C 0.7828(3) -0.0434(3) 1.1766(3)
C6P C 0.8234(3) -0.0434(3) 1.2172(3)
C6G C 1.0434(3) -0.1766(3) 0.7828(3)
C6W C 1.0434(3) -0.2172(3) 0.8234(3)
C6Q C 1.1766(3) -0.0434(3) 0.7828(3)
C6H C 1.2172(3) -0.0434(3) 0.8234(3)
C6A C 1.1766(3) -0.2172(3) 0.9566(3)
C6L C 1.2172(3) -0.1766(3) 0.9566(3)
C6B C 1.1766(3) 0.2172(3) 1.0434(3)
C6N C 1.2172(3) 0.1766(3) 1.0434(3)
C6V C 1.0434(3) 0.2172(3) 1.1766(3)
C6F C 1.0434(3) 0.1766(3) 1.2172(3)
C6J C 1.2172(3) 0.0434(3) 1.1766(3)
C6R C 1.1766(3) 0.0434(3) 1.2172(3)
H3K H 0.7723 0.0537 0.8431
H3S H 0.8431 0.0537 0.7723
H3M H 0.7723 0.1569 0.9463
H3T H 0.9463 0.2277 0.8431
H3E H 0.9463 0.1569 0.7723
H3C H 0.8431 -0.2277 1.0537
H3O H 0.7723 -0.1569 1.0537
H3U H 0.9463 -0.2277 1.1569
H3D H 0.9463 -0.1569 1.2277
H3I H 0.7723 -0.0537 1.1569
H3P H 0.8431 -0.0537 1.2277
H3G H 1.0537 -0.1569 0.7723
H3W H 1.0537 -0.2277 0.8431
H3Q H 1.1569 -0.0537 0.7723
H3H H 1.2277 -0.0537 0.8431
H3A H 1.1569 -0.2277 0.9463
H3L H 1.2277 -0.1569 0.9463
H3B H 1.1569 0.2277 1.0537
H3N H 1.2277 0.1569 1.0537
H3V H 1.0537 0.2277 1.1569
H3F H 1.0537 0.1569 1.2277
H3J H 1.2277 0.0537 1.1569
H3R H 1.1569 0.0537 1.2277
C7K C 0.7674(3) 0.0104(3) 0.8103(4)
C7S C 0.8103(4) 0.0104(3) 0.7674(3)
C7M C 0.7674(3) 0.1897(4) 0.9896(3)
C7T C 0.9896(3) 0.2326(3) 0.8103(4)
C7E C 0.9896(3) 0.1897(4) 0.7674(3)
C7C C 0.8103(4) -0.2326(3) 1.0104(3)
C7O C 0.7674(3) -0.1897(4) 1.0104(3)
C7U C 0.9896(3) -0.2326(3) 1.1897(4)
C7D C 0.9896(3) -0.1897(4) 1.2326(3)
C7I C 0.7674(3) -0.0104(3) 1.1897(4)
C7P C 0.8103(4) -0.0104(3) 1.2326(3)
C7G C 1.0104(3) -0.1897(4) 0.7674(3)
C7W C 1.0104(3) -0.2326(3) 0.8103(4)
C7Q C 1.1897(4) -0.0104(3) 0.7674(3)
C7H C 1.2326(3) -0.0104(3) 0.8103(4)
C7A C 1.1897(4) -0.2326(3) 0.9896(3)
C7L C 1.2326(3) -0.1897(4) 0.9896(3)
C7B C 1.1897(4) 0.2326(3) 1.0104(3)
C7N C 1.2326(3) 0.1897(4) 1.0104(3)
C7V C 1.0104(3) 0.2326(3) 1.1897(4)
C7F C 1.0104(3) 0.1897(4) 1.2326(3)
C7J C 1.2326(3) 0.0104(3) 1.1897(4)
C7R C 1.1897(4) 0.0104(3) 1.2326(3)
H4K H 0.7470 0.0009 0.8204
H4S H 0.8204 0.0009 0.7470
H4M H 0.7470 0.1796 0.9991
H4T H 0.9991 0.2530 0.8204
H4E H 0.9991 0.1796 0.7470
H4C H 0.8204 -0.2530 1.0009
H4O H 0.7470 -0.1796 1.0009
H4U H 0.9991 -0.2530 1.1796
H4D H 0.9991 -0.1796 1.2530
H4I H 0.7470 -0.0009 1.1796
H4P H 0.8204 -0.0009 1.2530
H4G H 1.0009 -0.1796 0.7470
H4W H 1.0009 -0.2530 0.8204
H4Q H 1.1796 -0.0009 0.7470
H4H H 1.2530 -0.0009 0.8204
H4A H 1.1796 -0.2530 0.9991
H4L H 1.2530 -0.1796 0.9991
H4B H 1.1796 0.2530 1.0009
H4N H 1.2530 0.1796 1.0009
H4V H 1.0009 0.2530 1.1796
H4F H 1.0009 0.1796 1.2530
H4J H 1.2530 0.0009 1.1796
H4R H 1.1796 0.0009 1.2530
C8K C 0.7835(6) -0.0056(6) 0.7835(6)
C8E C 1.0056(6) 0.2165(6) 0.7835(6)
C8C C 0.7835(6) -0.2165(6) 0.9944(6)
C8D C 1.0056(6) -0.2165(6) 1.2165(6)
C8I C 0.7835(6) 0.0056(6) 1.2165(6)
C8G C 0.9944(6) -0.2165(6) 0.7835(6)
C8H C 1.2165(6) 0.0056(6) 0.7835(6)
C8A C 1.2165(6) -0.2165(6) 1.0056(6)
C8B C 1.2165(6) 0.2165(6) 0.9944(6)
C8F C 0.9944(6) 0.2165(6) 1.2165(6)
C8J C 1.2165(6) -0.0056(6) 1.2165(6)
H5K H 0.7761 -0.0279 0.7761
H5E H 1.0279 0.2239 0.7761
H5C H 0.7761 -0.2239 0.9721
H5D H 1.0279 -0.2239 1.2239
H5I H 0.7761 0.0279 1.2239
H5G H 0.9721 -0.2239 0.7761
H5H H 1.2239 0.0279 0.7761
H5A H 1.2239 -0.2239 1.0279
H5B H 1.2239 0.2239 0.9721
H5F H 0.9721 0.2239 1.2239
H5J H 1.2239 -0.0279 1.2239
loop_
_geom_bond_atom_site_label_1
_geom_bond_atom_site_label_2
_geom_bond_site_symmetry_1
_geom_bond_site_symmetry_2
Fe1 O1 1_555 1_555
S1 O3 1_555 1_555
O1 Fe1K 1_555 1_555
O2 Fe1 1_555 1_555
O3 Fe1 1_555 1_555
O4 S1 1_555 1_555
O5 S1 1_555 1_555
N1 Fe1 1_555 1_555
C1 O2 1_555 1_555
C2 C1 1_555 1_555
C3 C2 1_555 1_555
H1 C3 1_555 1_555
C4 C3 1_555 1_555
H2 C4 1_555 1_555
C5 C4 1_555 1_555
C6 N1 1_555 1_555
H3 C6 1_555 1_555
C7 C6 1_555 1_555
H4 C7 1_555 1_555
C8 C7 1_555 1_555
H5 C8 1_555 1_555
Fe1K O2K 1_555 1_555
Fe1E O1 1_555 1_555
Fe1C O1C 1_555 1_555
Fe1I O1C 1_555 1_555
Fe1D O1C 1_555 1_555
Fe1G O1A 1_555 1_555
Fe1A O1A 1_555 1_555
Fe1H O1A 1_555 1_555
Fe1B O1B 1_555 1_555
Fe1J O1B 1_555 1_555
Fe1F O1B 1_555 1_555
S1K O3K 1_555 1_555
S1E O3E 1_555 1_555
S1C O3C 1_555 1_555
S1I O3I 1_555 1_555
S1D O3D 1_555 1_555
S1G O3G 1_555 1_555
S1A O3A 1_555 1_555
S1H O3H 1_555 1_555
S1B O3B 1_555 1_555
S1J O3J 1_555 1_555
S1F O3F 1_555 1_555
O2K C1K 1_555 1_555
O2T Fe1E 1_555 1_555
O2E Fe1E 1_555 1_555
O2M Fe1 1_555 1_555
O2S C1 1_555 1_555
O2C Fe1C 1_555 1_555
O2I Fe1I 1_555 1_555
O2U Fe1D 1_555 1_555
O2D Fe1D 1_555 1_555
O2O Fe1C 1_555 1_555
O2P Fe1I 1_555 1_555
O2G Fe1G 1_555 1_555
O2A Fe1A 1_555 1_555
O2Q Fe1H 1_555 1_555
O2H Fe1H 1_555 1_555
O2W Fe1G 1_555 1_555
O2L Fe1A 1_555 1_555
O2B Fe1B 1_555 1_555
O2J Fe1J 1_555 1_555
O2V Fe1F 1_555 1_555
O2F Fe1F 1_555 1_555
O2N Fe1B 1_555 1_555
O2R Fe1J 1_555 1_555
O3K Fe1K 1_555 1_555
O3T Fe1E 1_555 1_555
O3E Fe1E 1_555 1_555
O3M Fe1 1_555 1_555
O3S S1 1_555 1_555
O3C Fe1C 1_555 1_555
O3P Fe1I 1_555 1_555
O3I Fe1I 1_555 1_555
O3U Fe1D 1_555 1_555
O3D Fe1D 1_555 1_555
O3O Fe1C 1_555 1_555
O3G Fe1G 1_555 1_555
O3L Fe1A 1_555 1_555
O3A Fe1A 1_555 1_555
O3Q Fe1H 1_555 1_555
O3H Fe1H 1_555 1_555
O3W Fe1G 1_555 1_555
O3B Fe1B 1_555 1_555
O3R Fe1J 1_555 1_555
O3J Fe1J 1_555 1_555
O3V Fe1F 1_555 1_555
O3F Fe1F 1_555 1_555
O3N Fe1B 1_555 1_555
O4E S1E 1_555 1_555
O4K S1K 1_555 1_555
O4D S1D 1_555 1_555
O4I S1I 1_555 1_555
O4C S1C 1_555 1_555
O4H S1H 1_555 1_555
O4A S1A 1_555 1_555
O4G S1G 1_555 1_555
O4F S1F 1_555 1_555
O4J S1J 1_555 1_555
O4B S1B 1_555 1_555
O5E S1E 1_555 1_555
O5K S1K 1_555 1_555
O5D S1D 1_555 1_555
O5I S1I 1_555 1_555
O5C S1C 1_555 1_555
O5H S1H 1_555 1_555
O5A S1A 1_555 1_555
O5G S1G 1_555 1_555
O5F S1F 1_555 1_555
O5J S1J 1_555 1_555
O5B S1B 1_555 1_555
N1K Fe1K 1_555 1_555
N1E Fe1E 1_555 1_555
N1C Fe1C 1_555 1_555
N1D Fe1D 1_555 1_555
N1I Fe1I 1_555 1_555
N1G Fe1G 1_555 1_555
N1H Fe1H 1_555 1_555
N1A Fe1A 1_555 1_555
N1B Fe1B 1_555 1_555
N1F Fe1F 1_555 1_555
N1J Fe1J 1_555 1_555
C1K O2T 1_555 1_555
C1E O2E 1_555 1_555
C1C O2C 1_555 1_555
C1I O2I 1_555 1_555
C1D O2D 1_555 1_555
C1G O2G 1_555 1_555
C1A O2A 1_555 1_555
C1H O2H 1_555 1_555
C1B O2B 1_555 1_555
C1J O2J 1_555 1_555
C1F O2F 1_555 1_555
C2C C1C 1_555 1_555
C2D C1D 1_555 1_555
C2G C1G 1_555 1_555
C2H C1H 1_555 1_555
C2K C1K 1_555 1_555
C2A C1A 1_555 1_555
C2B C1B 1_555 1_555
C2F C1F 1_555 1_555
C2E C1E 1_555 1_555
C2J C1J 1_555 1_555
C2I C1I 1_555 1_555
C3S C2 1_555 1_555
C3C C2C 1_555 1_555
C3D C2D 1_555 1_555
C3O C2D 1_555 1_555
C3G C2G 1_555 1_555
C3H C2H 1_555 1_555
C3W C2H 1_555 1_555
C3K C2K 1_555 1_555
C3T C2K 1_555 1_555
C3A C2A 1_555 1_555
C3Q C2A 1_555 1_555
C3B C2B 1_555 1_555
C3F C2F 1_555 1_555
C3N C2F 1_555 1_555
C3E C2E 1_555 1_555
C3M C2E 1_555 1_555
C3J C2J 1_555 1_555
C3V C2J 1_555 1_555
C3I C2I 1_555 1_555
C3U C2I 1_555 1_555
C3R C2B 1_555 1_555
C3L C2G 1_555 1_555
C3P C2C 1_555 1_555
H1S C3S 1_555 1_555
H1D C3D 1_555 1_555
H1O C3O 1_555 1_555
H1H C3H 1_555 1_555
H1W C3W 1_555 1_555
H1T C3T 1_555 1_555
H1K C3K 1_555 1_555
H1A C3A 1_555 1_555
H1Q C3Q 1_555 1_555
H1F C3F 1_555 1_555
H1N C3N 1_555 1_555
H1M C3M 1_555 1_555
H1E C3E 1_555 1_555
H1J C3J 1_555 1_555
H1V C3V 1_555 1_555
H1U C3U 1_555 1_555
H1I C3I 1_555 1_555
H1R C3R 1_555 1_555
H1B C3B 1_555 1_555
H1L C3L 1_555 1_555
H1G C3G 1_555 1_555
H1P C3P 1_555 1_555
H1C C3C 1_555 1_555
C4S C5 1_555 1_555
C4C C3C 1_555 1_555
C4D C3D 1_555 1_555
C4O C3O 1_555 1_555
C4G C3G 1_555 1_555
C4H C3H 1_555 1_555
C4W C3W 1_555 1_555
C4K C3K 1_555 1_555
C4T C3T 1_555 1_555
C4A C3A 1_555 1_555
C4Q C3Q 1_555 1_555
C4B C3B 1_555 1_555
C4F C3F 1_555 1_555
C4N C3N 1_555 1_555
C4E C3E 1_555 1_555
C4M C3M 1_555 1_555
C4J C3J 1_555 1_555
C4V C3V 1_555 1_555
C4I C3I 1_555 1_555
C4U C3U 1_555 1_555
C4R C3R 1_555 1_555
C4L C3L 1_555 1_555
C4P C3P 1_555 1_555
H2S C4S 1_555 1_555
H2D C4D 1_555 1_555
H2O C4O 1_555 1_555
H2H C4H 1_555 1_555
H2W C4W 1_555 1_555
H2T C4T 1_555 1_555
H2K C4K 1_555 1_555
H2A C4A 1_555 1_555
H2Q C4Q 1_555 1_555
H2F C4F 1_555 1_555
H2N C4N 1_555 1_555
H2M C4M 1_555 1_555
H2E C4E 1_555 1_555
H2J C4J 1_555 1_555
H2V C4V 1_555 1_555
H2U C4U 1_555 1_555
H2I C4I 1_555 1_555
H2R C4R 1_555 1_555
H2B C4B 1_555 1_555
H2L C4L 1_555 1_555
H2G C4G 1_555 1_555
H2P C4P 1_555 1_555
H2C C4C 1_555 1_555
C5C C5 1_555 1_555
C5D C4D 1_555 1_555
C5G C4G 1_555 1_555
C5H C4H 1_555 1_555
C5K C4K 1_555 1_555
C5A C4A 1_555 1_555
C5B C4B 1_555 1_555
C5F C4F 1_555 1_555
C5E C4E 1_555 1_555
C5J C4J 1_555 1_555
C5I C4I 1_555 1_555
C6K N1K 1_555 1_555
C6S N1K 1_555 1_555
C6M N1 1_555 1_555
C6T N1E 1_555 1_555
C6E N1E 1_555 1_555
C6C N1C 1_555 1_555
C6O N1C 1_555 1_555
C6U N1D 1_555 1_555
C6D N1D 1_555 1_555
C6I N1I 1_555 1_555
C6P N1I 1_555 1_555
C6G N1G 1_555 1_555
C6W N1G 1_555 1_555
C6Q N1H 1_555 1_555
C6H N1H 1_555 1_555
C6A N1A 1_555 1_555
C6L N1A 1_555 1_555
C6B N1B 1_555 1_555
C6N N1B 1_555 1_555
C6V N1F 1_555 1_555
C6F N1F 1_555 1_555
C6J N1J 1_555 1_555
C6R N1J 1_555 1_555
H3K C6K 1_555 1_555
H3S C6S 1_555 1_555
H3M C6M 1_555 1_555
H3T C6T 1_555 1_555
H3E C6E 1_555 1_555
H3C C6C 1_555 1_555
H3O C6O 1_555 1_555
H3U C6U 1_555 1_555
H3D C6D 1_555 1_555
H3I C6I 1_555 1_555
H3P C6P 1_555 1_555
H3G C6G 1_555 1_555
H3W C6W 1_555 1_555
H3Q C6Q 1_555 1_555
H3H C6H 1_555 1_555
H3A C6A 1_555 1_555
H3L C6L 1_555 1_555
H3B C6B 1_555 1_555
H3N C6N 1_555 1_555
H3V C6V 1_555 1_555
H3F C6F 1_555 1_555
H3J C6J 1_555 1_555
H3R C6R 1_555 1_555
C7K C6K 1_555 1_555
C7S C6S 1_555 1_555
C7M C8 1_555 1_555
C7T C6T 1_555 1_555
C7E C6E 1_555 1_555
C7C C6C 1_555 1_555
C7O C6O 1_555 1_555
C7U C6U 1_555 1_555
C7D C6D 1_555 1_555
C7I C6I 1_555 1_555
C7P C6P 1_555 1_555
C7G C6G 1_555 1_555
C7W C6W 1_555 1_555
C7Q C6Q 1_555 1_555
C7H C6H 1_555 1_555
C7A C6A 1_555 1_555
C7L C6L 1_555 1_555
C7B C6B 1_555 1_555
C7N C6N 1_555 1_555
C7V C6V 1_555 1_555
C7F C6F 1_555 1_555
C7J C6J 1_555 1_555
C7R C6R 1_555 1_555
H4K C7K 1_555 1_555
H4S C7S 1_555 1_555
H4M C7M 1_555 1_555
H4T C7T 1_555 1_555
H4E C7E 1_555 1_555
H4C C7C 1_555 1_555
H4O C7O 1_555 1_555
H4U C7U 1_555 1_555
H4D C7D 1_555 1_555
H4I C7I 1_555 1_555
H4P C7P 1_555 1_555
H4G C7G 1_555 1_555
H4W C7W 1_555 1_555
H4Q C7Q 1_555 1_555
H4H C7H 1_555 1_555
H4A C7A 1_555 1_555
H4L C7L 1_555 1_555
H4B C7B 1_555 1_555
H4N C7N 1_555 1_555
H4V C7V 1_555 1_555
H4F C7F 1_555 1_555
H4J C7J 1_555 1_555
H4R C7R 1_555 1_555
C8K C7K 1_555 1_555
C8E C7T 1_555 1_555
C8C C7C 1_555 1_555
C8D C7U 1_555 1_555
C8I C7I 1_555 1_555
C8G C7G 1_555 1_555
C8H C7Q 1_555 1_555
C8A C7A 1_555 1_555
C8B C7B 1_555 1_555
C8F C7V 1_555 1_555
C8J C7J 1_555 1_555
H5K C8K 1_555 1_555
H5E C8E 1_555 1_555
H5C C8C 1_555 1_555
H5D C8D 1_555 1_555
H5I C8I 1_555 1_555
H5G C8G 1_555 1_555
H5H C8H 1_555 1_555
H5A C8A 1_555 1_555
H5B C8B 1_555 1_555
H5F C8F 1_555 1_555
H5J C8J 1_555 1_555
Fe1K O2S 1_555 1_555
Fe1K O3S 1_555 1_555
S1K O3T 1_555 1_555
S1E O3M 1_555 1_555
S1C O3P 1_555 1_555
S1I O3U 1_555 1_555
S1D O3O 1_555 1_555
S1G O3L 1_555 1_555
S1A O3Q 1_555 1_555
S1H O3W 1_555 1_555
S1B O3R 1_555 1_555
S1J O3V 1_555 1_555
S1F O3N 1_555 1_555
O2M C1E 1_555 1_555
O2U C1I 1_555 1_555
O2O C1D 1_555 1_555
O2P C1C 1_555 1_555
O2Q C1A 1_555 1_555
O2W C1H 1_555 1_555
O2L C1G 1_555 1_555
O2V C1J 1_555 1_555
O2N C1F 1_555 1_555
O2R C1B 1_555 1_555
C3S C4S 1_555 1_555
C4C C5C 1_555 1_555
C4O C5D 1_555 1_555
C4W C5H 1_555 1_555
C4T C5K 1_555 1_555
C4Q C5A 1_555 1_555
C4N C5F 1_555 1_555
C4M C5E 1_555 1_555
C4V C5J 1_555 1_555
C4U C5I 1_555 1_555
C4R C5B 1_555 1_555
C4L C5G 1_555 1_555
C4P C5C 1_555 1_555
C5D C5G 1_555 1_555
C5H C5K 1_555 1_555
C5A C5B 1_555 1_555
C5F C5E 1_555 1_555
C5J C5I 1_555 1_555
C6M C7M 1_555 1_555
C7S C8K 1_555 1_555
C7E C8E 1_555 1_555
C7O C8C 1_555 1_555
C7D C8D 1_555 1_555
C7P C8I 1_555 1_555
C7W C8G 1_555 1_555
C7H C8H 1_555 1_555
C7L C8A 1_555 1_555
C7N C8B 1_555 1_555
C7F C8F 1_555 1_555
C7R C8J 1_555 1_555

#END
