# generated using pymatgen
data_Fe12H132C197S12N15O124
_symmetry_space_group_name_H-M   'P 1'
_cell_length_a   31.64200000
_cell_length_b   31.76200000
_cell_length_c   31.83000000
_cell_angle_alpha   75.84700000
_cell_angle_beta   75.26400000
_cell_angle_gamma   60.15500000
_symmetry_Int_Tables_number   1
_chemical_formula_structural   Fe12H132C197S12N15O124
_chemical_formula_sum   'Fe24 H264 C394 S24 N30 O248'
_cell_volume   26567.81358991
_cell_formula_units_Z   2
loop_
 _symmetry_equiv_pos_site_id
 _symmetry_equiv_pos_as_xyz
  1  'x, y, z'
loop_
 _atom_site_type_symbol
 _atom_site_label
 _atom_site_symmetry_multiplicity
 _atom_site_fract_x
 _atom_site_fract_y
 _atom_site_fract_z
 _atom_site_occupancy
  Fe  Fe1  1  0.083270  0.577480  0.287140  1
  Fe  Fe2  1  0.916730  0.422520  0.712860  1
  Fe  Fe3  1  0.980430  0.683530  0.285220  1
  Fe  Fe4  1  0.019570  0.316470  0.714780  1
  Fe  Fe5  1  0.034070  0.635480  0.374540  1
  Fe  Fe6  1  0.965930  0.364520  0.625460  1
  Fe  Fe7  1  0.084670  0.292740  0.283580  1
  Fe  Fe8  1  0.915330  0.707260  0.716420  1
  Fe  Fe9  1  0.035450  0.244550  0.374120  1
  Fe  Fe10  1  0.964550  0.755450  0.625880  1
  Fe  Fe11  1  0.979130  0.292300  0.286670  1
  Fe  Fe12  1  0.020870  0.707700  0.713330  1
  Fe  Fe13  1  0.376670  0.863280  0.764220  1
  Fe  Fe14  1  0.623330  0.136720  0.235780  1
  Fe  Fe15  1  0.375170  0.967160  0.769490  1
  Fe  Fe16  1  0.624830  0.032840  0.230510  1
  Fe  Fe17  1  0.270820  0.966340  0.768990  1
  Fe  Fe18  1  0.729180  0.033660  0.231010  1
  Fe  Fe19  1  0.644710  0.635920  0.369830  1
  Fe  Fe20  1  0.355290  0.364080  0.630170  1
  Fe  Fe21  1  0.695200  0.684540  0.280690  1
  Fe  Fe22  1  0.304800  0.315460  0.719310  1
  Fe  Fe23  1  0.696890  0.579070  0.281590  1
  Fe  Fe24  1  0.303110  0.420930  0.718410  1
  H  H25  1  0.168100  0.625100  0.390200  1
  H  H26  1  0.831900  0.374900  0.609800  1
  H  H27  1  0.242500  0.623000  0.390300  1
  H  H28  1  0.757500  0.377000  0.609700  1
  H  H29  1  0.301300  0.557700  0.281600  1
  H  H30  1  0.698700  0.442300  0.718400  1
  H  H31  1  0.226900  0.559700  0.281600  1
  H  H32  1  0.773100  0.440300  0.718400  1
  H  H33  1  0.297600  0.643400  0.374300  1
  H  H34  1  0.702400  0.356600  0.625700  1
  H  H35  1  0.371100  0.642700  0.374800  1
  H  H36  1  0.628900  0.357300  0.625200  1
  H  H37  1  0.443200  0.539000  0.295200  1
  H  H38  1  0.556800  0.461000  0.704800  1
  H  H39  1  0.369700  0.539700  0.294600  1
  H  H40  1  0.630300  0.460300  0.705400  1
  H  H41  1  0.439600  0.626500  0.385700  1
  H  H42  1  0.560400  0.373500  0.614300  1
  H  H43  1  0.512100  0.628500  0.384700  1
  H  H44  1  0.487900  0.371500  0.615300  1
  H  H45  1  0.573400  0.561700  0.276700  1
  H  H46  1  0.426600  0.438300  0.723300  1
  H  H47  1  0.500900  0.559700  0.277800  1
  H  H48  1  0.499100  0.440300  0.722200  1
  H  H49  1  0.959200  0.827400  0.285700  1
  H  H50  1  0.040800  0.172600  0.714300  1
  H  H51  1  0.956500  0.901200  0.288300  1
  H  H52  1  0.043500  0.098800  0.711700  1
  H  H53  1  0.037300  0.836200  0.386100  1
  H  H54  1  0.962700  0.163800  0.613900  1
  H  H55  1  0.039700  0.762500  0.383600  1
  H  H56  1  0.960300  0.237500  0.616400  1
  H  H57  1  0.939600  0.967200  0.304300  1
  H  H58  1  0.060400  0.032800  0.695700  1
  H  H59  1  0.939300  0.040400  0.304300  1
  H  H60  1  0.060700  0.959600  0.695700  1
  H  H61  1  0.049700  0.968500  0.375600  1
  H  H62  1  0.950300  0.031500  0.624400  1
  H  H63  1  0.050000  0.895400  0.375700  1
  H  H64  1  0.950000  0.104600  0.624300  1
  H  H65  1  0.958000  0.096500  0.289200  1
  H  H66  1  0.042000  0.903500  0.710800  1
  H  H67  1  0.960100  0.169000  0.287000  1
  H  H68  1  0.039900  0.831000  0.713000  1
  H  H69  1  0.033400  0.108600  0.389900  1
  H  H70  1  0.966600  0.891400  0.610100  1
  H  H71  1  0.031300  0.036100  0.392000  1
  H  H72  1  0.968700  0.963900  0.608000  1
  H  H73  1  0.156100  0.619600  0.165000  1
  H  H74  1  0.843900  0.380400  0.835000  1
  H  H75  1  0.191100  0.650200  0.099900  1
  H  H76  1  0.808900  0.349800  0.900100  1
  H  H77  1  0.064100  0.776000  0.095700  1
  H  H78  1  0.935900  0.224000  0.904300  1
  H  H79  1  0.029300  0.745500  0.160900  1
  H  H80  1  0.970700  0.254500  0.839100  1
  H  H81  1  0.225300  0.683500  0.050600  1
  H  H82  1  0.774700  0.316500  0.949400  1
  H  H83  1  0.259400  0.717200  0.987000  1
  H  H84  1  0.740600  0.282800  0.013000  1
  H  H85  1  0.125100  0.830000  0.972700  1
  H  H86  1  0.874900  0.170000  0.027300  1
  H  H87  1  0.090900  0.796300  0.036200  1
  H  H88  1  0.909100  0.203700  0.963800  1
  H  H89  1  0.287800  0.743900  0.930000  1
  H  H90  1  0.712200  0.256100  0.070000  1
  H  H91  1  0.323200  0.781600  0.870900  1
  H  H92  1  0.676800  0.218400  0.129100  1
  H  H93  1  0.192700  0.903400  0.868500  1
  H  H94  1  0.807300  0.096600  0.131500  1
  H  H95  1  0.157300  0.865700  0.927600  1
  H  H96  1  0.842700  0.134300  0.072400  1
  H  H97  1  0.457400  0.782500  0.871200  1
  H  H98  1  0.542600  0.217500  0.128800  1
  H  H99  1  0.502100  0.745000  0.929200  1
  H  H100  1  0.497900  0.255000  0.070800  1
  H  H101  1  0.510400  0.868000  0.925900  1
  H  H102  1  0.489600  0.132000  0.074100  1
  H  H103  1  0.465000  0.905600  0.868400  1
  H  H104  1  0.535000  0.094400  0.131600  1
  H  H105  1  0.526200  0.720200  0.988600  1
  H  H106  1  0.473800  0.279800  0.011400  1
  H  H107  1  0.565500  0.686100  0.049800  1
  H  H108  1  0.434500  0.313900  0.950200  1
  H  H109  1  0.596800  0.798100  0.030500  1
  H  H110  1  0.403200  0.201900  0.969500  1
  H  H111  1  0.557500  0.832200  0.969300  1
  H  H112  1  0.442500  0.167800  0.030700  1
  H  H113  1  0.611000  0.651900  0.095600  1
  H  H114  1  0.389000  0.348100  0.904400  1
  H  H115  1  0.644000  0.621500  0.160300  1
  H  H116  1  0.356000  0.378500  0.839700  1
  H  H117  1  0.645400  0.748200  0.156100  1
  H  H118  1  0.354600  0.251800  0.843900  1
  H  H119  1  0.612400  0.778700  0.091400  1
  H  H120  1  0.387600  0.221300  0.908600  1
  H  H121  1  0.509400  0.766000  0.384500  1
  H  H122  1  0.490600  0.234000  0.615500  1
  H  H123  1  0.437400  0.840200  0.386900  1
  H  H124  1  0.562600  0.159800  0.613100  1
  H  H125  1  0.499000  0.900100  0.280100  1
  H  H126  1  0.501000  0.099900  0.719900  1
  H  H127  1  0.570900  0.826000  0.277800  1
  H  H128  1  0.429100  0.174000  0.722200  1
  H  H129  1  0.370800  0.898200  0.376800  1
  H  H130  1  0.629200  0.101800  0.623200  1
  H  H131  1  0.297500  0.970800  0.376200  1
  H  H132  1  0.702500  0.029200  0.623800  1
  H  H133  1  0.368400  0.040000  0.290800  1
  H  H134  1  0.631600  0.960000  0.709200  1
  H  H135  1  0.441800  0.967400  0.291400  1
  H  H136  1  0.558200  0.032600  0.708600  1
  H  H137  1  0.239700  0.038300  0.388100  1
  H  H138  1  0.760300  0.961700  0.611900  1
  H  H139  1  0.165500  0.110000  0.386200  1
  H  H140  1  0.834500  0.890000  0.613800  1
  H  H141  1  0.227300  0.169000  0.278600  1
  H  H142  1  0.772700  0.831000  0.721400  1
  H  H143  1  0.301400  0.097200  0.280600  1
  H  H144  1  0.698600  0.902800  0.719400  1
  H  H145  1  0.316200  0.051700  0.873300  1
  H  H146  1  0.683800  0.948300  0.126700  1
  H  H147  1  0.278400  0.098800  0.930200  1
  H  H148  1  0.721600  0.901200  0.069800  1
  H  H149  1  0.151200  0.099000  0.930600  1
  H  H150  1  0.848800  0.901000  0.069400  1
  H  H151  1  0.189200  0.051900  0.873500  1
  H  H152  1  0.810800  0.948100  0.126500  1
  H  H153  1  0.244600  0.141100  0.977000  1
  H  H154  1  0.755400  0.858900  0.023000  1
  H  H155  1  0.211200  0.178300  0.040100  1
  H  H156  1  0.788800  0.821700  0.959900  1
  H  H157  1  0.086400  0.171200  0.046500  1
  H  H158  1  0.913600  0.828800  0.953500  1
  H  H159  1  0.119800  0.134000  0.983500  1
  H  H160  1  0.880200  0.866000  0.016500  1
  H  H161  1  0.182800  0.206600  0.096000  1
  H  H162  1  0.817200  0.793400  0.904000  1
  H  H163  1  0.150200  0.240900  0.160700  1
  H  H164  1  0.849800  0.759100  0.839300  1
  H  H165  1  0.023900  0.237700  0.164500  1
  H  H166  1  0.976100  0.762300  0.835500  1
  H  H167  1  0.056500  0.203400  0.099900  1
  H  H168  1  0.943500  0.796600  0.900100  1
  H  H169  1  0.185100  0.485800  0.301500  1
  H  H170  1  0.814900  0.514200  0.698500  1
  H  H171  1  0.250300  0.422800  0.265000  1
  H  H172  1  0.749700  0.577200  0.735000  1
  H  H173  1  0.248100  0.417400  0.194300  1
  H  H174  1  0.751900  0.582600  0.805700  1
  H  H175  1  0.181000  0.474900  0.160000  1
  H  H176  1  0.819000  0.525100  0.840000  1
  H  H177  1  0.116000  0.537800  0.196500  1
  H  H178  1  0.884000  0.462200  0.803500  1
  H  H179  1  0.948100  0.720600  0.191000  1
  H  H180  1  0.051900  0.279400  0.809000  1
  H  H181  1  0.885600  0.785000  0.155100  1
  H  H182  1  0.114400  0.215000  0.844900  1
  H  H183  1  0.822400  0.847800  0.192600  1
  H  H184  1  0.177600  0.152200  0.807400  1
  H  H185  1  0.821800  0.846300  0.266000  1
  H  H186  1  0.178200  0.153700  0.734000  1
  H  H187  1  0.884300  0.781900  0.301900  1
  H  H188  1  0.115700  0.218100  0.698100  1
  H  H189  1  0.975500  0.707800  0.444100  1
  H  H190  1  0.024500  0.292200  0.555900  1
  H  H191  1  0.980000  0.717100  0.512700  1
  H  H192  1  0.020000  0.282900  0.487300  1
  H  H193  1  0.044800  0.658100  0.549000  1
  H  H194  1  0.955200  0.341900  0.451000  1
  H  H195  1  0.105200  0.589700  0.516900  1
  H  H196  1  0.894800  0.410300  0.483100  1
  H  H197  1  0.100800  0.580300  0.448300  1
  H  H198  1  0.899200  0.419700  0.551700  1
  H  H199  1  0.114700  0.343500  0.191800  1
  H  H200  1  0.885300  0.656500  0.808200  1
  H  H201  1  0.177900  0.361500  0.153200  1
  H  H202  1  0.822100  0.638500  0.846800  1
  H  H203  1  0.246300  0.336900  0.185200  1
  H  H204  1  0.753700  0.663100  0.814800  1
  H  H205  1  0.251500  0.294400  0.255800  1
  H  H206  1  0.748500  0.705600  0.744200  1
  H  H207  1  0.188200  0.276400  0.294400  1
  H  H208  1  0.811800  0.723600  0.705600  1
  H  H209  1  0.108300  0.196600  0.442500  1
  H  H210  1  0.891700  0.803400  0.557500  1
  H  H211  1  0.114700  0.153900  0.513000  1
  H  H212  1  0.885300  0.846100  0.487000  1
  H  H213  1  0.052000  0.135400  0.552500  1
  H  H214  1  0.948000  0.864600  0.447500  1
  H  H215  1  0.983000  0.159800  0.521500  1
  H  H216  1  0.017000  0.840200  0.478500  1
  H  H217  1  0.976600  0.202600  0.451100  1
  H  H218  1  0.023400  0.797400  0.548900  1
  H  H219  1  0.886200  0.274800  0.303900  1
  H  H220  1  0.113800  0.725200  0.696100  1
  H  H221  1  0.823900  0.288500  0.268500  1
  H  H222  1  0.176100  0.711500  0.731500  1
  H  H223  1  0.820000  0.327900  0.196800  1
  H  H224  1  0.180000  0.672100  0.803200  1
  H  H225  1  0.878500  0.353700  0.160500  1
  H  H226  1  0.121500  0.646300  0.839500  1
  H  H227  1  0.940800  0.340000  0.195900  1
  H  H228  1  0.059200  0.660000  0.804100  1
  H  H229  1  0.357100  0.775600  0.763700  1
  H  H230  1  0.642900  0.224400  0.236300  1
  H  H231  1  0.399700  0.691700  0.762100  1
  H  H232  1  0.600300  0.308300  0.237900  1
  H  H233  1  0.484300  0.649800  0.762000  1
  H  H234  1  0.515700  0.350200  0.238000  1
  H  H235  1  0.526200  0.691900  0.763600  1
  H  H236  1  0.473800  0.308100  0.236400  1
  H  H237  1  0.483600  0.775900  0.765200  1
  H  H238  1  0.516400  0.224100  0.234800  1
  H  H239  1  0.482000  0.947900  0.773700  1
  H  H240  1  0.518000  0.052100  0.226300  1
  H  H241  1  0.521400  0.988200  0.785400  1
  H  H242  1  0.478600  0.011800  0.214600  1
  H  H243  1  0.476600  0.070000  0.795400  1
  H  H244  1  0.523400  0.930000  0.204600  1
  H  H245  1  0.392400  0.111700  0.793900  1
  H  H246  1  0.607600  0.888300  0.206100  1
  H  H247  1  0.352900  0.071400  0.782200  1
  H  H248  1  0.647100  0.928600  0.217800  1
  H  H249  1  0.180500  0.069600  0.782200  1
  H  H250  1  0.819500  0.930400  0.217800  1
  H  H251  1  0.095000  0.109300  0.791600  1
  H  H252  1  0.905000  0.890700  0.208400  1
  H  H253  1  0.052900  0.067200  0.790400  1
  H  H254  1  0.947100  0.932800  0.209600  1
  H  H255  1  0.096400  0.985400  0.779900  1
  H  H256  1  0.903600  0.014600  0.220100  1
  H  H257  1  0.182000  0.945800  0.770500  1
  H  H258  1  0.818000  0.054200  0.229500  1
  H  H259  1  0.598100  0.576700  0.442700  1
  H  H260  1  0.401900  0.423300  0.557300  1
  H  H261  1  0.548400  0.583100  0.510900  1
  H  H262  1  0.451600  0.416900  0.489100  1
  H  H263  1  0.521600  0.650400  0.545600  1
  H  H264  1  0.478400  0.349600  0.454400  1
  H  H265  1  0.544500  0.711300  0.512200  1
  H  H266  1  0.455500  0.288700  0.487800  1
  H  H267  1  0.594100  0.704800  0.444000  1
  H  H268  1  0.405900  0.295200  0.556000  1
  H  H269  1  0.685000  0.782200  0.298200  1
  H  H270  1  0.315000  0.217800  0.701800  1
  H  H271  1  0.702100  0.846300  0.262700  1
  H  H272  1  0.297900  0.153700  0.737300  1
  H  H273  1  0.737800  0.848000  0.189300  1
  H  H274  1  0.262200  0.152000  0.810700  1
  H  H275  1  0.756200  0.785600  0.151500  1
  H  H276  1  0.243800  0.214400  0.848500  1
  H  H277  1  0.739100  0.721500  0.187000  1
  H  H278  1  0.260900  0.278500  0.813000  1
  H  H279  1  0.749100  0.539900  0.190700  1
  H  H280  1  0.250900  0.460100  0.809300  1
  H  H281  1  0.765500  0.476600  0.154800  1
  H  H282  1  0.234500  0.523400  0.845200  1
  H  H283  1  0.739600  0.418400  0.190200  1
  H  H284  1  0.260400  0.581600  0.809800  1
  H  H285  1  0.697200  0.423400  0.261400  1
  H  H286  1  0.302800  0.576600  0.738600  1
  H  H287  1  0.680800  0.486700  0.297300  1
  H  H288  1  0.319200  0.513300  0.702700  1
  C  C289  1  0.821500  0.911900  0.337700  1
  C  C290  1  0.178500  0.088100  0.662300  1
  C  C291  1  0.851500  0.868300  0.361500  1
  C  C292  1  0.148500  0.131700  0.638500  1
  C  C293  1  0.874500  0.869300  0.392900  1
  C  C294  1  0.125500  0.130700  0.607100  1
  C  C295  1  0.867400  0.913700  0.400500  1
  C  C296  1  0.132600  0.086300  0.599500  1
  C  C297  1  0.837500  0.957300  0.376800  1
  C  C298  1  0.162500  0.042700  0.623200  1
  C  C299  1  0.607500  0.899400  0.341400  1
  C  C300  1  0.392500  0.100600  0.658600  1
  C  C301  1  0.598700  0.861800  0.367700  1
  C  C302  1  0.401300  0.138200  0.632300  1
  C  C303  1  0.552000  0.872000  0.391300  1
  C  C304  1  0.448000  0.128000  0.608700  1
  C  C305  1  0.514000  0.919800  0.388600  1
  C  C306  1  0.486000  0.080200  0.611400  1
  C  C307  1  0.522800  0.957500  0.362300  1
  C  C308  1  0.477200  0.042500  0.637700  1
  C  C309  1  0.057300  0.962800  0.932300  1
  C  C310  1  0.942700  0.037200  0.067700  1
  C  C311  1  0.087100  0.981100  0.902800  1
  C  C312  1  0.912900  0.018900  0.097200  1
  C  C313  1  0.118700  0.990400  0.918000  1
  C  C314  1  0.881300  0.009600  0.082000  1
  C  C315  1  0.120600  0.981400  0.962600  1
  C  C316  1  0.879400  0.018600  0.037400  1
  C  C317  1  0.090800  0.963200  0.992100  1
  C  C318  1  0.909200  0.036800  0.007900  1
  C  C319  1  0.140900  0.598400  0.334600  1
  C  C320  1  0.859100  0.401600  0.665400  1
  C  C321  1  0.190400  0.593100  0.335300  1
  C  C322  1  0.809600  0.406900  0.664700  1
  C  C323  1  0.194780  0.611760  0.368360  1
  C  C324  1  0.805220  0.388240  0.631640  1
  C  C325  1  0.239350  0.610360  0.368490  1
  C  C326  1  0.760650  0.389640  0.631510  1
  C  C327  1  0.279260  0.590090  0.335970  1
  C  C328  1  0.720740  0.409910  0.664030  1
  C  C329  1  0.274590  0.571230  0.303320  1
  C  C330  1  0.725410  0.428770  0.696680  1
  C  C331  1  0.230010  0.572630  0.303190  1
  C  C332  1  0.769990  0.427370  0.696810  1
  C  C333  1  0.326380  0.591590  0.334370  1
  C  C334  1  0.673620  0.408410  0.665630  1
  C  C335  1  0.326820  0.622460  0.358410  1
  C  C336  1  0.673180  0.377540  0.641590  1
  C  C337  1  0.370860  0.622040  0.358760  1
  C  C338  1  0.629140  0.377960  0.641240  1
  C  C339  1  0.414470  0.590770  0.335070  1
  C  C340  1  0.585530  0.409230  0.664930  1
  C  C341  1  0.414030  0.559910  0.311030  1
  C  C342  1  0.585970  0.440090  0.688970  1
  C  C343  1  0.369990  0.560320  0.310680  1
  C  C344  1  0.630010  0.439680  0.689320  1
  C  C345  1  0.463040  0.592870  0.331830  1
  C  C346  1  0.536960  0.407130  0.668170  1
  C  C347  1  0.466420  0.613500  0.363860  1
  C  C348  1  0.533580  0.386500  0.636140  1
  C  C349  1  0.509870  0.614730  0.363250  1
  C  C350  1  0.490130  0.385270  0.636750  1
  C  C351  1  0.549950  0.595330  0.330610  1
  C  C352  1  0.450050  0.404670  0.669390  1
  C  C353  1  0.546570  0.574700  0.298580  1
  C  C354  1  0.453430  0.425300  0.701420  1
  C  C355  1  0.503120  0.573470  0.299190  1
  C  C356  1  0.496880  0.426530  0.700810  1
  C  C357  1  0.594000  0.599900  0.329100  1
  C  C358  1  0.406000  0.400100  0.670900  1
  C  C359  1  0.001400  0.740300  0.332900  1
  C  C360  1  0.998600  0.259700  0.667100  1
  C  C361  1  0.999100  0.788600  0.334600  1
  C  C362  1  0.000900  0.211400  0.665400  1
  C  C363  1  0.974670  0.829350  0.305960  1
  C  C364  1  0.025330  0.170650  0.694040  1
  C  C365  1  0.973190  0.873450  0.307430  1
  C  C366  1  0.026810  0.126550  0.692570  1
  C  C367  1  0.996660  0.876020  0.337460  1
  C  C368  1  0.003340  0.123980  0.662540  1
  C  C369  1  0.021610  0.834490  0.366030  1
  C  C370  1  0.978390  0.165510  0.633970  1
  C  C371  1  0.023080  0.790390  0.364560  1
  C  C372  1  0.976920  0.209610  0.635440  1
  C  C373  1  0.994840  0.924020  0.340000  1
  C  C374  1  0.005160  0.075980  0.660000  1
  C  C375  1  0.961680  0.967460  0.318600  1
  C  C376  1  0.038320  0.032540  0.681400  1
  C  C377  1  0.961500  0.011320  0.318580  1
  C  C378  1  0.038500  0.988680  0.681420  1
  C  C379  1  0.994500  0.011720  0.339950  1
  C  C380  1  0.005500  0.988280  0.660050  1
  C  C381  1  0.027670  0.968280  0.361350  1
  C  C382  1  0.972330  0.031720  0.638650  1
  C  C383  1  0.027840  0.924420  0.361370  1
  C  C384  1  0.972160  0.075580  0.638630  1
  C  C385  1  0.994450  0.059110  0.340820  1
  C  C386  1  0.005550  0.940890  0.659180  1
  C  C387  1  0.973110  0.098920  0.309360  1
  C  C388  1  0.026890  0.901080  0.690640  1
  C  C389  1  0.974360  0.142340  0.308070  1
  C  C390  1  0.025640  0.857660  0.691930  1
  C  C391  1  0.996960  0.145970  0.338240  1
  C  C392  1  0.003040  0.854030  0.661760  1
  C  C393  1  0.018300  0.106170  0.369700  1
  C  C394  1  0.981700  0.893830  0.630300  1
  C  C395  1  0.017040  0.062740  0.370990  1
  C  C396  1  0.982960  0.937260  0.629010  1
  C  C397  1  0.999500  0.192800  0.335000  1
  C  C398  1  0.000500  0.807200  0.665000  1
  C  C399  1  0.068300  0.662100  0.212900  1
  C  C400  1  0.931700  0.337900  0.787100  1
  C  C401  1  0.090100  0.679900  0.170000  1
  C  C402  1  0.909900  0.320100  0.830000  1
  C  C403  1  0.137860  0.651110  0.151360  1
  C  C404  1  0.862140  0.348890  0.848640  1
  C  C405  1  0.158660  0.669320  0.112170  1
  C  C406  1  0.841340  0.330680  0.887830  1
  C  C407  1  0.131050  0.716100  0.091330  1
  C  C408  1  0.868950  0.283900  0.908670  1
  C  C409  1  0.082630  0.744680  0.109680  1
  C  C410  1  0.917370  0.255320  0.890320  1
  C  C411  1  0.061820  0.726470  0.148860  1
  C  C412  1  0.938180  0.273530  0.851140  1
  C  C413  1  0.154710  0.736560  0.049690  1
  C  C414  1  0.845290  0.263440  0.950310  1
  C  C415  1  0.205180  0.712850  0.034960  1
  C  C416  1  0.794820  0.287150  0.965040  1
  C  C417  1  0.225640  0.733020  0.996890  1
  C  C418  1  0.774360  0.266980  0.003110  1
  C  C419  1  0.195620  0.776910  0.973550  1
  C  C420  1  0.804380  0.223090  0.026450  1
  C  C421  1  0.145150  0.800630  0.988280  1
  C  C422  1  0.854850  0.199370  0.011720  1
  C  C423  1  0.124700  0.780460  0.026360  1
  C  C424  1  0.875300  0.219540  0.973640  1
  C  C425  1  0.219010  0.801090  0.934660  1
  C  C426  1  0.780990  0.198910  0.065340  1
  C  C427  1  0.268710  0.775870  0.917690  1
  C  C428  1  0.731290  0.224130  0.082310  1
  C  C429  1  0.289910  0.798430  0.882300  1
  C  C430  1  0.710090  0.201570  0.117700  1
  C  C431  1  0.261420  0.846220  0.863880  1
  C  C432  1  0.738580  0.153780  0.136120  1
  C  C433  1  0.211720  0.871440  0.880840  1
  C  C434  1  0.788280  0.128560  0.119160  1
  C  C435  1  0.190520  0.848870  0.916240  1
  C  C436  1  0.809480  0.151130  0.083760  1
  C  C437  1  0.284500  0.871400  0.826800  1
  C  C438  1  0.715500  0.128600  0.173200  1
  C  C439  1  0.427200  0.871200  0.827100  1
  C  C440  1  0.572800  0.128800  0.172900  1
  C  C441  1  0.457800  0.847500  0.863900  1
  C  C442  1  0.542200  0.152500  0.136100  1
  C  C443  1  0.468170  0.799490  0.882180  1
  C  C444  1  0.531830  0.200510  0.117820  1
  C  C445  1  0.494850  0.777100  0.916890  1
  C  C446  1  0.505150  0.222900  0.083110  1
  C  C447  1  0.510660  0.802750  0.933260  1
  C  C448  1  0.489340  0.197250  0.066740  1
  C  C449  1  0.499800  0.850800  0.914920  1
  C  C450  1  0.500200  0.149200  0.085080  1
  C  C451  1  0.473120  0.873190  0.880210  1
  C  C452  1  0.526880  0.126810  0.119790  1
  C  C453  1  0.537920  0.779630  0.972860  1
  C  C454  1  0.462080  0.220370  0.027140  1
  C  C455  1  0.540320  0.735840  0.996980  1
  C  C456  1  0.459680  0.264160  0.003020  1
  C  C457  1  0.563900  0.715360  0.033670  1
  C  C458  1  0.436100  0.284640  0.966330  1
  C  C459  1  0.585070  0.738670  0.046240  1
  C  C460  1  0.414930  0.261330  0.953760  1
  C  C461  1  0.582670  0.782460  0.022120  1
  C  C462  1  0.417330  0.217540  0.977880  1
  C  C463  1  0.559090  0.802940  0.985430  1
  C  C464  1  0.440910  0.197060  0.014570  1
  C  C465  1  0.608440  0.718310  0.087070  1
  C  C466  1  0.391560  0.281690  0.912930  1
  C  C467  1  0.617890  0.671220  0.107720  1
  C  C468  1  0.382110  0.328780  0.892280  1
  C  C469  1  0.637650  0.653000  0.146480  1
  C  C470  1  0.362350  0.347000  0.853520  1
  C  C471  1  0.647980  0.681850  0.164610  1
  C  C472  1  0.352020  0.318150  0.835390  1
  C  C473  1  0.638530  0.728940  0.143970  1
  C  C474  1  0.361470  0.271060  0.856030  1
  C  C475  1  0.618760  0.747170  0.105200  1
  C  C476  1  0.381240  0.252830  0.894800  1
  C  C477  1  0.665400  0.663900  0.209100  1
  C  C478  1  0.334600  0.336100  0.790900  1
  C  C479  1  0.595100  0.741000  0.327400  1
  C  C480  1  0.404900  0.259000  0.672600  1
  C  C481  1  0.547300  0.789500  0.330500  1
  C  C482  1  0.452700  0.210500  0.669500  1
  C  C483  1  0.507190  0.793030  0.363690  1
  C  C484  1  0.492810  0.206970  0.636310  1
  C  C485  1  0.464130  0.837380  0.365060  1
  C  C486  1  0.535870  0.162620  0.634940  1
  C  C487  1  0.461060  0.877500  0.333740  1
  C  C488  1  0.538940  0.122500  0.666260  1
  C  C489  1  0.501050  0.873280  0.301040  1
  C  C490  1  0.498950  0.126720  0.698960  1
  C  C491  1  0.544120  0.828930  0.299660  1
  C  C492  1  0.455880  0.171070  0.700340  1
  C  C493  1  0.413580  0.925560  0.334190  1
  C  C494  1  0.586420  0.074440  0.665810  1
  C  C495  1  0.370350  0.926600  0.359600  1
  C  C496  1  0.629650  0.073400  0.640400  1
  C  C497  1  0.326390  0.970120  0.359230  1
  C  C498  1  0.673610  0.029880  0.640770  1
  C  C499  1  0.325670  0.012610  0.333440  1
  C  C500  1  0.674330  0.987390  0.666560  1
  C  C501  1  0.368910  0.011570  0.308030  1
  C  C502  1  0.631090  0.988430  0.691970  1
  C  C503  1  0.412860  0.968050  0.308400  1
  C  C504  1  0.587140  0.031950  0.691600  1
  C  C505  1  0.277900  0.060640  0.334530  1
  C  C506  1  0.722100  0.939360  0.665470  1
  C  C507  1  0.237180  0.064470  0.366160  1
  C  C508  1  0.762820  0.935530  0.633840  1
  C  C509  1  0.192770  0.107450  0.364990  1
  C  C510  1  0.807230  0.892550  0.635010  1
  C  C511  1  0.189070  0.146590  0.332190  1
  C  C512  1  0.810930  0.853410  0.667810  1
  C  C513  1  0.229780  0.142760  0.300560  1
  C  C514  1  0.770220  0.857240  0.699440  1
  C  C515  1  0.274200  0.099780  0.301730  1
  C  C516  1  0.725800  0.900220  0.698270  1
  C  C517  1  0.140900  0.192500  0.331700  1
  C  C518  1  0.859100  0.807500  0.668300  1
  C  C519  1  0.282500  0.013700  0.833400  1
  C  C520  1  0.717500  0.986300  0.166600  1
  C  C521  1  0.256800  0.047000  0.868500  1
  C  C522  1  0.743200  0.953000  0.131500  1
  C  C523  1  0.283170  0.061070  0.884880  1
  C  C524  1  0.716830  0.938930  0.115120  1
  C  C525  1  0.260510  0.089360  0.918880  1
  C  C526  1  0.739490  0.910640  0.081120  1
  C  C527  1  0.211070  0.103580  0.936010  1
  C  C528  1  0.788930  0.896420  0.063990  1
  C  C529  1  0.184290  0.089500  0.919150  1
  C  C530  1  0.815710  0.910500  0.080850  1
  C  C531  1  0.206940  0.061200  0.885160  1
  C  C532  1  0.793060  0.938800  0.114840  1
  C  C533  1  0.185530  0.133850  0.973970  1
  C  C534  1  0.814470  0.866150  0.026030  1
  C  C535  1  0.212920  0.147110  0.990930  1
  C  C536  1  0.787080  0.852890  0.009070  1
  C  C537  1  0.192880  0.169380  0.028730  1
  C  C538  1  0.807120  0.830620  0.971270  1
  C  C539  1  0.145460  0.178400  0.049570  1
  C  C540  1  0.854540  0.821600  0.950430  1
  C  C541  1  0.118080  0.165150  0.032600  1
  C  C542  1  0.881920  0.834850  0.967400  1
  C  C543  1  0.138110  0.142870  0.994800  1
  C  C544  1  0.861890  0.857130  0.005200  1
  C  C545  1  0.122850  0.201590  0.091540  1
  C  C546  1  0.877150  0.798410  0.908460  1
  C  C547  1  0.150940  0.212840  0.109740  1
  C  C548  1  0.849060  0.787160  0.890260  1
  C  C549  1  0.131450  0.233380  0.148470  1
  C  C550  1  0.868550  0.766620  0.851530  1
  C  C551  1  0.083870  0.242680  0.169000  1
  C  C552  1  0.916130  0.757320  0.831000  1
  C  C553  1  0.055780  0.231440  0.150800  1
  C  C554  1  0.944220  0.768560  0.849200  1
  C  C555  1  0.075270  0.210890  0.112070  1
  C  C556  1  0.924730  0.789110  0.887930  1
  C  C557  1  0.063500  0.261800  0.211800  1
  C  C558  1  0.936500  0.738200  0.788200  1
  C  C559  1  0.184500  0.483430  0.273110  1
  C  C560  1  0.815500  0.516570  0.726890  1
  C  C561  1  0.223410  0.445810  0.251290  1
  C  C562  1  0.776590  0.554190  0.748710  1
  C  C563  1  0.222080  0.442600  0.208910  1
  C  C564  1  0.777920  0.557400  0.791090  1
  C  C565  1  0.181860  0.477000  0.188350  1
  C  C566  1  0.818140  0.523000  0.811650  1
  C  C567  1  0.142960  0.514610  0.210160  1
  C  C568  1  0.857040  0.485390  0.789840  1
  C  C569  1  0.922750  0.745760  0.206050  1
  C  C570  1  0.077250  0.254240  0.793950  1
  C  C571  1  0.885310  0.784350  0.184530  1
  C  C572  1  0.114690  0.215650  0.815470  1
  C  C573  1  0.847490  0.822020  0.206990  1
  C  C574  1  0.152510  0.177980  0.793010  1
  C  C575  1  0.847120  0.821080  0.250970  1
  C  C576  1  0.152880  0.178920  0.749030  1
  C  C577  1  0.884570  0.782490  0.272480  1
  C  C578  1  0.115430  0.217510  0.727520  1
  C  C579  1  0.001530  0.684090  0.458720  1
  C  C580  1  0.998470  0.315910  0.541280  1
  C  C581  1  0.004180  0.689710  0.499790  1
  C  C582  1  0.995820  0.310290  0.500210  1
  C  C583  1  0.043030  0.654350  0.521570  1
  C  C584  1  0.956970  0.345650  0.478430  1
  C  C585  1  0.079240  0.613380  0.502290  1
  C  C586  1  0.920760  0.386620  0.497710  1
  C  C587  1  0.076590  0.607760  0.461220  1
  C  C588  1  0.923410  0.392240  0.538780  1
  C  C589  1  0.142110  0.333680  0.204620  1
  C  C590  1  0.857890  0.666320  0.795380  1
  C  C591  1  0.180000  0.344450  0.181500  1
  C  C592  1  0.820000  0.655550  0.818500  1
  C  C593  1  0.220970  0.329730  0.200670  1
  C  C594  1  0.779030  0.670270  0.799330  1
  C  C595  1  0.224060  0.304250  0.242960  1
  C  C596  1  0.775940  0.695750  0.757040  1
  C  C597  1  0.186170  0.293490  0.266080  1
  C  C598  1  0.813830  0.706510  0.733920  1
  C  C599  1  0.083220  0.189250  0.458360  1
  C  C600  1  0.916780  0.810750  0.541640  1
  C  C601  1  0.087020  0.163620  0.500570  1
  C  C602  1  0.912980  0.836380  0.499430  1
  C  C603  1  0.049470  0.152590  0.524230  1
  C  C604  1  0.950530  0.847410  0.475770  1
  C  C605  1  0.008110  0.167180  0.505680  1
  C  C606  1  0.991890  0.832820  0.494320  1
  C  C607  1  0.004300  0.192800  0.463460  1
  C  C608  1  0.995700  0.807200  0.536540  1
  C  C609  1  0.884640  0.290620  0.275120  1
  C  C610  1  0.115360  0.709380  0.724880  1
  C  C611  1  0.847320  0.298810  0.253920  1
  C  C612  1  0.152680  0.701190  0.746080  1
  C  C613  1  0.845010  0.322440  0.210970  1
  C  C614  1  0.154990  0.677560  0.789030  1
  C  C615  1  0.880020  0.337890  0.189230  1
  C  C616  1  0.119980  0.662110  0.810770  1
  C  C617  1  0.917340  0.329710  0.210430  1
  C  C618  1  0.082660  0.670290  0.789570  1
  C  C619  1  0.390990  0.758840  0.763700  1
  C  C620  1  0.609010  0.241160  0.236300  1
  C  C621  1  0.416520  0.708550  0.762720  1
  C  C622  1  0.583480  0.291450  0.237280  1
  C  C623  1  0.467180  0.683480  0.762670  1
  C  C624  1  0.532820  0.316520  0.237330  1
  C  C625  1  0.492300  0.708700  0.763610  1
  C  C626  1  0.507700  0.291300  0.236390  1
  C  C627  1  0.466770  0.758990  0.764590  1
  C  C628  1  0.533230  0.241010  0.235410  1
  C  C629  1  0.464000  0.980760  0.777730  1
  C  C630  1  0.536000  0.019240  0.222270  1
  C  C631  1  0.487620  0.004870  0.784720  1
  C  C632  1  0.512380  0.995130  0.215280  1
  C  C633  1  0.460780  0.053920  0.790770  1
  C  C634  1  0.539220  0.946080  0.209230  1
  C  C635  1  0.410320  0.078870  0.789820  1
  C  C636  1  0.589680  0.921130  0.210180  1
  C  C637  1  0.386690  0.054760  0.782830  1
  C  C638  1  0.613310  0.945240  0.217170  1
  C  C639  1  0.163650  0.052770  0.781730  1
  C  C640  1  0.836350  0.947230  0.218270  1
  C  C641  1  0.112400  0.076510  0.787360  1
  C  C642  1  0.887600  0.923490  0.212640  1
  C  C643  1  0.087200  0.051280  0.786660  1
  C  C644  1  0.912800  0.948720  0.213340  1
  C  C645  1  0.113260  0.002310  0.780320  1
  C  C646  1  0.886740  0.997690  0.219680  1
  C  C647  1  0.164520  0.978570  0.774700  1
  C  C648  1  0.835480  0.021430  0.225300  1
  C  C649  1  0.587360  0.603680  0.456620  1
  C  C650  1  0.412640  0.396320  0.543380  1
  C  C651  1  0.557600  0.607530  0.497470  1
  C  C652  1  0.442400  0.392470  0.502530  1
  C  C653  1  0.541520  0.647830  0.518290  1
  C  C654  1  0.458480  0.352170  0.481710  1
  C  C655  1  0.555200  0.684290  0.498280  1
  C  C656  1  0.444800  0.315710  0.501720  1
  C  C657  1  0.584960  0.680440  0.457430  1
  C  C658  1  0.415040  0.319560  0.542570  1
  C  C659  1  0.699270  0.782890  0.268760  1
  C  C660  1  0.300730  0.217110  0.731240  1
  C  C661  1  0.709540  0.821320  0.247490  1
  C  C662  1  0.290460  0.178680  0.752510  1
  C  C663  1  0.730880  0.822330  0.203550  1
  C  C664  1  0.269120  0.177670  0.796450  1
  C  C665  1  0.741940  0.784920  0.180880  1
  C  C666  1  0.258060  0.215080  0.819120  1
  C  C667  1  0.731670  0.746490  0.202150  1
  C  C668  1  0.268330  0.253510  0.797850  1
  C  C669  1  0.738690  0.516530  0.204850  1
  C  C670  1  0.261310  0.483470  0.795150  1
  C  C671  1  0.748550  0.478650  0.183370  1
  C  C672  1  0.251450  0.521350  0.816630  1
  C  C673  1  0.733010  0.443770  0.204570  1
  C  C674  1  0.266990  0.556230  0.795430  1
  C  C675  1  0.707610  0.446770  0.247250  1
  C  C676  1  0.292390  0.553230  0.752750  1
  C  C677  1  0.697750  0.484650  0.268730  1
  C  C678  1  0.302250  0.515350  0.731270  1
  C  C679  1  0.650200  0.540100  0.097040  1
  C  C680  1  0.349800  0.459900  0.902960  1
  C  C681  1  0.583400  0.573300  0.172070  1
  C  C682  1  0.416600  0.426700  0.827930  1
  S  S683  1  0.996800  0.595280  0.239670  1
  S  S684  1  0.003200  0.404720  0.760330  1
  S  S685  1  0.083410  0.518610  0.384930  1
  S  S686  1  0.916590  0.481390  0.615070  1
  S  S687  1  0.915830  0.689860  0.380760  1
  S  S688  1  0.084170  0.310140  0.619240  1
  S  S689  1  0.089990  0.305180  0.378410  1
  S  S690  1  0.910010  0.694820  0.621590  1
  S  S691  1  0.995870  0.385890  0.239530  1
  S  S692  1  0.004130  0.614110  0.760470  1
  S  S693  1  0.917850  0.305580  0.383520  1
  S  S694  1  0.082150  0.694420  0.616480  1
  S  S695  1  0.463330  0.889150  0.710330  1
  S  S696  1  0.536670  0.110850  0.289670  1
  S  S697  1  0.293200  0.888130  0.709120  1
  S  S698  1  0.706800  0.111870  0.290880  1
  S  S699  1  0.289180  0.058430  0.721470  1
  S  S700  1  0.710820  0.941570  0.278530  1
  S  S701  1  0.705510  0.689270  0.376740  1
  S  S702  1  0.294490  0.310730  0.623260  1
  S  S703  1  0.704580  0.519110  0.377970  1
  S  S704  1  0.295420  0.480890  0.622030  1
  S  S705  1  0.790410  0.596680  0.234980  1
  S  S706  1  0.209590  0.403320  0.765020  1
  N  N707  1  0.814500  0.956400  0.345400  1
  N  N708  1  0.185500  0.043600  0.654600  1
  N  N709  1  0.569500  0.947300  0.338700  1
  N  N710  1  0.430500  0.052700  0.661300  1
  N  N711  1  0.059200  0.953900  0.976900  1
  N  N712  1  0.940800  0.046100  0.023100  1
  N  N713  1  0.145000  0.517100  0.252000  1
  N  N714  1  0.855000  0.482900  0.748000  1
  N  N715  1  0.922380  0.744830  0.250020  1
  N  N716  1  0.077620  0.255170  0.749980  1
  N  N717  1  0.037740  0.643120  0.439440  1
  N  N718  1  0.962260  0.356880  0.560560  1
  N  N719  1  0.145190  0.308200  0.246910  1
  N  N720  1  0.854810  0.691800  0.753090  1
  N  N721  1  0.041850  0.203840  0.439810  1
  N  N722  1  0.958150  0.796160  0.560190  1
  N  N723  1  0.919650  0.306070  0.253380  1
  N  N724  1  0.080350  0.693930  0.746620  1
  N  N725  1  0.416120  0.784060  0.764640  1
  N  N726  1  0.583880  0.215940  0.235360  1
  N  N727  1  0.413530  0.005710  0.776790  1
  N  N728  1  0.586470  0.994290  0.223210  1
  N  N729  1  0.189710  0.003800  0.775400  1
  N  N730  1  0.810290  0.996200  0.224600  1
  N  N731  1  0.601040  0.640140  0.436610  1
  N  N732  1  0.398960  0.359860  0.563390  1
  N  N733  1  0.710330  0.745480  0.246090  1
  N  N734  1  0.289670  0.254520  0.753910  1
  N  N735  1  0.713290  0.519530  0.247520  1
  N  N736  1  0.286710  0.480470  0.752480  1
  O  O737  1  0.602000  0.757200  0.850200  1
  O  O738  1  0.398000  0.242800  0.149800  1
  O  O739  1  0.586300  0.745900  0.788400  1
  O  O740  1  0.413700  0.254100  0.211600  1
  O  O741  1  0.655300  0.673400  0.802900  1
  O  O742  1  0.344700  0.326600  0.197100  1
  O  O743  1  0.345600  0.913600  0.945600  1
  O  O744  1  0.654400  0.086400  0.054400  1
  O  O745  1  0.262200  0.928200  0.953900  1
  O  O746  1  0.737800  0.071800  0.046100  1
  O  O747  1  0.715900  0.323600  0.232500  1
  O  O748  1  0.284100  0.676400  0.767500  1
  O  O749  1  0.725600  0.250000  0.246000  1
  O  O750  1  0.274400  0.750000  0.754000  1
  O  O751  1  0.116500  0.128300  0.256100  1
  O  O752  1  0.883500  0.871700  0.743900  1
  O  O753  1  0.150100  0.071300  0.208600  1
  O  O754  1  0.849900  0.928700  0.791400  1
  O  O755  1  0.353600  0.964100  0.637300  1
  O  O756  1  0.646400  0.035900  0.362700  1
  O  O757  1  0.964700  0.858500  0.115200  1
  O  O758  1  0.035300  0.141500  0.884800  1
  O  O759  1  0.973200  0.874900  0.030600  1
  O  O760  1  0.026800  0.125100  0.969400  1
  O  O761  1  0.499000  0.588900  0.890410  1
  O  O762  1  0.501000  0.411100  0.109590  1
  O  O763  1  0.429100  0.697000  0.908240  1
  O  O764  1  0.570900  0.303000  0.091760  1
  O  O765  1  0.519900  0.628400  0.933000  1
  O  O766  1  0.480100  0.371600  0.067000  1
  O  O767  1  0.840900  0.687700  0.263400  1
  O  O768  1  0.159100  0.312300  0.736600  1
  O  O769  1  0.857300  0.621400  0.330400  1
  O  O770  1  0.142700  0.378600  0.669600  1
  O  O771  1  0.824600  0.424500  0.299400  1
  O  O772  1  0.175400  0.575500  0.700600  1
  O  O773  1  0.095600  0.427500  0.297100  1
  O  O774  1  0.904400  0.572500  0.702900  1
  O  O775  1  0.769700  0.783600  0.353400  1
  O  O776  1  0.230300  0.216400  0.646600  1
  O  O777  1  0.955200  0.515800  0.166400  1
  O  O778  1  0.044800  0.484200  0.833600  1
  O  O779  1  0.889700  0.483100  0.166300  1
  O  O780  1  0.110300  0.516900  0.833700  1
  O  O781  1  0.529800  0.719800  0.255740  1
  O  O782  1  0.470200  0.280200  0.744260  1
  O  O783  1  0.632500  0.852600  0.107540  1
  O  O784  1  0.367500  0.147400  0.892460  1
  O  O785  1  0.193500  0.708800  0.207700  1
  O  O786  1  0.806500  0.291200  0.792300  1
  O  O787  1  0.783400  0.580000  0.090850  1
  O  O788  1  0.216600  0.420000  0.909150  1
  O  O789  1  0.052600  0.477900  0.163000  1
  O  O790  1  0.947400  0.522100  0.837000  1
  O  O791  1  0.062200  0.400500  0.493000  1
  O  O792  1  0.937800  0.599500  0.507000  1
  O  O793  1  0.759400  0.363900  0.379700  1
  O  O794  1  0.240600  0.636100  0.620300  1
  O  O795  1  0.795900  0.398100  0.093400  1
  O  O796  1  0.204100  0.601900  0.906600  1
  O  O797  1  0.129420  0.731100  0.423300  1
  O  O798  1  0.870580  0.268900  0.576700  1
  O  O799  1  0.126000  0.716000  0.260000  1
  O  O800  1  0.874000  0.284000  0.740000  1
  O  O801  1  0.854100  0.467900  0.326800  1
  O  O802  1  0.145900  0.532100  0.673200  1
  O  O803  1  0.000700  0.457600  0.337300  1
  O  O804  1  0.999300  0.542400  0.662700  1
  O  O805  1  0.031810  0.631850  0.315740  1
  O  O806  1  0.968190  0.368150  0.684260  1
  O  O807  1  0.924990  0.687800  0.333110  1
  O  O808  1  0.075010  0.312200  0.666890  1
  O  O809  1  0.880800  0.671900  0.401900  1
  O  O810  1  0.119200  0.328100  0.598100  1
  O  O811  1  0.900300  0.740100  0.387400  1
  O  O812  1  0.099700  0.259900  0.612600  1
  O  O813  1  0.963400  0.656000  0.397820  1
  O  O814  1  0.036600  0.344000  0.602180  1
  O  O815  1  0.048700  0.567040  0.399850  1
  O  O816  1  0.951300  0.432960  0.600150  1
  O  O817  1  0.131300  0.503200  0.395100  1
  O  O818  1  0.868700  0.496800  0.604900  1
  O  O819  1  0.065400  0.484400  0.404900  1
  O  O820  1  0.934600  0.515600  0.595100  1
  O  O821  1  0.087100  0.524390  0.336730  1
  O  O822  1  0.912900  0.475610  0.663270  1
  O  O823  1  0.040070  0.563560  0.263810  1
  O  O824  1  0.959930  0.436440  0.736190  1
  O  O825  1  0.013700  0.604400  0.194400  1
  O  O826  1  0.986300  0.395600  0.805600  1
  O  O827  1  0.966000  0.571100  0.248200  1
  O  O828  1  0.034000  0.428900  0.751800  1
  O  O829  1  0.966400  0.642200  0.258920  1
  O  O830  1  0.033600  0.357800  0.741080  1
  O  O831  1  0.984000  0.738770  0.302300  1
  O  O832  1  0.016000  0.261230  0.697700  1
  O  O833  1  0.022200  0.705400  0.361500  1
  O  O834  1  0.977800  0.294600  0.638500  1
  O  O835  1  0.106500  0.617500  0.363600  1
  O  O836  1  0.893500  0.382500  0.636400  1
  O  O837  1  0.138840  0.581900  0.303200  1
  O  O838  1  0.861160  0.418100  0.696800  1
  O  O839  1  0.093900  0.618800  0.229980  1
  O  O840  1  0.906100  0.381200  0.770020  1
  O  O841  1  0.026100  0.691200  0.229390  1
  O  O842  1  0.973900  0.308800  0.770610  1
  O  O843  1  0.032880  0.277170  0.314570  1
  O  O844  1  0.967120  0.722830  0.685430  1
  O  O845  1  0.091000  0.319000  0.330700  1
  O  O846  1  0.909000  0.681000  0.669300  1
  O  O847  1  0.074000  0.348100  0.397000  1
  O  O848  1  0.926000  0.651900  0.603000  1
  O  O849  1  0.138900  0.266100  0.386400  1
  O  O850  1  0.861100  0.733900  0.613600  1
  O  O851  1  0.053900  0.285200  0.396440  1
  O  O852  1  0.946100  0.714800  0.603560  1
  O  O853  1  0.966300  0.285400  0.398410  1
  O  O854  1  0.033700  0.714600  0.601590  1
  O  O855  1  0.903600  0.266700  0.393700  1
  O  O856  1  0.096400  0.733300  0.606300  1
  O  O857  1  0.883200  0.349100  0.402500  1
  O  O858  1  0.116800  0.650900  0.597500  1
  O  O859  1  0.925000  0.318600  0.335300  1
  O  O860  1  0.075000  0.681400  0.664700  1
  O  O861  1  0.965300  0.360620  0.260900  1
  O  O862  1  0.034700  0.639380  0.739100  1
  O  O863  1  0.008400  0.383000  0.193400  1
  O  O864  1  0.991600  0.617000  0.806600  1
  O  O865  1  0.968200  0.436000  0.249500  1
  O  O866  1  0.031800  0.564000  0.750500  1
  O  O867  1  0.041100  0.361410  0.260300  1
  O  O868  1  0.958900  0.638590  0.739700  1
  O  O869  1  0.140100  0.225400  0.299000  1
  O  O870  1  0.859900  0.774600  0.701000  1
  O  O871  1  0.106800  0.193600  0.361100  1
  O  O872  1  0.893200  0.806400  0.638900  1
  O  O873  1  0.019500  0.193460  0.363800  1
  O  O874  1  0.980500  0.806540  0.636200  1
  O  O875  1  0.983300  0.225600  0.304200  1
  O  O876  1  0.016700  0.774400  0.695800  1
  O  O877  1  0.021500  0.267600  0.229900  1
  O  O878  1  0.978500  0.732400  0.770100  1
  O  O879  1  0.091900  0.269200  0.227200  1
  O  O880  1  0.908100  0.730800  0.772800  1
  O  O881  1  0.341200  0.932490  0.766480  1
  O  O882  1  0.658800  0.067510  0.233520  1
  O  O883  1  0.432400  0.864100  0.718800  1
  O  O884  1  0.567600  0.135900  0.281200  1
  O  O885  1  0.482300  0.892600  0.664800  1
  O  O886  1  0.517700  0.107400  0.335200  1
  O  O887  1  0.501100  0.863300  0.738800  1
  O  O888  1  0.498900  0.136700  0.261200  1
  O  O889  1  0.431000  0.939500  0.722200  1
  O  O890  1  0.569000  0.060500  0.277800  1
  O  O891  1  0.342100  0.025900  0.727300  1
  O  O892  1  0.657900  0.974100  0.272700  1
  O  O893  1  0.265400  0.089800  0.755600  1
  O  O894  1  0.734600  0.910200  0.244400  1
  O  O895  1  0.288200  0.083200  0.677400  1
  O  O896  1  0.711800  0.916800  0.322600  1
  O  O897  1  0.266300  0.025500  0.727620  1
  O  O898  1  0.733700  0.974500  0.272380  1
  O  O899  1  0.268200  0.938600  0.721300  1
  O  O900  1  0.731800  0.061400  0.278700  1
  O  O901  1  0.266600  0.862400  0.736500  1
  O  O902  1  0.733400  0.137600  0.263500  1
  O  O903  1  0.294700  0.892300  0.662600  1
  O  O904  1  0.705300  0.107700  0.337400  1
  O  O905  1  0.345000  0.863700  0.718200  1
  O  O906  1  0.655000  0.136300  0.281800  1
  O  O907  1  0.415200  0.846600  0.812000  1
  O  O908  1  0.584800  0.153400  0.188000  1
  O  O909  1  0.414600  0.916700  0.815300  1
  O  O910  1  0.585400  0.083300  0.184700  1
  O  O911  1  0.327800  0.002000  0.819790  1
  O  O912  1  0.672200  0.998000  0.180210  1
  O  O913  1  0.256800  0.001000  0.819960  1
  O  O914  1  0.743200  0.999000  0.180040  1
  O  O915  1  0.258300  0.915400  0.814610  1
  O  O916  1  0.741700  0.084600  0.185390  1
  O  O917  1  0.329700  0.846500  0.812100  1
  O  O918  1  0.670300  0.153500  0.187900  1
  O  O919  1  0.679650  0.632510  0.311040  1
  O  O920  1  0.320350  0.367490  0.688960  1
  O  O921  1  0.764120  0.643200  0.254500  1
  O  O922  1  0.235880  0.356800  0.745500  1
  O  O923  1  0.787200  0.606800  0.188800  1
  O  O924  1  0.212800  0.393200  0.811200  1
  O  O925  1  0.841000  0.571900  0.245400  1
  O  O926  1  0.159000  0.428100  0.754600  1
  O  O927  1  0.765570  0.565500  0.258300  1
  O  O928  1  0.234430  0.434500  0.741700  1
  O  O929  1  0.722000  0.525600  0.329800  1
  O  O930  1  0.278000  0.474400  0.670200  1
  O  O931  1  0.746900  0.482600  0.399100  1
  O  O932  1  0.253100  0.517400  0.600900  1
  O  O933  1  0.665400  0.505500  0.385400  1
  O  O934  1  0.334600  0.494500  0.614600  1
  O  O935  1  0.684600  0.566900  0.394200  1
  O  O936  1  0.315400  0.433100  0.605800  1
  O  O937  1  0.683400  0.655200  0.393600  1
  O  O938  1  0.316600  0.344800  0.606400  1
  O  O939  1  0.668900  0.738800  0.383600  1
  O  O940  1  0.331100  0.261200  0.616400  1
  O  O941  1  0.747200  0.672700  0.397700  1
  O  O942  1  0.252800  0.327300  0.602300  1
  O  O943  1  0.722400  0.688200  0.328500  1
  O  O944  1  0.277600  0.311800  0.671500  1
  O  O945  1  0.670800  0.692500  0.225100  1
  O  O946  1  0.329200  0.307500  0.774900  1
  O  O947  1  0.674000  0.620700  0.225400  1
  O  O948  1  0.326000  0.379300  0.774600  1
  O  O949  1  0.628000  0.583800  0.298600  1
  O  O950  1  0.372000  0.416200  0.701400  1
  O  O951  1  0.595400  0.619400  0.358000  1
  O  O952  1  0.404600  0.380600  0.642000  1
  O  O953  1  0.593400  0.706600  0.357700  1
  O  O954  1  0.406600  0.293400  0.642300  1
  O  O955  1  0.628300  0.739200  0.297900  1
  O  O956  1  0.371700  0.260800  0.702100  1
  O  O957  1  0.045900  0.447100  0.298100  1
  O  O958  1  0.954100  0.552900  0.701900  1
  O  O959  1  0.315700  0.903200  0.921900  1
  O  O960  1  0.684300  0.096800  0.078100  1
  O  O961  1  0.736500  0.318800  0.182900  1
  O  O962  1  0.263500  0.681200  0.817100  1
  O  O963  1  0.183800  0.099900  0.241100  1
  O  O964  1  0.816200  0.900100  0.758900  1
  O  O965  1  0.386600  0.976000  0.651700  1
  O  O966  1  0.613400  0.024000  0.348300  1
  O  O967  1  0.396900  0.897700  0.724100  1
  O  O968  1  0.603100  0.102300  0.275900  1
  O  O969  1  0.951800  0.840200  0.073700  1
  O  O970  1  0.048200  0.159800  0.926300  1
  O  O971  1  0.863800  0.630900  0.281300  1
  O  O972  1  0.136200  0.369100  0.718700  1
  O  O973  1  0.755800  0.934000  0.219500  1
  O  O974  1  0.244200  0.066000  0.780500  1
  O  O975  1  0.048300  0.439100  0.335700  1
  O  O976  1  0.951700  0.560900  0.664300  1
  O  O977  1  0.838670  0.437800  0.340800  1
  O  O978  1  0.161330  0.562200  0.659200  1
  O  O979  1  0.967700  0.486600  0.156400  1
  O  O980  1  0.032300  0.513400  0.843600  1
  O  O981  1  0.844970  0.442200  0.295500  1
  O  O982  1  0.155030  0.557800  0.704500  1
  O  O983  1  0.731100  0.250100  0.207500  1
  O  O984  1  0.268900  0.749900  0.792500  1
