# generated using pymatgen
data_Fe12H120C190S12N18O157
_symmetry_space_group_name_H-M   'P 1'
_cell_length_a   26.85490000
_cell_length_b   26.85490000
_cell_length_c   27.91500303
_cell_angle_alpha   118.75151484
_cell_angle_beta   118.75151484
_cell_angle_gamma   90.00000000
_symmetry_Int_Tables_number   1
_chemical_formula_structural   Fe12H120C190S12N18O157
_chemical_formula_sum   'Fe24 H240 C380 S24 N36 O314'
_cell_volume   14756.21572598
_cell_formula_units_Z   2
loop_
 _symmetry_equiv_pos_site_id
 _symmetry_equiv_pos_as_xyz
  1  'x, y, z'
loop_
 _atom_site_type_symbol
 _atom_site_label
 _atom_site_symmetry_multiplicity
 _atom_site_fract_x
 _atom_site_fract_y
 _atom_site_fract_z
 _atom_site_occupancy
  C  C1  1  0.503100  0.253100  0.006200  1
  C  C2  1  0.253100  0.503100  0.506200  1
  C  C3  1  0.496900  0.746900  0.993800  1
  C  C4  1  0.746900  0.496900  0.493800  1
  C  C5  1  0.402400  0.275900  0.230600  1
  C  C6  1  0.275900  0.828200  0.730600  1
  C  C7  1  0.454700  0.402400  0.730600  1
  C  C8  1  0.828200  0.454700  0.230600  1
  C  C9  1  0.597600  0.724100  0.769400  1
  C  C10  1  0.724100  0.171800  0.269400  1
  C  C11  1  0.545300  0.597600  0.269400  1
  C  C12  1  0.171800  0.545300  0.769400  1
  C  C13  1  0.371200  0.209200  0.241400  1
  C  C14  1  0.209200  0.870200  0.741400  1
  C  C15  1  0.532200  0.371200  0.741400  1
  C  C16  1  0.870200  0.532200  0.241400  1
  C  C17  1  0.628800  0.790800  0.758600  1
  C  C18  1  0.790800  0.129800  0.258600  1
  C  C19  1  0.467800  0.628800  0.258600  1
  C  C20  1  0.129800  0.467800  0.758600  1
  C  C21  1  0.399700  0.221100  0.307600  1
  C  C22  1  0.221100  0.907900  0.807600  1
  C  C23  1  0.586500  0.399700  0.807600  1
  C  C24  1  0.907900  0.586500  0.307600  1
  C  C25  1  0.600300  0.778900  0.692400  1
  C  C26  1  0.778900  0.092100  0.192400  1
  C  C27  1  0.413500  0.600300  0.192400  1
  C  C28  1  0.092100  0.413500  0.692400  1
  C  C29  1  0.502000  0.211400  0.910000  1.0
  C  C30  1  0.211400  0.408000  0.410000  1.0
  C  C31  1  0.198600  0.502000  0.410000  1.0
  C  C32  1  0.408000  0.198600  0.910000  1.0
  C  C33  1  0.498000  0.788600  0.090000  1.0
  C  C34  1  0.788600  0.592000  0.590000  1.0
  C  C35  1  0.801400  0.498000  0.590000  1.0
  C  C36  1  0.592000  0.801400  0.090000  1.0
  C  C37  1  0.543000  0.258100  0.989800  1.0
  C  C38  1  0.258100  0.446800  0.489800  1.0
  C  C39  1  0.231700  0.543000  0.489800  1.0
  C  C40  1  0.446800  0.231700  0.989800  1.0
  C  C41  1  0.457000  0.741900  0.010200  1.0
  C  C42  1  0.741900  0.553200  0.510200  1.0
  C  C43  1  0.768300  0.457000  0.510200  1.0
  C  C44  1  0.553200  0.768300  0.010200  1.0
  C  C45  1  0.438000  0.431500  0.555000  1.0
  C  C46  1  0.431500  0.117000  0.055000  1.0
  C  C47  1  0.623500  0.438000  0.055000  1.0
  C  C48  1  0.117000  0.623500  0.555000  1.0
  C  C49  1  0.562000  0.568500  0.445000  1.0
  C  C50  1  0.568500  0.883000  0.945000  1.0
  C  C51  1  0.376500  0.562000  0.945000  1.0
  C  C52  1  0.883000  0.376500  0.445000  1.0
  C  C53  1  0.495670  0.452270  0.610340  1.0
  C  C54  1  0.452270  0.114670  0.110340  1.0
  C  C55  1  0.658070  0.495670  0.110340  1.0
  C  C56  1  0.114670  0.658070  0.610340  1.0
  C  C57  1  0.504330  0.547730  0.389660  1.0
  C  C58  1  0.547730  0.885330  0.889660  1.0
  C  C59  1  0.341930  0.504330  0.889660  1.0
  C  C60  1  0.885330  0.341930  0.389660  1.0
  C  C61  1  0.537040  0.504740  0.637280  1.0
  C  C62  1  0.504740  0.100240  0.137280  1.0
  C  C63  1  0.632540  0.537040  0.137280  1.0
  C  C64  1  0.100240  0.632540  0.637280  1.0
  C  C65  1  0.462960  0.495260  0.362720  1.0
  C  C66  1  0.495260  0.899760  0.862720  1.0
  C  C67  1  0.367460  0.462960  0.862720  1.0
  C  C68  1  0.899760  0.367460  0.362720  1.0
  C  C69  1  0.519810  0.536210  0.606820  1.0
  C  C70  1  0.536210  0.087010  0.106820  1.0
  C  C71  1  0.570610  0.519810  0.106820  1.0
  C  C72  1  0.087010  0.570610  0.606820  1.0
  C  C73  1  0.480190  0.463790  0.393180  1.0
  C  C74  1  0.463790  0.912990  0.893180  1.0
  C  C75  1  0.429390  0.480190  0.893180  1.0
  C  C76  1  0.912990  0.429390  0.393180  1.0
  C  C77  1  0.462230  0.517430  0.551860  1.0
  C  C78  1  0.517430  0.089630  0.051860  1.0
  C  C79  1  0.534430  0.462230  0.051860  1.0
  C  C80  1  0.089630  0.534430  0.551860  1.0
  C  C81  1  0.537770  0.482570  0.448140  1.0
  C  C82  1  0.482570  0.910370  0.948140  1.0
  C  C83  1  0.465570  0.537770  0.948140  1.0
  C  C84  1  0.910370  0.465570  0.448140  1.0
  C  C85  1  0.422510  0.464510  0.527220  1.0
  C  C86  1  0.464510  0.104710  0.027220  1.0
  C  C87  1  0.562710  0.422510  0.027220  1.0
  C  C88  1  0.104710  0.562710  0.527220  1.0
  C  C89  1  0.577490  0.535490  0.472780  1.0
  C  C90  1  0.535490  0.895290  0.972780  1.0
  C  C91  1  0.437290  0.577490  0.972780  1.0
  C  C92  1  0.895290  0.437290  0.472780  1.0
  C  C93  1  0.391820  0.379720  0.531840  1.0
  C  C94  1  0.379720  0.140020  0.031840  1.0
  C  C95  1  0.652120  0.391820  0.031840  1.0
  C  C96  1  0.140020  0.652120  0.531840  1.0
  C  C97  1  0.608180  0.620280  0.468160  1.0
  C  C98  1  0.620280  0.859980  0.968160  1.0
  C  C99  1  0.347880  0.608180  0.968160  1.0
  C  C100  1  0.859980  0.347880  0.468160  1.0
  C  C101  1  0.392600  0.365900  0.572800  1.0
  C  C102  1  0.365900  0.180200  0.072800  1.0
  C  C103  1  0.706900  0.392600  0.072800  1.0
  C  C104  1  0.180200  0.706900  0.572800  1.0
  C  C105  1  0.607400  0.634100  0.427200  1.0
  C  C106  1  0.634100  0.819800  0.927200  1.0
  C  C107  1  0.293100  0.607400  0.927200  1.0
  C  C108  1  0.819800  0.293100  0.427200  1.0
  C  C109  1  0.347900  0.320500  0.551200  1.0
  C  C110  1  0.320500  0.203300  0.051200  1.0
  C  C111  1  0.730700  0.347900  0.051200  1.0
  C  C112  1  0.203300  0.730700  0.551200  1.0
  C  C113  1  0.652100  0.679500  0.448800  1.0
  C  C114  1  0.679500  0.796700  0.948800  1.0
  C  C115  1  0.269300  0.652100  0.948800  1.0
  C  C116  1  0.796700  0.269300  0.448800  1.0
  C  C117  1  0.299100  0.289700  0.488200  1.0
  C  C118  1  0.289700  0.189100  0.988200  1.0
  C  C119  1  0.698500  0.299100  0.988200  1.0
  C  C120  1  0.189100  0.698500  0.488200  1.0
  C  C121  1  0.700900  0.710300  0.511800  1.0
  C  C122  1  0.710300  0.810900  0.011800  1.0
  C  C123  1  0.301500  0.700900  0.011800  1.0
  C  C124  1  0.810900  0.301500  0.511800  1.0
  C  C125  1  0.300360  0.300860  0.445520  1.0
  C  C126  1  0.300860  0.145160  0.945520  1.0
  C  C127  1  0.644660  0.300360  0.945520  1.0
  C  C128  1  0.145160  0.644660  0.445520  1.0
  C  C129  1  0.699640  0.699140  0.554480  1.0
  C  C130  1  0.699140  0.854840  0.054480  1.0
  C  C131  1  0.355340  0.699640  0.054480  1.0
  C  C132  1  0.854840  0.355340  0.554480  1.0
  C  C133  1  0.345700  0.345100  0.466600  1.0
  C  C134  1  0.345100  0.120900  0.966600  1.0
  C  C135  1  0.621500  0.345700  0.966600  1.0
  C  C136  1  0.120900  0.621500  0.466600  1.0
  C  C137  1  0.654300  0.654900  0.533400  1.0
  C  C138  1  0.654900  0.879100  0.033400  1.0
  C  C139  1  0.378500  0.654300  0.033400  1.0
  C  C140  1  0.879100  0.378500  0.533400  1.0
  C  C141  1  0.248050  0.244550  0.467300  1.0
  C  C142  1  0.244550  0.219250  0.967300  1.0
  C  C143  1  0.722750  0.248050  0.967300  1.0
  C  C144  1  0.219250  0.722750  0.467300  1.0
  C  C145  1  0.751950  0.755450  0.532700  1.0
  C  C146  1  0.755450  0.780750  0.032700  1.0
  C  C147  1  0.277250  0.751950  0.032700  1.0
  C  C148  1  0.780750  0.277250  0.532700  1.0
  C  C149  1  0.595640  0.528640  0.700680  1.0
  C  C150  1  0.528640  0.105040  0.200680  1.0
  C  C151  1  0.672040  0.595640  0.200680  1.0
  C  C152  1  0.105040  0.672040  0.700680  1.0
  C  C153  1  0.404360  0.471360  0.299320  1.0
  C  C154  1  0.471360  0.894960  0.799320  1.0
  C  C155  1  0.327960  0.404360  0.799320  1.0
  C  C156  1  0.894960  0.327960  0.299320  1.0
  C  C157  1  0.621400  0.492500  0.720400  1.0
  C  C158  1  0.492500  0.099000  0.220400  1.0
  C  C159  1  0.727900  0.621400  0.220400  1.0
  C  C160  1  0.099000  0.727900  0.720400  1.0
  C  C161  1  0.378600  0.507500  0.279600  1.0
  C  C162  1  0.507500  0.901000  0.779600  1.0
  C  C163  1  0.272100  0.378600  0.779600  1.0
  C  C164  1  0.901000  0.272100  0.279600  1.0
  C  C165  1  0.671500  0.516300  0.782200  1.0
  C  C166  1  0.516300  0.110700  0.282200  1.0
  C  C167  1  0.765900  0.671500  0.282200  1.0
  C  C168  1  0.110700  0.765900  0.782200  1.0
  C  C169  1  0.328500  0.483700  0.217800  1.0
  C  C170  1  0.483700  0.889300  0.717800  1.0
  C  C171  1  0.234100  0.328500  0.717800  1.0
  C  C172  1  0.889300  0.234100  0.217800  1.0
  C  C173  1  0.698650  0.576250  0.825100  1.0
  C  C174  1  0.576250  0.126450  0.325100  1.0
  C  C175  1  0.748850  0.698650  0.325100  1.0
  C  C176  1  0.126450  0.748850  0.825100  1.0
  C  C177  1  0.301350  0.423750  0.174900  1.0
  C  C178  1  0.423750  0.873550  0.674900  1.0
  C  C179  1  0.251150  0.301350  0.674900  1.0
  C  C180  1  0.873550  0.251150  0.174900  1.0
  C  C181  1  0.675350  0.612550  0.803500  1.0
  C  C182  1  0.612550  0.128150  0.303500  1.0
  C  C183  1  0.690950  0.675350  0.303500  1.0
  C  C184  1  0.128150  0.690950  0.803500  1.0
  C  C185  1  0.324650  0.387450  0.196500  1.0
  C  C186  1  0.387450  0.871850  0.696500  1.0
  C  C187  1  0.309050  0.324650  0.696500  1.0
  C  C188  1  0.871850  0.309050  0.196500  1.0
  C  C189  1  0.623550  0.589550  0.743100  1.0
  C  C190  1  0.589550  0.119550  0.243100  1.0
  C  C191  1  0.653550  0.623550  0.243100  1.0
  C  C192  1  0.119550  0.653550  0.743100  1.0
  C  C193  1  0.376450  0.410450  0.256900  1.0
  C  C194  1  0.410450  0.880450  0.756900  1.0
  C  C195  1  0.346450  0.376450  0.756900  1.0
  C  C196  1  0.880450  0.346450  0.256900  1.0
  C  C197  1  0.210270  0.249970  0.605940  1.0
  C  C198  1  0.249970  0.395670  0.105940  1.0
  C  C199  1  0.855970  0.210270  0.105940  1.0
  C  C200  1  0.395670  0.855970  0.605940  1.0
  C  C201  1  0.789730  0.750030  0.394060  1.0
  C  C202  1  0.750030  0.604330  0.894060  1.0
  C  C203  1  0.144030  0.789730  0.894060  1.0
  C  C204  1  0.604330  0.144030  0.394060  1.0
  C  C205  1  0.441110  0.554170  0.523660  1.0
  C  C206  1  0.554170  0.082550  0.023660  1.0
  C  C207  1  0.469490  0.441110  0.023660  1.0
  C  C208  1  0.082550  0.469490  0.523660  1.0
  C  C209  1  0.558890  0.445830  0.476340  1.0
  C  C210  1  0.445830  0.917450  0.976340  1.0
  C  C211  1  0.530510  0.558890  0.976340  1.0
  C  C212  1  0.917450  0.530510  0.476340  1.0
  C  C213  1  0.481120  0.598270  0.535880  1.0
  C  C214  1  0.598270  0.054760  0.035880  1.0
  C  C215  1  0.437610  0.481120  0.035880  1.0
  C  C216  1  0.054760  0.437610  0.535880  1.0
  C  C217  1  0.518880  0.401730  0.464120  1.0
  C  C218  1  0.401730  0.945240  0.964120  1.0
  C  C219  1  0.562390  0.518880  0.964120  1.0
  C  C220  1  0.945240  0.562390  0.464120  1.0
  C  C221  1  0.460460  0.635470  0.514160  1.0
  C  C222  1  0.635470  0.053700  0.014160  1.0
  C  C223  1  0.378690  0.460460  0.014160  1.0
  C  C224  1  0.053700  0.378690  0.514160  1.0
  C  C225  1  0.539540  0.364530  0.485840  1.0
  C  C226  1  0.364530  0.946300  0.985840  1.0
  C  C227  1  0.621310  0.539540  0.985840  1.0
  C  C228  1  0.946300  0.621310  0.485840  1.0
  C  C229  1  0.399810  0.628590  0.480260  1.0
  C  C230  1  0.628590  0.080450  0.980260  1.0
  C  C231  1  0.351670  0.399810  0.980260  1.0
  C  C232  1  0.080450  0.351670  0.480260  1.0
  C  C233  1  0.600190  0.371410  0.519740  1.0
  C  C234  1  0.371410  0.919550  0.019740  1.0
  C  C235  1  0.648330  0.600190  0.019740  1.0
  C  C236  1  0.919550  0.648330  0.519740  1.0
  C  C237  1  0.359800  0.584490  0.468040  1.0
  C  C238  1  0.584490  0.108240  0.968040  1.0
  C  C239  1  0.383550  0.359800  0.968040  1.0
  C  C240  1  0.108240  0.383550  0.468040  1.0
  C  C241  1  0.640200  0.415510  0.531960  1.0
  C  C242  1  0.415510  0.891760  0.031960  1.0
  C  C243  1  0.616450  0.640200  0.031960  1.0
  C  C244  1  0.891760  0.616450  0.531960  1.0
  C  C245  1  0.380470  0.547280  0.489740  1.0
  C  C246  1  0.547280  0.109270  0.989740  1.0
  C  C247  1  0.442460  0.380470  0.989740  1.0
  C  C248  1  0.109270  0.442460  0.489740  1.0
  C  C249  1  0.619530  0.452720  0.510260  1.0
  C  C250  1  0.452720  0.890730  0.010260  1.0
  C  C251  1  0.557540  0.619530  0.010260  1.0
  C  C252  1  0.890730  0.557540  0.510260  1.0
  C  C253  1  0.084670  0.289170  0.460540  1.0
  C  C254  1  0.289170  0.375870  0.960540  1.0
  C  C255  1  0.671370  0.084670  0.960540  1.0
  C  C256  1  0.375870  0.671370  0.460540  1.0
  C  C257  1  0.915330  0.710830  0.539460  1.0
  C  C258  1  0.710830  0.624130  0.039460  1.0
  C  C259  1  0.328630  0.915330  0.039460  1.0
  C  C260  1  0.624130  0.328630  0.539460  1.0
  C  C261  1  0.131250  0.199550  0.283300  1.0
  C  C262  1  0.199550  0.152050  0.783300  1.0
  C  C263  1  0.583750  0.131250  0.783300  1.0
  C  C264  1  0.152050  0.583750  0.283300  1.0
  C  C265  1  0.868750  0.800450  0.716700  1.0
  C  C266  1  0.800450  0.847950  0.216700  1.0
  C  C267  1  0.416250  0.868750  0.216700  1.0
  C  C268  1  0.847950  0.416250  0.716700  1.0
  C  C269  1  0.120400  0.209700  0.235800  1.0
  C  C270  1  0.209700  0.115400  0.735800  1.0
  C  C271  1  0.526100  0.120400  0.735800  1.0
  C  C272  1  0.115400  0.526100  0.235800  1.0
  C  C273  1  0.879600  0.790300  0.764200  1.0
  C  C274  1  0.790300  0.884600  0.264200  1.0
  C  C275  1  0.473900  0.879600  0.264200  1.0
  C  C276  1  0.884600  0.473900  0.764200  1.0
  C  C277  1  0.070200  0.222600  0.207000  1.0
  C  C278  1  0.222600  0.136800  0.707000  1.0
  C  C279  1  0.484400  0.070200  0.707000  1.0
  C  C280  1  0.136800  0.484400  0.207000  1.0
  C  C281  1  0.929800  0.777400  0.793000  1.0
  C  C282  1  0.777400  0.863200  0.293000  1.0
  C  C283  1  0.515600  0.929800  0.293000  1.0
  C  C284  1  0.863200  0.515600  0.793000  1.0
  C  C285  1  0.030400  0.224800  0.225600  1.0
  C  C286  1  0.224800  0.195200  0.725600  1.0
  C  C287  1  0.500800  0.030400  0.725600  1.0
  C  C288  1  0.195200  0.500800  0.225600  1.0
  C  C289  1  0.969600  0.775200  0.774400  1.0
  C  C290  1  0.775200  0.804800  0.274400  1.0
  C  C291  1  0.499200  0.969600  0.274400  1.0
  C  C292  1  0.804800  0.499200  0.774400  1.0
  C  C293  1  0.045000  0.217400  0.275800  1.0
  C  C294  1  0.217400  0.230800  0.775800  1.0
  C  C295  1  0.558400  0.045000  0.775800  1.0
  C  C296  1  0.230800  0.558400  0.275800  1.0
  C  C297  1  0.955000  0.782600  0.724200  1.0
  C  C298  1  0.782600  0.769200  0.224200  1.0
  C  C299  1  0.441600  0.955000  0.224200  1.0
  C  C300  1  0.769200  0.441600  0.724200  1.0
  C  C301  1  0.982200  0.226800  0.502200  1.0
  C  C302  1  0.226800  0.520000  0.002200  1.0
  C  C303  1  0.775400  0.982200  0.002200  1.0
  C  C304  1  0.520000  0.775400  0.502200  1.0
  C  C305  1  0.017800  0.773200  0.497800  1.0
  C  C306  1  0.773200  0.480000  0.997800  1.0
  C  C307  1  0.224600  0.017800  0.997800  1.0
  C  C308  1  0.480000  0.224600  0.497800  1.0
  C  C309  1  0.948800  0.242500  0.529800  1.0
  C  C310  1  0.242500  0.581000  0.029800  1.0
  C  C311  1  0.787300  0.948800  0.029800  1.0
  C  C312  1  0.581000  0.787300  0.529800  1.0
  C  C313  1  0.051200  0.757500  0.470200  1.0
  C  C314  1  0.757500  0.419000  0.970200  1.0
  C  C315  1  0.212700  0.051200  0.970200  1.0
  C  C316  1  0.419000  0.212700  0.470200  1.0
  C  C317  1  0.967500  0.247500  0.585000  1.0
  C  C318  1  0.247500  0.617500  0.085000  1.0
  C  C319  1  0.837500  0.967500  0.085000  1.0
  C  C320  1  0.617500  0.837500  0.585000  1.0
  C  C321  1  0.032500  0.752500  0.415000  1.0
  C  C322  1  0.752500  0.382500  0.915000  1.0
  C  C323  1  0.162500  0.032500  0.915000  1.0
  C  C324  1  0.382500  0.162500  0.415000  1.0
  C  C325  1  0.021300  0.235700  0.615600  1.0
  C  C326  1  0.235700  0.594300  0.115600  1.0
  C  C327  1  0.879900  0.021300  0.115600  1.0
  C  C328  1  0.594300  0.879900  0.615600  1.0
  C  C329  1  0.978700  0.764300  0.384400  1.0
  C  C330  1  0.764300  0.405700  0.884400  1.0
  C  C331  1  0.120100  0.978700  0.884400  1.0
  C  C332  1  0.405700  0.120100  0.384400  1.0
  C  C333  1  0.052900  0.218500  0.585600  1.0
  C  C334  1  0.218500  0.532700  0.085600  1.0
  C  C335  1  0.867100  0.052900  0.085600  1.0
  C  C336  1  0.532700  0.867100  0.585600  1.0
  C  C337  1  0.947100  0.781500  0.414400  1.0
  C  C338  1  0.781500  0.467300  0.914400  1.0
  C  C339  1  0.132900  0.947100  0.914400  1.0
  C  C340  1  0.467300  0.132900  0.414400  1.0
  C  C341  1  0.299100  0.118000  0.569800  1.0
  C  C342  1  0.118000  0.270700  0.069800  1.0
  C  C343  1  0.951800  0.299100  0.069800  1.0
  C  C344  1  0.270700  0.951800  0.569800  1.0
  C  C345  1  0.700900  0.882000  0.430200  1.0
  C  C346  1  0.882000  0.729300  0.930200  1.0
  C  C347  1  0.048200  0.700900  0.930200  1.0
  C  C348  1  0.729300  0.048200  0.430200  1.0
  C  C349  1  0.347200  0.094900  0.590200  1.0
  C  C350  1  0.094900  0.243000  0.090200  1.0
  C  C351  1  0.995300  0.347200  0.090200  1.0
  C  C352  1  0.243000  0.995300  0.590200  1.0
  C  C353  1  0.652800  0.905100  0.409800  1.0
  C  C354  1  0.905100  0.757000  0.909800  1.0
  C  C355  1  0.004700  0.652800  0.909800  1.0
  C  C356  1  0.757000  0.004700  0.409800  1.0
  C  C357  1  0.384000  0.091100  0.568400  1.0
  C  C358  1  0.091100  0.184400  0.068400  1.0
  C  C359  1  0.977300  0.384000  0.068400  1.0
  C  C360  1  0.184400  0.977300  0.568400  1.0
  C  C361  1  0.616000  0.908900  0.431600  1.0
  C  C362  1  0.908900  0.815600  0.931600  1.0
  C  C363  1  0.022700  0.616000  0.931600  1.0
  C  C364  1  0.815600  0.022700  0.431600  1.0
  C  C365  1  0.374200  0.112800  0.531000  1.0
  C  C366  1  0.112800  0.156800  0.031000  1.0
  C  C367  1  0.918200  0.374200  0.031000  1.0
  C  C368  1  0.156800  0.918200  0.531000  1.0
  C  C369  1  0.625800  0.887200  0.469000  1.0
  C  C370  1  0.887200  0.843200  0.969000  1.0
  C  C371  1  0.081800  0.625800  0.969000  1.0
  C  C372  1  0.843200  0.081800  0.469000  1.0
  C  C373  1  0.324300  0.131300  0.510000  1.0
  C  C374  1  0.131300  0.185700  0.010000  1.0
  C  C375  1  0.878700  0.324300  0.010000  1.0
  C  C376  1  0.185700  0.878700  0.510000  1.0
  C  C377  1  0.675700  0.868700  0.490000  1.0
  C  C378  1  0.868700  0.814300  0.990000  1.0
  C  C379  1  0.121300  0.675700  0.990000  1.0
  C  C380  1  0.814300  0.121300  0.490000  1.0
  Fe  Fe381  1  0.113790  0.186860  0.378460  1.0
  Fe  Fe382  1  0.186860  0.264670  0.878460  1.0
  Fe  Fe383  1  0.691600  0.113790  0.878460  1.0
  Fe  Fe384  1  0.264670  0.691600  0.378460  1.0
  Fe  Fe385  1  0.886210  0.813140  0.621540  1.0
  Fe  Fe386  1  0.813140  0.735330  0.121540  1.0
  Fe  Fe387  1  0.308400  0.886210  0.121540  1.0
  Fe  Fe388  1  0.735330  0.308400  0.621540  1.0
  Fe  Fe389  1  0.085310  0.190920  0.484180  1.0
  Fe  Fe390  1  0.190920  0.398870  0.984180  1.0
  Fe  Fe391  1  0.793260  0.085310  0.984180  1.0
  Fe  Fe392  1  0.398870  0.793260  0.484180  1.0
  Fe  Fe393  1  0.914690  0.809080  0.515820  1.0
  Fe  Fe394  1  0.809080  0.601130  0.015820  1.0
  Fe  Fe395  1  0.206740  0.914690  0.015820  1.0
  Fe  Fe396  1  0.601130  0.206740  0.515820  1.0
  Fe  Fe397  1  0.205050  0.155850  0.486100  1.0
  Fe  Fe398  1  0.155850  0.281050  0.986100  1.0
  Fe  Fe399  1  0.830250  0.205050  0.986100  1.0
  Fe  Fe400  1  0.281050  0.830250  0.486100  1.0
  Fe  Fe401  1  0.794950  0.844150  0.513900  1.0
  Fe  Fe402  1  0.844150  0.718950  0.013900  1.0
  Fe  Fe403  1  0.169750  0.794950  0.013900  1.0
  Fe  Fe404  1  0.718950  0.169750  0.513900  1.0
  H  H405  1  0.506800  0.430600  0.629600  1.0
  H  H406  1  0.430600  0.122800  0.129600  1.0
  H  H407  1  0.699000  0.506800  0.129600  1.0
  H  H408  1  0.122800  0.699000  0.629600  1.0
  H  H409  1  0.493200  0.569400  0.370400  1.0
  H  H410  1  0.569400  0.877200  0.870400  1.0
  H  H411  1  0.301000  0.493200  0.870400  1.0
  H  H412  1  0.877200  0.301000  0.370400  1.0
  H  H413  1  0.547200  0.570500  0.623400  1.0
  H  H414  1  0.570500  0.076200  0.123400  1.0
  H  H415  1  0.552900  0.547200  0.123400  1.0
  H  H416  1  0.076200  0.552900  0.623400  1.0
  H  H417  1  0.452800  0.429500  0.376600  1.0
  H  H418  1  0.429500  0.923800  0.876600  1.0
  H  H419  1  0.447100  0.452800  0.876600  1.0
  H  H420  1  0.923800  0.447100  0.376600  1.0
  H  H421  1  0.384200  0.451300  0.490800  1.0
  H  H422  1  0.451300  0.106600  0.990800  1.0
  H  H423  1  0.539500  0.384200  0.990800  1.0
  H  H424  1  0.106600  0.539500  0.490800  1.0
  H  H425  1  0.615800  0.548700  0.509200  1.0
  H  H426  1  0.548700  0.893400  0.009200  1.0
  H  H427  1  0.460500  0.615800  0.009200  1.0
  H  H428  1  0.893400  0.460500  0.509200  1.0
  H  H429  1  0.424100  0.387400  0.616400  1.0
  H  H430  1  0.387400  0.192300  0.116400  1.0
  H  H431  1  0.729000  0.424100  0.116400  1.0
  H  H432  1  0.192300  0.729000  0.616400  1.0
  H  H433  1  0.575900  0.612600  0.383600  1.0
  H  H434  1  0.612600  0.807700  0.883600  1.0
  H  H435  1  0.271000  0.575900  0.883600  1.0
  H  H436  1  0.807700  0.271000  0.383600  1.0
  H  H437  1  0.350700  0.310500  0.579800  1.0
  H  H438  1  0.310500  0.229100  0.079800  1.0
  H  H439  1  0.769300  0.350700  0.079800  1.0
  H  H440  1  0.229100  0.769300  0.579800  1.0
  H  H441  1  0.649300  0.689500  0.420200  1.0
  H  H442  1  0.689500  0.770900  0.920200  1.0
  H  H443  1  0.230700  0.649300  0.920200  1.0
  H  H444  1  0.770900  0.230700  0.420200  1.0
  H  H445  1  0.269700  0.278000  0.401400  1.0
  H  H446  1  0.278000  0.131700  0.901400  1.0
  H  H447  1  0.623400  0.269700  0.901400  1.0
  H  H448  1  0.131700  0.623400  0.401400  1.0
  H  H449  1  0.730300  0.722000  0.598600  1.0
  H  H450  1  0.722000  0.868300  0.098600  1.0
  H  H451  1  0.376600  0.730300  0.098600  1.0
  H  H452  1  0.868300  0.376600  0.598600  1.0
  H  H453  1  0.345500  0.351800  0.436800  1.0
  H  H454  1  0.351800  0.091300  0.936800  1.0
  H  H455  1  0.585000  0.345500  0.936800  1.0
  H  H456  1  0.091300  0.585000  0.436800  1.0
  H  H457  1  0.654500  0.648200  0.563200  1.0
  H  H458  1  0.648200  0.908700  0.063200  1.0
  H  H459  1  0.415000  0.654500  0.063200  1.0
  H  H460  1  0.908700  0.415000  0.563200  1.0
  H  H461  1  0.604900  0.451400  0.691800  1.0
  H  H462  1  0.451400  0.086900  0.191800  1.0
  H  H463  1  0.740400  0.604900  0.191800  1.0
  H  H464  1  0.086900  0.740400  0.691800  1.0
  H  H465  1  0.395100  0.548600  0.308200  1.0
  H  H466  1  0.548600  0.913100  0.808200  1.0
  H  H467  1  0.259600  0.395100  0.808200  1.0
  H  H468  1  0.913100  0.259600  0.308200  1.0
  H  H469  1  0.687200  0.490800  0.795000  1.0
  H  H470  1  0.490800  0.107800  0.295000  1.0
  H  H471  1  0.804200  0.687200  0.295000  1.0
  H  H472  1  0.107800  0.804200  0.795000  1.0
  H  H473  1  0.312800  0.509200  0.205000  1.0
  H  H474  1  0.509200  0.892200  0.705000  1.0
  H  H475  1  0.195800  0.312800  0.705000  1.0
  H  H476  1  0.892200  0.195800  0.205000  1.0
  H  H477  1  0.694900  0.653200  0.830200  1.0
  H  H478  1  0.653200  0.135300  0.330200  1.0
  H  H479  1  0.677000  0.694900  0.330200  1.0
  H  H480  1  0.135300  0.677000  0.830200  1.0
  H  H481  1  0.305100  0.346800  0.169800  1.0
  H  H482  1  0.346800  0.864700  0.669800  1.0
  H  H483  1  0.323000  0.305100  0.669800  1.0
  H  H484  1  0.864700  0.323000  0.169800  1.0
  H  H485  1  0.607300  0.615100  0.730800  1.0
  H  H486  1  0.615100  0.123500  0.230800  1.0
  H  H487  1  0.615700  0.607300  0.230800  1.0
  H  H488  1  0.123500  0.615700  0.730800  1.0
  H  H489  1  0.392700  0.384900  0.269200  1.0
  H  H490  1  0.384900  0.876500  0.769200  1.0
  H  H491  1  0.384300  0.392700  0.769200  1.0
  H  H492  1  0.876500  0.384300  0.269200  1.0
  H  H493  1  0.521700  0.602900  0.558600  1.0
  H  H494  1  0.602900  0.036900  0.058600  1.0
  H  H495  1  0.455700  0.521700  0.058600  1.0
  H  H496  1  0.036900  0.455700  0.558600  1.0
  H  H497  1  0.478300  0.397100  0.441400  1.0
  H  H498  1  0.397100  0.963100  0.941400  1.0
  H  H499  1  0.544300  0.478300  0.941400  1.0
  H  H500  1  0.963100  0.544300  0.441400  1.0
  H  H501  1  0.487300  0.665000  0.522400  1.0
  H  H502  1  0.665000  0.035100  0.022400  1.0
  H  H503  1  0.357400  0.487300  0.022400  1.0
  H  H504  1  0.035100  0.357400  0.522400  1.0
  H  H505  1  0.512700  0.335000  0.477600  1.0
  H  H506  1  0.335000  0.964900  0.977600  1.0
  H  H507  1  0.642600  0.512700  0.977600  1.0
  H  H508  1  0.964900  0.642600  0.477600  1.0
  H  H509  1  0.319200  0.579900  0.445400  1.0
  H  H510  1  0.579900  0.126200  0.945400  1.0
  H  H511  1  0.365500  0.319200  0.945400  1.0
  H  H512  1  0.126200  0.365500  0.445400  1.0
  H  H513  1  0.680800  0.420100  0.554600  1.0
  H  H514  1  0.420100  0.873800  0.054600  1.0
  H  H515  1  0.634500  0.680800  0.054600  1.0
  H  H516  1  0.873800  0.634500  0.554600  1.0
  H  H517  1  0.353700  0.517800  0.481600  1.0
  H  H518  1  0.517800  0.127900  0.981600  1.0
  H  H519  1  0.463800  0.353700  0.981600  1.0
  H  H520  1  0.127900  0.463800  0.481600  1.0
  H  H521  1  0.646300  0.482200  0.518400  1.0
  H  H522  1  0.482200  0.872100  0.018400  1.0
  H  H523  1  0.536200  0.646300  0.018400  1.0
  H  H524  1  0.872100  0.536200  0.518400  1.0
  H  H525  1  0.165700  0.189900  0.302400  1.0
  H  H526  1  0.189900  0.136700  0.802400  1.0
  H  H527  1  0.612500  0.165700  0.802400  1.0
  H  H528  1  0.136700  0.612500  0.302400  1.0
  H  H529  1  0.834300  0.810100  0.697600  1.0
  H  H530  1  0.810100  0.863300  0.197600  1.0
  H  H531  1  0.387500  0.834300  0.197600  1.0
  H  H532  1  0.863300  0.387500  0.697600  1.0
  H  H533  1  0.147500  0.207700  0.223800  1.0
  H  H534  1  0.207700  0.076300  0.723800  1.0
  H  H535  1  0.516100  0.147500  0.723800  1.0
  H  H536  1  0.076300  0.516100  0.223800  1.0
  H  H537  1  0.852500  0.792300  0.776200  1.0
  H  H538  1  0.792300  0.923700  0.276200  1.0
  H  H539  1  0.483900  0.852500  0.276200  1.0
  H  H540  1  0.923700  0.483900  0.776200  1.0
  H  H541  1  0.062200  0.229900  0.175000  1.0
  H  H542  1  0.229900  0.112800  0.675000  1.0
  H  H543  1  0.445100  0.062200  0.675000  1.0
  H  H544  1  0.112800  0.445100  0.175000  1.0
  H  H545  1  0.937800  0.770100  0.825000  1.0
  H  H546  1  0.770100  0.887200  0.325000  1.0
  H  H547  1  0.554900  0.937800  0.325000  1.0
  H  H548  1  0.887200  0.554900  0.825000  1.0
  H  H549  1  0.994400  0.231300  0.204600  1.0
  H  H550  1  0.231300  0.210200  0.704600  1.0
  H  H551  1  0.473300  0.994400  0.704600  1.0
  H  H552  1  0.210200  0.473300  0.204600  1.0
  H  H553  1  0.005600  0.768700  0.795400  1.0
  H  H554  1  0.768700  0.789800  0.295400  1.0
  H  H555  1  0.526700  0.005600  0.295400  1.0
  H  H556  1  0.789800  0.526700  0.795400  1.0
  H  H557  1  0.020100  0.222400  0.291000  1.0
  H  H558  1  0.222400  0.270900  0.791000  1.0
  H  H559  1  0.568600  0.020100  0.791000  1.0
  H  H560  1  0.270900  0.568600  0.291000  1.0
  H  H561  1  0.979900  0.777600  0.709000  1.0
  H  H562  1  0.777600  0.729100  0.209000  1.0
  H  H563  1  0.431400  0.979900  0.209000  1.0
  H  H564  1  0.729100  0.431400  0.709000  1.0
  H  H565  1  0.969400  0.225700  0.464200  1.0
  H  H566  1  0.225700  0.494800  0.964200  1.0
  H  H567  1  0.738500  0.969400  0.964200  1.0
  H  H568  1  0.494800  0.738500  0.464200  1.0
  H  H569  1  0.030600  0.774300  0.535800  1.0
  H  H570  1  0.774300  0.505200  0.035800  1.0
  H  H571  1  0.261500  0.030600  0.035800  1.0
  H  H572  1  0.505200  0.261500  0.535800  1.0
  H  H573  1  0.913000  0.249400  0.508800  1.0
  H  H574  1  0.249400  0.595800  0.008800  1.0
  H  H575  1  0.759400  0.913000  0.008800  1.0
  H  H576  1  0.595800  0.759400  0.508800  1.0
  H  H577  1  0.087000  0.750600  0.491200  1.0
  H  H578  1  0.750600  0.404200  0.991200  1.0
  H  H579  1  0.240600  0.087000  0.991200  1.0
  H  H580  1  0.404200  0.240600  0.491200  1.0
  H  H581  1  0.945600  0.258700  0.604000  1.0
  H  H582  1  0.258700  0.658400  0.104000  1.0
  H  H583  1  0.845300  0.945600  0.104000  1.0
  H  H584  1  0.658400  0.845300  0.604000  1.0
  H  H585  1  0.054400  0.741300  0.396000  1.0
  H  H586  1  0.741300  0.341600  0.896000  1.0
  H  H587  1  0.154700  0.054400  0.896000  1.0
  H  H588  1  0.341600  0.154700  0.396000  1.0
  H  H589  1  0.035400  0.239200  0.655000  1.0
  H  H590  1  0.239200  0.619600  0.155000  1.0
  H  H591  1  0.915800  0.035400  0.155000  1.0
  H  H592  1  0.619600  0.915800  0.655000  1.0
  H  H593  1  0.964600  0.760800  0.345000  1.0
  H  H594  1  0.760800  0.380400  0.845000  1.0
  H  H595  1  0.084200  0.964600  0.845000  1.0
  H  H596  1  0.380400  0.084200  0.345000  1.0
  H  H597  1  0.088300  0.210600  0.605200  1.0
  H  H598  1  0.210600  0.516900  0.105200  1.0
  H  H599  1  0.894600  0.088300  0.105200  1.0
  H  H600  1  0.516900  0.894600  0.605200  1.0
  H  H601  1  0.911700  0.789400  0.394800  1.0
  H  H602  1  0.789400  0.483100  0.894800  1.0
  H  H603  1  0.105400  0.911700  0.894800  1.0
  H  H604  1  0.483100  0.105400  0.394800  1.0
  H  H605  1  0.274900  0.121700  0.585800  1.0
  H  H606  1  0.121700  0.310900  0.085800  1.0
  H  H607  1  0.964100  0.274900  0.085800  1.0
  H  H608  1  0.310900  0.964100  0.585800  1.0
  H  H609  1  0.725100  0.878300  0.414200  1.0
  H  H610  1  0.878300  0.689100  0.914200  1.0
  H  H611  1  0.035900  0.725100  0.914200  1.0
  H  H612  1  0.689100  0.035900  0.414200  1.0
  H  H613  1  0.353700  0.082600  0.618200  1.0
  H  H614  1  0.082600  0.264500  0.118200  1.0
  H  H615  1  0.035600  0.353700  0.118200  1.0
  H  H616  1  0.264500  0.035600  0.618200  1.0
  H  H617  1  0.646300  0.917400  0.381800  1.0
  H  H618  1  0.917400  0.735500  0.881800  1.0
  H  H619  1  0.964400  0.646300  0.881800  1.0
  H  H620  1  0.735500  0.964400  0.381800  1.0
  H  H621  1  0.414700  0.074300  0.579200  1.0
  H  H622  1  0.074300  0.164500  0.079200  1.0
  H  H623  1  0.004900  0.414700  0.079200  1.0
  H  H624  1  0.164500  0.004900  0.579200  1.0
  H  H625  1  0.585300  0.925700  0.420800  1.0
  H  H626  1  0.925700  0.835500  0.920800  1.0
  H  H627  1  0.995100  0.585300  0.920800  1.0
  H  H628  1  0.835500  0.995100  0.420800  1.0
  H  H629  1  0.400900  0.115200  0.519400  1.0
  H  H630  1  0.115200  0.118500  0.019400  1.0
  H  H631  1  0.904200  0.400900  0.019400  1.0
  H  H632  1  0.118500  0.904200  0.519400  1.0
  H  H633  1  0.599100  0.884800  0.480600  1.0
  H  H634  1  0.884800  0.881500  0.980600  1.0
  H  H635  1  0.095800  0.599100  0.980600  1.0
  H  H636  1  0.881500  0.095800  0.480600  1.0
  H  H637  1  0.316200  0.142400  0.480800  1.0
  H  H638  1  0.142400  0.164600  0.980800  1.0
  H  H639  1  0.838400  0.316200  0.980800  1.0
  H  H640  1  0.164600  0.838400  0.480800  1.0
  H  H641  1  0.683800  0.857600  0.519200  1.0
  H  H642  1  0.857600  0.835400  0.019200  1.0
  H  H643  1  0.161600  0.683800  0.019200  1.0
  H  H644  1  0.835400  0.161600  0.519200  1.0
  N  N645  1  0.447800  0.197800  0.895600  1
  N  N646  1  0.197800  0.447800  0.395600  1
  N  N647  1  0.552200  0.802200  0.104400  1
  N  N648  1  0.802200  0.552200  0.604400  1
  N  N649  1  0.412900  0.286400  0.281400  1
  N  N650  1  0.286400  0.868500  0.781400  1
  N  N651  1  0.495000  0.412900  0.781400  1
  N  N652  1  0.868500  0.495000  0.281400  1
  N  N653  1  0.587100  0.713600  0.718600  1
  N  N654  1  0.713600  0.131500  0.218600  1
  N  N655  1  0.505000  0.587100  0.218600  1
  N  N656  1  0.131500  0.505000  0.718600  1
  N  N657  1  0.093950  0.203150  0.303100  1.0
  N  N658  1  0.203150  0.209150  0.803100  1.0
  N  N659  1  0.599950  0.093950  0.803100  1.0
  N  N660  1  0.209150  0.599950  0.303100  1.0
  N  N661  1  0.906050  0.796850  0.696900  1.0
  N  N662  1  0.796850  0.790850  0.196900  1.0
  N  N663  1  0.400050  0.906050  0.196900  1.0
  N  N664  1  0.790850  0.400050  0.696900  1.0
  N  N665  1  0.032600  0.213100  0.528800  1.0
  N  N666  1  0.213100  0.496200  0.028800  1.0
  N  N667  1  0.815700  0.032600  0.028800  1.0
  N  N668  1  0.496200  0.815700  0.528800  1.0
  N  N669  1  0.967400  0.786900  0.471200  1.0
  N  N670  1  0.786900  0.503800  0.971200  1.0
  N  N671  1  0.184300  0.967400  0.971200  1.0
  N  N672  1  0.503800  0.184300  0.471200  1.0
  N  N673  1  0.287640  0.134040  0.529680  1.0
  N  N674  1  0.134040  0.242040  0.029680  1.0
  N  N675  1  0.895640  0.287640  0.029680  1.0
  N  N676  1  0.242040  0.895640  0.529680  1.0
  N  N677  1  0.712360  0.865960  0.470320  1.0
  N  N678  1  0.865960  0.757960  0.970320  1.0
  N  N679  1  0.104360  0.712360  0.970320  1.0
  N  N680  1  0.757960  0.104360  0.470320  1.0
  O  O681  1  0.926500  0.176500  0.853000  1
  O  O682  1  0.176500  0.926500  0.353000  1
  O  O683  1  0.073500  0.823500  0.147000  1
  O  O684  1  0.823500  0.073500  0.647000  1
  O  O685  1  0.721600  0.188300  0.680600  1
  O  O686  1  0.188300  0.959000  0.180600  1
  O  O687  1  0.992300  0.721600  0.180600  1
  O  O688  1  0.959000  0.992300  0.680600  1
  O  O689  1  0.278400  0.811700  0.319400  1
  O  O690  1  0.811700  0.041000  0.819400  1
  O  O691  1  0.007700  0.278400  0.819400  1
  O  O692  1  0.041000  0.007700  0.319400  1
  O  O693  1  0.792100  0.273600  0.785600  1
  O  O694  1  0.273600  0.993500  0.285600  1
  O  O695  1  0.012000  0.792100  0.285600  1
  O  O696  1  0.993500  0.012000  0.785600  1
  O  O697  1  0.207900  0.726400  0.214400  1
  O  O698  1  0.726400  0.006500  0.714400  1
  O  O699  1  0.988000  0.207900  0.714400  1
  O  O700  1  0.006500  0.988000  0.214400  1
  O  O701  1  0.449800  0.975500  0.397400  1
  O  O702  1  0.975500  0.947600  0.897400  1
  O  O703  1  0.921900  0.449800  0.897400  1
  O  O704  1  0.947600  0.921900  0.397400  1
  O  O705  1  0.550200  0.024500  0.602600  1
  O  O706  1  0.024500  0.052400  0.102600  1
  O  O707  1  0.078100  0.550200  0.102600  1
  O  O708  1  0.052400  0.078100  0.602600  1
  O  O709  1  0.305800  0.174700  0.168800  1
  O  O710  1  0.174700  0.863000  0.668800  1
  O  O711  1  0.494100  0.305800  0.668800  1
  O  O712  1  0.863000  0.494100  0.168800  1
  O  O713  1  0.694200  0.825300  0.831200  1
  O  O714  1  0.825300  0.137000  0.331200  1
  O  O715  1  0.505900  0.694200  0.331200  1
  O  O716  1  0.137000  0.505900  0.831200  1
  O  O717  1  0.875000  0.125000  0.750000  1
  O  O718  1  0.125000  0.875000  0.250000  1
  O  O719  1  0.363700  0.113700  0.727400  1
  O  O720  1  0.113700  0.363700  0.227400  1
  O  O721  1  0.636300  0.886300  0.272600  1
  O  O722  1  0.886300  0.636300  0.772600  1
  O  O723  1  0.621900  0.237100  0.760400  1
  O  O724  1  0.237100  0.138500  0.260400  1
  O  O725  1  0.023300  0.621900  0.260400  1
  O  O726  1  0.138500  0.023300  0.760400  1
  O  O727  1  0.378100  0.762900  0.239600  1
  O  O728  1  0.762900  0.861500  0.739600  1
  O  O729  1  0.976700  0.378100  0.739600  1
  O  O730  1  0.861500  0.976700  0.239600  1
  O  O731  1  0.537100  0.140100  0.594600  1
  O  O732  1  0.140100  0.057500  0.094600  1
  O  O733  1  0.954500  0.537100  0.094600  1
  O  O734  1  0.057500  0.954500  0.594600  1
  O  O735  1  0.462900  0.859900  0.405400  1
  O  O736  1  0.859900  0.942500  0.905400  1
  O  O737  1  0.045500  0.462900  0.905400  1
  O  O738  1  0.942500  0.045500  0.405400  1
  O  O739  1  0.416000  0.707000  0.662000  1
  O  O740  1  0.707000  0.246000  0.162000  1
  O  O741  1  0.455000  0.416000  0.162000  1
  O  O742  1  0.246000  0.455000  0.662000  1
  O  O743  1  0.584000  0.293000  0.338000  1
  O  O744  1  0.293000  0.754000  0.838000  1
  O  O745  1  0.545000  0.584000  0.838000  1
  O  O746  1  0.754000  0.545000  0.338000  1
  O  O747  1  0.272100  0.415100  0.312200  1
  O  O748  1  0.415100  0.040100  0.812200  1
  O  O749  1  0.397100  0.272100  0.812200  1
  O  O750  1  0.040100  0.397100  0.312200  1
  O  O751  1  0.727900  0.584900  0.687800  1
  O  O752  1  0.584900  0.959900  0.187800  1
  O  O753  1  0.602900  0.727900  0.187800  1
  O  O754  1  0.959900  0.602900  0.687800  1
  O  O755  1  0.359000  0.359800  0.352200  1
  O  O756  1  0.359800  0.993200  0.852200  1
  O  O757  1  0.492400  0.359000  0.852200  1
  O  O758  1  0.993200  0.492400  0.352200  1
  O  O759  1  0.641000  0.640200  0.647800  1
  O  O760  1  0.640200  0.006800  0.147800  1
  O  O761  1  0.507600  0.641000  0.147800  1
  O  O762  1  0.006800  0.507600  0.647800  1
  O  O763  1  0.937900  0.237300  0.900000  1
  O  O764  1  0.237300  0.962100  0.400000  1
  O  O765  1  0.162700  0.937900  0.400000  1
  O  O766  1  0.962100  0.162700  0.900000  1
  O  O767  1  0.062100  0.762700  0.100000  1
  O  O768  1  0.762700  0.037900  0.600000  1
  O  O769  1  0.837300  0.062100  0.600000  1
  O  O770  1  0.037900  0.837300  0.100000  1
  O  O771  1  0.780400  0.212100  0.737400  1
  O  O772  1  0.212100  0.957000  0.237400  1
  O  O773  1  0.025300  0.780400  0.237400  1
  O  O774  1  0.957000  0.025300  0.737400  1
  O  O775  1  0.219600  0.787900  0.262600  1
  O  O776  1  0.787900  0.043000  0.762600  1
  O  O777  1  0.974700  0.219600  0.762600  1
  O  O778  1  0.043000  0.974700  0.262600  1
  O  O779  1  0.694900  0.215100  0.725200  1
  O  O780  1  0.215100  0.030300  0.225200  1
  O  O781  1  0.010100  0.694900  0.225200  1
  O  O782  1  0.030300  0.010100  0.725200  1
  O  O783  1  0.305100  0.784900  0.274800  1
  O  O784  1  0.784900  0.969700  0.774800  1
  O  O785  1  0.989900  0.305100  0.774800  1
  O  O786  1  0.969700  0.989900  0.274800  1
  O  O787  1  0.634300  0.152800  0.673800  1
  O  O788  1  0.152800  0.039500  0.173800  1
  O  O789  1  0.021000  0.634300  0.173800  1
  O  O790  1  0.039500  0.021000  0.673800  1
  O  O791  1  0.365700  0.847200  0.326200  1
  O  O792  1  0.847200  0.960500  0.826200  1
  O  O793  1  0.979000  0.365700  0.826200  1
  O  O794  1  0.960500  0.979000  0.326200  1
  O  O795  1  0.468700  0.946300  0.433600  1
  O  O796  1  0.946300  0.964900  0.933600  1
  O  O797  1  0.987300  0.468700  0.933600  1
  O  O798  1  0.964900  0.987300  0.433600  1
  O  O799  1  0.531300  0.053700  0.566400  1
  O  O800  1  0.053700  0.035100  0.066400  1
  O  O801  1  0.012700  0.531300  0.066400  1
  O  O802  1  0.035100  0.012700  0.566400  1
  O  O803  1  0.475600  0.020000  0.477000  1
  O  O804  1  0.020000  0.001400  0.977000  1
  O  O805  1  0.957000  0.475600  0.977000  1
  O  O806  1  0.001400  0.957000  0.477000  1
  O  O807  1  0.524400  0.980000  0.523000  1
  O  O808  1  0.980000  0.998600  0.023000  1
  O  O809  1  0.043000  0.524400  0.023000  1
  O  O810  1  0.998600  0.043000  0.523000  1
  O  O811  1  0.356700  0.706600  0.604800  1
  O  O812  1  0.706600  0.248100  0.104800  1
  O  O813  1  0.398200  0.356700  0.104800  1
  O  O814  1  0.248100  0.398200  0.604800  1
  O  O815  1  0.643300  0.293400  0.395200  1
  O  O816  1  0.293400  0.751900  0.895200  1
  O  O817  1  0.601800  0.643300  0.895200  1
  O  O818  1  0.751900  0.601800  0.395200  1
  O  O819  1  0.317500  0.389200  0.335800  1
  O  O820  1  0.389200  0.018300  0.835800  1
  O  O821  1  0.446600  0.317500  0.835800  1
  O  O822  1  0.018300  0.446600  0.335800  1
  O  O823  1  0.682500  0.610800  0.664200  1
  O  O824  1  0.610800  0.981700  0.164200  1
  O  O825  1  0.553400  0.682500  0.164200  1
  O  O826  1  0.981700  0.553400  0.664200  1
  O  O827  1  0.250700  0.355400  0.272200  1
  O  O828  1  0.355400  0.021500  0.772200  1
  O  O829  1  0.416800  0.250700  0.772200  1
  O  O830  1  0.021500  0.416800  0.272200  1
  O  O831  1  0.749300  0.644600  0.727800  1
  O  O832  1  0.644600  0.978500  0.227800  1
  O  O833  1  0.583200  0.749300  0.227800  1
  O  O834  1  0.978500  0.583200  0.727800  1
  O  O835  1  0.740000  0.234900  0.741200  1
  O  O836  1  0.234900  0.001200  0.241200  1
  O  O837  1  0.006300  0.740000  0.241200  1
  O  O838  1  0.001200  0.006300  0.741200  1
  O  O839  1  0.260000  0.765100  0.258800  1
  O  O840  1  0.765100  0.998800  0.758800  1
  O  O841  1  0.993700  0.260000  0.758800  1
  O  O842  1  0.998800  0.993700  0.258800  1
  O  O843  1  0.134230  0.176890  0.449160  1.0
  O  O844  1  0.176890  0.314930  0.949160  1.0
  O  O845  1  0.772270  0.134230  0.949160  1.0
  O  O846  1  0.314930  0.772270  0.449160  1.0
  O  O847  1  0.865770  0.823110  0.550840  1.0
  O  O848  1  0.823110  0.685070  0.050840  1.0
  O  O849  1  0.227730  0.865770  0.050840  1.0
  O  O850  1  0.685070  0.227730  0.550840  1.0
  O  O851  1  0.196800  0.094270  0.402740  1.0
  O  O852  1  0.094270  0.205940  0.902740  1.0
  O  O853  1  0.808470  0.196800  0.902740  1.0
  O  O854  1  0.205940  0.808470  0.402740  1.0
  O  O855  1  0.803200  0.905730  0.597260  1.0
  O  O856  1  0.905730  0.794060  0.097260  1.0
  O  O857  1  0.191530  0.803200  0.097260  1.0
  O  O858  1  0.794060  0.191530  0.597260  1.0
  O  O859  1  0.126930  0.112620  0.324240  1.0
  O  O860  1  0.112620  0.197310  0.824240  1.0
  O  O861  1  0.711620  0.126930  0.824240  1.0
  O  O862  1  0.197310  0.711620  0.324240  1.0
  O  O863  1  0.873070  0.887380  0.675760  1.0
  O  O864  1  0.887380  0.802690  0.175760  1.0
  O  O865  1  0.288380  0.873070  0.175760  1.0
  O  O866  1  0.802690  0.288380  0.675760  1.0
  O  O867  1  0.153280  0.022180  0.290560  1.0
  O  O868  1  0.022180  0.137280  0.790560  1.0
  O  O869  1  0.768380  0.153280  0.790560  1.0
  O  O870  1  0.137280  0.768380  0.290560  1.0
  O  O871  1  0.846720  0.977820  0.709440  1.0
  O  O872  1  0.977820  0.862720  0.209440  1.0
  O  O873  1  0.231620  0.846720  0.209440  1.0
  O  O874  1  0.862720  0.231620  0.709440  1.0
  O  O875  1  0.224720  0.113580  0.342160  1.0
  O  O876  1  0.113580  0.117440  0.842160  1.0
  O  O877  1  0.728580  0.224720  0.842160  1.0
  O  O878  1  0.117440  0.728580  0.342160  1.0
  O  O879  1  0.775280  0.886420  0.657840  1.0
  O  O880  1  0.886420  0.882560  0.157840  1.0
  O  O881  1  0.271420  0.775280  0.157840  1.0
  O  O882  1  0.882560  0.271420  0.657840  1.0
  O  O883  1  0.027800  0.142390  0.323480  1.0
  O  O884  1  0.142390  0.295680  0.823480  1.0
  O  O885  1  0.681090  0.027800  0.823480  1.0
  O  O886  1  0.295680  0.681090  0.323480  1.0
  O  O887  1  0.972200  0.857610  0.676520  1.0
  O  O888  1  0.857610  0.704320  0.176520  1.0
  O  O889  1  0.318910  0.972200  0.176520  1.0
  O  O890  1  0.704320  0.318910  0.676520  1.0
  O  O891  1  0.007780  0.144320  0.399140  1.0
  O  O892  1  0.144320  0.391360  0.899140  1.0
  O  O893  1  0.754820  0.007780  0.899140  1.0
  O  O894  1  0.391360  0.754820  0.399140  1.0
  O  O895  1  0.992220  0.855680  0.600860  1.0
  O  O896  1  0.855680  0.608640  0.100860  1.0
  O  O897  1  0.245180  0.992220  0.100860  1.0
  O  O898  1  0.608640  0.245180  0.600860  1.0
  O  O899  1  0.957460  0.191070  0.341220  1.0
  O  O900  1  0.191070  0.383760  0.841220  1.0
  O  O901  1  0.650150  0.957460  0.841220  1.0
  O  O902  1  0.383760  0.650150  0.341220  1.0
  O  O903  1  0.042540  0.808930  0.658780  1.0
  O  O904  1  0.808930  0.616240  0.158780  1.0
  O  O905  1  0.349850  0.042540  0.158780  1.0
  O  O906  1  0.616240  0.349850  0.658780  1.0
  O  O907  1  0.935030  0.083870  0.284340  1.0
  O  O908  1  0.083870  0.349310  0.784340  1.0
  O  O909  1  0.700470  0.935030  0.784340  1.0
  O  O910  1  0.349310  0.700470  0.284340  1.0
  O  O911  1  0.064970  0.916130  0.715660  1.0
  O  O912  1  0.916130  0.650690  0.215660  1.0
  O  O913  1  0.299530  0.064970  0.215660  1.0
  O  O914  1  0.650690  0.299530  0.715660  1.0
  O  O915  1  0.085720  0.121060  0.491660  1.0
  O  O916  1  0.121060  0.405940  0.991660  1.0
  O  O917  1  0.870600  0.085720  0.991660  1.0
  O  O918  1  0.405940  0.870600  0.491660  1.0
  O  O919  1  0.914280  0.878940  0.508340  1.0
  O  O920  1  0.878940  0.594060  0.008340  1.0
  O  O921  1  0.129400  0.914280  0.008340  1.0
  O  O922  1  0.594060  0.129400  0.508340  1.0
  O  O923  1  0.166460  0.090300  0.482160  1.0
  O  O924  1  0.090300  0.315700  0.982160  1.0
  O  O925  1  0.891860  0.166460  0.982160  1.0
  O  O926  1  0.315700  0.891860  0.482160  1.0
  O  O927  1  0.833540  0.909700  0.517840  1.0
  O  O928  1  0.909700  0.684300  0.017840  1.0
  O  O929  1  0.108140  0.833540  0.017840  1.0
  O  O930  1  0.684300  0.108140  0.517840  1.0
  O  O931  1  0.092980  0.024370  0.467560  1.0
  O  O932  1  0.024370  0.374580  0.967560  1.0
  O  O933  1  0.943190  0.092980  0.967560  1.0
  O  O934  1  0.374580  0.943190  0.467560  1.0
  O  O935  1  0.907020  0.975630  0.532440  1.0
  O  O936  1  0.975630  0.625420  0.032440  1.0
  O  O937  1  0.056810  0.907020  0.032440  1.0
  O  O938  1  0.625420  0.056810  0.532440  1.0
  O  O939  1  0.162930  0.111330  0.573460  1.0
  O  O940  1  0.111330  0.410530  0.073460  1.0
  O  O941  1  0.962130  0.162930  0.073460  1.0
  O  O942  1  0.410530  0.962130  0.573460  1.0
  O  O943  1  0.837070  0.888670  0.426540  1.0
  O  O944  1  0.888670  0.589470  0.926540  1.0
  O  O945  1  0.037870  0.837070  0.926540  1.0
  O  O946  1  0.589470  0.037870  0.426540  1.0
  O  O947  1  0.197890  0.234720  0.420160  1.0
  O  O948  1  0.234720  0.222270  0.920160  1.0
  O  O949  1  0.685440  0.197890  0.920160  1.0
  O  O950  1  0.222270  0.685440  0.420160  1.0
  O  O951  1  0.802110  0.765280  0.579840  1.0
  O  O952  1  0.765280  0.777730  0.079840  1.0
  O  O953  1  0.314560  0.802110  0.079840  1.0
  O  O954  1  0.777730  0.314560  0.579840  1.0
  O  O955  1  0.258540  0.219960  0.498380  1.0
  O  O956  1  0.219960  0.239840  0.998380  1.0
  O  O957  1  0.778420  0.258540  0.998380  1.0
  O  O958  1  0.239840  0.778420  0.498380  1.0
  O  O959  1  0.741460  0.780040  0.501620  1.0
  O  O960  1  0.780040  0.760160  0.001620  1.0
  O  O961  1  0.221580  0.741460  0.001620  1.0
  O  O962  1  0.760160  0.221580  0.501620  1.0
  O  O963  1  0.155530  0.245000  0.579220  1.0
  O  O964  1  0.245000  0.423690  0.079220  1.0
  O  O965  1  0.834220  0.155530  0.079220  1.0
  O  O966  1  0.423690  0.834220  0.579220  1.0
  O  O967  1  0.844470  0.755000  0.420780  1.0
  O  O968  1  0.755000  0.576310  0.920780  1.0
  O  O969  1  0.165780  0.844470  0.920780  1.0
  O  O970  1  0.576310  0.165780  0.420780  1.0
  O  O971  1  0.233280  0.215790  0.579760  1.0
  O  O972  1  0.215790  0.346480  0.079760  1.0
  O  O973  1  0.863970  0.233280  0.079760  1.0
  O  O974  1  0.346480  0.863970  0.579760  1.0
  O  O975  1  0.766720  0.784210  0.420240  1.0
  O  O976  1  0.784210  0.653520  0.920240  1.0
  O  O977  1  0.136030  0.766720  0.920240  1.0
  O  O978  1  0.653520  0.136030  0.420240  1.0
  O  O979  1  0.076590  0.267570  0.488120  1.0
  O  O980  1  0.267570  0.411530  0.988120  1.0
  O  O981  1  0.720550  0.076590  0.988120  1.0
  O  O982  1  0.411530  0.720550  0.488120  1.0
  O  O983  1  0.923410  0.732430  0.511880  1.0
  O  O984  1  0.732430  0.588470  0.011880  1.0
  O  O985  1  0.279450  0.923410  0.011880  1.0
  O  O986  1  0.588470  0.279450  0.511880  1.0
  O  O987  1  0.098820  0.264990  0.419600  1.0
  O  O988  1  0.264990  0.320780  0.919600  1.0
  O  O989  1  0.654610  0.098820  0.919600  1.0
  O  O990  1  0.320780  0.654610  0.419600  1.0
  O  O991  1  0.901180  0.735010  0.580400  1.0
  O  O992  1  0.735010  0.679220  0.080400  1.0
  O  O993  1  0.345390  0.901180  0.080400  1.0
  O  O994  1  0.679220  0.345390  0.580400  1.0
  S  S995  1  0.176570  0.085440  0.339180  1.0
  S  S996  1  0.085440  0.162610  0.839180  1.0
  S  S997  1  0.753740  0.176570  0.839180  1.0
  S  S998  1  0.162610  0.753740  0.339180  1.0
  S  S999  1  0.823430  0.914560  0.660820  1.0
  S  S1000  1  0.914560  0.837390  0.160820  1.0
  S  S1001  1  0.246260  0.823430  0.160820  1.0
  S  S1002  1  0.837390  0.246260  0.660820  1.0
  S  S1003  1  0.979910  0.140930  0.335880  1.0
  S  S1004  1  0.140930  0.355970  0.835880  1.0
  S  S1005  1  0.694950  0.979910  0.835880  1.0
  S  S1006  1  0.355970  0.694950  0.335880  1.0
  S  S1007  1  0.020090  0.859070  0.664120  1.0
  S  S1008  1  0.859070  0.644030  0.164120  1.0
  S  S1009  1  0.305050  0.020090  0.164120  1.0
  S  S1010  1  0.644030  0.305050  0.664120  1.0
  S  S1011  1  0.127140  0.085850  0.504760  1.0
  S  S1012  1  0.085850  0.377620  0.004760  1.0
  S  S1013  1  0.918910  0.127140  0.004760  1.0
  S  S1014  1  0.377620  0.918910  0.504760  1.0
  S  S1015  1  0.872860  0.914150  0.495240  1.0
  S  S1016  1  0.914150  0.622380  0.995240  1.0
  S  S1017  1  0.081090  0.872860  0.995240  1.0
  S  S1018  1  0.622380  0.081090  0.495240  1.0
