
#######################################################################
#
#                 Cambridge Crystallographic Data Centre
#                                CCDC 
#
#######################################################################
#
# If this CIF has been generated from an entry in the Cambridge 
# Structural Database, then it will include bibliographic, chemical, 
# crystal, experimental, refinement or atomic coordinate data resulting 
# from the CCDC's data processing and validation procedures.
#
#######################################################################

data_JANZII
_chemical_name_common            IRMOP-52
_chemical_formula_moiety         
'C168 H132 Fe12 N12 O76 S12 8-,8(C2 H8 N1 1+),x(C5 H5 N1),x(H2 O1)'
_chemical_name_systematic        
"octakis(Dimethylammonium) hexakis(\m~4~-tetrahydropyrene-2,7-dicarboxylato-O,O',O'',O''')-tetrakis(\m~3~-oxo)-dodecakis(\m~2~-sulfato-O,O')-dodecakis(pyridine-N)-dodeca-iron pyridine unknown clathrate hydrate"
_symmetry_cell_setting           monoclinic
_symmetry_space_group_name_H-M   'C 2/c'
_symmetry_Int_Tables_number      15
_space_group_name_Hall           '-C 2yn'
loop_
_symmetry_equiv_pos_site_id
_symmetry_equiv_pos_as_xyz
1 x,y,z
2 1/2+x,1/2+y,z
3 -x,y,1/2-z
4 1/2-x,1/2+y,1/2-z
5 -x,-y,-z
6 1/2-x,1/2-y,-z
7 x,-y,1/2+z
8 1/2+x,1/2-y,1/2+z
_cell_length_a                   43.730(4)
_cell_length_b                   22.671(2)
_cell_length_c                   41.328(4)
_cell_angle_alpha                90
_cell_angle_beta                 120.182(2)
_cell_angle_gamma                90
_cell_volume                     35418.1
_exptl_crystal_colour            orange
_exptl_crystal_description       block
_cell_formula_units_Z            4
loop_
_atom_site_label
_atom_site_type_symbol
_atom_site_fract_x
_atom_site_fract_y
_atom_site_fract_z
N7 N 0.5095(18) 0.360(2) 0.525(3)
C85 C 0.5023(11) 0.314(4) 0.5001(10)
C86 C 0.526(3) 0.267(2) 0.510(2)
C87 C 0.5571(19) 0.267(2) 0.545(3)
C88 C 0.5642(10) 0.314(4) 0.5694(11)
C89 C 0.540(2) 0.361(2) 0.559(2)
N8 N 0.4028(9) 0.635(4) 0.2384(16)
C90 C 0.3959(11) 0.6041(11) 0.206(3)
C91 C 0.3897(10) 0.635(4) 0.1744(15)
C92 C 0.3904(10) 0.696(4) 0.1748(17)
C93 C 0.3973(11) 0.7267(11) 0.207(3)
C94 C 0.4034(9) 0.696(4) 0.2388(16)
N9 N 0.298(2) 0.432(2) 0.138(2)
C95 C 0.334(3) 0.4220(16) 0.1578(9)
C96 C 0.3556(8) 0.446(3) 0.145(2)
C97 C 0.341(2) 0.480(2) 0.113(3)
C98 C 0.3049(3) 0.4892(16) 0.0928(10)
C99 C 0.2830(8) 0.465(3) 0.105(2)
N10 N 0.5222(8) -0.3428(18) 0.159(3)
C100 C 0.508(2) -0.3445(18) 0.1829(9)
C101 C 0.475(2) -0.320(3) 0.171(2)
C102 C 0.4561(8) -0.294(2) 0.136(3)
C103 C 0.470(2) -0.2923(18) 0.1127(10)
C104 C 0.503(2) -0.317(3) 0.124(2)
N11 N 0.3340(9) 0.250(5) 0.0631(9)
C105 C 0.3421(17) 0.193(3) 0.077(2)
C106 C 0.367(2) 0.183(2) 0.114(3)
C107 C 0.3833(9) 0.231(5) 0.1380(9)
C108 C 0.3752(17) 0.288(3) 0.124(2)
C109 C 0.351(2) 0.2977(19) 0.087(3)
N12 N 0.2352(9) -0.1558(14) -0.0517(10)
C110 C 0.2589(11) -0.2069(18) -0.0338(11)
C111 C 0.2076(11) -0.1636(17) -0.0949(13)
N13 N 0.3683(9) -0.0827(14) -0.1149(10)
C112 C 0.3374(11) -0.0593(18) -0.1527(12)
C113 C 0.3697(11) -0.1262(18) -0.1482(12)
O39 O 0.4467(14) 0.306(2) 0.3112(15)
O40 O 0.1713(12) -0.1624(19) 0.0372(13)
O42 O 0.4120(14) 0.113(2) -0.0444(15)
O44 O 0.4208(14) 0.033(2) -0.0382(14)
O45 O 0.4134(13) 0.759(2) 0.3482(14)
O46 O 0.3654(14) -0.360(2) 0.0219(14)
O47 O 0.3176(13) 0.524(2) 0.3831(13)
Fe1 Fe 0.31483(6) -0.10914(10) 0.07947(6)
Fe2 Fe 0.36398(6) -0.10901(11) 0.03855(7)
Fe3 Fe 0.30632(6) -0.00197(10) 0.02064(6)
Fe4 Fe 0.34677(6) 0.46332(10) 0.29200(7)
Fe5 Fe 0.35547(6) 0.36131(10) 0.35465(6)
Fe6 Fe 0.41851(7) 0.46060(11) 0.37636(7)
O1 O 0.3273(2) -0.0741(4) 0.0449(3)
O2 O 0.3733(3) 0.4293(4) 0.3414(3)
S1 S 0.33886(14) -0.2299(2) 0.05888(15)
S2 S 0.31247(15) -0.0627(3) -0.04565(15)
S3 S 0.23856(13) -0.0601(2) 0.01822(15)
S4 S 0.38475(18) 0.5829(3) 0.33547(19)
S5 S 0.39721(17) 0.4172(3) 0.43640(16)
S6 S 0.28051(15) 0.4230(3) 0.30033(17)
O3 O 0.3130(3) -0.1928(5) 0.0645(3)
O4 O 0.3503(3) -0.1931(5) 0.0367(3)
O5 O 0.3691(3) -0.2459(5) 0.0943(3)
O6 O 0.3205(3) -0.2798(5) 0.0367(4)
O7 O 0.3356(3) -0.1066(5) -0.0170(3)
O8 O 0.3013(4) -0.0182(5) -0.0281(3)
O9 O 0.3296(6) -0.0372(9) -0.0632(7)
O10 O 0.2810(4) -0.0911(7) -0.0732(4)
O11 O 0.2577(3) -0.0284(5) 0.0020(3)
O12 O 0.2636(3) -0.1046(5) 0.0453(3)
O13 O 0.2286(4) -0.0178(6) 0.0383(4)
O14 O 0.2081(3) -0.0901(6) -0.0124(4)
O15 O 0.3548(3) 0.5457(5) 0.3076(3)
O16 O 0.4056(3) 0.5445(5) 0.3692(3)
O17 O 0.4079(5) 0.6003(7) 0.3196(5)
O18 O 0.3718(5) 0.6323(7) 0.3461(4)
O19 O 0.4131(3) 0.4593(6) 0.4213(3)
O20 O 0.3658(3) 0.3887(5) 0.4037(3)
O21 O 0.4227(4) 0.3706(8) 0.4581(4)
O22 O 0.3849(4) 0.4487(8) 0.4578(4)
O23 O 0.3072(3) 0.3921(5) 0.3356(3)
O24 O 0.3013(3) 0.4666(5) 0.2904(3)
O25 O 0.2622(4) 0.3810(6) 0.2700(4)
O26 O 0.2571(4) 0.4569(7) 0.3080(4)
O27 O 0.3080(4) 0.0364(5) 0.0648(4)
O28 O 0.3143(3) -0.0328(5) 0.1050(3)
O29 O 0.3409(3) 0.3175(5) 0.3066(3)
O30 O 0.3346(3) 0.3861(5) 0.2640(3)
O31 O 0.3651(3) -0.1183(5) 0.1203(3)
O32 O 0.3997(3) -0.1177(6) 0.0941(4)
O33 O 0.3897(3) -0.0320(6) 0.0419(3)
O34 O 0.3526(4) 0.0397(5) 0.0367(4)
O35 O 0.3881(3) 0.4673(5) 0.2824(3)
O36 O 0.4352(3) 0.4653(5) 0.3386(3)
O37 O 0.4421(3) 0.3797(6) 0.3901(3)
O38 O 0.3982(4) 0.3127(8) 0.3752(5)
C1 C 0.3168(9) 0.0521(9) 0.1545(8)
H1 H 0.3194 0.0126 0.1614
C2 C 0.3104(5) 0.0651(9) 0.1204(6)
C3 C 0.3021(9) 0.1198(12) 0.1106(6)
H2 H 0.2904 0.1278 0.0851
C4 C 0.308(2) 0.2281(13) 0.1270(11)
H3 H 0.3307 0.2370 0.1289
H4 H 0.2904 0.2330 0.1008
C5 C 0.3025(12) 0.2700(10) 0.1452(8)
H5 H 0.2774 0.2786 0.1321
H6 H 0.3146 0.3053 0.1443
C6 C 0.3164(7) 0.3019(10) 0.2108(6)
H7 H 0.3105 0.3406 0.2024
C7 C 0.3273(5) 0.2865(8) 0.2468(5)
C8 C 0.3287(7) 0.2287(11) 0.2570(6)
H8 H 0.3323 0.2189 0.2805
C9 C 0.3224(16) 0.1241(18) 0.2400(10)
H9 H 0.3448 0.1131 0.2617
H10 H 0.3045 0.1202 0.2472
C10 C 0.315(2) 0.0839(16) 0.2140(14)
H11 H 0.2907 0.0728 0.2042
H12 H 0.3293 0.0495 0.2270
C11 C 0.3198(11) 0.0929(10) 0.1800(8)
C12 C 0.3148(7) 0.1536(10) 0.1695(6)
C13 C 0.3089(11) 0.1683(11) 0.1346(7)
C14 C 0.3146(8) 0.2565(11) 0.1871(6)
C15 C 0.3192(7) 0.1986(9) 0.1981(7)
C16 C 0.3248(10) 0.1877(12) 0.2334(8)
C17 C 0.3088(6) 0.0189(10) 0.0933(6)
C18 C 0.3340(5) 0.3334(9) 0.2747(6)
C19 C 0.3958(6) -0.1218(8) 0.1213(7)
C20 C 0.4267(6) -0.1290(8) 0.1600(5)
C21 C 0.4230(5) -0.1307(12) 0.1897(6)
H13 H 0.4004 -0.1301 0.1866
C22 C 0.4511(6) -0.1333(13) 0.2241(6)
C23 C 0.4842(5) -0.1363(9) 0.2297(6)
C24 C 0.4880(5) -0.1379(13) 0.1995(6)
C25 C 0.4594(6) -0.1335(10) 0.1656(6)
H14 H 0.4623 -0.1335 0.1449
C26 C 0.4477(8) -0.126(2) 0.2642(9)
H15 H 0.4389 -0.0867 0.2641
H16 H 0.4300 -0.1537 0.2623
C27 C 0.5247(8) -0.134(3) 0.2047(8)
H17 H 0.5283 -0.1699 0.1945
H18 H 0.5239 -0.1020 0.1886
C28 C 0.3812(6) 0.0209(11) 0.0421(5)
C29 C 0.4084(5) 0.0658(10) 0.0498(6)
C30 C 0.4008(6) 0.1249(10) 0.0463(7)
H19 H 0.3774 0.1369 0.0365
C31 C 0.4266(7) 0.1663(11) 0.0569(8)
C32 C 0.4614(6) 0.1510(9) 0.0675(7)
C33 C 0.4698(7) 0.0906(10) 0.0701(6)
C34 C 0.4416(7) 0.0495(9) 0.0616(6)
H20 H 0.4469 0.0094 0.0646
C35 C 0.5096(6) 0.0781(12) 0.0844(10)
H21 H 0.5207 0.0697 0.1110
H22 H 0.5107 0.0420 0.0724
C36 C 0.4169(6) 0.2352(12) 0.0525(13)
H23 H 0.4047 0.2451 0.0261
H24 H 0.4006 0.2420 0.0616
C37 C 0.4445(9) 0.2723(14) 0.0706(17)
H25 H 0.4465 0.2820 0.0945
H26 H 0.4387 0.3085 0.0562
C38 C 0.4210(6) 0.4701(9) 0.3053(6)
C39 C 0.4444(6) 0.4745(9) 0.2883(7)
C40 C 0.4785(7) 0.4825(14) 0.3084(7)
H27 H 0.4888 0.4890 0.3340
C41 C 0.4998(7) 0.4816(14) 0.2920(9)
C42 C 0.4897(6) 0.4760(10) 0.2575(6)
C43 C 0.4543(8) 0.4747(13) 0.2361(7)
C44 C 0.4313(6) 0.4724(13) 0.2506(7)
H28 H 0.4070 0.4695 0.2343
C45 C 0.4396(7) 0.469(3) 0.1957(8)
H29 H 0.4328 0.4287 0.1883
H30 H 0.4184 0.4934 0.1829
C46 C 0.5366(10) 0.487(3) 0.3163(10)
H31 H 0.5426 0.4649 0.3388
H32 H 0.5414 0.5282 0.3235
C47 C 0.4256(9) 0.3247(10) 0.3862(7)
C48 C 0.4587(6) 0.2751(14) 0.4022(6)
C49 C 0.4516(7) 0.2189(11) 0.4046(7)
H33 H 0.4292 0.2070 0.3992
C50 C 0.4775(6) 0.1811(11) 0.4150(7)
C51 C 0.4893(7) 0.1957(10) 0.0774(7)
C52 C 0.4815(6) 0.2515(14) 0.0783(10)
C53 C 0.4947(7) 0.2972(11) 0.4122(9)
H34 H 0.5002 0.3368 0.4121
C54 C 0.5305(7) 0.1185(11) 0.0802(10)
H35 H 0.5275 0.1141 0.0554
H36 H 0.5550 0.1102 0.0983
N1 N 0.3015(4) -0.1452(7) 0.1189(3)
C55 C 0.3216(3) -0.1918(7) 0.1414(5)
H37 H 0.3400 -0.2072 0.1388
C56 C 0.3143(5) -0.2154(7) 0.1678(4)
H38 H 0.3277 -0.2466 0.1829
C57 C 0.2868(6) -0.1925(9) 0.1717(5)
H39 H 0.2819 -0.2083 0.1893
C58 C 0.2667(4) -0.1459(9) 0.1491(6)
H40 H 0.2483 -0.1305 0.1517
C59 C 0.2740(4) -0.1223(6) 0.1227(4)
H41 H 0.2606 -0.0911 0.1077
N2 N 0.4059(4) -0.1457(8) 0.0294(5)
C60 C 0.4096(5) -0.1218(10) 0.0006(6)
H42 H 0.3948 -0.0914 -0.0140
C61 C 0.4355(7) -0.1434(14) -0.0064(7)
H43 H 0.4380 -0.1275 -0.0257
C62 C 0.4576(7) -0.1888(14) 0.0154(10)
H44 H 0.4749 -0.2033 0.0107
C63 C 0.4539(9) -0.2127(14) 0.0442(11)
H45 H 0.4687 -0.2431 0.0588
C64 C 0.4280(7) -0.1911(12) 0.0512(8)
H46 H 0.4255 -0.2071 0.0705
N3 N 0.2825(4) 0.0841(5) -0.0052(4)
C65 C 0.2560(4) 0.1093(8) -0.0005(4)
H47 H 0.2472 0.0891 0.0127
C66 C 0.2426(5) 0.1645(8) -0.0156(6)
H48 H 0.2249 0.1813 -0.0125
C67 C 0.2558(6) 0.1946(6) -0.0353(6)
H49 H 0.2468 0.2316 -0.0454
C68 C 0.2823(6) 0.1695(9) -0.0400(5)
H50 H 0.2911 0.1896 -0.0532
C69 C 0.2957(4) 0.1142(8) -0.0249(5)
H51 H 0.3134 0.0974 -0.0281
N4 N 0.3163(4) 0.5022(6) 0.2350(3)
C70 C 0.2824(4) 0.4822(6) 0.2099(5)
H52 H 0.2728 0.4509 0.2164
C71 C 0.2629(3) 0.5091(9) 0.1751(4)
H53 H 0.2402 0.4958 0.1583
C72 C 0.2772(5) 0.5560(9) 0.1655(4)
H54 H 0.2641 0.5740 0.1422
C73 C 0.3111(6) 0.5759(6) 0.1906(5)
H55 H 0.3207 0.6072 0.1841
C74 C 0.3307(3) 0.5490(7) 0.2254(5)
H56 H 0.3533 0.5623 0.2422
N5 N 0.3377(5) 0.2859(5) 0.3691(5)
C75 C 0.3592(4) 0.2626(7) 0.4047(5)
H57 H 0.3813 0.2789 0.4205
C76 C 0.3475(6) 0.2147(8) 0.4166(4)
H58 H 0.3619 0.1991 0.4404
C77 C 0.3145(6) 0.1902(6) 0.3930(6)
H59 H 0.3067 0.1582 0.4010
C78 C 0.2930(4) 0.2135(8) 0.3575(6)
H60 H 0.2709 0.1971 0.3417
C79 C 0.3047(5) 0.2614(7) 0.3455(4)
H61 H 0.2903 0.2770 0.3218
N6 N 0.4710(3) 0.4981(7) 0.4131(4)
C80 C 0.4840(5) 0.5447(8) 0.4016(4)
H62 H 0.4700 0.5616 0.3781
C81 C 0.5179(6) 0.5661(9) 0.4252(7)
H63 H 0.5266 0.5972 0.4175
C82 C 0.5389(4) 0.5408(11) 0.4602(6)
H64 H 0.5616 0.5551 0.4760
C83 C 0.5259(4) 0.4942(10) 0.4717(4)
H65 H 0.5400 0.4773 0.4952
C84 C 0.4920(5) 0.4729(7) 0.4481(5)
H66 H 0.4833 0.4417 0.4558
Fe1B Fe 0.68517(6) -0.10914(10) 0.42053(6)
Fe2B Fe 0.63602(6) -0.10901(11) 0.46145(7)
Fe3B Fe 0.69368(6) -0.00197(10) 0.47936(6)
Fe4B Fe 0.65323(6) 0.46332(10) 0.20800(7)
Fe5B Fe 0.64453(6) 0.36131(10) 0.14535(6)
Fe6B Fe 0.58149(7) 0.46060(11) 0.12364(7)
O1B O 0.6727(2) -0.0741(4) 0.4551(3)
O2B O 0.6267(3) 0.4293(4) 0.1586(3)
S1B S 0.66114(14) -0.2299(2) 0.44112(15)
S2B S 0.68753(15) -0.0627(3) 0.54565(15)
S3B S 0.76144(13) -0.0601(2) 0.48178(15)
S4B S 0.61525(18) 0.5829(3) 0.16453(19)
S5B S 0.60279(17) 0.4172(3) 0.06360(16)
S6B S 0.71949(15) 0.4230(3) 0.19967(17)
O3B O 0.6870(3) -0.1928(5) 0.4355(3)
O4B O 0.6497(3) -0.1931(5) 0.4633(3)
O5B O 0.6309(3) -0.2459(5) 0.4057(3)
O6B O 0.6795(3) -0.2798(5) 0.4633(4)
O7B O 0.6644(3) -0.1066(5) 0.5170(3)
O8B O 0.6987(4) -0.0182(5) 0.5281(3)
O9B O 0.6704(6) -0.0372(9) 0.5632(7)
O10B O 0.7190(4) -0.0911(7) 0.5732(4)
O11B O 0.7423(3) -0.0284(5) 0.4980(3)
O12B O 0.7364(3) -0.1046(5) 0.4547(3)
O13B O 0.7714(4) -0.0178(6) 0.4617(4)
O14B O 0.7919(3) -0.0901(6) 0.5124(4)
O15B O 0.6452(3) 0.5457(5) 0.1924(3)
O16B O 0.5944(3) 0.5445(5) 0.1308(3)
O17B O 0.5921(5) 0.6003(7) 0.1804(5)
O18B O 0.6282(5) 0.6323(7) 0.1539(4)
O19B O 0.5869(3) 0.4593(6) 0.0787(3)
O20B O 0.6342(3) 0.3887(5) 0.0963(3)
O21B O 0.5773(4) 0.3706(8) 0.0419(4)
O22B O 0.6151(4) 0.4487(8) 0.0422(4)
O23B O 0.6928(3) 0.3921(5) 0.1644(3)
O24B O 0.6987(3) 0.4666(5) 0.2096(3)
O25B O 0.7378(4) 0.3810(6) 0.2300(4)
O26B O 0.7429(4) 0.4569(7) 0.1920(4)
O27B O 0.6920(4) 0.0364(5) 0.4352(4)
O28B O 0.6857(3) -0.0328(5) 0.3950(3)
O29B O 0.6591(3) 0.3175(5) 0.1934(3)
O30B O 0.6654(3) 0.3861(5) 0.2360(3)
O31B O 0.6349(3) -0.1183(5) 0.3797(3)
O32B O 0.6003(3) -0.1177(6) 0.4059(4)
O33B O 0.6103(3) -0.0320(6) 0.4581(3)
O34B O 0.6474(4) 0.0397(5) 0.4633(4)
O35B O 0.6119(3) 0.4673(5) 0.2176(3)
O36B O 0.5648(3) 0.4653(5) 0.1614(3)
O37B O 0.5579(3) 0.3797(6) 0.1099(3)
O38B O 0.6018(4) 0.3127(8) 0.1248(5)
C1B C 0.6832(9) 0.0521(9) 0.3455(8)
H1B H 0.6806 0.0126 0.3386
C2B C 0.6896(5) 0.0651(9) 0.3796(6)
C3B C 0.6979(9) 0.1198(12) 0.3894(6)
H2B H 0.7096 0.1278 0.4149
C4B C 0.692(2) 0.2281(13) 0.3730(11)
H3B H 0.6693 0.2370 0.3711
H4B H 0.7096 0.2330 0.3992
C5B C 0.6975(12) 0.2700(10) 0.3548(8)
H5B H 0.7226 0.2786 0.3679
H6B H 0.6854 0.3053 0.3557
C6B C 0.6836(7) 0.3019(10) 0.2892(6)
H7B H 0.6895 0.3406 0.2976
C7B C 0.6727(5) 0.2865(8) 0.2532(5)
C8B C 0.6713(7) 0.2287(11) 0.2430(6)
H8B H 0.6677 0.2189 0.2195
C9B C 0.6776(16) 0.1241(18) 0.2600(10)
H9B H 0.6552 0.1131 0.2383
H10B H 0.6955 0.1202 0.2528
C10B C 0.685(2) 0.0839(16) 0.2860(14)
H11B H 0.7093 0.0728 0.2958
H12B H 0.6707 0.0495 0.2730
C11B C 0.6802(11) 0.0929(10) 0.3200(8)
C12B C 0.6852(7) 0.1536(10) 0.3305(6)
C13B C 0.6911(11) 0.1683(11) 0.3654(7)
C14B C 0.6854(8) 0.2565(11) 0.3129(6)
C15B C 0.6808(7) 0.1986(9) 0.3019(7)
C16B C 0.6752(10) 0.1877(12) 0.2666(8)
C17B C 0.6912(6) 0.0189(10) 0.4067(6)
C18B C 0.6660(5) 0.3334(9) 0.2253(6)
C19B C 0.6042(6) -0.1218(8) 0.3787(7)
C20B C 0.5733(6) -0.1290(8) 0.3400(5)
C21B C 0.5770(5) -0.1307(12) 0.3103(6)
H13B H 0.5996 -0.1301 0.3134
C22B C 0.5489(6) -0.1333(13) 0.2759(6)
C23B C 0.5158(5) -0.1363(9) 0.2703(6)
C24B C 0.5120(5) -0.1379(13) 0.3005(6)
C25B C 0.5406(6) -0.1335(10) 0.3344(6)
H14B H 0.5377 -0.1335 0.3551
C26B C 0.5523(8) -0.126(2) 0.2358(9)
H15B H 0.5611 -0.0867 0.2359
H16B H 0.5700 -0.1537 0.2377
C27B C 0.4753(8) -0.134(3) 0.2953(8)
H17B H 0.4717 -0.1699 0.3055
H18B H 0.4761 -0.1020 0.3114
C28B C 0.6188(6) 0.0209(11) 0.4579(5)
C29B C 0.5916(5) 0.0658(10) 0.4502(6)
C30B C 0.5992(6) 0.1249(10) 0.4537(7)
H19B H 0.6226 0.1369 0.4635
C31B C 0.5734(7) 0.1663(11) 0.4431(8)
C32B C 0.5386(6) 0.1510(9) 0.4325(7)
C33B C 0.5302(7) 0.0906(10) 0.4299(6)
C34B C 0.5584(7) 0.0495(9) 0.4384(6)
H20B H 0.5531 0.0094 0.4354
C35B C 0.4904(6) 0.0781(12) 0.4156(10)
H21B H 0.4793 0.0697 0.3890
H22B H 0.4893 0.0420 0.4276
C36B C 0.5831(6) 0.2352(12) 0.4475(13)
H23B H 0.5953 0.2451 0.4739
H24B H 0.5994 0.2420 0.4384
C37B C 0.5555(9) 0.2723(14) 0.4294(17)
H25B H 0.5535 0.2820 0.4055
H26B H 0.5613 0.3085 0.4438
C38B C 0.5790(6) 0.4701(9) 0.1947(6)
C39B C 0.5556(6) 0.4745(9) 0.2117(7)
C40B C 0.5215(7) 0.4825(14) 0.1916(7)
H27B H 0.5112 0.4890 0.1660
C41B C 0.5002(7) 0.4816(14) 0.2080(9)
C42B C 0.5103(6) 0.4760(10) 0.2425(6)
C43B C 0.5457(8) 0.4747(13) 0.2639(7)
C44B C 0.5687(6) 0.4724(13) 0.2494(7)
H28B H 0.5930 0.4695 0.2657
C45B C 0.5604(7) 0.469(3) 0.3043(8)
H29B H 0.5672 0.4287 0.3117
H30B H 0.5816 0.4934 0.3171
C46B C 0.4634(10) 0.487(3) 0.1837(10)
H31B H 0.4574 0.4649 0.1612
H32B H 0.4586 0.5282 0.1765
C47B C 0.5744(9) 0.3247(10) 0.1138(7)
C48B C 0.5413(6) 0.2751(14) 0.0978(6)
C49B C 0.5484(7) 0.2189(11) 0.0954(7)
H33B H 0.5708 0.2070 0.1008
C50B C 0.5225(6) 0.1811(11) 0.0850(7)
C51B C 0.5107(7) 0.1957(10) 0.4226(7)
C52B C 0.5185(6) 0.2515(14) 0.4217(10)
C53B C 0.5053(7) 0.2972(11) 0.0878(9)
H34B H 0.4998 0.3368 0.0879
C54B C 0.4695(7) 0.1185(11) 0.4198(10)
H35B H 0.4725 0.1141 0.4446
H36B H 0.4450 0.1102 0.4017
N1B N 0.6985(4) -0.1452(7) 0.3811(3)
C55B C 0.6784(3) -0.1918(7) 0.3586(5)
H37B H 0.6600 -0.2072 0.3612
C56B C 0.6857(5) -0.2154(7) 0.3322(4)
H38B H 0.6723 -0.2466 0.3171
C57B C 0.7132(6) -0.1925(9) 0.3283(5)
H39B H 0.7181 -0.2083 0.3107
C58B C 0.7333(4) -0.1459(9) 0.3509(6)
H40B H 0.7517 -0.1305 0.3483
C59B C 0.7260(4) -0.1223(6) 0.3773(4)
H41B H 0.7394 -0.0911 0.3923
N2B N 0.5941(4) -0.1457(8) 0.4706(5)
C60B C 0.5904(5) -0.1218(10) 0.4994(6)
H42B H 0.6052 -0.0914 0.5140
C61B C 0.5645(7) -0.1434(14) 0.5064(7)
H43B H 0.5620 -0.1275 0.5257
C62B C 0.5424(7) -0.1888(14) 0.4846(10)
H44B H 0.5251 -0.2033 0.4893
C63B C 0.5461(9) -0.2127(14) 0.4558(11)
H45B H 0.5313 -0.2431 0.4412
C64B C 0.5720(7) -0.1911(12) 0.4488(8)
H46B H 0.5745 -0.2071 0.4295
N3B N 0.7175(4) 0.0841(5) 0.5052(4)
C65B C 0.7440(4) 0.1093(8) 0.5005(4)
H47B H 0.7528 0.0891 0.4873
C66B C 0.7574(5) 0.1645(8) 0.5156(6)
H48B H 0.7751 0.1813 0.5125
C67B C 0.7442(6) 0.1946(6) 0.5353(6)
H49B H 0.7532 0.2316 0.5454
C68B C 0.7177(6) 0.1695(9) 0.5400(5)
H50B H 0.7089 0.1896 0.5532
C69B C 0.7043(4) 0.1142(8) 0.5249(5)
H51B H 0.6866 0.0974 0.5281
N4B N 0.6837(4) 0.5022(6) 0.2650(3)
C70B C 0.7176(4) 0.4822(6) 0.2901(5)
H52B H 0.7272 0.4509 0.2836
C71B C 0.7371(3) 0.5091(9) 0.3249(4)
H53B H 0.7598 0.4958 0.3417
C72B C 0.7228(5) 0.5560(9) 0.3345(4)
H54B H 0.7359 0.5740 0.3578
C73B C 0.6889(6) 0.5759(6) 0.3094(5)
H55B H 0.6793 0.6072 0.3159
C74B C 0.6693(3) 0.5490(7) 0.2746(5)
H56B H 0.6467 0.5623 0.2578
N5B N 0.6623(5) 0.2859(5) 0.1309(5)
C75B C 0.6408(4) 0.2626(7) 0.0953(5)
H57B H 0.6187 0.2789 0.0795
C76B C 0.6525(6) 0.2147(8) 0.0834(4)
H58B H 0.6381 0.1991 0.0596
C77B C 0.6855(6) 0.1902(6) 0.1070(6)
H59B H 0.6933 0.1582 0.0990
C78B C 0.7070(4) 0.2135(8) 0.1425(6)
H60B H 0.7291 0.1971 0.1583
C79B C 0.6953(5) 0.2614(7) 0.1545(4)
H61B H 0.7097 0.2770 0.1782
N6B N 0.5290(3) 0.4981(7) 0.0869(4)
C80B C 0.5160(5) 0.5447(8) 0.0984(4)
H62B H 0.5300 0.5616 0.1219
C81B C 0.4821(6) 0.5661(9) 0.0748(7)
H63B H 0.4734 0.5972 0.0825
C82B C 0.4611(4) 0.5408(11) 0.0398(6)
H64B H 0.4384 0.5551 0.0240
C83B C 0.4741(4) 0.4942(10) 0.0283(4)
H65B H 0.4600 0.4773 0.0048
C84B C 0.5080(5) 0.4729(7) 0.0519(5)
H66B H 0.5167 0.4417 0.0442
O41? O 0.4189(14) 0.315(2) 0.2712(15)
O43? O 0.4501(14) 0.124(2) -0.0409(14)
loop_
_geom_bond_atom_site_label_1
_geom_bond_atom_site_label_2
_geom_bond_site_symmetry_1
_geom_bond_site_symmetry_2
Fe1 O1 1_555 1_555
Fe2 O1 1_555 1_555
Fe3 O1 1_555 1_555
Fe4 O2 1_555 1_555
Fe5 O2 1_555 1_555
Fe6 O2 1_555 1_555
S1 O3 1_555 1_555
S2 O7 1_555 1_555
S3 O11 1_555 1_555
S4 O15 1_555 1_555
S5 O19 1_555 1_555
S6 O23 1_555 1_555
O3 Fe1 1_555 1_555
O4 Fe2 1_555 1_555
O5 S1 1_555 1_555
O6 S1 1_555 1_555
O7 Fe2 1_555 1_555
O8 Fe3 1_555 1_555
O9 S2 1_555 1_555
O10 S2 1_555 1_555
O11 Fe3 1_555 1_555
O12 Fe1 1_555 1_555
O13 S3 1_555 1_555
O14 S3 1_555 1_555
O15 Fe4 1_555 1_555
O16 Fe6 1_555 1_555
O17 S4 1_555 1_555
O18 S4 1_555 1_555
O19 Fe6 1_555 1_555
O20 Fe5 1_555 1_555
O21 S5 1_555 1_555
O22 S5 1_555 1_555
O23 Fe5 1_555 1_555
O24 Fe4 1_555 1_555
O25 S6 1_555 1_555
O26 S6 1_555 1_555
O27 Fe3 1_555 1_555
O28 Fe1 1_555 1_555
O29 Fe5 1_555 1_555
O30 Fe4 1_555 1_555
O31 Fe1 1_555 1_555
O32 Fe2 1_555 1_555
O33 Fe2 1_555 1_555
O34 Fe3 1_555 1_555
O35 Fe4 1_555 1_555
O36 Fe6 1_555 1_555
O37 Fe6 1_555 1_555
O38 Fe5 1_555 1_555
C1 H1 1_555 1_555
C2 C1 1_555 1_555
C3 C2 1_555 1_555
H2 C3 1_555 1_555
C4 H3 1_555 1_555
H4 C4 1_555 1_555
C5 C4 1_555 1_555
H5 C5 1_555 1_555
H6 C5 1_555 1_555
C6 H7 1_555 1_555
C7 C6 1_555 1_555
C8 C7 1_555 1_555
H8 C8 1_555 1_555
C9 H9 1_555 1_555
H10 C9 1_555 1_555
C10 C9 1_555 1_555
H11 C10 1_555 1_555
H12 C10 1_555 1_555
C11 C1 1_555 1_555
C12 C11 1_555 1_555
C13 C3 1_555 1_555
C14 C5 1_555 1_555
C15 C12 1_555 1_555
C16 C8 1_555 1_555
C17 O27 1_555 1_555
C18 O29 1_555 1_555
C19 O31 1_555 1_555
C20 C19 1_555 1_555
C21 C20 1_555 1_555
H13 C21 1_555 1_555
C22 C21 1_555 1_555
C23 C22 1_555 1_555
C24 C23 1_555 1_555
C25 C20 1_555 1_555
H14 C25 1_555 1_555
C26 C22 1_555 1_555
H15 C26 1_555 1_555
H16 C26 1_555 1_555
C27 C24 1_555 1_555
H17 C27 1_555 1_555
H18 C27 1_555 1_555
C28 O33 1_555 1_555
C29 C28 1_555 1_555
C30 C29 1_555 1_555
H19 C30 1_555 1_555
C31 C30 1_555 1_555
C32 C31 1_555 1_555
C33 C32 1_555 1_555
C34 C29 1_555 1_555
H20 C34 1_555 1_555
C35 C33 1_555 1_555
H21 C35 1_555 1_555
H22 C35 1_555 1_555
C36 C31 1_555 1_555
H23 C36 1_555 1_555
H24 C36 1_555 1_555
C37 C36 1_555 1_555
H25 C37 1_555 1_555
H26 C37 1_555 1_555
C38 O35 1_555 1_555
C39 C38 1_555 1_555
C40 C39 1_555 1_555
H27 C40 1_555 1_555
C41 C40 1_555 1_555
C42 C41 1_555 1_555
C43 C42 1_555 1_555
C44 C39 1_555 1_555
H28 C44 1_555 1_555
C45 C43 1_555 1_555
H29 C45 1_555 1_555
H30 C45 1_555 1_555
C46 C41 1_555 1_555
H31 C46 1_555 1_555
H32 C46 1_555 1_555
C47 O37 1_555 1_555
C48 C47 1_555 1_555
C49 C48 1_555 1_555
H33 C49 1_555 1_555
C50 C49 1_555 1_555
C51 C32 1_555 1_555
C52 C37 1_555 1_555
C53 C48 1_555 1_555
H34 C53 1_555 1_555
C54 C35 1_555 1_555
H35 C54 1_555 1_555
H36 C54 1_555 1_555
N1 Fe1 1_555 1_555
C55 N1 1_555 1_555
H37 C55 1_555 1_555
C56 C55 1_555 1_555
H38 C56 1_555 1_555
C57 C56 1_555 1_555
H39 C57 1_555 1_555
C58 C57 1_555 1_555
H40 C58 1_555 1_555
C59 N1 1_555 1_555
H41 C59 1_555 1_555
N2 Fe2 1_555 1_555
C60 N2 1_555 1_555
H42 C60 1_555 1_555
C61 C60 1_555 1_555
H43 C61 1_555 1_555
C62 C61 1_555 1_555
H44 C62 1_555 1_555
C63 C62 1_555 1_555
H45 C63 1_555 1_555
C64 N2 1_555 1_555
H46 C64 1_555 1_555
N3 Fe3 1_555 1_555
C65 N3 1_555 1_555
H47 C65 1_555 1_555
C66 C65 1_555 1_555
H48 C66 1_555 1_555
C67 C66 1_555 1_555
H49 C67 1_555 1_555
C68 C67 1_555 1_555
H50 C68 1_555 1_555
C69 N3 1_555 1_555
H51 C69 1_555 1_555
N4 Fe4 1_555 1_555
C70 N4 1_555 1_555
H52 C70 1_555 1_555
C71 C70 1_555 1_555
H53 C71 1_555 1_555
C72 C71 1_555 1_555
H54 C72 1_555 1_555
C73 C72 1_555 1_555
H55 C73 1_555 1_555
C74 N4 1_555 1_555
H56 C74 1_555 1_555
N5 Fe5 1_555 1_555
C75 N5 1_555 1_555
H57 C75 1_555 1_555
C76 C75 1_555 1_555
H58 C76 1_555 1_555
C77 C76 1_555 1_555
H59 C77 1_555 1_555
C78 C77 1_555 1_555
H60 C78 1_555 1_555
C79 N5 1_555 1_555
H61 C79 1_555 1_555
N6 Fe6 1_555 1_555
C80 N6 1_555 1_555
H62 C80 1_555 1_555
C81 C80 1_555 1_555
H63 C81 1_555 1_555
C82 C81 1_555 1_555
H64 C82 1_555 1_555
C83 C82 1_555 1_555
H65 C83 1_555 1_555
C84 N6 1_555 1_555
H66 C84 1_555 1_555
N7 C85 1_555 1_555
C85 C86 1_555 1_555
C86 C87 1_555 1_555
C87 C88 1_555 1_555
C88 C89 1_555 1_555
C89 N7 1_555 1_555
N8 C90 1_555 1_555
C90 C91 1_555 1_555
C91 C92 1_555 1_555
C92 C93 1_555 1_555
C93 C94 1_555 1_555
C94 N8 1_555 1_555
N9 C95 1_555 1_555
C95 C96 1_555 1_555
C96 C97 1_555 1_555
C97 C98 1_555 1_555
C98 C99 1_555 1_555
C99 N9 1_555 1_555
N10 C100 1_555 1_555
C100 C101 1_555 1_555
C101 C102 1_555 1_555
C102 C103 1_555 1_555
C103 C104 1_555 1_555
C104 N10 1_555 1_555
N11 C105 1_555 1_555
C105 C106 1_555 1_555
C106 C107 1_555 1_555
C107 C108 1_555 1_555
C108 C109 1_555 1_555
C109 N11 1_555 1_555
N12 C110 1_555 1_555
C111 N12 1_555 1_555
N13 C112 1_555 1_555
C113 N13 1_555 1_555
Fe1B O1B 1_555 1_555
Fe2B O1B 1_555 1_555
Fe3B O1B 1_555 1_555
Fe4B O2B 1_555 1_555
Fe5B O2B 1_555 1_555
Fe6B O2B 1_555 1_555
S1B O3B 1_555 1_555
S2B O7B 1_555 1_555
S3B O11B 1_555 1_555
S4B O15B 1_555 1_555
S5B O19B 1_555 1_555
S6B O23B 1_555 1_555
O3B Fe1B 1_555 1_555
O4B Fe2B 1_555 1_555
O5B S1B 1_555 1_555
O6B S1B 1_555 1_555
O7B Fe2B 1_555 1_555
O8B Fe3B 1_555 1_555
O9B S2B 1_555 1_555
O10B S2B 1_555 1_555
O11B Fe3B 1_555 1_555
O12B Fe1B 1_555 1_555
O13B S3B 1_555 1_555
O14B S3B 1_555 1_555
O15B Fe4B 1_555 1_555
O16B Fe6B 1_555 1_555
O17B S4B 1_555 1_555
O18B S4B 1_555 1_555
O19B Fe6B 1_555 1_555
O20B Fe5B 1_555 1_555
O21B S5B 1_555 1_555
O22B S5B 1_555 1_555
O23B Fe5B 1_555 1_555
O24B Fe4B 1_555 1_555
O25B S6B 1_555 1_555
O26B S6B 1_555 1_555
O27B Fe3B 1_555 1_555
O28B Fe1B 1_555 1_555
O29B Fe5B 1_555 1_555
O30B Fe4B 1_555 1_555
O31B Fe1B 1_555 1_555
O32B Fe2B 1_555 1_555
O33B Fe2B 1_555 1_555
O34B Fe3B 1_555 1_555
O35B Fe4B 1_555 1_555
O36B Fe6B 1_555 1_555
O37B Fe6B 1_555 1_555
O38B Fe5B 1_555 1_555
C1B H1B 1_555 1_555
C2B C1B 1_555 1_555
C3B C2B 1_555 1_555
H2B C3B 1_555 1_555
C4B H3B 1_555 1_555
H4B C4B 1_555 1_555
C5B C4B 1_555 1_555
H5B C5B 1_555 1_555
H6B C5B 1_555 1_555
C6B H7B 1_555 1_555
C7B C6B 1_555 1_555
C8B C7B 1_555 1_555
H8B C8B 1_555 1_555
C9B H9B 1_555 1_555
H10B C9B 1_555 1_555
C10B C9B 1_555 1_555
H11B C10B 1_555 1_555
H12B C10B 1_555 1_555
C11B C1B 1_555 1_555
C12B C11B 1_555 1_555
C13B C3B 1_555 1_555
C14B C5B 1_555 1_555
C15B C12B 1_555 1_555
C16B C8B 1_555 1_555
C17B O27B 1_555 1_555
C18B O29B 1_555 1_555
C19B O31B 1_555 1_555
C20B C19B 1_555 1_555
C21B C20B 1_555 1_555
H13B C21B 1_555 1_555
C22B C21B 1_555 1_555
C23B C23 1_555 1_555
C24B C23B 1_555 1_555
C25B C20B 1_555 1_555
H14B C25B 1_555 1_555
C26B C27 1_555 1_555
H15B C26B 1_555 1_555
H16B C26B 1_555 1_555
C27B C26 1_555 1_555
H17B C27B 1_555 1_555
H18B C27B 1_555 1_555
C28B O33B 1_555 1_555
C29B C28B 1_555 1_555
C30B C29B 1_555 1_555
H19B C30B 1_555 1_555
C31B C30B 1_555 1_555
C32B C31B 1_555 1_555
C33B C32B 1_555 1_555
C34B C29B 1_555 1_555
H20B C34B 1_555 1_555
C35B C33B 1_555 1_555
H21B C35B 1_555 1_555
H22B C35B 1_555 1_555
C36B C31B 1_555 1_555
H23B C36B 1_555 1_555
H24B C36B 1_555 1_555
C37B C36B 1_555 1_555
H25B C37B 1_555 1_555
H26B C37B 1_555 1_555
C38B O35B 1_555 1_555
C39B C38B 1_555 1_555
C40B C39B 1_555 1_555
H27B C40B 1_555 1_555
C41B C40B 1_555 1_555
C42B C42 1_555 1_555
C43B C42B 1_555 1_555
C44B C39B 1_555 1_555
H28B C44B 1_555 1_555
C45B C46 1_555 1_555
H29B C45B 1_555 1_555
H30B C45B 1_555 1_555
C46B C45 1_555 1_555
H31B C46B 1_555 1_555
H32B C46B 1_555 1_555
C47B O37B 1_555 1_555
C48B C47B 1_555 1_555
C49B C48B 1_555 1_555
H33B C49B 1_555 1_555
C50B C51 1_555 1_555
C51B C50 1_555 1_555
C52B C53 1_555 1_555
C53B C52 1_555 1_555
H34B C53B 1_555 1_555
C54B C50 1_555 1_555
H35B C54B 1_555 1_555
H36B C54B 1_555 1_555
N1B Fe1B 1_555 1_555
C55B N1B 1_555 1_555
H37B C55B 1_555 1_555
C56B C55B 1_555 1_555
H38B C56B 1_555 1_555
C57B C56B 1_555 1_555
H39B C57B 1_555 1_555
C58B C57B 1_555 1_555
H40B C58B 1_555 1_555
C59B N1B 1_555 1_555
H41B C59B 1_555 1_555
N2B Fe2B 1_555 1_555
C60B N2B 1_555 1_555
H42B C60B 1_555 1_555
C61B C60B 1_555 1_555
H43B C61B 1_555 1_555
C62B C61B 1_555 1_555
H44B C62B 1_555 1_555
C63B C62B 1_555 1_555
H45B C63B 1_555 1_555
C64B N2B 1_555 1_555
H46B C64B 1_555 1_555
N3B Fe3B 1_555 1_555
C65B N3B 1_555 1_555
H47B C65B 1_555 1_555
C66B C65B 1_555 1_555
H48B C66B 1_555 1_555
C67B C66B 1_555 1_555
H49B C67B 1_555 1_555
C68B C67B 1_555 1_555
H50B C68B 1_555 1_555
C69B N3B 1_555 1_555
H51B C69B 1_555 1_555
N4B Fe4B 1_555 1_555
C70B N4B 1_555 1_555
H52B C70B 1_555 1_555
C71B C70B 1_555 1_555
H53B C71B 1_555 1_555
C72B C71B 1_555 1_555
H54B C72B 1_555 1_555
C73B C72B 1_555 1_555
H55B C73B 1_555 1_555
C74B N4B 1_555 1_555
H56B C74B 1_555 1_555
N5B Fe5B 1_555 1_555
C75B N5B 1_555 1_555
H57B C75B 1_555 1_555
C76B C75B 1_555 1_555
H58B C76B 1_555 1_555
C77B C76B 1_555 1_555
H59B C77B 1_555 1_555
C78B C77B 1_555 1_555
H60B C78B 1_555 1_555
C79B N5B 1_555 1_555
H61B C79B 1_555 1_555
N6B Fe6B 1_555 1_555
C80B N6B 1_555 1_555
H62B C80B 1_555 1_555
C81B C80B 1_555 1_555
H63B C81B 1_555 1_555
C82B C81B 1_555 1_555
H64B C82B 1_555 1_555
C83B C82B 1_555 1_555
H65B C83B 1_555 1_555
C84B N6B 1_555 1_555
H66B C84B 1_555 1_555
S1 O4 1_555 1_555
S2 O8 1_555 1_555
S3 O12 1_555 1_555
S4 O16 1_555 1_555
S5 O20 1_555 1_555
S6 O24 1_555 1_555
O28 C17 1_555 1_555
O30 C18 1_555 1_555
O32 C19 1_555 1_555
O34 C28 1_555 1_555
O36 C38 1_555 1_555
O38 C47 1_555 1_555
C2 C17 1_555 1_555
C4 C13 1_555 1_555
C6 C14 1_555 1_555
C7 C18 1_555 1_555
C9 C16 1_555 1_555
C10 C11 1_555 1_555
C12 C13 1_555 1_555
C14 C15 1_555 1_555
C15 C16 1_555 1_555
C24 C25 1_555 1_555
C33 C34 1_555 1_555
C43 C44 1_555 1_555
C51 C52 1_555 1_555
C54 C50B 1_555 1_555
C58 C59 1_555 1_555
C63 C64 1_555 1_555
C68 C69 1_555 1_555
C73 C74 1_555 1_555
C78 C79 1_555 1_555
C83 C84 1_555 1_555
S1B O4B 1_555 1_555
S2B O8B 1_555 1_555
S3B O12B 1_555 1_555
S4B O16B 1_555 1_555
S5B O20B 1_555 1_555
S6B O24B 1_555 1_555
O28B C17B 1_555 1_555
O30B C18B 1_555 1_555
O32B C19B 1_555 1_555
O34B C28B 1_555 1_555
O36B C38B 1_555 1_555
O38B C47B 1_555 1_555
C2B C17B 1_555 1_555
C4B C13B 1_555 1_555
C6B C14B 1_555 1_555
C7B C18B 1_555 1_555
C9B C16B 1_555 1_555
C10B C11B 1_555 1_555
C12B C13B 1_555 1_555
C14B C15B 1_555 1_555
C15B C16B 1_555 1_555
C22B C23B 1_555 1_555
C22B C26B 1_555 1_555
C24B C25B 1_555 1_555
C24B C27B 1_555 1_555
C32B C51B 1_555 1_555
C33B C34B 1_555 1_555
C35B C54B 1_555 1_555
C37B C52B 1_555 1_555
C41B C42B 1_555 1_555
C41B C46B 1_555 1_555
C43B C44B 1_555 1_555
C43B C45B 1_555 1_555
C48B C53B 1_555 1_555
C49B C50B 1_555 1_555
C51B C52B 1_555 1_555
C58B C59B 1_555 1_555
C63B C64B 1_555 1_555
C68B C69B 1_555 1_555
C73B C74B 1_555 1_555
C78B C79B 1_555 1_555
C83B C84B 1_555 1_555

#END
