
#######################################################################
#
#                 Cambridge Crystallographic Data Centre
#                                CCDC 
#
#######################################################################
#
# If this CIF has been generated from an entry in the Cambridge 
# Structural Database, then it will include bibliographic, chemical, 
# crystal, experimental, refinement or atomic coordinate data resulting 
# from the CCDC's data processing and validation procedures.
#
#######################################################################

data_JANZII01
_chemical_name_common            IRMOP-52
_chemical_formula_moiety         
'C168 H132 Fe12 N12 O76 S12 8-,8(C2 H8 N1 1+),x(C5 H5 N1),x(H2 O1)'
_chemical_name_systematic        
"octakis(Dimethylammonium) hexakis(\m~4~-tetrahydropyrene-2,7-dicarboxylato-O,O',O'',O''')-tetrakis(\m~3~-oxo)-dodecakis(\m~2~-sulfato-O,O')-dodecakis(pyridine-N)-dodeca-iron pyridine unknown clathrate hydrate"
_symmetry_cell_setting           monoclinic
_symmetry_space_group_name_H-M   'C 2/c'
_symmetry_Int_Tables_number      15
_space_group_name_Hall           '-C 2yn'
loop_
_symmetry_equiv_pos_site_id
_symmetry_equiv_pos_as_xyz
1 x,y,z
2 1/2+x,1/2+y,z
3 -x,y,1/2-z
4 1/2-x,1/2+y,1/2-z
5 -x,-y,-z
6 1/2-x,1/2-y,-z
7 x,-y,1/2+z
8 1/2+x,1/2-y,1/2+z
_cell_length_a                   43.730(4)
_cell_length_b                   22.671(2)
_cell_length_c                   41.328(4)
_cell_angle_alpha                90
_cell_angle_beta                 120.182(2)
_cell_angle_gamma                90
_cell_volume                     35418.1
_exptl_crystal_colour            orange
_exptl_crystal_description       block
_cell_formula_units_Z            4
loop_
_atom_site_label
_atom_site_type_symbol
_atom_site_fract_x
_atom_site_fract_y
_atom_site_fract_z
Fe1 Fe 0.31476(3) -0.10900(5) 0.07938(3)
Fe2 Fe 0.36410(3) -0.10902(5) 0.03856(3)
Fe3 Fe 0.30636(3) -0.00174(5) 0.02060(3)
Fe4 Fe 0.34684(3) 0.46330(5) 0.29204(3)
Fe5 Fe 0.35559(3) 0.36132(5) 0.35471(3)
Fe6 Fe 0.41860(3) 0.46041(6) 0.37639(3)
O1 O 0.32733(11) -0.07495(19) 0.04464(12)
O2 O 0.37284(12) 0.4295(2) 0.34113(12)
S1 S 0.33898(8) -0.22952(12) 0.05869(9)
S2 S 0.31269(8) -0.06288(14) -0.04584(8)
S3 S 0.23853(7) -0.06040(13) 0.01786(8)
S4 S 0.38441(9) 0.58319(15) 0.33526(10)
S5 S 0.39708(9) 0.41689(17) 0.43620(9)
S6 S 0.28060(8) 0.42323(14) 0.30042(9)
O3 O 0.31281(13) -0.1928(2) 0.06375(14)
O4 O 0.35004(14) -0.1927(2) 0.03564(15)
O5 O 0.36973(16) -0.2463(2) 0.09466(17)
O6 O 0.31915(15) -0.2792(2) 0.03505(17)
O7 O 0.33611(14) -0.1070(2) -0.01699(15)
O8 O 0.30222(17) -0.0187(2) -0.02754(15)
O9 O 0.3289(2) -0.0385(4) -0.0647(3)
O10 O 0.28023(19) -0.0918(3) -0.07327(17)
O11 O 0.25704(14) -0.0283(2) 0.00107(15)
O12 O 0.26342(13) -0.1043(2) 0.04502(15)
O13 O 0.22835(16) -0.0194(3) 0.03668(19)
O14 O 0.20809(15) -0.0902(3) -0.01290(17)
O15 O 0.35364(15) 0.5462(2) 0.30683(15)
O16 O 0.40568(15) 0.5455(3) 0.36934(16)
O17 O 0.4074(2) 0.6016(3) 0.3197(2)
O18 O 0.3705(2) 0.6331(3) 0.34526(19)
O19 O 0.41304(15) 0.4602(3) 0.42141(15)
O20 O 0.36552(14) 0.3883(2) 0.40368(14)
O21 O 0.42202(19) 0.3704(3) 0.45814(18)
O22 O 0.38406(17) 0.4485(3) 0.45702(17)
O23 O 0.30727(14) 0.3920(2) 0.33579(15)
O24 O 0.30109(14) 0.4667(2) 0.29060(15)
O25 O 0.26280(16) 0.3801(3) 0.27057(19)
O26 O 0.25790(16) 0.4598(3) 0.30852(18)
O27 O 0.30796(18) 0.0374(3) 0.06408(18)
O28 O 0.31433(16) -0.0339(3) 0.10564(16)
O29 O 0.34106(15) 0.3180(2) 0.30661(16)
O30 O 0.33494(15) 0.3858(3) 0.26482(14)
O31 O 0.36646(15) -0.1174(2) 0.12039(13)
O32 O 0.3994(2) -0.1157(4) 0.09246(19)
O33 O 0.38975(19) -0.0351(3) 0.0426(2)
O34 O 0.35400(16) 0.0375(2) 0.03742(16)
O35 O 0.38739(16) 0.4669(3) 0.28247(16)
O36 O 0.43467(15) 0.4642(3) 0.33895(16)
O37 O 0.44213(14) 0.3803(3) 0.38965(16)
O38 O 0.40008(16) 0.3136(3) 0.37652(18)
C1 C 0.3153(4) 0.0525(4) 0.1529(4)
H1 H 0.3178 0.0130 0.1597
C2 C 0.3103(3) 0.0686(5) 0.1198(3)
C3 C 0.3031(4) 0.1229(6) 0.1093(4)
H2 H 0.2941 0.1329 0.0843
C4 C 0.2982(7) 0.2272(8) 0.1221(5)
H3 H 0.3098 0.2376 0.1082
H4 H 0.2730 0.2265 0.1043
C5 C 0.3042(5) 0.2704(5) 0.1462(4)
H5 H 0.2829 0.2941 0.1357
H6 H 0.3225 0.2952 0.1466
C6 C 0.3190(3) 0.3021(5) 0.2111(3)
H7 H 0.3158 0.3415 0.2039
C7 C 0.3278(3) 0.2858(4) 0.2466(3)
C8 C 0.3302(4) 0.2279(5) 0.2593(3)
H8 H 0.3323 0.2178 0.2822
C9 C 0.3337(7) 0.1236(7) 0.2456(4)
H9 H 0.3583 0.1129 0.2559
H10 H 0.3276 0.1173 0.2649
C10 C 0.3117(8) 0.0847(7) 0.2137(6)
H11 H 0.2871 0.0902 0.2063
H12 H 0.3179 0.0440 0.2214
C11 C 0.3168(4) 0.0979(6) 0.1779(3)
C12 C 0.3133(3) 0.1545(5) 0.1691(4)
C13 C 0.3088(5) 0.1672(6) 0.1358(4)
C14 C 0.3150(3) 0.2586(6) 0.1865(3)
C15 C 0.3186(3) 0.2009(6) 0.1964(4)
C16 C 0.3290(4) 0.1895(6) 0.2350(5)
C17 C 0.3094(3) 0.0204(5) 0.0941(3)
C18 C 0.3345(3) 0.3315(5) 0.2744(3)
C19 C 0.3974(3) -0.1214(4) 0.1190(4)
C20 C 0.4260(3) -0.1290(4) 0.1602(3)
C21 C 0.4221(3) -0.1314(5) 0.1904(3)
H13 H 0.3996 -0.1309 0.1875
C22 C 0.4507(4) -0.1345(5) 0.2248(3)
C23 C 0.4834(3) -0.1374(4) 0.2291(3)
C24 C 0.4875(3) -0.1377(5) 0.1988(4)
C25 C 0.4581(3) -0.1334(5) 0.1636(3)
H14 H 0.4604 -0.1337 0.1424
C26 C 0.4480(3) -0.1281(9) 0.2611(4)
H15 H 0.4383 -0.0892 0.2601
H16 H 0.4303 -0.1562 0.2588
C27 C 0.5255(3) -0.1341(10) 0.2058(3)
H17 H 0.5296 -0.1697 0.1954
H18 H 0.5262 -0.1014 0.1910
C28 C 0.3837(3) 0.0134(6) 0.0417(3)
C29 C 0.4096(3) 0.0624(5) 0.0498(3)
C30 C 0.4006(3) 0.1252(6) 0.0470(3)
H19 H 0.3777 0.1382 0.0393
C31 C 0.4285(5) 0.1640(5) 0.0567(4)
C32 C 0.4629(3) 0.1442(8) 0.0670(3)
C33 C 0.4702(4) 0.0871(6) 0.0694(4)
C34 C 0.4429(3) 0.0470(5) 0.0612(3)
H20 H 0.4484 0.0070 0.0639
C35 C 0.5071(3) 0.0746(6) 0.0813(5)
H21 H 0.5186 0.0631 0.1074
H22 H 0.5073 0.0401 0.0675
C36 C 0.4145(3) 0.2257(8) 0.0528(6)
H23 H 0.4001 0.2357 0.0265
H24 H 0.3999 0.2284 0.0643
C37 C 0.4425(5) 0.2642(5) 0.0700(7)
H25 H 0.4447 0.2746 0.0938
H26 H 0.4355 0.2998 0.0550
C38 C 0.4205(3) 0.4696(4) 0.3050(3)
C39 C 0.4421(3) 0.4741(4) 0.2855(4)
C40 C 0.4777(4) 0.4781(5) 0.3079(3)
H27 H 0.4877 0.4789 0.3338
C41 C 0.5006(4) 0.4811(7) 0.2915(6)
C42 C 0.4886(3) 0.4757(5) 0.2558(3)
C43 C 0.4528(4) 0.4739(6) 0.2341(4)
C44 C 0.4294(3) 0.4740(6) 0.2472(3)
H28 H 0.4052 0.4739 0.2304
C45 C 0.4407(3) 0.4540(11) 0.1947(4)
H29 H 0.4423 0.4115 0.1937
H30 H 0.4163 0.4656 0.1781
C46 C 0.5374(4) 0.4808(13) 0.3164(4)
H31 H 0.5450 0.5215 0.3226
H32 H 0.5416 0.4618 0.3393
C47 C 0.4308(3) 0.3265(5) 0.3881(3)
C48 C 0.4586(3) 0.2783(6) 0.4013(3)
C49 C 0.4519(3) 0.2224(6) 0.4046(3)
H33 H 0.4297 0.2125 0.4008
C50 C 0.4767(3) 0.1784(8) 0.4135(4)
C51 C 0.4929(4) 0.1932(5) 0.0790(3)
C52 C 0.4824(3) 0.2483(8) 0.0786(4)
C53 C 0.4925(3) 0.2970(5) 0.4102(4)
H34 H 0.4984 0.3361 0.4092
C54 C 0.5280(4) 0.1149(5) 0.0784(5)
H35 H 0.5242 0.1130 0.0532
H36 H 0.5524 0.1037 0.0954
N1 N 0.3020(2) -0.1444(4) 0.11992(16)
C55 C 0.32230(16) -0.1916(4) 0.1415(3)
H37 H 0.3404 -0.2064 0.1382
C56 C 0.3156(2) -0.2167(3) 0.1680(2)
H38 H 0.3292 -0.2482 0.1824
C57 C 0.2886(3) -0.1946(4) 0.17295(19)
H39 H 0.2841 -0.2113 0.1907
C58 C 0.26827(19) -0.1474(5) 0.1514(3)
H40 H 0.2502 -0.1326 0.1547
C59 C 0.2750(2) -0.1223(3) 0.1249(2)
H41 H 0.2614 -0.0907 0.1104
N2 N 0.40511(17) -0.1436(4) 0.0299(2)
C60 C 0.4102(2) -0.1176(3) 0.0025(3)
H42 H 0.3984 -0.0828 -0.0089
C61 C 0.4328(3) -0.1436(5) -0.0078(3)
H43 H 0.4362 -0.1262 -0.0261
C62 C 0.4503(3) -0.1956(5) 0.0093(4)
H44 H 0.4654 -0.2130 0.0023
C63 C 0.4453(3) -0.2217(4) 0.0367(4)
H45 H 0.4570 -0.2565 0.0481
C64 C 0.4226(3) -0.1957(4) 0.0470(3)
H46 H 0.4193 -0.2131 0.0653
N3 N 0.2831(2) 0.0826(2) -0.00499(18)
C65 C 0.2561(2) 0.1074(4) -0.00110(19)
H47 H 0.2471 0.0873 0.0120
C66 C 0.2424(2) 0.1622(4) -0.0167(3)
H48 H 0.2243 0.1789 -0.0141
C67 C 0.2558(3) 0.1922(3) -0.0363(2)
H49 H 0.2467 0.2289 -0.0468
C68 C 0.2828(3) 0.1674(4) -0.0402(2)
H50 H 0.2918 0.1875 -0.0533
C69 C 0.29650(19) 0.1126(5) -0.0245(2)
H51 H 0.3146 0.0959 -0.0271
N4 N 0.3161(2) 0.5028(3) 0.23430(14)
C70 C 0.2821(2) 0.4825(3) 0.2099(3)
H52 H 0.2730 0.4510 0.2169
C71 C 0.26174(15) 0.5092(5) 0.1753(2)
H53 H 0.2390 0.4956 0.1590
C72 C 0.2754(3) 0.5562(4) 0.16492(16)
H54 H 0.2618 0.5741 0.1417
C73 C 0.3094(3) 0.5765(3) 0.1893(3)
H55 H 0.3185 0.6080 0.1824
C74 C 0.32977(16) 0.5498(4) 0.2240(2)
H56 H 0.3525 0.5634 0.2402
N5 N 0.3358(3) 0.2820(2) 0.3691(3)
C75 C 0.35590(17) 0.2568(4) 0.4043(2)
H57 H 0.3779 0.2725 0.4212
C76 C 0.3431(3) 0.2082(4) 0.4143(2)
H58 H 0.3565 0.1913 0.4379
C77 C 0.3102(3) 0.1848(3) 0.3891(4)
H59 H 0.3016 0.1523 0.3958
C78 C 0.29005(19) 0.2100(4) 0.3539(3)
H60 H 0.2680 0.1944 0.3370
C79 C 0.3029(2) 0.2586(4) 0.34389(18)
H61 H 0.2894 0.2755 0.3203
N6 N 0.47131(13) 0.4951(4) 0.4137(2)
C80 C 0.4854(3) 0.5403(4) 0.40253(18)
H62 H 0.4720 0.5572 0.3790
C81 C 0.5196(3) 0.5602(3) 0.4266(3)
H63 H 0.5291 0.5905 0.4191
C82 C 0.53966(15) 0.5350(5) 0.4618(3)
H64 H 0.5625 0.5484 0.4779
C83 C 0.5255(2) 0.4899(4) 0.47299(16)
H65 H 0.5390 0.4730 0.4966
C84 C 0.4914(3) 0.4699(3) 0.4490(3)
H66 H 0.4819 0.4397 0.4565
Fe1B Fe 0.68524(3) -0.10900(5) 0.42062(3)
Fe2B Fe 0.63590(3) -0.10902(5) 0.46144(3)
Fe3B Fe 0.69364(3) -0.00174(5) 0.47940(3)
Fe4B Fe 0.65316(3) 0.46330(5) 0.20796(3)
Fe5B Fe 0.64441(3) 0.36132(5) 0.14529(3)
Fe6B Fe 0.58140(3) 0.46041(6) 0.12361(3)
O1B O 0.67267(11) -0.07495(19) 0.45536(12)
O2B O 0.62716(12) 0.4295(2) 0.15887(12)
S1B S 0.66102(8) -0.22952(12) 0.44131(9)
S2B S 0.68731(8) -0.06288(14) 0.54584(8)
S3B S 0.76147(7) -0.06040(13) 0.48214(8)
S4B S 0.61559(9) 0.58319(15) 0.16474(10)
S5B S 0.60292(9) 0.41689(17) 0.06380(9)
S6B S 0.71940(8) 0.42323(14) 0.19958(9)
O3B O 0.68719(13) -0.1928(2) 0.43625(14)
O4B O 0.64996(14) -0.1927(2) 0.46436(15)
O5B O 0.63027(16) -0.2463(2) 0.40534(17)
O6B O 0.68085(15) -0.2792(2) 0.46495(17)
O7B O 0.66389(14) -0.1070(2) 0.51699(15)
O8B O 0.69778(17) -0.0187(2) 0.52754(15)
O9B O 0.6711(2) -0.0385(4) 0.5647(3)
O10B O 0.71977(19) -0.0918(3) 0.57327(17)
O11B O 0.74296(14) -0.0283(2) 0.49893(15)
O12B O 0.73658(13) -0.1043(2) 0.45498(15)
O13B O 0.77165(16) -0.0194(3) 0.46332(19)
O14B O 0.79191(15) -0.0902(3) 0.51290(17)
O15B O 0.64636(15) 0.5462(2) 0.19317(15)
O16B O 0.59432(15) 0.5455(3) 0.13066(16)
O17B O 0.5926(2) 0.6016(3) 0.1803(2)
O18B O 0.6295(2) 0.6331(3) 0.15474(19)
O19B O 0.58696(15) 0.4602(3) 0.07859(15)
O20B O 0.63448(14) 0.3883(2) 0.09632(14)
O21B O 0.57798(19) 0.3704(3) 0.04186(18)
O22B O 0.61594(17) 0.4485(3) 0.04298(17)
O23B O 0.69273(14) 0.3920(2) 0.16421(15)
O24B O 0.69891(14) 0.4667(2) 0.20940(15)
O25B O 0.73720(16) 0.3801(3) 0.22943(19)
O26B O 0.74210(16) 0.4598(3) 0.19148(18)
O27B O 0.69204(18) 0.0374(3) 0.43592(18)
O28B O 0.68567(16) -0.0339(3) 0.39436(16)
O29B O 0.65894(15) 0.3180(2) 0.19339(16)
O30B O 0.66506(15) 0.3858(3) 0.23518(14)
O31B O 0.63354(15) -0.1174(2) 0.37961(13)
O32B O 0.6006(2) -0.1157(4) 0.40754(19)
O33B O 0.61025(19) -0.0351(3) 0.4574(2)
O34B O 0.64600(16) 0.0375(2) 0.46258(16)
O35B O 0.61261(16) 0.4669(3) 0.21753(16)
O36B O 0.56533(15) 0.4642(3) 0.16105(16)
O37B O 0.55787(14) 0.3803(3) 0.11035(16)
O38B O 0.59992(16) 0.3136(3) 0.12348(18)
C1B C 0.6847(4) 0.0525(4) 0.3471(4)
H1B H 0.6822 0.0130 0.3403
C2B C 0.6897(3) 0.0686(5) 0.3802(3)
C3B C 0.6969(4) 0.1229(6) 0.3907(4)
H2B H 0.7059 0.1329 0.4157
C4B C 0.7018(7) 0.2272(8) 0.3779(5)
H3B H 0.6902 0.2376 0.3918
H4B H 0.7270 0.2265 0.3957
C5B C 0.6958(5) 0.2704(5) 0.3538(4)
H5B H 0.7171 0.2941 0.3643
H6B H 0.6775 0.2952 0.3534
C6B C 0.6810(3) 0.3021(5) 0.2889(3)
H7B H 0.6842 0.3415 0.2961
C7B C 0.6722(3) 0.2858(4) 0.2534(3)
C8B C 0.6698(4) 0.2279(5) 0.2407(3)
H8B H 0.6677 0.2178 0.2178
C9B C 0.6663(7) 0.1236(7) 0.2544(4)
H9B H 0.6417 0.1129 0.2441
H10B H 0.6724 0.1173 0.2351
C10B C 0.6883(8) 0.0847(7) 0.2863(6)
H11B H 0.7129 0.0902 0.2937
H12B H 0.6821 0.0440 0.2786
C11B C 0.6832(4) 0.0979(6) 0.3221(3)
C12B C 0.6867(3) 0.1545(5) 0.3309(4)
C13B C 0.6912(5) 0.1672(6) 0.3642(4)
C14B C 0.6850(3) 0.2586(6) 0.3135(3)
C15B C 0.6814(3) 0.2009(6) 0.3036(4)
C16B C 0.6710(4) 0.1895(6) 0.2650(5)
C17B C 0.6906(3) 0.0204(5) 0.4059(3)
C18B C 0.6655(3) 0.3315(5) 0.2256(3)
C19B C 0.6026(3) -0.1214(4) 0.3810(4)
C20B C 0.5740(3) -0.1290(4) 0.3398(3)
C21B C 0.5779(3) -0.1314(5) 0.3096(3)
H13B H 0.6004 -0.1309 0.3125
C22B C 0.5493(4) -0.1345(5) 0.2752(3)
C23B C 0.5166(3) -0.1374(4) 0.2709(3)
C24B C 0.5125(3) -0.1377(5) 0.3012(4)
C25B C 0.5419(3) -0.1334(5) 0.3364(3)
H14B H 0.5396 -0.1337 0.3576
C26B C 0.5520(3) -0.1281(9) 0.2389(4)
H15B H 0.5617 -0.0892 0.2399
H16B H 0.5697 -0.1562 0.2412
C27B C 0.4745(3) -0.1341(10) 0.2942(3)
H17B H 0.4704 -0.1697 0.3046
H18B H 0.4738 -0.1014 0.3090
C28B C 0.6163(3) 0.0134(6) 0.4583(3)
C29B C 0.5904(3) 0.0624(5) 0.4502(3)
C30B C 0.5994(3) 0.1252(6) 0.4530(3)
H19B H 0.6223 0.1382 0.4607
C31B C 0.5715(5) 0.1640(5) 0.4433(4)
C32B C 0.5371(3) 0.1442(8) 0.4330(3)
C33B C 0.5298(4) 0.0871(6) 0.4306(4)
C34B C 0.5571(3) 0.0470(5) 0.4388(3)
H20B H 0.5516 0.0070 0.4361
C35B C 0.4929(3) 0.0746(6) 0.4187(5)
H21B H 0.4814 0.0631 0.3926
H22B H 0.4927 0.0401 0.4325
C36B C 0.5855(3) 0.2257(8) 0.4472(6)
H23B H 0.5999 0.2357 0.4735
H24B H 0.6001 0.2284 0.4357
C37B C 0.5575(5) 0.2642(5) 0.4300(7)
H25B H 0.5553 0.2746 0.4062
H26B H 0.5645 0.2998 0.4450
C38B C 0.5795(3) 0.4696(4) 0.1950(3)
C39B C 0.5579(3) 0.4741(4) 0.2145(4)
C40B C 0.5223(4) 0.4781(5) 0.1921(3)
H27B H 0.5123 0.4789 0.1662
C41B C 0.4994(4) 0.4811(7) 0.2085(6)
C42B C 0.5114(3) 0.4757(5) 0.2442(3)
C43B C 0.5472(4) 0.4739(6) 0.2659(4)
C44B C 0.5706(3) 0.4740(6) 0.2528(3)
H28B H 0.5948 0.4739 0.2696
C45B C 0.5593(3) 0.4540(11) 0.3053(4)
H29B H 0.5577 0.4115 0.3063
H30B H 0.5837 0.4656 0.3219
C46B C 0.4626(4) 0.4808(13) 0.1836(4)
H31B H 0.4550 0.5215 0.1774
H32B H 0.4584 0.4618 0.1607
C47B C 0.5692(3) 0.3265(5) 0.1119(3)
C48B C 0.5414(3) 0.2783(6) 0.0987(3)
C49B C 0.5481(3) 0.2224(6) 0.0954(3)
H33B H 0.5703 0.2125 0.0992
C50B C 0.5233(3) 0.1784(8) 0.0865(4)
C51B C 0.5071(4) 0.1932(5) 0.4210(3)
C52B C 0.5176(3) 0.2483(8) 0.4214(4)
C53B C 0.5075(3) 0.2970(5) 0.0898(4)
H34B H 0.5016 0.3361 0.0908
C54B C 0.4720(4) 0.1149(5) 0.4216(5)
H35B H 0.4758 0.1130 0.4468
H36B H 0.4476 0.1037 0.4046
N1B N 0.6980(2) -0.1444(4) 0.38008(16)
C55B C 0.67770(16) -0.1916(4) 0.3585(3)
H37B H 0.6596 -0.2064 0.3618
C56B C 0.6844(2) -0.2167(3) 0.3320(2)
H38B H 0.6708 -0.2482 0.3176
C57B C 0.7114(3) -0.1946(4) 0.32705(19)
H39B H 0.7159 -0.2113 0.3093
C58B C 0.73173(19) -0.1474(5) 0.3486(3)
H40B H 0.7498 -0.1326 0.3453
C59B C 0.7250(2) -0.1223(3) 0.3751(2)
H41B H 0.7386 -0.0907 0.3896
N2B N 0.59489(17) -0.1436(4) 0.4701(2)
C60B C 0.5898(2) -0.1176(3) 0.4975(3)
H42B H 0.6016 -0.0828 0.5089
C61B C 0.5672(3) -0.1436(5) 0.5078(3)
H43B H 0.5638 -0.1262 0.5261
C62B C 0.5497(3) -0.1956(5) 0.4907(4)
H44B H 0.5346 -0.2130 0.4977
C63B C 0.5547(3) -0.2217(4) 0.4633(4)
H45B H 0.5430 -0.2565 0.4519
C64B C 0.5774(3) -0.1957(4) 0.4530(3)
H46B H 0.5807 -0.2131 0.4347
N3B N 0.7169(2) 0.0826(2) 0.50499(18)
C65B C 0.7439(2) 0.1074(4) 0.50110(19)
H47B H 0.7529 0.0873 0.4880
C66B C 0.7576(2) 0.1622(4) 0.5167(3)
H48B H 0.7757 0.1789 0.5141
C67B C 0.7442(3) 0.1922(3) 0.5363(2)
H49B H 0.7533 0.2289 0.5468
C68B C 0.7172(3) 0.1674(4) 0.5402(2)
H50B H 0.7082 0.1875 0.5533
C69B C 0.70350(19) 0.1126(5) 0.5245(2)
H51B H 0.6854 0.0959 0.5271
N4B N 0.6839(2) 0.5028(3) 0.26570(14)
C70B C 0.7179(2) 0.4825(3) 0.2901(3)
H52B H 0.7270 0.4510 0.2831
C71B C 0.73826(15) 0.5092(5) 0.3247(2)
H53B H 0.7610 0.4956 0.3410
C72B C 0.7246(3) 0.5562(4) 0.33508(16)
H54B H 0.7382 0.5741 0.3583
C73B C 0.6906(3) 0.5765(3) 0.3107(3)
H55B H 0.6815 0.6080 0.3176
C74B C 0.67023(16) 0.5498(4) 0.2760(2)
H56B H 0.6475 0.5634 0.2598
N5B N 0.6642(3) 0.2820(2) 0.1309(3)
C75B C 0.64410(17) 0.2568(4) 0.0957(2)
H57B H 0.6221 0.2725 0.0788
C76B C 0.6569(3) 0.2082(4) 0.0857(2)
H58B H 0.6435 0.1913 0.0621
C77B C 0.6898(3) 0.1848(3) 0.1109(4)
H59B H 0.6984 0.1523 0.1042
C78B C 0.70995(19) 0.2100(4) 0.1461(3)
H60B H 0.7320 0.1944 0.1630
C79B C 0.6971(2) 0.2586(4) 0.15611(18)
H61B H 0.7106 0.2755 0.1797
N6B N 0.52869(13) 0.4951(4) 0.0863(2)
C80B C 0.5146(3) 0.5403(4) 0.09747(18)
H62B H 0.5280 0.5572 0.1210
C81B C 0.4804(3) 0.5602(3) 0.0734(3)
H63B H 0.4709 0.5905 0.0809
C82B C 0.46034(15) 0.5350(5) 0.0382(3)
H64B H 0.4375 0.5484 0.0221
C83B C 0.4745(2) 0.4899(4) 0.02701(16)
H65B H 0.4610 0.4730 0.0034
C84B C 0.5086(3) 0.4699(3) 0.0510(3)
H66B H 0.5181 0.4397 0.0435
loop_
_geom_bond_atom_site_label_1
_geom_bond_atom_site_label_2
_geom_bond_site_symmetry_1
_geom_bond_site_symmetry_2
Fe1 O1 1_555 1_555
Fe2 O1 1_555 1_555
Fe3 O1 1_555 1_555
Fe4 O2 1_555 1_555
Fe5 O2 1_555 1_555
Fe6 O2 1_555 1_555
S1 O3 1_555 1_555
S2 O7 1_555 1_555
S3 O11 1_555 1_555
S4 O15 1_555 1_555
S5 O19 1_555 1_555
S6 O23 1_555 1_555
O3 Fe1 1_555 1_555
O4 Fe2 1_555 1_555
O5 S1 1_555 1_555
O6 S1 1_555 1_555
O7 Fe2 1_555 1_555
O8 Fe3 1_555 1_555
O9 S2 1_555 1_555
O10 S2 1_555 1_555
O11 Fe3 1_555 1_555
O12 Fe1 1_555 1_555
O13 S3 1_555 1_555
O14 S3 1_555 1_555
O15 Fe4 1_555 1_555
O16 Fe6 1_555 1_555
O17 S4 1_555 1_555
O18 S4 1_555 1_555
O19 Fe6 1_555 1_555
O20 Fe5 1_555 1_555
O21 S5 1_555 1_555
O22 S5 1_555 1_555
O23 Fe5 1_555 1_555
O24 Fe4 1_555 1_555
O25 S6 1_555 1_555
O26 S6 1_555 1_555
O27 Fe3 1_555 1_555
O28 Fe1 1_555 1_555
O29 Fe5 1_555 1_555
O30 Fe4 1_555 1_555
O31 Fe1 1_555 1_555
O32 Fe2 1_555 1_555
O33 Fe2 1_555 1_555
O34 Fe3 1_555 1_555
O35 Fe4 1_555 1_555
O36 Fe6 1_555 1_555
O37 Fe6 1_555 1_555
O38 Fe5 1_555 1_555
C1 H1 1_555 1_555
C2 C1 1_555 1_555
C3 C2 1_555 1_555
H2 C3 1_555 1_555
C4 H3 1_555 1_555
H4 C4 1_555 1_555
C5 C4 1_555 1_555
H5 C5 1_555 1_555
H6 C5 1_555 1_555
C6 H7 1_555 1_555
C7 C6 1_555 1_555
C8 C7 1_555 1_555
H8 C8 1_555 1_555
C9 H9 1_555 1_555
H10 C9 1_555 1_555
C10 C9 1_555 1_555
H11 C10 1_555 1_555
H12 C10 1_555 1_555
C11 C1 1_555 1_555
C12 C11 1_555 1_555
C13 C3 1_555 1_555
C14 C5 1_555 1_555
C15 C12 1_555 1_555
C16 C8 1_555 1_555
C17 O27 1_555 1_555
C18 O29 1_555 1_555
C19 O31 1_555 1_555
C20 C19 1_555 1_555
C21 C20 1_555 1_555
H13 C21 1_555 1_555
C22 C21 1_555 1_555
C23 C22 1_555 1_555
C24 C23 1_555 1_555
C25 C20 1_555 1_555
H14 C25 1_555 1_555
C26 C22 1_555 1_555
H15 C26 1_555 1_555
H16 C26 1_555 1_555
C27 C24 1_555 1_555
H17 C27 1_555 1_555
H18 C27 1_555 1_555
C28 O33 1_555 1_555
C29 C28 1_555 1_555
C30 C29 1_555 1_555
H19 C30 1_555 1_555
C31 C30 1_555 1_555
C32 C31 1_555 1_555
C33 C32 1_555 1_555
C34 C29 1_555 1_555
H20 C34 1_555 1_555
C35 C33 1_555 1_555
H21 C35 1_555 1_555
H22 C35 1_555 1_555
C36 C31 1_555 1_555
H23 C36 1_555 1_555
H24 C36 1_555 1_555
C37 C36 1_555 1_555
H25 C37 1_555 1_555
H26 C37 1_555 1_555
C38 O35 1_555 1_555
C39 C38 1_555 1_555
C40 C39 1_555 1_555
H27 C40 1_555 1_555
C41 C40 1_555 1_555
C42 C41 1_555 1_555
C43 C42 1_555 1_555
C44 C39 1_555 1_555
H28 C44 1_555 1_555
C45 C43 1_555 1_555
H29 C45 1_555 1_555
H30 C45 1_555 1_555
C46 C41 1_555 1_555
H31 C46 1_555 1_555
H32 C46 1_555 1_555
C47 O37 1_555 1_555
C48 C47 1_555 1_555
C49 C48 1_555 1_555
H33 C49 1_555 1_555
C50 C49 1_555 1_555
C51 C32 1_555 1_555
C52 C37 1_555 1_555
C53 C48 1_555 1_555
H34 C53 1_555 1_555
C54 C35 1_555 1_555
H35 C54 1_555 1_555
H36 C54 1_555 1_555
N1 Fe1 1_555 1_555
C55 N1 1_555 1_555
H37 C55 1_555 1_555
C56 C55 1_555 1_555
H38 C56 1_555 1_555
C57 C56 1_555 1_555
H39 C57 1_555 1_555
C58 C57 1_555 1_555
H40 C58 1_555 1_555
C59 N1 1_555 1_555
H41 C59 1_555 1_555
N2 Fe2 1_555 1_555
C60 N2 1_555 1_555
H42 C60 1_555 1_555
C61 C60 1_555 1_555
H43 C61 1_555 1_555
C62 C61 1_555 1_555
H44 C62 1_555 1_555
C63 C62 1_555 1_555
H45 C63 1_555 1_555
C64 N2 1_555 1_555
H46 C64 1_555 1_555
N3 Fe3 1_555 1_555
C65 N3 1_555 1_555
H47 C65 1_555 1_555
C66 C65 1_555 1_555
H48 C66 1_555 1_555
C67 C66 1_555 1_555
H49 C67 1_555 1_555
C68 C67 1_555 1_555
H50 C68 1_555 1_555
C69 N3 1_555 1_555
H51 C69 1_555 1_555
N4 Fe4 1_555 1_555
C70 N4 1_555 1_555
H52 C70 1_555 1_555
C71 C70 1_555 1_555
H53 C71 1_555 1_555
C72 C71 1_555 1_555
H54 C72 1_555 1_555
C73 C72 1_555 1_555
H55 C73 1_555 1_555
C74 N4 1_555 1_555
H56 C74 1_555 1_555
N5 Fe5 1_555 1_555
C75 N5 1_555 1_555
H57 C75 1_555 1_555
C76 C75 1_555 1_555
H58 C76 1_555 1_555
C77 C76 1_555 1_555
H59 C77 1_555 1_555
C78 C77 1_555 1_555
H60 C78 1_555 1_555
C79 N5 1_555 1_555
H61 C79 1_555 1_555
N6 Fe6 1_555 1_555
C80 N6 1_555 1_555
H62 C80 1_555 1_555
C81 C80 1_555 1_555
H63 C81 1_555 1_555
C82 C81 1_555 1_555
H64 C82 1_555 1_555
C83 C82 1_555 1_555
H65 C83 1_555 1_555
C84 N6 1_555 1_555
H66 C84 1_555 1_555
Fe1B O1B 1_555 1_555
Fe2B O1B 1_555 1_555
Fe3B O1B 1_555 1_555
Fe4B O2B 1_555 1_555
Fe5B O2B 1_555 1_555
Fe6B O2B 1_555 1_555
S1B O3B 1_555 1_555
S2B O7B 1_555 1_555
S3B O11B 1_555 1_555
S4B O15B 1_555 1_555
S5B O19B 1_555 1_555
S6B O23B 1_555 1_555
O3B Fe1B 1_555 1_555
O4B Fe2B 1_555 1_555
O5B S1B 1_555 1_555
O6B S1B 1_555 1_555
O7B Fe2B 1_555 1_555
O8B Fe3B 1_555 1_555
O9B S2B 1_555 1_555
O10B S2B 1_555 1_555
O11B Fe3B 1_555 1_555
O12B Fe1B 1_555 1_555
O13B S3B 1_555 1_555
O14B S3B 1_555 1_555
O15B Fe4B 1_555 1_555
O16B Fe6B 1_555 1_555
O17B S4B 1_555 1_555
O18B S4B 1_555 1_555
O19B Fe6B 1_555 1_555
O20B Fe5B 1_555 1_555
O21B S5B 1_555 1_555
O22B S5B 1_555 1_555
O23B Fe5B 1_555 1_555
O24B Fe4B 1_555 1_555
O25B S6B 1_555 1_555
O26B S6B 1_555 1_555
O27B Fe3B 1_555 1_555
O28B Fe1B 1_555 1_555
O29B Fe5B 1_555 1_555
O30B Fe4B 1_555 1_555
O31B Fe1B 1_555 1_555
O32B Fe2B 1_555 1_555
O33B Fe2B 1_555 1_555
O34B Fe3B 1_555 1_555
O35B Fe4B 1_555 1_555
O36B Fe6B 1_555 1_555
O37B Fe6B 1_555 1_555
O38B Fe5B 1_555 1_555
C1B H1B 1_555 1_555
C2B C1B 1_555 1_555
C3B C2B 1_555 1_555
H2B C3B 1_555 1_555
C4B H3B 1_555 1_555
H4B C4B 1_555 1_555
C5B C4B 1_555 1_555
H5B C5B 1_555 1_555
H6B C5B 1_555 1_555
C6B H7B 1_555 1_555
C7B C6B 1_555 1_555
C8B C7B 1_555 1_555
H8B C8B 1_555 1_555
C9B H9B 1_555 1_555
H10B C9B 1_555 1_555
C10B C9B 1_555 1_555
H11B C10B 1_555 1_555
H12B C10B 1_555 1_555
C11B C1B 1_555 1_555
C12B C11B 1_555 1_555
C13B C3B 1_555 1_555
C14B C5B 1_555 1_555
C15B C12B 1_555 1_555
C16B C8B 1_555 1_555
C17B O27B 1_555 1_555
C18B O29B 1_555 1_555
C19B O31B 1_555 1_555
C20B C19B 1_555 1_555
C21B C20B 1_555 1_555
H13B C21B 1_555 1_555
C22B C21B 1_555 1_555
C23B C23 1_555 1_555
C24B C23B 1_555 1_555
C25B C20B 1_555 1_555
H14B C25B 1_555 1_555
C26B C27 1_555 1_555
H15B C26B 1_555 1_555
H16B C26B 1_555 1_555
C27B C26 1_555 1_555
H17B C27B 1_555 1_555
H18B C27B 1_555 1_555
C28B O33B 1_555 1_555
C29B C28B 1_555 1_555
C30B C29B 1_555 1_555
H19B C30B 1_555 1_555
C31B C30B 1_555 1_555
C32B C31B 1_555 1_555
C33B C32B 1_555 1_555
C34B C29B 1_555 1_555
H20B C34B 1_555 1_555
C35B C33B 1_555 1_555
H21B C35B 1_555 1_555
H22B C35B 1_555 1_555
C36B C31B 1_555 1_555
H23B C36B 1_555 1_555
H24B C36B 1_555 1_555
C37B C36B 1_555 1_555
H25B C37B 1_555 1_555
H26B C37B 1_555 1_555
C38B O35B 1_555 1_555
C39B C38B 1_555 1_555
C40B C39B 1_555 1_555
H27B C40B 1_555 1_555
C41B C40B 1_555 1_555
C42B C42 1_555 1_555
C43B C42B 1_555 1_555
C44B C39B 1_555 1_555
H28B C44B 1_555 1_555
C45B C46 1_555 1_555
H29B C45B 1_555 1_555
H30B C45B 1_555 1_555
C46B C45 1_555 1_555
H31B C46B 1_555 1_555
H32B C46B 1_555 1_555
C47B O37B 1_555 1_555
C48B C47B 1_555 1_555
C49B C48B 1_555 1_555
H33B C49B 1_555 1_555
C50B C51 1_555 1_555
C51B C50 1_555 1_555
C52B C53 1_555 1_555
C53B C52 1_555 1_555
H34B C53B 1_555 1_555
C54B C50 1_555 1_555
H35B C54B 1_555 1_555
H36B C54B 1_555 1_555
N1B Fe1B 1_555 1_555
C55B N1B 1_555 1_555
H37B C55B 1_555 1_555
C56B C55B 1_555 1_555
H38B C56B 1_555 1_555
C57B C56B 1_555 1_555
H39B C57B 1_555 1_555
C58B C57B 1_555 1_555
H40B C58B 1_555 1_555
C59B N1B 1_555 1_555
H41B C59B 1_555 1_555
N2B Fe2B 1_555 1_555
C60B N2B 1_555 1_555
H42B C60B 1_555 1_555
C61B C60B 1_555 1_555
H43B C61B 1_555 1_555
C62B C61B 1_555 1_555
H44B C62B 1_555 1_555
C63B C62B 1_555 1_555
H45B C63B 1_555 1_555
C64B N2B 1_555 1_555
H46B C64B 1_555 1_555
N3B Fe3B 1_555 1_555
C65B N3B 1_555 1_555
H47B C65B 1_555 1_555
C66B C65B 1_555 1_555
H48B C66B 1_555 1_555
C67B C66B 1_555 1_555
H49B C67B 1_555 1_555
C68B C67B 1_555 1_555
H50B C68B 1_555 1_555
C69B N3B 1_555 1_555
H51B C69B 1_555 1_555
N4B Fe4B 1_555 1_555
C70B N4B 1_555 1_555
H52B C70B 1_555 1_555
C71B C70B 1_555 1_555
H53B C71B 1_555 1_555
C72B C71B 1_555 1_555
H54B C72B 1_555 1_555
C73B C72B 1_555 1_555
H55B C73B 1_555 1_555
C74B N4B 1_555 1_555
H56B C74B 1_555 1_555
N5B Fe5B 1_555 1_555
C75B N5B 1_555 1_555
H57B C75B 1_555 1_555
C76B C75B 1_555 1_555
H58B C76B 1_555 1_555
C77B C76B 1_555 1_555
H59B C77B 1_555 1_555
C78B C77B 1_555 1_555
H60B C78B 1_555 1_555
C79B N5B 1_555 1_555
H61B C79B 1_555 1_555
N6B Fe6B 1_555 1_555
C80B N6B 1_555 1_555
H62B C80B 1_555 1_555
C81B C80B 1_555 1_555
H63B C81B 1_555 1_555
C82B C81B 1_555 1_555
H64B C82B 1_555 1_555
C83B C82B 1_555 1_555
H65B C83B 1_555 1_555
C84B N6B 1_555 1_555
H66B C84B 1_555 1_555
S1 O4 1_555 1_555
S2 O8 1_555 1_555
S3 O12 1_555 1_555
S4 O16 1_555 1_555
S5 O20 1_555 1_555
S6 O24 1_555 1_555
O28 C17 1_555 1_555
O30 C18 1_555 1_555
O32 C19 1_555 1_555
O34 C28 1_555 1_555
O36 C38 1_555 1_555
O38 C47 1_555 1_555
C2 C17 1_555 1_555
C4 C13 1_555 1_555
C6 C14 1_555 1_555
C7 C18 1_555 1_555
C9 C16 1_555 1_555
C10 C11 1_555 1_555
C12 C13 1_555 1_555
C14 C15 1_555 1_555
C15 C16 1_555 1_555
C24 C25 1_555 1_555
C33 C34 1_555 1_555
C43 C44 1_555 1_555
C51 C52 1_555 1_555
C54 C50B 1_555 1_555
C58 C59 1_555 1_555
C63 C64 1_555 1_555
C68 C69 1_555 1_555
C73 C74 1_555 1_555
C78 C79 1_555 1_555
C83 C84 1_555 1_555
S1B O4B 1_555 1_555
S2B O8B 1_555 1_555
S3B O12B 1_555 1_555
S4B O16B 1_555 1_555
S5B O20B 1_555 1_555
S6B O24B 1_555 1_555
O28B C17B 1_555 1_555
O30B C18B 1_555 1_555
O32B C19B 1_555 1_555
O34B C28B 1_555 1_555
O36B C38B 1_555 1_555
O38B C47B 1_555 1_555
C2B C17B 1_555 1_555
C4B C13B 1_555 1_555
C6B C14B 1_555 1_555
C7B C18B 1_555 1_555
C9B C16B 1_555 1_555
C10B C11B 1_555 1_555
C12B C13B 1_555 1_555
C14B C15B 1_555 1_555
C15B C16B 1_555 1_555
C22B C23B 1_555 1_555
C22B C26B 1_555 1_555
C24B C25B 1_555 1_555
C24B C27B 1_555 1_555
C32B C51B 1_555 1_555
C33B C34B 1_555 1_555
C35B C54B 1_555 1_555
C37B C52B 1_555 1_555
C41B C42B 1_555 1_555
C41B C46B 1_555 1_555
C43B C44B 1_555 1_555
C43B C45B 1_555 1_555
C48B C53B 1_555 1_555
C49B C50B 1_555 1_555
C51B C52B 1_555 1_555
C58B C59B 1_555 1_555
C63B C64B 1_555 1_555
C68B C69B 1_555 1_555
C73B C74B 1_555 1_555
C78B C79B 1_555 1_555
C83B C84B 1_555 1_555

#END
