
#######################################################################
#
#                 Cambridge Crystallographic Data Centre
#                                CCDC 
#
#######################################################################
#
# If this CIF has been generated from an entry in the Cambridge 
# Structural Database, then it will include bibliographic, chemical, 
# crystal, experimental, refinement or atomic coordinate data resulting 
# from the CCDC's data processing and validation procedures.
#
#######################################################################

data_JANZOO
_chemical_name_common            IRMOP-53
_chemical_formula_moiety         
'C180 H132 Fe12 N12 O76 S12 8-,8(C2 H8 N1 1+),x(C5 H5 N1),x(H2 O1)'
_chemical_name_systematic        
"octakis(Dimethylammonium) hexakis(\m~4~-4,4''-terphenyldicarboxylato-O,O',O'',O''')-tetrakis(\m~3~-oxo)-dodecakis(\m~2~-sulfato-O,O')-dodecakis(pyridine-N)-dodeca-iron pyridine hydrate clathrate"
_symmetry_cell_setting           triclinic
_symmetry_space_group_name_H-M   'P -1'
_symmetry_Int_Tables_number      2
_space_group_name_Hall           '-P 1'
loop_
_symmetry_equiv_pos_site_id
_symmetry_equiv_pos_as_xyz
1 x,y,z
2 -x,-y,-z
_cell_length_a                   31.642(3)
_cell_length_b                   31.762(3)
_cell_length_c                   31.830(3)
_cell_angle_alpha                75.847(2)
_cell_angle_beta                 75.264(2)
_cell_angle_gamma                60.155(2)
_cell_volume                     26567.8
_exptl_crystal_colour            orange
_exptl_crystal_description       plate
_cell_formula_units_Z            2
loop_
_atom_site_label
_atom_site_type_symbol
_atom_site_fract_x
_atom_site_fract_y
_atom_site_fract_z
N13 N 0.8145(6) 0.9564(6) 0.3454(6)
C181 C 0.8215(7) 0.9119(8) 0.3377(5)
C182 C 0.8515(7) 0.8683(6) 0.3615(6)
C183 C 0.8745(6) 0.8693(6) 0.3929(6)
C184 C 0.8674(7) 0.9137(8) 0.4005(5)
C185 C 0.8375(7) 0.9573(6) 0.3768(7)
N14 N 0.5695(15) 0.9473(12) 0.3387(8)
C186 C 0.6075(9) 0.8994(15) 0.3414(9)
C187 C 0.5987(13) 0.8618(9) 0.3677(12)
C188 C 0.5520(17) 0.8720(13) 0.3913(9)
C189 C 0.5140(10) 0.9198(17) 0.3886(9)
C190 C 0.5228(11) 0.9575(10) 0.3623(11)
N15 N 0.0592(4) 0.9539(4) 0.9769(3)
C191 C 0.0573(3) 0.9628(4) 0.9323(3)
C192 C 0.0871(3) 0.9811(4) 0.9028(3)
C193 C 0.1187(3) 0.9904(4) 0.9180(3)
C194 C 0.1206(4) 0.9814(4) 0.9626(3)
C195 C 0.0908(4) 0.9632(4) 0.9921(3)
O78 O 0.6020(3) 0.7572(3) 0.8502(2)
O79 O 0.5863(3) 0.7459(3) 0.7884(2)
O80 O 0.6553(3) 0.6734(3) 0.8029(2)
O82 O 0.3456(4) 0.9136(4) 0.9456(2)
O83 O 0.2622(4) 0.9282(4) 0.9539(3)
O84 O 0.7159(2) 0.3236(2) 0.2325(2)
O85 O 0.7256(2) 0.2500(2) 0.2460(2)
O87 O 0.1165(4) 0.1283(4) 0.2561(4)
O88 O 0.1501(4) 0.0713(4) 0.2086(4)
O90 O 0.3536(3) 0.9641(3) 0.6373(2)
O94 O 0.9647(3) 0.8585(3) 0.1152(3)
O95 O 0.9732(3) 0.8749(4) 0.0306(3)
O96 O 0.4990(3) 0.5889(3) 0.89041(17)
O97 O 0.4291(3) 0.6970(4) 0.90824(19)
O98 O 0.5199(4) 0.6284(4) 0.93300(18)
O100 O 0.8409(2) 0.6877(3) 0.2634(2)
O101 O 0.8573(2) 0.6214(2) 0.3304(2)
O102 O 0.82460(19) 0.4245(2) 0.2994(2)
O103 O 0.0956(3) 0.4275(3) 0.2971(3)
O104 O 0.7697(2) 0.7836(2) 0.3534(2)
O105 O 0.9552(2) 0.5158(3) 0.1664(2)
O106 O 0.8897(2) 0.4831(3) 0.1663(2)
O107 O 0.5298(2) 0.7198(2) 0.25574(17)
O108 O 0.6325(3) 0.8526(2) 0.10754(19)
O109 O 0.1935(2) 0.7088(3) 0.2077(2)
O110 O 0.7834(2) 0.5800(3) 0.09085(18)
O111 O 0.0526(3) 0.4779(4) 0.1630(3)
O112 O 0.0622(3) 0.4005(3) 0.4930(3)
O113 O 0.7594(2) 0.3639(2) 0.3797(2)
O114 O 0.7959(2) 0.3981(3) 0.0934(2)
O115 O 0.12942(19) 0.7311(2) 0.4233(2)
O116 O 0.1260(2) 0.7160(3) 0.2600(3)
O121 O 0.85410(18) 0.4679(2) 0.3268(2)
O124 O 0.0007(3) 0.4576(3) 0.3373(3)
Fe1 Fe 0.08327(4) 0.57748(4) 0.28714(4)
Fe2 Fe -0.01957(4) 0.68353(4) 0.28522(4)
Fe3 Fe 0.03407(4) 0.63548(4) 0.37454(4)
Fe4 Fe 0.08467(4) 1.29274(4) 0.28358(4)
Fe5 Fe 0.03545(4) 1.24455(4) 0.37412(4)
Fe6 Fe -0.02087(4) 1.29230(4) 0.28667(4)
Fe7 Fe 0.37667(5) 0.86328(4) -0.23578(4)
Fe8 Fe 0.37517(5) 0.96716(4) -0.23051(4)
Fe9 Fe 0.27082(5) 0.96634(4) -0.23101(4)
Fe10 Fe 0.64471(4) 0.63592(4) 0.36983(5)
Fe11 Fe 0.69520(4) 0.68454(4) 0.28069(5)
Fe12 Fe 0.69689(4) 0.57907(4) 0.28159(5)
S1 S -0.00320(8) 0.59528(8) 0.23967(9)
S2 S 0.08341(11) 0.51861(8) 0.38493(9)
S3 S -0.08417(8) 0.68986(9) 0.38076(8)
S4 S 0.08999(11) 1.30518(10) 0.37841(10)
S5 S -0.00413(10) 1.38589(8) 0.23953(9)
S6 S -0.08215(9) 1.30558(11) 0.38352(10)
S7 S 0.46333(14) 0.88915(12) -0.28967(12)
S8 S 0.29320(15) 0.88813(12) -0.29088(11)
S9 S 0.28918(10) 1.05843(9) -0.27853(10)
S10 S 0.70551(10) 0.68927(11) 0.37674(11)
S11 S 0.70458(10) 0.51911(9) 0.37797(11)
S12 S 0.79041(8) 0.59668(9) 0.23498(11)
O1 O 0.03181(17) 0.63185(16) 0.31574(16)
O2 O -0.07501(18) 0.6878(2) 0.33311(18)
O3 O -0.1192(2) 0.6719(3) 0.4019(2)
O4 O -0.0997(3) 0.7401(3) 0.3874(3)
O5 O -0.0366(2) 0.6560(2) 0.39782(18)
O6 O 0.0487(2) 0.56704(19) 0.39985(18)
O7 O 0.1313(3) 0.5032(3) 0.3951(3)
O8 O 0.0654(3) 0.4844(3) 0.4049(2)
O9 O 0.0871(2) 0.52439(18) 0.33673(19)
O10 O 0.04007(19) 0.56356(19) 0.26381(19)
O11 O 0.0137(3) 0.6044(3) 0.1944(2)
O12 O -0.0340(2) 0.5711(2) 0.2482(3)
O13 O -0.0336(2) 0.6422(2) 0.25892(19)
O14 O -0.0160(2) 0.73877(18) 0.3023(2)
O15 O 0.0222(2) 0.7054(2) 0.3615(2)
O16 O 0.1065(2) 0.6175(2) 0.3636(2)
O17 O 0.13884(19) 0.5819(2) 0.3032(2)
O18 O 0.0939(2) 0.6188(2) 0.22998(18)
O19 O 0.0261(2) 0.6912(2) 0.22939(19)
O20 O 0.03288(18) 1.27717(17) 0.31457(17)
O21 O 0.0910(2) 1.3190(2) 0.3307(2)
O22 O 0.0740(4) 1.3481(3) 0.3970(3)
O23 O 0.1389(3) 1.2661(4) 0.3864(3)
O24 O 0.0539(2) 1.2852(2) 0.39644(18)
O25 O -0.0337(2) 1.2854(2) 0.39841(18)
O26 O -0.0964(3) 1.2667(4) 0.3937(3)
O27 O -0.1168(3) 1.3491(3) 0.4025(3)
O28 O -0.0750(2) 1.3186(2) 0.3353(2)
O29 O -0.0347(2) 1.36062(19) 0.2609(2)
O30 O 0.0084(3) 1.3830(3) 0.1934(3)
O31 O -0.0318(3) 1.4360(2) 0.2495(3)
O32 O 0.0411(2) 1.36141(19) 0.2603(2)
O33 O 0.1401(2) 1.2254(2) 0.2990(2)
O34 O 0.1068(2) 1.1936(2) 0.3611(2)
O35 O 0.0195(2) 1.19346(19) 0.3638(2)
O36 O -0.0167(2) 1.2256(2) 0.3042(2)
O37 O 0.0215(3) 1.2676(2) 0.2299(2)
O38 O 0.0919(2) 1.2692(2) 0.2272(2)
O39 O 0.3412(2) 0.93249(18) -0.23352(17)
O40 O 0.4324(3) 0.8641(3) -0.2812(2)
O41 O 0.4823(4) 0.8926(4) -0.3352(3)
O42 O 0.5011(3) 0.8633(3) -0.2612(4)
O43 O 0.4310(2) 0.9395(2) -0.2778(2)
O44 O 0.3421(2) 1.0259(2) -0.2727(2)
O45 O 0.2654(3) 1.0898(2) -0.2444(3)
O46 O 0.2882(3) 1.0832(3) -0.3226(3)
O47 O 0.2663(2) 1.0255(2) -0.27238(19)
O48 O 0.2682(3) 0.9386(2) -0.2787(2)
O49 O 0.2666(4) 0.8624(3) -0.2635(4)
O50 O 0.2947(4) 0.8923(3) -0.3374(3)
O51 O 0.3450(3) 0.8637(2) -0.2818(2)
O52 O 0.4152(3) 0.8466(2) -0.1880(2)
O53 O 0.4146(2) 0.9167(2) -0.1847(2)
O54 O 0.3278(3) 1.0020(2) -0.18021(19)
O55 O 0.2568(2) 1.0010(2) -0.18004(18)
O56 O 0.2583(2) 0.9154(2) -0.18539(19)
O57 O 0.3297(3) 0.8465(2) -0.1879(2)
O58 O 0.67965(17) 0.63251(17) 0.31104(19)
O59 O 0.76412(19) 0.6432(2) 0.2545(2)
O60 O 0.7872(3) 0.6068(3) 0.1888(3)
O61 O 0.8410(2) 0.5719(3) 0.2454(3)
O62 O 0.76557(19) 0.5655(2) 0.2583(2)
O63 O 0.7220(2) 0.5256(2) 0.3298(2)
O64 O 0.7469(3) 0.4826(3) 0.3991(3)
O65 O 0.6654(3) 0.5055(3) 0.3854(3)
O66 O 0.6846(2) 0.5669(2) 0.3942(2)
O67 O 0.6834(2) 0.6552(2) 0.3936(2)
O68 O 0.6689(3) 0.7388(3) 0.3836(3)
O69 O 0.7472(3) 0.6727(3) 0.3977(3)
O70 O 0.7224(2) 0.6882(2) 0.3285(2)
O71 O 0.6708(2) 0.6925(2) 0.2251(2)
O72 O 0.6740(2) 0.6207(2) 0.2254(2)
O73 O 0.6280(2) 0.5838(2) 0.2986(3)
O74 O 0.5954(2) 0.6194(3) 0.3580(2)
O75 O 0.5934(2) 0.7066(2) 0.3577(2)
O76 O 0.6283(2) 0.7392(2) 0.2979(2)
C1 C 0.1409(3) 0.5984(3) 0.3346(4)
C2 C 0.1904(3) 0.5931(4) 0.3353(3)
C3 C 0.19478(12) 0.61176(16) 0.36836(14)
H1 H 0.1681 0.6251 0.3902
C4 C 0.23935(12) 0.61036(16) 0.36849(14)
H2 H 0.2425 0.6230 0.3903
C5 C 0.27926(12) 0.59009(16) 0.33597(14)
C6 C 0.27459(12) 0.57123(16) 0.30332(14)
H3 H 0.3013 0.5577 0.2816
C7 C 0.23001(12) 0.57263(16) 0.30319(14)
H4 H 0.2269 0.5597 0.2816
C8 C 0.32638(12) 0.59159(16) 0.33437(14)
C9 C 0.32682(12) 0.62246(16) 0.35841(14)
H5 H 0.2976 0.6434 0.3743
C10 C 0.37086(12) 0.62204(16) 0.35876(14)
H6 H 0.3711 0.6427 0.3748
C11 C 0.41447(12) 0.59077(16) 0.33507(14)
C12 C 0.41403(12) 0.55991(16) 0.31103(14)
H7 H 0.4432 0.5390 0.2952
C13 C 0.36999(12) 0.56032(16) 0.31068(14)
H8 H 0.3697 0.5397 0.2946
C14 C 0.46304(12) 0.59287(16) 0.33183(14)
C15 C 0.46642(12) 0.61350(16) 0.36386(14)
H9 H 0.4396 0.6265 0.3857
C16 C 0.50987(12) 0.61473(16) 0.36325(14)
H10 H 0.5121 0.6285 0.3847
C17 C 0.54995(12) 0.59533(16) 0.33061(14)
C18 C 0.54657(12) 0.57470(16) 0.29858(14)
H11 H 0.5734 0.5617 0.2767
C19 C 0.50312(12) 0.57347(16) 0.29919(14)
H12 H 0.5009 0.5597 0.2778
C20 C 0.5940(4) 0.5999(4) 0.3291(4)
C21 C 0.0014(3) 0.7403(3) 0.3329(3)
C22 C -0.0009(3) 0.7886(3) 0.3346(3)
C23 C -0.02533(14) 0.82935(10) 0.30596(12)
H13 H -0.0408 0.8274 0.2857
C24 C -0.02681(14) 0.87345(10) 0.30743(12)
H14 H -0.0435 0.9012 0.2883
C25 C -0.00334(14) 0.87602(10) 0.33746(12)
C26 C 0.02161(14) 0.83449(10) 0.36603(12)
H15 H 0.0373 0.8362 0.3861
C27 C 0.02308(14) 0.79039(10) 0.36456(12)
H16 H 0.0397 0.7625 0.3836
C28 C -0.00516(14) 0.92402(10) 0.34000(12)
C29 C -0.03832(14) 0.96746(10) 0.31860(12)
H17 H -0.0604 0.9672 0.3043
C30 C -0.03850(14) 1.01132(10) 0.31858(12)
H18 H -0.0607 1.0404 0.3043
C31 C -0.00550(14) 1.01172(10) 0.33995(12)
C32 C 0.02767(14) 0.96828(10) 0.36135(12)
H19 H 0.0497 0.9685 0.3756
C33 C 0.02784(14) 0.92442(10) 0.36137(12)
H20 H 0.0500 0.8954 0.3757
C34 C -0.00555(14) 1.05911(10) 0.34082(12)
C35 C -0.02689(14) 1.09892(10) 0.30936(12)
H21 H -0.0420 1.0965 0.2892
C36 C -0.02564(14) 1.14234(10) 0.30807(12)
H22 H -0.0399 1.1690 0.2870
C37 C -0.00304(14) 1.14597(10) 0.33824(12)
C38 C 0.01830(14) 1.10617(10) 0.36970(12)
H23 H 0.0334 1.1086 0.3899
C39 C 0.01704(14) 1.06274(10) 0.37099(12)
H24 H 0.0313 1.0361 0.3920
C40 C -0.0005(4) 1.1928(3) 0.3350(4)
C41 C 0.0683(3) 0.6621(3) 0.2129(3)
C42 C 0.0901(4) 0.6799(4) 0.1700(3)
C43 C 0.13786(13) 0.65111(12) 0.15136(11)
H25 H 0.1561 0.6196 0.1650
C44 C 0.15866(13) 0.66932(12) 0.11217(11)
H26 H 0.1911 0.6502 0.0999
C45 C 0.13105(13) 0.71610(12) 0.09133(11)
C46 C 0.08263(13) 0.74468(12) 0.10968(11)
H27 H 0.0641 0.7760 0.0957
C47 C 0.06182(13) 0.72647(12) 0.14886(11)
H28 H 0.0293 0.7455 0.1609
C48 C 0.15471(13) 0.73656(12) 0.04969(11)
C49 C 0.20518(13) 0.71285(12) 0.03496(11)
H29 H 0.2253 0.6835 0.0506
C50 C 0.22564(13) 0.73302(12) -0.00311(11)
H30 H 0.2594 0.7172 -0.0130
C51 C 0.19562(13) 0.77691(12) -0.02645(11)
C52 C 0.14515(13) 0.80063(12) -0.01172(11)
H31 H 0.1251 0.8300 -0.0273
C53 C 0.12470(13) 0.78046(12) 0.02636(11)
H32 H 0.0909 0.7963 0.0362
C54 C 0.21901(13) 0.80109(12) -0.06534(11)
C55 C 0.26871(13) 0.77587(12) -0.08231(11)
H33 H 0.2878 0.7439 -0.0700
C56 C 0.28991(13) 0.79843(12) -0.11770(11)
H34 H 0.3232 0.7816 -0.1291
C57 C 0.26142(13) 0.84622(12) -0.13612(11)
C58 C 0.21172(13) 0.87144(12) -0.11916(11)
H35 H 0.1927 0.9034 -0.1315
C59 C 0.19052(13) 0.84887(12) -0.08376(11)
H36 H 0.1573 0.8657 -0.0724
C60 C 0.2845(5) 0.8714(4) -0.1732(3)
C61 C 0.4272(4) 0.8712(4) -0.1729(3)
C62 C 0.4578(4) 0.8475(4) -0.1361(3)
C63 C 0.46817(14) 0.79949(14) -0.11782(13)
H37 H 0.4574 0.7825 -0.1288
C64 C 0.49485(14) 0.77710(14) -0.08311(13)
H38 H 0.5021 0.7450 -0.0708
C65 C 0.51066(14) 0.80275(14) -0.06674(13)
C66 C 0.49980(14) 0.85080(14) -0.08508(13)
H39 H 0.5104 0.8680 -0.0741
C67 C 0.47312(14) 0.87319(14) -0.11979(13)
H40 H 0.4650 0.9056 -0.1316
C68 C 0.53792(14) 0.77963(14) -0.02714(13)
C69 C 0.54032(14) 0.73584(14) -0.00302(13)
H41 H 0.5262 0.7202 -0.0114
C70 C 0.56390(14) 0.71536(14) 0.03367(13)
H42 H 0.5655 0.6861 0.0498
C71 C 0.58507(14) 0.73867(14) 0.04624(13)
C72 C 0.58267(14) 0.78246(14) 0.02212(13)
H43 H 0.5968 0.7981 0.0305
C73 C 0.55909(14) 0.80294(14) -0.01457(13)
H44 H 0.5575 0.8322 -0.0307
C74 C 0.60844(14) 0.71831(14) 0.08707(13)
C75 C 0.61789(14) 0.67122(14) 0.10772(13)
H45 H 0.6110 0.6519 0.0956
C76 C 0.63765(14) 0.65300(14) 0.14648(13)
H46 H 0.6440 0.6215 0.1603
C77 C 0.64798(14) 0.68185(14) 0.16461(13)
C78 C 0.63853(14) 0.72894(14) 0.14397(13)
H47 H 0.6454 0.7482 0.1561
C79 C 0.61876(14) 0.74717(14) 0.10520(13)
H48 H 0.6124 0.7787 0.0914
C80 C 0.6654(3) 0.6639(4) 0.2091(3)
C81 C 0.5951(4) 0.7410(3) 0.3274(5)
C82 C 0.5473(4) 0.7895(4) 0.3305(4)
C83 C 0.50719(12) 0.79303(11) 0.36369(14)
H49 H 0.5094 0.7660 0.3845
C84 C 0.46413(12) 0.83738(11) 0.36506(14)
H50 H 0.4374 0.8402 0.3869
C85 C 0.46106(12) 0.87750(11) 0.33374(14)
C86 C 0.50105(12) 0.87328(11) 0.30104(14)
H51 H 0.4990 0.9001 0.2801
C87 C 0.54412(12) 0.82893(11) 0.29966(14)
H52 H 0.5709 0.8260 0.2778
C88 C 0.41358(12) 0.92556(11) 0.33419(14)
C89 C 0.37035(12) 0.92660(11) 0.35960(14)
H53 H 0.3708 0.8982 0.3768
C90 C 0.32639(12) 0.97012(11) 0.35923(14)
H54 H 0.2975 0.9708 0.3762
C91 C 0.32567(12) 1.01261(11) 0.33344(14)
C92 C 0.36891(12) 1.01157(11) 0.30803(14)
H55 H 0.3684 1.0400 0.2908
C93 C 0.41286(12) 0.96805(11) 0.30840(14)
H56 H 0.4418 0.9674 0.2914
C94 C 0.27790(12) 1.06064(11) 0.33453(14)
C95 C 0.23718(12) 1.06447(11) 0.36616(14)
H57 H 0.2397 1.0383 0.3881
C96 C 0.19277(12) 1.10745(11) 0.36499(14)
H58 H 0.1655 1.1100 0.3862
C97 C 0.18907(12) 1.14659(11) 0.33219(14)
C98 C 0.22978(12) 1.14276(11) 0.30056(14)
H59 H 0.2273 1.1690 0.2786
C99 C 0.27420(12) 1.09978(11) 0.30173(14)
H60 H 0.3014 1.0972 0.2806
C100 C 0.1409(4) 1.1925(3) 0.3317(4)
C101 C 0.2825(5) 1.0137(3) -0.1666(3)
C102 C 0.2568(4) 1.0470(3) -0.1315(3)
C103 C 0.28317(14) 1.06107(12) -0.11512(11)
H61 H 0.3162 1.0517 -0.1267
C104 C 0.26051(14) 1.08936(12) -0.08112(11)
H62 H 0.2784 1.0988 -0.0698
C105 C 0.21107(14) 1.10358(12) -0.06399(11)
C106 C 0.18429(14) 1.08950(12) -0.08085(11)
H63 H 0.1512 1.0990 -0.0694
C107 C 0.20694(14) 1.06120(12) -0.11484(11)
H64 H 0.1892 1.0519 -0.1265
C108 C 0.18553(14) 1.13385(12) -0.02603(11)
C109 C 0.21292(14) 1.14711(12) -0.00907(11)
H65 H 0.2446 1.1411 -0.0230
C110 C 0.19288(14) 1.16938(12) 0.02873(11)
H66 H 0.2112 1.1783 0.0401
C111 C 0.14546(14) 1.17840(12) 0.04957(11)
C112 C 0.11808(14) 1.16515(12) 0.03260(11)
H67 H 0.0864 1.1712 0.0465
C113 C 0.13811(14) 1.14287(12) -0.00520(11)
H68 H 0.1198 1.1340 -0.0165
C114 C 0.12285(14) 1.20159(12) 0.09154(11)
C115 C 0.15094(14) 1.21284(12) 0.10974(11)
H69 H 0.1828 1.2066 0.0960
C116 C 0.13145(14) 1.23338(12) 0.14847(11)
H70 H 0.1502 1.2409 0.1607
C117 C 0.08387(14) 1.24268(12) 0.16900(11)
C118 C 0.05578(14) 1.23144(12) 0.15080(11)
H71 H 0.0239 1.2377 0.1645
C119 C 0.07527(14) 1.21089(12) 0.11207(11)
H72 H 0.0565 1.2034 0.0999
C120 C 0.0635(5) 1.2618(3) 0.2118(3)
N1 N 0.1450(2) 0.5171(2) 0.2520(3)
C121 C 0.18450(6) 0.48343(5) 0.27311(5)
H73 H 0.1851 0.4858 0.3015
C122 C 0.22341(6) 0.44581(5) 0.25129(5)
H74 H 0.2503 0.4228 0.2650
C123 C 0.22208(6) 0.44260(5) 0.20891(5)
H75 H 0.2481 0.4174 0.1943
C124 C 0.18186(6) 0.47700(5) 0.18835(5)
H76 H 0.1810 0.4749 0.1600
C125 C 0.14296(6) 0.51461(5) 0.21016(5)
H77 H 0.1160 0.5378 0.1965
N2 N -0.07762(6) 0.74483(5) 0.25002(5)
C126 C -0.07725(6) 0.74576(5) 0.20605(5)
H78 H -0.0519 0.7206 0.1910
C127 C -0.11469(6) 0.78435(5) 0.18453(5)
H79 H -0.1144 0.7850 0.1551
C128 C -0.15251(6) 0.82202(5) 0.20699(5)
H80 H -0.1776 0.8478 0.1926
C129 C -0.15288(6) 0.82108(5) 0.25097(5)
H81 H -0.1782 0.8463 0.2660
C130 C -0.11543(6) 0.78249(5) 0.27248(5)
H82 H -0.1157 0.7819 0.3019
N3 N 0.03774(6) 0.64312(5) 0.43944(5)
C131 C 0.00153(6) 0.68409(5) 0.45872(5)
H83 H -0.0245 0.7078 0.4441
C132 C 0.00418(6) 0.68971(5) 0.49979(5)
H84 H -0.0200 0.7171 0.5127
C133 C 0.04303(6) 0.65435(5) 0.52157(5)
H85 H 0.0448 0.6581 0.5490
C134 C 0.07924(6) 0.61338(5) 0.50229(5)
H86 H 0.1052 0.5897 0.5169
C135 C 0.07659(6) 0.60776(5) 0.46122(5)
H87 H 0.1008 0.5803 0.4483
N4 N 0.14519(6) 1.30820(5) 0.24691(5)
C136 C 0.14211(6) 1.33368(5) 0.20462(5)
H88 H 0.1147 1.3435 0.1918
C137 C 0.18000(6) 1.34445(5) 0.18150(5)
H89 H 0.1779 1.3615 0.1532
C138 C 0.22097(6) 1.32973(5) 0.20067(5)
H90 H 0.2463 1.3369 0.1852
C139 C 0.22406(6) 1.30425(5) 0.24296(5)
H91 H 0.2515 1.2944 0.2558
C140 C 0.18617(6) 1.29349(5) 0.26608(5)
H92 H 0.1882 1.2764 0.2944
N5 N 0.04185(6) 1.20384(5) 0.43981(5)
C141 C 0.08322(6) 1.18925(5) 0.45836(5)
H93 H 0.1083 1.1966 0.4425
C142 C 0.08702(6) 1.16362(5) 0.50057(5)
H94 H 0.1147 1.1539 0.5130
C143 C 0.04947(6) 1.15259(5) 0.52423(5)
H95 H 0.0520 1.1354 0.5525
C144 C 0.00811(6) 1.16718(5) 0.50568(5)
H96 H -0.0170 1.1598 0.5215
C145 C 0.00430(6) 1.19280(5) 0.46346(5)
H97 H -0.0234 1.2026 0.4511
N6 N -0.08035(6) 1.30607(5) 0.25338(5)
C146 C -0.11536(6) 1.29062(5) 0.27512(5)
H98 H -0.1138 1.2748 0.3039
C147 C -0.15268(6) 1.29881(5) 0.25392(5)
H99 H -0.1761 1.2885 0.2685
C148 C -0.15499(6) 1.32244(5) 0.21097(5)
H100 H -0.1800 1.3279 0.1968
C149 C -0.11998(6) 1.33789(5) 0.18923(5)
H101 H -0.1215 1.3537 0.1605
C150 C -0.08266(6) 1.32971(5) 0.21043(5)
H102 H -0.0592 1.3400 0.1959
N7 N 0.41612(6) 0.78406(5) -0.23536(5)
C151 C 0.39099(6) 0.75884(5) -0.23630(5)
H103 H 0.3571 0.7756 -0.2363
C152 C 0.41652(6) 0.70855(5) -0.23728(5)
H104 H 0.3997 0.6917 -0.2379
C153 C 0.46718(6) 0.68348(5) -0.23733(5)
H105 H 0.4843 0.6498 -0.2380
C154 C 0.49230(6) 0.70870(5) -0.23639(5)
H106 H 0.5262 0.6919 -0.2364
C155 C 0.46677(6) 0.75899(5) -0.23541(5)
H107 H 0.4836 0.7759 -0.2348
N8 N 0.41353(6) 1.00571(5) -0.22321(5)
C156 C 0.46400(6) 0.98076(5) -0.22227(5)
H108 H 0.4820 0.9479 -0.2263
C157 C 0.48762(6) 1.00487(5) -0.21528(5)
H109 H 0.5214 0.9882 -0.2146
C158 C 0.46078(6) 1.05392(5) -0.20923(5)
H110 H 0.4766 1.0700 -0.2046
C159 C 0.41032(6) 1.07887(5) -0.21018(5)
H111 H 0.3924 1.1117 -0.2061
C160 C 0.38669(6) 1.05476(5) -0.21717(5)
H112 H 0.3529 1.0714 -0.2178
N9 N 0.18971(6) 1.00380(5) -0.22460(5)
C161 C 0.16365(6) 1.05277(5) -0.21827(5)
H113 H 0.1805 1.0696 -0.2178
C162 C 0.11240(6) 1.07651(5) -0.21264(5)
H114 H 0.0950 1.1093 -0.2084
C163 C 0.08720(6) 1.05128(5) -0.21334(5)
H115 H 0.0529 1.0672 -0.2096
C164 C 0.11326(6) 1.00231(5) -0.21968(5)
H116 H 0.0964 0.9854 -0.2201
C165 C 0.16452(6) 0.97857(5) -0.22530(5)
H117 H 0.1820 0.9458 -0.2295
N10 N 0.60104(6) 0.64014(5) 0.43661(5)
C166 C 0.58736(6) 0.60368(5) 0.45662(5)
H118 H 0.5981 0.5767 0.4427
C167 C 0.55760(6) 0.60753(5) 0.49747(5)
H119 H 0.5484 0.5831 0.5109
C168 C 0.54152(6) 0.64783(5) 0.51829(5)
H120 H 0.5216 0.6504 0.5456
C169 C 0.55520(6) 0.68429(5) 0.49828(5)
H121 H 0.5445 0.7113 0.5122
C170 C 0.58496(6) 0.68044(5) 0.45743(5)
H122 H 0.5941 0.7048 0.4440
N11 N 0.71033(6) 0.74548(5) 0.24609(5)
C171 C 0.69927(6) 0.78289(5) 0.26876(5)
H123 H 0.6850 0.7822 0.2982
C172 C 0.70954(6) 0.82132(5) 0.24749(5)
H124 H 0.7021 0.8463 0.2627
C173 C 0.73088(6) 0.82233(5) 0.20355(5)
H125 H 0.7378 0.8480 0.1893
C174 C 0.74194(6) 0.78492(5) 0.18088(5)
H126 H 0.7562 0.7856 0.1515
C175 C 0.73167(6) 0.74649(5) 0.20215(5)
H127 H 0.7391 0.7215 0.1870
N12 N 0.71329(6) 0.51953(5) 0.24752(5)
C176 C 0.73869(6) 0.51653(5) 0.20485(5)
H128 H 0.7491 0.5399 0.1907
C177 C 0.74855(6) 0.47865(5) 0.18337(5)
H129 H 0.7655 0.4766 0.1548
C178 C 0.73301(6) 0.44377(5) 0.20457(5)
H130 H 0.7396 0.4184 0.1902
C179 C 0.70761(6) 0.44677(5) 0.24725(5)
H131 H 0.6972 0.4234 0.2614
C180 C 0.69775(6) 0.48465(5) 0.26873(5)
H132 H 0.6808 0.4867 0.2973
C196? C 0.6502(2) 0.5401(2) 0.09704(17)
C197? C 0.5834(2) 0.5733(2) 0.17207(17)
O77? O 0.0459(3) 0.4471(3) 0.2981(3)
O81? O 0.3157(3) 0.9032(4) 0.9219(2)
O86? O 0.7365(2) 0.3188(2) 0.1829(2)
O89? O 0.1838(4) 0.0999(4) 0.2411(4)
O91? O 0.3866(3) 0.9760(3) 0.6517(2)
O92? O 0.3969(3) 0.8977(3) 0.7241(2)
O93? O 0.9518(3) 0.8402(3) 0.0737(2)
O99? O 0.8638(2) 0.6309(3) 0.2813(2)
O117? O 0.7558(3) 0.9340(3) 0.2195(2)
O118? O 0.0483(3) 0.4391(3) 0.3357(3)
O119? O 0.83867(19) 0.4378(2) 0.3408(2)
O120? O 0.9677(2) 0.4866(3) 0.1564(2)
O122? O 0.84497(19) 0.4422(2) 0.2955(2)
O123? O 0.7311(2) 0.2501(2) 0.2075(2)
loop_
_geom_bond_atom_site_label_1
_geom_bond_atom_site_label_2
_geom_bond_site_symmetry_1
_geom_bond_site_symmetry_2
Fe1 O1 1_555 1_555
Fe2 O1 1_555 1_555
Fe3 O1 1_555 1_555
Fe4 O20 1_555 1_555
Fe5 O20 1_555 1_555
Fe6 O20 1_555 1_555
Fe7 O39 1_555 1_555
Fe8 O39 1_555 1_555
Fe9 O39 1_555 1_555
Fe10 O58 1_555 1_555
Fe11 O58 1_555 1_555
Fe12 O58 1_555 1_555
S1 O10 1_555 1_555
S2 O6 1_555 1_555
S3 O2 1_555 1_555
S4 O21 1_555 1_555
S5 O29 1_555 1_555
S6 O25 1_555 1_555
S7 O40 1_555 1_555
S8 O48 1_555 1_555
S9 O44 1_555 1_555
S10 O67 1_555 1_555
S11 O63 1_555 1_555
S12 O59 1_555 1_555
O2 Fe2 1_555 1_555
O3 S3 1_555 1_555
O4 S3 1_555 1_555
O5 Fe3 1_555 1_555
O6 Fe3 1_555 1_555
O7 S2 1_555 1_555
O8 S2 1_555 1_555
O9 Fe1 1_555 1_555
O10 Fe1 1_555 1_555
O11 S1 1_555 1_555
O12 S1 1_555 1_555
O13 Fe2 1_555 1_555
O14 Fe2 1_555 1_555
O15 Fe3 1_555 1_555
O16 Fe3 1_555 1_555
O17 Fe1 1_555 1_555
O18 Fe1 1_555 1_555
O19 Fe2 1_555 1_555
O21 Fe4 1_555 1_555
O22 S4 1_555 1_555
O23 S4 1_555 1_555
O24 Fe5 1_555 1_555
O25 Fe5 1_555 1_555
O26 S6 1_555 1_555
O27 S6 1_555 1_555
O28 Fe6 1_555 1_555
O29 Fe6 1_555 1_555
O30 S5 1_555 1_555
O31 S5 1_555 1_555
O32 Fe4 1_555 1_555
O33 Fe4 1_555 1_555
O34 Fe5 1_555 1_555
O35 Fe5 1_555 1_555
O36 Fe6 1_555 1_555
O37 Fe6 1_555 1_555
O38 Fe4 1_555 1_555
O40 Fe7 1_555 1_555
O41 S7 1_555 1_555
O42 S7 1_555 1_555
O43 Fe8 1_555 1_555
O44 Fe8 1_555 1_555
O45 S9 1_555 1_555
O46 S9 1_555 1_555
O47 Fe9 1_555 1_555
O48 Fe9 1_555 1_555
O49 S8 1_555 1_555
O50 S8 1_555 1_555
O51 Fe7 1_555 1_555
O52 Fe7 1_555 1_555
O53 Fe8 1_555 1_555
O54 Fe8 1_555 1_555
O55 Fe9 1_555 1_555
O56 Fe9 1_555 1_555
O57 Fe7 1_555 1_555
O59 Fe11 1_555 1_555
O60 S12 1_555 1_555
O61 S12 1_555 1_555
O62 Fe12 1_555 1_555
O63 Fe12 1_555 1_555
O64 S11 1_555 1_555
O65 S11 1_555 1_555
O66 Fe10 1_555 1_555
O67 Fe10 1_555 1_555
O68 S10 1_555 1_555
O69 S10 1_555 1_555
O70 Fe11 1_555 1_555
O71 Fe11 1_555 1_555
O72 Fe12 1_555 1_555
O73 Fe12 1_555 1_555
O74 Fe10 1_555 1_555
O75 Fe10 1_555 1_555
O76 Fe11 1_555 1_555
C1 O16 1_555 1_555
C2 C1 1_555 1_555
C3 C2 1_555 1_555
H1 C3 1_555 1_555
C4 C3 1_555 1_555
H2 C4 1_555 1_555
C5 C4 1_555 1_555
C6 C5 1_555 1_555
H3 C6 1_555 1_555
C7 C2 1_555 1_555
H4 C7 1_555 1_555
C8 C5 1_555 1_555
C9 C8 1_555 1_555
H5 C9 1_555 1_555
C10 C9 1_555 1_555
H6 C10 1_555 1_555
C11 C10 1_555 1_555
C12 C11 1_555 1_555
H7 C12 1_555 1_555
C13 C8 1_555 1_555
H8 C13 1_555 1_555
C14 C11 1_555 1_555
C15 C14 1_555 1_555
H9 C15 1_555 1_555
C16 C15 1_555 1_555
H10 C16 1_555 1_555
C17 C16 1_555 1_555
C18 C17 1_555 1_555
H11 C18 1_555 1_555
C19 C14 1_555 1_555
H12 C19 1_555 1_555
C20 O73 1_555 1_555
C21 O14 1_555 1_555
C22 C21 1_555 1_555
C23 C22 1_555 1_555
H13 C23 1_555 1_555
C24 C23 1_555 1_555
H14 C24 1_555 1_555
C25 C24 1_555 1_555
C26 C25 1_555 1_555
H15 C26 1_555 1_555
C27 C22 1_555 1_555
H16 C27 1_555 1_555
C28 C25 1_555 1_555
C29 C28 1_555 1_555
H17 C29 1_555 1_555
C30 C29 1_555 1_555
H18 C30 1_555 1_555
C31 C30 1_555 1_555
C32 C31 1_555 1_555
H19 C32 1_555 1_555
C33 C28 1_555 1_555
H20 C33 1_555 1_555
C34 C31 1_555 1_555
C35 C34 1_555 1_555
H21 C35 1_555 1_555
C36 C35 1_555 1_555
H22 C36 1_555 1_555
C37 C36 1_555 1_555
C38 C37 1_555 1_555
H23 C38 1_555 1_555
C39 C34 1_555 1_555
H24 C39 1_555 1_555
C40 O35 1_555 1_555
C41 O18 1_555 1_555
C42 C41 1_555 1_555
C43 C42 1_555 1_555
H25 C43 1_555 1_555
C44 C43 1_555 1_555
H26 C44 1_555 1_555
C45 C44 1_555 1_555
C46 C45 1_555 1_555
H27 C46 1_555 1_555
C47 C42 1_555 1_555
H28 C47 1_555 1_555
C48 C45 1_555 1_555
C49 C48 1_555 1_555
H29 C49 1_555 1_555
C50 C49 1_555 1_555
H30 C50 1_555 1_555
C51 C50 1_555 1_555
C52 C51 1_555 1_555
H31 C52 1_555 1_555
C53 C48 1_555 1_555
H32 C53 1_555 1_555
C54 C51 1_555 1_555
C55 C54 1_555 1_555
H33 C55 1_555 1_555
C56 C55 1_555 1_555
H34 C56 1_555 1_555
C57 C56 1_555 1_555
C58 C57 1_555 1_555
H35 C58 1_555 1_555
C59 C54 1_555 1_555
H36 C59 1_555 1_555
C60 O56 1_555 1_555
C61 O52 1_555 1_555
C62 C61 1_555 1_555
C63 C62 1_555 1_555
H37 C63 1_555 1_555
C64 C63 1_555 1_555
H38 C64 1_555 1_555
C65 C64 1_555 1_555
C66 C65 1_555 1_555
H39 C66 1_555 1_555
C67 C62 1_555 1_555
H40 C67 1_555 1_555
C68 C65 1_555 1_555
C69 C68 1_555 1_555
H41 C69 1_555 1_555
C70 C69 1_555 1_555
H42 C70 1_555 1_555
C71 C70 1_555 1_555
C72 C71 1_555 1_555
H43 C72 1_555 1_555
C73 C68 1_555 1_555
H44 C73 1_555 1_555
C74 C71 1_555 1_555
C75 C74 1_555 1_555
H45 C75 1_555 1_555
C76 C75 1_555 1_555
H46 C76 1_555 1_555
C77 C76 1_555 1_555
C78 C77 1_555 1_555
H47 C78 1_555 1_555
C79 C74 1_555 1_555
H48 C79 1_555 1_555
C80 O71 1_555 1_555
C81 O75 1_555 1_555
C82 C81 1_555 1_555
C83 C82 1_555 1_555
H49 C83 1_555 1_555
C84 C83 1_555 1_555
H50 C84 1_555 1_555
C85 C84 1_555 1_555
C86 C85 1_555 1_555
H51 C86 1_555 1_555
C87 C82 1_555 1_555
H52 C87 1_555 1_555
C88 C85 1_555 1_555
C89 C88 1_555 1_555
H53 C89 1_555 1_555
C90 C89 1_555 1_555
H54 C90 1_555 1_555
C91 C90 1_555 1_555
C92 C91 1_555 1_555
H55 C92 1_555 1_555
C93 C88 1_555 1_555
H56 C93 1_555 1_555
C94 C91 1_555 1_555
C95 C94 1_555 1_555
H57 C95 1_555 1_555
C96 C95 1_555 1_555
H58 C96 1_555 1_555
C97 C96 1_555 1_555
C98 C97 1_555 1_555
H59 C98 1_555 1_555
C99 C94 1_555 1_555
H60 C99 1_555 1_555
C100 O33 1_555 1_555
C101 O54 1_555 1_555
C102 C101 1_555 1_555
C103 C102 1_555 1_555
H61 C103 1_555 1_555
C104 C103 1_555 1_555
H62 C104 1_555 1_555
C105 C104 1_555 1_555
C106 C105 1_555 1_555
H63 C106 1_555 1_555
C107 C102 1_555 1_555
H64 C107 1_555 1_555
C108 C105 1_555 1_555
C109 C108 1_555 1_555
H65 C109 1_555 1_555
C110 C109 1_555 1_555
H66 C110 1_555 1_555
C111 C110 1_555 1_555
C112 C111 1_555 1_555
H67 C112 1_555 1_555
C113 C108 1_555 1_555
H68 C113 1_555 1_555
C114 C111 1_555 1_555
C115 C114 1_555 1_555
H69 C115 1_555 1_555
C116 C115 1_555 1_555
H70 C116 1_555 1_555
C117 C116 1_555 1_555
C118 C117 1_555 1_555
H71 C118 1_555 1_555
C119 C114 1_555 1_555
H72 C119 1_555 1_555
C120 O37 1_555 1_555
N1 Fe1 1_555 1_555
C121 N1 1_555 1_555
H73 C121 1_555 1_555
C122 C121 1_555 1_555
H74 C122 1_555 1_555
C123 C122 1_555 1_555
H75 C123 1_555 1_555
C124 C123 1_555 1_555
H76 C124 1_555 1_555
C125 N1 1_555 1_555
H77 C125 1_555 1_555
N2 Fe2 1_555 1_555
C126 N2 1_555 1_555
H78 C126 1_555 1_555
C127 C126 1_555 1_555
H79 C127 1_555 1_555
C128 C127 1_555 1_555
H80 C128 1_555 1_555
C129 C128 1_555 1_555
H81 C129 1_555 1_555
C130 N2 1_555 1_555
H82 C130 1_555 1_555
N3 Fe3 1_555 1_555
C131 N3 1_555 1_555
H83 C131 1_555 1_555
C132 C131 1_555 1_555
H84 C132 1_555 1_555
C133 C132 1_555 1_555
H85 C133 1_555 1_555
C134 C133 1_555 1_555
H86 C134 1_555 1_555
C135 N3 1_555 1_555
H87 C135 1_555 1_555
N4 Fe4 1_555 1_555
C136 N4 1_555 1_555
H88 C136 1_555 1_555
C137 C136 1_555 1_555
H89 C137 1_555 1_555
C138 C137 1_555 1_555
H90 C138 1_555 1_555
C139 C138 1_555 1_555
H91 C139 1_555 1_555
C140 N4 1_555 1_555
H92 C140 1_555 1_555
N5 Fe5 1_555 1_555
C141 N5 1_555 1_555
H93 C141 1_555 1_555
C142 C141 1_555 1_555
H94 C142 1_555 1_555
C143 C142 1_555 1_555
H95 C143 1_555 1_555
C144 C143 1_555 1_555
H96 C144 1_555 1_555
C145 N5 1_555 1_555
H97 C145 1_555 1_555
N6 Fe6 1_555 1_555
C146 N6 1_555 1_555
H98 C146 1_555 1_555
C147 C146 1_555 1_555
H99 C147 1_555 1_555
C148 C147 1_555 1_555
H100 C148 1_555 1_555
C149 C148 1_555 1_555
H101 C149 1_555 1_555
C150 N6 1_555 1_555
H102 C150 1_555 1_555
N7 Fe7 1_555 1_555
C151 N7 1_555 1_555
H103 C151 1_555 1_555
C152 C151 1_555 1_555
H104 C152 1_555 1_555
C153 C152 1_555 1_555
H105 C153 1_555 1_555
C154 C153 1_555 1_555
H106 C154 1_555 1_555
C155 N7 1_555 1_555
H107 C155 1_555 1_555
N8 Fe8 1_555 1_555
C156 N8 1_555 1_555
H108 C156 1_555 1_555
C157 C156 1_555 1_555
H109 C157 1_555 1_555
C158 C157 1_555 1_555
H110 C158 1_555 1_555
C159 C158 1_555 1_555
H111 C159 1_555 1_555
C160 N8 1_555 1_555
H112 C160 1_555 1_555
N9 Fe9 1_555 1_555
C161 N9 1_555 1_555
H113 C161 1_555 1_555
C162 C161 1_555 1_555
H114 C162 1_555 1_555
C163 C162 1_555 1_555
H115 C163 1_555 1_555
C164 C163 1_555 1_555
H116 C164 1_555 1_555
C165 N9 1_555 1_555
H117 C165 1_555 1_555
N10 Fe10 1_555 1_555
C166 N10 1_555 1_555
H118 C166 1_555 1_555
C167 C166 1_555 1_555
H119 C167 1_555 1_555
C168 C167 1_555 1_555
H120 C168 1_555 1_555
C169 C168 1_555 1_555
H121 C169 1_555 1_555
C170 N10 1_555 1_555
H122 C170 1_555 1_555
N11 Fe11 1_555 1_555
C171 N11 1_555 1_555
H123 C171 1_555 1_555
C172 C171 1_555 1_555
H124 C172 1_555 1_555
C173 C172 1_555 1_555
H125 C173 1_555 1_555
C174 C173 1_555 1_555
H126 C174 1_555 1_555
C175 N11 1_555 1_555
H127 C175 1_555 1_555
N12 Fe12 1_555 1_555
C176 N12 1_555 1_555
H128 C176 1_555 1_555
C177 C176 1_555 1_555
H129 C177 1_555 1_555
C178 C177 1_555 1_555
H130 C178 1_555 1_555
C179 C178 1_555 1_555
H131 C179 1_555 1_555
C180 N12 1_555 1_555
H132 C180 1_555 1_555
N13 C181 1_555 1_555
C181 C182 1_555 1_555
C182 C183 1_555 1_555
C183 C184 1_555 1_555
C184 C185 1_555 1_555
C185 N13 1_555 1_555
N14 C186 1_555 1_555
C186 C187 1_555 1_555
C187 C188 1_555 1_555
C188 C189 1_555 1_555
C189 C190 1_555 1_555
C190 N14 1_555 1_555
N15 C191 1_555 1_555
C191 C192 1_555 1_555
C192 C193 1_555 1_555
C193 C194 1_555 1_555
C194 C195 1_555 1_555
C195 N15 1_555 1_555
S1 O13 1_555 1_555
S2 O9 1_555 1_555
S3 O5 1_555 1_555
S4 O24 1_555 1_555
S5 O32 1_555 1_555
S6 O28 1_555 1_555
S7 O43 1_555 1_555
S8 O51 1_555 1_555
S9 O47 1_555 1_555
S10 O70 1_555 1_555
S11 O66 1_555 1_555
S12 O62 1_555 1_555
O15 C21 1_555 1_555
O17 C1 1_555 1_555
O19 C41 1_555 1_555
O34 C100 1_555 1_555
O36 C40 1_555 1_555
O38 C120 1_555 1_555
O53 C61 1_555 1_555
O55 C101 1_555 1_555
O57 C60 1_555 1_555
O72 C80 1_555 1_555
O74 C20 1_555 1_555
O76 C81 1_555 1_555
C6 C7 1_555 1_555
C12 C13 1_555 1_555
C17 C20 1_555 1_555
C18 C19 1_555 1_555
C26 C27 1_555 1_555
C32 C33 1_555 1_555
C37 C40 1_555 1_555
C38 C39 1_555 1_555
C46 C47 1_555 1_555
C52 C53 1_555 1_555
C57 C60 1_555 1_555
C58 C59 1_555 1_555
C66 C67 1_555 1_555
C72 C73 1_555 1_555
C77 C80 1_555 1_555
C78 C79 1_555 1_555
C86 C87 1_555 1_555
C92 C93 1_555 1_555
C97 C100 1_555 1_555
C98 C99 1_555 1_555
C106 C107 1_555 1_555
C112 C113 1_555 1_555
C117 C120 1_555 1_555
C118 C119 1_555 1_555
C124 C125 1_555 1_555
C129 C130 1_555 1_555
C134 C135 1_555 1_555
C139 C140 1_555 1_555
C144 C145 1_555 1_555
C149 C150 1_555 1_555
C154 C155 1_555 1_555
C159 C160 1_555 1_555
C164 C165 1_555 1_555
C169 C170 1_555 1_555
C174 C175 1_555 1_555
C179 C180 1_555 1_555

#END
