
#######################################################################
#
#                 Cambridge Crystallographic Data Centre
#                                CCDC 
#
#######################################################################
#
# If this CIF has been generated from an entry in the Cambridge 
# Structural Database, then it will include bibliographic, chemical, 
# crystal, experimental, refinement or atomic coordinate data resulting 
# from the CCDC's data processing and validation procedures.
#
#######################################################################

data_JAPSUP
_chemical_formula_moiety         
'C172 H132 Ag4 F12 N12 O12 S4,C10 H16,3(C1 H3 N1 O2),8(H2 O1)'
_chemical_name_systematic        
'tetrakis(\m~3~-1,3,5-tris(3-Pyridyl)-2,4,6-tri-p-tolylbenzene)-tetrakis(trifluoromethanesulfonato)-tetra-silver(i) adamantane clathrate nitromethane solvate octahydrate'
_symmetry_cell_setting           orthorhombic
_symmetry_space_group_name_H-M   'P c c n'
_symmetry_Int_Tables_number      56
_space_group_name_Hall           '-P 2ab 2ac'
loop_
_symmetry_equiv_pos_site_id
_symmetry_equiv_pos_as_xyz
1 x,y,z
2 1/2+x,-y,1/2-z
3 -x,1/2+y,1/2-z
4 1/2-x,1/2-y,z
5 -x,-y,-z
6 1/2-x,y,1/2+z
7 x,1/2-y,1/2+z
8 1/2+x,1/2+y,-z
_cell_length_a                   16.414(11)
_cell_length_b                   32.34(2)
_cell_length_c                   37.30(2)
_cell_angle_alpha                90
_cell_angle_beta                 90
_cell_angle_gamma                90
_cell_volume                     19799.9
_exptl_crystal_colour            colorless
_exptl_crystal_description       block
_cell_formula_units_Z            4
loop_
_atom_site_label
_atom_site_type_symbol
_atom_site_fract_x
_atom_site_fract_y
_atom_site_fract_z
F1 F 0.6828(5) 0.32238(13) 0.6249(2)
F3 F 0.8011(5) 0.31878(17) 0.6482(2)
C91 C 0.7326(4) 0.29807(11) 0.64321(17)
O9 O 0.1382(18) 0.4696(9) 0.6262(6)
O10 O 0.2314(16) 0.4847(7) 0.5883(5)
O11 O 0.199(2) 0.5290(16) 0.6329(13)
N8 N 0.2156(16) 0.4845(9) 0.6202(7)
C94 C 0.266(2) 0.4541(13) 0.6404(12)
O12 O 0.5736(16) 0.3374(8) 0.2352(7)
O13 O 0.356(3) 0.4394(15) 0.2293(7)
O14 O 0.5920(18) 0.316(2) 0.7217(7)
O15 O 0.745(4) 0.3846(19) 0.3023(19)
C85 C 0.2514(14) 0.2869(7) 0.5013(5)
C86 C 0.3192(12) 0.2892(5) 0.4774(4)
C87 C 0.1718(10) 0.2878(5) 0.4789(4)
C88 C 0.3229(11) 0.2539(6) 0.4529(5)
C89 C 0.25000 0.25000 0.4298(6)
C90 C 0.25000 0.25000 0.5240(7)
H67 H 0.25235 0.31179 0.51713
H68 H 0.3175 0.3144 0.4635
H69 H 0.3702 0.2907 0.4913
H70 H 0.16878 0.31328 0.46421
H71 H 0.12335 0.28655 0.49468
H72 H 0.3721 0.2542 0.438
H73 H 0.2538 0.2261 0.4151
H74 H 0.2972 0.24959 0.5391
C85C C 0.2486(14) 0.2131(7) 0.5013(5)
C86C C 0.1808(12) 0.2108(5) 0.4774(4)
C87C C 0.3282(10) 0.2122(5) 0.4789(4)
C88C C 0.1771(11) 0.2461(6) 0.4529(5)
H67C H 0.24765 0.18821 0.51713
H68C H 0.1825 0.1856 0.4635
H69C H 0.1298 0.2093 0.4913
H70C H 0.33122 0.18672 0.46421
H71C H 0.37665 0.21345 0.49468
H72C H 0.1279 0.2458 0.438
H73C H 0.2462 0.2739 0.4151
H74C H 0.2028 0.25041 0.5391
Ag1 Ag 0.55568(5) 0.25057(3) 0.57343(2)
Ag2 Ag 0.26480(6) 0.41121(3) 0.38322(3)
S2 S 0.2811(2) 0.50562(13) 0.33320(12)
F4 F 0.1291(2) 0.5234(2) 0.34407(19)
F5 F 0.2003(4) 0.5194(2) 0.39170(12)
F6 F 0.2114(4) 0.57186(13) 0.3575(2)
O4 O 0.2532(4) 0.46383(12) 0.33172(19)
O5 O 0.3513(2) 0.5123(2) 0.35503(18)
O6 O 0.2813(4) 0.5270(2) 0.29967(12)
N1 N 0.4773(6) 0.2924(3) 0.6075(2)
N2 N 0.3158(6) 0.4365(3) 0.4351(2)
N3 N 0.5259(6) 0.1809(3) 0.5709(2)
N4 N 0.6098(6) 0.2702(2) 0.5192(2)
N5 N 0.3435(6) 0.3662(3) 0.3492(2)
N6 N 0.1299(6) 0.3949(3) 0.3741(2)
C1 C 0.3074(6) 0.3647(3) 0.5849(3)
C2 C 0.3383(7) 0.3904(3) 0.5567(2)
C3 C 0.2847(7) 0.4067(3) 0.5317(3)
C4 C 0.1994(7) 0.4026(3) 0.5356(3)
C5 C 0.1681(7) 0.3790(3) 0.5640(3)
C6 C 0.2214(6) 0.3614(3) 0.5891(3)
C7 C 0.3657(7) 0.3425(3) 0.6077(2)
C8 C 0.4150(7) 0.3117(3) 0.5914(3)
C9 C 0.4930(8) 0.3017(4) 0.6421(3)
C10 C 0.4463(8) 0.3292(4) 0.6604(3)
C11 C 0.3826(7) 0.3501(4) 0.6441(3)
C12 C 0.4285(7) 0.3957(3) 0.5554(3)
C13 C 0.4779(8) 0.3777(3) 0.5294(3)
C14 C 0.5630(8) 0.3807(4) 0.5325(3)
C15 C 0.5996(7) 0.4015(4) 0.5595(4)
C16 C 0.5496(8) 0.4220(4) 0.5854(3)
C17 C 0.4665(8) 0.4198(3) 0.5829(3)
C18 C 0.6935(9) 0.4019(7) 0.5630(5)
C19 C 0.3171(7) 0.4311(3) 0.4997(2)
C20 C 0.2975(6) 0.4162(3) 0.4656(2)
C21 C 0.3557(8) 0.4719(3) 0.4393(3)
C22 C 0.3777(8) 0.4881(4) 0.4715(3)
C23 C 0.3581(7) 0.4678(3) 0.5023(3)
C24 C 0.1443(7) 0.4223(3) 0.5091(3)
C25 C 0.0994(7) 0.3998(3) 0.4837(3)
C26 C 0.0524(7) 0.4186(3) 0.4578(3)
C27 C 0.0491(7) 0.4620(3) 0.4558(3)
C28 C 0.0907(9) 0.4850(3) 0.4822(3)
C29 C 0.1406(8) 0.4651(3) 0.5073(3)
C30 C -0.0009(9) 0.4825(5) 0.4266(3)
C31 C 0.0794(7) 0.3711(3) 0.5680(3)
C32 C 0.4481(7) 0.1700(3) 0.5648(3)
C33 C 0.5796(7) 0.1507(4) 0.5782(3)
C34 C 0.5588(7) 0.1095(4) 0.5818(4)
C35 C 0.0240(8) 0.4016(3) 0.5769(3)
C36 C 0.1885(7) 0.3390(4) 0.6215(3)
C37 C 0.1921(8) 0.2954(4) 0.6240(3)
C38 C 0.1558(9) 0.2756(4) 0.6542(3)
C39 C 0.1236(10) 0.2960(4) 0.6817(4)
C40 C 0.1183(11) 0.3415(4) 0.6774(4)
C41 C 0.1495(8) 0.3619(4) 0.6477(3)
C42 C 0.0869(17) 0.2761(6) 0.7137(4)
C43 C 0.5530(7) 0.2551(3) 0.4210(3)
C44 C 0.5193(7) 0.2851(3) 0.3992(2)
C45 C 0.4741(7) 0.2744(3) 0.3693(2)
C46 C 0.4629(7) 0.2324(4) 0.3603(3)
C47 C 0.4979(7) 0.2018(3) 0.3825(3)
C48 C 0.5438(7) 0.2127(3) 0.4124(2)
C49 C 0.6004(7) 0.2671(3) 0.4544(2)
C50 C 0.5686(7) 0.2594(3) 0.4880(3)
C51 C 0.6796(6) 0.2882(3) 0.5162(2)
C52 C 0.7155(7) 0.2981(3) 0.4833(3)
C53 C 0.6752(6) 0.2867(3) 0.4518(3)
C54 C 0.5351(7) 0.3293(4) 0.4064(3)
C55 C 0.5026(8) 0.3511(3) 0.4354(3)
C56 C 0.5142(9) 0.3927(4) 0.4404(3)
C57 C 0.5621(9) 0.4155(4) 0.4152(4)
C58 C 0.5970(8) 0.3937(4) 0.3874(4)
C59 C 0.5843(8) 0.3526(3) 0.3814(3)
C60 C 0.5730(12) 0.4605(4) 0.4204(6)
C61 C 0.4329(7) 0.3075(3) 0.3480(3)
C62 C 0.3776(7) 0.3330(3) 0.3648(3)
C63 C 0.3660(9) 0.3759(4) 0.3151(3)
C64 C 0.4174(8) 0.3501(4) 0.2956(3)
C65 C 0.4553(9) 0.3169(4) 0.3121(3)
C66 C 0.4187(8) 0.2187(3) 0.3284(2)
C67 C 0.3329(9) 0.2170(4) 0.3281(3)
C68 C 0.2879(10) 0.2014(5) 0.2980(3)
C69 C 0.3298(11) 0.1864(4) 0.2685(3)
C70 C 0.4145(12) 0.1873(4) 0.2692(3)
C71 C 0.4604(9) 0.2038(4) 0.2981(3)
C72 C 0.2838(15) 0.1712(7) 0.2375(4)
C73 C 0.4770(8) 0.1572(3) 0.3740(3)
C74 C 0.1016(8) 0.3569(3) 0.3828(3)
C75 C 0.0790(8) 0.4199(3) 0.3563(4)
C76 C 0.0019(8) 0.4090(4) 0.3482(4)
C77 C 0.5274(8) 0.1302(4) 0.3562(3)
C78 C 0.5907(7) 0.1784(3) 0.4316(2)
C79 C 0.5699(8) 0.1617(4) 0.4649(3)
C80 C 0.6127(9) 0.1282(4) 0.4793(3)
C81 C 0.6766(8) 0.1109(3) 0.4610(3)
C82 C 0.6994(8) 0.1276(3) 0.4264(3)
C83 C 0.6572(8) 0.1606(4) 0.4133(3)
C84 C 0.7219(10) 0.0732(4) 0.4756(4)
C92 C 0.2019(2) 0.53127(14) 0.35773(12)
H1 H 0.40285 0.3042 0.56739
H2 H 0.53748 0.28876 0.65386
H3 H 0.45772 0.33432 0.68494
H4 H 0.35073 0.36926 0.6573
H5 H 0.45418 0.36352 0.50966
H6 H 0.59607 0.36768 0.51492
H7 H 0.57406 0.43717 0.60438
H8 H 0.43368 0.43445 0.59963
H9 H 0.71107 0.37825 0.57746
H10 H 0.71082 0.42763 0.5746
H11 H 0.7181 0.40011 0.53908
H12 H 0.26995 0.39043 0.46383
H13 H 0.36976 0.48701 0.41833
H14 H 0.4066 0.51356 0.47259
H15 H 0.37258 0.47878 0.52501
H16 H 0.10146 0.3705 0.48437
H17 H 0.02219 0.40226 0.44135
H18 H 0.08478 0.51426 0.48294
H19 H 0.17229 0.48121 0.52347
H20 H 0.03292 0.48637 0.40523
H21 H -0.02053 0.50937 0.43506
H22 H -0.04757 0.46483 0.42064
H23 H 0.41021 0.19082 0.55816
H24 H 0.63517 0.15807 0.58113
H25 H 0.59881 0.08923 0.58743
H26 H 0.04102 0.42952 0.57967
H27 H 0.21818 0.27963 0.60588
H28 H 0.15472 0.2462 0.65477
H29 H 0.09264 0.35726 0.69567
H30 H 0.14409 0.391 0.64543
H31 H 0.02898 0.27074 0.70923
H32 H 0.09251 0.29447 0.73445
H33 H 0.11486 0.24993 0.71855
H34 H 0.51689 0.24629 0.48993
H35 H 0.70828 0.29511 0.53754
H36 H 0.76622 0.31221 0.4823
H37 H 0.6986 0.2923 0.42907
H38 H 0.47095 0.33635 0.45252
H39 H 0.4905 0.40636 0.46037
H40 H 0.632 0.40817 0.37151
H41 H 0.60741 0.33947 0.36096
H42 H 0.52952 0.47538 0.40781
H43 H 0.62598 0.46893 0.41064
H44 H 0.57085 0.46702 0.44599
H45 H 0.36257 0.32671 0.38883
H46 H 0.34642 0.40071 0.30442
H47 H 0.42649 0.3552 0.27081
H48 H 0.4951 0.30093 0.29982
H49 H 0.30389 0.22643 0.34855
H50 H 0.23007 0.20149 0.29826
H51 H 0.44321 0.17621 0.24922
H52 H 0.51816 0.20478 0.29698
H53 H 0.27296 0.14155 0.24049
H54 H 0.3155 0.17559 0.2156
H55 H 0.23199 0.18613 0.23576
H56 H 0.13678 0.33873 0.39546
H57 H 0.09797 0.44633 0.34899
H58 H -0.03294 0.42846 0.33688
H59 H 0.58105 0.13815 0.3495
H60 H 0.52583 0.17334 0.47798
H61 H 0.59733 0.11735 0.50201
H62 H 0.74289 0.11585 0.4131
H63 H 0.67334 0.17209 0.391
H64 H 0.76709 0.08246 0.49082
H65 H 0.74325 0.05683 0.45565
H66 H 0.68436 0.05629 0.48984
Ag1C Ag -0.05568(5) 0.24943(3) 0.57343(2)
Ag2C Ag 0.23520(6) 0.08879(3) 0.38322(3)
S2C S 0.2189(2) -0.00562(13) 0.33320(12)
F4C F 0.3709(2) -0.0234(2) 0.34407(19)
F5C F 0.2997(4) -0.0194(2) 0.39170(12)
F6C F 0.2886(4) -0.07186(13) 0.3575(2)
O4C O 0.2468(4) 0.03617(12) 0.33172(19)
O5C O 0.1487(2) -0.0123(2) 0.35503(18)
O6C O 0.2187(4) -0.0270(2) 0.29967(12)
N1C N 0.0227(6) 0.2076(3) 0.6075(2)
N2C N 0.1842(6) 0.0635(3) 0.4351(2)
N3C N -0.0259(6) 0.3191(3) 0.5709(2)
N4C N -0.1098(6) 0.2298(2) 0.5192(2)
N5C N 0.1565(6) 0.1338(3) 0.3492(2)
N6C N 0.3701(6) 0.1051(3) 0.3741(2)
C1C C 0.1926(6) 0.1353(3) 0.5849(3)
C2C C 0.1617(7) 0.1096(3) 0.5567(2)
C3C C 0.2153(7) 0.0933(3) 0.5317(3)
C4C C 0.3006(7) 0.0974(3) 0.5356(3)
C5C C 0.3319(7) 0.1210(3) 0.5640(3)
C6C C 0.2786(6) 0.1386(3) 0.5891(3)
C7C C 0.1343(7) 0.1575(3) 0.6077(2)
C8C C 0.0850(7) 0.1883(3) 0.5914(3)
C9C C 0.0070(8) 0.1983(4) 0.6421(3)
C10C C 0.0537(8) 0.1708(4) 0.6604(3)
C11C C 0.1174(7) 0.1499(4) 0.6441(3)
C12C C 0.0715(7) 0.1043(3) 0.5554(3)
C13C C 0.0221(8) 0.1223(3) 0.5294(3)
C14C C -0.0630(8) 0.1193(4) 0.5325(3)
C15C C -0.0996(7) 0.0985(4) 0.5595(4)
C16C C -0.0496(8) 0.0780(4) 0.5854(3)
C17C C 0.0335(8) 0.0802(3) 0.5829(3)
C18C C -0.1935(9) 0.0981(7) 0.5630(5)
C19C C 0.1829(7) 0.0689(3) 0.4997(2)
C20C C 0.2025(6) 0.0838(3) 0.4656(2)
C21C C 0.1443(8) 0.0281(3) 0.4393(3)
C22C C 0.1223(8) 0.0119(4) 0.4715(3)
C23C C 0.1419(7) 0.0322(3) 0.5023(3)
C24C C 0.3557(7) 0.0777(3) 0.5091(3)
C25C C 0.4006(7) 0.1002(3) 0.4837(3)
C26C C 0.4476(7) 0.0814(3) 0.4578(3)
C27C C 0.4509(7) 0.0380(3) 0.4558(3)
C28C C 0.4093(9) 0.0150(3) 0.4822(3)
C29C C 0.3594(8) 0.0349(3) 0.5073(3)
C30C C 0.5009(9) 0.0175(5) 0.4266(3)
C31C C 0.4206(7) 0.1289(3) 0.5680(3)
C32C C 0.0519(7) 0.3300(3) 0.5648(3)
C33C C -0.0796(7) 0.3493(4) 0.5782(3)
C34C C -0.0588(7) 0.3905(4) 0.5818(4)
C35C C 0.4760(8) 0.0984(3) 0.5769(3)
C36C C 0.3115(7) 0.1610(4) 0.6215(3)
C37C C 0.3079(8) 0.2046(4) 0.6240(3)
C38C C 0.3442(9) 0.2244(4) 0.6542(3)
C39C C 0.3764(10) 0.2040(4) 0.6817(4)
C40C C 0.3817(11) 0.1585(4) 0.6774(4)
C41C C 0.3505(8) 0.1381(4) 0.6477(3)
C42C C 0.4131(17) 0.2239(6) 0.7137(4)
C43C C -0.0530(7) 0.2449(3) 0.4210(3)
C44C C -0.0193(7) 0.2149(3) 0.3992(2)
C45C C 0.0259(7) 0.2256(3) 0.3693(2)
C46C C 0.0371(7) 0.2676(4) 0.3603(3)
C47C C 0.0021(7) 0.2982(3) 0.3825(3)
C48C C -0.0438(7) 0.2873(3) 0.4124(2)
C49C C -0.1004(7) 0.2329(3) 0.4544(2)
C50C C -0.0686(7) 0.2406(3) 0.4880(3)
C51C C -0.1796(6) 0.2118(3) 0.5162(2)
C52C C -0.2155(7) 0.2019(3) 0.4833(3)
C53C C -0.1752(6) 0.2133(3) 0.4518(3)
C54C C -0.0351(7) 0.1707(4) 0.4064(3)
C55C C -0.0026(8) 0.1489(3) 0.4354(3)
C56C C -0.0142(9) 0.1073(4) 0.4404(3)
C57C C -0.0621(9) 0.0845(4) 0.4152(4)
C58C C -0.0970(8) 0.1063(4) 0.3874(4)
C59C C -0.0843(8) 0.1474(3) 0.3814(3)
C60C C -0.0730(12) 0.0395(4) 0.4204(6)
C61C C 0.0671(7) 0.1925(3) 0.3480(3)
C62C C 0.1224(7) 0.1670(3) 0.3648(3)
C63C C 0.1340(9) 0.1241(4) 0.3151(3)
C64C C 0.0826(8) 0.1499(4) 0.2956(3)
C65C C 0.0447(9) 0.1831(4) 0.3121(3)
C66C C 0.0813(8) 0.2813(3) 0.3284(2)
C67C C 0.1671(9) 0.2830(4) 0.3281(3)
C68C C 0.2121(10) 0.2986(5) 0.2980(3)
C69C C 0.1702(11) 0.3136(4) 0.2685(3)
C70C C 0.0855(12) 0.3127(4) 0.2692(3)
C71C C 0.0396(9) 0.2962(4) 0.2981(3)
C72C C 0.2162(15) 0.3288(7) 0.2375(4)
C73C C 0.0230(8) 0.3428(3) 0.3740(3)
C74C C 0.3984(8) 0.1431(3) 0.3828(3)
C75C C 0.4210(8) 0.0801(3) 0.3563(4)
C76C C 0.4981(8) 0.0910(4) 0.3482(4)
C77C C -0.0274(8) 0.3698(4) 0.3562(3)
C78C C -0.0907(7) 0.3216(3) 0.4316(2)
C79C C -0.0699(8) 0.3383(4) 0.4649(3)
C80C C -0.1127(9) 0.3718(4) 0.4793(3)
C81C C -0.1766(8) 0.3891(3) 0.4610(3)
C82C C -0.1994(8) 0.3724(3) 0.4264(3)
C83C C -0.1572(8) 0.3394(4) 0.4133(3)
C84C C -0.2219(10) 0.4268(4) 0.4756(4)
C92C C 0.2981(2) -0.03127(14) 0.35773(12)
H1C H 0.09715 0.1958 0.56739
H2C H -0.03748 0.21124 0.65386
H3C H 0.04228 0.16568 0.68494
H4C H 0.14927 0.13074 0.6573
H5C H 0.04582 0.13648 0.50966
H6C H -0.09607 0.13232 0.51492
H7C H -0.07406 0.06283 0.60438
H8C H 0.06632 0.06555 0.59963
H9C H -0.21107 0.12175 0.57746
H10C H -0.21082 0.07237 0.5746
H11C H -0.2181 0.09989 0.53908
H12C H 0.23005 0.10957 0.46383
H13C H 0.13024 0.01299 0.41833
H14C H 0.0934 -0.01356 0.47259
H15C H 0.12742 0.02122 0.52501
H16C H 0.39854 0.1295 0.48437
H17C H 0.47781 0.09774 0.44135
H18C H 0.41522 -0.01426 0.48294
H19C H 0.32771 0.01879 0.52347
H20C H 0.46708 0.01363 0.40523
H21C H 0.52053 -0.00937 0.43506
H22C H 0.54757 0.03517 0.42064
H23C H 0.08979 0.30918 0.55816
H24C H -0.13517 0.34193 0.58113
H25C H -0.09881 0.41077 0.58743
H26C H 0.45898 0.07048 0.57967
H27C H 0.28182 0.22037 0.60588
H28C H 0.34528 0.2538 0.65477
H29C H 0.40736 0.14274 0.69567
H30C H 0.35591 0.109 0.64543
H31C H 0.47102 0.22926 0.70923
H32C H 0.40749 0.20553 0.73445
H33C H 0.38514 0.25007 0.71855
H34C H -0.01689 0.25371 0.48993
H35C H -0.20828 0.20489 0.53754
H36C H -0.26622 0.18779 0.4823
H37C H -0.1986 0.2077 0.42907
H38C H 0.02905 0.16365 0.45252
H39C H 0.0095 0.09364 0.46037
H40C H -0.132 0.09183 0.37151
H41C H -0.10741 0.16053 0.36096
H42C H -0.02952 0.02462 0.40781
H43C H -0.12598 0.03107 0.41064
H44C H -0.07085 0.03298 0.44599
H45C H 0.13743 0.17329 0.38883
H46C H 0.15358 0.09929 0.30442
H47C H 0.07351 0.1448 0.27081
H48C H 0.0049 0.19907 0.29982
H49C H 0.19611 0.27357 0.34855
H50C H 0.26993 0.29851 0.29826
H51C H 0.05679 0.32379 0.24922
H52C H -0.01816 0.29522 0.29698
H53C H 0.22704 0.35845 0.24049
H54C H 0.1845 0.32441 0.2156
H55C H 0.26801 0.31387 0.23576
H56C H 0.36322 0.16127 0.39546
H57C H 0.40203 0.05367 0.34899
H58C H 0.53294 0.07154 0.33688
H59C H -0.08105 0.36185 0.3495
H60C H -0.02583 0.32666 0.47798
H61C H -0.09733 0.38265 0.50201
H62C H -0.24289 0.38415 0.4131
H63C H -0.17334 0.32791 0.391
H64C H -0.26709 0.41754 0.49082
H65C H -0.24325 0.44317 0.45565
H66C H -0.18436 0.44371 0.48984
loop_
_geom_bond_atom_site_label_1
_geom_bond_atom_site_label_2
_geom_bond_site_symmetry_1
_geom_bond_site_symmetry_2
Ag1 N1 1_555 1_555
Ag2 O4 1_555 1_555
S2 O4 1_555 1_555
F1 C91 1_555 1_555
F3 C91 1_555 1_555
F4 C92 1_555 1_555
F5 C92 1_555 1_555
F6 C92 1_555 1_555
O5 S2 1_555 1_555
O6 S2 1_555 1_555
O9 N8 1_555 1_555
O10 N8 1_555 1_555
O11 N8 1_555 1_555
N1 C8 1_555 1_555
N2 Ag2 1_555 1_555
N3 Ag1 1_555 1_555
N4 Ag1 1_555 1_555
N5 Ag2 1_555 1_555
N6 Ag2 1_555 1_555
N8 C94 1_555 1_555
C1 C2 1_555 1_555
C2 C3 1_555 1_555
C3 C4 1_555 1_555
C4 C5 1_555 1_555
C5 C6 1_555 1_555
C6 C1 1_555 1_555
C7 C1 1_555 1_555
C8 C7 1_555 1_555
C9 N1 1_555 1_555
C10 C9 1_555 1_555
C11 C7 1_555 1_555
C12 C2 1_555 1_555
C13 C12 1_555 1_555
C14 C13 1_555 1_555
C15 C14 1_555 1_555
C16 C15 1_555 1_555
C17 C12 1_555 1_555
C18 C15 1_555 1_555
C19 C3 1_555 1_555
C20 N2 1_555 1_555
C21 N2 1_555 1_555
C22 C21 1_555 1_555
C23 C19 1_555 1_555
C24 C4 1_555 1_555
C25 C24 1_555 1_555
C26 C25 1_555 1_555
C27 C26 1_555 1_555
C28 C27 1_555 1_555
C29 C24 1_555 1_555
C30 C27 1_555 1_555
C31 C5 1_555 1_555
C32 N3 1_555 1_555
C33 N3 1_555 1_555
C34 C33 1_555 1_555
C35 C31 1_555 1_555
C36 C6 1_555 1_555
C37 C36 1_555 1_555
C38 C37 1_555 1_555
C39 C38 1_555 1_555
C40 C39 1_555 1_555
C41 C36 1_555 1_555
C42 C39 1_555 1_555
C43 C44 1_555 1_555
C44 C45 1_555 1_555
C45 C46 1_555 1_555
C46 C47 1_555 1_555
C47 C48 1_555 1_555
C48 C43 1_555 1_555
C49 C43 1_555 1_555
C50 N4 1_555 1_555
C51 N4 1_555 1_555
C52 C51 1_555 1_555
C53 C49 1_555 1_555
C54 C44 1_555 1_555
C55 C54 1_555 1_555
C56 C55 1_555 1_555
C57 C56 1_555 1_555
C58 C57 1_555 1_555
C59 C54 1_555 1_555
C60 C57 1_555 1_555
C61 C45 1_555 1_555
C62 N5 1_555 1_555
C63 N5 1_555 1_555
C64 C63 1_555 1_555
C65 C61 1_555 1_555
C66 C46 1_555 1_555
C67 C66 1_555 1_555
C68 C67 1_555 1_555
C69 C68 1_555 1_555
C70 C69 1_555 1_555
C71 C66 1_555 1_555
C72 C69 1_555 1_555
C73 C47 1_555 1_555
C74 N6 1_555 1_555
C75 N6 1_555 1_555
C76 C75 1_555 1_555
C77 C73 1_555 1_555
C78 C48 1_555 1_555
C79 C78 1_555 1_555
C80 C79 1_555 1_555
C81 C80 1_555 1_555
C82 C81 1_555 1_555
C83 C78 1_555 1_555
C84 C81 1_555 1_555
C85 C86 1_555 1_555
C86 C88 1_555 1_555
C87 C85 1_555 1_555
C88 C89 1_555 1_555
C89 H73 1_555 1_555
C90 C85 1_555 1_555
C92 S2 1_555 1_555
H1 C8 1_555 1_555
H2 C9 1_555 1_555
H3 C10 1_555 1_555
H4 C11 1_555 1_555
H5 C13 1_555 1_555
H6 C14 1_555 1_555
H7 C16 1_555 1_555
H8 C17 1_555 1_555
H9 C18 1_555 1_555
H10 C18 1_555 1_555
H11 C18 1_555 1_555
H12 C20 1_555 1_555
H13 C21 1_555 1_555
H14 C22 1_555 1_555
H15 C23 1_555 1_555
H16 C25 1_555 1_555
H17 C26 1_555 1_555
H18 C28 1_555 1_555
H19 C29 1_555 1_555
H20 C30 1_555 1_555
H21 C30 1_555 1_555
H22 C30 1_555 1_555
H23 C32 1_555 1_555
H24 C33 1_555 1_555
H25 C34 1_555 1_555
H26 C35 1_555 1_555
H27 C37 1_555 1_555
H28 C38 1_555 1_555
H29 C40 1_555 1_555
H30 C41 1_555 1_555
H31 C42 1_555 1_555
H32 C42 1_555 1_555
H33 C42 1_555 1_555
H34 C50 1_555 1_555
H35 C51 1_555 1_555
H36 C52 1_555 1_555
H37 C53 1_555 1_555
H38 C55 1_555 1_555
H39 C56 1_555 1_555
H40 C58 1_555 1_555
H41 C59 1_555 1_555
H42 C60 1_555 1_555
H43 C60 1_555 1_555
H44 C60 1_555 1_555
H45 C62 1_555 1_555
H46 C63 1_555 1_555
H47 C64 1_555 1_555
H48 C65 1_555 1_555
H49 C67 1_555 1_555
H50 C68 1_555 1_555
H51 C70 1_555 1_555
H52 C71 1_555 1_555
H53 C72 1_555 1_555
H54 C72 1_555 1_555
H55 C72 1_555 1_555
H56 C74 1_555 1_555
H57 C75 1_555 1_555
H58 C76 1_555 1_555
H59 C77 1_555 1_555
H60 C79 1_555 1_555
H61 C80 1_555 1_555
H62 C82 1_555 1_555
H63 C83 1_555 1_555
H64 C84 1_555 1_555
H65 C84 1_555 1_555
H66 C84 1_555 1_555
H67 C85 1_555 1_555
H68 C86 1_555 1_555
H69 C86 1_555 1_555
H70 C87 1_555 1_555
H71 C87 1_555 1_555
H72 C88 1_555 1_555
H74 C90 1_555 1_555
Ag1C N1C 1_555 1_555
Ag2C O4C 1_555 1_555
S2C O4C 1_555 1_555
F4C C92C 1_555 1_555
F5C C92C 1_555 1_555
F6C C92C 1_555 1_555
O5C S2C 1_555 1_555
O6C S2C 1_555 1_555
N1C C8C 1_555 1_555
N2C Ag2C 1_555 1_555
N3C Ag1C 1_555 1_555
N4C Ag1C 1_555 1_555
N5C Ag2C 1_555 1_555
N6C Ag2C 1_555 1_555
C1C C2C 1_555 1_555
C2C C3C 1_555 1_555
C3C C4C 1_555 1_555
C4C C5C 1_555 1_555
C5C C6C 1_555 1_555
C6C C1C 1_555 1_555
C7C C1C 1_555 1_555
C8C C7C 1_555 1_555
C9C N1C 1_555 1_555
C10C C9C 1_555 1_555
C11C C7C 1_555 1_555
C12C C2C 1_555 1_555
C13C C12C 1_555 1_555
C14C C13C 1_555 1_555
C15C C14C 1_555 1_555
C16C C15C 1_555 1_555
C17C C12C 1_555 1_555
C18C C15C 1_555 1_555
C19C C3C 1_555 1_555
C20C N2C 1_555 1_555
C21C N2C 1_555 1_555
C22C C21C 1_555 1_555
C23C C19C 1_555 1_555
C24C C4C 1_555 1_555
C25C C24C 1_555 1_555
C26C C25C 1_555 1_555
C27C C26C 1_555 1_555
C28C C27C 1_555 1_555
C29C C24C 1_555 1_555
C30C C27C 1_555 1_555
C31C C32 1_555 1_555
C32C C31 1_555 1_555
C33C N3C 1_555 1_555
C34C C35 1_555 1_555
C35C C34 1_555 1_555
C36C C6C 1_555 1_555
C37C C36C 1_555 1_555
C38C C37C 1_555 1_555
C39C C38C 1_555 1_555
C40C C39C 1_555 1_555
C41C C36C 1_555 1_555
C42C C39C 1_555 1_555
C43C C44C 1_555 1_555
C44C C45C 1_555 1_555
C45C C46C 1_555 1_555
C46C C47C 1_555 1_555
C47C C48C 1_555 1_555
C48C C43C 1_555 1_555
C49C C43C 1_555 1_555
C50C N4C 1_555 1_555
C51C N4C 1_555 1_555
C52C C51C 1_555 1_555
C53C C49C 1_555 1_555
C54C C44C 1_555 1_555
C55C C54C 1_555 1_555
C56C C55C 1_555 1_555
C57C C56C 1_555 1_555
C58C C57C 1_555 1_555
C59C C54C 1_555 1_555
C60C C57C 1_555 1_555
C61C C45C 1_555 1_555
C62C N5C 1_555 1_555
C63C N5C 1_555 1_555
C64C C63C 1_555 1_555
C65C C61C 1_555 1_555
C66C C46C 1_555 1_555
C67C C66C 1_555 1_555
C68C C67C 1_555 1_555
C69C C68C 1_555 1_555
C70C C69C 1_555 1_555
C71C C66C 1_555 1_555
C72C C69C 1_555 1_555
C73C C74 1_555 1_555
C74C C73 1_555 1_555
C75C N6C 1_555 1_555
C76C C77 1_555 1_555
C77C C76 1_555 1_555
C78C C48C 1_555 1_555
C79C C78C 1_555 1_555
C80C C79C 1_555 1_555
C81C C80C 1_555 1_555
C82C C81C 1_555 1_555
C83C C78C 1_555 1_555
C84C C81C 1_555 1_555
C85C C90 1_555 1_555
C86C C85C 1_555 1_555
C87C C88 1_555 1_555
C88C C87 1_555 1_555
C92C S2C 1_555 1_555
H1C C8C 1_555 1_555
H2C C9C 1_555 1_555
H3C C10C 1_555 1_555
H4C C11C 1_555 1_555
H5C C13C 1_555 1_555
H6C C14C 1_555 1_555
H7C C16C 1_555 1_555
H8C C17C 1_555 1_555
H9C C18C 1_555 1_555
H10C C18C 1_555 1_555
H11C C18C 1_555 1_555
H12C C20C 1_555 1_555
H13C C21C 1_555 1_555
H14C C22C 1_555 1_555
H15C C23C 1_555 1_555
H16C C25C 1_555 1_555
H17C C26C 1_555 1_555
H18C C28C 1_555 1_555
H19C C29C 1_555 1_555
H20C C30C 1_555 1_555
H21C C30C 1_555 1_555
H22C C30C 1_555 1_555
H23C C32C 1_555 1_555
H24C C33C 1_555 1_555
H25C C34C 1_555 1_555
H26C C35C 1_555 1_555
H27C C37C 1_555 1_555
H28C C38C 1_555 1_555
H29C C40C 1_555 1_555
H30C C41C 1_555 1_555
H31C C42C 1_555 1_555
H32C C42C 1_555 1_555
H33C C42C 1_555 1_555
H34C C50C 1_555 1_555
H35C C51C 1_555 1_555
H36C C52C 1_555 1_555
H37C C53C 1_555 1_555
H38C C55C 1_555 1_555
H39C C56C 1_555 1_555
H40C C58C 1_555 1_555
H41C C59C 1_555 1_555
H42C C60C 1_555 1_555
H43C C60C 1_555 1_555
H44C C60C 1_555 1_555
H45C C62C 1_555 1_555
H46C C63C 1_555 1_555
H47C C64C 1_555 1_555
H48C C65C 1_555 1_555
H49C C67C 1_555 1_555
H50C C68C 1_555 1_555
H51C C70C 1_555 1_555
H52C C71C 1_555 1_555
H53C C72C 1_555 1_555
H54C C72C 1_555 1_555
H55C C72C 1_555 1_555
H56C C74C 1_555 1_555
H57C C75C 1_555 1_555
H58C C76C 1_555 1_555
H59C C77C 1_555 1_555
H60C C79C 1_555 1_555
H61C C80C 1_555 1_555
H62C C82C 1_555 1_555
H63C C83C 1_555 1_555
H64C C84C 1_555 1_555
H65C C84C 1_555 1_555
H66C C84C 1_555 1_555
H67C C85C 1_555 1_555
H68C C86C 1_555 1_555
H69C C86C 1_555 1_555
H70C C87C 1_555 1_555
H71C C87C 1_555 1_555
H72C C88C 1_555 1_555
H73C C89 1_555 1_555
H74C C90 1_555 1_555
C10 C11 1_555 1_555
C16 C17 1_555 1_555
C19 C20 1_555 1_555
C22 C23 1_555 1_555
C28 C29 1_555 1_555
C40 C41 1_555 1_555
C49 C50 1_555 1_555
C52 C53 1_555 1_555
C58 C59 1_555 1_555
C61 C62 1_555 1_555
C64 C65 1_555 1_555
C70 C71 1_555 1_555
C82 C83 1_555 1_555
C89 C88C 1_555 1_555
N3C C32C 1_555 1_555
N6C C74C 1_555 1_555
C5C C31C 1_555 1_555
C10C C11C 1_555 1_555
C16C C17C 1_555 1_555
C19C C20C 1_555 1_555
C22C C23C 1_555 1_555
C28C C29C 1_555 1_555
C31C C35C 1_555 1_555
C33C C34C 1_555 1_555
C40C C41C 1_555 1_555
C47C C73C 1_555 1_555
C49C C50C 1_555 1_555
C52C C53C 1_555 1_555
C58C C59C 1_555 1_555
C61C C62C 1_555 1_555
C64C C65C 1_555 1_555
C70C C71C 1_555 1_555
C73C C77C 1_555 1_555
C75C C76C 1_555 1_555
C82C C83C 1_555 1_555
C85C C87C 1_555 1_555
C86C C88C 1_555 1_555

#END
