# generated using pymatgen
data_Ag4H148C185S3N16(O8F3)4
_symmetry_space_group_name_H-M   'P 1'
_cell_length_a   16.41400000
_cell_length_b   32.34000000
_cell_length_c   37.30000000
_cell_angle_alpha   90.00000000
_cell_angle_beta   90.00000000
_cell_angle_gamma   90.00000000
_symmetry_Int_Tables_number   1
_chemical_formula_structural   Ag4H148C185S3N16(O8F3)4
_chemical_formula_sum   'Ag16 H592 C740 S12 N64 O128 F48'
_cell_volume   19799.91274800
_cell_formula_units_Z   4
loop_
 _symmetry_equiv_pos_site_id
 _symmetry_equiv_pos_as_xyz
  1  'x, y, z'
loop_
 _atom_site_type_symbol
 _atom_site_label
 _atom_site_symmetry_multiplicity
 _atom_site_fract_x
 _atom_site_fract_y
 _atom_site_fract_z
 _atom_site_occupancy
  Ag  Ag1  1  0.555680  0.250570  0.573430  1.0
  Ag  Ag2  1  0.055680  0.749430  0.926570  1.0
  Ag  Ag3  1  0.444320  0.750570  0.926570  1.0
  Ag  Ag4  1  0.944320  0.249430  0.573430  1.0
  Ag  Ag5  1  0.444320  0.749430  0.426570  1.0
  Ag  Ag6  1  0.944320  0.250570  0.073430  1.0
  Ag  Ag7  1  0.555680  0.249430  0.073430  1.0
  Ag  Ag8  1  0.055680  0.750570  0.426570  1.0
  Ag  Ag9  1  0.264800  0.411210  0.383220  1.0
  Ag  Ag10  1  0.764800  0.588790  0.116780  1.0
  Ag  Ag11  1  0.735200  0.911210  0.116780  1.0
  Ag  Ag12  1  0.235200  0.088790  0.383220  1.0
  Ag  Ag13  1  0.735200  0.588790  0.616780  1.0
  Ag  Ag14  1  0.235200  0.411210  0.883220  1.0
  Ag  Ag15  1  0.264800  0.088790  0.883220  1.0
  Ag  Ag16  1  0.764800  0.911210  0.616780  1.0
  H  H17  1  0.252350  0.311790  0.517130  1.0
  H  H18  1  0.752350  0.688210  0.982870  1.0
  H  H19  1  0.747650  0.811790  0.982870  1.0
  H  H20  1  0.247650  0.188210  0.517130  1.0
  H  H21  1  0.747650  0.688210  0.482870  1.0
  H  H22  1  0.247650  0.311790  0.017130  1.0
  H  H23  1  0.252350  0.188210  0.017130  1.0
  H  H24  1  0.752350  0.811790  0.482870  1.0
  H  H25  1  0.317500  0.314400  0.463500  1.0
  H  H26  1  0.817500  0.685600  0.036500  1.0
  H  H27  1  0.682500  0.814400  0.036500  1.0
  H  H28  1  0.182500  0.185600  0.463500  1.0
  H  H29  1  0.682500  0.685600  0.536500  1.0
  H  H30  1  0.182500  0.314400  0.963500  1.0
  H  H31  1  0.317500  0.185600  0.963500  1.0
  H  H32  1  0.817500  0.814400  0.536500  1.0
  H  H33  1  0.370200  0.290700  0.491300  1.0
  H  H34  1  0.870200  0.709300  0.008700  1.0
  H  H35  1  0.629800  0.790700  0.008700  1.0
  H  H36  1  0.129800  0.209300  0.491300  1.0
  H  H37  1  0.629800  0.709300  0.508700  1.0
  H  H38  1  0.129800  0.290700  0.991300  1.0
  H  H39  1  0.370200  0.209300  0.991300  1.0
  H  H40  1  0.870200  0.790700  0.508700  1.0
  H  H41  1  0.168780  0.313280  0.464210  1.0
  H  H42  1  0.668780  0.686720  0.035790  1.0
  H  H43  1  0.831220  0.813280  0.035790  1.0
  H  H44  1  0.331220  0.186720  0.464210  1.0
  H  H45  1  0.831220  0.686720  0.535790  1.0
  H  H46  1  0.331220  0.313280  0.964210  1.0
  H  H47  1  0.168780  0.186720  0.964210  1.0
  H  H48  1  0.668780  0.813280  0.535790  1.0
  H  H49  1  0.123350  0.286550  0.494680  1.0
  H  H50  1  0.623350  0.713450  0.005320  1.0
  H  H51  1  0.876650  0.786550  0.005320  1.0
  H  H52  1  0.376650  0.213450  0.494680  1.0
  H  H53  1  0.876650  0.713450  0.505320  1.0
  H  H54  1  0.376650  0.286550  0.994680  1.0
  H  H55  1  0.123350  0.213450  0.994680  1.0
  H  H56  1  0.623350  0.786550  0.505320  1.0
  H  H57  1  0.372100  0.254200  0.438000  1.0
  H  H58  1  0.872100  0.745800  0.062000  1.0
  H  H59  1  0.627900  0.754200  0.062000  1.0
  H  H60  1  0.127900  0.245800  0.438000  1.0
  H  H61  1  0.627900  0.745800  0.562000  1.0
  H  H62  1  0.127900  0.254200  0.938000  1.0
  H  H63  1  0.372100  0.245800  0.938000  1.0
  H  H64  1  0.872100  0.754200  0.562000  1.0
  H  H65  1  0.253800  0.226100  0.415100  1.0
  H  H66  1  0.753800  0.773900  0.084900  1.0
  H  H67  1  0.746200  0.726100  0.084900  1.0
  H  H68  1  0.246200  0.273900  0.415100  1.0
  H  H69  1  0.746200  0.773900  0.584900  1.0
  H  H70  1  0.246200  0.226100  0.915100  1.0
  H  H71  1  0.253800  0.273900  0.915100  1.0
  H  H72  1  0.753800  0.726100  0.584900  1.0
  H  H73  1  0.297200  0.249590  0.539100  1.0
  H  H74  1  0.797200  0.750410  0.960900  1.0
  H  H75  1  0.702800  0.749590  0.960900  1.0
  H  H76  1  0.202800  0.250410  0.539100  1.0
  H  H77  1  0.702800  0.750410  0.460900  1.0
  H  H78  1  0.202800  0.249590  0.039100  1.0
  H  H79  1  0.297200  0.250410  0.039100  1.0
  H  H80  1  0.797200  0.749590  0.460900  1.0
  H  H81  1  0.402850  0.304200  0.567390  1.0
  H  H82  1  0.902850  0.695800  0.932610  1.0
  H  H83  1  0.597150  0.804200  0.932610  1.0
  H  H84  1  0.097150  0.195800  0.567390  1.0
  H  H85  1  0.597150  0.695800  0.432610  1.0
  H  H86  1  0.097150  0.304200  0.067390  1.0
  H  H87  1  0.402850  0.195800  0.067390  1.0
  H  H88  1  0.902850  0.804200  0.432610  1.0
  H  H89  1  0.537480  0.288760  0.653860  1.0
  H  H90  1  0.037480  0.711240  0.846140  1.0
  H  H91  1  0.462520  0.788760  0.846140  1.0
  H  H92  1  0.962520  0.211240  0.653860  1.0
  H  H93  1  0.462520  0.711240  0.346140  1.0
  H  H94  1  0.962520  0.288760  0.153860  1.0
  H  H95  1  0.537480  0.211240  0.153860  1.0
  H  H96  1  0.037480  0.788760  0.346140  1.0
  H  H97  1  0.457720  0.334320  0.684940  1.0
  H  H98  1  0.957720  0.665680  0.815060  1.0
  H  H99  1  0.542280  0.834320  0.815060  1.0
  H  H100  1  0.042280  0.165680  0.684940  1.0
  H  H101  1  0.542280  0.665680  0.315060  1.0
  H  H102  1  0.042280  0.334320  0.184940  1.0
  H  H103  1  0.457720  0.165680  0.184940  1.0
  H  H104  1  0.957720  0.834320  0.315060  1.0
  H  H105  1  0.350730  0.369260  0.657300  1.0
  H  H106  1  0.850730  0.630740  0.842700  1.0
  H  H107  1  0.649270  0.869260  0.842700  1.0
  H  H108  1  0.149270  0.130740  0.657300  1.0
  H  H109  1  0.649270  0.630740  0.342700  1.0
  H  H110  1  0.149270  0.369260  0.157300  1.0
  H  H111  1  0.350730  0.130740  0.157300  1.0
  H  H112  1  0.850730  0.869260  0.342700  1.0
  H  H113  1  0.454180  0.363520  0.509660  1.0
  H  H114  1  0.954180  0.636480  0.990340  1.0
  H  H115  1  0.545820  0.863520  0.990340  1.0
  H  H116  1  0.045820  0.136480  0.509660  1.0
  H  H117  1  0.545820  0.636480  0.490340  1.0
  H  H118  1  0.045820  0.363520  0.009660  1.0
  H  H119  1  0.454180  0.136480  0.009660  1.0
  H  H120  1  0.954180  0.863520  0.490340  1.0
  H  H121  1  0.596070  0.367680  0.514920  1.0
  H  H122  1  0.096070  0.632320  0.985080  1.0
  H  H123  1  0.403930  0.867680  0.985080  1.0
  H  H124  1  0.903930  0.132320  0.514920  1.0
  H  H125  1  0.403930  0.632320  0.485080  1.0
  H  H126  1  0.903930  0.367680  0.014920  1.0
  H  H127  1  0.596070  0.132320  0.014920  1.0
  H  H128  1  0.096070  0.867680  0.485080  1.0
  H  H129  1  0.574060  0.437170  0.604380  1.0
  H  H130  1  0.074060  0.562830  0.895620  1.0
  H  H131  1  0.425940  0.937170  0.895620  1.0
  H  H132  1  0.925940  0.062830  0.604380  1.0
  H  H133  1  0.425940  0.562830  0.395620  1.0
  H  H134  1  0.925940  0.437170  0.104380  1.0
  H  H135  1  0.574060  0.062830  0.104380  1.0
  H  H136  1  0.074060  0.937170  0.395620  1.0
  H  H137  1  0.433680  0.434450  0.599630  1.0
  H  H138  1  0.933680  0.565550  0.900370  1.0
  H  H139  1  0.566320  0.934450  0.900370  1.0
  H  H140  1  0.066320  0.065550  0.599630  1.0
  H  H141  1  0.566320  0.565550  0.400370  1.0
  H  H142  1  0.066320  0.434450  0.099630  1.0
  H  H143  1  0.433680  0.065550  0.099630  1.0
  H  H144  1  0.933680  0.934450  0.400370  1.0
  H  H145  1  0.711070  0.378250  0.577460  1.0
  H  H146  1  0.211070  0.621750  0.922540  1.0
  H  H147  1  0.288930  0.878250  0.922540  1.0
  H  H148  1  0.788930  0.121750  0.577460  1.0
  H  H149  1  0.288930  0.621750  0.422540  1.0
  H  H150  1  0.788930  0.378250  0.077460  1.0
  H  H151  1  0.711070  0.121750  0.077460  1.0
  H  H152  1  0.211070  0.878250  0.422540  1.0
  H  H153  1  0.710820  0.427630  0.574600  1.0
  H  H154  1  0.210820  0.572370  0.925400  1.0
  H  H155  1  0.289180  0.927630  0.925400  1.0
  H  H156  1  0.789180  0.072370  0.574600  1.0
  H  H157  1  0.289180  0.572370  0.425400  1.0
  H  H158  1  0.789180  0.427630  0.074600  1.0
  H  H159  1  0.710820  0.072370  0.074600  1.0
  H  H160  1  0.210820  0.927630  0.425400  1.0
  H  H161  1  0.718100  0.400110  0.539080  1.0
  H  H162  1  0.218100  0.599890  0.960920  1.0
  H  H163  1  0.281900  0.900110  0.960920  1.0
  H  H164  1  0.781900  0.099890  0.539080  1.0
  H  H165  1  0.281900  0.599890  0.460920  1.0
  H  H166  1  0.781900  0.400110  0.039080  1.0
  H  H167  1  0.718100  0.099890  0.039080  1.0
  H  H168  1  0.218100  0.900110  0.460920  1.0
  H  H169  1  0.269950  0.390430  0.463830  1.0
  H  H170  1  0.769950  0.609570  0.036170  1.0
  H  H171  1  0.730050  0.890430  0.036170  1.0
  H  H172  1  0.230050  0.109570  0.463830  1.0
  H  H173  1  0.730050  0.609570  0.536170  1.0
  H  H174  1  0.230050  0.390430  0.963830  1.0
  H  H175  1  0.269950  0.109570  0.963830  1.0
  H  H176  1  0.769950  0.890430  0.536170  1.0
  H  H177  1  0.369760  0.487010  0.418330  1.0
  H  H178  1  0.869760  0.512990  0.081670  1.0
  H  H179  1  0.630240  0.987010  0.081670  1.0
  H  H180  1  0.130240  0.012990  0.418330  1.0
  H  H181  1  0.630240  0.512990  0.581670  1.0
  H  H182  1  0.130240  0.487010  0.918330  1.0
  H  H183  1  0.369760  0.012990  0.918330  1.0
  H  H184  1  0.869760  0.987010  0.581670  1.0
  H  H185  1  0.406600  0.513560  0.472590  1.0
  H  H186  1  0.906600  0.486440  0.027410  1.0
  H  H187  1  0.593400  0.013560  0.027410  1.0
  H  H188  1  0.093400  0.986440  0.472590  1.0
  H  H189  1  0.593400  0.486440  0.527410  1.0
  H  H190  1  0.093400  0.513560  0.972590  1.0
  H  H191  1  0.406600  0.986440  0.972590  1.0
  H  H192  1  0.906600  0.013560  0.527410  1.0
  H  H193  1  0.372580  0.478780  0.525010  1.0
  H  H194  1  0.872580  0.521220  0.974990  1.0
  H  H195  1  0.627420  0.978780  0.974990  1.0
  H  H196  1  0.127420  0.021220  0.525010  1.0
  H  H197  1  0.627420  0.521220  0.474990  1.0
  H  H198  1  0.127420  0.478780  0.025010  1.0
  H  H199  1  0.372580  0.021220  0.025010  1.0
  H  H200  1  0.872580  0.978780  0.474990  1.0
  H  H201  1  0.101460  0.370500  0.484370  1.0
  H  H202  1  0.601460  0.629500  0.015630  1.0
  H  H203  1  0.898540  0.870500  0.015630  1.0
  H  H204  1  0.398540  0.129500  0.484370  1.0
  H  H205  1  0.898540  0.629500  0.515630  1.0
  H  H206  1  0.398540  0.370500  0.984370  1.0
  H  H207  1  0.101460  0.129500  0.984370  1.0
  H  H208  1  0.601460  0.870500  0.515630  1.0
  H  H209  1  0.022190  0.402260  0.441350  1.0
  H  H210  1  0.522190  0.597740  0.058650  1.0
  H  H211  1  0.977810  0.902260  0.058650  1.0
  H  H212  1  0.477810  0.097740  0.441350  1.0
  H  H213  1  0.977810  0.597740  0.558650  1.0
  H  H214  1  0.477810  0.402260  0.941350  1.0
  H  H215  1  0.022190  0.097740  0.941350  1.0
  H  H216  1  0.522190  0.902260  0.558650  1.0
  H  H217  1  0.084780  0.514260  0.482940  1.0
  H  H218  1  0.584780  0.485740  0.017060  1.0
  H  H219  1  0.915220  0.014260  0.017060  1.0
  H  H220  1  0.415220  0.985740  0.482940  1.0
  H  H221  1  0.915220  0.485740  0.517060  1.0
  H  H222  1  0.415220  0.514260  0.982940  1.0
  H  H223  1  0.084780  0.985740  0.982940  1.0
  H  H224  1  0.584780  0.014260  0.517060  1.0
  H  H225  1  0.172290  0.481210  0.523470  1.0
  H  H226  1  0.672290  0.518790  0.976530  1.0
  H  H227  1  0.827710  0.981210  0.976530  1.0
  H  H228  1  0.327710  0.018790  0.523470  1.0
  H  H229  1  0.827710  0.518790  0.476530  1.0
  H  H230  1  0.327710  0.481210  0.023470  1.0
  H  H231  1  0.172290  0.018790  0.023470  1.0
  H  H232  1  0.672290  0.981210  0.476530  1.0
  H  H233  1  0.032920  0.486370  0.405230  1.0
  H  H234  1  0.532920  0.513630  0.094770  1.0
  H  H235  1  0.967080  0.986370  0.094770  1.0
  H  H236  1  0.467080  0.013630  0.405230  1.0
  H  H237  1  0.967080  0.513630  0.594770  1.0
  H  H238  1  0.467080  0.486370  0.905230  1.0
  H  H239  1  0.032920  0.013630  0.905230  1.0
  H  H240  1  0.532920  0.986370  0.594770  1.0
  H  H241  1  0.979470  0.509370  0.435060  1.0
  H  H242  1  0.479470  0.490630  0.064940  1.0
  H  H243  1  0.020530  0.009370  0.064940  1.0
  H  H244  1  0.520530  0.990630  0.435060  1.0
  H  H245  1  0.020530  0.490630  0.564940  1.0
  H  H246  1  0.520530  0.509370  0.935060  1.0
  H  H247  1  0.979470  0.990630  0.935060  1.0
  H  H248  1  0.479470  0.009370  0.564940  1.0
  H  H249  1  0.952430  0.464830  0.420640  1.0
  H  H250  1  0.452430  0.535170  0.079360  1.0
  H  H251  1  0.047570  0.964830  0.079360  1.0
  H  H252  1  0.547570  0.035170  0.420640  1.0
  H  H253  1  0.047570  0.535170  0.579360  1.0
  H  H254  1  0.547570  0.464830  0.920640  1.0
  H  H255  1  0.952430  0.035170  0.920640  1.0
  H  H256  1  0.452430  0.964830  0.579360  1.0
  H  H257  1  0.410210  0.190820  0.558160  1.0
  H  H258  1  0.910210  0.809180  0.941840  1.0
  H  H259  1  0.589790  0.690820  0.941840  1.0
  H  H260  1  0.089790  0.309180  0.558160  1.0
  H  H261  1  0.589790  0.809180  0.441840  1.0
  H  H262  1  0.089790  0.190820  0.058160  1.0
  H  H263  1  0.410210  0.309180  0.058160  1.0
  H  H264  1  0.910210  0.690820  0.441840  1.0
  H  H265  1  0.635170  0.158070  0.581130  1.0
  H  H266  1  0.135170  0.841930  0.918870  1.0
  H  H267  1  0.364830  0.658070  0.918870  1.0
  H  H268  1  0.864830  0.341930  0.581130  1.0
  H  H269  1  0.364830  0.841930  0.418870  1.0
  H  H270  1  0.864830  0.158070  0.081130  1.0
  H  H271  1  0.635170  0.341930  0.081130  1.0
  H  H272  1  0.135170  0.658070  0.418870  1.0
  H  H273  1  0.598810  0.089230  0.587430  1.0
  H  H274  1  0.098810  0.910770  0.912570  1.0
  H  H275  1  0.401190  0.589230  0.912570  1.0
  H  H276  1  0.901190  0.410770  0.587430  1.0
  H  H277  1  0.401190  0.910770  0.412570  1.0
  H  H278  1  0.901190  0.089230  0.087430  1.0
  H  H279  1  0.598810  0.410770  0.087430  1.0
  H  H280  1  0.098810  0.589230  0.412570  1.0
  H  H281  1  0.041020  0.429520  0.579670  1.0
  H  H282  1  0.541020  0.570480  0.920330  1.0
  H  H283  1  0.958980  0.929520  0.920330  1.0
  H  H284  1  0.458980  0.070480  0.579670  1.0
  H  H285  1  0.958980  0.570480  0.420330  1.0
  H  H286  1  0.458980  0.429520  0.079670  1.0
  H  H287  1  0.041020  0.070480  0.079670  1.0
  H  H288  1  0.541020  0.929520  0.420330  1.0
  H  H289  1  0.218180  0.279630  0.605880  1.0
  H  H290  1  0.718180  0.720370  0.894120  1.0
  H  H291  1  0.781820  0.779630  0.894120  1.0
  H  H292  1  0.281820  0.220370  0.605880  1.0
  H  H293  1  0.781820  0.720370  0.394120  1.0
  H  H294  1  0.281820  0.279630  0.105880  1.0
  H  H295  1  0.218180  0.220370  0.105880  1.0
  H  H296  1  0.718180  0.779630  0.394120  1.0
  H  H297  1  0.154720  0.246200  0.654770  1.0
  H  H298  1  0.654720  0.753800  0.845230  1.0
  H  H299  1  0.845280  0.746200  0.845230  1.0
  H  H300  1  0.345280  0.253800  0.654770  1.0
  H  H301  1  0.845280  0.753800  0.345230  1.0
  H  H302  1  0.345280  0.246200  0.154770  1.0
  H  H303  1  0.154720  0.253800  0.154770  1.0
  H  H304  1  0.654720  0.746200  0.345230  1.0
  H  H305  1  0.092640  0.357260  0.695670  1.0
  H  H306  1  0.592640  0.642740  0.804330  1.0
  H  H307  1  0.907360  0.857260  0.804330  1.0
  H  H308  1  0.407360  0.142740  0.695670  1.0
  H  H309  1  0.907360  0.642740  0.304330  1.0
  H  H310  1  0.407360  0.357260  0.195670  1.0
  H  H311  1  0.092640  0.142740  0.195670  1.0
  H  H312  1  0.592640  0.857260  0.304330  1.0
  H  H313  1  0.144090  0.391000  0.645430  1.0
  H  H314  1  0.644090  0.609000  0.854570  1.0
  H  H315  1  0.855910  0.891000  0.854570  1.0
  H  H316  1  0.355910  0.109000  0.645430  1.0
  H  H317  1  0.855910  0.609000  0.354570  1.0
  H  H318  1  0.355910  0.391000  0.145430  1.0
  H  H319  1  0.144090  0.109000  0.145430  1.0
  H  H320  1  0.644090  0.891000  0.354570  1.0
  H  H321  1  0.028980  0.270740  0.709230  1.0
  H  H322  1  0.528980  0.729260  0.790770  1.0
  H  H323  1  0.971020  0.770740  0.790770  1.0
  H  H324  1  0.471020  0.229260  0.709230  1.0
  H  H325  1  0.971020  0.729260  0.290770  1.0
  H  H326  1  0.471020  0.270740  0.209230  1.0
  H  H327  1  0.028980  0.229260  0.209230  1.0
  H  H328  1  0.528980  0.770740  0.290770  1.0
  H  H329  1  0.092510  0.294470  0.734450  1.0
  H  H330  1  0.592510  0.705530  0.765550  1.0
  H  H331  1  0.907490  0.794470  0.765550  1.0
  H  H332  1  0.407490  0.205530  0.734450  1.0
  H  H333  1  0.907490  0.705530  0.265550  1.0
  H  H334  1  0.407490  0.294470  0.234450  1.0
  H  H335  1  0.092510  0.205530  0.234450  1.0
  H  H336  1  0.592510  0.794470  0.265550  1.0
  H  H337  1  0.114860  0.249930  0.718550  1.0
  H  H338  1  0.614860  0.750070  0.781450  1.0
  H  H339  1  0.885140  0.749930  0.781450  1.0
  H  H340  1  0.385140  0.250070  0.718550  1.0
  H  H341  1  0.885140  0.750070  0.281450  1.0
  H  H342  1  0.385140  0.249930  0.218550  1.0
  H  H343  1  0.114860  0.250070  0.218550  1.0
  H  H344  1  0.614860  0.749930  0.281450  1.0
  H  H345  1  0.516890  0.246290  0.489930  1.0
  H  H346  1  0.016890  0.753710  0.010070  1.0
  H  H347  1  0.483110  0.746290  0.010070  1.0
  H  H348  1  0.983110  0.253710  0.489930  1.0
  H  H349  1  0.483110  0.753710  0.510070  1.0
  H  H350  1  0.983110  0.246290  0.989930  1.0
  H  H351  1  0.516890  0.253710  0.989930  1.0
  H  H352  1  0.016890  0.746290  0.510070  1.0
  H  H353  1  0.708280  0.295110  0.537540  1.0
  H  H354  1  0.208280  0.704890  0.962460  1.0
  H  H355  1  0.291720  0.795110  0.962460  1.0
  H  H356  1  0.791720  0.204890  0.537540  1.0
  H  H357  1  0.291720  0.704890  0.462460  1.0
  H  H358  1  0.791720  0.295110  0.037540  1.0
  H  H359  1  0.708280  0.204890  0.037540  1.0
  H  H360  1  0.208280  0.795110  0.462460  1.0
  H  H361  1  0.766220  0.312210  0.482300  1.0
  H  H362  1  0.266220  0.687790  0.017700  1.0
  H  H363  1  0.233780  0.812210  0.017700  1.0
  H  H364  1  0.733780  0.187790  0.482300  1.0
  H  H365  1  0.233780  0.687790  0.517700  1.0
  H  H366  1  0.733780  0.312210  0.982300  1.0
  H  H367  1  0.766220  0.187790  0.982300  1.0
  H  H368  1  0.266220  0.812210  0.517700  1.0
  H  H369  1  0.698600  0.292300  0.429070  1.0
  H  H370  1  0.198600  0.707700  0.070930  1.0
  H  H371  1  0.301400  0.792300  0.070930  1.0
  H  H372  1  0.801400  0.207700  0.429070  1.0
  H  H373  1  0.301400  0.707700  0.570930  1.0
  H  H374  1  0.801400  0.292300  0.929070  1.0
  H  H375  1  0.698600  0.207700  0.929070  1.0
  H  H376  1  0.198600  0.792300  0.570930  1.0
  H  H377  1  0.470950  0.336350  0.452520  1.0
  H  H378  1  0.970950  0.663650  0.047480  1.0
  H  H379  1  0.529050  0.836350  0.047480  1.0
  H  H380  1  0.029050  0.163650  0.452520  1.0
  H  H381  1  0.529050  0.663650  0.547480  1.0
  H  H382  1  0.029050  0.336350  0.952520  1.0
  H  H383  1  0.470950  0.163650  0.952520  1.0
  H  H384  1  0.970950  0.836350  0.547480  1.0
  H  H385  1  0.490500  0.406360  0.460370  1.0
  H  H386  1  0.990500  0.593640  0.039630  1.0
  H  H387  1  0.509500  0.906360  0.039630  1.0
  H  H388  1  0.009500  0.093640  0.460370  1.0
  H  H389  1  0.509500  0.593640  0.539630  1.0
  H  H390  1  0.009500  0.406360  0.960370  1.0
  H  H391  1  0.490500  0.093640  0.960370  1.0
  H  H392  1  0.990500  0.906360  0.539630  1.0
  H  H393  1  0.632000  0.408170  0.371510  1.0
  H  H394  1  0.132000  0.591830  0.128490  1.0
  H  H395  1  0.368000  0.908170  0.128490  1.0
  H  H396  1  0.868000  0.091830  0.371510  1.0
  H  H397  1  0.368000  0.591830  0.628490  1.0
  H  H398  1  0.868000  0.408170  0.871510  1.0
  H  H399  1  0.632000  0.091830  0.871510  1.0
  H  H400  1  0.132000  0.908170  0.628490  1.0
  H  H401  1  0.607410  0.339470  0.360960  1.0
  H  H402  1  0.107410  0.660530  0.139040  1.0
  H  H403  1  0.392590  0.839470  0.139040  1.0
  H  H404  1  0.892590  0.160530  0.360960  1.0
  H  H405  1  0.392590  0.660530  0.639040  1.0
  H  H406  1  0.892590  0.339470  0.860960  1.0
  H  H407  1  0.607410  0.160530  0.860960  1.0
  H  H408  1  0.107410  0.839470  0.639040  1.0
  H  H409  1  0.529520  0.475380  0.407810  1.0
  H  H410  1  0.029520  0.524620  0.092190  1.0
  H  H411  1  0.470480  0.975380  0.092190  1.0
  H  H412  1  0.970480  0.024620  0.407810  1.0
  H  H413  1  0.470480  0.524620  0.592190  1.0
  H  H414  1  0.970480  0.475380  0.907810  1.0
  H  H415  1  0.529520  0.024620  0.907810  1.0
  H  H416  1  0.029520  0.975380  0.592190  1.0
  H  H417  1  0.625980  0.468930  0.410640  1.0
  H  H418  1  0.125980  0.531070  0.089360  1.0
  H  H419  1  0.374020  0.968930  0.089360  1.0
  H  H420  1  0.874020  0.031070  0.410640  1.0
  H  H421  1  0.374020  0.531070  0.589360  1.0
  H  H422  1  0.874020  0.468930  0.910640  1.0
  H  H423  1  0.625980  0.031070  0.910640  1.0
  H  H424  1  0.125980  0.968930  0.589360  1.0
  H  H425  1  0.570850  0.467020  0.445990  1.0
  H  H426  1  0.070850  0.532980  0.054010  1.0
  H  H427  1  0.429150  0.967020  0.054010  1.0
  H  H428  1  0.929150  0.032980  0.445990  1.0
  H  H429  1  0.429150  0.532980  0.554010  1.0
  H  H430  1  0.929150  0.467020  0.945990  1.0
  H  H431  1  0.570850  0.032980  0.945990  1.0
  H  H432  1  0.070850  0.967020  0.554010  1.0
  H  H433  1  0.362570  0.326710  0.388830  1.0
  H  H434  1  0.862570  0.673290  0.111170  1.0
  H  H435  1  0.637430  0.826710  0.111170  1.0
  H  H436  1  0.137430  0.173290  0.388830  1.0
  H  H437  1  0.637430  0.673290  0.611170  1.0
  H  H438  1  0.137430  0.326710  0.888830  1.0
  H  H439  1  0.362570  0.173290  0.888830  1.0
  H  H440  1  0.862570  0.826710  0.611170  1.0
  H  H441  1  0.346420  0.400710  0.304420  1.0
  H  H442  1  0.846420  0.599290  0.195580  1.0
  H  H443  1  0.653580  0.900710  0.195580  1.0
  H  H444  1  0.153580  0.099290  0.304420  1.0
  H  H445  1  0.653580  0.599290  0.695580  1.0
  H  H446  1  0.153580  0.400710  0.804420  1.0
  H  H447  1  0.346420  0.099290  0.804420  1.0
  H  H448  1  0.846420  0.900710  0.695580  1.0
  H  H449  1  0.426490  0.355200  0.270810  1.0
  H  H450  1  0.926490  0.644800  0.229190  1.0
  H  H451  1  0.573510  0.855200  0.229190  1.0
  H  H452  1  0.073510  0.144800  0.270810  1.0
  H  H453  1  0.573510  0.644800  0.729190  1.0
  H  H454  1  0.073510  0.355200  0.770810  1.0
  H  H455  1  0.426490  0.144800  0.770810  1.0
  H  H456  1  0.926490  0.855200  0.729190  1.0
  H  H457  1  0.495100  0.300930  0.299820  1.0
  H  H458  1  0.995100  0.699070  0.200180  1.0
  H  H459  1  0.504900  0.800930  0.200180  1.0
  H  H460  1  0.004900  0.199070  0.299820  1.0
  H  H461  1  0.504900  0.699070  0.700180  1.0
  H  H462  1  0.004900  0.300930  0.799820  1.0
  H  H463  1  0.495100  0.199070  0.799820  1.0
  H  H464  1  0.995100  0.800930  0.700180  1.0
  H  H465  1  0.303890  0.226430  0.348550  1.0
  H  H466  1  0.803890  0.773570  0.151450  1.0
  H  H467  1  0.696110  0.726430  0.151450  1.0
  H  H468  1  0.196110  0.273570  0.348550  1.0
  H  H469  1  0.696110  0.773570  0.651450  1.0
  H  H470  1  0.196110  0.226430  0.848550  1.0
  H  H471  1  0.303890  0.273570  0.848550  1.0
  H  H472  1  0.803890  0.726430  0.651450  1.0
  H  H473  1  0.230070  0.201490  0.298260  1.0
  H  H474  1  0.730070  0.798510  0.201740  1.0
  H  H475  1  0.769930  0.701490  0.201740  1.0
  H  H476  1  0.269930  0.298510  0.298260  1.0
  H  H477  1  0.769930  0.798510  0.701740  1.0
  H  H478  1  0.269930  0.201490  0.798260  1.0
  H  H479  1  0.230070  0.298510  0.798260  1.0
  H  H480  1  0.730070  0.701490  0.701740  1.0
  H  H481  1  0.443210  0.176210  0.249220  1.0
  H  H482  1  0.943210  0.823790  0.250780  1.0
  H  H483  1  0.556790  0.676210  0.250780  1.0
  H  H484  1  0.056790  0.323790  0.249220  1.0
  H  H485  1  0.556790  0.823790  0.750780  1.0
  H  H486  1  0.056790  0.176210  0.749220  1.0
  H  H487  1  0.443210  0.323790  0.749220  1.0
  H  H488  1  0.943210  0.676210  0.750780  1.0
  H  H489  1  0.518160  0.204780  0.296980  1.0
  H  H490  1  0.018160  0.795220  0.203020  1.0
  H  H491  1  0.481840  0.704780  0.203020  1.0
  H  H492  1  0.981840  0.295220  0.296980  1.0
  H  H493  1  0.481840  0.795220  0.703020  1.0
  H  H494  1  0.981840  0.204780  0.796980  1.0
  H  H495  1  0.518160  0.295220  0.796980  1.0
  H  H496  1  0.018160  0.704780  0.703020  1.0
  H  H497  1  0.272960  0.141550  0.240490  1.0
  H  H498  1  0.772960  0.858450  0.259510  1.0
  H  H499  1  0.727040  0.641550  0.259510  1.0
  H  H500  1  0.227040  0.358450  0.240490  1.0
  H  H501  1  0.727040  0.858450  0.759510  1.0
  H  H502  1  0.227040  0.141550  0.740490  1.0
  H  H503  1  0.272960  0.358450  0.740490  1.0
  H  H504  1  0.772960  0.641550  0.759510  1.0
  H  H505  1  0.315500  0.175590  0.215600  1.0
  H  H506  1  0.815500  0.824410  0.284400  1.0
  H  H507  1  0.684500  0.675590  0.284400  1.0
  H  H508  1  0.184500  0.324410  0.215600  1.0
  H  H509  1  0.684500  0.824410  0.784400  1.0
  H  H510  1  0.184500  0.175590  0.715600  1.0
  H  H511  1  0.315500  0.324410  0.715600  1.0
  H  H512  1  0.815500  0.675590  0.784400  1.0
  H  H513  1  0.231990  0.186130  0.235760  1.0
  H  H514  1  0.731990  0.813870  0.264240  1.0
  H  H515  1  0.768010  0.686130  0.264240  1.0
  H  H516  1  0.268010  0.313870  0.235760  1.0
  H  H517  1  0.768010  0.813870  0.764240  1.0
  H  H518  1  0.268010  0.186130  0.735760  1.0
  H  H519  1  0.231990  0.313870  0.735760  1.0
  H  H520  1  0.731990  0.686130  0.764240  1.0
  H  H521  1  0.136780  0.338730  0.395460  1.0
  H  H522  1  0.636780  0.661270  0.104540  1.0
  H  H523  1  0.863220  0.838730  0.104540  1.0
  H  H524  1  0.363220  0.161270  0.395460  1.0
  H  H525  1  0.863220  0.661270  0.604540  1.0
  H  H526  1  0.363220  0.338730  0.895460  1.0
  H  H527  1  0.136780  0.161270  0.895460  1.0
  H  H528  1  0.636780  0.838730  0.604540  1.0
  H  H529  1  0.097970  0.446330  0.348990  1.0
  H  H530  1  0.597970  0.553670  0.151010  1.0
  H  H531  1  0.902030  0.946330  0.151010  1.0
  H  H532  1  0.402030  0.053670  0.348990  1.0
  H  H533  1  0.902030  0.553670  0.651010  1.0
  H  H534  1  0.402030  0.446330  0.848990  1.0
  H  H535  1  0.097970  0.053670  0.848990  1.0
  H  H536  1  0.597970  0.946330  0.651010  1.0
  H  H537  1  0.967060  0.428460  0.336880  1.0
  H  H538  1  0.467060  0.571540  0.163120  1.0
  H  H539  1  0.032940  0.928460  0.163120  1.0
  H  H540  1  0.532940  0.071540  0.336880  1.0
  H  H541  1  0.032940  0.571540  0.663120  1.0
  H  H542  1  0.532940  0.428460  0.836880  1.0
  H  H543  1  0.967060  0.071540  0.836880  1.0
  H  H544  1  0.467060  0.928460  0.663120  1.0
  H  H545  1  0.581050  0.138150  0.349500  1.0
  H  H546  1  0.081050  0.861850  0.150500  1.0
  H  H547  1  0.418950  0.638150  0.150500  1.0
  H  H548  1  0.918950  0.361850  0.349500  1.0
  H  H549  1  0.418950  0.861850  0.650500  1.0
  H  H550  1  0.918950  0.138150  0.849500  1.0
  H  H551  1  0.581050  0.361850  0.849500  1.0
  H  H552  1  0.081050  0.638150  0.650500  1.0
  H  H553  1  0.525830  0.173340  0.477980  1.0
  H  H554  1  0.025830  0.826660  0.022020  1.0
  H  H555  1  0.474170  0.673340  0.022020  1.0
  H  H556  1  0.974170  0.326660  0.477980  1.0
  H  H557  1  0.474170  0.826660  0.522020  1.0
  H  H558  1  0.974170  0.173340  0.977980  1.0
  H  H559  1  0.525830  0.326660  0.977980  1.0
  H  H560  1  0.025830  0.673340  0.522020  1.0
  H  H561  1  0.597330  0.117350  0.502010  1.0
  H  H562  1  0.097330  0.882650  0.997990  1.0
  H  H563  1  0.402670  0.617350  0.997990  1.0
  H  H564  1  0.902670  0.382650  0.502010  1.0
  H  H565  1  0.402670  0.882650  0.497990  1.0
  H  H566  1  0.902670  0.117350  0.002010  1.0
  H  H567  1  0.597330  0.382650  0.002010  1.0
  H  H568  1  0.097330  0.617350  0.497990  1.0
  H  H569  1  0.742890  0.115850  0.413100  1.0
  H  H570  1  0.242890  0.884150  0.086900  1.0
  H  H571  1  0.257110  0.615850  0.086900  1.0
  H  H572  1  0.757110  0.384150  0.413100  1.0
  H  H573  1  0.257110  0.884150  0.586900  1.0
  H  H574  1  0.757110  0.115850  0.913100  1.0
  H  H575  1  0.742890  0.384150  0.913100  1.0
  H  H576  1  0.242890  0.615850  0.586900  1.0
  H  H577  1  0.673340  0.172090  0.391000  1.0
  H  H578  1  0.173340  0.827910  0.109000  1.0
  H  H579  1  0.326660  0.672090  0.109000  1.0
  H  H580  1  0.826660  0.327910  0.391000  1.0
  H  H581  1  0.326660  0.827910  0.609000  1.0
  H  H582  1  0.826660  0.172090  0.891000  1.0
  H  H583  1  0.673340  0.327910  0.891000  1.0
  H  H584  1  0.173340  0.672090  0.609000  1.0
  H  H585  1  0.767090  0.082460  0.490820  1.0
  H  H586  1  0.267090  0.917540  0.009180  1.0
  H  H587  1  0.232910  0.582460  0.009180  1.0
  H  H588  1  0.732910  0.417540  0.490820  1.0
  H  H589  1  0.232910  0.917540  0.509180  1.0
  H  H590  1  0.732910  0.082460  0.990820  1.0
  H  H591  1  0.767090  0.417540  0.990820  1.0
  H  H592  1  0.267090  0.582460  0.509180  1.0
  H  H593  1  0.743250  0.056830  0.455650  1.0
  H  H594  1  0.243250  0.943170  0.044350  1.0
  H  H595  1  0.256750  0.556830  0.044350  1.0
  H  H596  1  0.756750  0.443170  0.455650  1.0
  H  H597  1  0.256750  0.943170  0.544350  1.0
  H  H598  1  0.756750  0.056830  0.955650  1.0
  H  H599  1  0.743250  0.443170  0.955650  1.0
  H  H600  1  0.243250  0.556830  0.544350  1.0
  H  H601  1  0.684360  0.056290  0.489840  1.0
  H  H602  1  0.184360  0.943710  0.010160  1.0
  H  H603  1  0.315640  0.556290  0.010160  1.0
  H  H604  1  0.815640  0.443710  0.489840  1.0
  H  H605  1  0.315640  0.943710  0.510160  1.0
  H  H606  1  0.815640  0.056290  0.989840  1.0
  H  H607  1  0.684360  0.443710  0.989840  1.0
  H  H608  1  0.184360  0.556290  0.510160  1.0
  C  C609  1  0.732600  0.298070  0.643210  1
  C  C610  1  0.232600  0.701930  0.856790  1
  C  C611  1  0.267400  0.798070  0.856790  1
  C  C612  1  0.767400  0.201930  0.643210  1
  C  C613  1  0.267400  0.701930  0.356790  1
  C  C614  1  0.767400  0.298070  0.143210  1
  C  C615  1  0.732600  0.201930  0.143210  1
  C  C616  1  0.232600  0.798070  0.356790  1
  C  C617  1  0.266000  0.454100  0.640400  1
  C  C618  1  0.766000  0.545900  0.859600  1
  C  C619  1  0.734000  0.954100  0.859600  1
  C  C620  1  0.234000  0.045900  0.640400  1
  C  C621  1  0.734000  0.545900  0.359600  1
  C  C622  1  0.234000  0.454100  0.140400  1
  C  C623  1  0.266000  0.045900  0.140400  1
  C  C624  1  0.766000  0.954100  0.359600  1
  C  C625  1  0.250000  0.250000  0.429800  1
  C  C626  1  0.750000  0.750000  0.070200  1
  C  C627  1  0.750000  0.750000  0.570200  1
  C  C628  1  0.250000  0.250000  0.929800  1
  C  C629  1  0.250000  0.250000  0.524000  1
  C  C630  1  0.750000  0.750000  0.976000  1
  C  C631  1  0.750000  0.750000  0.476000  1
  C  C632  1  0.250000  0.250000  0.024000  1
  C  C633  1  0.750000  0.250000  0.369700  1
  C  C634  1  0.250000  0.750000  0.130300  1
  C  C635  1  0.250000  0.750000  0.630300  1
  C  C636  1  0.750000  0.250000  0.869700  1
  C  C637  1  0.251400  0.286900  0.501300  1.0
  C  C638  1  0.751400  0.713100  0.998700  1.0
  C  C639  1  0.748600  0.786900  0.998700  1.0
  C  C640  1  0.248600  0.213100  0.501300  1.0
  C  C641  1  0.748600  0.713100  0.498700  1.0
  C  C642  1  0.248600  0.286900  0.001300  1.0
  C  C643  1  0.251400  0.213100  0.001300  1.0
  C  C644  1  0.751400  0.786900  0.498700  1.0
  C  C645  1  0.319200  0.289200  0.477400  1.0
  C  C646  1  0.819200  0.710800  0.022600  1.0
  C  C647  1  0.680800  0.789200  0.022600  1.0
  C  C648  1  0.180800  0.210800  0.477400  1.0
  C  C649  1  0.680800  0.710800  0.522600  1.0
  C  C650  1  0.180800  0.289200  0.977400  1.0
  C  C651  1  0.319200  0.210800  0.977400  1.0
  C  C652  1  0.819200  0.789200  0.522600  1.0
  C  C653  1  0.171800  0.287800  0.478900  1.0
  C  C654  1  0.671800  0.712200  0.021100  1.0
  C  C655  1  0.828200  0.787800  0.021100  1.0
  C  C656  1  0.328200  0.212200  0.478900  1.0
  C  C657  1  0.828200  0.712200  0.521100  1.0
  C  C658  1  0.328200  0.287800  0.978900  1.0
  C  C659  1  0.171800  0.212200  0.978900  1.0
  C  C660  1  0.671800  0.787800  0.521100  1.0
  C  C661  1  0.322900  0.253900  0.452900  1.0
  C  C662  1  0.822900  0.746100  0.047100  1.0
  C  C663  1  0.677100  0.753900  0.047100  1.0
  C  C664  1  0.177100  0.246100  0.452900  1.0
  C  C665  1  0.677100  0.746100  0.547100  1.0
  C  C666  1  0.177100  0.253900  0.952900  1.0
  C  C667  1  0.322900  0.246100  0.952900  1.0
  C  C668  1  0.822900  0.753900  0.547100  1.0
  C  C669  1  0.307400  0.364700  0.584900  1.0
  C  C670  1  0.807400  0.635300  0.915100  1.0
  C  C671  1  0.692600  0.864700  0.915100  1.0
  C  C672  1  0.192600  0.135300  0.584900  1.0
  C  C673  1  0.692600  0.635300  0.415100  1.0
  C  C674  1  0.192600  0.364700  0.084900  1.0
  C  C675  1  0.307400  0.135300  0.084900  1.0
  C  C676  1  0.807400  0.864700  0.415100  1.0
  C  C677  1  0.338300  0.390400  0.556700  1.0
  C  C678  1  0.838300  0.609600  0.943300  1.0
  C  C679  1  0.661700  0.890400  0.943300  1.0
  C  C680  1  0.161700  0.109600  0.556700  1.0
  C  C681  1  0.661700  0.609600  0.443300  1.0
  C  C682  1  0.161700  0.390400  0.056700  1.0
  C  C683  1  0.338300  0.109600  0.056700  1.0
  C  C684  1  0.838300  0.890400  0.443300  1.0
  C  C685  1  0.284700  0.406700  0.531700  1.0
  C  C686  1  0.784700  0.593300  0.968300  1.0
  C  C687  1  0.715300  0.906700  0.968300  1.0
  C  C688  1  0.215300  0.093300  0.531700  1.0
  C  C689  1  0.715300  0.593300  0.468300  1.0
  C  C690  1  0.215300  0.406700  0.031700  1.0
  C  C691  1  0.284700  0.093300  0.031700  1.0
  C  C692  1  0.784700  0.906700  0.468300  1.0
  C  C693  1  0.199400  0.402600  0.535600  1.0
  C  C694  1  0.699400  0.597400  0.964400  1.0
  C  C695  1  0.800600  0.902600  0.964400  1.0
  C  C696  1  0.300600  0.097400  0.535600  1.0
  C  C697  1  0.800600  0.597400  0.464400  1.0
  C  C698  1  0.300600  0.402600  0.035600  1.0
  C  C699  1  0.199400  0.097400  0.035600  1.0
  C  C700  1  0.699400  0.902600  0.464400  1.0
  C  C701  1  0.168100  0.379000  0.564000  1.0
  C  C702  1  0.668100  0.621000  0.936000  1.0
  C  C703  1  0.831900  0.879000  0.936000  1.0
  C  C704  1  0.331900  0.121000  0.564000  1.0
  C  C705  1  0.831900  0.621000  0.436000  1.0
  C  C706  1  0.331900  0.379000  0.064000  1.0
  C  C707  1  0.168100  0.121000  0.064000  1.0
  C  C708  1  0.668100  0.879000  0.436000  1.0
  C  C709  1  0.221400  0.361400  0.589100  1.0
  C  C710  1  0.721400  0.638600  0.910900  1.0
  C  C711  1  0.778600  0.861400  0.910900  1.0
  C  C712  1  0.278600  0.138600  0.589100  1.0
  C  C713  1  0.778600  0.638600  0.410900  1.0
  C  C714  1  0.278600  0.361400  0.089100  1.0
  C  C715  1  0.221400  0.138600  0.089100  1.0
  C  C716  1  0.721400  0.861400  0.410900  1.0
  C  C717  1  0.365700  0.342500  0.607700  1.0
  C  C718  1  0.865700  0.657500  0.892300  1.0
  C  C719  1  0.634300  0.842500  0.892300  1.0
  C  C720  1  0.134300  0.157500  0.607700  1.0
  C  C721  1  0.634300  0.657500  0.392300  1.0
  C  C722  1  0.134300  0.342500  0.107700  1.0
  C  C723  1  0.365700  0.157500  0.107700  1.0
  C  C724  1  0.865700  0.842500  0.392300  1.0
  C  C725  1  0.415000  0.311700  0.591400  1.0
  C  C726  1  0.915000  0.688300  0.908600  1.0
  C  C727  1  0.585000  0.811700  0.908600  1.0
  C  C728  1  0.085000  0.188300  0.591400  1.0
  C  C729  1  0.585000  0.688300  0.408600  1.0
  C  C730  1  0.085000  0.311700  0.091400  1.0
  C  C731  1  0.415000  0.188300  0.091400  1.0
  C  C732  1  0.915000  0.811700  0.408600  1.0
  C  C733  1  0.493000  0.301700  0.642100  1.0
  C  C734  1  0.993000  0.698300  0.857900  1.0
  C  C735  1  0.507000  0.801700  0.857900  1.0
  C  C736  1  0.007000  0.198300  0.642100  1.0
  C  C737  1  0.507000  0.698300  0.357900  1.0
  C  C738  1  0.007000  0.301700  0.142100  1.0
  C  C739  1  0.493000  0.198300  0.142100  1.0
  C  C740  1  0.993000  0.801700  0.357900  1.0
  C  C741  1  0.446300  0.329200  0.660400  1.0
  C  C742  1  0.946300  0.670800  0.839600  1.0
  C  C743  1  0.553700  0.829200  0.839600  1.0
  C  C744  1  0.053700  0.170800  0.660400  1.0
  C  C745  1  0.553700  0.670800  0.339600  1.0
  C  C746  1  0.053700  0.329200  0.160400  1.0
  C  C747  1  0.446300  0.170800  0.160400  1.0
  C  C748  1  0.946300  0.829200  0.339600  1.0
  C  C749  1  0.382600  0.350100  0.644100  1.0
  C  C750  1  0.882600  0.649900  0.855900  1.0
  C  C751  1  0.617400  0.850100  0.855900  1.0
  C  C752  1  0.117400  0.149900  0.644100  1.0
  C  C753  1  0.617400  0.649900  0.355900  1.0
  C  C754  1  0.117400  0.350100  0.144100  1.0
  C  C755  1  0.382600  0.149900  0.144100  1.0
  C  C756  1  0.882600  0.850100  0.355900  1.0
  C  C757  1  0.428500  0.395700  0.555400  1.0
  C  C758  1  0.928500  0.604300  0.944600  1.0
  C  C759  1  0.571500  0.895700  0.944600  1.0
  C  C760  1  0.071500  0.104300  0.555400  1.0
  C  C761  1  0.571500  0.604300  0.444600  1.0
  C  C762  1  0.071500  0.395700  0.055400  1.0
  C  C763  1  0.428500  0.104300  0.055400  1.0
  C  C764  1  0.928500  0.895700  0.444600  1.0
  C  C765  1  0.477900  0.377700  0.529400  1.0
  C  C766  1  0.977900  0.622300  0.970600  1.0
  C  C767  1  0.522100  0.877700  0.970600  1.0
  C  C768  1  0.022100  0.122300  0.529400  1.0
  C  C769  1  0.522100  0.622300  0.470600  1.0
  C  C770  1  0.022100  0.377700  0.029400  1.0
  C  C771  1  0.477900  0.122300  0.029400  1.0
  C  C772  1  0.977900  0.877700  0.470600  1.0
  C  C773  1  0.563000  0.380700  0.532500  1.0
  C  C774  1  0.063000  0.619300  0.967500  1.0
  C  C775  1  0.437000  0.880700  0.967500  1.0
  C  C776  1  0.937000  0.119300  0.532500  1.0
  C  C777  1  0.437000  0.619300  0.467500  1.0
  C  C778  1  0.937000  0.380700  0.032500  1.0
  C  C779  1  0.563000  0.119300  0.032500  1.0
  C  C780  1  0.063000  0.880700  0.467500  1.0
  C  C781  1  0.599600  0.401500  0.559500  1.0
  C  C782  1  0.099600  0.598500  0.940500  1.0
  C  C783  1  0.400400  0.901500  0.940500  1.0
  C  C784  1  0.900400  0.098500  0.559500  1.0
  C  C785  1  0.400400  0.598500  0.440500  1.0
  C  C786  1  0.900400  0.401500  0.059500  1.0
  C  C787  1  0.599600  0.098500  0.059500  1.0
  C  C788  1  0.099600  0.901500  0.440500  1.0
  C  C789  1  0.549600  0.422000  0.585400  1.0
  C  C790  1  0.049600  0.578000  0.914600  1.0
  C  C791  1  0.450400  0.922000  0.914600  1.0
  C  C792  1  0.950400  0.078000  0.585400  1.0
  C  C793  1  0.450400  0.578000  0.414600  1.0
  C  C794  1  0.950400  0.422000  0.085400  1.0
  C  C795  1  0.549600  0.078000  0.085400  1.0
  C  C796  1  0.049600  0.922000  0.414600  1.0
  C  C797  1  0.466500  0.419800  0.582900  1.0
  C  C798  1  0.966500  0.580200  0.917100  1.0
  C  C799  1  0.533500  0.919800  0.917100  1.0
  C  C800  1  0.033500  0.080200  0.582900  1.0
  C  C801  1  0.533500  0.580200  0.417100  1.0
  C  C802  1  0.033500  0.419800  0.082900  1.0
  C  C803  1  0.466500  0.080200  0.082900  1.0
  C  C804  1  0.966500  0.919800  0.417100  1.0
  C  C805  1  0.693500  0.401900  0.563000  1.0
  C  C806  1  0.193500  0.598100  0.937000  1.0
  C  C807  1  0.306500  0.901900  0.937000  1.0
  C  C808  1  0.806500  0.098100  0.563000  1.0
  C  C809  1  0.306500  0.598100  0.437000  1.0
  C  C810  1  0.806500  0.401900  0.063000  1.0
  C  C811  1  0.693500  0.098100  0.063000  1.0
  C  C812  1  0.193500  0.901900  0.437000  1.0
  C  C813  1  0.317100  0.431100  0.499700  1.0
  C  C814  1  0.817100  0.568900  0.000300  1.0
  C  C815  1  0.682900  0.931100  0.000300  1.0
  C  C816  1  0.182900  0.068900  0.499700  1.0
  C  C817  1  0.682900  0.568900  0.500300  1.0
  C  C818  1  0.182900  0.431100  0.999700  1.0
  C  C819  1  0.317100  0.068900  0.999700  1.0
  C  C820  1  0.817100  0.931100  0.500300  1.0
  C  C821  1  0.297500  0.416200  0.465600  1.0
  C  C822  1  0.797500  0.583800  0.034400  1.0
  C  C823  1  0.702500  0.916200  0.034400  1.0
  C  C824  1  0.202500  0.083800  0.465600  1.0
  C  C825  1  0.702500  0.583800  0.534400  1.0
  C  C826  1  0.202500  0.416200  0.965600  1.0
  C  C827  1  0.297500  0.083800  0.965600  1.0
  C  C828  1  0.797500  0.916200  0.534400  1.0
  C  C829  1  0.355700  0.471900  0.439300  1.0
  C  C830  1  0.855700  0.528100  0.060700  1.0
  C  C831  1  0.644300  0.971900  0.060700  1.0
  C  C832  1  0.144300  0.028100  0.439300  1.0
  C  C833  1  0.644300  0.528100  0.560700  1.0
  C  C834  1  0.144300  0.471900  0.939300  1.0
  C  C835  1  0.355700  0.028100  0.939300  1.0
  C  C836  1  0.855700  0.971900  0.560700  1.0
  C  C837  1  0.377700  0.488100  0.471500  1.0
  C  C838  1  0.877700  0.511900  0.028500  1.0
  C  C839  1  0.622300  0.988100  0.028500  1.0
  C  C840  1  0.122300  0.011900  0.471500  1.0
  C  C841  1  0.622300  0.511900  0.528500  1.0
  C  C842  1  0.122300  0.488100  0.971500  1.0
  C  C843  1  0.377700  0.011900  0.971500  1.0
  C  C844  1  0.877700  0.988100  0.528500  1.0
  C  C845  1  0.358100  0.467800  0.502300  1.0
  C  C846  1  0.858100  0.532200  0.997700  1.0
  C  C847  1  0.641900  0.967800  0.997700  1.0
  C  C848  1  0.141900  0.032200  0.502300  1.0
  C  C849  1  0.641900  0.532200  0.497700  1.0
  C  C850  1  0.141900  0.467800  0.002300  1.0
  C  C851  1  0.358100  0.032200  0.002300  1.0
  C  C852  1  0.858100  0.967800  0.497700  1.0
  C  C853  1  0.144300  0.422300  0.509100  1.0
  C  C854  1  0.644300  0.577700  0.990900  1.0
  C  C855  1  0.855700  0.922300  0.990900  1.0
  C  C856  1  0.355700  0.077700  0.509100  1.0
  C  C857  1  0.855700  0.577700  0.490900  1.0
  C  C858  1  0.355700  0.422300  0.009100  1.0
  C  C859  1  0.144300  0.077700  0.009100  1.0
  C  C860  1  0.644300  0.922300  0.490900  1.0
  C  C861  1  0.099400  0.399800  0.483700  1.0
  C  C862  1  0.599400  0.600200  0.016300  1.0
  C  C863  1  0.900600  0.899800  0.016300  1.0
  C  C864  1  0.400600  0.100200  0.483700  1.0
  C  C865  1  0.900600  0.600200  0.516300  1.0
  C  C866  1  0.400600  0.399800  0.983700  1.0
  C  C867  1  0.099400  0.100200  0.983700  1.0
  C  C868  1  0.599400  0.899800  0.516300  1.0
  C  C869  1  0.052400  0.418600  0.457800  1.0
  C  C870  1  0.552400  0.581400  0.042200  1.0
  C  C871  1  0.947600  0.918600  0.042200  1.0
  C  C872  1  0.447600  0.081400  0.457800  1.0
  C  C873  1  0.947600  0.581400  0.542200  1.0
  C  C874  1  0.447600  0.418600  0.957800  1.0
  C  C875  1  0.052400  0.081400  0.957800  1.0
  C  C876  1  0.552400  0.918600  0.542200  1.0
  C  C877  1  0.049100  0.462000  0.455800  1.0
  C  C878  1  0.549100  0.538000  0.044200  1.0
  C  C879  1  0.950900  0.962000  0.044200  1.0
  C  C880  1  0.450900  0.038000  0.455800  1.0
  C  C881  1  0.950900  0.538000  0.544200  1.0
  C  C882  1  0.450900  0.462000  0.955800  1.0
  C  C883  1  0.049100  0.038000  0.955800  1.0
  C  C884  1  0.549100  0.962000  0.544200  1.0
  C  C885  1  0.090700  0.485000  0.482200  1.0
  C  C886  1  0.590700  0.515000  0.017800  1.0
  C  C887  1  0.909300  0.985000  0.017800  1.0
  C  C888  1  0.409300  0.015000  0.482200  1.0
  C  C889  1  0.909300  0.515000  0.517800  1.0
  C  C890  1  0.409300  0.485000  0.982200  1.0
  C  C891  1  0.090700  0.015000  0.982200  1.0
  C  C892  1  0.590700  0.985000  0.517800  1.0
  C  C893  1  0.140600  0.465100  0.507300  1.0
  C  C894  1  0.640600  0.534900  0.992700  1.0
  C  C895  1  0.859400  0.965100  0.992700  1.0
  C  C896  1  0.359400  0.034900  0.507300  1.0
  C  C897  1  0.859400  0.534900  0.492700  1.0
  C  C898  1  0.359400  0.465100  0.007300  1.0
  C  C899  1  0.140600  0.034900  0.007300  1.0
  C  C900  1  0.640600  0.965100  0.492700  1.0
  C  C901  1  0.999100  0.482500  0.426600  1.0
  C  C902  1  0.499100  0.517500  0.073400  1.0
  C  C903  1  0.000900  0.982500  0.073400  1.0
  C  C904  1  0.500900  0.017500  0.426600  1.0
  C  C905  1  0.000900  0.517500  0.573400  1.0
  C  C906  1  0.500900  0.482500  0.926600  1.0
  C  C907  1  0.999100  0.017500  0.926600  1.0
  C  C908  1  0.499100  0.982500  0.573400  1.0
  C  C909  1  0.079400  0.371100  0.568000  1.0
  C  C910  1  0.579400  0.628900  0.932000  1.0
  C  C911  1  0.920600  0.871100  0.932000  1.0
  C  C912  1  0.420600  0.128900  0.568000  1.0
  C  C913  1  0.920600  0.628900  0.432000  1.0
  C  C914  1  0.420600  0.371100  0.068000  1.0
  C  C915  1  0.079400  0.128900  0.068000  1.0
  C  C916  1  0.579400  0.871100  0.432000  1.0
  C  C917  1  0.448100  0.170000  0.564800  1.0
  C  C918  1  0.948100  0.830000  0.935200  1.0
  C  C919  1  0.551900  0.670000  0.935200  1.0
  C  C920  1  0.051900  0.330000  0.564800  1.0
  C  C921  1  0.551900  0.830000  0.435200  1.0
  C  C922  1  0.051900  0.170000  0.064800  1.0
  C  C923  1  0.448100  0.330000  0.064800  1.0
  C  C924  1  0.948100  0.670000  0.435200  1.0
  C  C925  1  0.579600  0.150700  0.578200  1.0
  C  C926  1  0.079600  0.849300  0.921800  1.0
  C  C927  1  0.420400  0.650700  0.921800  1.0
  C  C928  1  0.920400  0.349300  0.578200  1.0
  C  C929  1  0.420400  0.849300  0.421800  1.0
  C  C930  1  0.920400  0.150700  0.078200  1.0
  C  C931  1  0.579600  0.349300  0.078200  1.0
  C  C932  1  0.079600  0.650700  0.421800  1.0
  C  C933  1  0.558800  0.109500  0.581800  1.0
  C  C934  1  0.058800  0.890500  0.918200  1.0
  C  C935  1  0.441200  0.609500  0.918200  1.0
  C  C936  1  0.941200  0.390500  0.581800  1.0
  C  C937  1  0.441200  0.890500  0.418200  1.0
  C  C938  1  0.941200  0.109500  0.081800  1.0
  C  C939  1  0.558800  0.390500  0.081800  1.0
  C  C940  1  0.058800  0.609500  0.418200  1.0
  C  C941  1  0.024000  0.401600  0.576900  1.0
  C  C942  1  0.524000  0.598400  0.923100  1.0
  C  C943  1  0.976000  0.901600  0.923100  1.0
  C  C944  1  0.476000  0.098400  0.576900  1.0
  C  C945  1  0.976000  0.598400  0.423100  1.0
  C  C946  1  0.476000  0.401600  0.076900  1.0
  C  C947  1  0.024000  0.098400  0.076900  1.0
  C  C948  1  0.524000  0.901600  0.423100  1.0
  C  C949  1  0.188500  0.339000  0.621500  1.0
  C  C950  1  0.688500  0.661000  0.878500  1.0
  C  C951  1  0.811500  0.839000  0.878500  1.0
  C  C952  1  0.311500  0.161000  0.621500  1.0
  C  C953  1  0.811500  0.661000  0.378500  1.0
  C  C954  1  0.311500  0.339000  0.121500  1.0
  C  C955  1  0.188500  0.161000  0.121500  1.0
  C  C956  1  0.688500  0.839000  0.378500  1.0
  C  C957  1  0.192100  0.295400  0.624000  1.0
  C  C958  1  0.692100  0.704600  0.876000  1.0
  C  C959  1  0.807900  0.795400  0.876000  1.0
  C  C960  1  0.307900  0.204600  0.624000  1.0
  C  C961  1  0.807900  0.704600  0.376000  1.0
  C  C962  1  0.307900  0.295400  0.124000  1.0
  C  C963  1  0.192100  0.204600  0.124000  1.0
  C  C964  1  0.692100  0.795400  0.376000  1.0
  C  C965  1  0.155800  0.275600  0.654200  1.0
  C  C966  1  0.655800  0.724400  0.845800  1.0
  C  C967  1  0.844200  0.775600  0.845800  1.0
  C  C968  1  0.344200  0.224400  0.654200  1.0
  C  C969  1  0.844200  0.724400  0.345800  1.0
  C  C970  1  0.344200  0.275600  0.154200  1.0
  C  C971  1  0.155800  0.224400  0.154200  1.0
  C  C972  1  0.655800  0.775600  0.345800  1.0
  C  C973  1  0.123600  0.296000  0.681700  1.0
  C  C974  1  0.623600  0.704000  0.818300  1.0
  C  C975  1  0.876400  0.796000  0.818300  1.0
  C  C976  1  0.376400  0.204000  0.681700  1.0
  C  C977  1  0.876400  0.704000  0.318300  1.0
  C  C978  1  0.376400  0.296000  0.181700  1.0
  C  C979  1  0.123600  0.204000  0.181700  1.0
  C  C980  1  0.623600  0.796000  0.318300  1.0
  C  C981  1  0.118300  0.341500  0.677400  1.0
  C  C982  1  0.618300  0.658500  0.822600  1.0
  C  C983  1  0.881700  0.841500  0.822600  1.0
  C  C984  1  0.381700  0.158500  0.677400  1.0
  C  C985  1  0.881700  0.658500  0.322600  1.0
  C  C986  1  0.381700  0.341500  0.177400  1.0
  C  C987  1  0.118300  0.158500  0.177400  1.0
  C  C988  1  0.618300  0.841500  0.322600  1.0
  C  C989  1  0.149500  0.361900  0.647700  1.0
  C  C990  1  0.649500  0.638100  0.852300  1.0
  C  C991  1  0.850500  0.861900  0.852300  1.0
  C  C992  1  0.350500  0.138100  0.647700  1.0
  C  C993  1  0.850500  0.638100  0.352300  1.0
  C  C994  1  0.350500  0.361900  0.147700  1.0
  C  C995  1  0.149500  0.138100  0.147700  1.0
  C  C996  1  0.649500  0.861900  0.352300  1.0
  C  C997  1  0.086900  0.276100  0.713700  1.0
  C  C998  1  0.586900  0.723900  0.786300  1.0
  C  C999  1  0.913100  0.776100  0.786300  1.0
  C  C1000  1  0.413100  0.223900  0.713700  1.0
  C  C1001  1  0.913100  0.723900  0.286300  1.0
  C  C1002  1  0.413100  0.276100  0.213700  1.0
  C  C1003  1  0.086900  0.223900  0.213700  1.0
  C  C1004  1  0.586900  0.776100  0.286300  1.0
  C  C1005  1  0.553000  0.255100  0.421000  1.0
  C  C1006  1  0.053000  0.744900  0.079000  1.0
  C  C1007  1  0.447000  0.755100  0.079000  1.0
  C  C1008  1  0.947000  0.244900  0.421000  1.0
  C  C1009  1  0.447000  0.744900  0.579000  1.0
  C  C1010  1  0.947000  0.255100  0.921000  1.0
  C  C1011  1  0.553000  0.244900  0.921000  1.0
  C  C1012  1  0.053000  0.755100  0.579000  1.0
  C  C1013  1  0.519300  0.285100  0.399200  1.0
  C  C1014  1  0.019300  0.714900  0.100800  1.0
  C  C1015  1  0.480700  0.785100  0.100800  1.0
  C  C1016  1  0.980700  0.214900  0.399200  1.0
  C  C1017  1  0.480700  0.714900  0.600800  1.0
  C  C1018  1  0.980700  0.285100  0.899200  1.0
  C  C1019  1  0.519300  0.214900  0.899200  1.0
  C  C1020  1  0.019300  0.785100  0.600800  1.0
  C  C1021  1  0.474100  0.274400  0.369300  1.0
  C  C1022  1  0.974100  0.725600  0.130700  1.0
  C  C1023  1  0.525900  0.774400  0.130700  1.0
  C  C1024  1  0.025900  0.225600  0.369300  1.0
  C  C1025  1  0.525900  0.725600  0.630700  1.0
  C  C1026  1  0.025900  0.274400  0.869300  1.0
  C  C1027  1  0.474100  0.225600  0.869300  1.0
  C  C1028  1  0.974100  0.774400  0.630700  1.0
  C  C1029  1  0.462900  0.232400  0.360300  1.0
  C  C1030  1  0.962900  0.767600  0.139700  1.0
  C  C1031  1  0.537100  0.732400  0.139700  1.0
  C  C1032  1  0.037100  0.267600  0.360300  1.0
  C  C1033  1  0.537100  0.767600  0.639700  1.0
  C  C1034  1  0.037100  0.232400  0.860300  1.0
  C  C1035  1  0.462900  0.267600  0.860300  1.0
  C  C1036  1  0.962900  0.732400  0.639700  1.0
  C  C1037  1  0.497900  0.201800  0.382500  1.0
  C  C1038  1  0.997900  0.798200  0.117500  1.0
  C  C1039  1  0.502100  0.701800  0.117500  1.0
  C  C1040  1  0.002100  0.298200  0.382500  1.0
  C  C1041  1  0.502100  0.798200  0.617500  1.0
  C  C1042  1  0.002100  0.201800  0.882500  1.0
  C  C1043  1  0.497900  0.298200  0.882500  1.0
  C  C1044  1  0.997900  0.701800  0.617500  1.0
  C  C1045  1  0.543800  0.212700  0.412400  1.0
  C  C1046  1  0.043800  0.787300  0.087600  1.0
  C  C1047  1  0.456200  0.712700  0.087600  1.0
  C  C1048  1  0.956200  0.287300  0.412400  1.0
  C  C1049  1  0.456200  0.787300  0.587600  1.0
  C  C1050  1  0.956200  0.212700  0.912400  1.0
  C  C1051  1  0.543800  0.287300  0.912400  1.0
  C  C1052  1  0.043800  0.712700  0.587600  1.0
  C  C1053  1  0.600400  0.267100  0.454400  1.0
  C  C1054  1  0.100400  0.732900  0.045600  1.0
  C  C1055  1  0.399600  0.767100  0.045600  1.0
  C  C1056  1  0.899600  0.232900  0.454400  1.0
  C  C1057  1  0.399600  0.732900  0.545600  1.0
  C  C1058  1  0.899600  0.267100  0.954400  1.0
  C  C1059  1  0.600400  0.232900  0.954400  1.0
  C  C1060  1  0.100400  0.767100  0.545600  1.0
  C  C1061  1  0.568600  0.259400  0.488000  1.0
  C  C1062  1  0.068600  0.740600  0.012000  1.0
  C  C1063  1  0.431400  0.759400  0.012000  1.0
  C  C1064  1  0.931400  0.240600  0.488000  1.0
  C  C1065  1  0.431400  0.740600  0.512000  1.0
  C  C1066  1  0.931400  0.259400  0.988000  1.0
  C  C1067  1  0.568600  0.240600  0.988000  1.0
  C  C1068  1  0.068600  0.759400  0.512000  1.0
  C  C1069  1  0.679600  0.288200  0.516200  1.0
  C  C1070  1  0.179600  0.711800  0.983800  1.0
  C  C1071  1  0.320400  0.788200  0.983800  1.0
  C  C1072  1  0.820400  0.211800  0.516200  1.0
  C  C1073  1  0.320400  0.711800  0.483800  1.0
  C  C1074  1  0.820400  0.288200  0.016200  1.0
  C  C1075  1  0.679600  0.211800  0.016200  1.0
  C  C1076  1  0.179600  0.788200  0.483800  1.0
  C  C1077  1  0.715500  0.298100  0.483300  1.0
  C  C1078  1  0.215500  0.701900  0.016700  1.0
  C  C1079  1  0.284500  0.798100  0.016700  1.0
  C  C1080  1  0.784500  0.201900  0.483300  1.0
  C  C1081  1  0.284500  0.701900  0.516700  1.0
  C  C1082  1  0.784500  0.298100  0.983300  1.0
  C  C1083  1  0.715500  0.201900  0.983300  1.0
  C  C1084  1  0.215500  0.798100  0.516700  1.0
  C  C1085  1  0.675200  0.286700  0.451800  1.0
  C  C1086  1  0.175200  0.713300  0.048200  1.0
  C  C1087  1  0.324800  0.786700  0.048200  1.0
  C  C1088  1  0.824800  0.213300  0.451800  1.0
  C  C1089  1  0.324800  0.713300  0.548200  1.0
  C  C1090  1  0.824800  0.286700  0.951800  1.0
  C  C1091  1  0.675200  0.213300  0.951800  1.0
  C  C1092  1  0.175200  0.786700  0.548200  1.0
  C  C1093  1  0.535100  0.329300  0.406400  1.0
  C  C1094  1  0.035100  0.670700  0.093600  1.0
  C  C1095  1  0.464900  0.829300  0.093600  1.0
  C  C1096  1  0.964900  0.170700  0.406400  1.0
  C  C1097  1  0.464900  0.670700  0.593600  1.0
  C  C1098  1  0.964900  0.329300  0.906400  1.0
  C  C1099  1  0.535100  0.170700  0.906400  1.0
  C  C1100  1  0.035100  0.829300  0.593600  1.0
  C  C1101  1  0.502600  0.351100  0.435400  1.0
  C  C1102  1  0.002600  0.648900  0.064600  1.0
  C  C1103  1  0.497400  0.851100  0.064600  1.0
  C  C1104  1  0.997400  0.148900  0.435400  1.0
  C  C1105  1  0.497400  0.648900  0.564600  1.0
  C  C1106  1  0.997400  0.351100  0.935400  1.0
  C  C1107  1  0.502600  0.148900  0.935400  1.0
  C  C1108  1  0.002600  0.851100  0.564600  1.0
  C  C1109  1  0.514200  0.392700  0.440400  1.0
  C  C1110  1  0.014200  0.607300  0.059600  1.0
  C  C1111  1  0.485800  0.892700  0.059600  1.0
  C  C1112  1  0.985800  0.107300  0.440400  1.0
  C  C1113  1  0.485800  0.607300  0.559600  1.0
  C  C1114  1  0.985800  0.392700  0.940400  1.0
  C  C1115  1  0.514200  0.107300  0.940400  1.0
  C  C1116  1  0.014200  0.892700  0.559600  1.0
  C  C1117  1  0.562100  0.415500  0.415200  1.0
  C  C1118  1  0.062100  0.584500  0.084800  1.0
  C  C1119  1  0.437900  0.915500  0.084800  1.0
  C  C1120  1  0.937900  0.084500  0.415200  1.0
  C  C1121  1  0.437900  0.584500  0.584800  1.0
  C  C1122  1  0.937900  0.415500  0.915200  1.0
  C  C1123  1  0.562100  0.084500  0.915200  1.0
  C  C1124  1  0.062100  0.915500  0.584800  1.0
  C  C1125  1  0.597000  0.393700  0.387400  1.0
  C  C1126  1  0.097000  0.606300  0.112600  1.0
  C  C1127  1  0.403000  0.893700  0.112600  1.0
  C  C1128  1  0.903000  0.106300  0.387400  1.0
  C  C1129  1  0.403000  0.606300  0.612600  1.0
  C  C1130  1  0.903000  0.393700  0.887400  1.0
  C  C1131  1  0.597000  0.106300  0.887400  1.0
  C  C1132  1  0.097000  0.893700  0.612600  1.0
  C  C1133  1  0.584300  0.352600  0.381400  1.0
  C  C1134  1  0.084300  0.647400  0.118600  1.0
  C  C1135  1  0.415700  0.852600  0.118600  1.0
  C  C1136  1  0.915700  0.147400  0.381400  1.0
  C  C1137  1  0.415700  0.647400  0.618600  1.0
  C  C1138  1  0.915700  0.352600  0.881400  1.0
  C  C1139  1  0.584300  0.147400  0.881400  1.0
  C  C1140  1  0.084300  0.852600  0.618600  1.0
  C  C1141  1  0.573000  0.460500  0.420400  1.0
  C  C1142  1  0.073000  0.539500  0.079600  1.0
  C  C1143  1  0.427000  0.960500  0.079600  1.0
  C  C1144  1  0.927000  0.039500  0.420400  1.0
  C  C1145  1  0.427000  0.539500  0.579600  1.0
  C  C1146  1  0.927000  0.460500  0.920400  1.0
  C  C1147  1  0.573000  0.039500  0.920400  1.0
  C  C1148  1  0.073000  0.960500  0.579600  1.0
  C  C1149  1  0.432900  0.307500  0.348000  1.0
  C  C1150  1  0.932900  0.692500  0.152000  1.0
  C  C1151  1  0.567100  0.807500  0.152000  1.0
  C  C1152  1  0.067100  0.192500  0.348000  1.0
  C  C1153  1  0.567100  0.692500  0.652000  1.0
  C  C1154  1  0.067100  0.307500  0.848000  1.0
  C  C1155  1  0.432900  0.192500  0.848000  1.0
  C  C1156  1  0.932900  0.807500  0.652000  1.0
  C  C1157  1  0.377600  0.333000  0.364800  1.0
  C  C1158  1  0.877600  0.667000  0.135200  1.0
  C  C1159  1  0.622400  0.833000  0.135200  1.0
  C  C1160  1  0.122400  0.167000  0.364800  1.0
  C  C1161  1  0.622400  0.667000  0.635200  1.0
  C  C1162  1  0.122400  0.333000  0.864800  1.0
  C  C1163  1  0.377600  0.167000  0.864800  1.0
  C  C1164  1  0.877600  0.833000  0.635200  1.0
  C  C1165  1  0.366000  0.375900  0.315100  1.0
  C  C1166  1  0.866000  0.624100  0.184900  1.0
  C  C1167  1  0.634000  0.875900  0.184900  1.0
  C  C1168  1  0.134000  0.124100  0.315100  1.0
  C  C1169  1  0.634000  0.624100  0.684900  1.0
  C  C1170  1  0.134000  0.375900  0.815100  1.0
  C  C1171  1  0.366000  0.124100  0.815100  1.0
  C  C1172  1  0.866000  0.875900  0.684900  1.0
  C  C1173  1  0.417400  0.350100  0.295600  1.0
  C  C1174  1  0.917400  0.649900  0.204400  1.0
  C  C1175  1  0.582600  0.850100  0.204400  1.0
  C  C1176  1  0.082600  0.149900  0.295600  1.0
  C  C1177  1  0.582600  0.649900  0.704400  1.0
  C  C1178  1  0.082600  0.350100  0.795600  1.0
  C  C1179  1  0.417400  0.149900  0.795600  1.0
  C  C1180  1  0.917400  0.850100  0.704400  1.0
  C  C1181  1  0.455300  0.316900  0.312100  1.0
  C  C1182  1  0.955300  0.683100  0.187900  1.0
  C  C1183  1  0.544700  0.816900  0.187900  1.0
  C  C1184  1  0.044700  0.183100  0.312100  1.0
  C  C1185  1  0.544700  0.683100  0.687900  1.0
  C  C1186  1  0.044700  0.316900  0.812100  1.0
  C  C1187  1  0.455300  0.183100  0.812100  1.0
  C  C1188  1  0.955300  0.816900  0.687900  1.0
  C  C1189  1  0.418700  0.218700  0.328400  1.0
  C  C1190  1  0.918700  0.781300  0.171600  1.0
  C  C1191  1  0.581300  0.718700  0.171600  1.0
  C  C1192  1  0.081300  0.281300  0.328400  1.0
  C  C1193  1  0.581300  0.781300  0.671600  1.0
  C  C1194  1  0.081300  0.218700  0.828400  1.0
  C  C1195  1  0.418700  0.281300  0.828400  1.0
  C  C1196  1  0.918700  0.718700  0.671600  1.0
  C  C1197  1  0.332900  0.217000  0.328100  1.0
  C  C1198  1  0.832900  0.783000  0.171900  1.0
  C  C1199  1  0.667100  0.717000  0.171900  1.0
  C  C1200  1  0.167100  0.283000  0.328100  1.0
  C  C1201  1  0.667100  0.783000  0.671900  1.0
  C  C1202  1  0.167100  0.217000  0.828100  1.0
  C  C1203  1  0.332900  0.283000  0.828100  1.0
  C  C1204  1  0.832900  0.717000  0.671900  1.0
  C  C1205  1  0.287900  0.201400  0.298000  1.0
  C  C1206  1  0.787900  0.798600  0.202000  1.0
  C  C1207  1  0.712100  0.701400  0.202000  1.0
  C  C1208  1  0.212100  0.298600  0.298000  1.0
  C  C1209  1  0.712100  0.798600  0.702000  1.0
  C  C1210  1  0.212100  0.201400  0.798000  1.0
  C  C1211  1  0.287900  0.298600  0.798000  1.0
  C  C1212  1  0.787900  0.701400  0.702000  1.0
  C  C1213  1  0.329800  0.186400  0.268500  1.0
  C  C1214  1  0.829800  0.813600  0.231500  1.0
  C  C1215  1  0.670200  0.686400  0.231500  1.0
  C  C1216  1  0.170200  0.313600  0.268500  1.0
  C  C1217  1  0.670200  0.813600  0.731500  1.0
  C  C1218  1  0.170200  0.186400  0.768500  1.0
  C  C1219  1  0.329800  0.313600  0.768500  1.0
  C  C1220  1  0.829800  0.686400  0.731500  1.0
  C  C1221  1  0.414500  0.187300  0.269200  1.0
  C  C1222  1  0.914500  0.812700  0.230800  1.0
  C  C1223  1  0.585500  0.687300  0.230800  1.0
  C  C1224  1  0.085500  0.312700  0.269200  1.0
  C  C1225  1  0.585500  0.812700  0.730800  1.0
  C  C1226  1  0.085500  0.187300  0.769200  1.0
  C  C1227  1  0.414500  0.312700  0.769200  1.0
  C  C1228  1  0.914500  0.687300  0.730800  1.0
  C  C1229  1  0.460400  0.203800  0.298100  1.0
  C  C1230  1  0.960400  0.796200  0.201900  1.0
  C  C1231  1  0.539600  0.703800  0.201900  1.0
  C  C1232  1  0.039600  0.296200  0.298100  1.0
  C  C1233  1  0.539600  0.796200  0.701900  1.0
  C  C1234  1  0.039600  0.203800  0.798100  1.0
  C  C1235  1  0.460400  0.296200  0.798100  1.0
  C  C1236  1  0.960400  0.703800  0.701900  1.0
  C  C1237  1  0.283800  0.171200  0.237500  1.0
  C  C1238  1  0.783800  0.828800  0.262500  1.0
  C  C1239  1  0.716200  0.671200  0.262500  1.0
  C  C1240  1  0.216200  0.328800  0.237500  1.0
  C  C1241  1  0.716200  0.828800  0.762500  1.0
  C  C1242  1  0.216200  0.171200  0.737500  1.0
  C  C1243  1  0.283800  0.328800  0.737500  1.0
  C  C1244  1  0.783800  0.671200  0.762500  1.0
  C  C1245  1  0.477000  0.157200  0.374000  1.0
  C  C1246  1  0.977000  0.842800  0.126000  1.0
  C  C1247  1  0.523000  0.657200  0.126000  1.0
  C  C1248  1  0.023000  0.342800  0.374000  1.0
  C  C1249  1  0.523000  0.842800  0.626000  1.0
  C  C1250  1  0.023000  0.157200  0.874000  1.0
  C  C1251  1  0.477000  0.342800  0.874000  1.0
  C  C1252  1  0.977000  0.657200  0.626000  1.0
  C  C1253  1  0.101600  0.356900  0.382800  1.0
  C  C1254  1  0.601600  0.643100  0.117200  1.0
  C  C1255  1  0.898400  0.856900  0.117200  1.0
  C  C1256  1  0.398400  0.143100  0.382800  1.0
  C  C1257  1  0.898400  0.643100  0.617200  1.0
  C  C1258  1  0.398400  0.356900  0.882800  1.0
  C  C1259  1  0.101600  0.143100  0.882800  1.0
  C  C1260  1  0.601600  0.856900  0.617200  1.0
  C  C1261  1  0.079000  0.419900  0.356300  1.0
  C  C1262  1  0.579000  0.580100  0.143700  1.0
  C  C1263  1  0.921000  0.919900  0.143700  1.0
  C  C1264  1  0.421000  0.080100  0.356300  1.0
  C  C1265  1  0.921000  0.580100  0.643700  1.0
  C  C1266  1  0.421000  0.419900  0.856300  1.0
  C  C1267  1  0.079000  0.080100  0.856300  1.0
  C  C1268  1  0.579000  0.919900  0.643700  1.0
  C  C1269  1  0.001900  0.409000  0.348200  1.0
  C  C1270  1  0.501900  0.591000  0.151800  1.0
  C  C1271  1  0.998100  0.909000  0.151800  1.0
  C  C1272  1  0.498100  0.091000  0.348200  1.0
  C  C1273  1  0.998100  0.591000  0.651800  1.0
  C  C1274  1  0.498100  0.409000  0.848200  1.0
  C  C1275  1  0.001900  0.091000  0.848200  1.0
  C  C1276  1  0.501900  0.909000  0.651800  1.0
  C  C1277  1  0.527400  0.130200  0.356200  1.0
  C  C1278  1  0.027400  0.869800  0.143800  1.0
  C  C1279  1  0.472600  0.630200  0.143800  1.0
  C  C1280  1  0.972600  0.369800  0.356200  1.0
  C  C1281  1  0.472600  0.869800  0.643800  1.0
  C  C1282  1  0.972600  0.130200  0.856200  1.0
  C  C1283  1  0.527400  0.369800  0.856200  1.0
  C  C1284  1  0.027400  0.630200  0.643800  1.0
  C  C1285  1  0.590700  0.178400  0.431600  1.0
  C  C1286  1  0.090700  0.821600  0.068400  1.0
  C  C1287  1  0.409300  0.678400  0.068400  1.0
  C  C1288  1  0.909300  0.321600  0.431600  1.0
  C  C1289  1  0.409300  0.821600  0.568400  1.0
  C  C1290  1  0.909300  0.178400  0.931600  1.0
  C  C1291  1  0.590700  0.321600  0.931600  1.0
  C  C1292  1  0.090700  0.678400  0.568400  1.0
  C  C1293  1  0.569900  0.161700  0.464900  1.0
  C  C1294  1  0.069900  0.838300  0.035100  1.0
  C  C1295  1  0.430100  0.661700  0.035100  1.0
  C  C1296  1  0.930100  0.338300  0.464900  1.0
  C  C1297  1  0.430100  0.838300  0.535100  1.0
  C  C1298  1  0.930100  0.161700  0.964900  1.0
  C  C1299  1  0.569900  0.338300  0.964900  1.0
  C  C1300  1  0.069900  0.661700  0.535100  1.0
  C  C1301  1  0.612700  0.128200  0.479300  1.0
  C  C1302  1  0.112700  0.871800  0.020700  1.0
  C  C1303  1  0.387300  0.628200  0.020700  1.0
  C  C1304  1  0.887300  0.371800  0.479300  1.0
  C  C1305  1  0.387300  0.871800  0.520700  1.0
  C  C1306  1  0.887300  0.128200  0.979300  1.0
  C  C1307  1  0.612700  0.371800  0.979300  1.0
  C  C1308  1  0.112700  0.628200  0.520700  1.0
  C  C1309  1  0.676600  0.110900  0.461000  1.0
  C  C1310  1  0.176600  0.889100  0.039000  1.0
  C  C1311  1  0.323400  0.610900  0.039000  1.0
  C  C1312  1  0.823400  0.389100  0.461000  1.0
  C  C1313  1  0.323400  0.889100  0.539000  1.0
  C  C1314  1  0.823400  0.110900  0.961000  1.0
  C  C1315  1  0.676600  0.389100  0.961000  1.0
  C  C1316  1  0.176600  0.610900  0.539000  1.0
  C  C1317  1  0.699400  0.127600  0.426400  1.0
  C  C1318  1  0.199400  0.872400  0.073600  1.0
  C  C1319  1  0.300600  0.627600  0.073600  1.0
  C  C1320  1  0.800600  0.372400  0.426400  1.0
  C  C1321  1  0.300600  0.872400  0.573600  1.0
  C  C1322  1  0.800600  0.127600  0.926400  1.0
  C  C1323  1  0.699400  0.372400  0.926400  1.0
  C  C1324  1  0.199400  0.627600  0.573600  1.0
  C  C1325  1  0.657200  0.160600  0.413300  1.0
  C  C1326  1  0.157200  0.839400  0.086700  1.0
  C  C1327  1  0.342800  0.660600  0.086700  1.0
  C  C1328  1  0.842800  0.339400  0.413300  1.0
  C  C1329  1  0.342800  0.839400  0.586700  1.0
  C  C1330  1  0.842800  0.160600  0.913300  1.0
  C  C1331  1  0.657200  0.339400  0.913300  1.0
  C  C1332  1  0.157200  0.660600  0.586700  1.0
  C  C1333  1  0.721900  0.073200  0.475600  1.0
  C  C1334  1  0.221900  0.926800  0.024400  1.0
  C  C1335  1  0.278100  0.573200  0.024400  1.0
  C  C1336  1  0.778100  0.426800  0.475600  1.0
  C  C1337  1  0.278100  0.926800  0.524400  1.0
  C  C1338  1  0.778100  0.073200  0.975600  1.0
  C  C1339  1  0.721900  0.426800  0.975600  1.0
  C  C1340  1  0.221900  0.573200  0.524400  1.0
  C  C1341  1  0.201900  0.531270  0.357730  1.0
  C  C1342  1  0.701900  0.468730  0.142270  1.0
  C  C1343  1  0.798100  0.031270  0.142270  1.0
  C  C1344  1  0.298100  0.968730  0.357730  1.0
  C  C1345  1  0.798100  0.468730  0.642270  1.0
  C  C1346  1  0.298100  0.531270  0.857730  1.0
  C  C1347  1  0.201900  0.968730  0.857730  1.0
  C  C1348  1  0.701900  0.031270  0.642270  1.0
  S  S1349  1  0.750000  0.250000  0.620440  1
  S  S1350  1  0.250000  0.750000  0.879560  1
  S  S1351  1  0.250000  0.750000  0.379560  1
  S  S1352  1  0.750000  0.250000  0.120440  1
  S  S1353  1  0.281100  0.505620  0.333200  1.0
  S  S1354  1  0.781100  0.494380  0.166800  1.0
  S  S1355  1  0.718900  0.005620  0.166800  1.0
  S  S1356  1  0.218900  0.994380  0.333200  1.0
  S  S1357  1  0.718900  0.494380  0.666800  1.0
  S  S1358  1  0.218900  0.505620  0.833200  1.0
  S  S1359  1  0.281100  0.994380  0.833200  1.0
  S  S1360  1  0.781100  0.005620  0.666800  1.0
  N  N1361  1  0.215600  0.484500  0.620200  1
  N  N1362  1  0.715600  0.515500  0.879800  1
  N  N1363  1  0.784400  0.984500  0.879800  1
  N  N1364  1  0.284400  0.015500  0.620200  1
  N  N1365  1  0.784400  0.515500  0.379800  1
  N  N1366  1  0.284400  0.484500  0.120200  1
  N  N1367  1  0.215600  0.015500  0.120200  1
  N  N1368  1  0.715600  0.984500  0.379800  1
  N  N1369  1  0.708200  0.247200  0.335000  1
  N  N1370  1  0.208200  0.752800  0.165000  1
  N  N1371  1  0.291800  0.747200  0.165000  1
  N  N1372  1  0.791800  0.252800  0.335000  1
  N  N1373  1  0.291800  0.752800  0.665000  1
  N  N1374  1  0.791800  0.247200  0.835000  1
  N  N1375  1  0.708200  0.252800  0.835000  1
  N  N1376  1  0.208200  0.747200  0.665000  1
  N  N1377  1  0.477300  0.292400  0.607500  1.0
  N  N1378  1  0.977300  0.707600  0.892500  1.0
  N  N1379  1  0.522700  0.792400  0.892500  1.0
  N  N1380  1  0.022700  0.207600  0.607500  1.0
  N  N1381  1  0.522700  0.707600  0.392500  1.0
  N  N1382  1  0.022700  0.292400  0.107500  1.0
  N  N1383  1  0.477300  0.207600  0.107500  1.0
  N  N1384  1  0.977300  0.792400  0.392500  1.0
  N  N1385  1  0.315800  0.436500  0.435100  1.0
  N  N1386  1  0.815800  0.563500  0.064900  1.0
  N  N1387  1  0.684200  0.936500  0.064900  1.0
  N  N1388  1  0.184200  0.063500  0.435100  1.0
  N  N1389  1  0.684200  0.563500  0.564900  1.0
  N  N1390  1  0.184200  0.436500  0.935100  1.0
  N  N1391  1  0.315800  0.063500  0.935100  1.0
  N  N1392  1  0.815800  0.936500  0.564900  1.0
  N  N1393  1  0.525900  0.180900  0.570900  1.0
  N  N1394  1  0.025900  0.819100  0.929100  1.0
  N  N1395  1  0.474100  0.680900  0.929100  1.0
  N  N1396  1  0.974100  0.319100  0.570900  1.0
  N  N1397  1  0.474100  0.819100  0.429100  1.0
  N  N1398  1  0.974100  0.180900  0.070900  1.0
  N  N1399  1  0.525900  0.319100  0.070900  1.0
  N  N1400  1  0.025900  0.680900  0.429100  1.0
  N  N1401  1  0.609800  0.270200  0.519200  1.0
  N  N1402  1  0.109800  0.729800  0.980800  1.0
  N  N1403  1  0.390200  0.770200  0.980800  1.0
  N  N1404  1  0.890200  0.229800  0.519200  1.0
  N  N1405  1  0.390200  0.729800  0.480800  1.0
  N  N1406  1  0.890200  0.270200  0.019200  1.0
  N  N1407  1  0.609800  0.229800  0.019200  1.0
  N  N1408  1  0.109800  0.770200  0.480800  1.0
  N  N1409  1  0.343500  0.366200  0.349200  1.0
  N  N1410  1  0.843500  0.633800  0.150800  1.0
  N  N1411  1  0.656500  0.866200  0.150800  1.0
  N  N1412  1  0.156500  0.133800  0.349200  1.0
  N  N1413  1  0.656500  0.633800  0.650800  1.0
  N  N1414  1  0.156500  0.366200  0.849200  1.0
  N  N1415  1  0.343500  0.133800  0.849200  1.0
  N  N1416  1  0.843500  0.866200  0.650800  1.0
  N  N1417  1  0.129900  0.394900  0.374100  1.0
  N  N1418  1  0.629900  0.605100  0.125900  1.0
  N  N1419  1  0.870100  0.894900  0.125900  1.0
  N  N1420  1  0.370100  0.105100  0.374100  1.0
  N  N1421  1  0.870100  0.605100  0.625900  1.0
  N  N1422  1  0.370100  0.394900  0.874100  1.0
  N  N1423  1  0.129900  0.105100  0.874100  1.0
  N  N1424  1  0.629900  0.894900  0.625900  1.0
  O  O1425  1  0.138200  0.469600  0.626200  1
  O  O1426  1  0.638200  0.530400  0.873800  1
  O  O1427  1  0.861800  0.969600  0.873800  1
  O  O1428  1  0.361800  0.030400  0.626200  1
  O  O1429  1  0.861800  0.530400  0.373800  1
  O  O1430  1  0.361800  0.469600  0.126200  1
  O  O1431  1  0.138200  0.030400  0.126200  1
  O  O1432  1  0.638200  0.969600  0.373800  1
  O  O1433  1  0.231400  0.484700  0.588300  1
  O  O1434  1  0.731400  0.515300  0.911700  1
  O  O1435  1  0.768600  0.984700  0.911700  1
  O  O1436  1  0.268600  0.015300  0.588300  1
  O  O1437  1  0.768600  0.515300  0.411700  1
  O  O1438  1  0.268600  0.484700  0.088300  1
  O  O1439  1  0.231400  0.015300  0.088300  1
  O  O1440  1  0.731400  0.984700  0.411700  1
  O  O1441  1  0.199000  0.529000  0.632900  1
  O  O1442  1  0.699000  0.471000  0.867100  1
  O  O1443  1  0.801000  0.029000  0.867100  1
  O  O1444  1  0.301000  0.971000  0.632900  1
  O  O1445  1  0.801000  0.471000  0.367100  1
  O  O1446  1  0.301000  0.529000  0.132900  1
  O  O1447  1  0.199000  0.971000  0.132900  1
  O  O1448  1  0.699000  0.029000  0.367100  1
  O  O1449  1  0.573600  0.337400  0.235200  1
  O  O1450  1  0.073600  0.662600  0.264800  1
  O  O1451  1  0.426400  0.837400  0.264800  1
  O  O1452  1  0.926400  0.162600  0.235200  1
  O  O1453  1  0.426400  0.662600  0.764800  1
  O  O1454  1  0.926400  0.337400  0.735200  1
  O  O1455  1  0.573600  0.162600  0.735200  1
  O  O1456  1  0.073600  0.837400  0.764800  1
  O  O1457  1  0.356000  0.439400  0.229300  1
  O  O1458  1  0.856000  0.560600  0.270700  1
  O  O1459  1  0.644000  0.939400  0.270700  1
  O  O1460  1  0.144000  0.060600  0.229300  1
  O  O1461  1  0.644000  0.560600  0.770700  1
  O  O1462  1  0.144000  0.439400  0.729300  1
  O  O1463  1  0.356000  0.060600  0.729300  1
  O  O1464  1  0.856000  0.939400  0.770700  1
  O  O1465  1  0.592000  0.316000  0.721700  1
  O  O1466  1  0.092000  0.684000  0.778300  1
  O  O1467  1  0.408000  0.816000  0.778300  1
  O  O1468  1  0.908000  0.184000  0.721700  1
  O  O1469  1  0.408000  0.684000  0.278300  1
  O  O1470  1  0.908000  0.316000  0.221700  1
  O  O1471  1  0.592000  0.184000  0.221700  1
  O  O1472  1  0.092000  0.816000  0.278300  1
  O  O1473  1  0.745000  0.384600  0.302300  1
  O  O1474  1  0.245000  0.615400  0.197700  1
  O  O1475  1  0.255000  0.884600  0.197700  1
  O  O1476  1  0.755000  0.115400  0.302300  1
  O  O1477  1  0.255000  0.615400  0.697700  1
  O  O1478  1  0.755000  0.384600  0.802300  1
  O  O1479  1  0.745000  0.115400  0.802300  1
  O  O1480  1  0.245000  0.884600  0.697700  1
  O  O1481  1  0.669440  0.235920  0.612700  1
  O  O1482  1  0.169440  0.764080  0.887300  1
  O  O1483  1  0.330560  0.735920  0.887300  1
  O  O1484  1  0.830560  0.264080  0.612700  1
  O  O1485  1  0.330560  0.764080  0.387300  1
  O  O1486  1  0.830560  0.235920  0.112700  1
  O  O1487  1  0.669440  0.264080  0.112700  1
  O  O1488  1  0.169440  0.735920  0.387300  1
  O  O1489  1  0.793100  0.226180  0.646500  1
  O  O1490  1  0.293100  0.773820  0.853500  1
  O  O1491  1  0.206900  0.726180  0.853500  1
  O  O1492  1  0.706900  0.273820  0.646500  1
  O  O1493  1  0.206900  0.773820  0.353500  1
  O  O1494  1  0.706900  0.226180  0.146500  1
  O  O1495  1  0.793100  0.273820  0.146500  1
  O  O1496  1  0.293100  0.726180  0.353500  1
  O  O1497  1  0.796800  0.262170  0.589930  1
  O  O1498  1  0.296800  0.737830  0.910070  1
  O  O1499  1  0.203200  0.762170  0.910070  1
  O  O1500  1  0.703200  0.237830  0.589930  1
  O  O1501  1  0.203200  0.737830  0.410070  1
  O  O1502  1  0.703200  0.262170  0.089930  1
  O  O1503  1  0.796800  0.237830  0.089930  1
  O  O1504  1  0.296800  0.762170  0.410070  1
  O  O1505  1  0.673500  0.208600  0.320700  1
  O  O1506  1  0.173500  0.791400  0.179300  1
  O  O1507  1  0.326500  0.708600  0.179300  1
  O  O1508  1  0.826500  0.291400  0.320700  1
  O  O1509  1  0.326500  0.791400  0.679300  1
  O  O1510  1  0.826500  0.208600  0.820700  1
  O  O1511  1  0.673500  0.291400  0.820700  1
  O  O1512  1  0.173500  0.708600  0.679300  1
  O  O1513  1  0.664000  0.266500  0.321700  1
  O  O1514  1  0.164000  0.733500  0.178300  1
  O  O1515  1  0.336000  0.766500  0.178300  1
  O  O1516  1  0.836000  0.233500  0.321700  1
  O  O1517  1  0.336000  0.733500  0.678300  1
  O  O1518  1  0.836000  0.266500  0.821700  1
  O  O1519  1  0.664000  0.233500  0.821700  1
  O  O1520  1  0.164000  0.766500  0.678300  1
  O  O1521  1  0.759800  0.377300  0.328700  1
  O  O1522  1  0.259800  0.622700  0.171300  1
  O  O1523  1  0.240200  0.877300  0.171300  1
  O  O1524  1  0.740200  0.122700  0.328700  1
  O  O1525  1  0.240200  0.622700  0.671300  1
  O  O1526  1  0.740200  0.377300  0.828700  1
  O  O1527  1  0.759800  0.122700  0.828700  1
  O  O1528  1  0.259800  0.877300  0.671300  1
  O  O1529  1  0.253200  0.463830  0.331720  1.0
  O  O1530  1  0.753200  0.536170  0.168280  1.0
  O  O1531  1  0.746800  0.963830  0.168280  1.0
  O  O1532  1  0.246800  0.036170  0.331720  1.0
  O  O1533  1  0.746800  0.536170  0.668280  1.0
  O  O1534  1  0.246800  0.463830  0.831720  1.0
  O  O1535  1  0.253200  0.036170  0.831720  1.0
  O  O1536  1  0.753200  0.963830  0.668280  1.0
  O  O1537  1  0.351300  0.512300  0.355030  1.0
  O  O1538  1  0.851300  0.487700  0.144970  1.0
  O  O1539  1  0.648700  0.012300  0.144970  1.0
  O  O1540  1  0.148700  0.987700  0.355030  1.0
  O  O1541  1  0.648700  0.487700  0.644970  1.0
  O  O1542  1  0.148700  0.512300  0.855030  1.0
  O  O1543  1  0.351300  0.987700  0.855030  1.0
  O  O1544  1  0.851300  0.012300  0.644970  1.0
  O  O1545  1  0.281300  0.527000  0.299670  1.0
  O  O1546  1  0.781300  0.473000  0.200330  1.0
  O  O1547  1  0.718700  0.027000  0.200330  1.0
  O  O1548  1  0.218700  0.973000  0.299670  1.0
  O  O1549  1  0.718700  0.473000  0.700330  1.0
  O  O1550  1  0.218700  0.527000  0.799670  1.0
  O  O1551  1  0.281300  0.973000  0.799670  1.0
  O  O1552  1  0.781300  0.027000  0.700330  1.0
  F  F1553  1  0.682800  0.322380  0.624900  1
  F  F1554  1  0.182800  0.677620  0.875100  1
  F  F1555  1  0.317200  0.822380  0.875100  1
  F  F1556  1  0.817200  0.177620  0.624900  1
  F  F1557  1  0.317200  0.677620  0.375100  1
  F  F1558  1  0.817200  0.322380  0.124900  1
  F  F1559  1  0.682800  0.177620  0.124900  1
  F  F1560  1  0.182800  0.822380  0.375100  1
  F  F1561  1  0.801100  0.318780  0.648200  1
  F  F1562  1  0.301100  0.681220  0.851800  1
  F  F1563  1  0.198900  0.818780  0.851800  1
  F  F1564  1  0.698900  0.181220  0.648200  1
  F  F1565  1  0.198900  0.681220  0.351800  1
  F  F1566  1  0.698900  0.318780  0.148200  1
  F  F1567  1  0.801100  0.181220  0.148200  1
  F  F1568  1  0.301100  0.818780  0.351800  1
  F  F1569  1  0.699400  0.292300  0.675170  1
  F  F1570  1  0.199400  0.707700  0.824830  1
  F  F1571  1  0.300600  0.792300  0.824830  1
  F  F1572  1  0.800600  0.207700  0.675170  1
  F  F1573  1  0.300600  0.707700  0.324830  1
  F  F1574  1  0.800600  0.292300  0.175170  1
  F  F1575  1  0.699400  0.207700  0.175170  1
  F  F1576  1  0.199400  0.792300  0.324830  1
  F  F1577  1  0.129100  0.523400  0.344070  1.0
  F  F1578  1  0.629100  0.476600  0.155930  1.0
  F  F1579  1  0.870900  0.023400  0.155930  1.0
  F  F1580  1  0.370900  0.976600  0.344070  1.0
  F  F1581  1  0.870900  0.476600  0.655930  1.0
  F  F1582  1  0.370900  0.523400  0.844070  1.0
  F  F1583  1  0.129100  0.976600  0.844070  1.0
  F  F1584  1  0.629100  0.023400  0.655930  1.0
  F  F1585  1  0.200300  0.519400  0.391700  1.0
  F  F1586  1  0.700300  0.480600  0.108300  1.0
  F  F1587  1  0.799700  0.019400  0.108300  1.0
  F  F1588  1  0.299700  0.980600  0.391700  1.0
  F  F1589  1  0.799700  0.480600  0.608300  1.0
  F  F1590  1  0.299700  0.519400  0.891700  1.0
  F  F1591  1  0.200300  0.980600  0.891700  1.0
  F  F1592  1  0.700300  0.019400  0.608300  1.0
  F  F1593  1  0.211400  0.571860  0.357500  1.0
  F  F1594  1  0.711400  0.428140  0.142500  1.0
  F  F1595  1  0.788600  0.071860  0.142500  1.0
  F  F1596  1  0.288600  0.928140  0.357500  1.0
  F  F1597  1  0.788600  0.428140  0.642500  1.0
  F  F1598  1  0.288600  0.571860  0.857500  1.0
  F  F1599  1  0.211400  0.928140  0.857500  1.0
  F  F1600  1  0.711400  0.071860  0.642500  1.0
