
#######################################################################
#
#                 Cambridge Crystallographic Data Centre
#                                CCDC 
#
#######################################################################
#
# If this CIF has been generated from an entry in the Cambridge 
# Structural Database, then it will include bibliographic, chemical, 
# crystal, experimental, refinement or atomic coordinate data resulting 
# from the CCDC's data processing and validation procedures.
#
#######################################################################

data_JASZEL
_chemical_formula_moiety         'C54 H48 Cl6 Co3 Fe2 N6 O12'
_chemical_name_systematic        
hexakis(\m-1-(4-pyridyl)-1,3-butanedionato)-hexachloro-tri-cobalt(ii)-di-iron(iii)
_symmetry_cell_setting           trigonal
_symmetry_space_group_name_H-M   'P 32 2 1'
_symmetry_Int_Tables_number      154
_space_group_name_Hall           'P 32 2"'
loop_
_symmetry_equiv_pos_site_id
_symmetry_equiv_pos_as_xyz
1 x,y,z
2 -y,x-y,2/3+z
3 -x+y,-x,1/3+z
4 x-y,-y,1/3-z
5 -x,-x+y,2/3-z
6 y,x,-z
_cell_length_a                   12.7708(5)
_cell_length_b                   12.7708(5)
_cell_length_c                   39.0709(12)
_cell_angle_alpha                90
_cell_angle_beta                 90
_cell_angle_gamma                120
_cell_volume                     5518.49
_exptl_crystal_colour            orange
_exptl_crystal_description       plate
_cell_formula_units_Z            3
loop_
_atom_site_label
_atom_site_type_symbol
_atom_site_fract_x
_atom_site_fract_y
_atom_site_fract_z
Co1 Co 0.65818(13) 1.16451(11) 0.51616(3)
Co2 Co 1.36889(13) 1.0000 0.6667
Fe1 Fe 0.57707(11) 0.51911(11) 0.62583(3)
Cl1 Cl 0.7614(4) 1.1616(3) 0.47046(7)
Cl2 Cl 0.4975(3) 1.1851(2) 0.50604(7)
Cl3 Cl 1.4841(2) 1.0543(2) 0.61969(6)
O1 O 0.5326(6) 0.5550(5) 0.67156(13)
O2 O 0.6182(6) 0.4831(5) 0.57888(13)
O3 O 0.7541(5) 0.6225(6) 0.63318(13)
O4 O 0.5707(5) 0.6595(5) 0.60606(13)
O5 O 0.4059(5) 0.4156(5) 0.60997(14)
O6 O 0.5850(6) 0.3822(6) 0.64826(15)
N1 N 0.4938(7) 0.7135(6) 0.78300(17)
N2 N 0.6036(7) 1.0031(7) 0.53979(18)
N3 N 1.1997(7) 0.8795(7) 0.64884(19)
C1 C 0.3591(8) 0.4354(8) 0.5838(2)
C2 C 1.0587(10) 0.8244(10) 0.6029(2)
H1 H 1.0445 0.8354 0.5796
C3 C 0.9631(8) 0.7434(9) 0.6236(2)
C4 C 0.4481(8) 0.8019(8) 0.5538(2)
H2 H 0.3647 0.7424 0.5540
C5 C 1.1732(9) 0.8880(10) 0.6163(2)
H3 H 1.2371 0.9409 0.6015
C6 C 0.8403(8) 0.6656(8) 0.6108(2)
C7 C 0.5012(8) 0.6557(8) 0.58146(19)
C8 C 1.1076(9) 0.8036(9) 0.6697(2)
H4 H 1.1246 0.7978 0.6930
C9 C 0.8215(9) 0.6371(9) 0.5757(2)
H5 H 0.8871 0.6819 0.5605
C10 C 0.5977(7) 0.3689(7) 0.6803(2)
C11 C 0.6552(9) 0.8644(9) 0.5658(3)
H6 H 0.7156 0.8495 0.5748
C12 C 0.4868(9) 0.9180(8) 0.5412(2)
H7 H 0.4280 0.9372 0.5333
C13 C 0.5346(8) 0.7753(7) 0.5662(2)
C14 C 0.4016(8) 0.5513(8) 0.5690(2)
H8 H 0.3600 0.5579 0.5497
C15 C 0.7125(9) 0.5472(8) 0.56173(19)
C16 C 0.7089(11) 0.5232(10) 0.5234(2)
H9 H 0.6886 0.5775 0.5111
H10 H 0.6474 0.4391 0.5187
H11 H 0.7881 0.5375 0.5159
C17 C 0.5744(9) 0.5905(10) 0.7634(2)
H12 H 0.6176 0.5498 0.7685
C18 C 0.2512(13) 0.3284(11) 0.5682(4)
H13 H 0.1826 0.2987 0.5840
H14 H 0.2703 0.2642 0.5638
H15 H 0.2303 0.3525 0.5466
C19 C 0.5598(10) 0.6595(10) 0.7875(2)
H16 H 0.5990 0.6700 0.8089
C20 C 0.6860(10) 0.9768(10) 0.5517(3)
H17 H 0.7691 1.0370 0.5504
C21 C 0.5474(7) 0.5205(8) 0.7008(2)
C22 C 0.5776(8) 0.4317(8) 0.7069(2)
H18 H 0.5851 0.4123 0.7299
C23 C 0.4392(9) 0.6986(8) 0.7521(2)
H19 H 0.3898 0.7338 0.7485
C24 C 0.9895(8) 0.7341(8) 0.6580(2)
H20 H 0.9273 0.6808 0.6731
C25 C 0.4529(9) 0.6338(9) 0.7256(2)
H21 H 0.4141 0.6258 0.7042
C26 C 0.5234(8) 0.5813(8) 0.73053(18)
C27 C 0.6379(9) 0.2783(9) 0.6893(2)
H22 H 0.7256 0.3211 0.6928
H23 H 0.6165 0.2200 0.6706
H24 H 0.5973 0.2354 0.7104
Co1C Co 0.49367(17) 0.83549(11) 0.81717(3)
Fe1C Fe 1.05796(16) 1.48089(11) 0.70750(3)
Cl1C Cl 0.5998(5) 0.8384(3) 0.86287(7)
Cl2C Cl 0.3124(4) 0.8149(2) 0.82729(7)
Cl3C Cl 1.4298(3) 0.9457(2) 0.71364(6)
O1C O 0.9776(8) 1.4450(5) 0.66177(13)
O2C O 1.1351(8) 1.5169(5) 0.75445(13)
O3C O 1.1316(8) 1.3775(6) 0.70015(13)
O4C O 0.9112(7) 1.3405(5) 0.72727(13)
O5C O 0.9903(7) 1.5844(5) 0.72336(14)
O6C O 1.2028(8) 1.6178(6) 0.68507(15)
N1C N 0.7803(9) 1.2865(6) 0.55033(17)
N2C N 0.6005(10) 0.9969(7) 0.79354(18)
N3C N 1.3202(10) 1.1205(7) 0.68449(19)
C1C C 0.9237(11) 1.5646(8) 0.7495(2)
C2C C 1.2343(14) 1.1756(10) 0.7304(2)
H1C H 1.2091 1.1646 0.7537
C3C C 1.2197(12) 1.2566(9) 0.7097(2)
C4C C 0.6462(11) 1.1981(8) 0.7795(2)
H2C H 0.6223 1.2576 0.7793
C5C C 1.2852(13) 1.1120(10) 0.7170(2)
H3C H 1.2962 1.0591 0.7318
C6C C 1.1747(11) 1.3344(8) 0.7225(2)
C7C C 0.8455(11) 1.3443(8) 0.75187(19)
C8C C 1.3040(13) 1.1964(9) 0.6636(2)
H4C H 1.3268 1.2022 0.6403
C9C C 1.1844(13) 1.3629(9) 0.7576(2)
H5C H 1.2052 1.3181 0.7728
C10C C 1.2288(10) 1.6311(7) 0.6530(2)
C11C C 0.7908(13) 1.1356(9) 0.7675(3)
H6C H 0.8661 1.1505 0.7585
C12C C 0.5688(12) 1.0820(8) 0.7921(2)
H7C H 0.4908 1.0628 0.8000
C13C C 0.7593(11) 1.2247(7) 0.7671(2)
C14C C 0.8503(11) 1.4487(8) 0.7643(2)
H8C H 0.8021 1.4421 0.7836
C15C C 1.1653(12) 1.4528(8) 0.77160(19)
C16C C 1.1857(15) 1.4768(10) 0.8099(2)
H9C H 1.1111 1.4225 0.8222
H10C H 1.2083 1.5609 0.8146
H11C H 1.2506 1.4625 0.8174
C17C C 0.9839(13) 1.4095(10) 0.5699(2)
H12C H 1.0678 1.4502 0.5648
C18C C 0.9228(17) 1.6716(11) 0.7651(4)
H13C H 0.8839 1.7013 0.7493
H14C H 1.0061 1.7358 0.7695
H15C H 0.8778 1.6475 0.7867
C19C C 0.9003(14) 1.3405(10) 0.5458(2)
H16C H 0.9290 1.3300 0.5244
C20C C 0.7092(14) 1.0232(10) 0.7816(3)
H17C H 0.7321 0.9630 0.7829
C21C C 1.0269(11) 1.4795(8) 0.6325(2)
C22C C 1.1459(11) 1.5683(8) 0.6264(2)
H18C H 1.1728 1.5877 0.6034
C23C C 0.7406(12) 1.3014(8) 0.5812(2)
H19C H 0.6560 1.2662 0.5848
C24C C 1.2554(11) 1.2659(8) 0.6753(2)
H20C H 1.2465 1.3192 0.6602
C25C C 0.8191(13) 1.3662(9) 0.6077(2)
H21C H 0.7883 1.3742 0.6291
C26C C 0.9421(11) 1.4187(8) 0.60280(18)
C27C C 1.3596(13) 1.7217(9) 0.6440(2)
H22C H 1.4045 1.6789 0.6405
H23C H 1.3965 1.7800 0.6627
H24C H 1.3619 1.7646 0.6229
loop_
_geom_bond_atom_site_label_1
_geom_bond_atom_site_label_2
_geom_bond_site_symmetry_1
_geom_bond_site_symmetry_2
Co1 Cl1 1_555 1_555
Co2 Cl3 1_555 1_555
Fe1 O1 1_555 1_555
Cl2 Co1 1_555 1_555
O1 C21 1_555 1_555
O2 Fe1 1_555 1_555
O3 Fe1 1_555 1_555
O4 Fe1 1_555 1_555
O5 Fe1 1_555 1_555
O6 Fe1 1_555 1_555
N1 C19 1_555 1_555
N2 Co1 1_555 1_555
N3 Co2 1_555 1_555
C1 O5 1_555 1_555
C2 H1 1_555 1_555
C3 C2 1_555 1_555
C4 H2 1_555 1_555
C5 N3 1_555 1_555
H3 C5 1_555 1_555
C6 O3 1_555 1_555
C7 O4 1_555 1_555
C8 N3 1_555 1_555
H4 C8 1_555 1_555
C9 C6 1_555 1_555
H5 C9 1_555 1_555
C10 O6 1_555 1_555
C11 H6 1_555 1_555
C12 N2 1_555 1_555
H7 C12 1_555 1_555
C13 C4 1_555 1_555
C14 C1 1_555 1_555
H8 C14 1_555 1_555
C15 O2 1_555 1_555
C16 C15 1_555 1_555
H9 C16 1_555 1_555
H10 C16 1_555 1_555
H11 C16 1_555 1_555
C17 H12 1_555 1_555
C18 C1 1_555 1_555
H13 C18 1_555 1_555
H14 C18 1_555 1_555
H15 C18 1_555 1_555
C19 C17 1_555 1_555
H16 C19 1_555 1_555
C20 N2 1_555 1_555
H17 C20 1_555 1_555
C21 C22 1_555 1_555
C22 C10 1_555 1_555
H18 C22 1_555 1_555
C23 N1 1_555 1_555
H19 C23 1_555 1_555
C24 C3 1_555 1_555
H20 C24 1_555 1_555
C25 C23 1_555 1_555
H21 C25 1_555 1_555
C26 C17 1_555 1_555
C27 C10 1_555 1_555
H22 C27 1_555 1_555
H23 C27 1_555 1_555
H24 C27 1_555 1_555
Co1C N1 1_555 1_555
Fe1C O1C 1_555 1_555
Cl1C Co1C 1_555 1_555
Cl2C Co1C 1_555 1_555
Cl3C Co2 1_555 1_555
O1C C21C 1_555 1_555
O2C Fe1C 1_555 1_555
O3C Fe1C 1_555 1_555
O4C Fe1C 1_555 1_555
O5C Fe1C 1_555 1_555
O6C Fe1C 1_555 1_555
N1C Co1 1_555 1_555
N2C Co1C 1_555 1_555
N3C Co2 1_555 1_555
C1C O5C 1_555 1_555
C2C H1C 1_555 1_555
C3C C2C 1_555 1_555
C4C H2C 1_555 1_555
C5C N3C 1_555 1_555
H3C C5C 1_555 1_555
C6C O3C 1_555 1_555
C7C O4C 1_555 1_555
C8C N3C 1_555 1_555
H4C C8C 1_555 1_555
C9C C6C 1_555 1_555
H5C C9C 1_555 1_555
C10C O6C 1_555 1_555
C11C H6C 1_555 1_555
C12C N2C 1_555 1_555
H7C C12C 1_555 1_555
C13C C4C 1_555 1_555
C14C C1C 1_555 1_555
H8C C14C 1_555 1_555
C15C O2C 1_555 1_555
C16C C15C 1_555 1_555
H9C C16C 1_555 1_555
H10C C16C 1_555 1_555
H11C C16C 1_555 1_555
C17C H12C 1_555 1_555
C18C C1C 1_555 1_555
H13C C18C 1_555 1_555
H14C C18C 1_555 1_555
H15C C18C 1_555 1_555
C19C N1C 1_555 1_555
H16C C19C 1_555 1_555
C20C N2C 1_555 1_555
H17C C20C 1_555 1_555
C21C C22C 1_555 1_555
C22C C10C 1_555 1_555
H18C C22C 1_555 1_555
C23C N1C 1_555 1_555
H19C C23C 1_555 1_555
C24C C3C 1_555 1_555
H20C C24C 1_555 1_555
C25C C23C 1_555 1_555
H21C C25C 1_555 1_555
C26C C17C 1_555 1_555
C27C C10C 1_555 1_555
H22C C27C 1_555 1_555
H23C C27C 1_555 1_555
H24C C27C 1_555 1_555
C2 C5 1_555 1_555
C3 C6 1_555 1_555
C4 C12 1_555 1_555
C7 C13 1_555 1_555
C7 C14 1_555 1_555
C8 C24 1_555 1_555
C9 C15 1_555 1_555
C11 C13 1_555 1_555
C11 C20 1_555 1_555
C21 C26 1_555 1_555
C25 C26 1_555 1_555
C2C C5C 1_555 1_555
C3C C6C 1_555 1_555
C4C C12C 1_555 1_555
C7C C13C 1_555 1_555
C7C C14C 1_555 1_555
C8C C24C 1_555 1_555
C9C C15C 1_555 1_555
C11C C13C 1_555 1_555
C11C C20C 1_555 1_555
C17C C19C 1_555 1_555
C21C C26C 1_555 1_555
C25C C26C 1_555 1_555

#END
