
#######################################################################
#
#                 Cambridge Crystallographic Data Centre
#                                CCDC 
#
#######################################################################
#
# If this CIF has been generated from an entry in the Cambridge 
# Structural Database, then it will include bibliographic, chemical, 
# crystal, experimental, refinement or atomic coordinate data resulting 
# from the CCDC's data processing and validation procedures.
#
#######################################################################

data_JASZUB
_chemical_formula_moiety         
'C135 H126 Cr2 N6 O12 P6 Pd3 6+,6(C1 F3 O3 S1 1-),17(C1 H4 O1)'
_chemical_name_systematic        
'hexakis(\m-1-(4-pyridyl)-1,3-butanedionato)-hexakis(1,3-bis(diphenylphosphino)propane)-di-chromium(iii)-tri-palladium(ii) hexakis(trifluoromethanesulfonate) methanol solvate'
_symmetry_cell_setting           triclinic
_symmetry_space_group_name_H-M   'P -1'
_symmetry_Int_Tables_number      2
_space_group_name_Hall           '-P 1'
loop_
_symmetry_equiv_pos_site_id
_symmetry_equiv_pos_as_xyz
1 x,y,z
2 -x,-y,-z
_cell_length_a                   18.4407(9)
_cell_length_b                   22.0037(9)
_cell_length_c                   27.1925(10)
_cell_angle_alpha                104.146(3)
_cell_angle_beta                 109.298(4)
_cell_angle_gamma                95.522(4)
_cell_volume                     9907.34
_exptl_crystal_colour            orange
_exptl_crystal_description       rod
_cell_formula_units_Z            2
_exptl_crystal_recrystallization_method methanol
loop_
_atom_site_label
_atom_site_type_symbol
_atom_site_fract_x
_atom_site_fract_y
_atom_site_fract_z
S1 S 0.3730(3) 0.8165(3) 0.2864(2)
F1 F 0.4875(8) 0.8222(8) 0.2513(5)
F2 F 0.5169(10) 0.8087(12) 0.3292(7)
F3 F 0.5002(11) 0.9018(11) 0.3199(8)
O13 O 0.3402(7) 0.8574(6) 0.2562(4)
O14 O 0.3739(8) 0.8315(7) 0.3416(5)
O15 O 0.3484(13) 0.7508(8) 0.2539(8)
C161 C 0.4791(13) 0.8347(14) 0.3005(9)
S2 S 0.2224(3) -0.0177(3) 0.5440(2)
F4 F 0.2162(9) 0.0604(7) 0.6280(5)
F5 F 0.3256(9) 0.0289(8) 0.6424(5)
F6 F 0.3004(9) 0.0971(8) 0.5979(6)
O16 O 0.1626(7) 0.0080(5) 0.5132(4)
O17 O 0.1991(6) -0.0721(6) 0.5593(4)
O18 O 0.2854(7) -0.0241(7) 0.5229(5)
C162 C 0.2729(13) 0.0431(11) 0.6096(9)
Pd1 Pd 0.08666(8) 0.79524(6) 0.52513(5)
Pd2 Pd 0.74136(8) 1.05822(6) 0.80338(5)
Pd3 Pd 0.56049(12) 0.53126(7) 0.82904(7)
Cr1 Cr 0.54444(19) 0.68170(16) 0.54943(10)
Cr2 Cr 0.35057(17) 0.87655(14) 0.87654(10)
P1 P 0.0521(3) 0.7875(2) 0.43535(18)
P2 P 0.7902(3) 1.1438(2) 0.87914(19)
P3 P 0.8469(3) 1.0844(3) 0.78278(19)
P4 P -0.0059(3) 0.8544(2) 0.53151(17)
P5 P 0.5578(8) 0.4279(5) 0.7816(5)
P6 P 0.5144(9) 0.4970(6) 0.8821(5)
O1 O 0.4427(8) 0.6996(6) 0.5457(5)
O2 O 0.4966(9) 0.5957(7) 0.4969(5)
O3 O 0.5902(7) 0.7652(6) 0.6018(4)
O4 O 0.5368(8) 0.7173(7) 0.4892(4)
O5 O 0.5524(6) 0.6460(5) 0.6099(4)
O6 O 0.6503(7) 0.6685(6) 0.5558(4)
O7 O 0.2896(9) 0.8432(6) 0.8002(5)
O8 O 0.2684(9) 0.8387(7) 0.8962(6)
O9 O 0.4334(6) 0.9191(5) 0.8602(4)
O10 O 0.2998(6) 0.9502(5) 0.8755(4)
O11 O 0.3970(7) 0.8008(5) 0.8725(4)
O12 O 0.4149(7) 0.9100(5) 0.9541(4)
N1 N 0.1817(9) 0.7481(7) 0.5260(5)
N2 N 0.6925(8) 0.9769(6) 0.7321(5)
N3 N 0.5785(10) 0.5640(6) 0.7663(6)
N4 N 0.1249(9) 0.8017(7) 0.6092(6)
N5 N 0.6397(7) 1.0310(6) 0.8190(5)
N6 N 0.5364(9) 0.6227(6) 0.8556(5)
C1 C 0.2488(11) 0.7833(9) 0.5340(7)
H1 H 0.2528 0.8280 0.5398
C2 C 0.3151(11) 0.7559(9) 0.5341(6)
H2 H 0.3642 0.7816 0.5417
C3 C 0.3058(12) 0.6902(9) 0.5227(6)
C4 C 0.2348(12) 0.6531(10) 0.5115(7)
H3 H 0.2280 0.6079 0.5016
C5 C 0.1722(11) 0.6838(9) 0.5149(7)
H4 H 0.1233 0.6593 0.5094
C6 C 0.3762(12) 0.6607(10) 0.5178(7)
C7 C 0.3637(12) 0.5992(9) 0.4850(7)
H5 H 0.3119 0.5748 0.4679
C8 C 0.4266(14) 0.5714(11) 0.4760(7)
C9 C 0.4034(11) 0.5037(9) 0.4375(7)
H6 H 0.3950 0.5052 0.4003
H7 H 0.3550 0.4821 0.4384
H8 H 0.4453 0.4801 0.4490
C10 C 0.7004(10) 0.9187(8) 0.7355(6)
H9 H 0.7274 0.9130 0.7700
C11 C 0.6702(9) 0.8669(8) 0.6904(6)
H10 H 0.6768 0.8255 0.6932
C12 C 0.6291(10) 0.8754(9) 0.6393(7)
C13 C 0.6175(11) 0.9358(9) 0.6382(7)
H11 H 0.5855 0.9429 0.6054
C14 C 0.6528(11) 0.9859(9) 0.6848(7)
H12 H 0.6487 1.0281 0.6833
C15 C 0.5950(10) 0.8171(10) 0.5906(7)
C16 C 0.5766(10) 0.8252(10) 0.5385(7)
H13 H 0.5843 0.8673 0.5357
C17 C 0.5470(11) 0.7735(11) 0.4897(8)
C18 C 0.5340(11) 0.7902(10) 0.4374(6)
H14 H 0.5535 0.7602 0.4141
H15 H 0.5620 0.8338 0.4456
H16 H 0.4778 0.7876 0.4185
C19 C 0.6484(13) 0.5912(9) 0.7736(8)
H17 H 0.6901 0.5934 0.8063
C20 C 0.6659(11) 0.6179(9) 0.7358(7)
H18 H 0.7177 0.6373 0.7419
C21 C 0.6027(12) 0.6142(8) 0.6888(7)
C22 C 0.5316(12) 0.5882(8) 0.6817(8)
H19 H 0.4887 0.5872 0.6502
C23 C 0.5195(13) 0.5623(9) 0.7205(9)
H20 H 0.4679 0.5427 0.7147
C24 C 0.6159(12) 0.6404(8) 0.6447(7)
C25 C 0.6861(11) 0.6507(9) 0.6409(7)
H21 H 0.7291 0.6478 0.6708
C26 C 0.7047(11) 0.6652(9) 0.5982(7)
C27 C 0.7819(11) 0.6684(12) 0.5957(7)
H22 H 0.7817 0.6316 0.5668
H23 H 0.8196 0.6679 0.6308
H24 H 0.7969 0.7080 0.5880
C28 C 0.0936(12) 0.7586(9) 0.6270(7)
H25 H 0.0518 0.7251 0.6018
C29 C 0.1214(11) 0.7622(10) 0.6823(7)
H26 H 0.0994 0.7307 0.6945
C30 C 0.1805(11) 0.8113(9) 0.7186(8)
C31 C 0.2120(10) 0.8537(9) 0.6985(7)
H27 H 0.2545 0.8870 0.7230
C32 C 0.1843(11) 0.8500(9) 0.6442(7)
H28 H 0.2065 0.8808 0.6314
C33 C 0.2207(15) 0.8214(10) 0.7782(7)
C34 C 0.1685(12) 0.8080(10) 0.8052(9)
H29 H 0.1138 0.7943 0.7852
C35 C 0.1999(17) 0.8156(11) 0.8634(10)
C36 C 0.1388(13) 0.7991(12) 0.8893(8)
H30 H 0.1457 0.7594 0.8990
H31 H 0.0857 0.7937 0.8629
H32 H 0.1470 0.8339 0.9221
C37 C 0.5734(11) 1.0514(9) 0.7976(7)
H33 H 0.5739 1.0806 0.7771
C38 C 0.5057(11) 1.0323(9) 0.8037(7)
H34 H 0.4613 1.0502 0.7894
C39 C 0.5003(10) 0.9879(8) 0.8301(6)
C40 C 0.5679(10) 0.9642(8) 0.8509(6)
H35 H 0.5670 0.9325 0.8690
C41 C 0.6348(10) 0.9867(8) 0.8452(6)
H36 H 0.6804 0.9705 0.8603
C42 C 0.4290(10) 0.9657(7) 0.8397(5)
C43 C 0.3660(9) 0.9966(7) 0.8294(5)
H37 H 0.3641 1.0250 0.8079
C44 C 0.3047(10) 0.9888(8) 0.8486(6)
C45 C 0.2451(10) 1.0314(9) 0.8416(7)
H38 H 0.1940 1.0074 0.8361
H39 H 0.2410 1.0464 0.8099
H40 H 0.2614 1.0682 0.8743
C46 C 0.4649(13) 0.6302(10) 0.8319(9)
H41 H 0.4295 0.5956 0.8026
C47 C 0.4378(12) 0.6864(9) 0.8473(8)
H42 H 0.3852 0.6900 0.8298
C48 C 0.4897(11) 0.7354(8) 0.8881(7)
C49 C 0.5639(10) 0.7282(7) 0.9112(6)
H43 H 0.6009 0.7625 0.9397
C50 C 0.5861(11) 0.6724(8) 0.8940(7)
H44 H 0.6391 0.6689 0.9101
C51 C 0.4600(11) 0.7950(8) 0.9064(7)
C52 C 0.5006(10) 0.8373(7) 0.9571(6)
H45 H 0.5492 0.8293 0.9781
C53 C 0.4744(11) 0.8924(8) 0.9802(6)
C54 C 0.5195(11) 0.9317(8) 1.0382(6)
H46 H 0.5550 0.9683 1.0388
H47 H 0.5500 0.9055 1.0582
H48 H 0.4829 0.9471 1.0553
C55 C 0.0297(10) 0.8599(8) 0.4170(7)
H49 H 0.0774 0.8937 0.4352
H50 H 0.0154 0.8511 0.3771
C56 C -0.0376(10) 0.8848(8) 0.4328(7)
H51 H -0.0538 0.9181 0.4150
H52 H -0.0831 0.8493 0.4190
C57 C -0.0138(10) 0.9129(8) 0.4947(7)
H53 H -0.0528 0.9381 0.5018
H54 H 0.0373 0.9426 0.5091
C58 C 0.1321(6) 0.7702(6) 0.4119(5)
C59 C 0.1940(8) 0.8183(5) 0.4212(4)
H55 H 0.1944 0.8613 0.4390
C60 C 0.2553(7) 0.8034(6) 0.4044(5)
H56 H 0.2976 0.8363 0.4108
C61 C 0.2547(7) 0.7405(6) 0.3783(5)
H57 H 0.2966 0.7304 0.3668
C62 C 0.1928(8) 0.6924(5) 0.3690(6)
H58 H 0.1924 0.6494 0.3511
C63 C 0.1315(7) 0.7073(5) 0.3858(6)
H59 H 0.0892 0.6744 0.3794
C64 C -0.0312(13) 0.7251(11) 0.3929(12)
C65 C -0.0402(18) 0.6719(18) 0.4115(10)
H60 H -0.0047 0.6711 0.4457
C66 C -0.100(3) 0.6216(19) 0.380(2)
H61 H -0.1051 0.5854 0.3930
C67 C -0.153(2) 0.6222(19) 0.3301(19)
H62 H -0.1955 0.5874 0.3082
C68 C -0.141(2) 0.677(2) 0.3138(13)
H63 H -0.1766 0.6776 0.2796
C69 C -0.082(2) 0.7287(15) 0.3427(14)
H64 H -0.0758 0.7646 0.3299
C70 C 0.0182(7) 0.9004(7) 0.6017(4)
C71 C 0.0663(8) 0.9605(7) 0.6228(6)
H65 H 0.0849 0.9786 0.5999
C72 C 0.0871(7) 0.9941(6) 0.6775(6)
H66 H 0.1199 1.0352 0.6919
C73 C 0.0598(8) 0.9675(7) 0.7110(4)
H67 H 0.0740 0.9905 0.7483
C74 C 0.0117(8) 0.9074(7) 0.6899(5)
H68 H -0.0069 0.8893 0.7128
C75 C -0.0091(7) 0.8738(6) 0.6353(6)
H69 H -0.0420 0.8328 0.6208
C76 C -0.1038(10) 0.8081(9) 0.5086(6)
C77 C -0.1176(12) 0.7434(9) 0.4994(7)
H70 H -0.0750 0.7215 0.5033
C78 C -0.1928(12) 0.7090(9) 0.4845(7)
H71 H -0.2013 0.6641 0.4790
C79 C -0.2560(12) 0.7413(10) 0.4777(8)
H72 H -0.3077 0.7179 0.4663
C80 C -0.2438(12) 0.8045(9) 0.4872(7)
H73 H -0.2867 0.8260 0.4835
C81 C -0.1705(11) 0.8383(9) 0.5020(7)
H74 H -0.1632 0.8833 0.5082
C82 C 0.8266(12) 1.2153(8) 0.8677(7)
H75 H 0.7831 1.2266 0.8407
H76 H 0.8442 1.2504 0.9022
C83 C 0.8955(11) 1.2108(9) 0.8468(8)
H77 H 0.9178 1.2541 0.8479
H78 H 0.9371 1.1956 0.8719
C84 C 0.8727(11) 1.1668(8) 0.7896(7)
H79 H 0.9171 1.1727 0.7773
H80 H 0.8278 1.1796 0.7651
C85 C 0.7144(11) 1.1674(8) 0.9049(7)
C86 C 0.6550(11) 1.1917(8) 0.8756(7)
H81 H 0.6540 1.1966 0.8417
C87 C 0.5952(11) 1.2098(8) 0.8941(7)
H82 H 0.5558 1.2287 0.8742
C88 C 0.5955(11) 1.1991(8) 0.9424(7)
H83 H 0.5544 1.2093 0.9548
C89 C 0.6534(11) 1.1745(9) 0.9724(7)
H84 H 0.6528 1.1688 1.0058
C90 C 0.7132(11) 1.1575(9) 0.9552(7)
H85 H 0.7528 1.1397 0.9761
C91 C 0.8647(12) 1.1277(11) 0.9337(8)
C92 C 0.8648(12) 1.0671(10) 0.9374(7)
H86 H 0.8267 1.0326 0.9098
C93 C 0.9210(13) 1.0547(12) 0.9822(8)
H87 H 0.9202 1.0124 0.9848
C94 C 0.9765(14) 1.1042(12) 1.0216(9)
H88 H 1.0143 1.0965 1.0518
C95 C 0.9770(14) 1.1643(12) 1.0173(9)
H89 H 1.0168 1.1984 1.0441
C96 C 0.9197(13) 1.1773(11) 0.9738(8)
H90 H 0.9193 1.2200 0.9724
C97 C 0.8265(11) 1.0453(9) 0.7107(7)
C98 C 0.8500(12) 0.9885(9) 0.6953(8)
H91 H 0.8803 0.9706 0.7218
C99 C 0.8278(12) 0.9579(10) 0.6395(8)
H92 H 0.8419 0.9179 0.6283
C100 C 0.7850(12) 0.9847(10) 0.5992(8)
H93 H 0.7714 0.9632 0.5616
C101 C 0.7641(13) 1.0409(10) 0.6147(8)
H94 H 0.7352 1.0594 0.5882
C102 C 0.7850(12) 1.0722(9) 0.6708(8)
H95 H 0.7708 1.1123 0.6817
C103 C 0.9313(7) 1.0577(7) 0.8205(5)
C104 C 1.0065(9) 1.0932(6) 0.8381(6)
H96 H 1.0143 1.1324 0.8299
C105 C 1.0703(6) 1.0714(7) 0.8676(6)
H97 H 1.1217 1.0956 0.8796
C106 C 1.0589(7) 1.0141(8) 0.8795(5)
H98 H 1.1025 0.9992 0.8997
C107 C 0.9837(9) 0.9786(6) 0.8619(6)
H99 H 0.9759 0.9394 0.8700
C108 C 0.9199(6) 1.0004(7) 0.8324(5)
H100 H 0.8685 0.9762 0.8203
C109 C 0.5659(12) 0.3771(10) 0.8754(8)
H101 H 0.6019 0.3551 0.8975
H102 H 0.5120 0.3524 0.8628
C110 C 0.5870(14) 0.3791(12) 0.8268(9)
H103 H 0.5708 0.3346 0.8027
H104 H 0.6450 0.3883 0.8408
C111 C 0.571(3) 0.4502(14) 0.9138(14)
H105 H 0.6266 0.4728 0.9290
H106 H 0.5566 0.4462 0.9449
C112 C 0.5282(13) 0.5632(8) 0.9413(7)
C113 C 0.5996(11) 0.5907(10) 0.9836(9)
H107 H 0.6444 0.5724 0.9846
C114 C 0.6054(11) 0.6452(10) 1.0246(7)
H108 H 0.6543 0.6640 1.0536
C115 C 0.5399(14) 0.6721(8) 1.0232(8)
H109 H 0.5439 0.7093 1.0512
C116 C 0.4684(11) 0.6445(10) 0.9809(9)
H110 H 0.4236 0.6629 0.9799
C117 C 0.4626(10) 0.5901(9) 0.9399(7)
H111 H 0.4138 0.5712 0.9109
C118 C 0.4133(11) 0.4553(12) 0.8540(10)
C119 C 0.3933(15) 0.4052(13) 0.8727(9)
H112 H 0.4331 0.3892 0.8955
C120 C 0.3150(18) 0.3786(10) 0.8582(11)
H113 H 0.3013 0.3443 0.8710
C121 C 0.2567(11) 0.4020(13) 0.8249(11)
H114 H 0.2032 0.3838 0.8149
C122 C 0.2767(14) 0.4521(14) 0.8061(10)
H115 H 0.2369 0.4681 0.7834
C123 C 0.3550(17) 0.4788(10) 0.8207(10)
H116 H 0.3687 0.5130 0.8079
C124 C 0.6128(14) 0.4227(12) 0.7359(9)
C125 C 0.6899(14) 0.4555(12) 0.7574(7)
H117 H 0.7144 0.4763 0.7954
C126 C 0.7313(11) 0.4578(11) 0.7233(11)
H118 H 0.7840 0.4802 0.7380
C127 C 0.6956(15) 0.4274(12) 0.6676(10)
H119 H 0.7239 0.4290 0.6443
C128 C 0.6185(15) 0.3946(11) 0.6462(7)
H120 H 0.5941 0.3738 0.6081
C129 C 0.5771(11) 0.3922(11) 0.6803(10)
H121 H 0.5244 0.3698 0.6656
C130 C 0.4629(9) 0.3762(11) 0.7394(7)
C131 C 0.4503(11) 0.3105(12) 0.7312(9)
H122 H 0.4903 0.2918 0.7507
C132 C 0.3791(14) 0.2724(8) 0.6947(9)
H123 H 0.3705 0.2276 0.6891
C133 C 0.3206(10) 0.2999(9) 0.6662(7)
H124 H 0.2719 0.2739 0.6412
C134 C 0.3332(10) 0.3655(10) 0.6744(7)
H125 H 0.2932 0.3843 0.6549
C135 C 0.4043(13) 0.4036(7) 0.7109(8)
H126 H 0.4130 0.4485 0.7165
loop_
_geom_bond_atom_site_label_1
_geom_bond_atom_site_label_2
_geom_bond_site_symmetry_1
_geom_bond_site_symmetry_2
Pd1 P1 1_555 1_555
Pd2 P2 1_555 1_555
Pd3 P5 1_555 1_555
Cr1 O1 1_555 1_555
Cr2 O7 1_555 1_555
P1 C55 1_555 1_555
P2 C82 1_555 1_555
P3 Pd2 1_555 1_555
P4 Pd1 1_555 1_555
P5 C110 1_555 1_555
P6 Pd3 1_555 1_555
O1 C6 1_555 1_555
O2 Cr1 1_555 1_555
O3 Cr1 1_555 1_555
O4 Cr1 1_555 1_555
O5 Cr1 1_555 1_555
O6 Cr1 1_555 1_555
O7 C33 1_555 1_555
O8 Cr2 1_555 1_555
O9 Cr2 1_555 1_555
O10 Cr2 1_555 1_555
O11 Cr2 1_555 1_555
O12 Cr2 1_555 1_555
N1 Pd1 1_555 1_555
N2 Pd2 1_555 1_555
N3 Pd3 1_555 1_555
N4 Pd1 1_555 1_555
N5 Pd2 1_555 1_555
N6 Pd3 1_555 1_555
C1 N1 1_555 1_555
H1 C1 1_555 1_555
C2 C1 1_555 1_555
H2 C2 1_555 1_555
C3 C2 1_555 1_555
C4 C3 1_555 1_555
H3 C4 1_555 1_555
C5 N1 1_555 1_555
H4 C5 1_555 1_555
C6 C3 1_555 1_555
C7 C6 1_555 1_555
H5 C7 1_555 1_555
C8 O2 1_555 1_555
C9 C8 1_555 1_555
H6 C9 1_555 1_555
H7 C9 1_555 1_555
H8 C9 1_555 1_555
C10 N2 1_555 1_555
H9 C10 1_555 1_555
C11 C10 1_555 1_555
H10 C11 1_555 1_555
C12 C11 1_555 1_555
C13 C12 1_555 1_555
H11 C13 1_555 1_555
C14 N2 1_555 1_555
H12 C14 1_555 1_555
C15 O3 1_555 1_555
C16 C15 1_555 1_555
H13 C16 1_555 1_555
C17 O4 1_555 1_555
C18 C17 1_555 1_555
H14 C18 1_555 1_555
H15 C18 1_555 1_555
H16 C18 1_555 1_555
C19 N3 1_555 1_555
H17 C19 1_555 1_555
C20 C19 1_555 1_555
H18 C20 1_555 1_555
C21 C20 1_555 1_555
C22 C21 1_555 1_555
H19 C22 1_555 1_555
C23 N3 1_555 1_555
H20 C23 1_555 1_555
C24 O5 1_555 1_555
C25 C24 1_555 1_555
H21 C25 1_555 1_555
C26 O6 1_555 1_555
C27 C26 1_555 1_555
H22 C27 1_555 1_555
H23 C27 1_555 1_555
H24 C27 1_555 1_555
C28 N4 1_555 1_555
H25 C28 1_555 1_555
C29 C28 1_555 1_555
H26 C29 1_555 1_555
C30 C29 1_555 1_555
C31 C30 1_555 1_555
H27 C31 1_555 1_555
C32 N4 1_555 1_555
H28 C32 1_555 1_555
C33 C30 1_555 1_555
C34 C33 1_555 1_555
H29 C34 1_555 1_555
C35 O8 1_555 1_555
C36 C35 1_555 1_555
H30 C36 1_555 1_555
H31 C36 1_555 1_555
H32 C36 1_555 1_555
C37 N5 1_555 1_555
H33 C37 1_555 1_555
C38 C37 1_555 1_555
H34 C38 1_555 1_555
C39 C38 1_555 1_555
C40 C39 1_555 1_555
H35 C40 1_555 1_555
C41 N5 1_555 1_555
H36 C41 1_555 1_555
C42 O9 1_555 1_555
C43 C42 1_555 1_555
H37 C43 1_555 1_555
C44 O10 1_555 1_555
C45 C44 1_555 1_555
H38 C45 1_555 1_555
H39 C45 1_555 1_555
H40 C45 1_555 1_555
C46 N6 1_555 1_555
H41 C46 1_555 1_555
C47 C46 1_555 1_555
H42 C47 1_555 1_555
C48 C47 1_555 1_555
C49 C48 1_555 1_555
H43 C49 1_555 1_555
C50 N6 1_555 1_555
H44 C50 1_555 1_555
C51 O11 1_555 1_555
C52 C51 1_555 1_555
H45 C52 1_555 1_555
C53 O12 1_555 1_555
C54 C53 1_555 1_555
H46 C54 1_555 1_555
H47 C54 1_555 1_555
H48 C54 1_555 1_555
C55 H49 1_555 1_555
H50 C55 1_555 1_555
C56 C55 1_555 1_555
H51 C56 1_555 1_555
H52 C56 1_555 1_555
C57 P4 1_555 1_555
H53 C57 1_555 1_555
H54 C57 1_555 1_555
C58 P1 1_555 1_555
C59 C58 1_555 1_555
H55 C59 1_555 1_555
C60 C59 1_555 1_555
H56 C60 1_555 1_555
C61 C60 1_555 1_555
H57 C61 1_555 1_555
C62 C61 1_555 1_555
H58 C62 1_555 1_555
C63 C58 1_555 1_555
H59 C63 1_555 1_555
C64 P1 1_555 1_555
C65 C64 1_555 1_555
H60 C65 1_555 1_555
C66 C65 1_555 1_555
H61 C66 1_555 1_555
C67 C66 1_555 1_555
H62 C67 1_555 1_555
C68 C67 1_555 1_555
H63 C68 1_555 1_555
C69 C64 1_555 1_555
H64 C69 1_555 1_555
C70 P4 1_555 1_555
C71 C70 1_555 1_555
H65 C71 1_555 1_555
C72 C71 1_555 1_555
H66 C72 1_555 1_555
C73 C72 1_555 1_555
H67 C73 1_555 1_555
C74 C73 1_555 1_555
H68 C74 1_555 1_555
C75 C70 1_555 1_555
H69 C75 1_555 1_555
C76 P4 1_555 1_555
C77 C76 1_555 1_555
H70 C77 1_555 1_555
C78 C77 1_555 1_555
H71 C78 1_555 1_555
C79 C78 1_555 1_555
H72 C79 1_555 1_555
C80 C79 1_555 1_555
H73 C80 1_555 1_555
C81 C76 1_555 1_555
H74 C81 1_555 1_555
C82 H75 1_555 1_555
H76 C82 1_555 1_555
C83 C82 1_555 1_555
H77 C83 1_555 1_555
H78 C83 1_555 1_555
C84 P3 1_555 1_555
H79 C84 1_555 1_555
H80 C84 1_555 1_555
C85 P2 1_555 1_555
C86 C85 1_555 1_555
H81 C86 1_555 1_555
C87 C86 1_555 1_555
H82 C87 1_555 1_555
C88 C87 1_555 1_555
H83 C88 1_555 1_555
C89 C88 1_555 1_555
H84 C89 1_555 1_555
C90 C85 1_555 1_555
H85 C90 1_555 1_555
C91 P2 1_555 1_555
C92 C91 1_555 1_555
H86 C92 1_555 1_555
C93 C92 1_555 1_555
H87 C93 1_555 1_555
C94 C93 1_555 1_555
H88 C94 1_555 1_555
C95 C94 1_555 1_555
H89 C95 1_555 1_555
C96 C91 1_555 1_555
H90 C96 1_555 1_555
C97 P3 1_555 1_555
C98 C97 1_555 1_555
H91 C98 1_555 1_555
C99 C98 1_555 1_555
H92 C99 1_555 1_555
C100 C99 1_555 1_555
H93 C100 1_555 1_555
C101 C100 1_555 1_555
H94 C101 1_555 1_555
C102 C97 1_555 1_555
H95 C102 1_555 1_555
C103 P3 1_555 1_555
C104 C103 1_555 1_555
H96 C104 1_555 1_555
C105 C104 1_555 1_555
H97 C105 1_555 1_555
C106 C105 1_555 1_555
H98 C106 1_555 1_555
C107 C106 1_555 1_555
H99 C107 1_555 1_555
C108 C103 1_555 1_555
H100 C108 1_555 1_555
C109 H101 1_555 1_555
H102 C109 1_555 1_555
C110 C109 1_555 1_555
H103 C110 1_555 1_555
H104 C110 1_555 1_555
C111 P6 1_555 1_555
H105 C111 1_555 1_555
H106 C111 1_555 1_555
C112 P6 1_555 1_555
C113 C112 1_555 1_555
H107 C113 1_555 1_555
C114 C113 1_555 1_555
H108 C114 1_555 1_555
C115 C114 1_555 1_555
H109 C115 1_555 1_555
C116 C115 1_555 1_555
H110 C116 1_555 1_555
C117 C112 1_555 1_555
H111 C117 1_555 1_555
C118 P6 1_555 1_555
C119 C118 1_555 1_555
H112 C119 1_555 1_555
C120 C119 1_555 1_555
H113 C120 1_555 1_555
C121 C120 1_555 1_555
H114 C121 1_555 1_555
C122 C121 1_555 1_555
H115 C122 1_555 1_555
C123 C118 1_555 1_555
H116 C123 1_555 1_555
C124 P5 1_555 1_555
C125 C124 1_555 1_555
H117 C125 1_555 1_555
C126 C125 1_555 1_555
H118 C126 1_555 1_555
C127 C126 1_555 1_555
H119 C127 1_555 1_555
C128 C127 1_555 1_555
H120 C128 1_555 1_555
C129 C124 1_555 1_555
H121 C129 1_555 1_555
C130 P5 1_555 1_555
C131 C130 1_555 1_555
H122 C131 1_555 1_555
C132 C131 1_555 1_555
H123 C132 1_555 1_555
C133 C132 1_555 1_555
H124 C133 1_555 1_555
C134 C133 1_555 1_555
H125 C134 1_555 1_555
C135 C130 1_555 1_555
H126 C135 1_555 1_555
S1 O13 1_555 1_555
F1 C161 1_555 1_555
F2 C161 1_555 1_555
F3 C161 1_555 1_555
O14 S1 1_555 1_555
O15 S1 1_555 1_555
C161 S1 1_555 1_555
S2 O16 1_555 1_555
F4 C162 1_555 1_555
F5 C162 1_555 1_555
F6 C162 1_555 1_555
O17 S2 1_555 1_555
O18 S2 1_555 1_555
C162 S2 1_555 1_555
C4 C5 1_555 1_555
C7 C8 1_555 1_555
C12 C15 1_555 1_555
C13 C14 1_555 1_555
C16 C17 1_555 1_555
C21 C24 1_555 1_555
C22 C23 1_555 1_555
C25 C26 1_555 1_555
C31 C32 1_555 1_555
C34 C35 1_555 1_555
C39 C42 1_555 1_555
C40 C41 1_555 1_555
C43 C44 1_555 1_555
C48 C51 1_555 1_555
C49 C50 1_555 1_555
C52 C53 1_555 1_555
C56 C57 1_555 1_555
C62 C63 1_555 1_555
C68 C69 1_555 1_555
C74 C75 1_555 1_555
C80 C81 1_555 1_555
C83 C84 1_555 1_555
C89 C90 1_555 1_555
C95 C96 1_555 1_555
C101 C102 1_555 1_555
C107 C108 1_555 1_555
C109 C111 1_555 1_555
C116 C117 1_555 1_555
C122 C123 1_555 1_555
C128 C129 1_555 1_555
C134 C135 1_555 1_555

#END
