
#######################################################################
#
#                 Cambridge Crystallographic Data Centre
#                                CCDC 
#
#######################################################################
#
# If this CIF has been generated from an entry in the Cambridge 
# Structural Database, then it will include bibliographic, chemical, 
# crystal, experimental, refinement or atomic coordinate data resulting 
# from the CCDC's data processing and validation procedures.
#
#######################################################################

data_JASZIP
_chemical_formula_moiety         'C54 H48 Br6 Fe2 N6 O12 Zn3,2(C1 H3 N1 O2)'
_chemical_name_systematic        
'hexakis(\m-1-(4-pyridyl)-1,3-butanedionato)-hexabromo-di-iron(iii)-tri-zinc(ii) nitromethane solvate'
_symmetry_cell_setting           trigonal
_symmetry_space_group_name_H-M   'P 32 2 1'
_symmetry_Int_Tables_number      154
_space_group_name_Hall           'P 32 2"'
loop_
_symmetry_equiv_pos_site_id
_symmetry_equiv_pos_as_xyz
1 x,y,z
2 -y,x-y,2/3+z
3 -x+y,-x,1/3+z
4 x-y,-y,1/3-z
5 -x,-x+y,2/3-z
6 y,x,-z
_cell_length_a                   12.8153(16)
_cell_length_b                   12.8153(16)
_cell_length_c                   38.817(5)
_cell_angle_alpha                90
_cell_angle_beta                 90
_cell_angle_gamma                120
_cell_volume                     5520.9
_exptl_crystal_colour            'dark red'
_exptl_crystal_description       Prism
_cell_formula_units_Z            3
loop_
_atom_site_label
_atom_site_type_symbol
_atom_site_fract_x
_atom_site_fract_y
_atom_site_fract_z
C1 C 0.3136(7) 0.5715(7) 0.24508(19)
H1 H 0.2858 0.6272 0.2478
C2 C 0.3809(7) 0.5587(7) 0.27183(18)
H2 H 0.3973 0.6047 0.2924
C3 C 0.4224(6) 0.4793(6) 0.26787(17)
C4 C 0.4024(7) 0.4188(6) 0.23650(18)
H3 H 0.4361 0.3687 0.2323
C5 C 0.3333(7) 0.4323(7) 0.21166(18)
H4 H 0.3170 0.3876 0.1909
C6 C 0.4832(7) 0.4558(6) 0.29777(18)
C7 C 0.5689(7) 0.4217(7) 0.29194(18)
H5 H 0.5883 0.4139 0.2688
C8 C 0.6283(6) 0.3983(6) 0.31870(18)
C9 C 0.7166(7) 0.3579(7) 0.31010(19)
H6 H 0.7797 0.3871 0.3277
H7 H 0.7531 0.3904 0.2876
H8 H 0.6747 0.2697 0.3093
C10 C 0.1987(6) -0.1139(7) 0.33057(19)
H9 H 0.2124 -0.1340 0.3081
C11 C 0.2650(7) 0.0065(7) 0.34160(19)
H10 H 0.3229 0.0668 0.3268
C12 C 0.2445(6) 0.0362(7) 0.37465(19)
C13 C 0.1560(7) -0.0546(7) 0.39425(19)
H11 H 0.1370 -0.0370 0.4164
C14 C 0.0955(7) -0.1699(7) 0.38193(19)
H12 H 0.0355 -0.2313 0.3960
C15 C 0.3230(6) 0.1593(6) 0.38766(18)
C16 C 0.3444(7) 0.1743(7) 0.42252(19)
H13 H 0.2930 0.1107 0.4376
C17 C 0.4415(7) 0.2825(7) 0.43711(19)
C18 C 0.4638(8) 0.2863(8) 0.47540(19)
H14 H 0.5508 0.3277 0.4798
H15 H 0.4264 0.2039 0.4844
H16 H 0.4288 0.3297 0.4869
C19 C 0.3436(6) 0.4922(6) 0.41851(17)
C20 C 0.4494(7) 0.5892(7) 0.43185(18)
H17 H 0.4437 0.6283 0.4520
C21 C 0.5631(7) 0.6313(7) 0.41688(19)
C22 C 0.6726(8) 0.7371(9) 0.4328(2)
H18 H 0.6483 0.7644 0.4533
H19 H 0.7310 0.7125 0.4394
H20 H 0.7095 0.8031 0.4161
Br1 Br 0.05835(8) -0.43516(8) 0.28370(2)
Br2 Br 0.18710(7) 0.70000(8) 0.17658(2)
Br3 Br 0.15770(8) 0.39648(9) 0.13259(2)
Fe1 Fe 0.47836(9) 0.41955(9) 0.37315(2)
Zn1 Zn 0.16338(8) 0.50624(8) 0.18221(2)
Zn2 Zn 0.0000 -0.37291(9) 0.3333
N1 N 0.2875(5) 0.5068(6) 0.21567(15)
N2 N 0.1179(6) -0.2000(6) 0.35043(15)
O1 O 0.4474(5) 0.4696(5) 0.32745(12)
O2 O 0.6118(4) 0.4077(4) 0.35058(12)
O3 O 0.3727(5) 0.2442(5) 0.36464(12)
O4 O 0.5112(4) 0.3757(4) 0.42010(12)
O5 O 0.3380(4) 0.4268(4) 0.39295(11)
O6 O 0.5821(5) 0.5873(4) 0.39010(12)
C23 C 0.2243(6) 0.4590(7) 0.43407(17)
C24 C 0.1991(7) 0.5447(7) 0.44726(17)
H21 H 0.2596 0.6273 0.4476
C25 C 0.1350(7) 0.3395(7) 0.43468(19)
H22 H 0.1484 0.2788 0.4253
C26 C 0.0848(6) 0.5086(7) 0.45994(17)
H23 H 0.0668 0.5680 0.4678
C27 C 0.0233(7) 0.3098(7) 0.4496(2)
H24 H -0.0372 0.2274 0.4513
N3 N -0.0003(5) 0.3927(6) 0.46139(15)
C1D C -0.3136(7) 0.2579(10) 0.42159(19)
H1D H -0.2858 0.3414 0.4189
C2D C -0.3809(7) 0.1778(10) 0.39484(18)
H2D H -0.3973 0.2074 0.3743
C3D C -0.4224(6) 0.0569(8) 0.39880(17)
C4D C -0.4024(7) 0.0164(9) 0.43017(18)
H3D H -0.4361 -0.0674 0.4344
C5D C -0.3333(7) 0.0990(10) 0.45501(18)
H4D H -0.3170 0.0706 0.4758
C6D C -0.4832(7) -0.0274(9) 0.36890(18)
C7D C -0.5689(7) -0.1472(10) 0.37473(18)
H5D H -0.5883 -0.1744 0.3979
C8D C -0.6283(6) -0.2300(8) 0.34797(18)
C9D C -0.7166(7) -0.3587(10) 0.35657(19)
H6D H -0.7797 -0.3926 0.3390
H7D H -0.7531 -0.3627 0.3791
H8D H -0.6747 -0.4050 0.3574
C10D C -0.1987(6) -0.3126(9) 0.33610(19)
H9D H -0.2124 -0.3464 0.3586
C11D C -0.2650(7) -0.2585(10) 0.32507(19)
H10D H -0.3229 -0.2561 0.3399
C12D C -0.2445(6) -0.2083(9) 0.29202(19)
C13D C -0.1560(7) -0.2106(10) 0.27242(19)
H11D H -0.1370 -0.1740 0.2503
C14D C -0.0955(7) -0.2654(10) 0.28474(19)
H12D H -0.0355 -0.2668 0.2707
C15D C -0.3230(6) -0.1637(8) 0.27901(18)
C16D C -0.3444(7) -0.1701(10) 0.24415(19)
H13D H -0.2930 -0.1823 0.2291
C17D C -0.4415(7) -0.1590(10) 0.22956(19)
C18D C -0.4638(8) -0.1775(11) 0.19127(19)
H14D H -0.5508 -0.2231 0.1869
H15D H -0.4264 -0.2225 0.1823
H16D H -0.4288 -0.0991 0.1798
C19D C -0.3436(6) 0.1486(8) 0.24816(17)
C20D C -0.4494(7) 0.1398(10) 0.23482(18)
H17D H -0.4437 0.1846 0.2147
C21D C -0.5631(7) 0.0682(10) 0.24979(19)
C22D C -0.6726(8) 0.0645(12) 0.2339(2)
H18D H -0.6483 0.1161 0.2134
H19D H -0.7310 -0.0185 0.2273
H20D H -0.7095 0.0936 0.2506
Br1D Br -0.05835(8) -0.49351(11) 0.38297(2)
Br2D Br -0.18710(7) 0.51290(11) 0.49009(2)
Br3D Br -0.15770(8) 0.23878(12) 0.53408(2)
Fe1D Fe -0.47836(9) -0.05881(13) 0.29352(2)
Zn1D Zn -0.16338(8) 0.34286(11) 0.48446(2)
N1D N -0.2875(5) 0.2193(8) 0.45100(15)
N2D N -0.1179(6) -0.3179(8) 0.31624(15)
O1D O -0.4474(5) 0.0222(7) 0.33922(12)
O2D O -0.6118(4) -0.2041(6) 0.31609(12)
O3D O -0.3727(5) -0.1285(7) 0.30203(12)
O4D O -0.5112(4) -0.1355(6) 0.24657(12)
O5D O -0.3380(4) 0.0888(6) 0.27372(11)
O6D O -0.5821(5) 0.0052(6) 0.27657(12)
C23D C -0.2243(6) 0.2347(9) 0.23260(17)
C24D C -0.1991(7) 0.3456(10) 0.21941(17)
H21D H -0.2596 0.3677 0.2191
C25D C -0.1350(7) 0.2045(10) 0.23199(19)
H22D H -0.1484 0.1304 0.2414
C26D C -0.0848(6) 0.4238(9) 0.20673(17)
H23D H -0.0668 0.5012 0.1989
C27D C -0.0233(7) 0.2865(10) 0.2171(2)
H24D H 0.0372 0.2646 0.2154
N3D N 0.0003(5) 0.3930(8) 0.20528(15)
N4 N 0.1277(15) 0.2162(15) 0.2960(3)
C28 C 0.145(3) 0.313(2) 0.3199(6)
O7 O 0.0301(15) 0.1424(18) 0.2838(5)
O8 O 0.2132(11) 0.2079(17) 0.2879(5)
loop_
_geom_bond_atom_site_label_1
_geom_bond_atom_site_label_2
_geom_bond_site_symmetry_1
_geom_bond_site_symmetry_2
C1 H1 1_555 1_555
C2 C1 1_555 1_555
H2 C2 1_555 1_555
C3 C2 1_555 1_555
C4 C3 1_555 1_555
H3 C4 1_555 1_555
C5 C4 1_555 1_555
H4 C5 1_555 1_555
C6 C3 1_555 1_555
C7 C6 1_555 1_555
H5 C7 1_555 1_555
C8 C7 1_555 1_555
C9 C8 1_555 1_555
H6 C9 1_555 1_555
H7 C9 1_555 1_555
H8 C9 1_555 1_555
C10 H9 1_555 1_555
C11 C10 1_555 1_555
H10 C11 1_555 1_555
C12 C11 1_555 1_555
C13 C12 1_555 1_555
H11 C13 1_555 1_555
C14 C13 1_555 1_555
H12 C14 1_555 1_555
C15 C12 1_555 1_555
C16 C15 1_555 1_555
H13 C16 1_555 1_555
C17 C16 1_555 1_555
C18 C17 1_555 1_555
H14 C18 1_555 1_555
H15 C18 1_555 1_555
H16 C18 1_555 1_555
C19 C20 1_555 1_555
C20 H17 1_555 1_555
C21 C20 1_555 1_555
C22 C21 1_555 1_555
H18 C22 1_555 1_555
H19 C22 1_555 1_555
H20 C22 1_555 1_555
Br1 Zn2 1_555 1_555
Br2 Zn1 1_555 1_555
Br3 Zn1 1_555 1_555
Fe1 O1 1_555 1_555
Zn1 N1 1_555 1_555
Zn2 N2 1_555 1_555
N1 C1 1_555 1_555
N2 C10 1_555 1_555
O1 C6 1_555 1_555
O2 C8 1_555 1_555
O3 C15 1_555 1_555
O4 C17 1_555 1_555
O5 C19 1_555 1_555
O6 C21 1_555 1_555
C23 C19 1_555 1_555
C24 C23 1_555 1_555
H21 C24 1_555 1_555
C25 C23 1_555 1_555
H22 C25 1_555 1_555
C26 C24 1_555 1_555
H23 C26 1_555 1_555
C27 C25 1_555 1_555
H24 C27 1_555 1_555
N3 C26 1_555 1_555
N4 C28 1_555 1_555
O7 N4 1_555 1_555
O8 N4 1_555 1_555
C1D H1D 1_555 1_555
C2D C1D 1_555 1_555
H2D C2D 1_555 1_555
C3D C2D 1_555 1_555
C4D C3D 1_555 1_555
H3D C4D 1_555 1_555
C5D C4D 1_555 1_555
H4D C5D 1_555 1_555
C6D C3D 1_555 1_555
C7D C6D 1_555 1_555
H5D C7D 1_555 1_555
C8D C7D 1_555 1_555
C9D C8D 1_555 1_555
H6D C9D 1_555 1_555
H7D C9D 1_555 1_555
H8D C9D 1_555 1_555
C10D H9D 1_555 1_555
C11D C10D 1_555 1_555
H10D C11D 1_555 1_555
C12D C11D 1_555 1_555
C13D C12D 1_555 1_555
H11D C13D 1_555 1_555
C14D C13D 1_555 1_555
H12D C14D 1_555 1_555
C15D C12D 1_555 1_555
C16D C15D 1_555 1_555
H13D C16D 1_555 1_555
C17D C16D 1_555 1_555
C18D C17D 1_555 1_555
H14D C18D 1_555 1_555
H15D C18D 1_555 1_555
H16D C18D 1_555 1_555
C19D C20D 1_555 1_555
C20D H17D 1_555 1_555
C21D C20D 1_555 1_555
C22D C21D 1_555 1_555
H18D C22D 1_555 1_555
H19D C22D 1_555 1_555
H20D C22D 1_555 1_555
Br1D Zn2 1_555 1_555
Br2D Zn1D 1_555 1_555
Br3D Zn1D 1_555 1_555
Fe1D O1D 1_555 1_555
Zn1D N3 1_555 1_555
N1D C1D 1_555 1_555
N2D Zn2 1_555 1_555
O1D C6D 1_555 1_555
O2D C8D 1_555 1_555
O3D C15D 1_555 1_555
O4D C17D 1_555 1_555
O5D C19D 1_555 1_555
O6D C21D 1_555 1_555
C23D C19D 1_555 1_555
C24D C23D 1_555 1_555
H21D C24D 1_555 1_555
C25D C23D 1_555 1_555
H22D C25D 1_555 1_555
C26D C24D 1_555 1_555
H23D C26D 1_555 1_555
C27D C25D 1_555 1_555
H24D C27D 1_555 1_555
N3D Zn1 1_555 1_555
C5 N1 1_555 1_555
C14 N2 1_555 1_555
Fe1 O2 1_555 1_555
Fe1 O3 1_555 1_555
Fe1 O4 1_555 1_555
Fe1 O5 1_555 1_555
Fe1 O6 1_555 1_555
C27 N3 1_555 1_555
C5D N1D 1_555 1_555
C10D N2D 1_555 1_555
C14D N2D 1_555 1_555
Fe1D O2D 1_555 1_555
Fe1D O3D 1_555 1_555
Fe1D O4D 1_555 1_555
Fe1D O5D 1_555 1_555
Fe1D O6D 1_555 1_555
Zn1D N1D 1_555 1_555
C26D N3D 1_555 1_555
C27D N3D 1_555 1_555

#END
