
#######################################################################
#
#                 Cambridge Crystallographic Data Centre
#                                CCDC 
#
#######################################################################
#
# If this CIF has been generated from an entry in the Cambridge 
# Structural Database, then it will include bibliographic, chemical, 
# crystal, experimental, refinement or atomic coordinate data resulting 
# from the CCDC's data processing and validation procedures.
#
#######################################################################

data_JASZOV
_chemical_formula_moiety         'C54 H48 Br6 Cr2 N6 O12 Zn3,2(C1 H4 O1)'
_chemical_name_systematic        
'hexakis(\m-1-(4-pyridyl)-1,3-butanedionato)-hexabromo-di-chromium(iii)-tri-zinc(ii) methanol solvate'
_symmetry_cell_setting           trigonal
_symmetry_space_group_name_H-M   'P 32 2 1'
_symmetry_Int_Tables_number      154
_space_group_name_Hall           'P 32 2"'
loop_
_symmetry_equiv_pos_site_id
_symmetry_equiv_pos_as_xyz
1 x,y,z
2 -y,x-y,2/3+z
3 -x+y,-x,1/3+z
4 x-y,-y,1/3-z
5 -x,-x+y,2/3-z
6 y,x,-z
_cell_length_a                   13.2429(10)
_cell_length_b                   13.2429(10)
_cell_length_c                   38.380(3)
_cell_angle_alpha                90
_cell_angle_beta                 90
_cell_angle_gamma                120
_cell_volume                     5829.1
_exptl_crystal_colour            'dark red'
_exptl_crystal_description       Prism
_cell_formula_units_Z            3
loop_
_atom_site_label
_atom_site_type_symbol
_atom_site_fract_x
_atom_site_fract_y
_atom_site_fract_z
C1 C 0.9660(9) 0.6755(10) 0.4535(3)
H1 H 1.0196 0.7555 0.4579
C2 C 0.8598(8) 0.6463(8) 0.4377(3)
H2 H 0.8444 0.7051 0.4297
C3 C 0.7776(6) 0.5291(7) 0.43392(17)
C4 C 0.8077(7) 0.4477(7) 0.44493(17)
H3 H 0.7531 0.3667 0.4430
C5 C 0.9163(7) 0.4845(9) 0.45858(19)
H4 H 0.9363 0.4277 0.4654
C6 C 0.6629(6) 0.4960(6) 0.41713(15)
C7 C 0.5655(7) 0.3884(7) 0.4250(2)
H5 H 0.5722 0.3418 0.4426
C8 C 0.4574(7) 0.3458(7) 0.4078(2)
C9 C 0.3633(10) 0.2238(9) 0.4144(3)
H6 H 0.3746 0.1987 0.4374
H7 H 0.3658 0.1724 0.3964
H8 H 0.2874 0.2198 0.4137
C10 C 0.7972(7) 1.0830(7) 0.3305(2)
H9 H 0.7868 1.1035 0.3076
C11 C 0.7251(7) 0.9686(7) 0.34162(19)
H10 H 0.6679 0.9125 0.3264
C12 C 0.7379(6) 0.9382(7) 0.3749(2)
C13 C 0.8240(10) 1.0240(8) 0.3961(2)
H11 H 0.8348 1.0061 0.4193
C14 C 0.8930(9) 1.1352(8) 0.3830(2)
H12 H 0.9520 1.1930 0.3974
C15 C 0.6582(6) 0.8164(6) 0.38800(18)
C16 C 0.6247(8) 0.8013(7) 0.4223(2)
H13 H 0.6618 0.8671 0.4373
C17 C 0.5398(6) 0.6958(7) 0.43682(18)
C18 C 0.5063(8) 0.6927(8) 0.4744(2)
H14 H 0.5411 0.6559 0.4884
H15 H 0.4212 0.6476 0.4766
H16 H 0.5347 0.7724 0.4827
C19 C 0.5336(6) 0.5317(6) 0.29971(17)
C20 C 0.4435(7) 0.5535(8) 0.29314(18)
H17 H 0.4227 0.5560 0.2696
C21 C 0.3808(6) 0.5722(6) 0.31988(18)
C22 C 0.2828(7) 0.5941(9) 0.3092(2)
H18 H 0.2560 0.5632 0.2858
H19 H 0.3114 0.6782 0.3094
H20 H 0.2180 0.5551 0.3257
N1 N 0.9959(6) 0.5986(8) 0.46273(19)
N2 N 0.8789(6) 1.1639(5) 0.35014(16)
O1 O 0.6663(4) 0.5715(4) 0.39594(12)
O2 O 0.5748(4) 0.5291(4) 0.32938(11)
O3 O 0.4334(4) 0.4008(4) 0.38599(12)
O4 O 0.6265(4) 0.7362(4) 0.36457(12)
O5 O 0.4889(4) 0.6009(5) 0.42026(12)
O6 O 0.3992(4) 0.5725(4) 0.35155(12)
Cr1 Cr 0.53124(9) 0.56860(9) 0.37419(3)
Br1 Br 1.17313(9) 0.48662(13) 0.49578(3)
Br2 Br 1.15423(10) 0.75795(17) 0.53559(3)
Br3 Br 1.05904(8) 1.44427(8) 0.38385(2)
Zn1 Zn 1.15343(9) 0.65131(13) 0.48666(3)
Zn2 Zn 1.0000 1.32894(9) 0.3333
C23 C 0.5954(6) 0.5124(7) 0.26964(16)
C24 C 0.6049(9) 0.5615(9) 0.2370(2)
H21 H 0.5637 0.6015 0.2321
C25 C 0.6475(8) 0.4444(9) 0.2739(2)
H22 H 0.6389 0.4052 0.2954
C26 C 0.7121(9) 0.4331(11) 0.2471(2)
H23 H 0.7451 0.3844 0.2502
C27 C 0.6732(9) 0.5528(9) 0.21162(19)
H24 H 0.6816 0.5912 0.1900
N3 N 0.7286(6) 0.4923(8) 0.21613(17)
C1D C 1.0340(9) 0.7095(13) 0.2132(3)
H1D H 0.9804 0.7359 0.2088
C2D C 1.1402(8) 0.7865(11) 0.2290(3)
H2D H 1.1556 0.8607 0.2370
C3D C 1.2224(6) 0.7515(9) 0.23275(17)
C4D C 1.1923(7) 0.6400(10) 0.22174(17)
H3D H 1.2469 0.6136 0.2237
C5D C 1.0837(7) 0.5682(11) 0.20809(19)
H4D H 1.0637 0.4914 0.2013
C6D C 1.3371(6) 0.8331(8) 0.24954(15)
C7D C 1.4345(7) 0.8229(10) 0.2417(2)
H5D H 1.4278 0.7696 0.2241
C8D C 1.5426(7) 0.8884(10) 0.2589(2)
C9D C 1.6367(10) 0.8605(13) 0.2523(3)
H6D H 1.6254 0.8241 0.2293
H7D H 1.6342 0.8066 0.2703
H8D H 1.7126 0.9324 0.2530
C10D C 1.2028(7) 1.2858(10) 0.3362(2)
H9D H 1.2132 1.3167 0.3591
C11D C 1.2749(7) 1.2435(10) 0.32505(19)
H10D H 1.3321 1.2446 0.3403
C12D C 1.2621(6) 1.2003(9) 0.2918(2)
C13D C 1.1760(10) 1.2000(13) 0.2706(2)
H11D H 1.1652 1.1713 0.2474
C14D C 1.1070(9) 1.2422(12) 0.2837(2)
H12D H 1.0480 1.2410 0.2693
C15D C 1.3418(6) 1.1582(8) 0.27867(18)
C16D C 1.3753(8) 1.1766(11) 0.2444(2)
H13D H 1.3382 1.2053 0.2294
C17D C 1.4602(6) 1.1560(9) 0.22985(18)
C18D C 1.4937(8) 1.1864(11) 0.1923(2)
H14D H 1.4589 1.1148 0.1783
H15D H 1.5788 1.2264 0.1901
H16D H 1.4653 1.2377 0.1840
C19D C 1.4664(6) 0.9981(8) 0.36696(17)
C20D C 1.5565(7) 1.1100(11) 0.37353(18)
H17D H 1.5773 1.1333 0.3971
C21D C 1.6192(6) 1.1914(8) 0.34679(18)
C22D C 1.7172(7) 1.3113(11) 0.3575(2)
H18D H 1.7440 1.3072 0.3809
H19D H 1.6886 1.3668 0.3573
H20D H 1.7820 1.3371 0.3410
N1D N 1.0041(6) 0.6027(10) 0.20394(19)
N2D N 1.1211(6) 1.2850(8) 0.31653(16)
O1D O 1.3337(4) 0.9052(6) 0.27073(12)
O2D O 1.4252(4) 0.9543(6) 0.33729(11)
O3D O 1.5666(4) 0.9674(6) 0.28068(12)
O4D O 1.3735(4) 1.1097(6) 0.30210(12)
O5D O 1.5111(4) 1.1120(6) 0.24641(12)
O6D O 1.6008(4) 1.1733(6) 0.31512(12)
Cr1D Cr 1.46876(9) 1.03736(13) 0.29248(3)
Br1D Br 0.82687(9) 0.31349(16) 0.17089(3)
Br2D Br 0.84577(10) 0.60372(20) 0.13108(3)
Br3D Br 0.94096(8) 1.38523(11) 0.28282(2)
Zn1D Zn 0.84657(9) 0.49788(16) 0.18001(3)
C23D C 1.4046(6) 0.9170(9) 0.39703(16)
C24D C 1.3951(9) 0.9566(13) 0.4297(2)
H21D H 1.4363 1.0378 0.4346
C25D C 1.3525(8) 0.7969(12) 0.3928(2)
H22D H 1.3611 0.7663 0.3713
C26D C 1.2879(9) 0.7210(14) 0.4196(2)
H23D H 1.2549 0.6393 0.4165
C27D C 1.3268(9) 0.8796(13) 0.45505(19)
H24D H 1.3184 0.9096 0.4767
N3D N 1.2714(6) 0.7637(10) 0.45054(17)
O7 O 1.092(4) 0.719(4) 0.3277(10)
C28 C 1.079(5) 0.802(5) 0.3492(13)
O8 O 1.002(5) 0.915(5) 0.3864(15)
C29 C 1.044(7) 0.956(7) 0.4218(17)
loop_
_geom_bond_atom_site_label_1
_geom_bond_atom_site_label_2
_geom_bond_site_symmetry_1
_geom_bond_site_symmetry_2
C1 H1 1_555 1_555
C2 C1 1_555 1_555
H2 C2 1_555 1_555
C3 C2 1_555 1_555
C4 C3 1_555 1_555
H3 C4 1_555 1_555
C5 C4 1_555 1_555
H4 C5 1_555 1_555
C6 C3 1_555 1_555
C7 C6 1_555 1_555
H5 C7 1_555 1_555
C8 C7 1_555 1_555
C9 C8 1_555 1_555
H6 C9 1_555 1_555
H7 C9 1_555 1_555
H8 C9 1_555 1_555
C10 H9 1_555 1_555
C11 C10 1_555 1_555
H10 C11 1_555 1_555
C12 C11 1_555 1_555
C13 C12 1_555 1_555
H11 C13 1_555 1_555
C14 C13 1_555 1_555
H12 C14 1_555 1_555
C15 C12 1_555 1_555
C16 C15 1_555 1_555
H13 C16 1_555 1_555
C17 C16 1_555 1_555
C18 C17 1_555 1_555
H14 C18 1_555 1_555
H15 C18 1_555 1_555
H16 C18 1_555 1_555
C19 C20 1_555 1_555
C20 H17 1_555 1_555
C21 C20 1_555 1_555
C22 C21 1_555 1_555
H18 C22 1_555 1_555
H19 C22 1_555 1_555
H20 C22 1_555 1_555
N1 C1 1_555 1_555
N2 C10 1_555 1_555
O1 C6 1_555 1_555
O2 C19 1_555 1_555
O3 C8 1_555 1_555
O4 C15 1_555 1_555
O5 C17 1_555 1_555
O6 C21 1_555 1_555
Cr1 O1 1_555 1_555
Br1 Zn1 1_555 1_555
Br2 Zn1 1_555 1_555
Br3 Zn2 1_555 1_555
Zn1 N1 1_555 1_555
Zn2 N2 1_555 1_555
C23 C19 1_555 1_555
C24 C23 1_555 1_555
H21 C24 1_555 1_555
C25 C23 1_555 1_555
H22 C25 1_555 1_555
C26 C25 1_555 1_555
H23 C26 1_555 1_555
C27 C24 1_555 1_555
H24 C27 1_555 1_555
N3 C26 1_555 1_555
O7 C28 1_555 1_555
O8 C29 1_555 1_555
C1D H1D 1_555 1_555
C2D C1D 1_555 1_555
H2D C2D 1_555 1_555
C3D C2D 1_555 1_555
C4D C3D 1_555 1_555
H3D C4D 1_555 1_555
C5D C4D 1_555 1_555
H4D C5D 1_555 1_555
C6D C3D 1_555 1_555
C7D C6D 1_555 1_555
H5D C7D 1_555 1_555
C8D C7D 1_555 1_555
C9D C8D 1_555 1_555
H6D C9D 1_555 1_555
H7D C9D 1_555 1_555
H8D C9D 1_555 1_555
C10D H9D 1_555 1_555
C11D C10D 1_555 1_555
H10D C11D 1_555 1_555
C12D C11D 1_555 1_555
C13D C12D 1_555 1_555
H11D C13D 1_555 1_555
C14D C13D 1_555 1_555
H12D C14D 1_555 1_555
C15D C12D 1_555 1_555
C16D C15D 1_555 1_555
H13D C16D 1_555 1_555
C17D C16D 1_555 1_555
C18D C17D 1_555 1_555
H14D C18D 1_555 1_555
H15D C18D 1_555 1_555
H16D C18D 1_555 1_555
C19D C20D 1_555 1_555
C20D H17D 1_555 1_555
C21D C20D 1_555 1_555
C22D C21D 1_555 1_555
H18D C22D 1_555 1_555
H19D C22D 1_555 1_555
H20D C22D 1_555 1_555
N1D C1D 1_555 1_555
N2D Zn2 1_555 1_555
O1D C6D 1_555 1_555
O2D C19D 1_555 1_555
O3D C8D 1_555 1_555
O4D C15D 1_555 1_555
O5D C17D 1_555 1_555
O6D C21D 1_555 1_555
Cr1D O1D 1_555 1_555
Br1D Zn1D 1_555 1_555
Br2D Zn1D 1_555 1_555
Br3D Zn2 1_555 1_555
Zn1D N3 1_555 1_555
C23D C19D 1_555 1_555
C24D C23D 1_555 1_555
H21D C24D 1_555 1_555
C25D C23D 1_555 1_555
H22D C25D 1_555 1_555
C26D C25D 1_555 1_555
H23D C26D 1_555 1_555
C27D C24D 1_555 1_555
H24D C27D 1_555 1_555
N3D Zn1 1_555 1_555
C5 N1 1_555 1_555
C14 N2 1_555 1_555
O2 Cr1 1_555 1_555
O3 Cr1 1_555 1_555
O4 Cr1 1_555 1_555
O5 Cr1 1_555 1_555
O6 Cr1 1_555 1_555
C27 N3 1_555 1_555
C5D N1D 1_555 1_555
C10D N2D 1_555 1_555
C14D N2D 1_555 1_555
N1D Zn1D 1_555 1_555
O2D Cr1D 1_555 1_555
O3D Cr1D 1_555 1_555
O4D Cr1D 1_555 1_555
O5D Cr1D 1_555 1_555
O6D Cr1D 1_555 1_555
C26D N3D 1_555 1_555
C27D N3D 1_555 1_555

#END
