
#######################################################################
#
#                 Cambridge Crystallographic Data Centre
#                                CCDC 
#
#######################################################################
#
# If this CIF has been generated from an entry in the Cambridge 
# Structural Database, then it will include bibliographic, chemical, 
# crystal, experimental, refinement or atomic coordinate data resulting 
# from the CCDC's data processing and validation procedures.
#
#######################################################################

data_JATBAK
_chemical_formula_moiety         
'C135 H126 Al2 N6 O12 P6 Pd3 6+,6(C1 F3 O3 S1 1-),6(C2 H3 N1)'
_chemical_name_systematic        
'hexakis(\m-1-(4-pyridyl)-1,3-butanedionato)-hexakis(1,3-bis(diphenylphosphino)propane)-di-aluminium(iii)-tri-palladium(ii) hexakis(trifluoromethanesulfonate) acetonitrile solvate'
_symmetry_cell_setting           cubic
_symmetry_space_group_name_H-M   'I -4 3 d'
_symmetry_Int_Tables_number      220
_space_group_name_Hall           'I -4bd 2c 3'
loop_
_symmetry_equiv_pos_site_id
_symmetry_equiv_pos_as_xyz
1 x,y,z
2 1/4+y,3/4-x,1/4-z
3 -x,1/2-y,z
4 1/4-y,1/4+x,3/4-z
5 1/4-x,1/4+z,3/4-y
6 x,-y,1/2-z
7 3/4-x,1/4-z,1/4+y
8 3/4-z,1/4-y,1/4+x
9 1/2-x,y,-z
10 1/4+z,3/4-y,1/4-x
11 z,x,y
12 y,z,x
13 -y,1/2-z,x
14 z,-x,1/2-y
15 1/2-y,z,-x
16 -z,1/2-x,y
17 1/2-z,x,-y
18 y,-z,1/2-x
19 3/4-y,1/4-x,1/4+z
20 1/4+y,1/4+x,1/4+z
21 1/4+x,3/4-z,1/4-y
22 1/4+x,1/4+z,1/4+y
23 1/4-z,1/4+y,3/4-x
24 1/4+z,1/4+y,1/4+x
25 1/2+x,1/2+y,1/2+z
26 3/4+y,1/4-x,3/4-z
27 1/2-x,-y,1/2+z
28 3/4-y,3/4+x,1/4-z
29 3/4-x,3/4+z,1/4-y
30 1/2+x,1/2-y,-z
31 1/4-x,3/4-z,3/4+y
32 1/4-z,3/4-y,3/4+x
33 -x,1/2+y,1/2-z
34 3/4+z,1/4-y,3/4-x
35 1/2+z,1/2+x,1/2+y
36 1/2+y,1/2+z,1/2+x
37 1/2-y,-z,1/2+x
38 1/2+z,1/2-x,-y
39 -y,1/2+z,1/2-x
40 1/2-z,-x,1/2+y
41 -z,1/2+x,1/2-y
42 1/2+y,1/2-z,-x
43 1/4-y,3/4-x,3/4+z
44 3/4+y,3/4+x,3/4+z
45 3/4+x,1/4-z,3/4-y
46 3/4+x,3/4+z,3/4+y
47 3/4-z,3/4+y,1/4-x
48 3/4+z,3/4+y,3/4+x
_cell_length_a                   43.73712(7)
_cell_length_b                   43.73712(7)
_cell_length_c                   43.73712(7)
_cell_angle_alpha                90
_cell_angle_beta                 90
_cell_angle_gamma                90
_cell_volume                     83666.3
_exptl_crystal_colour            colorless
_exptl_crystal_description       prism
_cell_formula_units_Z            16
loop_
_atom_site_label
_atom_site_type_symbol
_atom_site_fract_x
_atom_site_fract_y
_atom_site_fract_z
Pd1 Pd 0.13636(2) 0.65671(2) 0.04433(2)
P1 P 0.13603(5) 0.64505(9) 0.09488(5)
P2 P 0.17758(5) 0.68751(5) 0.05146(6)
Al1 Al 0.15588(5) 0.65588(5) -0.15588(5)
Al2 Al 0.00928(5) 0.50928(5) -0.00928(5)
O1 O 0.15265(19) 0.69874(15) -0.16009(17)
O2 O 0.15138(12) 0.65971(11) -0.11370(12)
O3 O -0.02364(19) 0.5228(2) 0.0156(2)
O4 O 0.03384(14) 0.54132(16) 0.00406(15)
N1 N 0.13608(13) 0.66514(15) -0.00248(16)
N2 N 0.09953(14) 0.62756(19) 0.03540(14)
C1 C 0.1440(3) 0.7181(2) -0.1410(3)
C2 C 0.1359(3) 0.7109(2) -0.1108(3)
H1 H 0.1262 0.7256 -0.0988
C3 C 0.14207(16) 0.68223(16) -0.09837(19)
C4 C 0.13797(14) 0.67662(15) -0.06515(17)
C5 C 0.12266(18) 0.69651(18) -0.0457(2)
H2 H 0.1129 0.7138 -0.0533
C6 C 0.12223(18) 0.68997(19) -0.01458(19)
H3 H 0.1120 0.7033 -0.0015
C7 C 0.14967(16) 0.64549(16) -0.02151(17)
H4 H 0.1588 0.6281 -0.0134
C8 C 0.1421(6) 0.7508(3) -0.1515(5)
H5 H 0.1248 0.7605 -0.1420
H6 H 0.1397 0.7513 -0.1733
H7 H 0.1605 0.7614 -0.1459
C9 C 0.15077(14) 0.65005(15) -0.05312(17)
H8 H 0.1599 0.6356 -0.0659
C10 C -0.0560(3) 0.5537(4) 0.0456(4)
H9 H -0.0607 0.5369 0.0589
H10 H -0.0717 0.5556 0.0304
H11 H -0.0548 0.5722 0.0574
C11 C -0.0257(3) 0.5480(3) 0.0302(3)
C12 C -0.0027(2) 0.5696(3) 0.0326(3)
H12 H -0.0065 0.5878 0.0430
C13 C 0.0262(2) 0.5648(2) 0.01964(19)
C14 C 0.05118(17) 0.5876(2) 0.02485(17)
C15 C 0.0814(2) 0.5783(2) 0.0193(2)
H13 H 0.0855 0.5587 0.0122
C16 C 0.10448(19) 0.5987(2) 0.02446(19)
H14 H 0.1245 0.5927 0.0204
C17 C 0.07051(18) 0.6368(2) 0.04034(19)
H15 H 0.0668 0.6566 0.0473
C18 C 0.04633(17) 0.6173(2) 0.03515(19)
H16 H 0.0265 0.6240 0.0386
C19 C 0.1762(3) 0.7099(3) 0.0866(3)
H17 H 0.1943 0.7228 0.0872
H18 H 0.1586 0.7234 0.0853
C20 C 0.1744(3) 0.6931(4) 0.1158(3)
H19 H 0.1782 0.7071 0.1326
H20 H 0.1900 0.6774 0.1163
C21 C 0.1437(3) 0.6789(5) 0.1197(3)
H21 H 0.1283 0.6943 0.1155
H22 H 0.1415 0.6727 0.1409
C22 C 0.1632(2) 0.6141(4) 0.1032(3)
C23 C 0.1752(4) 0.6119(5) 0.1332(4)
H23 H 0.1698 0.6256 0.1485
C24 C 0.1963(5) 0.5872(5) 0.1383(5)
H24 H 0.2049 0.5848 0.1576
C25 C 0.2038(4) 0.5675(5) 0.1160(5)
H25 H 0.2173 0.5517 0.1203
C26 C 0.1920(4) 0.5700(5) 0.0873(5)
H26 H 0.1970 0.5559 0.0722
C27 C 0.1722(3) 0.5946(4) 0.0811(3)
H27 H 0.1652 0.5975 0.0613
C28 C 0.21256(18) 0.6658(2) 0.0522(2)
C29 C 0.2392(2) 0.6787(3) 0.0653(3)
H28 H 0.2389 0.6984 0.0732
C30 C 0.2662(2) 0.6611(4) 0.0659(4)
H29 H 0.2837 0.6691 0.0749
C31 C 0.2670(2) 0.6323(3) 0.0534(3)
H30 H 0.2849 0.6208 0.0545
C32 C 0.2412(2) 0.6204(3) 0.0392(3)
H31 H 0.2420 0.6015 0.0295
C33 C 0.2139(2) 0.6372(3) 0.0396(3)
H32 H 0.1963 0.6287 0.0312
C34 C 0.1818(2) 0.7149(2) 0.0205(3)
C35 C 0.1634(3) 0.7413(3) 0.0208(4)
H33 H 0.1495 0.7449 0.0364
C36 C 0.1671(4) 0.7623(3) -0.0039(5)
H34 H 0.1559 0.7804 -0.0038
C37 C 0.1867(4) 0.7565(4) -0.0283(4)
H35 H 0.1885 0.7703 -0.0443
C38 C 0.2039(3) 0.7292(4) -0.0279(5)
H36 H 0.2167 0.7243 -0.0442
C39 C 0.2016(3) 0.7093(3) -0.0026(3)
H37 H 0.2139 0.6920 -0.0018
C40 C 0.0990(2) 0.6318(5) 0.1068(2)
C41 C 0.0927(3) 0.5997(5) 0.1044(3)
H38 H 0.1080 0.5862 0.0983
C42 C 0.0636(3) 0.5889(6) 0.1111(3)
H39 H 0.0590 0.5682 0.1097
C43 C 0.0410(4) 0.6104(7) 0.1202(4)
H40 H 0.0216 0.6034 0.1253
C44 C 0.0470(3) 0.6407(7) 0.1217(3)
H41 H 0.0315 0.6541 0.1275
C45 C 0.0761(3) 0.6522(5) 0.1146(2)
H42 H 0.0799 0.6731 0.1152
Pd1NA Pd -0.04433(2) 0.63636(2) -0.15671(2)
P1NA P -0.09488(5) 0.63603(5) -0.14505(9)
P2NA P -0.05146(6) 0.67758(5) -0.18751(5)
O1NA O 0.16009(17) 0.65265(19) -0.19874(15)
O2NA O 0.11370(12) 0.65138(12) -0.15971(11)
O3NA O -0.0156(2) 0.47636(19) -0.0228(2)
O4NA O -0.00406(15) 0.53384(14) -0.04132(16)
N1NA N 0.00248(16) 0.63608(13) -0.16514(15)
N2NA N -0.03540(14) 0.59953(14) -0.12756(19)
C1NA C 0.1410(3) 0.6440(3) -0.2181(2)
C2NA C 0.1108(3) 0.6359(3) -0.2109(2)
H1NA H 0.0988 0.6262 -0.2256
C3NA C 0.09837(19) 0.64207(16) -0.18223(16)
C4NA C 0.06515(17) 0.63797(14) -0.17662(15)
C5NA C 0.0457(2) 0.62266(18) -0.19651(18)
H2NA H 0.0533 0.6129 -0.2138
C6NA C 0.01458(19) 0.62223(18) -0.18997(19)
H3NA H 0.0015 0.6120 -0.2033
C7NA C 0.02151(17) 0.64967(16) -0.14549(16)
H4NA H 0.0134 0.6588 -0.1281
C8NA C 0.1515(5) 0.6421(6) -0.2508(3)
H5NA H 0.1420 0.6248 -0.2605
H6NA H 0.1733 0.6397 -0.2513
H7NA H 0.1459 0.6605 -0.2614
C9NA C 0.05312(17) 0.65077(14) -0.15005(15)
H8NA H 0.0659 0.6599 -0.1356
C10NA C -0.0456(4) 0.4440(3) -0.0537(4)
H9NA H -0.0589 0.4393 -0.0369
H10NA H -0.0304 0.4283 -0.0556
H11NA H -0.0574 0.4452 -0.0722
C11NA C -0.0302(3) 0.4743(3) -0.0480(3)
C12NA C -0.0326(3) 0.4973(2) -0.0696(3)
H12NA H -0.0430 0.4935 -0.0878
C13NA C -0.01964(19) 0.5262(2) -0.0648(2)
C14NA C -0.02485(17) 0.55118(17) -0.0876(2)
C15NA C -0.0193(2) 0.5814(2) -0.0783(2)
H13NA H -0.0122 0.5855 -0.0587
C16NA C -0.02446(19) 0.60448(19) -0.0987(2)
H14NA H -0.0204 0.6245 -0.0927
C17NA C -0.04034(19) 0.57051(18) -0.1368(2)
H15NA H -0.0473 0.5668 -0.1566
C18NA C -0.03515(19) 0.54633(17) -0.1173(2)
H16NA H -0.0386 0.5265 -0.1240
C19NA C -0.0866(3) 0.6762(3) -0.2099(3)
H17NA H -0.0872 0.6943 -0.2228
H18NA H -0.0853 0.6586 -0.2234
C20NA C -0.1158(3) 0.6744(3) -0.1931(4)
H19NA H -0.1326 0.6782 -0.2071
H20NA H -0.1163 0.6900 -0.1774
C21NA C -0.1197(3) 0.6437(3) -0.1789(5)
H21NA H -0.1155 0.6283 -0.1943
H22NA H -0.1409 0.6415 -0.1727
C22NA C -0.1032(3) 0.6632(2) -0.1141(4)
C23NA C -0.1332(4) 0.6752(4) -0.1119(5)
H23NA H -0.1485 0.6698 -0.1256
C24NA C -0.1383(5) 0.6963(5) -0.0872(5)
H24NA H -0.1576 0.7049 -0.0848
C25NA C -0.1160(5) 0.7038(4) -0.0675(5)
H25NA H -0.1203 0.7173 -0.0517
C26NA C -0.0873(5) 0.6920(4) -0.0700(5)
H26NA H -0.0722 0.6970 -0.0559
C27NA C -0.0811(3) 0.6722(3) -0.0946(4)
H27NA H -0.0613 0.6652 -0.0975
C28NA C -0.0522(2) 0.71256(18) -0.1658(2)
C29NA C -0.0653(3) 0.7392(2) -0.1787(3)
H28NA H -0.0732 0.7389 -0.1984
C30NA C -0.0659(4) 0.7662(2) -0.1611(4)
H29NA H -0.0749 0.7837 -0.1691
C31NA C -0.0534(3) 0.7670(2) -0.1323(3)
H30NA H -0.0545 0.7849 -0.1208
C32NA C -0.0392(3) 0.7412(2) -0.1204(3)
H31NA H -0.0295 0.7420 -0.1015
C33NA C -0.0396(3) 0.7139(2) -0.1372(3)
H32NA H -0.0312 0.6963 -0.1287
C34NA C -0.0205(3) 0.6818(2) -0.2149(2)
C35NA C -0.0208(4) 0.6634(3) -0.2413(3)
H33NA H -0.0364 0.6495 -0.2449
C36NA C 0.0039(5) 0.6671(4) -0.2623(3)
H34NA H 0.0038 0.6559 -0.2804
C37NA C 0.0283(4) 0.6867(4) -0.2565(4)
H35NA H 0.0443 0.6885 -0.2703
C38NA C 0.0279(5) 0.7039(3) -0.2292(4)
H36NA H 0.0442 0.7167 -0.2243
C39NA C 0.0026(3) 0.7016(3) -0.2093(3)
H37NA H 0.0018 0.7139 -0.1920
C40NA C -0.1068(2) 0.5990(2) -0.1318(5)
C41NA C -0.1044(3) 0.5927(3) -0.0997(5)
H38NA H -0.0983 0.6080 -0.0862
C42NA C -0.1111(3) 0.5636(3) -0.0889(6)
H39NA H -0.1097 0.5590 -0.0682
C43NA C -0.1202(4) 0.5410(4) -0.1104(7)
H40NA H -0.1253 0.5216 -0.1034
C44NA C -0.1217(3) 0.5470(3) -0.1407(7)
H41NA H -0.1275 0.5315 -0.1541
C45NA C -0.1146(2) 0.5761(3) -0.1522(5)
H42NA H -0.1152 0.5799 -0.1731
Pd1OA Pd 0.15671(2) 0.45567(2) -0.13636(2)
P1OA P 0.14505(9) 0.40512(5) -0.13603(5)
P2OA P 0.18751(5) 0.44854(6) -0.17758(5)
O1OA O 0.19874(15) 0.66009(17) -0.15265(19)
O2OA O 0.15971(11) 0.61370(12) -0.15138(12)
O3OA O 0.0228(2) 0.4844(2) 0.02364(19)
O4OA O 0.04132(16) 0.49594(15) -0.03384(14)
N1OA N 0.16514(15) 0.50248(16) -0.13608(13)
N2OA N 0.12756(19) 0.46460(14) -0.09953(14)
C1OA C 0.2181(2) 0.6410(3) -0.1440(3)
C2OA C 0.2109(2) 0.6108(3) -0.1359(3)
H1OA H 0.2256 0.5988 -0.1262
C3OA C 0.18223(16) 0.59837(19) -0.14207(16)
C4OA C 0.17662(15) 0.56515(17) -0.13797(14)
C5OA C 0.19651(18) 0.5457(2) -0.12266(18)
H2OA H 0.2138 0.5533 -0.1129
C6OA C 0.18997(19) 0.51458(19) -0.12223(18)
H3OA H 0.2033 0.5015 -0.1120
C7OA C 0.14549(16) 0.52151(17) -0.14967(16)
H4OA H 0.1281 0.5134 -0.1588
C8OA C 0.2508(3) 0.6515(5) -0.1421(6)
H5OA H 0.2605 0.6420 -0.1248
H6OA H 0.2513 0.6733 -0.1397
H7OA H 0.2614 0.6459 -0.1605
C9OA C 0.15005(15) 0.55312(17) -0.15077(14)
H8OA H 0.1356 0.5659 -0.1599
C10OA C 0.0537(4) 0.4544(4) 0.0560(3)
H9OA H 0.0369 0.4411 0.0607
H10OA H 0.0556 0.4696 0.0717
H11OA H 0.0722 0.4426 0.0548
C11OA C 0.0480(3) 0.4698(3) 0.0257(3)
C12OA C 0.0696(3) 0.4674(3) 0.0027(2)
H12OA H 0.0878 0.4570 0.0065
C13OA C 0.0648(2) 0.48036(19) -0.0262(2)
C14OA C 0.0876(2) 0.47515(17) -0.05118(17)
C15OA C 0.0783(2) 0.4807(2) -0.0814(2)
H13OA H 0.0587 0.4878 -0.0855
C16OA C 0.0987(2) 0.47554(19) -0.10448(19)
H14OA H 0.0927 0.4796 -0.1245
C17OA C 0.1368(2) 0.45966(19) -0.07051(18)
H15OA H 0.1566 0.4527 -0.0668
C18OA C 0.1173(2) 0.46485(19) -0.04633(17)
H16OA H 0.1240 0.4614 -0.0265
C19OA C 0.2099(3) 0.4134(3) -0.1762(3)
H17OA H 0.2228 0.4128 -0.1943
H18OA H 0.2234 0.4147 -0.1586
C20OA C 0.1931(4) 0.3842(3) -0.1744(3)
H19OA H 0.2071 0.3674 -0.1782
H20OA H 0.1774 0.3837 -0.1900
C21OA C 0.1789(5) 0.3803(3) -0.1437(3)
H21OA H 0.1943 0.3845 -0.1283
H22OA H 0.1727 0.3591 -0.1415
C22OA C 0.1141(4) 0.3968(3) -0.1632(2)
C23OA C 0.1119(5) 0.3668(4) -0.1752(4)
H23OA H 0.1256 0.3515 -0.1698
C24OA C 0.0872(5) 0.3617(5) -0.1963(5)
H24OA H 0.0848 0.3424 -0.2049
C25OA C 0.0675(5) 0.3840(5) -0.2038(4)
H25OA H 0.0517 0.3797 -0.2173
C26OA C 0.0700(5) 0.4127(5) -0.1920(4)
H26OA H 0.0559 0.4278 -0.1970
C27OA C 0.0946(4) 0.4189(3) -0.1722(3)
H27OA H 0.0975 0.4387 -0.1652
C28OA C 0.1658(2) 0.4478(2) -0.21256(18)
C29OA C 0.1787(3) 0.4347(3) -0.2392(2)
H28OA H 0.1984 0.4268 -0.2389
C30OA C 0.1611(4) 0.4341(4) -0.2662(2)
H29OA H 0.1691 0.4251 -0.2837
C31OA C 0.1323(3) 0.4466(3) -0.2670(2)
H30OA H 0.1208 0.4455 -0.2849
C32OA C 0.1204(3) 0.4608(3) -0.2412(2)
H31OA H 0.1015 0.4705 -0.2420
C33OA C 0.1372(3) 0.4604(3) -0.2139(2)
H32OA H 0.1287 0.4688 -0.1963
C34OA C 0.2149(2) 0.4795(3) -0.1818(2)
C35OA C 0.2413(3) 0.4792(4) -0.1634(3)
H33OA H 0.2449 0.4636 -0.1495
C36OA C 0.2623(3) 0.5039(5) -0.1671(4)
H34OA H 0.2804 0.5038 -0.1559
C37OA C 0.2565(4) 0.5283(4) -0.1867(4)
H35OA H 0.2703 0.5443 -0.1885
C38OA C 0.2292(4) 0.5279(5) -0.2039(3)
H36OA H 0.2243 0.5442 -0.2167
C39OA C 0.2093(3) 0.5026(3) -0.2016(3)
H37OA H 0.1920 0.5018 -0.2139
C40OA C 0.1318(5) 0.3932(2) -0.0990(2)
C41OA C 0.0997(5) 0.3956(3) -0.0927(3)
H38OA H 0.0862 0.4017 -0.1080
C42OA C 0.0889(6) 0.3889(3) -0.0636(3)
H39OA H 0.0682 0.3903 -0.0590
C43OA C 0.1104(7) 0.3798(4) -0.0410(4)
H40OA H 0.1034 0.3747 -0.0216
C44OA C 0.1407(7) 0.3783(3) -0.0470(3)
H41OA H 0.1541 0.3725 -0.0315
C45OA C 0.1522(5) 0.3854(2) -0.0761(3)
H42OA H 0.1731 0.3848 -0.0799
N3 N -0.0232(7) 0.6470(6) 0.0748(6)
C46 C -0.0083(6) 0.7018(6) 0.0888(6)
H43 H 0.0113 0.7066 0.0800
H44 H -0.0071 0.7033 0.1106
H45 H -0.0233 0.7160 0.0813
C47 C -0.0170(5) 0.6705(5) 0.0801(5)
S1 S 0.08418(9) 0.73642(10) 0.06261(10)
F1 F 0.0401(7) 0.7496(7) 0.0258(7)
F2 F 0.0856(5) 0.7583(5) 0.0067(5)
F3 F 0.0629(5) 0.7885(5) 0.0393(5)
O5 O 0.0621(3) 0.7387(3) 0.0864(3)
O6 O 0.0898(4) 0.7077(4) 0.0478(5)
O7 O 0.1135(4) 0.7545(4) 0.0689(4)
C48 C 0.0697(7) 0.7597(6) 0.0329(6)
S2 S 0.16998(17) 0.56010(15) -0.02353(15)
F4 F 0.2245(8) 0.5431(8) -0.0324(8)
F5 F 0.1907(6) 0.5135(6) -0.0485(6)
F6 F 0.2004(6) 0.5150(5) -0.0018(5)
O8 O 0.1726(5) 0.5790(5) -0.0506(5)
O9 O 0.1791(4) 0.5785(3) 0.0022(4)
O10 O 0.1431(7) 0.5411(8) -0.0213(9)
C49 C 0.1985(6) 0.5317(6) -0.0278(6)
N4 N 0.1305(8) 0.6405(8) 0.1905(7)
C50 C 0.0723(8) 0.6061(8) 0.1966(8)
H46 H 0.0694 0.5953 0.1777
H47 H 0.0551 0.6193 0.2002
H48 H 0.0741 0.5917 0.2131
C51 C 0.1061(8) 0.6284(8) 0.1944(8)
S3? S 0.08362(11) 0.72664(13) 0.07407(13)
F7? F 0.0288(6) 0.7317(6) 0.0514(6)
F8? F 0.0329(5) 0.6981(5) 0.0879(5)
F9? F 0.0321(5) 0.7470(5) 0.0975(5)
O11? O 0.0895(4) 0.7563(4) 0.0603(4)
O12? O 0.0927(5) 0.7036(5) 0.0558(6)
O13? O 0.0939(4) 0.7232(4) 0.1043(4)
C52? C 0.0441(7) 0.7265(7) 0.0764(7)
N5? N -0.0302(8) 0.6277(8) 0.0701(8)
C53? C -0.0399(7) 0.6854(7) 0.0754(7)
H49? H -0.0283 0.6968 0.0606
H50? H -0.0334 0.6910 0.0956
H51? H -0.0612 0.6899 0.0730
C54? C -0.0348(8) 0.6533(8) 0.0708(7)
S4? S 0.1853(3) 0.5580(3) -0.0087(4)
F10? F 0.1318(11) 0.5366(11) -0.0198(11)
F11? F 0.1755(18) 0.5094(15) -0.0037(15)
F12? F 0.1625(14) 0.5232(14) -0.0574(10)
O14? O 0.1718(6) 0.5745(6) 0.0106(6)
O15? O 0.2136(17) 0.5651(18) -0.0140(17)
C55? C 0.1675(13) 0.5303(12) -0.0264(10)
S5? S 0.1846(5) 0.5656(4) -0.0224(5)
F13? F 0.163(3) 0.555(3) -0.060(3)
O16? O 0.1962(11) 0.5535(11) 0.0062(12)
C56? C 0.183(3) 0.552(2) -0.052(2)
loop_
_geom_bond_atom_site_label_1
_geom_bond_atom_site_label_2
_geom_bond_site_symmetry_1
_geom_bond_site_symmetry_2
Pd1 P1 1_555 1_555
P1 C21 1_555 1_555
P2 Pd1 1_555 1_555
Al1 O1 1_555 1_555
Al2 O3 1_555 1_555
O1 C1 1_555 1_555
O2 Al1 1_555 1_555
O3 C11 1_555 1_555
O4 Al2 1_555 1_555
N1 Pd1 1_555 1_555
N2 Pd1 1_555 1_555
C1 C2 1_555 1_555
C2 H1 1_555 1_555
C3 O2 1_555 1_555
C4 C3 1_555 1_555
C5 C4 1_555 1_555
H2 C5 1_555 1_555
C6 N1 1_555 1_555
H3 C6 1_555 1_555
C7 N1 1_555 1_555
H4 C7 1_555 1_555
C8 C1 1_555 1_555
H5 C8 1_555 1_555
H6 C8 1_555 1_555
H7 C8 1_555 1_555
C9 C4 1_555 1_555
H8 C9 1_555 1_555
C10 H9 1_555 1_555
H10 C10 1_555 1_555
H11 C10 1_555 1_555
C11 C10 1_555 1_555
C12 C11 1_555 1_555
H12 C12 1_555 1_555
C13 O4 1_555 1_555
C14 C13 1_555 1_555
C15 C14 1_555 1_555
H13 C15 1_555 1_555
C16 N2 1_555 1_555
H14 C16 1_555 1_555
C17 N2 1_555 1_555
H15 C17 1_555 1_555
C18 C14 1_555 1_555
H16 C18 1_555 1_555
C19 P2 1_555 1_555
H17 C19 1_555 1_555
H18 C19 1_555 1_555
C20 C19 1_555 1_555
H19 C20 1_555 1_555
H20 C20 1_555 1_555
C21 C20 1_555 1_555
H21 C21 1_555 1_555
H22 C21 1_555 1_555
C22 P1 1_555 1_555
C23 C22 1_555 1_555
H23 C23 1_555 1_555
C24 C23 1_555 1_555
H24 C24 1_555 1_555
C25 C24 1_555 1_555
H25 C25 1_555 1_555
C26 C25 1_555 1_555
H26 C26 1_555 1_555
C27 C22 1_555 1_555
H27 C27 1_555 1_555
C28 P2 1_555 1_555
C29 C28 1_555 1_555
H28 C29 1_555 1_555
C30 C29 1_555 1_555
H29 C30 1_555 1_555
C31 C30 1_555 1_555
H30 C31 1_555 1_555
C32 C31 1_555 1_555
H31 C32 1_555 1_555
C33 C28 1_555 1_555
H32 C33 1_555 1_555
C34 P2 1_555 1_555
C35 C34 1_555 1_555
H33 C35 1_555 1_555
C36 C35 1_555 1_555
H34 C36 1_555 1_555
C37 C36 1_555 1_555
H35 C37 1_555 1_555
C38 C37 1_555 1_555
H36 C38 1_555 1_555
C39 C34 1_555 1_555
H37 C39 1_555 1_555
C40 P1 1_555 1_555
C41 C40 1_555 1_555
H38 C41 1_555 1_555
C42 C41 1_555 1_555
H39 C42 1_555 1_555
C43 C42 1_555 1_555
H40 C43 1_555 1_555
C44 C43 1_555 1_555
H41 C44 1_555 1_555
C45 C40 1_555 1_555
H42 C45 1_555 1_555
N3 C47 1_555 1_555
C46 H43 1_555 1_555
H44 C46 1_555 1_555
H45 C46 1_555 1_555
C47 C46 1_555 1_555
S1 O5 1_555 1_555
F1 C48 1_555 1_555
F2 C48 1_555 1_555
F3 C48 1_555 1_555
O6 S1 1_555 1_555
O7 S1 1_555 1_555
C48 S1 1_555 1_555
S2 O8 1_555 1_555
F4 C49 1_555 1_555
F5 C49 1_555 1_555
F6 C49 1_555 1_555
O9 S2 1_555 1_555
O10 S2 1_555 1_555
C49 S2 1_555 1_555
N4 C51 1_555 1_555
C50 H46 1_555 1_555
H47 C50 1_555 1_555
H48 C50 1_555 1_555
C51 C50 1_555 1_555
Pd1NA P1NA 1_555 1_555
P1NA C21NA 1_555 1_555
P2NA Pd1NA 1_555 1_555
O1NA Al1 1_555 1_555
O2NA Al1 1_555 1_555
O3NA Al2 1_555 1_555
O4NA Al2 1_555 1_555
N1NA Pd1NA 1_555 1_555
N2NA Pd1NA 1_555 1_555
C1NA O1NA 1_555 1_555
C2NA C1NA 1_555 1_555
H1NA C2NA 1_555 1_555
C3NA O2NA 1_555 1_555
C4NA C3NA 1_555 1_555
C5NA C4NA 1_555 1_555
H2NA C5NA 1_555 1_555
C6NA N1NA 1_555 1_555
H3NA C6NA 1_555 1_555
C7NA N1NA 1_555 1_555
H4NA C7NA 1_555 1_555
C8NA C1NA 1_555 1_555
H5NA C8NA 1_555 1_555
H6NA C8NA 1_555 1_555
H7NA C8NA 1_555 1_555
C9NA C4NA 1_555 1_555
H8NA C9NA 1_555 1_555
C10NA H9NA 1_555 1_555
H10NA C10NA 1_555 1_555
H11NA C10NA 1_555 1_555
C11NA O3NA 1_555 1_555
C12NA C11NA 1_555 1_555
H12NA C12NA 1_555 1_555
C13NA O4NA 1_555 1_555
C14NA C13NA 1_555 1_555
C15NA C14NA 1_555 1_555
H13NA C15NA 1_555 1_555
C16NA N2NA 1_555 1_555
H14NA C16NA 1_555 1_555
C17NA N2NA 1_555 1_555
H15NA C17NA 1_555 1_555
C18NA C14NA 1_555 1_555
H16NA C18NA 1_555 1_555
C19NA P2NA 1_555 1_555
H17NA C19NA 1_555 1_555
H18NA C19NA 1_555 1_555
C20NA C19NA 1_555 1_555
H19NA C20NA 1_555 1_555
H20NA C20NA 1_555 1_555
C21NA C20NA 1_555 1_555
H21NA C21NA 1_555 1_555
H22NA C21NA 1_555 1_555
C22NA P1NA 1_555 1_555
C23NA C22NA 1_555 1_555
H23NA C23NA 1_555 1_555
C24NA C23NA 1_555 1_555
H24NA C24NA 1_555 1_555
C25NA C24NA 1_555 1_555
H25NA C25NA 1_555 1_555
C26NA C25NA 1_555 1_555
H26NA C26NA 1_555 1_555
C27NA C22NA 1_555 1_555
H27NA C27NA 1_555 1_555
C28NA P2NA 1_555 1_555
C29NA C28NA 1_555 1_555
H28NA C29NA 1_555 1_555
C30NA C29NA 1_555 1_555
H29NA C30NA 1_555 1_555
C31NA C30NA 1_555 1_555
H30NA C31NA 1_555 1_555
C32NA C31NA 1_555 1_555
H31NA C32NA 1_555 1_555
C33NA C28NA 1_555 1_555
H32NA C33NA 1_555 1_555
C34NA P2NA 1_555 1_555
C35NA C34NA 1_555 1_555
H33NA C35NA 1_555 1_555
C36NA C35NA 1_555 1_555
H34NA C36NA 1_555 1_555
C37NA C36NA 1_555 1_555
H35NA C37NA 1_555 1_555
C38NA C37NA 1_555 1_555
H36NA C38NA 1_555 1_555
C39NA C34NA 1_555 1_555
H37NA C39NA 1_555 1_555
C40NA P1NA 1_555 1_555
C41NA C40NA 1_555 1_555
H38NA C41NA 1_555 1_555
C42NA C41NA 1_555 1_555
H39NA C42NA 1_555 1_555
C43NA C42NA 1_555 1_555
H40NA C43NA 1_555 1_555
C44NA C43NA 1_555 1_555
H41NA C44NA 1_555 1_555
C45NA C40NA 1_555 1_555
H42NA C45NA 1_555 1_555
Pd1OA P1OA 1_555 1_555
P1OA C21OA 1_555 1_555
P2OA Pd1OA 1_555 1_555
O1OA Al1 1_555 1_555
O2OA Al1 1_555 1_555
O3OA Al2 1_555 1_555
O4OA Al2 1_555 1_555
N1OA Pd1OA 1_555 1_555
N2OA Pd1OA 1_555 1_555
C1OA O1OA 1_555 1_555
C2OA C1OA 1_555 1_555
H1OA C2OA 1_555 1_555
C3OA O2OA 1_555 1_555
C4OA C3OA 1_555 1_555
C5OA C4OA 1_555 1_555
H2OA C5OA 1_555 1_555
C6OA N1OA 1_555 1_555
H3OA C6OA 1_555 1_555
C7OA N1OA 1_555 1_555
H4OA C7OA 1_555 1_555
C8OA C1OA 1_555 1_555
H5OA C8OA 1_555 1_555
H6OA C8OA 1_555 1_555
H7OA C8OA 1_555 1_555
C9OA C4OA 1_555 1_555
H8OA C9OA 1_555 1_555
C10OA H9OA 1_555 1_555
H10OA C10OA 1_555 1_555
H11OA C10OA 1_555 1_555
C11OA O3OA 1_555 1_555
C12OA C11OA 1_555 1_555
H12OA C12OA 1_555 1_555
C13OA O4OA 1_555 1_555
C14OA C13OA 1_555 1_555
C15OA C14OA 1_555 1_555
H13OA C15OA 1_555 1_555
C16OA N2OA 1_555 1_555
H14OA C16OA 1_555 1_555
C17OA N2OA 1_555 1_555
H15OA C17OA 1_555 1_555
C18OA C14OA 1_555 1_555
H16OA C18OA 1_555 1_555
C19OA P2OA 1_555 1_555
H17OA C19OA 1_555 1_555
H18OA C19OA 1_555 1_555
C20OA C19OA 1_555 1_555
H19OA C20OA 1_555 1_555
H20OA C20OA 1_555 1_555
C21OA C20OA 1_555 1_555
H21OA C21OA 1_555 1_555
H22OA C21OA 1_555 1_555
C22OA P1OA 1_555 1_555
C23OA C22OA 1_555 1_555
H23OA C23OA 1_555 1_555
C24OA C23OA 1_555 1_555
H24OA C24OA 1_555 1_555
C25OA C24OA 1_555 1_555
H25OA C25OA 1_555 1_555
C26OA C25OA 1_555 1_555
H26OA C26OA 1_555 1_555
C27OA C22OA 1_555 1_555
H27OA C27OA 1_555 1_555
C28OA P2OA 1_555 1_555
C29OA C28OA 1_555 1_555
H28OA C29OA 1_555 1_555
C30OA C29OA 1_555 1_555
H29OA C30OA 1_555 1_555
C31OA C30OA 1_555 1_555
H30OA C31OA 1_555 1_555
C32OA C31OA 1_555 1_555
H31OA C32OA 1_555 1_555
C33OA C28OA 1_555 1_555
H32OA C33OA 1_555 1_555
C34OA P2OA 1_555 1_555
C35OA C34OA 1_555 1_555
H33OA C35OA 1_555 1_555
C36OA C35OA 1_555 1_555
H34OA C36OA 1_555 1_555
C37OA C36OA 1_555 1_555
H35OA C37OA 1_555 1_555
C38OA C37OA 1_555 1_555
H36OA C38OA 1_555 1_555
C39OA C34OA 1_555 1_555
H37OA C39OA 1_555 1_555
C40OA P1OA 1_555 1_555
C41OA C40OA 1_555 1_555
H38OA C41OA 1_555 1_555
C42OA C41OA 1_555 1_555
H39OA C42OA 1_555 1_555
C43OA C42OA 1_555 1_555
H40OA C43OA 1_555 1_555
C44OA C43OA 1_555 1_555
H41OA C44OA 1_555 1_555
C45OA C40OA 1_555 1_555
H42OA C45OA 1_555 1_555
C2 C3 1_555 1_555
C5 C6 1_555 1_555
C7 C9 1_555 1_555
C12 C13 1_555 1_555
C15 C16 1_555 1_555
C17 C18 1_555 1_555
C26 C27 1_555 1_555
C32 C33 1_555 1_555
C38 C39 1_555 1_555
C44 C45 1_555 1_555
C2NA C3NA 1_555 1_555
C5NA C6NA 1_555 1_555
C7NA C9NA 1_555 1_555
C10NA C11NA 1_555 1_555
C12NA C13NA 1_555 1_555
C15NA C16NA 1_555 1_555
C17NA C18NA 1_555 1_555
C26NA C27NA 1_555 1_555
C32NA C33NA 1_555 1_555
C38NA C39NA 1_555 1_555
C44NA C45NA 1_555 1_555
C2OA C3OA 1_555 1_555
C5OA C6OA 1_555 1_555
C7OA C9OA 1_555 1_555
C10OA C11OA 1_555 1_555
C12OA C13OA 1_555 1_555
C15OA C16OA 1_555 1_555
C17OA C18OA 1_555 1_555
C26OA C27OA 1_555 1_555
C32OA C33OA 1_555 1_555
C38OA C39OA 1_555 1_555
C44OA C45OA 1_555 1_555

#END
