# generated using pymatgen
data_Al2P6H153Pd3C168S15N15(O16F13)3
_symmetry_space_group_name_H-M   'P 1'
_cell_length_a   43.73712000
_cell_length_b   43.73712000
_cell_length_c   43.73712000
_cell_angle_alpha   90.00000000
_cell_angle_beta   90.00000000
_cell_angle_gamma   90.00000000
_symmetry_Int_Tables_number   1
_chemical_formula_structural   Al2P6H153Pd3C168S15N15(O16F13)3
_chemical_formula_sum
'Al32 P96 H2448 Pd48 C2688 S240 N240 O768 F624'
_cell_volume   83666.29677150
_cell_formula_units_Z   16
loop_
 _symmetry_equiv_pos_site_id
 _symmetry_equiv_pos_as_xyz
  1  'x, y, z'
loop_
 _atom_site_type_symbol
 _atom_site_label
 _atom_site_symmetry_multiplicity
 _atom_site_fract_x
 _atom_site_fract_y
 _atom_site_fract_z
 _atom_site_occupancy
  Al  Al1  1  0.155880  0.655880  0.844120  1
  Al  Al2  1  0.905880  0.594120  0.405880  1
  Al  Al3  1  0.844120  0.844120  0.844120  1
  Al  Al4  1  0.594120  0.405880  0.905880  1
  Al  Al5  1  0.094120  0.094120  0.094120  1
  Al  Al6  1  0.155880  0.344120  0.655880  1
  Al  Al7  1  0.344120  0.655880  0.155880  1
  Al  Al8  1  0.844120  0.155880  0.655880  1
  Al  Al9  1  0.655880  0.844120  0.155880  1
  Al  Al10  1  0.655880  0.155880  0.344120  1
  Al  Al11  1  0.905880  0.405880  0.094120  1
  Al  Al12  1  0.405880  0.905880  0.594120  1
  Al  Al13  1  0.405880  0.094120  0.905880  1
  Al  Al14  1  0.094120  0.905880  0.405880  1
  Al  Al15  1  0.344120  0.344120  0.344120  1
  Al  Al16  1  0.594120  0.594120  0.594120  1
  Al  Al17  1  0.009280  0.509280  0.990720  1
  Al  Al18  1  0.759280  0.740720  0.259280  1
  Al  Al19  1  0.990720  0.990720  0.990720  1
  Al  Al20  1  0.740720  0.259280  0.759280  1
  Al  Al21  1  0.240720  0.240720  0.240720  1
  Al  Al22  1  0.009280  0.490720  0.509280  1
  Al  Al23  1  0.490720  0.509280  0.009280  1
  Al  Al24  1  0.990720  0.009280  0.509280  1
  Al  Al25  1  0.509280  0.990720  0.009280  1
  Al  Al26  1  0.509280  0.009280  0.490720  1
  Al  Al27  1  0.759280  0.259280  0.240720  1
  Al  Al28  1  0.259280  0.759280  0.740720  1
  Al  Al29  1  0.259280  0.240720  0.759280  1
  Al  Al30  1  0.240720  0.759280  0.259280  1
  Al  Al31  1  0.490720  0.490720  0.490720  1
  Al  Al32  1  0.740720  0.740720  0.740720  1
  P  P33  1  0.136030  0.645050  0.094880  1.0
  P  P34  1  0.895050  0.613970  0.155120  1.0
  P  P35  1  0.863970  0.854950  0.094880  1.0
  P  P36  1  0.604950  0.386030  0.655120  1.0
  P  P37  1  0.113970  0.344880  0.104950  1.0
  P  P38  1  0.136030  0.354950  0.405120  1.0
  P  P39  1  0.613970  0.155120  0.895050  1.0
  P  P40  1  0.655120  0.604950  0.386030  1.0
  P  P41  1  0.363970  0.645050  0.905120  1.0
  P  P42  1  0.344880  0.104950  0.113970  1.0
  P  P43  1  0.094880  0.136030  0.645050  1.0
  P  P44  1  0.645050  0.094880  0.136030  1.0
  P  P45  1  0.354950  0.405120  0.136030  1.0
  P  P46  1  0.094880  0.863970  0.854950  1.0
  P  P47  1  0.854950  0.094880  0.863970  1.0
  P  P48  1  0.905120  0.363970  0.645050  1.0
  P  P49  1  0.405120  0.136030  0.354950  1.0
  P  P50  1  0.645050  0.905120  0.363970  1.0
  P  P51  1  0.104950  0.113970  0.344880  1.0
  P  P52  1  0.895050  0.386030  0.344880  1.0
  P  P53  1  0.386030  0.655120  0.604950  1.0
  P  P54  1  0.386030  0.344880  0.895050  1.0
  P  P55  1  0.155120  0.895050  0.613970  1.0
  P  P56  1  0.344880  0.895050  0.386030  1.0
  P  P57  1  0.636030  0.145050  0.594880  1.0
  P  P58  1  0.395050  0.113970  0.655120  1.0
  P  P59  1  0.363970  0.354950  0.594880  1.0
  P  P60  1  0.104950  0.886030  0.155120  1.0
  P  P61  1  0.613970  0.844880  0.604950  1.0
  P  P62  1  0.636030  0.854950  0.905120  1.0
  P  P63  1  0.113970  0.655120  0.395050  1.0
  P  P64  1  0.155120  0.104950  0.886030  1.0
  P  P65  1  0.863970  0.145050  0.405120  1.0
  P  P66  1  0.844880  0.604950  0.613970  1.0
  P  P67  1  0.594880  0.636030  0.145050  1.0
  P  P68  1  0.145050  0.594880  0.636030  1.0
  P  P69  1  0.854950  0.905120  0.636030  1.0
  P  P70  1  0.594880  0.363970  0.354950  1.0
  P  P71  1  0.354950  0.594880  0.363970  1.0
  P  P72  1  0.405120  0.863970  0.145050  1.0
  P  P73  1  0.905120  0.636030  0.854950  1.0
  P  P74  1  0.145050  0.405120  0.863970  1.0
  P  P75  1  0.604950  0.613970  0.844880  1.0
  P  P76  1  0.395050  0.886030  0.844880  1.0
  P  P77  1  0.886030  0.155120  0.104950  1.0
  P  P78  1  0.886030  0.844880  0.395050  1.0
  P  P79  1  0.655120  0.395050  0.113970  1.0
  P  P80  1  0.844880  0.395050  0.886030  1.0
  P  P81  1  0.177580  0.687510  0.051460  1.0
  P  P82  1  0.937510  0.572420  0.198540  1.0
  P  P83  1  0.822420  0.812490  0.051460  1.0
  P  P84  1  0.562490  0.427580  0.698540  1.0
  P  P85  1  0.072420  0.301460  0.062490  1.0
  P  P86  1  0.177580  0.312490  0.448540  1.0
  P  P87  1  0.572420  0.198540  0.937510  1.0
  P  P88  1  0.698540  0.562490  0.427580  1.0
  P  P89  1  0.322420  0.687510  0.948540  1.0
  P  P90  1  0.301460  0.062490  0.072420  1.0
  P  P91  1  0.051460  0.177580  0.687510  1.0
  P  P92  1  0.687510  0.051460  0.177580  1.0
  P  P93  1  0.312490  0.448540  0.177580  1.0
  P  P94  1  0.051460  0.822420  0.812490  1.0
  P  P95  1  0.812490  0.051460  0.822420  1.0
  P  P96  1  0.948540  0.322420  0.687510  1.0
  P  P97  1  0.448540  0.177580  0.312490  1.0
  P  P98  1  0.687510  0.948540  0.322420  1.0
  P  P99  1  0.062490  0.072420  0.301460  1.0
  P  P100  1  0.937510  0.427580  0.301460  1.0
  P  P101  1  0.427580  0.698540  0.562490  1.0
  P  P102  1  0.427580  0.301460  0.937510  1.0
  P  P103  1  0.198540  0.937510  0.572420  1.0
  P  P104  1  0.301460  0.937510  0.427580  1.0
  P  P105  1  0.677580  0.187510  0.551460  1.0
  P  P106  1  0.437510  0.072420  0.698540  1.0
  P  P107  1  0.322420  0.312490  0.551460  1.0
  P  P108  1  0.062490  0.927580  0.198540  1.0
  P  P109  1  0.572420  0.801460  0.562490  1.0
  P  P110  1  0.677580  0.812490  0.948540  1.0
  P  P111  1  0.072420  0.698540  0.437510  1.0
  P  P112  1  0.198540  0.062490  0.927580  1.0
  P  P113  1  0.822420  0.187510  0.448540  1.0
  P  P114  1  0.801460  0.562490  0.572420  1.0
  P  P115  1  0.551460  0.677580  0.187510  1.0
  P  P116  1  0.187510  0.551460  0.677580  1.0
  P  P117  1  0.812490  0.948540  0.677580  1.0
  P  P118  1  0.551460  0.322420  0.312490  1.0
  P  P119  1  0.312490  0.551460  0.322420  1.0
  P  P120  1  0.448540  0.822420  0.187510  1.0
  P  P121  1  0.948540  0.677580  0.812490  1.0
  P  P122  1  0.187510  0.448540  0.822420  1.0
  P  P123  1  0.562490  0.572420  0.801460  1.0
  P  P124  1  0.437510  0.927580  0.801460  1.0
  P  P125  1  0.927580  0.198540  0.062490  1.0
  P  P126  1  0.927580  0.801460  0.437510  1.0
  P  P127  1  0.698540  0.437510  0.072420  1.0
  P  P128  1  0.801460  0.437510  0.927580  1.0
  H  H129  1  0.011300  0.706600  0.080000  1
  H  H130  1  0.956600  0.738700  0.170000  1
  H  H131  1  0.988700  0.793400  0.080000  1
  H  H132  1  0.543400  0.261300  0.670000  1
  H  H133  1  0.238700  0.330000  0.043400  1
  H  H134  1  0.011300  0.293400  0.420000  1
  H  H135  1  0.738700  0.170000  0.956600  1
  H  H136  1  0.670000  0.543400  0.261300  1
  H  H137  1  0.488700  0.706600  0.920000  1
  H  H138  1  0.330000  0.043400  0.238700  1
  H  H139  1  0.080000  0.011300  0.706600  1
  H  H140  1  0.706600  0.080000  0.011300  1
  H  H141  1  0.293400  0.420000  0.011300  1
  H  H142  1  0.080000  0.988700  0.793400  1
  H  H143  1  0.793400  0.080000  0.988700  1
  H  H144  1  0.920000  0.488700  0.706600  1
  H  H145  1  0.420000  0.011300  0.293400  1
  H  H146  1  0.706600  0.920000  0.488700  1
  H  H147  1  0.043400  0.238700  0.330000  1
  H  H148  1  0.956600  0.261300  0.330000  1
  H  H149  1  0.261300  0.670000  0.543400  1
  H  H150  1  0.261300  0.330000  0.956600  1
  H  H151  1  0.170000  0.956600  0.738700  1
  H  H152  1  0.330000  0.956600  0.261300  1
  H  H153  1  0.511300  0.206600  0.580000  1
  H  H154  1  0.456600  0.238700  0.670000  1
  H  H155  1  0.488700  0.293400  0.580000  1
  H  H156  1  0.043400  0.761300  0.170000  1
  H  H157  1  0.738700  0.830000  0.543400  1
  H  H158  1  0.511300  0.793400  0.920000  1
  H  H159  1  0.238700  0.670000  0.456600  1
  H  H160  1  0.170000  0.043400  0.761300  1
  H  H161  1  0.988700  0.206600  0.420000  1
  H  H162  1  0.830000  0.543400  0.738700  1
  H  H163  1  0.580000  0.511300  0.206600  1
  H  H164  1  0.206600  0.580000  0.511300  1
  H  H165  1  0.793400  0.920000  0.511300  1
  H  H166  1  0.580000  0.488700  0.293400  1
  H  H167  1  0.293400  0.580000  0.488700  1
  H  H168  1  0.420000  0.988700  0.206600  1
  H  H169  1  0.920000  0.511300  0.793400  1
  H  H170  1  0.206600  0.420000  0.988700  1
  H  H171  1  0.543400  0.738700  0.830000  1
  H  H172  1  0.456600  0.761300  0.830000  1
  H  H173  1  0.761300  0.170000  0.043400  1
  H  H174  1  0.761300  0.830000  0.456600  1
  H  H175  1  0.670000  0.456600  0.238700  1
  H  H176  1  0.830000  0.456600  0.761300  1
  H  H177  1  0.992900  0.703300  0.110600  1
  H  H178  1  0.953300  0.757100  0.139400  1
  H  H179  1  0.007100  0.796700  0.110600  1
  H  H180  1  0.546700  0.242900  0.639400  1
  H  H181  1  0.257100  0.360600  0.046700  1
  H  H182  1  0.992900  0.296700  0.389400  1
  H  H183  1  0.757100  0.139400  0.953300  1
  H  H184  1  0.639400  0.546700  0.242900  1
  H  H185  1  0.507100  0.703300  0.889400  1
  H  H186  1  0.360600  0.046700  0.257100  1
  H  H187  1  0.110600  0.992900  0.703300  1
  H  H188  1  0.703300  0.110600  0.992900  1
  H  H189  1  0.296700  0.389400  0.992900  1
  H  H190  1  0.110600  0.007100  0.796700  1
  H  H191  1  0.796700  0.110600  0.007100  1
  H  H192  1  0.889400  0.507100  0.703300  1
  H  H193  1  0.389400  0.992900  0.296700  1
  H  H194  1  0.703300  0.889400  0.507100  1
  H  H195  1  0.046700  0.257100  0.360600  1
  H  H196  1  0.953300  0.242900  0.360600  1
  H  H197  1  0.242900  0.639400  0.546700  1
  H  H198  1  0.242900  0.360600  0.953300  1
  H  H199  1  0.139400  0.953300  0.757100  1
  H  H200  1  0.360600  0.953300  0.242900  1
  H  H201  1  0.492900  0.203300  0.610600  1
  H  H202  1  0.453300  0.257100  0.639400  1
  H  H203  1  0.507100  0.296700  0.610600  1
  H  H204  1  0.046700  0.742900  0.139400  1
  H  H205  1  0.757100  0.860600  0.546700  1
  H  H206  1  0.492900  0.796700  0.889400  1
  H  H207  1  0.257100  0.639400  0.453300  1
  H  H208  1  0.139400  0.046700  0.742900  1
  H  H209  1  0.007100  0.203300  0.389400  1
  H  H210  1  0.860600  0.546700  0.757100  1
  H  H211  1  0.610600  0.492900  0.203300  1
  H  H212  1  0.203300  0.610600  0.492900  1
  H  H213  1  0.796700  0.889400  0.492900  1
  H  H214  1  0.610600  0.507100  0.296700  1
  H  H215  1  0.296700  0.610600  0.507100  1
  H  H216  1  0.389400  0.007100  0.203300  1
  H  H217  1  0.889400  0.492900  0.796700  1
  H  H218  1  0.203300  0.389400  0.007100  1
  H  H219  1  0.546700  0.757100  0.860600  1
  H  H220  1  0.453300  0.742900  0.860600  1
  H  H221  1  0.742900  0.139400  0.046700  1
  H  H222  1  0.742900  0.860600  0.453300  1
  H  H223  1  0.639400  0.453300  0.257100  1
  H  H224  1  0.860600  0.453300  0.742900  1
  H  H225  1  0.976700  0.716000  0.081300  1
  H  H226  1  0.966000  0.773300  0.168700  1
  H  H227  1  0.023300  0.784000  0.081300  1
  H  H228  1  0.534000  0.226700  0.668700  1
  H  H229  1  0.273300  0.331300  0.034000  1
  H  H230  1  0.976700  0.284000  0.418700  1
  H  H231  1  0.773300  0.168700  0.966000  1
  H  H232  1  0.668700  0.534000  0.226700  1
  H  H233  1  0.523300  0.716000  0.918700  1
  H  H234  1  0.331300  0.034000  0.273300  1
  H  H235  1  0.081300  0.976700  0.716000  1
  H  H236  1  0.716000  0.081300  0.976700  1
  H  H237  1  0.284000  0.418700  0.976700  1
  H  H238  1  0.081300  0.023300  0.784000  1
  H  H239  1  0.784000  0.081300  0.023300  1
  H  H240  1  0.918700  0.523300  0.716000  1
  H  H241  1  0.418700  0.976700  0.284000  1
  H  H242  1  0.716000  0.918700  0.523300  1
  H  H243  1  0.034000  0.273300  0.331300  1
  H  H244  1  0.966000  0.226700  0.331300  1
  H  H245  1  0.226700  0.668700  0.534000  1
  H  H246  1  0.226700  0.331300  0.966000  1
  H  H247  1  0.168700  0.966000  0.773300  1
  H  H248  1  0.331300  0.966000  0.226700  1
  H  H249  1  0.476700  0.216000  0.581300  1
  H  H250  1  0.466000  0.273300  0.668700  1
  H  H251  1  0.523300  0.284000  0.581300  1
  H  H252  1  0.034000  0.726700  0.168700  1
  H  H253  1  0.773300  0.831300  0.534000  1
  H  H254  1  0.476700  0.784000  0.918700  1
  H  H255  1  0.273300  0.668700  0.466000  1
  H  H256  1  0.168700  0.034000  0.726700  1
  H  H257  1  0.023300  0.216000  0.418700  1
  H  H258  1  0.831300  0.534000  0.773300  1
  H  H259  1  0.581300  0.476700  0.216000  1
  H  H260  1  0.216000  0.581300  0.476700  1
  H  H261  1  0.784000  0.918700  0.476700  1
  H  H262  1  0.581300  0.523300  0.284000  1
  H  H263  1  0.284000  0.581300  0.523300  1
  H  H264  1  0.418700  0.023300  0.216000  1
  H  H265  1  0.918700  0.476700  0.784000  1
  H  H266  1  0.216000  0.418700  0.023300  1
  H  H267  1  0.534000  0.773300  0.831300  1
  H  H268  1  0.466000  0.726700  0.831300  1
  H  H269  1  0.726700  0.168700  0.034000  1
  H  H270  1  0.726700  0.831300  0.466000  1
  H  H271  1  0.668700  0.466000  0.273300  1
  H  H272  1  0.831300  0.466000  0.726700  1
  H  H273  1  0.069400  0.595300  0.177700  1
  H  H274  1  0.845300  0.680600  0.072300  1
  H  H275  1  0.930600  0.904700  0.177700  1
  H  H276  1  0.654700  0.319400  0.572300  1
  H  H277  1  0.180600  0.427700  0.154700  1
  H  H278  1  0.069400  0.404700  0.322300  1
  H  H279  1  0.680600  0.072300  0.845300  1
  H  H280  1  0.572300  0.654700  0.319400  1
  H  H281  1  0.430600  0.595300  0.822300  1
  H  H282  1  0.427700  0.154700  0.180600  1
  H  H283  1  0.177700  0.069400  0.595300  1
  H  H284  1  0.595300  0.177700  0.069400  1
  H  H285  1  0.404700  0.322300  0.069400  1
  H  H286  1  0.177700  0.930600  0.904700  1
  H  H287  1  0.904700  0.177700  0.930600  1
  H  H288  1  0.822300  0.430600  0.595300  1
  H  H289  1  0.322300  0.069400  0.404700  1
  H  H290  1  0.595300  0.822300  0.430600  1
  H  H291  1  0.154700  0.180600  0.427700  1
  H  H292  1  0.845300  0.319400  0.427700  1
  H  H293  1  0.319400  0.572300  0.654700  1
  H  H294  1  0.319400  0.427700  0.845300  1
  H  H295  1  0.072300  0.845300  0.680600  1
  H  H296  1  0.427700  0.845300  0.319400  1
  H  H297  1  0.569400  0.095300  0.677700  1
  H  H298  1  0.345300  0.180600  0.572300  1
  H  H299  1  0.430600  0.404700  0.677700  1
  H  H300  1  0.154700  0.819400  0.072300  1
  H  H301  1  0.680600  0.927700  0.654700  1
  H  H302  1  0.569400  0.904700  0.822300  1
  H  H303  1  0.180600  0.572300  0.345300  1
  H  H304  1  0.072300  0.154700  0.819400  1
  H  H305  1  0.930600  0.095300  0.322300  1
  H  H306  1  0.927700  0.654700  0.680600  1
  H  H307  1  0.677700  0.569400  0.095300  1
  H  H308  1  0.095300  0.677700  0.569400  1
  H  H309  1  0.904700  0.822300  0.569400  1
  H  H310  1  0.677700  0.430600  0.404700  1
  H  H311  1  0.404700  0.677700  0.430600  1
  H  H312  1  0.322300  0.930600  0.095300  1
  H  H313  1  0.822300  0.569400  0.904700  1
  H  H314  1  0.095300  0.322300  0.930600  1
  H  H315  1  0.654700  0.680600  0.927700  1
  H  H316  1  0.345300  0.819400  0.927700  1
  H  H317  1  0.819400  0.072300  0.154700  1
  H  H318  1  0.819400  0.927700  0.345300  1
  H  H319  1  0.572300  0.345300  0.180600  1
  H  H320  1  0.927700  0.345300  0.819400  1
  H  H321  1  0.055100  0.619300  0.200200  1
  H  H322  1  0.869300  0.694900  0.049800  1
  H  H323  1  0.944900  0.880700  0.200200  1
  H  H324  1  0.630700  0.305100  0.549800  1
  H  H325  1  0.194900  0.450200  0.130700  1
  H  H326  1  0.055100  0.380700  0.299800  1
  H  H327  1  0.694900  0.049800  0.869300  1
  H  H328  1  0.549800  0.630700  0.305100  1
  H  H329  1  0.444900  0.619300  0.799800  1
  H  H330  1  0.450200  0.130700  0.194900  1
  H  H331  1  0.200200  0.055100  0.619300  1
  H  H332  1  0.619300  0.200200  0.055100  1
  H  H333  1  0.380700  0.299800  0.055100  1
  H  H334  1  0.200200  0.944900  0.880700  1
  H  H335  1  0.880700  0.200200  0.944900  1
  H  H336  1  0.799800  0.444900  0.619300  1
  H  H337  1  0.299800  0.055100  0.380700  1
  H  H338  1  0.619300  0.799800  0.444900  1
  H  H339  1  0.130700  0.194900  0.450200  1
  H  H340  1  0.869300  0.305100  0.450200  1
  H  H341  1  0.305100  0.549800  0.630700  1
  H  H342  1  0.305100  0.450200  0.869300  1
  H  H343  1  0.049800  0.869300  0.694900  1
  H  H344  1  0.450200  0.869300  0.305100  1
  H  H345  1  0.555100  0.119300  0.700200  1
  H  H346  1  0.369300  0.194900  0.549800  1
  H  H347  1  0.444900  0.380700  0.700200  1
  H  H348  1  0.130700  0.805100  0.049800  1
  H  H349  1  0.694900  0.950200  0.630700  1
  H  H350  1  0.555100  0.880700  0.799800  1
  H  H351  1  0.194900  0.549800  0.369300  1
  H  H352  1  0.049800  0.130700  0.805100  1
  H  H353  1  0.944900  0.119300  0.299800  1
  H  H354  1  0.950200  0.630700  0.694900  1
  H  H355  1  0.700200  0.555100  0.119300  1
  H  H356  1  0.119300  0.700200  0.555100  1
  H  H357  1  0.880700  0.799800  0.555100  1
  H  H358  1  0.700200  0.444900  0.380700  1
  H  H359  1  0.380700  0.700200  0.444900  1
  H  H360  1  0.299800  0.944900  0.119300  1
  H  H361  1  0.799800  0.555100  0.880700  1
  H  H362  1  0.119300  0.299800  0.944900  1
  H  H363  1  0.630700  0.694900  0.950200  1
  H  H364  1  0.369300  0.805100  0.950200  1
  H  H365  1  0.805100  0.049800  0.130700  1
  H  H366  1  0.805100  0.950200  0.369300  1
  H  H367  1  0.549800  0.369300  0.194900  1
  H  H368  1  0.950200  0.369300  0.805100  1
  H  H369  1  0.074100  0.591700  0.213100  1
  H  H370  1  0.841700  0.675900  0.036900  1
  H  H371  1  0.925900  0.908300  0.213100  1
  H  H372  1  0.658300  0.324100  0.536900  1
  H  H373  1  0.175900  0.463100  0.158300  1
  H  H374  1  0.074100  0.408300  0.286900  1
  H  H375  1  0.675900  0.036900  0.841700  1
  H  H376  1  0.536900  0.658300  0.324100  1
  H  H377  1  0.425900  0.591700  0.786900  1
  H  H378  1  0.463100  0.158300  0.175900  1
  H  H379  1  0.213100  0.074100  0.591700  1
  H  H380  1  0.591700  0.213100  0.074100  1
  H  H381  1  0.408300  0.286900  0.074100  1
  H  H382  1  0.213100  0.925900  0.908300  1
  H  H383  1  0.908300  0.213100  0.925900  1
  H  H384  1  0.786900  0.425900  0.591700  1
  H  H385  1  0.286900  0.074100  0.408300  1
  H  H386  1  0.591700  0.786900  0.425900  1
  H  H387  1  0.158300  0.175900  0.463100  1
  H  H388  1  0.841700  0.324100  0.463100  1
  H  H389  1  0.324100  0.536900  0.658300  1
  H  H390  1  0.324100  0.463100  0.841700  1
  H  H391  1  0.036900  0.841700  0.675900  1
  H  H392  1  0.463100  0.841700  0.324100  1
  H  H393  1  0.574100  0.091700  0.713100  1
  H  H394  1  0.341700  0.175900  0.536900  1
  H  H395  1  0.425900  0.408300  0.713100  1
  H  H396  1  0.158300  0.824100  0.036900  1
  H  H397  1  0.675900  0.963100  0.658300  1
  H  H398  1  0.574100  0.908300  0.786900  1
  H  H399  1  0.175900  0.536900  0.341700  1
  H  H400  1  0.036900  0.158300  0.824100  1
  H  H401  1  0.925900  0.091700  0.286900  1
  H  H402  1  0.963100  0.658300  0.675900  1
  H  H403  1  0.713100  0.574100  0.091700  1
  H  H404  1  0.091700  0.713100  0.574100  1
  H  H405  1  0.908300  0.786900  0.574100  1
  H  H406  1  0.713100  0.425900  0.408300  1
  H  H407  1  0.408300  0.713100  0.425900  1
  H  H408  1  0.286900  0.925900  0.091700  1
  H  H409  1  0.786900  0.574100  0.908300  1
  H  H410  1  0.091700  0.286900  0.925900  1
  H  H411  1  0.658300  0.675900  0.963100  1
  H  H412  1  0.341700  0.824100  0.963100  1
  H  H413  1  0.824100  0.036900  0.158300  1
  H  H414  1  0.824100  0.963100  0.341700  1
  H  H415  1  0.536900  0.341700  0.175900  1
  H  H416  1  0.963100  0.341700  0.824100  1
  H  H417  1  0.971700  0.696800  0.060600  1
  H  H418  1  0.946800  0.778300  0.189400  1
  H  H419  1  0.028300  0.803200  0.060600  1
  H  H420  1  0.553200  0.221700  0.689400  1
  H  H421  1  0.278300  0.310600  0.053200  1
  H  H422  1  0.971700  0.303200  0.439400  1
  H  H423  1  0.778300  0.189400  0.946800  1
  H  H424  1  0.689400  0.553200  0.221700  1
  H  H425  1  0.528300  0.696800  0.939400  1
  H  H426  1  0.310600  0.053200  0.278300  1
  H  H427  1  0.060600  0.971700  0.696800  1
  H  H428  1  0.696800  0.060600  0.971700  1
  H  H429  1  0.303200  0.439400  0.971700  1
  H  H430  1  0.060600  0.028300  0.803200  1
  H  H431  1  0.803200  0.060600  0.028300  1
  H  H432  1  0.939400  0.528300  0.696800  1
  H  H433  1  0.439400  0.971700  0.303200  1
  H  H434  1  0.696800  0.939400  0.528300  1
  H  H435  1  0.053200  0.278300  0.310600  1
  H  H436  1  0.946800  0.221700  0.310600  1
  H  H437  1  0.221700  0.689400  0.553200  1
  H  H438  1  0.221700  0.310600  0.946800  1
  H  H439  1  0.189400  0.946800  0.778300  1
  H  H440  1  0.310600  0.946800  0.221700  1
  H  H441  1  0.471700  0.196800  0.560600  1
  H  H442  1  0.446800  0.278300  0.689400  1
  H  H443  1  0.528300  0.303200  0.560600  1
  H  H444  1  0.053200  0.721700  0.189400  1
  H  H445  1  0.778300  0.810600  0.553200  1
  H  H446  1  0.471700  0.803200  0.939400  1
  H  H447  1  0.278300  0.689400  0.446800  1
  H  H448  1  0.189400  0.053200  0.721700  1
  H  H449  1  0.028300  0.196800  0.439400  1
  H  H450  1  0.810600  0.553200  0.778300  1
  H  H451  1  0.560600  0.471700  0.196800  1
  H  H452  1  0.196800  0.560600  0.471700  1
  H  H453  1  0.803200  0.939400  0.471700  1
  H  H454  1  0.560600  0.528300  0.303200  1
  H  H455  1  0.303200  0.560600  0.528300  1
  H  H456  1  0.439400  0.028300  0.196800  1
  H  H457  1  0.939400  0.471700  0.803200  1
  H  H458  1  0.196800  0.439400  0.028300  1
  H  H459  1  0.553200  0.778300  0.810600  1
  H  H460  1  0.446800  0.721700  0.810600  1
  H  H461  1  0.721700  0.189400  0.053200  1
  H  H462  1  0.721700  0.810600  0.446800  1
  H  H463  1  0.689400  0.446800  0.278300  1
  H  H464  1  0.810600  0.446800  0.721700  1
  H  H465  1  0.966600  0.691000  0.095600  1
  H  H466  1  0.941000  0.783400  0.154400  1
  H  H467  1  0.033400  0.809000  0.095600  1
  H  H468  1  0.559000  0.216600  0.654400  1
  H  H469  1  0.283400  0.345600  0.059000  1
  H  H470  1  0.966600  0.309000  0.404400  1
  H  H471  1  0.783400  0.154400  0.941000  1
  H  H472  1  0.654400  0.559000  0.216600  1
  H  H473  1  0.533400  0.691000  0.904400  1
  H  H474  1  0.345600  0.059000  0.283400  1
  H  H475  1  0.095600  0.966600  0.691000  1
  H  H476  1  0.691000  0.095600  0.966600  1
  H  H477  1  0.309000  0.404400  0.966600  1
  H  H478  1  0.095600  0.033400  0.809000  1
  H  H479  1  0.809000  0.095600  0.033400  1
  H  H480  1  0.904400  0.533400  0.691000  1
  H  H481  1  0.404400  0.966600  0.309000  1
  H  H482  1  0.691000  0.904400  0.533400  1
  H  H483  1  0.059000  0.283400  0.345600  1
  H  H484  1  0.941000  0.216600  0.345600  1
  H  H485  1  0.216600  0.654400  0.559000  1
  H  H486  1  0.216600  0.345600  0.941000  1
  H  H487  1  0.154400  0.941000  0.783400  1
  H  H488  1  0.345600  0.941000  0.216600  1
  H  H489  1  0.466600  0.191000  0.595600  1
  H  H490  1  0.441000  0.283400  0.654400  1
  H  H491  1  0.533400  0.309000  0.595600  1
  H  H492  1  0.059000  0.716600  0.154400  1
  H  H493  1  0.783400  0.845600  0.559000  1
  H  H494  1  0.466600  0.809000  0.904400  1
  H  H495  1  0.283400  0.654400  0.441000  1
  H  H496  1  0.154400  0.059000  0.716600  1
  H  H497  1  0.033400  0.191000  0.404400  1
  H  H498  1  0.845600  0.559000  0.783400  1
  H  H499  1  0.595600  0.466600  0.191000  1
  H  H500  1  0.191000  0.595600  0.466600  1
  H  H501  1  0.809000  0.904400  0.466600  1
  H  H502  1  0.595600  0.533400  0.309000  1
  H  H503  1  0.309000  0.595600  0.533400  1
  H  H504  1  0.404400  0.033400  0.191000  1
  H  H505  1  0.904400  0.466600  0.809000  1
  H  H506  1  0.191000  0.404400  0.033400  1
  H  H507  1  0.559000  0.783400  0.845600  1
  H  H508  1  0.441000  0.716600  0.845600  1
  H  H509  1  0.716600  0.154400  0.059000  1
  H  H510  1  0.716600  0.845600  0.441000  1
  H  H511  1  0.654400  0.441000  0.283400  1
  H  H512  1  0.845600  0.441000  0.716600  1
  H  H513  1  0.938800  0.689900  0.073000  1
  H  H514  1  0.939900  0.811200  0.177000  1
  H  H515  1  0.061200  0.810100  0.073000  1
  H  H516  1  0.560100  0.188800  0.677000  1
  H  H517  1  0.311200  0.323000  0.060100  1
  H  H518  1  0.938800  0.310100  0.427000  1
  H  H519  1  0.811200  0.177000  0.939900  1
  H  H520  1  0.677000  0.560100  0.188800  1
  H  H521  1  0.561200  0.689900  0.927000  1
  H  H522  1  0.323000  0.060100  0.311200  1
  H  H523  1  0.073000  0.938800  0.689900  1
  H  H524  1  0.689900  0.073000  0.938800  1
  H  H525  1  0.310100  0.427000  0.938800  1
  H  H526  1  0.073000  0.061200  0.810100  1
  H  H527  1  0.810100  0.073000  0.061200  1
  H  H528  1  0.927000  0.561200  0.689900  1
  H  H529  1  0.427000  0.938800  0.310100  1
  H  H530  1  0.689900  0.927000  0.561200  1
  H  H531  1  0.060100  0.311200  0.323000  1
  H  H532  1  0.939900  0.188800  0.323000  1
  H  H533  1  0.188800  0.677000  0.560100  1
  H  H534  1  0.188800  0.323000  0.939900  1
  H  H535  1  0.177000  0.939900  0.811200  1
  H  H536  1  0.323000  0.939900  0.188800  1
  H  H537  1  0.438800  0.189900  0.573000  1
  H  H538  1  0.439900  0.311200  0.677000  1
  H  H539  1  0.561200  0.310100  0.573000  1
  H  H540  1  0.060100  0.688800  0.177000  1
  H  H541  1  0.811200  0.823000  0.560100  1
  H  H542  1  0.438800  0.810100  0.927000  1
  H  H543  1  0.311200  0.677000  0.439900  1
  H  H544  1  0.177000  0.060100  0.688800  1
  H  H545  1  0.061200  0.189900  0.427000  1
  H  H546  1  0.823000  0.560100  0.811200  1
  H  H547  1  0.573000  0.438800  0.189900  1
  H  H548  1  0.189900  0.573000  0.438800  1
  H  H549  1  0.810100  0.927000  0.438800  1
  H  H550  1  0.573000  0.561200  0.310100  1
  H  H551  1  0.310100  0.573000  0.561200  1
  H  H552  1  0.427000  0.061200  0.189900  1
  H  H553  1  0.927000  0.438800  0.810100  1
  H  H554  1  0.189900  0.427000  0.061200  1
  H  H555  1  0.560100  0.811200  0.823000  1
  H  H556  1  0.439900  0.688800  0.823000  1
  H  H557  1  0.688800  0.177000  0.060100  1
  H  H558  1  0.688800  0.823000  0.439900  1
  H  H559  1  0.677000  0.439900  0.311200  1
  H  H560  1  0.823000  0.439900  0.688800  1
  H  H561  1  0.126200  0.725600  0.901200  1.0
  H  H562  1  0.975600  0.623800  0.348800  1.0
  H  H563  1  0.873800  0.774400  0.901200  1.0
  H  H564  1  0.524400  0.376200  0.848800  1.0
  H  H565  1  0.123800  0.151200  0.024400  1.0
  H  H566  1  0.126200  0.274400  0.598800  1.0
  H  H567  1  0.623800  0.348800  0.975600  1.0
  H  H568  1  0.848800  0.524400  0.376200  1.0
  H  H569  1  0.373800  0.725600  0.098800  1.0
  H  H570  1  0.151200  0.024400  0.123800  1.0
  H  H571  1  0.901200  0.126200  0.725600  1.0
  H  H572  1  0.725600  0.901200  0.126200  1.0
  H  H573  1  0.274400  0.598800  0.126200  1.0
  H  H574  1  0.901200  0.873800  0.774400  1.0
  H  H575  1  0.774400  0.901200  0.873800  1.0
  H  H576  1  0.098800  0.373800  0.725600  1.0
  H  H577  1  0.598800  0.126200  0.274400  1.0
  H  H578  1  0.725600  0.098800  0.373800  1.0
  H  H579  1  0.024400  0.123800  0.151200  1.0
  H  H580  1  0.975600  0.376200  0.151200  1.0
  H  H581  1  0.376200  0.848800  0.524400  1.0
  H  H582  1  0.376200  0.151200  0.975600  1.0
  H  H583  1  0.348800  0.975600  0.623800  1.0
  H  H584  1  0.151200  0.975600  0.376200  1.0
  H  H585  1  0.626200  0.225600  0.401200  1.0
  H  H586  1  0.475600  0.123800  0.848800  1.0
  H  H587  1  0.373800  0.274400  0.401200  1.0
  H  H588  1  0.024400  0.876200  0.348800  1.0
  H  H589  1  0.623800  0.651200  0.524400  1.0
  H  H590  1  0.626200  0.774400  0.098800  1.0
  H  H591  1  0.123800  0.848800  0.475600  1.0
  H  H592  1  0.348800  0.024400  0.876200  1.0
  H  H593  1  0.873800  0.225600  0.598800  1.0
  H  H594  1  0.651200  0.524400  0.623800  1.0
  H  H595  1  0.401200  0.626200  0.225600  1.0
  H  H596  1  0.225600  0.401200  0.626200  1.0
  H  H597  1  0.774400  0.098800  0.626200  1.0
  H  H598  1  0.401200  0.373800  0.274400  1.0
  H  H599  1  0.274400  0.401200  0.373800  1.0
  H  H600  1  0.598800  0.873800  0.225600  1.0
  H  H601  1  0.098800  0.626200  0.774400  1.0
  H  H602  1  0.225600  0.598800  0.873800  1.0
  H  H603  1  0.524400  0.623800  0.651200  1.0
  H  H604  1  0.475600  0.876200  0.651200  1.0
  H  H605  1  0.876200  0.348800  0.024400  1.0
  H  H606  1  0.876200  0.651200  0.475600  1.0
  H  H607  1  0.848800  0.475600  0.123800  1.0
  H  H608  1  0.651200  0.475600  0.876200  1.0
  H  H609  1  0.112900  0.713800  0.946700  1.0
  H  H610  1  0.963800  0.637100  0.303300  1.0
  H  H611  1  0.887100  0.786200  0.946700  1.0
  H  H612  1  0.536200  0.362900  0.803300  1.0
  H  H613  1  0.137100  0.196700  0.036200  1.0
  H  H614  1  0.112900  0.286200  0.553300  1.0
  H  H615  1  0.637100  0.303300  0.963800  1.0
  H  H616  1  0.803300  0.536200  0.362900  1.0
  H  H617  1  0.387100  0.713800  0.053300  1.0
  H  H618  1  0.196700  0.036200  0.137100  1.0
  H  H619  1  0.946700  0.112900  0.713800  1.0
  H  H620  1  0.713800  0.946700  0.112900  1.0
  H  H621  1  0.286200  0.553300  0.112900  1.0
  H  H622  1  0.946700  0.887100  0.786200  1.0
  H  H623  1  0.786200  0.946700  0.887100  1.0
  H  H624  1  0.053300  0.387100  0.713800  1.0
  H  H625  1  0.553300  0.112900  0.286200  1.0
  H  H626  1  0.713800  0.053300  0.387100  1.0
  H  H627  1  0.036200  0.137100  0.196700  1.0
  H  H628  1  0.963800  0.362900  0.196700  1.0
  H  H629  1  0.362900  0.803300  0.536200  1.0
  H  H630  1  0.362900  0.196700  0.963800  1.0
  H  H631  1  0.303300  0.963800  0.637100  1.0
  H  H632  1  0.196700  0.963800  0.362900  1.0
  H  H633  1  0.612900  0.213800  0.446700  1.0
  H  H634  1  0.463800  0.137100  0.803300  1.0
  H  H635  1  0.387100  0.286200  0.446700  1.0
  H  H636  1  0.036200  0.862900  0.303300  1.0
  H  H637  1  0.637100  0.696700  0.536200  1.0
  H  H638  1  0.612900  0.786200  0.053300  1.0
  H  H639  1  0.137100  0.803300  0.463800  1.0
  H  H640  1  0.303300  0.036200  0.862900  1.0
  H  H641  1  0.887100  0.213800  0.553300  1.0
  H  H642  1  0.696700  0.536200  0.637100  1.0
  H  H643  1  0.446700  0.612900  0.213800  1.0
  H  H644  1  0.213800  0.446700  0.612900  1.0
  H  H645  1  0.786200  0.053300  0.612900  1.0
  H  H646  1  0.446700  0.387100  0.286200  1.0
  H  H647  1  0.286200  0.446700  0.387100  1.0
  H  H648  1  0.553300  0.887100  0.213800  1.0
  H  H649  1  0.053300  0.612900  0.786200  1.0
  H  H650  1  0.213800  0.553300  0.887100  1.0
  H  H651  1  0.536200  0.637100  0.696700  1.0
  H  H652  1  0.463800  0.862900  0.696700  1.0
  H  H653  1  0.862900  0.303300  0.036200  1.0
  H  H654  1  0.862900  0.696700  0.463800  1.0
  H  H655  1  0.803300  0.463800  0.137100  1.0
  H  H656  1  0.696700  0.463800  0.862900  1.0
  H  H657  1  0.112000  0.703300  0.998500  1.0
  H  H658  1  0.953300  0.638000  0.251500  1.0
  H  H659  1  0.888000  0.796700  0.998500  1.0
  H  H660  1  0.546700  0.362000  0.751500  1.0
  H  H661  1  0.138000  0.248500  0.046700  1.0
  H  H662  1  0.112000  0.296700  0.501500  1.0
  H  H663  1  0.638000  0.251500  0.953300  1.0
  H  H664  1  0.751500  0.546700  0.362000  1.0
  H  H665  1  0.388000  0.703300  0.001500  1.0
  H  H666  1  0.248500  0.046700  0.138000  1.0
  H  H667  1  0.998500  0.112000  0.703300  1.0
  H  H668  1  0.703300  0.998500  0.112000  1.0
  H  H669  1  0.296700  0.501500  0.112000  1.0
  H  H670  1  0.998500  0.888000  0.796700  1.0
  H  H671  1  0.796700  0.998500  0.888000  1.0
  H  H672  1  0.001500  0.388000  0.703300  1.0
  H  H673  1  0.501500  0.112000  0.296700  1.0
  H  H674  1  0.703300  0.001500  0.388000  1.0
  H  H675  1  0.046700  0.138000  0.248500  1.0
  H  H676  1  0.953300  0.362000  0.248500  1.0
  H  H677  1  0.362000  0.751500  0.546700  1.0
  H  H678  1  0.362000  0.248500  0.953300  1.0
  H  H679  1  0.251500  0.953300  0.638000  1.0
  H  H680  1  0.248500  0.953300  0.362000  1.0
  H  H681  1  0.612000  0.203300  0.498500  1.0
  H  H682  1  0.453300  0.138000  0.751500  1.0
  H  H683  1  0.388000  0.296700  0.498500  1.0
  H  H684  1  0.046700  0.862000  0.251500  1.0
  H  H685  1  0.638000  0.748500  0.546700  1.0
  H  H686  1  0.612000  0.796700  0.001500  1.0
  H  H687  1  0.138000  0.751500  0.453300  1.0
  H  H688  1  0.251500  0.046700  0.862000  1.0
  H  H689  1  0.888000  0.203300  0.501500  1.0
  H  H690  1  0.748500  0.546700  0.638000  1.0
  H  H691  1  0.498500  0.612000  0.203300  1.0
  H  H692  1  0.203300  0.498500  0.612000  1.0
  H  H693  1  0.796700  0.001500  0.612000  1.0
  H  H694  1  0.498500  0.388000  0.296700  1.0
  H  H695  1  0.296700  0.498500  0.388000  1.0
  H  H696  1  0.501500  0.888000  0.203300  1.0
  H  H697  1  0.001500  0.612000  0.796700  1.0
  H  H698  1  0.203300  0.501500  0.888000  1.0
  H  H699  1  0.546700  0.638000  0.748500  1.0
  H  H700  1  0.453300  0.862000  0.748500  1.0
  H  H701  1  0.862000  0.251500  0.046700  1.0
  H  H702  1  0.862000  0.748500  0.453300  1.0
  H  H703  1  0.751500  0.453300  0.138000  1.0
  H  H704  1  0.748500  0.453300  0.862000  1.0
  H  H705  1  0.158800  0.628100  0.986600  1.0
  H  H706  1  0.878100  0.591200  0.263400  1.0
  H  H707  1  0.841200  0.871900  0.986600  1.0
  H  H708  1  0.621900  0.408800  0.763400  1.0
  H  H709  1  0.091200  0.236600  0.121900  1.0
  H  H710  1  0.158800  0.371900  0.513400  1.0
  H  H711  1  0.591200  0.263400  0.878100  1.0
  H  H712  1  0.763400  0.621900  0.408800  1.0
  H  H713  1  0.341200  0.628100  0.013400  1.0
  H  H714  1  0.236600  0.121900  0.091200  1.0
  H  H715  1  0.986600  0.158800  0.628100  1.0
  H  H716  1  0.628100  0.986600  0.158800  1.0
  H  H717  1  0.371900  0.513400  0.158800  1.0
  H  H718  1  0.986600  0.841200  0.871900  1.0
  H  H719  1  0.871900  0.986600  0.841200  1.0
  H  H720  1  0.013400  0.341200  0.628100  1.0
  H  H721  1  0.513400  0.158800  0.371900  1.0
  H  H722  1  0.628100  0.013400  0.341200  1.0
  H  H723  1  0.121900  0.091200  0.236600  1.0
  H  H724  1  0.878100  0.408800  0.236600  1.0
  H  H725  1  0.408800  0.763400  0.621900  1.0
  H  H726  1  0.408800  0.236600  0.878100  1.0
  H  H727  1  0.263400  0.878100  0.591200  1.0
  H  H728  1  0.236600  0.878100  0.408800  1.0
  H  H729  1  0.658800  0.128100  0.486600  1.0
  H  H730  1  0.378100  0.091200  0.763400  1.0
  H  H731  1  0.341200  0.371900  0.486600  1.0
  H  H732  1  0.121900  0.908800  0.263400  1.0
  H  H733  1  0.591200  0.736600  0.621900  1.0
  H  H734  1  0.658800  0.871900  0.013400  1.0
  H  H735  1  0.091200  0.763400  0.378100  1.0
  H  H736  1  0.263400  0.121900  0.908800  1.0
  H  H737  1  0.841200  0.128100  0.513400  1.0
  H  H738  1  0.736600  0.621900  0.591200  1.0
  H  H739  1  0.486600  0.658800  0.128100  1.0
  H  H740  1  0.128100  0.486600  0.658800  1.0
  H  H741  1  0.871900  0.013400  0.658800  1.0
  H  H742  1  0.486600  0.341200  0.371900  1.0
  H  H743  1  0.371900  0.486600  0.341200  1.0
  H  H744  1  0.513400  0.841200  0.128100  1.0
  H  H745  1  0.013400  0.658800  0.871900  1.0
  H  H746  1  0.128100  0.513400  0.841200  1.0
  H  H747  1  0.621900  0.591200  0.736600  1.0
  H  H748  1  0.378100  0.908800  0.736600  1.0
  H  H749  1  0.908800  0.263400  0.121900  1.0
  H  H750  1  0.908800  0.736600  0.378100  1.0
  H  H751  1  0.763400  0.378100  0.091200  1.0
  H  H752  1  0.736600  0.378100  0.908800  1.0
  H  H753  1  0.124800  0.760500  0.858000  1.0
  H  H754  1  0.010500  0.625200  0.392000  1.0
  H  H755  1  0.875200  0.739500  0.858000  1.0
  H  H756  1  0.489500  0.374800  0.892000  1.0
  H  H757  1  0.125200  0.108000  0.989500  1.0
  H  H758  1  0.124800  0.239500  0.642000  1.0
  H  H759  1  0.625200  0.392000  0.010500  1.0
  H  H760  1  0.892000  0.489500  0.374800  1.0
  H  H761  1  0.375200  0.760500  0.142000  1.0
  H  H762  1  0.108000  0.989500  0.125200  1.0
  H  H763  1  0.858000  0.124800  0.760500  1.0
  H  H764  1  0.760500  0.858000  0.124800  1.0
  H  H765  1  0.239500  0.642000  0.124800  1.0
  H  H766  1  0.858000  0.875200  0.739500  1.0
  H  H767  1  0.739500  0.858000  0.875200  1.0
  H  H768  1  0.142000  0.375200  0.760500  1.0
  H  H769  1  0.642000  0.124800  0.239500  1.0
  H  H770  1  0.760500  0.142000  0.375200  1.0
  H  H771  1  0.989500  0.125200  0.108000  1.0
  H  H772  1  0.010500  0.374800  0.108000  1.0
  H  H773  1  0.374800  0.892000  0.489500  1.0
  H  H774  1  0.374800  0.108000  0.010500  1.0
  H  H775  1  0.392000  0.010500  0.625200  1.0
  H  H776  1  0.108000  0.010500  0.374800  1.0
  H  H777  1  0.624800  0.260500  0.358000  1.0
  H  H778  1  0.510500  0.125200  0.892000  1.0
  H  H779  1  0.375200  0.239500  0.358000  1.0
  H  H780  1  0.989500  0.874800  0.392000  1.0
  H  H781  1  0.625200  0.608000  0.489500  1.0
  H  H782  1  0.624800  0.739500  0.142000  1.0
  H  H783  1  0.125200  0.892000  0.510500  1.0
  H  H784  1  0.392000  0.989500  0.874800  1.0
  H  H785  1  0.875200  0.260500  0.642000  1.0
  H  H786  1  0.608000  0.489500  0.625200  1.0
  H  H787  1  0.358000  0.624800  0.260500  1.0
  H  H788  1  0.260500  0.358000  0.624800  1.0
  H  H789  1  0.739500  0.142000  0.624800  1.0
  H  H790  1  0.358000  0.375200  0.239500  1.0
  H  H791  1  0.239500  0.358000  0.375200  1.0
  H  H792  1  0.642000  0.875200  0.260500  1.0
  H  H793  1  0.142000  0.624800  0.739500  1.0
  H  H794  1  0.260500  0.642000  0.875200  1.0
  H  H795  1  0.489500  0.625200  0.608000  1.0
  H  H796  1  0.510500  0.874800  0.608000  1.0
  H  H797  1  0.874800  0.392000  0.989500  1.0
  H  H798  1  0.874800  0.608000  0.510500  1.0
  H  H799  1  0.892000  0.510500  0.125200  1.0
  H  H800  1  0.608000  0.510500  0.874800  1.0
  H  H801  1  0.139700  0.751300  0.826700  1.0
  H  H802  1  0.001300  0.610300  0.423300  1.0
  H  H803  1  0.860300  0.748700  0.826700  1.0
  H  H804  1  0.498700  0.389700  0.923300  1.0
  H  H805  1  0.110300  0.076700  0.998700  1.0
  H  H806  1  0.139700  0.248700  0.673300  1.0
  H  H807  1  0.610300  0.423300  0.001300  1.0
  H  H808  1  0.923300  0.498700  0.389700  1.0
  H  H809  1  0.360300  0.751300  0.173300  1.0
  H  H810  1  0.076700  0.998700  0.110300  1.0
  H  H811  1  0.826700  0.139700  0.751300  1.0
  H  H812  1  0.751300  0.826700  0.139700  1.0
  H  H813  1  0.248700  0.673300  0.139700  1.0
  H  H814  1  0.826700  0.860300  0.748700  1.0
  H  H815  1  0.748700  0.826700  0.860300  1.0
  H  H816  1  0.173300  0.360300  0.751300  1.0
  H  H817  1  0.673300  0.139700  0.248700  1.0
  H  H818  1  0.751300  0.173300  0.360300  1.0
  H  H819  1  0.998700  0.110300  0.076700  1.0
  H  H820  1  0.001300  0.389700  0.076700  1.0
  H  H821  1  0.389700  0.923300  0.498700  1.0
  H  H822  1  0.389700  0.076700  0.001300  1.0
  H  H823  1  0.423300  0.001300  0.610300  1.0
  H  H824  1  0.076700  0.001300  0.389700  1.0
  H  H825  1  0.639700  0.251300  0.326700  1.0
  H  H826  1  0.501300  0.110300  0.923300  1.0
  H  H827  1  0.360300  0.248700  0.326700  1.0
  H  H828  1  0.998700  0.889700  0.423300  1.0
  H  H829  1  0.610300  0.576700  0.498700  1.0
  H  H830  1  0.639700  0.748700  0.173300  1.0
  H  H831  1  0.110300  0.923300  0.501300  1.0
  H  H832  1  0.423300  0.998700  0.889700  1.0
  H  H833  1  0.860300  0.251300  0.673300  1.0
  H  H834  1  0.576700  0.498700  0.610300  1.0
  H  H835  1  0.326700  0.639700  0.251300  1.0
  H  H836  1  0.251300  0.326700  0.639700  1.0
  H  H837  1  0.748700  0.173300  0.639700  1.0
  H  H838  1  0.326700  0.360300  0.248700  1.0
  H  H839  1  0.248700  0.326700  0.360300  1.0
  H  H840  1  0.673300  0.860300  0.251300  1.0
  H  H841  1  0.173300  0.639700  0.748700  1.0
  H  H842  1  0.251300  0.673300  0.860300  1.0
  H  H843  1  0.498700  0.610300  0.576700  1.0
  H  H844  1  0.501300  0.889700  0.576700  1.0
  H  H845  1  0.889700  0.423300  0.998700  1.0
  H  H846  1  0.889700  0.576700  0.501300  1.0
  H  H847  1  0.923300  0.501300  0.110300  1.0
  H  H848  1  0.576700  0.501300  0.889700  1.0
  H  H849  1  0.160500  0.761400  0.854100  1.0
  H  H850  1  0.011400  0.589500  0.395900  1.0
  H  H851  1  0.839500  0.738600  0.854100  1.0
  H  H852  1  0.488600  0.410500  0.895900  1.0
  H  H853  1  0.089500  0.104100  0.988600  1.0
  H  H854  1  0.160500  0.238600  0.645900  1.0
  H  H855  1  0.589500  0.395900  0.011400  1.0
  H  H856  1  0.895900  0.488600  0.410500  1.0
  H  H857  1  0.339500  0.761400  0.145900  1.0
  H  H858  1  0.104100  0.988600  0.089500  1.0
  H  H859  1  0.854100  0.160500  0.761400  1.0
  H  H860  1  0.761400  0.854100  0.160500  1.0
  H  H861  1  0.238600  0.645900  0.160500  1.0
  H  H862  1  0.854100  0.839500  0.738600  1.0
  H  H863  1  0.738600  0.854100  0.839500  1.0
  H  H864  1  0.145900  0.339500  0.761400  1.0
  H  H865  1  0.645900  0.160500  0.238600  1.0
  H  H866  1  0.761400  0.145900  0.339500  1.0
  H  H867  1  0.988600  0.089500  0.104100  1.0
  H  H868  1  0.011400  0.410500  0.104100  1.0
  H  H869  1  0.410500  0.895900  0.488600  1.0
  H  H870  1  0.410500  0.104100  0.011400  1.0
  H  H871  1  0.395900  0.011400  0.589500  1.0
  H  H872  1  0.104100  0.011400  0.410500  1.0
  H  H873  1  0.660500  0.261400  0.354100  1.0
  H  H874  1  0.511400  0.089500  0.895900  1.0
  H  H875  1  0.339500  0.238600  0.354100  1.0
  H  H876  1  0.988600  0.910500  0.395900  1.0
  H  H877  1  0.589500  0.604100  0.488600  1.0
  H  H878  1  0.660500  0.738600  0.145900  1.0
  H  H879  1  0.089500  0.895900  0.511400  1.0
  H  H880  1  0.395900  0.988600  0.910500  1.0
  H  H881  1  0.839500  0.261400  0.645900  1.0
  H  H882  1  0.604100  0.488600  0.589500  1.0
  H  H883  1  0.354100  0.660500  0.261400  1.0
  H  H884  1  0.261400  0.354100  0.660500  1.0
  H  H885  1  0.738600  0.145900  0.660500  1.0
  H  H886  1  0.354100  0.339500  0.238600  1.0
  H  H887  1  0.238600  0.354100  0.339500  1.0
  H  H888  1  0.645900  0.839500  0.261400  1.0
  H  H889  1  0.145900  0.660500  0.738600  1.0
  H  H890  1  0.261400  0.645900  0.839500  1.0
  H  H891  1  0.488600  0.589500  0.604100  1.0
  H  H892  1  0.511400  0.910500  0.604100  1.0
  H  H893  1  0.910500  0.395900  0.988600  1.0
  H  H894  1  0.910500  0.604100  0.511400  1.0
  H  H895  1  0.895900  0.511400  0.089500  1.0
  H  H896  1  0.604100  0.511400  0.910500  1.0
  H  H897  1  0.159900  0.635600  0.934100  1.0
  H  H898  1  0.885600  0.590100  0.315900  1.0
  H  H899  1  0.840100  0.864400  0.934100  1.0
  H  H900  1  0.614400  0.409900  0.815900  1.0
  H  H901  1  0.090100  0.184100  0.114400  1.0
  H  H902  1  0.159900  0.364400  0.565900  1.0
  H  H903  1  0.590100  0.315900  0.885600  1.0
  H  H904  1  0.815900  0.614400  0.409900  1.0
  H  H905  1  0.340100  0.635600  0.065900  1.0
  H  H906  1  0.184100  0.114400  0.090100  1.0
  H  H907  1  0.934100  0.159900  0.635600  1.0
  H  H908  1  0.635600  0.934100  0.159900  1.0
  H  H909  1  0.364400  0.565900  0.159900  1.0
  H  H910  1  0.934100  0.840100  0.864400  1.0
  H  H911  1  0.864400  0.934100  0.840100  1.0
  H  H912  1  0.065900  0.340100  0.635600  1.0
  H  H913  1  0.565900  0.159900  0.364400  1.0
  H  H914  1  0.635600  0.065900  0.340100  1.0
  H  H915  1  0.114400  0.090100  0.184100  1.0
  H  H916  1  0.885600  0.409900  0.184100  1.0
  H  H917  1  0.409900  0.815900  0.614400  1.0
  H  H918  1  0.409900  0.184100  0.885600  1.0
  H  H919  1  0.315900  0.885600  0.590100  1.0
  H  H920  1  0.184100  0.885600  0.409900  1.0
  H  H921  1  0.659900  0.135600  0.434100  1.0
  H  H922  1  0.385600  0.090100  0.815900  1.0
  H  H923  1  0.340100  0.364400  0.434100  1.0
  H  H924  1  0.114400  0.909900  0.315900  1.0
  H  H925  1  0.590100  0.684100  0.614400  1.0
  H  H926  1  0.659900  0.864400  0.065900  1.0
  H  H927  1  0.090100  0.815900  0.385600  1.0
  H  H928  1  0.315900  0.114400  0.909900  1.0
  H  H929  1  0.840100  0.135600  0.565900  1.0
  H  H930  1  0.684100  0.614400  0.590100  1.0
  H  H931  1  0.434100  0.659900  0.135600  1.0
  H  H932  1  0.135600  0.434100  0.659900  1.0
  H  H933  1  0.864400  0.065900  0.659900  1.0
  H  H934  1  0.434100  0.340100  0.364400  1.0
  H  H935  1  0.364400  0.434100  0.340100  1.0
  H  H936  1  0.565900  0.840100  0.135600  1.0
  H  H937  1  0.065900  0.659900  0.864400  1.0
  H  H938  1  0.135600  0.565900  0.840100  1.0
  H  H939  1  0.614400  0.590100  0.684100  1.0
  H  H940  1  0.385600  0.909900  0.684100  1.0
  H  H941  1  0.909900  0.315900  0.114400  1.0
  H  H942  1  0.909900  0.684100  0.385600  1.0
  H  H943  1  0.815900  0.385600  0.090100  1.0
  H  H944  1  0.684100  0.385600  0.909900  1.0
  H  H945  1  0.939300  0.536900  0.058900  1.0
  H  H946  1  0.786900  0.810700  0.191100  1.0
  H  H947  1  0.060700  0.963100  0.058900  1.0
  H  H948  1  0.713100  0.189300  0.691100  1.0
  H  H949  1  0.310700  0.308900  0.213100  1.0
  H  H950  1  0.939300  0.463100  0.441100  1.0
  H  H951  1  0.810700  0.191100  0.786900  1.0
  H  H952  1  0.691100  0.713100  0.189300  1.0
  H  H953  1  0.560700  0.536900  0.941100  1.0
  H  H954  1  0.308900  0.213100  0.310700  1.0
  H  H955  1  0.058900  0.939300  0.536900  1.0
  H  H956  1  0.536900  0.058900  0.939300  1.0
  H  H957  1  0.463100  0.441100  0.939300  1.0
  H  H958  1  0.058900  0.060700  0.963100  1.0
  H  H959  1  0.963100  0.058900  0.060700  1.0
  H  H960  1  0.941100  0.560700  0.536900  1.0
  H  H961  1  0.441100  0.939300  0.463100  1.0
  H  H962  1  0.536900  0.941100  0.560700  1.0
  H  H963  1  0.213100  0.310700  0.308900  1.0
  H  H964  1  0.786900  0.189300  0.308900  1.0
  H  H965  1  0.189300  0.691100  0.713100  1.0
  H  H966  1  0.189300  0.308900  0.786900  1.0
  H  H967  1  0.191100  0.786900  0.810700  1.0
  H  H968  1  0.308900  0.786900  0.189300  1.0
  H  H969  1  0.439300  0.036900  0.558900  1.0
  H  H970  1  0.286900  0.310700  0.691100  1.0
  H  H971  1  0.560700  0.463100  0.558900  1.0
  H  H972  1  0.213100  0.689300  0.191100  1.0
  H  H973  1  0.810700  0.808900  0.713100  1.0
  H  H974  1  0.439300  0.963100  0.941100  1.0
  H  H975  1  0.310700  0.691100  0.286900  1.0
  H  H976  1  0.191100  0.213100  0.689300  1.0
  H  H977  1  0.060700  0.036900  0.441100  1.0
  H  H978  1  0.808900  0.713100  0.810700  1.0
  H  H979  1  0.558900  0.439300  0.036900  1.0
  H  H980  1  0.036900  0.558900  0.439300  1.0
  H  H981  1  0.963100  0.941100  0.439300  1.0
  H  H982  1  0.558900  0.560700  0.463100  1.0
  H  H983  1  0.463100  0.558900  0.560700  1.0
  H  H984  1  0.441100  0.060700  0.036900  1.0
  H  H985  1  0.941100  0.439300  0.963100  1.0
  H  H986  1  0.036900  0.441100  0.060700  1.0
  H  H987  1  0.713100  0.810700  0.808900  1.0
  H  H988  1  0.286900  0.689300  0.808900  1.0
  H  H989  1  0.689300  0.191100  0.213100  1.0
  H  H990  1  0.689300  0.808900  0.286900  1.0
  H  H991  1  0.691100  0.286900  0.310700  1.0
  H  H992  1  0.808900  0.286900  0.689300  1.0
  H  H993  1  0.928300  0.555600  0.030400  1.0
  H  H994  1  0.805600  0.821700  0.219600  1.0
  H  H995  1  0.071700  0.944400  0.030400  1.0
  H  H996  1  0.694400  0.178300  0.719600  1.0
  H  H997  1  0.321700  0.280400  0.194400  1.0
  H  H998  1  0.928300  0.444400  0.469600  1.0
  H  H999  1  0.821700  0.219600  0.805600  1.0
  H  H1000  1  0.719600  0.694400  0.178300  1.0
  H  H1001  1  0.571700  0.555600  0.969600  1.0
  H  H1002  1  0.280400  0.194400  0.321700  1.0
  H  H1003  1  0.030400  0.928300  0.555600  1.0
  H  H1004  1  0.555600  0.030400  0.928300  1.0
  H  H1005  1  0.444400  0.469600  0.928300  1.0
  H  H1006  1  0.030400  0.071700  0.944400  1.0
  H  H1007  1  0.944400  0.030400  0.071700  1.0
  H  H1008  1  0.969600  0.571700  0.555600  1.0
  H  H1009  1  0.469600  0.928300  0.444400  1.0
  H  H1010  1  0.555600  0.969600  0.571700  1.0
  H  H1011  1  0.194400  0.321700  0.280400  1.0
  H  H1012  1  0.805600  0.178300  0.280400  1.0
  H  H1013  1  0.178300  0.719600  0.694400  1.0
  H  H1014  1  0.178300  0.280400  0.805600  1.0
  H  H1015  1  0.219600  0.805600  0.821700  1.0
  H  H1016  1  0.280400  0.805600  0.178300  1.0
  H  H1017  1  0.428300  0.055600  0.530400  1.0
  H  H1018  1  0.305600  0.321700  0.719600  1.0
  H  H1019  1  0.571700  0.444400  0.530400  1.0
  H  H1020  1  0.194400  0.678300  0.219600  1.0
  H  H1021  1  0.821700  0.780400  0.694400  1.0
  H  H1022  1  0.428300  0.944400  0.969600  1.0
  H  H1023  1  0.321700  0.719600  0.305600  1.0
  H  H1024  1  0.219600  0.194400  0.678300  1.0
  H  H1025  1  0.071700  0.055600  0.469600  1.0
  H  H1026  1  0.780400  0.694400  0.821700  1.0
  H  H1027  1  0.530400  0.428300  0.055600  1.0
  H  H1028  1  0.055600  0.530400  0.428300  1.0
  H  H1029  1  0.944400  0.969600  0.428300  1.0
  H  H1030  1  0.530400  0.571700  0.444400  1.0
  H  H1031  1  0.444400  0.530400  0.571700  1.0
  H  H1032  1  0.469600  0.071700  0.055600  1.0
  H  H1033  1  0.969600  0.428300  0.944400  1.0
  H  H1034  1  0.055600  0.469600  0.071700  1.0
  H  H1035  1  0.694400  0.821700  0.780400  1.0
  H  H1036  1  0.305600  0.678300  0.780400  1.0
  H  H1037  1  0.678300  0.219600  0.194400  1.0
  H  H1038  1  0.678300  0.780400  0.305600  1.0
  H  H1039  1  0.719600  0.305600  0.321700  1.0
  H  H1040  1  0.780400  0.305600  0.678300  1.0
  H  H1041  1  0.945200  0.572200  0.057400  1.0
  H  H1042  1  0.822200  0.804800  0.192600  1.0
  H  H1043  1  0.054800  0.927800  0.057400  1.0
  H  H1044  1  0.677800  0.195200  0.692600  1.0
  H  H1045  1  0.304800  0.307400  0.177800  1.0
  H  H1046  1  0.945200  0.427800  0.442600  1.0
  H  H1047  1  0.804800  0.192600  0.822200  1.0
  H  H1048  1  0.692600  0.677800  0.195200  1.0
  H  H1049  1  0.554800  0.572200  0.942600  1.0
  H  H1050  1  0.307400  0.177800  0.304800  1.0
  H  H1051  1  0.057400  0.945200  0.572200  1.0
  H  H1052  1  0.572200  0.057400  0.945200  1.0
  H  H1053  1  0.427800  0.442600  0.945200  1.0
  H  H1054  1  0.057400  0.054800  0.927800  1.0
  H  H1055  1  0.927800  0.057400  0.054800  1.0
  H  H1056  1  0.942600  0.554800  0.572200  1.0
  H  H1057  1  0.442600  0.945200  0.427800  1.0
  H  H1058  1  0.572200  0.942600  0.554800  1.0
  H  H1059  1  0.177800  0.304800  0.307400  1.0
  H  H1060  1  0.822200  0.195200  0.307400  1.0
  H  H1061  1  0.195200  0.692600  0.677800  1.0
  H  H1062  1  0.195200  0.307400  0.822200  1.0
  H  H1063  1  0.192600  0.822200  0.804800  1.0
  H  H1064  1  0.307400  0.822200  0.195200  1.0
  H  H1065  1  0.445200  0.072200  0.557400  1.0
  H  H1066  1  0.322200  0.304800  0.692600  1.0
  H  H1067  1  0.554800  0.427800  0.557400  1.0
  H  H1068  1  0.177800  0.695200  0.192600  1.0
  H  H1069  1  0.804800  0.807400  0.677800  1.0
  H  H1070  1  0.445200  0.927800  0.942600  1.0
  H  H1071  1  0.304800  0.692600  0.322200  1.0
  H  H1072  1  0.192600  0.177800  0.695200  1.0
  H  H1073  1  0.054800  0.072200  0.442600  1.0
  H  H1074  1  0.807400  0.677800  0.804800  1.0
  H  H1075  1  0.557400  0.445200  0.072200  1.0
  H  H1076  1  0.072200  0.557400  0.445200  1.0
  H  H1077  1  0.927800  0.942600  0.445200  1.0
  H  H1078  1  0.557400  0.554800  0.427800  1.0
  H  H1079  1  0.427800  0.557400  0.554800  1.0
  H  H1080  1  0.442600  0.054800  0.072200  1.0
  H  H1081  1  0.942600  0.445200  0.927800  1.0
  H  H1082  1  0.072200  0.442600  0.054800  1.0
  H  H1083  1  0.677800  0.804800  0.807400  1.0
  H  H1084  1  0.322200  0.695200  0.807400  1.0
  H  H1085  1  0.695200  0.192600  0.177800  1.0
  H  H1086  1  0.695200  0.807400  0.322200  1.0
  H  H1087  1  0.692600  0.322200  0.304800  1.0
  H  H1088  1  0.807400  0.322200  0.695200  1.0
  H  H1089  1  0.993500  0.587800  0.043000  1.0
  H  H1090  1  0.837800  0.756500  0.207000  1.0
  H  H1091  1  0.006500  0.912200  0.043000  1.0
  H  H1092  1  0.662200  0.243500  0.707000  1.0
  H  H1093  1  0.256500  0.293000  0.162200  1.0
  H  H1094  1  0.993500  0.412200  0.457000  1.0
  H  H1095  1  0.756500  0.207000  0.837800  1.0
  H  H1096  1  0.707000  0.662200  0.243500  1.0
  H  H1097  1  0.506500  0.587800  0.957000  1.0
  H  H1098  1  0.293000  0.162200  0.256500  1.0
  H  H1099  1  0.043000  0.993500  0.587800  1.0
  H  H1100  1  0.587800  0.043000  0.993500  1.0
  H  H1101  1  0.412200  0.457000  0.993500  1.0
  H  H1102  1  0.043000  0.006500  0.912200  1.0
  H  H1103  1  0.912200  0.043000  0.006500  1.0
  H  H1104  1  0.957000  0.506500  0.587800  1.0
  H  H1105  1  0.457000  0.993500  0.412200  1.0
  H  H1106  1  0.587800  0.957000  0.506500  1.0
  H  H1107  1  0.162200  0.256500  0.293000  1.0
  H  H1108  1  0.837800  0.243500  0.293000  1.0
  H  H1109  1  0.243500  0.707000  0.662200  1.0
  H  H1110  1  0.243500  0.293000  0.837800  1.0
  H  H1111  1  0.207000  0.837800  0.756500  1.0
  H  H1112  1  0.293000  0.837800  0.243500  1.0
  H  H1113  1  0.493500  0.087800  0.543000  1.0
  H  H1114  1  0.337800  0.256500  0.707000  1.0
  H  H1115  1  0.506500  0.412200  0.543000  1.0
  H  H1116  1  0.162200  0.743500  0.207000  1.0
  H  H1117  1  0.756500  0.793000  0.662200  1.0
  H  H1118  1  0.493500  0.912200  0.957000  1.0
  H  H1119  1  0.256500  0.707000  0.337800  1.0
  H  H1120  1  0.207000  0.162200  0.743500  1.0
  H  H1121  1  0.006500  0.087800  0.457000  1.0
  H  H1122  1  0.793000  0.662200  0.756500  1.0
  H  H1123  1  0.543000  0.493500  0.087800  1.0
  H  H1124  1  0.087800  0.543000  0.493500  1.0
  H  H1125  1  0.912200  0.957000  0.493500  1.0
  H  H1126  1  0.543000  0.506500  0.412200  1.0
  H  H1127  1  0.412200  0.543000  0.506500  1.0
  H  H1128  1  0.457000  0.006500  0.087800  1.0
  H  H1129  1  0.957000  0.493500  0.912200  1.0
  H  H1130  1  0.087800  0.457000  0.006500  1.0
  H  H1131  1  0.662200  0.756500  0.793000  1.0
  H  H1132  1  0.337800  0.743500  0.793000  1.0
  H  H1133  1  0.743500  0.207000  0.162200  1.0
  H  H1134  1  0.743500  0.793000  0.337800  1.0
  H  H1135  1  0.707000  0.337800  0.256500  1.0
  H  H1136  1  0.793000  0.337800  0.743500  1.0
  H  H1137  1  0.085500  0.558700  0.012200  1.0
  H  H1138  1  0.808700  0.664500  0.237800  1.0
  H  H1139  1  0.914500  0.941300  0.012200  1.0
  H  H1140  1  0.691300  0.335500  0.737800  1.0
  H  H1141  1  0.164500  0.262200  0.191300  1.0
  H  H1142  1  0.085500  0.441300  0.487800  1.0
  H  H1143  1  0.664500  0.237800  0.808700  1.0
  H  H1144  1  0.737800  0.691300  0.335500  1.0
  H  H1145  1  0.414500  0.558700  0.987800  1.0
  H  H1146  1  0.262200  0.191300  0.164500  1.0
  H  H1147  1  0.012200  0.085500  0.558700  1.0
  H  H1148  1  0.558700  0.012200  0.085500  1.0
  H  H1149  1  0.441300  0.487800  0.085500  1.0
  H  H1150  1  0.012200  0.914500  0.941300  1.0
  H  H1151  1  0.941300  0.012200  0.914500  1.0
  H  H1152  1  0.987800  0.414500  0.558700  1.0
  H  H1153  1  0.487800  0.085500  0.441300  1.0
  H  H1154  1  0.558700  0.987800  0.414500  1.0
  H  H1155  1  0.191300  0.164500  0.262200  1.0
  H  H1156  1  0.808700  0.335500  0.262200  1.0
  H  H1157  1  0.335500  0.737800  0.691300  1.0
  H  H1158  1  0.335500  0.262200  0.808700  1.0
  H  H1159  1  0.237800  0.808700  0.664500  1.0
  H  H1160  1  0.262200  0.808700  0.335500  1.0
  H  H1161  1  0.585500  0.058700  0.512200  1.0
  H  H1162  1  0.308700  0.164500  0.737800  1.0
  H  H1163  1  0.414500  0.441300  0.512200  1.0
  H  H1164  1  0.191300  0.835500  0.237800  1.0
  H  H1165  1  0.664500  0.762200  0.691300  1.0
  H  H1166  1  0.585500  0.941300  0.987800  1.0
  H  H1167  1  0.164500  0.737800  0.308700  1.0
  H  H1168  1  0.237800  0.191300  0.835500  1.0
  H  H1169  1  0.914500  0.058700  0.487800  1.0
  H  H1170  1  0.762200  0.691300  0.664500  1.0
  H  H1171  1  0.512200  0.585500  0.058700  1.0
  H  H1172  1  0.058700  0.512200  0.585500  1.0
  H  H1173  1  0.941300  0.987800  0.585500  1.0
  H  H1174  1  0.512200  0.414500  0.441300  1.0
  H  H1175  1  0.441300  0.512200  0.414500  1.0
  H  H1176  1  0.487800  0.914500  0.058700  1.0
  H  H1177  1  0.987800  0.585500  0.941300  1.0
  H  H1178  1  0.058700  0.487800  0.914500  1.0
  H  H1179  1  0.691300  0.664500  0.762200  1.0
  H  H1180  1  0.308700  0.835500  0.762200  1.0
  H  H1181  1  0.835500  0.237800  0.191300  1.0
  H  H1182  1  0.835500  0.762200  0.308700  1.0
  H  H1183  1  0.737800  0.308700  0.164500  1.0
  H  H1184  1  0.762200  0.308700  0.835500  1.0
  H  H1185  1  0.124500  0.592700  0.020400  1.0
  H  H1186  1  0.842700  0.625500  0.229600  1.0
  H  H1187  1  0.875500  0.907300  0.020400  1.0
  H  H1188  1  0.657300  0.374500  0.729600  1.0
  H  H1189  1  0.125500  0.270400  0.157300  1.0
  H  H1190  1  0.124500  0.407300  0.479600  1.0
  H  H1191  1  0.625500  0.229600  0.842700  1.0
  H  H1192  1  0.729600  0.657300  0.374500  1.0
  H  H1193  1  0.375500  0.592700  0.979600  1.0
  H  H1194  1  0.270400  0.157300  0.125500  1.0
  H  H1195  1  0.020400  0.124500  0.592700  1.0
  H  H1196  1  0.592700  0.020400  0.124500  1.0
  H  H1197  1  0.407300  0.479600  0.124500  1.0
  H  H1198  1  0.020400  0.875500  0.907300  1.0
  H  H1199  1  0.907300  0.020400  0.875500  1.0
  H  H1200  1  0.979600  0.375500  0.592700  1.0
  H  H1201  1  0.479600  0.124500  0.407300  1.0
  H  H1202  1  0.592700  0.979600  0.375500  1.0
  H  H1203  1  0.157300  0.125500  0.270400  1.0
  H  H1204  1  0.842700  0.374500  0.270400  1.0
  H  H1205  1  0.374500  0.729600  0.657300  1.0
  H  H1206  1  0.374500  0.270400  0.842700  1.0
  H  H1207  1  0.229600  0.842700  0.625500  1.0
  H  H1208  1  0.270400  0.842700  0.374500  1.0
  H  H1209  1  0.624500  0.092700  0.520400  1.0
  H  H1210  1  0.342700  0.125500  0.729600  1.0
  H  H1211  1  0.375500  0.407300  0.520400  1.0
  H  H1212  1  0.157300  0.874500  0.229600  1.0
  H  H1213  1  0.625500  0.770400  0.657300  1.0
  H  H1214  1  0.624500  0.907300  0.979600  1.0
  H  H1215  1  0.125500  0.729600  0.342700  1.0
  H  H1216  1  0.229600  0.157300  0.874500  1.0
  H  H1217  1  0.875500  0.092700  0.479600  1.0
  H  H1218  1  0.770400  0.657300  0.625500  1.0
  H  H1219  1  0.520400  0.624500  0.092700  1.0
  H  H1220  1  0.092700  0.520400  0.624500  1.0
  H  H1221  1  0.907300  0.979600  0.624500  1.0
  H  H1222  1  0.520400  0.375500  0.407300  1.0
  H  H1223  1  0.407300  0.520400  0.375500  1.0
  H  H1224  1  0.479600  0.875500  0.092700  1.0
  H  H1225  1  0.979600  0.624500  0.907300  1.0
  H  H1226  1  0.092700  0.479600  0.875500  1.0
  H  H1227  1  0.657300  0.625500  0.770400  1.0
  H  H1228  1  0.342700  0.874500  0.770400  1.0
  H  H1229  1  0.874500  0.229600  0.157300  1.0
  H  H1230  1  0.874500  0.770400  0.342700  1.0
  H  H1231  1  0.729600  0.342700  0.125500  1.0
  H  H1232  1  0.770400  0.342700  0.874500  1.0
  H  H1233  1  0.066800  0.656600  0.047300  1.0
  H  H1234  1  0.906600  0.683200  0.202700  1.0
  H  H1235  1  0.933200  0.843400  0.047300  1.0
  H  H1236  1  0.593400  0.316800  0.702700  1.0
  H  H1237  1  0.183200  0.297300  0.093400  1.0
  H  H1238  1  0.066800  0.343400  0.452700  1.0
  H  H1239  1  0.683200  0.202700  0.906600  1.0
  H  H1240  1  0.702700  0.593400  0.316800  1.0
  H  H1241  1  0.433200  0.656600  0.952700  1.0
  H  H1242  1  0.297300  0.093400  0.183200  1.0
  H  H1243  1  0.047300  0.066800  0.656600  1.0
  H  H1244  1  0.656600  0.047300  0.066800  1.0
  H  H1245  1  0.343400  0.452700  0.066800  1.0
  H  H1246  1  0.047300  0.933200  0.843400  1.0
  H  H1247  1  0.843400  0.047300  0.933200  1.0
  H  H1248  1  0.952700  0.433200  0.656600  1.0
  H  H1249  1  0.452700  0.066800  0.343400  1.0
  H  H1250  1  0.656600  0.952700  0.433200  1.0
  H  H1251  1  0.093400  0.183200  0.297300  1.0
  H  H1252  1  0.906600  0.316800  0.297300  1.0
  H  H1253  1  0.316800  0.702700  0.593400  1.0
  H  H1254  1  0.316800  0.297300  0.906600  1.0
  H  H1255  1  0.202700  0.906600  0.683200  1.0
  H  H1256  1  0.297300  0.906600  0.316800  1.0
  H  H1257  1  0.566800  0.156600  0.547300  1.0
  H  H1258  1  0.406600  0.183200  0.702700  1.0
  H  H1259  1  0.433200  0.343400  0.547300  1.0
  H  H1260  1  0.093400  0.816800  0.202700  1.0
  H  H1261  1  0.683200  0.797300  0.593400  1.0
  H  H1262  1  0.566800  0.843400  0.952700  1.0
  H  H1263  1  0.183200  0.702700  0.406600  1.0
  H  H1264  1  0.202700  0.093400  0.816800  1.0
  H  H1265  1  0.933200  0.156600  0.452700  1.0
  H  H1266  1  0.797300  0.593400  0.683200  1.0
  H  H1267  1  0.547300  0.566800  0.156600  1.0
  H  H1268  1  0.156600  0.547300  0.566800  1.0
  H  H1269  1  0.843400  0.952700  0.566800  1.0
  H  H1270  1  0.547300  0.433200  0.343400  1.0
  H  H1271  1  0.343400  0.547300  0.433200  1.0
  H  H1272  1  0.452700  0.933200  0.156600  1.0
  H  H1273  1  0.952700  0.566800  0.843400  1.0
  H  H1274  1  0.156600  0.452700  0.933200  1.0
  H  H1275  1  0.593400  0.683200  0.797300  1.0
  H  H1276  1  0.406600  0.816800  0.797300  1.0
  H  H1277  1  0.816800  0.202700  0.093400  1.0
  H  H1278  1  0.816800  0.797300  0.406600  1.0
  H  H1279  1  0.702700  0.406600  0.183200  1.0
  H  H1280  1  0.797300  0.406600  0.816800  1.0
  H  H1281  1  0.026500  0.624000  0.038600  1.0
  H  H1282  1  0.874000  0.723500  0.211400  1.0
  H  H1283  1  0.973500  0.876000  0.038600  1.0
  H  H1284  1  0.626000  0.276500  0.711400  1.0
  H  H1285  1  0.223500  0.288600  0.126000  1.0
  H  H1286  1  0.026500  0.376000  0.461400  1.0
  H  H1287  1  0.723500  0.211400  0.874000  1.0
  H  H1288  1  0.711400  0.626000  0.276500  1.0
  H  H1289  1  0.473500  0.624000  0.961400  1.0
  H  H1290  1  0.288600  0.126000  0.223500  1.0
  H  H1291  1  0.038600  0.026500  0.624000  1.0
  H  H1292  1  0.624000  0.038600  0.026500  1.0
  H  H1293  1  0.376000  0.461400  0.026500  1.0
  H  H1294  1  0.038600  0.973500  0.876000  1.0
  H  H1295  1  0.876000  0.038600  0.973500  1.0
  H  H1296  1  0.961400  0.473500  0.624000  1.0
  H  H1297  1  0.461400  0.026500  0.376000  1.0
  H  H1298  1  0.624000  0.961400  0.473500  1.0
  H  H1299  1  0.126000  0.223500  0.288600  1.0
  H  H1300  1  0.874000  0.276500  0.288600  1.0
  H  H1301  1  0.276500  0.711400  0.626000  1.0
  H  H1302  1  0.276500  0.288600  0.874000  1.0
  H  H1303  1  0.211400  0.874000  0.723500  1.0
  H  H1304  1  0.288600  0.874000  0.276500  1.0
  H  H1305  1  0.526500  0.124000  0.538600  1.0
  H  H1306  1  0.374000  0.223500  0.711400  1.0
  H  H1307  1  0.473500  0.376000  0.538600  1.0
  H  H1308  1  0.126000  0.776500  0.211400  1.0
  H  H1309  1  0.723500  0.788600  0.626000  1.0
  H  H1310  1  0.526500  0.876000  0.961400  1.0
  H  H1311  1  0.223500  0.711400  0.374000  1.0
  H  H1312  1  0.211400  0.126000  0.776500  1.0
  H  H1313  1  0.973500  0.124000  0.461400  1.0
  H  H1314  1  0.788600  0.626000  0.723500  1.0
  H  H1315  1  0.538600  0.526500  0.124000  1.0
  H  H1316  1  0.124000  0.538600  0.526500  1.0
  H  H1317  1  0.876000  0.961400  0.526500  1.0
  H  H1318  1  0.538600  0.473500  0.376000  1.0
  H  H1319  1  0.376000  0.538600  0.473500  1.0
  H  H1320  1  0.461400  0.973500  0.124000  1.0
  H  H1321  1  0.961400  0.526500  0.876000  1.0
  H  H1322  1  0.124000  0.461400  0.973500  1.0
  H  H1323  1  0.626000  0.723500  0.788600  1.0
  H  H1324  1  0.374000  0.776500  0.788600  1.0
  H  H1325  1  0.776500  0.211400  0.126000  1.0
  H  H1326  1  0.776500  0.788600  0.374000  1.0
  H  H1327  1  0.711400  0.374000  0.223500  1.0
  H  H1328  1  0.788600  0.374000  0.776500  1.0
  H  H1329  1  0.194300  0.722800  0.087200  1.0
  H  H1330  1  0.972800  0.555700  0.162800  1.0
  H  H1331  1  0.805700  0.777200  0.087200  1.0
  H  H1332  1  0.527200  0.444300  0.662800  1.0
  H  H1333  1  0.055700  0.337200  0.027200  1.0
  H  H1334  1  0.194300  0.277200  0.412800  1.0
  H  H1335  1  0.555700  0.162800  0.972800  1.0
  H  H1336  1  0.662800  0.527200  0.444300  1.0
  H  H1337  1  0.305700  0.722800  0.912800  1.0
  H  H1338  1  0.337200  0.027200  0.055700  1.0
  H  H1339  1  0.087200  0.194300  0.722800  1.0
  H  H1340  1  0.722800  0.087200  0.194300  1.0
  H  H1341  1  0.277200  0.412800  0.194300  1.0
  H  H1342  1  0.087200  0.805700  0.777200  1.0
  H  H1343  1  0.777200  0.087200  0.805700  1.0
  H  H1344  1  0.912800  0.305700  0.722800  1.0
  H  H1345  1  0.412800  0.194300  0.277200  1.0
  H  H1346  1  0.722800  0.912800  0.305700  1.0
  H  H1347  1  0.027200  0.055700  0.337200  1.0
  H  H1348  1  0.972800  0.444300  0.337200  1.0
  H  H1349  1  0.444300  0.662800  0.527200  1.0
  H  H1350  1  0.444300  0.337200  0.972800  1.0
  H  H1351  1  0.162800  0.972800  0.555700  1.0
  H  H1352  1  0.337200  0.972800  0.444300  1.0
  H  H1353  1  0.694300  0.222800  0.587200  1.0
  H  H1354  1  0.472800  0.055700  0.662800  1.0
  H  H1355  1  0.305700  0.277200  0.587200  1.0
  H  H1356  1  0.027200  0.944300  0.162800  1.0
  H  H1357  1  0.555700  0.837200  0.527200  1.0
  H  H1358  1  0.694300  0.777200  0.912800  1.0
  H  H1359  1  0.055700  0.662800  0.472800  1.0
  H  H1360  1  0.162800  0.027200  0.944300  1.0
  H  H1361  1  0.805700  0.222800  0.412800  1.0
  H  H1362  1  0.837200  0.527200  0.555700  1.0
  H  H1363  1  0.587200  0.694300  0.222800  1.0
  H  H1364  1  0.222800  0.587200  0.694300  1.0
  H  H1365  1  0.777200  0.912800  0.694300  1.0
  H  H1366  1  0.587200  0.305700  0.277200  1.0
  H  H1367  1  0.277200  0.587200  0.305700  1.0
  H  H1368  1  0.412800  0.805700  0.222800  1.0
  H  H1369  1  0.912800  0.694300  0.777200  1.0
  H  H1370  1  0.222800  0.412800  0.805700  1.0
  H  H1371  1  0.527200  0.555700  0.837200  1.0
  H  H1372  1  0.472800  0.944300  0.837200  1.0
  H  H1373  1  0.944300  0.162800  0.027200  1.0
  H  H1374  1  0.944300  0.837200  0.472800  1.0
  H  H1375  1  0.662800  0.472800  0.055700  1.0
  H  H1376  1  0.837200  0.472800  0.944300  1.0
  H  H1377  1  0.158600  0.723400  0.085300  1.0
  H  H1378  1  0.973400  0.591400  0.164700  1.0
  H  H1379  1  0.841400  0.776600  0.085300  1.0
  H  H1380  1  0.526600  0.408600  0.664700  1.0
  H  H1381  1  0.091400  0.335300  0.026600  1.0
  H  H1382  1  0.158600  0.276600  0.414700  1.0
  H  H1383  1  0.591400  0.164700  0.973400  1.0
  H  H1384  1  0.664700  0.526600  0.408600  1.0
  H  H1385  1  0.341400  0.723400  0.914700  1.0
  H  H1386  1  0.335300  0.026600  0.091400  1.0
  H  H1387  1  0.085300  0.158600  0.723400  1.0
  H  H1388  1  0.723400  0.085300  0.158600  1.0
  H  H1389  1  0.276600  0.414700  0.158600  1.0
  H  H1390  1  0.085300  0.841400  0.776600  1.0
  H  H1391  1  0.776600  0.085300  0.841400  1.0
  H  H1392  1  0.914700  0.341400  0.723400  1.0
  H  H1393  1  0.414700  0.158600  0.276600  1.0
  H  H1394  1  0.723400  0.914700  0.341400  1.0
  H  H1395  1  0.026600  0.091400  0.335300  1.0
  H  H1396  1  0.973400  0.408600  0.335300  1.0
  H  H1397  1  0.408600  0.664700  0.526600  1.0
  H  H1398  1  0.408600  0.335300  0.973400  1.0
  H  H1399  1  0.164700  0.973400  0.591400  1.0
  H  H1400  1  0.335300  0.973400  0.408600  1.0
  H  H1401  1  0.658600  0.223400  0.585300  1.0
  H  H1402  1  0.473400  0.091400  0.664700  1.0
  H  H1403  1  0.341400  0.276600  0.585300  1.0
  H  H1404  1  0.026600  0.908600  0.164700  1.0
  H  H1405  1  0.591400  0.835300  0.526600  1.0
  H  H1406  1  0.658600  0.776600  0.914700  1.0
  H  H1407  1  0.091400  0.664700  0.473400  1.0
  H  H1408  1  0.164700  0.026600  0.908600  1.0
  H  H1409  1  0.841400  0.223400  0.414700  1.0
  H  H1410  1  0.835300  0.526600  0.591400  1.0
  H  H1411  1  0.585300  0.658600  0.223400  1.0
  H  H1412  1  0.223400  0.585300  0.658600  1.0
  H  H1413  1  0.776600  0.914700  0.658600  1.0
  H  H1414  1  0.585300  0.341400  0.276600  1.0
  H  H1415  1  0.276600  0.585300  0.341400  1.0
  H  H1416  1  0.414700  0.841400  0.223400  1.0
  H  H1417  1  0.914700  0.658600  0.776600  1.0
  H  H1418  1  0.223400  0.414700  0.841400  1.0
  H  H1419  1  0.526600  0.591400  0.835300  1.0
  H  H1420  1  0.473400  0.908600  0.835300  1.0
  H  H1421  1  0.908600  0.164700  0.026600  1.0
  H  H1422  1  0.908600  0.835300  0.473400  1.0
  H  H1423  1  0.664700  0.473400  0.091400  1.0
  H  H1424  1  0.835300  0.473400  0.908600  1.0
  H  H1425  1  0.178200  0.707100  0.132600  1.0
  H  H1426  1  0.957100  0.571800  0.117400  1.0
  H  H1427  1  0.821800  0.792900  0.132600  1.0
  H  H1428  1  0.542900  0.428200  0.617400  1.0
  H  H1429  1  0.071800  0.382600  0.042900  1.0
  H  H1430  1  0.178200  0.292900  0.367400  1.0
  H  H1431  1  0.571800  0.117400  0.957100  1.0
  H  H1432  1  0.617400  0.542900  0.428200  1.0
  H  H1433  1  0.321800  0.707100  0.867400  1.0
  H  H1434  1  0.382600  0.042900  0.071800  1.0
  H  H1435  1  0.132600  0.178200  0.707100  1.0
  H  H1436  1  0.707100  0.132600  0.178200  1.0
  H  H1437  1  0.292900  0.367400  0.178200  1.0
  H  H1438  1  0.132600  0.821800  0.792900  1.0
  H  H1439  1  0.792900  0.132600  0.821800  1.0
  H  H1440  1  0.867400  0.321800  0.707100  1.0
  H  H1441  1  0.367400  0.178200  0.292900  1.0
  H  H1442  1  0.707100  0.867400  0.321800  1.0
  H  H1443  1  0.042900  0.071800  0.382600  1.0
  H  H1444  1  0.957100  0.428200  0.382600  1.0
  H  H1445  1  0.428200  0.617400  0.542900  1.0
  H  H1446  1  0.428200  0.382600  0.957100  1.0
  H  H1447  1  0.117400  0.957100  0.571800  1.0
  H  H1448  1  0.382600  0.957100  0.428200  1.0
  H  H1449  1  0.678200  0.207100  0.632600  1.0
  H  H1450  1  0.457100  0.071800  0.617400  1.0
  H  H1451  1  0.321800  0.292900  0.632600  1.0
  H  H1452  1  0.042900  0.928200  0.117400  1.0
  H  H1453  1  0.571800  0.882600  0.542900  1.0
  H  H1454  1  0.678200  0.792900  0.867400  1.0
  H  H1455  1  0.071800  0.617400  0.457100  1.0
  H  H1456  1  0.117400  0.042900  0.928200  1.0
  H  H1457  1  0.821800  0.207100  0.367400  1.0
  H  H1458  1  0.882600  0.542900  0.571800  1.0
  H  H1459  1  0.632600  0.678200  0.207100  1.0
  H  H1460  1  0.207100  0.632600  0.678200  1.0
  H  H1461  1  0.792900  0.867400  0.678200  1.0
  H  H1462  1  0.632600  0.321800  0.292900  1.0
  H  H1463  1  0.292900  0.632600  0.321800  1.0
  H  H1464  1  0.367400  0.821800  0.207100  1.0
  H  H1465  1  0.867400  0.678200  0.792900  1.0
  H  H1466  1  0.207100  0.367400  0.821800  1.0
  H  H1467  1  0.542900  0.571800  0.882600  1.0
  H  H1468  1  0.457100  0.928200  0.882600  1.0
  H  H1469  1  0.928200  0.117400  0.042900  1.0
  H  H1470  1  0.928200  0.882600  0.457100  1.0
  H  H1471  1  0.617400  0.457100  0.071800  1.0
  H  H1472  1  0.882600  0.457100  0.928200  1.0
  H  H1473  1  0.190000  0.677400  0.116300  1.0
  H  H1474  1  0.927400  0.560000  0.133700  1.0
  H  H1475  1  0.810000  0.822600  0.116300  1.0
  H  H1476  1  0.572600  0.440000  0.633700  1.0
  H  H1477  1  0.060000  0.366300  0.072600  1.0
  H  H1478  1  0.190000  0.322600  0.383700  1.0
  H  H1479  1  0.560000  0.133700  0.927400  1.0
  H  H1480  1  0.633700  0.572600  0.440000  1.0
  H  H1481  1  0.310000  0.677400  0.883700  1.0
  H  H1482  1  0.366300  0.072600  0.060000  1.0
  H  H1483  1  0.116300  0.190000  0.677400  1.0
  H  H1484  1  0.677400  0.116300  0.190000  1.0
  H  H1485  1  0.322600  0.383700  0.190000  1.0
  H  H1486  1  0.116300  0.810000  0.822600  1.0
  H  H1487  1  0.822600  0.116300  0.810000  1.0
  H  H1488  1  0.883700  0.310000  0.677400  1.0
  H  H1489  1  0.383700  0.190000  0.322600  1.0
  H  H1490  1  0.677400  0.883700  0.310000  1.0
  H  H1491  1  0.072600  0.060000  0.366300  1.0
  H  H1492  1  0.927400  0.440000  0.366300  1.0
  H  H1493  1  0.440000  0.633700  0.572600  1.0
  H  H1494  1  0.440000  0.366300  0.927400  1.0
  H  H1495  1  0.133700  0.927400  0.560000  1.0
  H  H1496  1  0.366300  0.927400  0.440000  1.0
  H  H1497  1  0.690000  0.177400  0.616300  1.0
  H  H1498  1  0.427400  0.060000  0.633700  1.0
  H  H1499  1  0.310000  0.322600  0.616300  1.0
  H  H1500  1  0.072600  0.940000  0.133700  1.0
  H  H1501  1  0.560000  0.866300  0.572600  1.0
  H  H1502  1  0.690000  0.822600  0.883700  1.0
  H  H1503  1  0.060000  0.633700  0.427400  1.0
  H  H1504  1  0.133700  0.072600  0.940000  1.0
  H  H1505  1  0.810000  0.177400  0.383700  1.0
  H  H1506  1  0.866300  0.572600  0.560000  1.0
  H  H1507  1  0.616300  0.690000  0.177400  1.0
  H  H1508  1  0.177400  0.616300  0.690000  1.0
  H  H1509  1  0.822600  0.883700  0.690000  1.0
  H  H1510  1  0.616300  0.310000  0.322600  1.0
  H  H1511  1  0.322600  0.616300  0.310000  1.0
  H  H1512  1  0.383700  0.810000  0.177400  1.0
  H  H1513  1  0.883700  0.690000  0.822600  1.0
  H  H1514  1  0.177400  0.383700  0.810000  1.0
  H  H1515  1  0.572600  0.560000  0.866300  1.0
  H  H1516  1  0.427400  0.940000  0.866300  1.0
  H  H1517  1  0.940000  0.133700  0.072600  1.0
  H  H1518  1  0.940000  0.866300  0.427400  1.0
  H  H1519  1  0.633700  0.427400  0.060000  1.0
  H  H1520  1  0.866300  0.427400  0.940000  1.0
  H  H1521  1  0.128300  0.694300  0.115500  1.0
  H  H1522  1  0.944300  0.621700  0.134500  1.0
  H  H1523  1  0.871700  0.805700  0.115500  1.0
  H  H1524  1  0.555700  0.378300  0.634500  1.0
  H  H1525  1  0.121700  0.365500  0.055700  1.0
  H  H1526  1  0.128300  0.305700  0.384500  1.0
  H  H1527  1  0.621700  0.134500  0.944300  1.0
  H  H1528  1  0.634500  0.555700  0.378300  1.0
  H  H1529  1  0.371700  0.694300  0.884500  1.0
  H  H1530  1  0.365500  0.055700  0.121700  1.0
  H  H1531  1  0.115500  0.128300  0.694300  1.0
  H  H1532  1  0.694300  0.115500  0.128300  1.0
  H  H1533  1  0.305700  0.384500  0.128300  1.0
  H  H1534  1  0.115500  0.871700  0.805700  1.0
  H  H1535  1  0.805700  0.115500  0.871700  1.0
  H  H1536  1  0.884500  0.371700  0.694300  1.0
  H  H1537  1  0.384500  0.128300  0.305700  1.0
  H  H1538  1  0.694300  0.884500  0.371700  1.0
  H  H1539  1  0.055700  0.121700  0.365500  1.0
  H  H1540  1  0.944300  0.378300  0.365500  1.0
  H  H1541  1  0.378300  0.634500  0.555700  1.0
  H  H1542  1  0.378300  0.365500  0.944300  1.0
  H  H1543  1  0.134500  0.944300  0.621700  1.0
  H  H1544  1  0.365500  0.944300  0.378300  1.0
  H  H1545  1  0.628300  0.194300  0.615500  1.0
  H  H1546  1  0.444300  0.121700  0.634500  1.0
  H  H1547  1  0.371700  0.305700  0.615500  1.0
  H  H1548  1  0.055700  0.878300  0.134500  1.0
  H  H1549  1  0.621700  0.865500  0.555700  1.0
  H  H1550  1  0.628300  0.805700  0.884500  1.0
  H  H1551  1  0.121700  0.634500  0.444300  1.0
  H  H1552  1  0.134500  0.055700  0.878300  1.0
  H  H1553  1  0.871700  0.194300  0.384500  1.0
  H  H1554  1  0.865500  0.555700  0.621700  1.0
  H  H1555  1  0.615500  0.628300  0.194300  1.0
  H  H1556  1  0.194300  0.615500  0.628300  1.0
  H  H1557  1  0.805700  0.884500  0.628300  1.0
  H  H1558  1  0.615500  0.371700  0.305700  1.0
  H  H1559  1  0.305700  0.615500  0.371700  1.0
  H  H1560  1  0.384500  0.871700  0.194300  1.0
  H  H1561  1  0.884500  0.628300  0.805700  1.0
  H  H1562  1  0.194300  0.384500  0.871700  1.0
  H  H1563  1  0.555700  0.621700  0.865500  1.0
  H  H1564  1  0.444300  0.878300  0.865500  1.0
  H  H1565  1  0.878300  0.134500  0.055700  1.0
  H  H1566  1  0.878300  0.865500  0.444300  1.0
  H  H1567  1  0.634500  0.444300  0.121700  1.0
  H  H1568  1  0.865500  0.444300  0.878300  1.0
  H  H1569  1  0.141500  0.672700  0.140900  1.0
  H  H1570  1  0.922700  0.608500  0.109100  1.0
  H  H1571  1  0.858500  0.827300  0.140900  1.0
  H  H1572  1  0.577300  0.391500  0.609100  1.0
  H  H1573  1  0.108500  0.390900  0.077300  1.0
  H  H1574  1  0.141500  0.327300  0.359100  1.0
  H  H1575  1  0.608500  0.109100  0.922700  1.0
  H  H1576  1  0.609100  0.577300  0.391500  1.0
  H  H1577  1  0.358500  0.672700  0.859100  1.0
  H  H1578  1  0.390900  0.077300  0.108500  1.0
  H  H1579  1  0.140900  0.141500  0.672700  1.0
  H  H1580  1  0.672700  0.140900  0.141500  1.0
  H  H1581  1  0.327300  0.359100  0.141500  1.0
  H  H1582  1  0.140900  0.858500  0.827300  1.0
  H  H1583  1  0.827300  0.140900  0.858500  1.0
  H  H1584  1  0.859100  0.358500  0.672700  1.0
  H  H1585  1  0.359100  0.141500  0.327300  1.0
  H  H1586  1  0.672700  0.859100  0.358500  1.0
  H  H1587  1  0.077300  0.108500  0.390900  1.0
  H  H1588  1  0.922700  0.391500  0.390900  1.0
  H  H1589  1  0.391500  0.609100  0.577300  1.0
  H  H1590  1  0.391500  0.390900  0.922700  1.0
  H  H1591  1  0.109100  0.922700  0.608500  1.0
  H  H1592  1  0.390900  0.922700  0.391500  1.0
  H  H1593  1  0.641500  0.172700  0.640900  1.0
  H  H1594  1  0.422700  0.108500  0.609100  1.0
  H  H1595  1  0.358500  0.327300  0.640900  1.0
  H  H1596  1  0.077300  0.891500  0.109100  1.0
  H  H1597  1  0.608500  0.890900  0.577300  1.0
  H  H1598  1  0.641500  0.827300  0.859100  1.0
  H  H1599  1  0.108500  0.609100  0.422700  1.0
  H  H1600  1  0.109100  0.077300  0.891500  1.0
  H  H1601  1  0.858500  0.172700  0.359100  1.0
  H  H1602  1  0.890900  0.577300  0.608500  1.0
  H  H1603  1  0.640900  0.641500  0.172700  1.0
  H  H1604  1  0.172700  0.640900  0.641500  1.0
  H  H1605  1  0.827300  0.859100  0.641500  1.0
  H  H1606  1  0.640900  0.358500  0.327300  1.0
  H  H1607  1  0.327300  0.640900  0.358500  1.0
  H  H1608  1  0.359100  0.858500  0.172700  1.0
  H  H1609  1  0.859100  0.641500  0.827300  1.0
  H  H1610  1  0.172700  0.359100  0.858500  1.0
  H  H1611  1  0.577300  0.608500  0.890900  1.0
  H  H1612  1  0.422700  0.891500  0.890900  1.0
  H  H1613  1  0.891500  0.109100  0.077300  1.0
  H  H1614  1  0.891500  0.890900  0.422700  1.0
  H  H1615  1  0.609100  0.422700  0.108500  1.0
  H  H1616  1  0.890900  0.422700  0.891500  1.0
  H  H1617  1  0.169800  0.625600  0.148500  1.0
  H  H1618  1  0.875600  0.580200  0.101500  1.0
  H  H1619  1  0.830200  0.874400  0.148500  1.0
  H  H1620  1  0.624400  0.419800  0.601500  1.0
  H  H1621  1  0.080200  0.398500  0.124400  1.0
  H  H1622  1  0.169800  0.374400  0.351500  1.0
  H  H1623  1  0.580200  0.101500  0.875600  1.0
  H  H1624  1  0.601500  0.624400  0.419800  1.0
  H  H1625  1  0.330200  0.625600  0.851500  1.0
  H  H1626  1  0.398500  0.124400  0.080200  1.0
  H  H1627  1  0.148500  0.169800  0.625600  1.0
  H  H1628  1  0.625600  0.148500  0.169800  1.0
  H  H1629  1  0.374400  0.351500  0.169800  1.0
  H  H1630  1  0.148500  0.830200  0.874400  1.0
  H  H1631  1  0.874400  0.148500  0.830200  1.0
  H  H1632  1  0.851500  0.330200  0.625600  1.0
  H  H1633  1  0.351500  0.169800  0.374400  1.0
  H  H1634  1  0.625600  0.851500  0.330200  1.0
  H  H1635  1  0.124400  0.080200  0.398500  1.0
  H  H1636  1  0.875600  0.419800  0.398500  1.0
  H  H1637  1  0.419800  0.601500  0.624400  1.0
  H  H1638  1  0.419800  0.398500  0.875600  1.0
  H  H1639  1  0.101500  0.875600  0.580200  1.0
  H  H1640  1  0.398500  0.875600  0.419800  1.0
  H  H1641  1  0.669800  0.125600  0.648500  1.0
  H  H1642  1  0.375600  0.080200  0.601500  1.0
  H  H1643  1  0.330200  0.374400  0.648500  1.0
  H  H1644  1  0.124400  0.919800  0.101500  1.0
  H  H1645  1  0.580200  0.898500  0.624400  1.0
  H  H1646  1  0.669800  0.874400  0.851500  1.0
  H  H1647  1  0.080200  0.601500  0.375600  1.0
  H  H1648  1  0.101500  0.124400  0.919800  1.0
  H  H1649  1  0.830200  0.125600  0.351500  1.0
  H  H1650  1  0.898500  0.624400  0.580200  1.0
  H  H1651  1  0.648500  0.669800  0.125600  1.0
  H  H1652  1  0.125600  0.648500  0.669800  1.0
  H  H1653  1  0.874400  0.851500  0.669800  1.0
  H  H1654  1  0.648500  0.330200  0.374400  1.0
  H  H1655  1  0.374400  0.648500  0.330200  1.0
  H  H1656  1  0.351500  0.830200  0.125600  1.0
  H  H1657  1  0.851500  0.669800  0.874400  1.0
  H  H1658  1  0.125600  0.351500  0.830200  1.0
  H  H1659  1  0.624400  0.580200  0.898500  1.0
  H  H1660  1  0.375600  0.919800  0.898500  1.0
  H  H1661  1  0.919800  0.101500  0.124400  1.0
  H  H1662  1  0.919800  0.898500  0.375600  1.0
  H  H1663  1  0.601500  0.375600  0.080200  1.0
  H  H1664  1  0.898500  0.375600  0.919800  1.0
  H  H1665  1  0.204900  0.584800  0.157600  1.0
  H  H1666  1  0.834800  0.545100  0.092400  1.0
  H  H1667  1  0.795100  0.915200  0.157600  1.0
  H  H1668  1  0.665200  0.454900  0.592400  1.0
  H  H1669  1  0.045100  0.407600  0.165200  1.0
  H  H1670  1  0.204900  0.415200  0.342400  1.0
  H  H1671  1  0.545100  0.092400  0.834800  1.0
  H  H1672  1  0.592400  0.665200  0.454900  1.0
  H  H1673  1  0.295100  0.584800  0.842400  1.0
  H  H1674  1  0.407600  0.165200  0.045100  1.0
  H  H1675  1  0.157600  0.204900  0.584800  1.0
  H  H1676  1  0.584800  0.157600  0.204900  1.0
  H  H1677  1  0.415200  0.342400  0.204900  1.0
  H  H1678  1  0.157600  0.795100  0.915200  1.0
  H  H1679  1  0.915200  0.157600  0.795100  1.0
  H  H1680  1  0.842400  0.295100  0.584800  1.0
  H  H1681  1  0.342400  0.204900  0.415200  1.0
  H  H1682  1  0.584800  0.842400  0.295100  1.0
  H  H1683  1  0.165200  0.045100  0.407600  1.0
  H  H1684  1  0.834800  0.454900  0.407600  1.0
  H  H1685  1  0.454900  0.592400  0.665200  1.0
  H  H1686  1  0.454900  0.407600  0.834800  1.0
  H  H1687  1  0.092400  0.834800  0.545100  1.0
  H  H1688  1  0.407600  0.834800  0.454900  1.0
  H  H1689  1  0.704900  0.084800  0.657600  1.0
  H  H1690  1  0.334800  0.045100  0.592400  1.0
  H  H1691  1  0.295100  0.415200  0.657600  1.0
  H  H1692  1  0.165200  0.954900  0.092400  1.0
  H  H1693  1  0.545100  0.907600  0.665200  1.0
  H  H1694  1  0.704900  0.915200  0.842400  1.0
  H  H1695  1  0.045100  0.592400  0.334800  1.0
  H  H1696  1  0.092400  0.165200  0.954900  1.0
  H  H1697  1  0.795100  0.084800  0.342400  1.0
  H  H1698  1  0.907600  0.665200  0.545100  1.0
  H  H1699  1  0.657600  0.704900  0.084800  1.0
  H  H1700  1  0.084800  0.657600  0.704900  1.0
  H  H1701  1  0.915200  0.842400  0.704900  1.0
  H  H1702  1  0.657600  0.295100  0.415200  1.0
  H  H1703  1  0.415200  0.657600  0.295100  1.0
  H  H1704  1  0.342400  0.795100  0.084800  1.0
  H  H1705  1  0.842400  0.704900  0.915200  1.0
  H  H1706  1  0.084800  0.342400  0.795100  1.0
  H  H1707  1  0.665200  0.545100  0.907600  1.0
  H  H1708  1  0.334800  0.954900  0.907600  1.0
  H  H1709  1  0.954900  0.092400  0.165200  1.0
  H  H1710  1  0.954900  0.907600  0.334800  1.0
  H  H1711  1  0.592400  0.334800  0.045100  1.0
  H  H1712  1  0.907600  0.334800  0.954900  1.0
  H  H1713  1  0.217300  0.551700  0.120300  1.0
  H  H1714  1  0.801700  0.532700  0.129700  1.0
  H  H1715  1  0.782700  0.948300  0.120300  1.0
  H  H1716  1  0.698300  0.467300  0.629700  1.0
  H  H1717  1  0.032700  0.370300  0.198300  1.0
  H  H1718  1  0.217300  0.448300  0.379700  1.0
  H  H1719  1  0.532700  0.129700  0.801700  1.0
  H  H1720  1  0.629700  0.698300  0.467300  1.0
  H  H1721  1  0.282700  0.551700  0.879700  1.0
  H  H1722  1  0.370300  0.198300  0.032700  1.0
  H  H1723  1  0.120300  0.217300  0.551700  1.0
  H  H1724  1  0.551700  0.120300  0.217300  1.0
  H  H1725  1  0.448300  0.379700  0.217300  1.0
  H  H1726  1  0.120300  0.782700  0.948300  1.0
  H  H1727  1  0.948300  0.120300  0.782700  1.0
  H  H1728  1  0.879700  0.282700  0.551700  1.0
  H  H1729  1  0.379700  0.217300  0.448300  1.0
  H  H1730  1  0.551700  0.879700  0.282700  1.0
  H  H1731  1  0.198300  0.032700  0.370300  1.0
  H  H1732  1  0.801700  0.467300  0.370300  1.0
  H  H1733  1  0.467300  0.629700  0.698300  1.0
  H  H1734  1  0.467300  0.370300  0.801700  1.0
  H  H1735  1  0.129700  0.801700  0.532700  1.0
  H  H1736  1  0.370300  0.801700  0.467300  1.0
  H  H1737  1  0.717300  0.051700  0.620300  1.0
  H  H1738  1  0.301700  0.032700  0.629700  1.0
  H  H1739  1  0.282700  0.448300  0.620300  1.0
  H  H1740  1  0.198300  0.967300  0.129700  1.0
  H  H1741  1  0.532700  0.870300  0.698300  1.0
  H  H1742  1  0.717300  0.948300  0.879700  1.0
  H  H1743  1  0.032700  0.629700  0.301700  1.0
  H  H1744  1  0.129700  0.198300  0.967300  1.0
  H  H1745  1  0.782700  0.051700  0.379700  1.0
  H  H1746  1  0.870300  0.698300  0.532700  1.0
  H  H1747  1  0.620300  0.717300  0.051700  1.0
  H  H1748  1  0.051700  0.620300  0.717300  1.0
  H  H1749  1  0.948300  0.879700  0.717300  1.0
  H  H1750  1  0.620300  0.282700  0.448300  1.0
  H  H1751  1  0.448300  0.620300  0.282700  1.0
  H  H1752  1  0.379700  0.782700  0.051700  1.0
  H  H1753  1  0.879700  0.717300  0.948300  1.0
  H  H1754  1  0.051700  0.379700  0.782700  1.0
  H  H1755  1  0.698300  0.532700  0.870300  1.0
  H  H1756  1  0.301700  0.967300  0.870300  1.0
  H  H1757  1  0.967300  0.129700  0.198300  1.0
  H  H1758  1  0.967300  0.870300  0.301700  1.0
  H  H1759  1  0.629700  0.301700  0.032700  1.0
  H  H1760  1  0.870300  0.301700  0.967300  1.0
  H  H1761  1  0.197000  0.555900  0.072200  1.0
  H  H1762  1  0.805900  0.553000  0.177800  1.0
  H  H1763  1  0.803000  0.944100  0.072200  1.0
  H  H1764  1  0.694100  0.447000  0.677800  1.0
  H  H1765  1  0.053000  0.322200  0.194100  1.0
  H  H1766  1  0.197000  0.444100  0.427800  1.0
  H  H1767  1  0.553000  0.177800  0.805900  1.0
  H  H1768  1  0.677800  0.694100  0.447000  1.0
  H  H1769  1  0.303000  0.555900  0.927800  1.0
  H  H1770  1  0.322200  0.194100  0.053000  1.0
  H  H1771  1  0.072200  0.197000  0.555900  1.0
  H  H1772  1  0.555900  0.072200  0.197000  1.0
  H  H1773  1  0.444100  0.427800  0.197000  1.0
  H  H1774  1  0.072200  0.803000  0.944100  1.0
  H  H1775  1  0.944100  0.072200  0.803000  1.0
  H  H1776  1  0.927800  0.303000  0.555900  1.0
  H  H1777  1  0.427800  0.197000  0.444100  1.0
  H  H1778  1  0.555900  0.927800  0.303000  1.0
  H  H1779  1  0.194100  0.053000  0.322200  1.0
  H  H1780  1  0.805900  0.447000  0.322200  1.0
  H  H1781  1  0.447000  0.677800  0.694100  1.0
  H  H1782  1  0.447000  0.322200  0.805900  1.0
  H  H1783  1  0.177800  0.805900  0.553000  1.0
  H  H1784  1  0.322200  0.805900  0.447000  1.0
  H  H1785  1  0.697000  0.055900  0.572200  1.0
  H  H1786  1  0.305900  0.053000  0.677800  1.0
  H  H1787  1  0.303000  0.444100  0.572200  1.0
  H  H1788  1  0.194100  0.947000  0.177800  1.0
  H  H1789  1  0.553000  0.822200  0.694100  1.0
  H  H1790  1  0.697000  0.944100  0.927800  1.0
  H  H1791  1  0.053000  0.677800  0.305900  1.0
  H  H1792  1  0.177800  0.194100  0.947000  1.0
  H  H1793  1  0.803000  0.055900  0.427800  1.0
  H  H1794  1  0.822200  0.694100  0.553000  1.0
  H  H1795  1  0.572200  0.697000  0.055900  1.0
  H  H1796  1  0.055900  0.572200  0.697000  1.0
  H  H1797  1  0.944100  0.927800  0.697000  1.0
  H  H1798  1  0.572200  0.303000  0.444100  1.0
  H  H1799  1  0.444100  0.572200  0.303000  1.0
  H  H1800  1  0.427800  0.803000  0.055900  1.0
  H  H1801  1  0.927800  0.697000  0.944100  1.0
  H  H1802  1  0.055900  0.427800  0.803000  1.0
  H  H1803  1  0.694100  0.553000  0.822200  1.0
  H  H1804  1  0.305900  0.947000  0.822200  1.0
  H  H1805  1  0.947000  0.177800  0.194100  1.0
  H  H1806  1  0.947000  0.822200  0.305900  1.0
  H  H1807  1  0.677800  0.305900  0.053000  1.0
  H  H1808  1  0.822200  0.305900  0.947000  1.0
  H  H1809  1  0.165200  0.597500  0.061300  1.0
  H  H1810  1  0.847500  0.584800  0.188700  1.0
  H  H1811  1  0.834800  0.902500  0.061300  1.0
  H  H1812  1  0.652500  0.415200  0.688700  1.0
  H  H1813  1  0.084800  0.311300  0.152500  1.0
  H  H1814  1  0.165200  0.402500  0.438700  1.0
  H  H1815  1  0.584800  0.188700  0.847500  1.0
  H  H1816  1  0.688700  0.652500  0.415200  1.0
  H  H1817  1  0.334800  0.597500  0.938700  1.0
  H  H1818  1  0.311300  0.152500  0.084800  1.0
  H  H1819  1  0.061300  0.165200  0.597500  1.0
  H  H1820  1  0.597500  0.061300  0.165200  1.0
  H  H1821  1  0.402500  0.438700  0.165200  1.0
  H  H1822  1  0.061300  0.834800  0.902500  1.0
  H  H1823  1  0.902500  0.061300  0.834800  1.0
  H  H1824  1  0.938700  0.334800  0.597500  1.0
  H  H1825  1  0.438700  0.165200  0.402500  1.0
  H  H1826  1  0.597500  0.938700  0.334800  1.0
  H  H1827  1  0.152500  0.084800  0.311300  1.0
  H  H1828  1  0.847500  0.415200  0.311300  1.0
  H  H1829  1  0.415200  0.688700  0.652500  1.0
  H  H1830  1  0.415200  0.311300  0.847500  1.0
  H  H1831  1  0.188700  0.847500  0.584800  1.0
  H  H1832  1  0.311300  0.847500  0.415200  1.0
  H  H1833  1  0.665200  0.097500  0.561300  1.0
  H  H1834  1  0.347500  0.084800  0.688700  1.0
  H  H1835  1  0.334800  0.402500  0.561300  1.0
  H  H1836  1  0.152500  0.915200  0.188700  1.0
  H  H1837  1  0.584800  0.811300  0.652500  1.0
  H  H1838  1  0.665200  0.902500  0.938700  1.0
  H  H1839  1  0.084800  0.688700  0.347500  1.0
  H  H1840  1  0.188700  0.152500  0.915200  1.0
  H  H1841  1  0.834800  0.097500  0.438700  1.0
  H  H1842  1  0.811300  0.652500  0.584800  1.0
  H  H1843  1  0.561300  0.665200  0.097500  1.0
  H  H1844  1  0.097500  0.561300  0.665200  1.0
  H  H1845  1  0.902500  0.938700  0.665200  1.0
  H  H1846  1  0.561300  0.334800  0.402500  1.0
  H  H1847  1  0.402500  0.561300  0.334800  1.0
  H  H1848  1  0.438700  0.834800  0.097500  1.0
  H  H1849  1  0.938700  0.665200  0.902500  1.0
  H  H1850  1  0.097500  0.438700  0.834800  1.0
  H  H1851  1  0.652500  0.584800  0.811300  1.0
  H  H1852  1  0.347500  0.915200  0.811300  1.0
  H  H1853  1  0.915200  0.188700  0.152500  1.0
  H  H1854  1  0.915200  0.811300  0.347500  1.0
  H  H1855  1  0.688700  0.347500  0.084800  1.0
  H  H1856  1  0.811300  0.347500  0.915200  1.0
  H  H1857  1  0.238900  0.698400  0.073200  1.0
  H  H1858  1  0.948400  0.511100  0.176800  1.0
  H  H1859  1  0.761100  0.801600  0.073200  1.0
  H  H1860  1  0.551600  0.488900  0.676800  1.0
  H  H1861  1  0.011100  0.323200  0.051600  1.0
  H  H1862  1  0.238900  0.301600  0.426800  1.0
  H  H1863  1  0.511100  0.176800  0.948400  1.0
  H  H1864  1  0.676800  0.551600  0.488900  1.0
  H  H1865  1  0.261100  0.698400  0.926800  1.0
  H  H1866  1  0.323200  0.051600  0.011100  1.0
  H  H1867  1  0.073200  0.238900  0.698400  1.0
  H  H1868  1  0.698400  0.073200  0.238900  1.0
  H  H1869  1  0.301600  0.426800  0.238900  1.0
  H  H1870  1  0.073200  0.761100  0.801600  1.0
  H  H1871  1  0.801600  0.073200  0.761100  1.0
  H  H1872  1  0.926800  0.261100  0.698400  1.0
  H  H1873  1  0.426800  0.238900  0.301600  1.0
  H  H1874  1  0.698400  0.926800  0.261100  1.0
  H  H1875  1  0.051600  0.011100  0.323200  1.0
  H  H1876  1  0.948400  0.488900  0.323200  1.0
  H  H1877  1  0.488900  0.676800  0.551600  1.0
  H  H1878  1  0.488900  0.323200  0.948400  1.0
  H  H1879  1  0.176800  0.948400  0.511100  1.0
  H  H1880  1  0.323200  0.948400  0.488900  1.0
  H  H1881  1  0.738900  0.198400  0.573200  1.0
  H  H1882  1  0.448400  0.011100  0.676800  1.0
  H  H1883  1  0.261100  0.301600  0.573200  1.0
  H  H1884  1  0.051600  0.988900  0.176800  1.0
  H  H1885  1  0.511100  0.823200  0.551600  1.0
  H  H1886  1  0.738900  0.801600  0.926800  1.0
  H  H1887  1  0.011100  0.676800  0.448400  1.0
  H  H1888  1  0.176800  0.051600  0.988900  1.0
  H  H1889  1  0.761100  0.198400  0.426800  1.0
  H  H1890  1  0.823200  0.551600  0.511100  1.0
  H  H1891  1  0.573200  0.738900  0.198400  1.0
  H  H1892  1  0.198400  0.573200  0.738900  1.0
  H  H1893  1  0.801600  0.926800  0.738900  1.0
  H  H1894  1  0.573200  0.261100  0.301600  1.0
  H  H1895  1  0.301600  0.573200  0.261100  1.0
  H  H1896  1  0.426800  0.761100  0.198400  1.0
  H  H1897  1  0.926800  0.738900  0.801600  1.0
  H  H1898  1  0.198400  0.426800  0.761100  1.0
  H  H1899  1  0.551600  0.511100  0.823200  1.0
  H  H1900  1  0.448400  0.988900  0.823200  1.0
  H  H1901  1  0.988900  0.176800  0.051600  1.0
  H  H1902  1  0.988900  0.823200  0.448400  1.0
  H  H1903  1  0.676800  0.448400  0.011100  1.0
  H  H1904  1  0.823200  0.448400  0.988900  1.0
  H  H1905  1  0.283700  0.669100  0.074900  1.0
  H  H1906  1  0.919100  0.466300  0.175100  1.0
  H  H1907  1  0.716300  0.830900  0.074900  1.0
  H  H1908  1  0.580900  0.533700  0.675100  1.0
  H  H1909  1  0.966300  0.324900  0.080900  1.0
  H  H1910  1  0.283700  0.330900  0.425100  1.0
  H  H1911  1  0.466300  0.175100  0.919100  1.0
  H  H1912  1  0.675100  0.580900  0.533700  1.0
  H  H1913  1  0.216300  0.669100  0.925100  1.0
  H  H1914  1  0.324900  0.080900  0.966300  1.0
  H  H1915  1  0.074900  0.283700  0.669100  1.0
  H  H1916  1  0.669100  0.074900  0.283700  1.0
  H  H1917  1  0.330900  0.425100  0.283700  1.0
  H  H1918  1  0.074900  0.716300  0.830900  1.0
  H  H1919  1  0.830900  0.074900  0.716300  1.0
  H  H1920  1  0.925100  0.216300  0.669100  1.0
  H  H1921  1  0.425100  0.283700  0.330900  1.0
  H  H1922  1  0.669100  0.925100  0.216300  1.0
  H  H1923  1  0.080900  0.966300  0.324900  1.0
  H  H1924  1  0.919100  0.533700  0.324900  1.0
  H  H1925  1  0.533700  0.675100  0.580900  1.0
  H  H1926  1  0.533700  0.324900  0.919100  1.0
  H  H1927  1  0.175100  0.919100  0.466300  1.0
  H  H1928  1  0.324900  0.919100  0.533700  1.0
  H  H1929  1  0.783700  0.169100  0.574900  1.0
  H  H1930  1  0.419100  0.966300  0.675100  1.0
  H  H1931  1  0.216300  0.330900  0.574900  1.0
  H  H1932  1  0.080900  0.033700  0.175100  1.0
  H  H1933  1  0.466300  0.824900  0.580900  1.0
  H  H1934  1  0.783700  0.830900  0.925100  1.0
  H  H1935  1  0.966300  0.675100  0.419100  1.0
  H  H1936  1  0.175100  0.080900  0.033700  1.0
  H  H1937  1  0.716300  0.169100  0.425100  1.0
  H  H1938  1  0.824900  0.580900  0.466300  1.0
  H  H1939  1  0.574900  0.783700  0.169100  1.0
  H  H1940  1  0.169100  0.574900  0.783700  1.0
  H  H1941  1  0.830900  0.925100  0.783700  1.0
  H  H1942  1  0.574900  0.216300  0.330900  1.0
  H  H1943  1  0.330900  0.574900  0.216300  1.0
  H  H1944  1  0.425100  0.716300  0.169100  1.0
  H  H1945  1  0.925100  0.783700  0.830900  1.0
  H  H1946  1  0.169100  0.425100  0.716300  1.0
  H  H1947  1  0.580900  0.466300  0.824900  1.0
  H  H1948  1  0.419100  0.033700  0.824900  1.0
  H  H1949  1  0.033700  0.175100  0.080900  1.0
  H  H1950  1  0.033700  0.824900  0.419100  1.0
  H  H1951  1  0.675100  0.419100  0.966300  1.0
  H  H1952  1  0.824900  0.419100  0.033700  1.0
  H  H1953  1  0.284900  0.620800  0.054500  1.0
  H  H1954  1  0.870800  0.465100  0.195500  1.0
  H  H1955  1  0.715100  0.879200  0.054500  1.0
  H  H1956  1  0.629200  0.534900  0.695500  1.0
  H  H1957  1  0.965100  0.304500  0.129200  1.0
  H  H1958  1  0.284900  0.379200  0.445500  1.0
  H  H1959  1  0.465100  0.195500  0.870800  1.0
  H  H1960  1  0.695500  0.629200  0.534900  1.0
  H  H1961  1  0.215100  0.620800  0.945500  1.0
  H  H1962  1  0.304500  0.129200  0.965100  1.0
  H  H1963  1  0.054500  0.284900  0.620800  1.0
  H  H1964  1  0.620800  0.054500  0.284900  1.0
  H  H1965  1  0.379200  0.445500  0.284900  1.0
  H  H1966  1  0.054500  0.715100  0.879200  1.0
  H  H1967  1  0.879200  0.054500  0.715100  1.0
  H  H1968  1  0.945500  0.215100  0.620800  1.0
  H  H1969  1  0.445500  0.284900  0.379200  1.0
  H  H1970  1  0.620800  0.945500  0.215100  1.0
  H  H1971  1  0.129200  0.965100  0.304500  1.0
  H  H1972  1  0.870800  0.534900  0.304500  1.0
  H  H1973  1  0.534900  0.695500  0.629200  1.0
  H  H1974  1  0.534900  0.304500  0.870800  1.0
  H  H1975  1  0.195500  0.870800  0.465100  1.0
  H  H1976  1  0.304500  0.870800  0.534900  1.0
  H  H1977  1  0.784900  0.120800  0.554500  1.0
  H  H1978  1  0.370800  0.965100  0.695500  1.0
  H  H1979  1  0.215100  0.379200  0.554500  1.0
  H  H1980  1  0.129200  0.034900  0.195500  1.0
  H  H1981  1  0.465100  0.804500  0.629200  1.0
  H  H1982  1  0.784900  0.879200  0.945500  1.0
  H  H1983  1  0.965100  0.695500  0.370800  1.0
  H  H1984  1  0.195500  0.129200  0.034900  1.0
  H  H1985  1  0.715100  0.120800  0.445500  1.0
  H  H1986  1  0.804500  0.629200  0.465100  1.0
  H  H1987  1  0.554500  0.784900  0.120800  1.0
  H  H1988  1  0.120800  0.554500  0.784900  1.0
  H  H1989  1  0.879200  0.945500  0.784900  1.0
  H  H1990  1  0.554500  0.215100  0.379200  1.0
  H  H1991  1  0.379200  0.554500  0.215100  1.0
  H  H1992  1  0.445500  0.715100  0.120800  1.0
  H  H1993  1  0.945500  0.784900  0.879200  1.0
  H  H1994  1  0.120800  0.445500  0.715100  1.0
  H  H1995  1  0.629200  0.465100  0.804500  1.0
  H  H1996  1  0.370800  0.034900  0.804500  1.0
  H  H1997  1  0.034900  0.195500  0.129200  1.0
  H  H1998  1  0.034900  0.804500  0.370800  1.0
  H  H1999  1  0.695500  0.370800  0.965100  1.0
  H  H2000  1  0.804500  0.370800  0.034900  1.0
  H  H2001  1  0.242000  0.601500  0.029500  1.0
  H  H2002  1  0.851500  0.508000  0.220500  1.0
  H  H2003  1  0.758000  0.898500  0.029500  1.0
  H  H2004  1  0.648500  0.492000  0.720500  1.0
  H  H2005  1  0.008000  0.279500  0.148500  1.0
  H  H2006  1  0.242000  0.398500  0.470500  1.0
  H  H2007  1  0.508000  0.220500  0.851500  1.0
  H  H2008  1  0.720500  0.648500  0.492000  1.0
  H  H2009  1  0.258000  0.601500  0.970500  1.0
  H  H2010  1  0.279500  0.148500  0.008000  1.0
  H  H2011  1  0.029500  0.242000  0.601500  1.0
  H  H2012  1  0.601500  0.029500  0.242000  1.0
  H  H2013  1  0.398500  0.470500  0.242000  1.0
  H  H2014  1  0.029500  0.758000  0.898500  1.0
  H  H2015  1  0.898500  0.029500  0.758000  1.0
  H  H2016  1  0.970500  0.258000  0.601500  1.0
  H  H2017  1  0.470500  0.242000  0.398500  1.0
  H  H2018  1  0.601500  0.970500  0.258000  1.0
  H  H2019  1  0.148500  0.008000  0.279500  1.0
  H  H2020  1  0.851500  0.492000  0.279500  1.0
  H  H2021  1  0.492000  0.720500  0.648500  1.0
  H  H2022  1  0.492000  0.279500  0.851500  1.0
  H  H2023  1  0.220500  0.851500  0.508000  1.0
  H  H2024  1  0.279500  0.851500  0.492000  1.0
  H  H2025  1  0.742000  0.101500  0.529500  1.0
  H  H2026  1  0.351500  0.008000  0.720500  1.0
  H  H2027  1  0.258000  0.398500  0.529500  1.0
  H  H2028  1  0.148500  0.992000  0.220500  1.0
  H  H2029  1  0.508000  0.779500  0.648500  1.0
  H  H2030  1  0.742000  0.898500  0.970500  1.0
  H  H2031  1  0.008000  0.720500  0.351500  1.0
  H  H2032  1  0.220500  0.148500  0.992000  1.0
  H  H2033  1  0.758000  0.101500  0.470500  1.0
  H  H2034  1  0.779500  0.648500  0.508000  1.0
  H  H2035  1  0.529500  0.742000  0.101500  1.0
  H  H2036  1  0.101500  0.529500  0.742000  1.0
  H  H2037  1  0.898500  0.970500  0.742000  1.0
  H  H2038  1  0.529500  0.258000  0.398500  1.0
  H  H2039  1  0.398500  0.529500  0.258000  1.0
  H  H2040  1  0.470500  0.758000  0.101500  1.0
  H  H2041  1  0.970500  0.742000  0.898500  1.0
  H  H2042  1  0.101500  0.470500  0.758000  1.0
  H  H2043  1  0.648500  0.508000  0.779500  1.0
  H  H2044  1  0.351500  0.992000  0.779500  1.0
  H  H2045  1  0.992000  0.220500  0.148500  1.0
  H  H2046  1  0.992000  0.779500  0.351500  1.0
  H  H2047  1  0.720500  0.351500  0.008000  1.0
  H  H2048  1  0.779500  0.351500  0.992000  1.0
  H  H2049  1  0.196300  0.628700  0.031200  1.0
  H  H2050  1  0.878700  0.553700  0.218800  1.0
  H  H2051  1  0.803700  0.871300  0.031200  1.0
  H  H2052  1  0.621300  0.446300  0.718800  1.0
  H  H2053  1  0.053700  0.281200  0.121300  1.0
  H  H2054  1  0.196300  0.371300  0.468800  1.0
  H  H2055  1  0.553700  0.218800  0.878700  1.0
  H  H2056  1  0.718800  0.621300  0.446300  1.0
  H  H2057  1  0.303700  0.628700  0.968800  1.0
  H  H2058  1  0.281200  0.121300  0.053700  1.0
  H  H2059  1  0.031200  0.196300  0.628700  1.0
  H  H2060  1  0.628700  0.031200  0.196300  1.0
  H  H2061  1  0.371300  0.468800  0.196300  1.0
  H  H2062  1  0.031200  0.803700  0.871300  1.0
  H  H2063  1  0.871300  0.031200  0.803700  1.0
  H  H2064  1  0.968800  0.303700  0.628700  1.0
  H  H2065  1  0.468800  0.196300  0.371300  1.0
  H  H2066  1  0.628700  0.968800  0.303700  1.0
  H  H2067  1  0.121300  0.053700  0.281200  1.0
  H  H2068  1  0.878700  0.446300  0.281200  1.0
  H  H2069  1  0.446300  0.718800  0.621300  1.0
  H  H2070  1  0.446300  0.281200  0.878700  1.0
  H  H2071  1  0.218800  0.878700  0.553700  1.0
  H  H2072  1  0.281200  0.878700  0.446300  1.0
  H  H2073  1  0.696300  0.128700  0.531200  1.0
  H  H2074  1  0.378700  0.053700  0.718800  1.0
  H  H2075  1  0.303700  0.371300  0.531200  1.0
  H  H2076  1  0.121300  0.946300  0.218800  1.0
  H  H2077  1  0.553700  0.781200  0.621300  1.0
  H  H2078  1  0.696300  0.871300  0.968800  1.0
  H  H2079  1  0.053700  0.718800  0.378700  1.0
  H  H2080  1  0.218800  0.121300  0.946300  1.0
  H  H2081  1  0.803700  0.128700  0.468800  1.0
  H  H2082  1  0.781200  0.621300  0.553700  1.0
  H  H2083  1  0.531200  0.696300  0.128700  1.0
  H  H2084  1  0.128700  0.531200  0.696300  1.0
  H  H2085  1  0.871300  0.968800  0.696300  1.0
  H  H2086  1  0.531200  0.303700  0.371300  1.0
  H  H2087  1  0.371300  0.531200  0.303700  1.0
  H  H2088  1  0.468800  0.803700  0.128700  1.0
  H  H2089  1  0.968800  0.696300  0.871300  1.0
  H  H2090  1  0.128700  0.468800  0.803700  1.0
  H  H2091  1  0.621300  0.553700  0.781200  1.0
  H  H2092  1  0.378700  0.946300  0.781200  1.0
  H  H2093  1  0.946300  0.218800  0.121300  1.0
  H  H2094  1  0.946300  0.781200  0.378700  1.0
  H  H2095  1  0.718800  0.378700  0.053700  1.0
  H  H2096  1  0.781200  0.378700  0.946300  1.0
  H  H2097  1  0.149500  0.744900  0.036400  1.0
  H  H2098  1  0.994900  0.600500  0.213600  1.0
  H  H2099  1  0.850500  0.755100  0.036400  1.0
  H  H2100  1  0.505100  0.399500  0.713600  1.0
  H  H2101  1  0.100500  0.286400  0.005100  1.0
  H  H2102  1  0.149500  0.255100  0.463600  1.0
  H  H2103  1  0.600500  0.213600  0.994900  1.0
  H  H2104  1  0.713600  0.505100  0.399500  1.0
  H  H2105  1  0.350500  0.744900  0.963600  1.0
  H  H2106  1  0.286400  0.005100  0.100500  1.0
  H  H2107  1  0.036400  0.149500  0.744900  1.0
  H  H2108  1  0.744900  0.036400  0.149500  1.0
  H  H2109  1  0.255100  0.463600  0.149500  1.0
  H  H2110  1  0.036400  0.850500  0.755100  1.0
  H  H2111  1  0.755100  0.036400  0.850500  1.0
  H  H2112  1  0.963600  0.350500  0.744900  1.0
  H  H2113  1  0.463600  0.149500  0.255100  1.0
  H  H2114  1  0.744900  0.963600  0.350500  1.0
  H  H2115  1  0.005100  0.100500  0.286400  1.0
  H  H2116  1  0.994900  0.399500  0.286400  1.0
  H  H2117  1  0.399500  0.713600  0.505100  1.0
  H  H2118  1  0.399500  0.286400  0.994900  1.0
  H  H2119  1  0.213600  0.994900  0.600500  1.0
  H  H2120  1  0.286400  0.994900  0.399500  1.0
  H  H2121  1  0.649500  0.244900  0.536400  1.0
  H  H2122  1  0.494900  0.100500  0.713600  1.0
  H  H2123  1  0.350500  0.255100  0.536400  1.0
  H  H2124  1  0.005100  0.899500  0.213600  1.0
  H  H2125  1  0.600500  0.786400  0.505100  1.0
  H  H2126  1  0.649500  0.755100  0.963600  1.0
  H  H2127  1  0.100500  0.713600  0.494900  1.0
  H  H2128  1  0.213600  0.005100  0.899500  1.0
  H  H2129  1  0.850500  0.244900  0.463600  1.0
  H  H2130  1  0.786400  0.505100  0.600500  1.0
  H  H2131  1  0.536400  0.649500  0.244900  1.0
  H  H2132  1  0.244900  0.536400  0.649500  1.0
  H  H2133  1  0.755100  0.963600  0.649500  1.0
  H  H2134  1  0.536400  0.350500  0.255100  1.0
  H  H2135  1  0.255100  0.536400  0.350500  1.0
  H  H2136  1  0.463600  0.850500  0.244900  1.0
  H  H2137  1  0.963600  0.649500  0.755100  1.0
  H  H2138  1  0.244900  0.463600  0.850500  1.0
  H  H2139  1  0.505100  0.600500  0.786400  1.0
  H  H2140  1  0.494900  0.899500  0.786400  1.0
  H  H2141  1  0.899500  0.213600  0.005100  1.0
  H  H2142  1  0.899500  0.786400  0.494900  1.0
  H  H2143  1  0.713600  0.494900  0.100500  1.0
  H  H2144  1  0.786400  0.494900  0.899500  1.0
  H  H2145  1  0.155900  0.780400  0.996200  1.0
  H  H2146  1  0.030400  0.594100  0.253800  1.0
  H  H2147  1  0.844100  0.719600  0.996200  1.0
  H  H2148  1  0.469600  0.405900  0.753800  1.0
  H  H2149  1  0.094100  0.246200  0.969600  1.0
  H  H2150  1  0.155900  0.219600  0.503800  1.0
  H  H2151  1  0.594100  0.253800  0.030400  1.0
  H  H2152  1  0.753800  0.469600  0.405900  1.0
  H  H2153  1  0.344100  0.780400  0.003800  1.0
  H  H2154  1  0.246200  0.969600  0.094100  1.0
  H  H2155  1  0.996200  0.155900  0.780400  1.0
  H  H2156  1  0.780400  0.996200  0.155900  1.0
  H  H2157  1  0.219600  0.503800  0.155900  1.0
  H  H2158  1  0.996200  0.844100  0.719600  1.0
  H  H2159  1  0.719600  0.996200  0.844100  1.0
  H  H2160  1  0.003800  0.344100  0.780400  1.0
  H  H2161  1  0.503800  0.155900  0.219600  1.0
  H  H2162  1  0.780400  0.003800  0.344100  1.0
  H  H2163  1  0.969600  0.094100  0.246200  1.0
  H  H2164  1  0.030400  0.405900  0.246200  1.0
  H  H2165  1  0.405900  0.753800  0.469600  1.0
  H  H2166  1  0.405900  0.246200  0.030400  1.0
  H  H2167  1  0.253800  0.030400  0.594100  1.0
  H  H2168  1  0.246200  0.030400  0.405900  1.0
  H  H2169  1  0.655900  0.280400  0.496200  1.0
  H  H2170  1  0.530400  0.094100  0.753800  1.0
  H  H2171  1  0.344100  0.219600  0.496200  1.0
  H  H2172  1  0.969600  0.905900  0.253800  1.0
  H  H2173  1  0.594100  0.746200  0.469600  1.0
  H  H2174  1  0.655900  0.719600  0.003800  1.0
  H  H2175  1  0.094100  0.753800  0.530400  1.0
  H  H2176  1  0.253800  0.969600  0.905900  1.0
  H  H2177  1  0.844100  0.280400  0.503800  1.0
  H  H2178  1  0.746200  0.469600  0.594100  1.0
  H  H2179  1  0.496200  0.655900  0.280400  1.0
  H  H2180  1  0.280400  0.496200  0.655900  1.0
  H  H2181  1  0.719600  0.003800  0.655900  1.0
  H  H2182  1  0.496200  0.344100  0.219600  1.0
  H  H2183  1  0.219600  0.496200  0.344100  1.0
  H  H2184  1  0.503800  0.844100  0.280400  1.0
  H  H2185  1  0.003800  0.655900  0.719600  1.0
  H  H2186  1  0.280400  0.503800  0.844100  1.0
  H  H2187  1  0.469600  0.594100  0.746200  1.0
  H  H2188  1  0.530400  0.905900  0.746200  1.0
  H  H2189  1  0.905900  0.253800  0.969600  1.0
  H  H2190  1  0.905900  0.746200  0.530400  1.0
  H  H2191  1  0.753800  0.530400  0.094100  1.0
  H  H2192  1  0.746200  0.530400  0.905900  1.0
  H  H2193  1  0.188500  0.770300  0.955700  1.0
  H  H2194  1  0.020300  0.561500  0.294300  1.0
  H  H2195  1  0.811500  0.729700  0.955700  1.0
  H  H2196  1  0.479700  0.438500  0.794300  1.0
  H  H2197  1  0.061500  0.205700  0.979700  1.0
  H  H2198  1  0.188500  0.229700  0.544300  1.0
  H  H2199  1  0.561500  0.294300  0.020300  1.0
  H  H2200  1  0.794300  0.479700  0.438500  1.0
  H  H2201  1  0.311500  0.770300  0.044300  1.0
  H  H2202  1  0.205700  0.979700  0.061500  1.0
  H  H2203  1  0.955700  0.188500  0.770300  1.0
  H  H2204  1  0.770300  0.955700  0.188500  1.0
  H  H2205  1  0.229700  0.544300  0.188500  1.0
  H  H2206  1  0.955700  0.811500  0.729700  1.0
  H  H2207  1  0.729700  0.955700  0.811500  1.0
  H  H2208  1  0.044300  0.311500  0.770300  1.0
  H  H2209  1  0.544300  0.188500  0.229700  1.0
  H  H2210  1  0.770300  0.044300  0.311500  1.0
  H  H2211  1  0.979700  0.061500  0.205700  1.0
  H  H2212  1  0.020300  0.438500  0.205700  1.0
  H  H2213  1  0.438500  0.794300  0.479700  1.0
  H  H2214  1  0.438500  0.205700  0.020300  1.0
  H  H2215  1  0.294300  0.020300  0.561500  1.0
  H  H2216  1  0.205700  0.020300  0.438500  1.0
  H  H2217  1  0.688500  0.270300  0.455700  1.0
  H  H2218  1  0.520300  0.061500  0.794300  1.0
  H  H2219  1  0.311500  0.229700  0.455700  1.0
  H  H2220  1  0.979700  0.938500  0.294300  1.0
  H  H2221  1  0.561500  0.705700  0.479700  1.0
  H  H2222  1  0.688500  0.729700  0.044300  1.0
  H  H2223  1  0.061500  0.794300  0.520300  1.0
  H  H2224  1  0.294300  0.979700  0.938500  1.0
  H  H2225  1  0.811500  0.270300  0.544300  1.0
  H  H2226  1  0.705700  0.479700  0.561500  1.0
  H  H2227  1  0.455700  0.688500  0.270300  1.0
  H  H2228  1  0.270300  0.455700  0.688500  1.0
  H  H2229  1  0.729700  0.044300  0.688500  1.0
  H  H2230  1  0.455700  0.311500  0.229700  1.0
  H  H2231  1  0.229700  0.455700  0.311500  1.0
  H  H2232  1  0.544300  0.811500  0.270300  1.0
  H  H2233  1  0.044300  0.688500  0.729700  1.0
  H  H2234  1  0.270300  0.544300  0.811500  1.0
  H  H2235  1  0.479700  0.561500  0.705700  1.0
  H  H2236  1  0.520300  0.938500  0.705700  1.0
  H  H2237  1  0.938500  0.294300  0.979700  1.0
  H  H2238  1  0.938500  0.705700  0.520300  1.0
  H  H2239  1  0.794300  0.520300  0.061500  1.0
  H  H2240  1  0.705700  0.520300  0.938500  1.0
  H  H2241  1  0.216700  0.724300  0.955800  1.0
  H  H2242  1  0.974300  0.533300  0.294200  1.0
  H  H2243  1  0.783300  0.775700  0.955800  1.0
  H  H2244  1  0.525700  0.466700  0.794200  1.0
  H  H2245  1  0.033300  0.205800  0.025700  1.0
  H  H2246  1  0.216700  0.275700  0.544200  1.0
  H  H2247  1  0.533300  0.294200  0.974300  1.0
  H  H2248  1  0.794200  0.525700  0.466700  1.0
  H  H2249  1  0.283300  0.724300  0.044200  1.0
  H  H2250  1  0.205800  0.025700  0.033300  1.0
  H  H2251  1  0.955800  0.216700  0.724300  1.0
  H  H2252  1  0.724300  0.955800  0.216700  1.0
  H  H2253  1  0.275700  0.544200  0.216700  1.0
  H  H2254  1  0.955800  0.783300  0.775700  1.0
  H  H2255  1  0.775700  0.955800  0.783300  1.0
  H  H2256  1  0.044200  0.283300  0.724300  1.0
  H  H2257  1  0.544200  0.216700  0.275700  1.0
  H  H2258  1  0.724300  0.044200  0.283300  1.0
  H  H2259  1  0.025700  0.033300  0.205800  1.0
  H  H2260  1  0.974300  0.466700  0.205800  1.0
  H  H2261  1  0.466700  0.794200  0.525700  1.0
  H  H2262  1  0.466700  0.205800  0.974300  1.0
  H  H2263  1  0.294200  0.974300  0.533300  1.0
  H  H2264  1  0.205800  0.974300  0.466700  1.0
  H  H2265  1  0.716700  0.224300  0.455800  1.0
  H  H2266  1  0.474300  0.033300  0.794200  1.0
  H  H2267  1  0.283300  0.275700  0.455800  1.0
  H  H2268  1  0.025700  0.966700  0.294200  1.0
  H  H2269  1  0.533300  0.705800  0.525700  1.0
  H  H2270  1  0.716700  0.775700  0.044200  1.0
  H  H2271  1  0.033300  0.794200  0.474300  1.0
  H  H2272  1  0.294200  0.025700  0.966700  1.0
  H  H2273  1  0.783300  0.224300  0.544200  1.0
  H  H2274  1  0.705800  0.525700  0.533300  1.0
  H  H2275  1  0.455800  0.716700  0.224300  1.0
  H  H2276  1  0.224300  0.455800  0.716700  1.0
  H  H2277  1  0.775700  0.044200  0.716700  1.0
  H  H2278  1  0.455800  0.283300  0.275700  1.0
  H  H2279  1  0.275700  0.455800  0.283300  1.0
  H  H2280  1  0.544200  0.783300  0.224300  1.0
  H  H2281  1  0.044200  0.716700  0.775700  1.0
  H  H2282  1  0.224300  0.544200  0.783300  1.0
  H  H2283  1  0.525700  0.533300  0.705800  1.0
  H  H2284  1  0.474300  0.966700  0.705800  1.0
  H  H2285  1  0.966700  0.294200  0.025700  1.0
  H  H2286  1  0.966700  0.705800  0.474300  1.0
  H  H2287  1  0.794200  0.474300  0.033300  1.0
  H  H2288  1  0.705800  0.474300  0.966700  1.0
  H  H2289  1  0.213900  0.692000  0.998200  1.0
  H  H2290  1  0.942000  0.536100  0.251800  1.0
  H  H2291  1  0.786100  0.808000  0.998200  1.0
  H  H2292  1  0.558000  0.463900  0.751800  1.0
  H  H2293  1  0.036100  0.248200  0.058000  1.0
  H  H2294  1  0.213900  0.308000  0.501800  1.0
  H  H2295  1  0.536100  0.251800  0.942000  1.0
  H  H2296  1  0.751800  0.558000  0.463900  1.0
  H  H2297  1  0.286100  0.692000  0.001800  1.0
  H  H2298  1  0.248200  0.058000  0.036100  1.0
  H  H2299  1  0.998200  0.213900  0.692000  1.0
  H  H2300  1  0.692000  0.998200  0.213900  1.0
  H  H2301  1  0.308000  0.501800  0.213900  1.0
  H  H2302  1  0.998200  0.786100  0.808000  1.0
  H  H2303  1  0.808000  0.998200  0.786100  1.0
  H  H2304  1  0.001800  0.286100  0.692000  1.0
  H  H2305  1  0.501800  0.213900  0.308000  1.0
  H  H2306  1  0.692000  0.001800  0.286100  1.0
  H  H2307  1  0.058000  0.036100  0.248200  1.0
  H  H2308  1  0.942000  0.463900  0.248200  1.0
  H  H2309  1  0.463900  0.751800  0.558000  1.0
  H  H2310  1  0.463900  0.248200  0.942000  1.0
  H  H2311  1  0.251800  0.942000  0.536100  1.0
  H  H2312  1  0.248200  0.942000  0.463900  1.0
  H  H2313  1  0.713900  0.192000  0.498200  1.0
  H  H2314  1  0.442000  0.036100  0.751800  1.0
  H  H2315  1  0.286100  0.308000  0.498200  1.0
  H  H2316  1  0.058000  0.963900  0.251800  1.0
  H  H2317  1  0.536100  0.748200  0.558000  1.0
  H  H2318  1  0.713900  0.808000  0.001800  1.0
  H  H2319  1  0.036100  0.751800  0.442000  1.0
  H  H2320  1  0.251800  0.058000  0.963900  1.0
  H  H2321  1  0.786100  0.192000  0.501800  1.0
  H  H2322  1  0.748200  0.558000  0.536100  1.0
  H  H2323  1  0.498200  0.713900  0.192000  1.0
  H  H2324  1  0.192000  0.498200  0.713900  1.0
  H  H2325  1  0.808000  0.001800  0.713900  1.0
  H  H2326  1  0.498200  0.286100  0.308000  1.0
  H  H2327  1  0.308000  0.498200  0.286100  1.0
  H  H2328  1  0.501800  0.786100  0.192000  1.0
  H  H2329  1  0.001800  0.713900  0.808000  1.0
  H  H2330  1  0.192000  0.501800  0.786100  1.0
  H  H2331  1  0.558000  0.536100  0.748200  1.0
  H  H2332  1  0.442000  0.963900  0.748200  1.0
  H  H2333  1  0.963900  0.251800  0.058000  1.0
  H  H2334  1  0.963900  0.748200  0.442000  1.0
  H  H2335  1  0.751800  0.442000  0.036100  1.0
  H  H2336  1  0.748200  0.442000  0.963900  1.0
  H  H2337  1  0.108000  0.586200  0.098300  1.0
  H  H2338  1  0.836200  0.642000  0.151700  1.0
  H  H2339  1  0.892000  0.913800  0.098300  1.0
  H  H2340  1  0.663800  0.358000  0.651700  1.0
  H  H2341  1  0.142000  0.348300  0.163800  1.0
  H  H2342  1  0.108000  0.413800  0.401700  1.0
  H  H2343  1  0.642000  0.151700  0.836200  1.0
  H  H2344  1  0.651700  0.663800  0.358000  1.0
  H  H2345  1  0.392000  0.586200  0.901700  1.0
  H  H2346  1  0.348300  0.163800  0.142000  1.0
  H  H2347  1  0.098300  0.108000  0.586200  1.0
  H  H2348  1  0.586200  0.098300  0.108000  1.0
  H  H2349  1  0.413800  0.401700  0.108000  1.0
  H  H2350  1  0.098300  0.892000  0.913800  1.0
  H  H2351  1  0.913800  0.098300  0.892000  1.0
  H  H2352  1  0.901700  0.392000  0.586200  1.0
  H  H2353  1  0.401700  0.108000  0.413800  1.0
  H  H2354  1  0.586200  0.901700  0.392000  1.0
  H  H2355  1  0.163800  0.142000  0.348300  1.0
  H  H2356  1  0.836200  0.358000  0.348300  1.0
  H  H2357  1  0.358000  0.651700  0.663800  1.0
  H  H2358  1  0.358000  0.348300  0.836200  1.0
  H  H2359  1  0.151700  0.836200  0.642000  1.0
  H  H2360  1  0.348300  0.836200  0.358000  1.0
  H  H2361  1  0.608000  0.086200  0.598300  1.0
  H  H2362  1  0.336200  0.142000  0.651700  1.0
  H  H2363  1  0.392000  0.413800  0.598300  1.0
  H  H2364  1  0.163800  0.858000  0.151700  1.0
  H  H2365  1  0.642000  0.848300  0.663800  1.0
  H  H2366  1  0.608000  0.913800  0.901700  1.0
  H  H2367  1  0.142000  0.651700  0.336200  1.0
  H  H2368  1  0.151700  0.163800  0.858000  1.0
  H  H2369  1  0.892000  0.086200  0.401700  1.0
  H  H2370  1  0.848300  0.663800  0.642000  1.0
  H  H2371  1  0.598300  0.608000  0.086200  1.0
  H  H2372  1  0.086200  0.598300  0.608000  1.0
  H  H2373  1  0.913800  0.901700  0.608000  1.0
  H  H2374  1  0.598300  0.392000  0.413800  1.0
  H  H2375  1  0.413800  0.598300  0.392000  1.0
  H  H2376  1  0.401700  0.892000  0.086200  1.0
  H  H2377  1  0.901700  0.608000  0.913800  1.0
  H  H2378  1  0.086200  0.401700  0.892000  1.0
  H  H2379  1  0.663800  0.642000  0.848300  1.0
  H  H2380  1  0.336200  0.858000  0.848300  1.0
  H  H2381  1  0.858000  0.151700  0.163800  1.0
  H  H2382  1  0.858000  0.848300  0.336200  1.0
  H  H2383  1  0.651700  0.336200  0.142000  1.0
  H  H2384  1  0.848300  0.336200  0.858000  1.0
  H  H2385  1  0.059000  0.568200  0.109700  1.0
  H  H2386  1  0.818200  0.691000  0.140300  1.0
  H  H2387  1  0.941000  0.931800  0.109700  1.0
  H  H2388  1  0.681800  0.309000  0.640300  1.0
  H  H2389  1  0.191000  0.359700  0.181800  1.0
  H  H2390  1  0.059000  0.431800  0.390300  1.0
  H  H2391  1  0.691000  0.140300  0.818200  1.0
  H  H2392  1  0.640300  0.681800  0.309000  1.0
  H  H2393  1  0.441000  0.568200  0.890300  1.0
  H  H2394  1  0.359700  0.181800  0.191000  1.0
  H  H2395  1  0.109700  0.059000  0.568200  1.0
  H  H2396  1  0.568200  0.109700  0.059000  1.0
  H  H2397  1  0.431800  0.390300  0.059000  1.0
  H  H2398  1  0.109700  0.941000  0.931800  1.0
  H  H2399  1  0.931800  0.109700  0.941000  1.0
  H  H2400  1  0.890300  0.441000  0.568200  1.0
  H  H2401  1  0.390300  0.059000  0.431800  1.0
  H  H2402  1  0.568200  0.890300  0.441000  1.0
  H  H2403  1  0.181800  0.191000  0.359700  1.0
  H  H2404  1  0.818200  0.309000  0.359700  1.0
  H  H2405  1  0.309000  0.640300  0.681800  1.0
  H  H2406  1  0.309000  0.359700  0.818200  1.0
  H  H2407  1  0.140300  0.818200  0.691000  1.0
  H  H2408  1  0.359700  0.818200  0.309000  1.0
  H  H2409  1  0.559000  0.068200  0.609700  1.0
  H  H2410  1  0.318200  0.191000  0.640300  1.0
  H  H2411  1  0.441000  0.431800  0.609700  1.0
  H  H2412  1  0.181800  0.809000  0.140300  1.0
  H  H2413  1  0.691000  0.859700  0.681800  1.0
  H  H2414  1  0.559000  0.931800  0.890300  1.0
  H  H2415  1  0.191000  0.640300  0.318200  1.0
  H  H2416  1  0.140300  0.181800  0.809000  1.0
  H  H2417  1  0.941000  0.068200  0.390300  1.0
  H  H2418  1  0.859700  0.681800  0.691000  1.0
  H  H2419  1  0.609700  0.559000  0.068200  1.0
  H  H2420  1  0.068200  0.609700  0.559000  1.0
  H  H2421  1  0.931800  0.890300  0.559000  1.0
  H  H2422  1  0.609700  0.441000  0.431800  1.0
  H  H2423  1  0.431800  0.609700  0.441000  1.0
  H  H2424  1  0.390300  0.941000  0.068200  1.0
  H  H2425  1  0.890300  0.559000  0.931800  1.0
  H  H2426  1  0.068200  0.390300  0.941000  1.0
  H  H2427  1  0.681800  0.691000  0.859700  1.0
  H  H2428  1  0.318200  0.809000  0.859700  1.0
  H  H2429  1  0.809000  0.140300  0.181800  1.0
  H  H2430  1  0.809000  0.859700  0.318200  1.0
  H  H2431  1  0.640300  0.318200  0.191000  1.0
  H  H2432  1  0.859700  0.318200  0.809000  1.0
  H  H2433  1  0.021600  0.603400  0.125300  1.0
  H  H2434  1  0.853400  0.728400  0.124700  1.0
  H  H2435  1  0.978400  0.896600  0.125300  1.0
  H  H2436  1  0.646600  0.271600  0.624700  1.0
  H  H2437  1  0.228400  0.375300  0.146600  1.0
  H  H2438  1  0.021600  0.396600  0.374700  1.0
  H  H2439  1  0.728400  0.124700  0.853400  1.0
  H  H2440  1  0.624700  0.646600  0.271600  1.0
  H  H2441  1  0.478400  0.603400  0.874700  1.0
  H  H2442  1  0.375300  0.146600  0.228400  1.0
  H  H2443  1  0.125300  0.021600  0.603400  1.0
  H  H2444  1  0.603400  0.125300  0.021600  1.0
  H  H2445  1  0.396600  0.374700  0.021600  1.0
  H  H2446  1  0.125300  0.978400  0.896600  1.0
  H  H2447  1  0.896600  0.125300  0.978400  1.0
  H  H2448  1  0.874700  0.478400  0.603400  1.0
  H  H2449  1  0.374700  0.021600  0.396600  1.0
  H  H2450  1  0.603400  0.874700  0.478400  1.0
  H  H2451  1  0.146600  0.228400  0.375300  1.0
  H  H2452  1  0.853400  0.271600  0.375300  1.0
  H  H2453  1  0.271600  0.624700  0.646600  1.0
  H  H2454  1  0.271600  0.375300  0.853400  1.0
  H  H2455  1  0.124700  0.853400  0.728400  1.0
  H  H2456  1  0.375300  0.853400  0.271600  1.0
  H  H2457  1  0.521600  0.103400  0.625300  1.0
  H  H2458  1  0.353400  0.228400  0.624700  1.0
  H  H2459  1  0.478400  0.396600  0.625300  1.0
  H  H2460  1  0.146600  0.771600  0.124700  1.0
  H  H2461  1  0.728400  0.875300  0.646600  1.0
  H  H2462  1  0.521600  0.896600  0.874700  1.0
  H  H2463  1  0.228400  0.624700  0.353400  1.0
  H  H2464  1  0.124700  0.146600  0.771600  1.0
  H  H2465  1  0.978400  0.103400  0.374700  1.0
  H  H2466  1  0.875300  0.646600  0.728400  1.0
  H  H2467  1  0.625300  0.521600  0.103400  1.0
  H  H2468  1  0.103400  0.625300  0.521600  1.0
  H  H2469  1  0.896600  0.874700  0.521600  1.0
  H  H2470  1  0.625300  0.478400  0.396600  1.0
  H  H2471  1  0.396600  0.625300  0.478400  1.0
  H  H2472  1  0.374700  0.978400  0.103400  1.0
  H  H2473  1  0.874700  0.521600  0.896600  1.0
  H  H2474  1  0.103400  0.374700  0.978400  1.0
  H  H2475  1  0.646600  0.728400  0.875300  1.0
  H  H2476  1  0.353400  0.771600  0.875300  1.0
  H  H2477  1  0.771600  0.124700  0.146600  1.0
  H  H2478  1  0.771600  0.875300  0.353400  1.0
  H  H2479  1  0.624700  0.353400  0.228400  1.0
  H  H2480  1  0.875300  0.353400  0.771600  1.0
  H  H2481  1  0.031500  0.654100  0.127500  1.0
  H  H2482  1  0.904100  0.718500  0.122500  1.0
  H  H2483  1  0.968500  0.845900  0.127500  1.0
  H  H2484  1  0.595900  0.281500  0.622500  1.0
  H  H2485  1  0.218500  0.377500  0.095900  1.0
  H  H2486  1  0.031500  0.345900  0.372500  1.0
  H  H2487  1  0.718500  0.122500  0.904100  1.0
  H  H2488  1  0.622500  0.595900  0.281500  1.0
  H  H2489  1  0.468500  0.654100  0.872500  1.0
  H  H2490  1  0.377500  0.095900  0.218500  1.0
  H  H2491  1  0.127500  0.031500  0.654100  1.0
  H  H2492  1  0.654100  0.127500  0.031500  1.0
  H  H2493  1  0.345900  0.372500  0.031500  1.0
  H  H2494  1  0.127500  0.968500  0.845900  1.0
  H  H2495  1  0.845900  0.127500  0.968500  1.0
  H  H2496  1  0.872500  0.468500  0.654100  1.0
  H  H2497  1  0.372500  0.031500  0.345900  1.0
  H  H2498  1  0.654100  0.872500  0.468500  1.0
  H  H2499  1  0.095900  0.218500  0.377500  1.0
  H  H2500  1  0.904100  0.281500  0.377500  1.0
  H  H2501  1  0.281500  0.622500  0.595900  1.0
  H  H2502  1  0.281500  0.377500  0.904100  1.0
  H  H2503  1  0.122500  0.904100  0.718500  1.0
  H  H2504  1  0.377500  0.904100  0.281500  1.0
  H  H2505  1  0.531500  0.154100  0.627500  1.0
  H  H2506  1  0.404100  0.218500  0.622500  1.0
  H  H2507  1  0.468500  0.345900  0.627500  1.0
  H  H2508  1  0.095900  0.781500  0.122500  1.0
  H  H2509  1  0.718500  0.877500  0.595900  1.0
  H  H2510  1  0.531500  0.845900  0.872500  1.0
  H  H2511  1  0.218500  0.622500  0.404100  1.0
  H  H2512  1  0.122500  0.095900  0.781500  1.0
  H  H2513  1  0.968500  0.154100  0.372500  1.0
  H  H2514  1  0.877500  0.595900  0.718500  1.0
  H  H2515  1  0.627500  0.531500  0.154100  1.0
  H  H2516  1  0.154100  0.627500  0.531500  1.0
  H  H2517  1  0.845900  0.872500  0.531500  1.0
  H  H2518  1  0.627500  0.468500  0.345900  1.0
  H  H2519  1  0.345900  0.627500  0.468500  1.0
  H  H2520  1  0.372500  0.968500  0.154100  1.0
  H  H2521  1  0.872500  0.531500  0.845900  1.0
  H  H2522  1  0.154100  0.372500  0.968500  1.0
  H  H2523  1  0.595900  0.718500  0.877500  1.0
  H  H2524  1  0.404100  0.781500  0.877500  1.0
  H  H2525  1  0.781500  0.122500  0.095900  1.0
  H  H2526  1  0.781500  0.877500  0.404100  1.0
  H  H2527  1  0.622500  0.404100  0.218500  1.0
  H  H2528  1  0.877500  0.404100  0.781500  1.0
  H  H2529  1  0.079900  0.673100  0.115200  1.0
  H  H2530  1  0.923100  0.670100  0.134800  1.0
  H  H2531  1  0.920100  0.826900  0.115200  1.0
  H  H2532  1  0.576900  0.329900  0.634800  1.0
  H  H2533  1  0.170100  0.365200  0.076900  1.0
  H  H2534  1  0.079900  0.326900  0.384800  1.0
  H  H2535  1  0.670100  0.134800  0.923100  1.0
  H  H2536  1  0.634800  0.576900  0.329900  1.0
  H  H2537  1  0.420100  0.673100  0.884800  1.0
  H  H2538  1  0.365200  0.076900  0.170100  1.0
  H  H2539  1  0.115200  0.079900  0.673100  1.0
  H  H2540  1  0.673100  0.115200  0.079900  1.0
  H  H2541  1  0.326900  0.384800  0.079900  1.0
  H  H2542  1  0.115200  0.920100  0.826900  1.0
  H  H2543  1  0.826900  0.115200  0.920100  1.0
  H  H2544  1  0.884800  0.420100  0.673100  1.0
  H  H2545  1  0.384800  0.079900  0.326900  1.0
  H  H2546  1  0.673100  0.884800  0.420100  1.0
  H  H2547  1  0.076900  0.170100  0.365200  1.0
  H  H2548  1  0.923100  0.329900  0.365200  1.0
  H  H2549  1  0.329900  0.634800  0.576900  1.0
  H  H2550  1  0.329900  0.365200  0.923100  1.0
  H  H2551  1  0.134800  0.923100  0.670100  1.0
  H  H2552  1  0.365200  0.923100  0.329900  1.0
  H  H2553  1  0.579900  0.173100  0.615200  1.0
  H  H2554  1  0.423100  0.170100  0.634800  1.0
  H  H2555  1  0.420100  0.326900  0.615200  1.0
  H  H2556  1  0.076900  0.829900  0.134800  1.0
  H  H2557  1  0.670100  0.865200  0.576900  1.0
  H  H2558  1  0.579900  0.826900  0.884800  1.0
  H  H2559  1  0.170100  0.634800  0.423100  1.0
  H  H2560  1  0.134800  0.076900  0.829900  1.0
  H  H2561  1  0.920100  0.173100  0.384800  1.0
  H  H2562  1  0.865200  0.576900  0.670100  1.0
  H  H2563  1  0.615200  0.579900  0.173100  1.0
  H  H2564  1  0.173100  0.615200  0.579900  1.0
  H  H2565  1  0.826900  0.884800  0.579900  1.0
  H  H2566  1  0.615200  0.420100  0.326900  1.0
  H  H2567  1  0.326900  0.615200  0.420100  1.0
  H  H2568  1  0.384800  0.920100  0.173100  1.0
  H  H2569  1  0.884800  0.579900  0.826900  1.0
  H  H2570  1  0.173100  0.384800  0.920100  1.0
  H  H2571  1  0.576900  0.670100  0.865200  1.0
  H  H2572  1  0.423100  0.829900  0.865200  1.0
  H  H2573  1  0.829900  0.134800  0.076900  1.0
  H  H2574  1  0.829900  0.865200  0.423100  1.0
  H  H2575  1  0.634800  0.423100  0.170100  1.0
  H  H2576  1  0.865200  0.423100  0.829900  1.0
  Pd  Pd2577  1  0.136360  0.656710  0.044330  1.0
  Pd  Pd2578  1  0.906710  0.613640  0.205670  1.0
  Pd  Pd2579  1  0.863640  0.843290  0.044330  1.0
  Pd  Pd2580  1  0.593290  0.386360  0.705670  1.0
  Pd  Pd2581  1  0.113640  0.294330  0.093290  1.0
  Pd  Pd2582  1  0.136360  0.343290  0.455670  1.0
  Pd  Pd2583  1  0.613640  0.205670  0.906710  1.0
  Pd  Pd2584  1  0.705670  0.593290  0.386360  1.0
  Pd  Pd2585  1  0.363640  0.656710  0.955670  1.0
  Pd  Pd2586  1  0.294330  0.093290  0.113640  1.0
  Pd  Pd2587  1  0.044330  0.136360  0.656710  1.0
  Pd  Pd2588  1  0.656710  0.044330  0.136360  1.0
  Pd  Pd2589  1  0.343290  0.455670  0.136360  1.0
  Pd  Pd2590  1  0.044330  0.863640  0.843290  1.0
  Pd  Pd2591  1  0.843290  0.044330  0.863640  1.0
  Pd  Pd2592  1  0.955670  0.363640  0.656710  1.0
  Pd  Pd2593  1  0.455670  0.136360  0.343290  1.0
  Pd  Pd2594  1  0.656710  0.955670  0.363640  1.0
  Pd  Pd2595  1  0.093290  0.113640  0.294330  1.0
  Pd  Pd2596  1  0.906710  0.386360  0.294330  1.0
  Pd  Pd2597  1  0.386360  0.705670  0.593290  1.0
  Pd  Pd2598  1  0.386360  0.294330  0.906710  1.0
  Pd  Pd2599  1  0.205670  0.906710  0.613640  1.0
  Pd  Pd2600  1  0.294330  0.906710  0.386360  1.0
  Pd  Pd2601  1  0.636360  0.156710  0.544330  1.0
  Pd  Pd2602  1  0.406710  0.113640  0.705670  1.0
  Pd  Pd2603  1  0.363640  0.343290  0.544330  1.0
  Pd  Pd2604  1  0.093290  0.886360  0.205670  1.0
  Pd  Pd2605  1  0.613640  0.794330  0.593290  1.0
  Pd  Pd2606  1  0.636360  0.843290  0.955670  1.0
  Pd  Pd2607  1  0.113640  0.705670  0.406710  1.0
  Pd  Pd2608  1  0.205670  0.093290  0.886360  1.0
  Pd  Pd2609  1  0.863640  0.156710  0.455670  1.0
  Pd  Pd2610  1  0.794330  0.593290  0.613640  1.0
  Pd  Pd2611  1  0.544330  0.636360  0.156710  1.0
  Pd  Pd2612  1  0.156710  0.544330  0.636360  1.0
  Pd  Pd2613  1  0.843290  0.955670  0.636360  1.0
  Pd  Pd2614  1  0.544330  0.363640  0.343290  1.0
  Pd  Pd2615  1  0.343290  0.544330  0.363640  1.0
  Pd  Pd2616  1  0.455670  0.863640  0.156710  1.0
  Pd  Pd2617  1  0.955670  0.636360  0.843290  1.0
  Pd  Pd2618  1  0.156710  0.455670  0.863640  1.0
  Pd  Pd2619  1  0.593290  0.613640  0.794330  1.0
  Pd  Pd2620  1  0.406710  0.886360  0.794330  1.0
  Pd  Pd2621  1  0.886360  0.205670  0.093290  1.0
  Pd  Pd2622  1  0.886360  0.794330  0.406710  1.0
  Pd  Pd2623  1  0.705670  0.406710  0.113640  1.0
  Pd  Pd2624  1  0.794330  0.406710  0.886360  1.0
  C  C2625  1  0.991700  0.701800  0.088800  1
  C  C2626  1  0.951800  0.758300  0.161200  1
  C  C2627  1  0.008300  0.798200  0.088800  1
  C  C2628  1  0.548200  0.241700  0.661200  1
  C  C2629  1  0.258300  0.338800  0.048200  1
  C  C2630  1  0.991700  0.298200  0.411200  1
  C  C2631  1  0.758300  0.161200  0.951800  1
  C  C2632  1  0.661200  0.548200  0.241700  1
  C  C2633  1  0.508300  0.701800  0.911200  1
  C  C2634  1  0.338800  0.048200  0.258300  1
  C  C2635  1  0.088800  0.991700  0.701800  1
  C  C2636  1  0.701800  0.088800  0.991700  1
  C  C2637  1  0.298200  0.411200  0.991700  1
  C  C2638  1  0.088800  0.008300  0.798200  1
  C  C2639  1  0.798200  0.088800  0.008300  1
  C  C2640  1  0.911200  0.508300  0.701800  1
  C  C2641  1  0.411200  0.991700  0.298200  1
  C  C2642  1  0.701800  0.911200  0.508300  1
  C  C2643  1  0.048200  0.258300  0.338800  1
  C  C2644  1  0.951800  0.241700  0.338800  1
  C  C2645  1  0.241700  0.661200  0.548200  1
  C  C2646  1  0.241700  0.338800  0.951800  1
  C  C2647  1  0.161200  0.951800  0.758300  1
  C  C2648  1  0.338800  0.951800  0.241700  1
  C  C2649  1  0.491700  0.201800  0.588800  1
  C  C2650  1  0.451800  0.258300  0.661200  1
  C  C2651  1  0.508300  0.298200  0.588800  1
  C  C2652  1  0.048200  0.741700  0.161200  1
  C  C2653  1  0.758300  0.838800  0.548200  1
  C  C2654  1  0.491700  0.798200  0.911200  1
  C  C2655  1  0.258300  0.661200  0.451800  1
  C  C2656  1  0.161200  0.048200  0.741700  1
  C  C2657  1  0.008300  0.201800  0.411200  1
  C  C2658  1  0.838800  0.548200  0.758300  1
  C  C2659  1  0.588800  0.491700  0.201800  1
  C  C2660  1  0.201800  0.588800  0.491700  1
  C  C2661  1  0.798200  0.911200  0.491700  1
  C  C2662  1  0.588800  0.508300  0.298200  1
  C  C2663  1  0.298200  0.588800  0.508300  1
  C  C2664  1  0.411200  0.008300  0.201800  1
  C  C2665  1  0.911200  0.491700  0.798200  1
  C  C2666  1  0.201800  0.411200  0.008300  1
  C  C2667  1  0.548200  0.758300  0.838800  1
  C  C2668  1  0.451800  0.741700  0.838800  1
  C  C2669  1  0.741700  0.161200  0.048200  1
  C  C2670  1  0.741700  0.838800  0.451800  1
  C  C2671  1  0.661200  0.451800  0.258300  1
  C  C2672  1  0.838800  0.451800  0.741700  1
  C  C2673  1  0.983000  0.670500  0.080100  1
  C  C2674  1  0.920500  0.767000  0.169900  1
  C  C2675  1  0.017000  0.829500  0.080100  1
  C  C2676  1  0.579500  0.233000  0.669900  1
  C  C2677  1  0.267000  0.330100  0.079500  1
  C  C2678  1  0.983000  0.329500  0.419900  1
  C  C2679  1  0.767000  0.169900  0.920500  1
  C  C2680  1  0.669900  0.579500  0.233000  1
  C  C2681  1  0.517000  0.670500  0.919900  1
  C  C2682  1  0.330100  0.079500  0.267000  1
  C  C2683  1  0.080100  0.983000  0.670500  1
  C  C2684  1  0.670500  0.080100  0.983000  1
  C  C2685  1  0.329500  0.419900  0.983000  1
  C  C2686  1  0.080100  0.017000  0.829500  1
  C  C2687  1  0.829500  0.080100  0.017000  1
  C  C2688  1  0.919900  0.517000  0.670500  1
  C  C2689  1  0.419900  0.983000  0.329500  1
  C  C2690  1  0.670500  0.919900  0.517000  1
  C  C2691  1  0.079500  0.267000  0.330100  1
  C  C2692  1  0.920500  0.233000  0.330100  1
  C  C2693  1  0.233000  0.669900  0.579500  1
  C  C2694  1  0.233000  0.330100  0.920500  1
  C  C2695  1  0.169900  0.920500  0.767000  1
  C  C2696  1  0.330100  0.920500  0.233000  1
  C  C2697  1  0.483000  0.170500  0.580100  1
  C  C2698  1  0.420500  0.267000  0.669900  1
  C  C2699  1  0.517000  0.329500  0.580100  1
  C  C2700  1  0.079500  0.733000  0.169900  1
  C  C2701  1  0.767000  0.830100  0.579500  1
  C  C2702  1  0.483000  0.829500  0.919900  1
  C  C2703  1  0.267000  0.669900  0.420500  1
  C  C2704  1  0.169900  0.079500  0.733000  1
  C  C2705  1  0.017000  0.170500  0.419900  1
  C  C2706  1  0.830100  0.579500  0.767000  1
  C  C2707  1  0.580100  0.483000  0.170500  1
  C  C2708  1  0.170500  0.580100  0.483000  1
  C  C2709  1  0.829500  0.919900  0.483000  1
  C  C2710  1  0.580100  0.517000  0.329500  1
  C  C2711  1  0.329500  0.580100  0.517000  1
  C  C2712  1  0.419900  0.017000  0.170500  1
  C  C2713  1  0.919900  0.483000  0.829500  1
  C  C2714  1  0.170500  0.419900  0.017000  1
  C  C2715  1  0.579500  0.767000  0.830100  1
  C  C2716  1  0.420500  0.733000  0.830100  1
  C  C2717  1  0.733000  0.169900  0.079500  1
  C  C2718  1  0.733000  0.830100  0.420500  1
  C  C2719  1  0.669900  0.420500  0.267000  1
  C  C2720  1  0.830100  0.420500  0.733000  1
  C  C2721  1  0.069700  0.759700  0.032900  1
  C  C2722  1  0.009700  0.680300  0.217100  1
  C  C2723  1  0.930300  0.740300  0.032900  1
  C  C2724  1  0.490300  0.319700  0.717100  1
  C  C2725  1  0.180300  0.282900  0.990300  1
  C  C2726  1  0.069700  0.240300  0.467100  1
  C  C2727  1  0.680300  0.217100  0.009700  1
  C  C2728  1  0.717100  0.490300  0.319700  1
  C  C2729  1  0.430300  0.759700  0.967100  1
  C  C2730  1  0.282900  0.990300  0.180300  1
  C  C2731  1  0.032900  0.069700  0.759700  1
  C  C2732  1  0.759700  0.032900  0.069700  1
  C  C2733  1  0.240300  0.467100  0.069700  1
  C  C2734  1  0.032900  0.930300  0.740300  1
  C  C2735  1  0.740300  0.032900  0.930300  1
  C  C2736  1  0.967100  0.430300  0.759700  1
  C  C2737  1  0.467100  0.069700  0.240300  1
  C  C2738  1  0.759700  0.967100  0.430300  1
  C  C2739  1  0.990300  0.180300  0.282900  1
  C  C2740  1  0.009700  0.319700  0.282900  1
  C  C2741  1  0.319700  0.717100  0.490300  1
  C  C2742  1  0.319700  0.282900  0.009700  1
  C  C2743  1  0.217100  0.009700  0.680300  1
  C  C2744  1  0.282900  0.009700  0.319700  1
  C  C2745  1  0.569700  0.259700  0.532900  1
  C  C2746  1  0.509700  0.180300  0.717100  1
  C  C2747  1  0.430300  0.240300  0.532900  1
  C  C2748  1  0.990300  0.819700  0.217100  1
  C  C2749  1  0.680300  0.782900  0.490300  1
  C  C2750  1  0.569700  0.740300  0.967100  1
  C  C2751  1  0.180300  0.717100  0.509700  1
  C  C2752  1  0.217100  0.990300  0.819700  1
  C  C2753  1  0.930300  0.259700  0.467100  1
  C  C2754  1  0.782900  0.490300  0.680300  1
  C  C2755  1  0.532900  0.569700  0.259700  1
  C  C2756  1  0.259700  0.532900  0.569700  1
  C  C2757  1  0.740300  0.967100  0.569700  1
  C  C2758  1  0.532900  0.430300  0.240300  1
  C  C2759  1  0.240300  0.532900  0.430300  1
  C  C2760  1  0.467100  0.930300  0.259700  1
  C  C2761  1  0.967100  0.569700  0.740300  1
  C  C2762  1  0.259700  0.467100  0.930300  1
  C  C2763  1  0.490300  0.680300  0.782900  1
  C  C2764  1  0.509700  0.819700  0.782900  1
  C  C2765  1  0.819700  0.217100  0.990300  1
  C  C2766  1  0.819700  0.782900  0.509700  1
  C  C2767  1  0.717100  0.509700  0.180300  1
  C  C2768  1  0.782900  0.509700  0.819700  1
  C  C2769  1  0.198500  0.531700  0.972200  1
  C  C2770  1  0.781700  0.551500  0.277800  1
  C  C2771  1  0.801500  0.968300  0.972200  1
  C  C2772  1  0.718300  0.448500  0.777800  1
  C  C2773  1  0.051500  0.222200  0.218300  1
  C  C2774  1  0.198500  0.468300  0.527800  1
  C  C2775  1  0.551500  0.277800  0.781700  1
  C  C2776  1  0.777800  0.718300  0.448500  1
  C  C2777  1  0.301500  0.531700  0.027800  1
  C  C2778  1  0.222200  0.218300  0.051500  1
  C  C2779  1  0.972200  0.198500  0.531700  1
  C  C2780  1  0.531700  0.972200  0.198500  1
  C  C2781  1  0.468300  0.527800  0.198500  1
  C  C2782  1  0.972200  0.801500  0.968300  1
  C  C2783  1  0.968300  0.972200  0.801500  1
  C  C2784  1  0.027800  0.301500  0.531700  1
  C  C2785  1  0.527800  0.198500  0.468300  1
  C  C2786  1  0.531700  0.027800  0.301500  1
  C  C2787  1  0.218300  0.051500  0.222200  1
  C  C2788  1  0.781700  0.448500  0.222200  1
  C  C2789  1  0.448500  0.777800  0.718300  1
  C  C2790  1  0.448500  0.222200  0.781700  1
  C  C2791  1  0.277800  0.781700  0.551500  1
  C  C2792  1  0.222200  0.781700  0.448500  1
  C  C2793  1  0.698500  0.031700  0.472200  1
  C  C2794  1  0.281700  0.051500  0.777800  1
  C  C2795  1  0.301500  0.468300  0.472200  1
  C  C2796  1  0.218300  0.948500  0.277800  1
  C  C2797  1  0.551500  0.722200  0.718300  1
  C  C2798  1  0.698500  0.968300  0.027800  1
  C  C2799  1  0.051500  0.777800  0.281700  1
  C  C2800  1  0.277800  0.218300  0.948500  1
  C  C2801  1  0.801500  0.031700  0.527800  1
  C  C2802  1  0.722200  0.718300  0.551500  1
  C  C2803  1  0.472200  0.698500  0.031700  1
  C  C2804  1  0.031700  0.472200  0.698500  1
  C  C2805  1  0.968300  0.027800  0.698500  1
  C  C2806  1  0.472200  0.301500  0.468300  1
  C  C2807  1  0.468300  0.472200  0.301500  1
  C  C2808  1  0.527800  0.801500  0.031700  1
  C  C2809  1  0.027800  0.698500  0.968300  1
  C  C2810  1  0.031700  0.527800  0.801500  1
  C  C2811  1  0.718300  0.551500  0.722200  1
  C  C2812  1  0.281700  0.948500  0.722200  1
  C  C2813  1  0.948500  0.277800  0.218300  1
  C  C2814  1  0.948500  0.722200  0.281700  1
  C  C2815  1  0.777800  0.281700  0.051500  1
  C  C2816  1  0.722200  0.281700  0.948500  1
  C  C2817  1  0.072300  0.606100  0.196600  1
  C  C2818  1  0.856100  0.677700  0.053400  1
  C  C2819  1  0.927700  0.893900  0.196600  1
  C  C2820  1  0.643900  0.322300  0.553400  1
  C  C2821  1  0.177700  0.446600  0.143900  1
  C  C2822  1  0.072300  0.393900  0.303400  1
  C  C2823  1  0.677700  0.053400  0.856100  1
  C  C2824  1  0.553400  0.643900  0.322300  1
  C  C2825  1  0.427700  0.606100  0.803400  1
  C  C2826  1  0.446600  0.143900  0.177700  1
  C  C2827  1  0.196600  0.072300  0.606100  1
  C  C2828  1  0.606100  0.196600  0.072300  1
  C  C2829  1  0.393900  0.303400  0.072300  1
  C  C2830  1  0.196600  0.927700  0.893900  1
  C  C2831  1  0.893900  0.196600  0.927700  1
  C  C2832  1  0.803400  0.427700  0.606100  1
  C  C2833  1  0.303400  0.072300  0.393900  1
  C  C2834  1  0.606100  0.803400  0.427700  1
  C  C2835  1  0.143900  0.177700  0.446600  1
  C  C2836  1  0.856100  0.322300  0.446600  1
  C  C2837  1  0.322300  0.553400  0.643900  1
  C  C2838  1  0.322300  0.446600  0.856100  1
  C  C2839  1  0.053400  0.856100  0.677700  1
  C  C2840  1  0.446600  0.856100  0.322300  1
  C  C2841  1  0.572300  0.106100  0.696600  1
  C  C2842  1  0.356100  0.177700  0.553400  1
  C  C2843  1  0.427700  0.393900  0.696600  1
  C  C2844  1  0.143900  0.822300  0.053400  1
  C  C2845  1  0.677700  0.946600  0.643900  1
  C  C2846  1  0.572300  0.893900  0.803400  1
  C  C2847  1  0.177700  0.553400  0.356100  1
  C  C2848  1  0.053400  0.143900  0.822300  1
  C  C2849  1  0.927700  0.106100  0.303400  1
  C  C2850  1  0.946600  0.643900  0.677700  1
  C  C2851  1  0.696600  0.572300  0.106100  1
  C  C2852  1  0.106100  0.696600  0.572300  1
  C  C2853  1  0.893900  0.803400  0.572300  1
  C  C2854  1  0.696600  0.427700  0.393900  1
  C  C2855  1  0.393900  0.696600  0.427700  1
  C  C2856  1  0.303400  0.927700  0.106100  1
  C  C2857  1  0.803400  0.572300  0.893900  1
  C  C2858  1  0.106100  0.303400  0.927700  1
  C  C2859  1  0.643900  0.677700  0.946600  1
  C  C2860  1  0.356100  0.822300  0.946600  1
  C  C2861  1  0.822300  0.053400  0.143900  1
  C  C2862  1  0.822300  0.946600  0.356100  1
  C  C2863  1  0.553400  0.356100  0.177700  1
  C  C2864  1  0.946600  0.356100  0.822300  1
  C  C2865  1  0.106100  0.628400  0.194400  1
  C  C2866  1  0.878400  0.643900  0.055600  1
  C  C2867  1  0.893900  0.871600  0.194400  1
  C  C2868  1  0.621600  0.356100  0.555600  1
  C  C2869  1  0.143900  0.444400  0.121600  1
  C  C2870  1  0.106100  0.371600  0.305600  1
  C  C2871  1  0.643900  0.055600  0.878400  1
  C  C2872  1  0.555600  0.621600  0.356100  1
  C  C2873  1  0.393900  0.628400  0.805600  1
  C  C2874  1  0.444400  0.121600  0.143900  1
  C  C2875  1  0.194400  0.106100  0.628400  1
  C  C2876  1  0.628400  0.194400  0.106100  1
  C  C2877  1  0.371600  0.305600  0.106100  1
  C  C2878  1  0.194400  0.893900  0.871600  1
  C  C2879  1  0.871600  0.194400  0.893900  1
  C  C2880  1  0.805600  0.393900  0.628400  1
  C  C2881  1  0.305600  0.106100  0.371600  1
  C  C2882  1  0.628400  0.805600  0.393900  1
  C  C2883  1  0.121600  0.143900  0.444400  1
  C  C2884  1  0.878400  0.356100  0.444400  1
  C  C2885  1  0.356100  0.555600  0.621600  1
  C  C2886  1  0.356100  0.444400  0.878400  1
  C  C2887  1  0.055600  0.878400  0.643900  1
  C  C2888  1  0.444400  0.878400  0.356100  1
  C  C2889  1  0.606100  0.128400  0.694400  1
  C  C2890  1  0.378400  0.143900  0.555600  1
  C  C2891  1  0.393900  0.371600  0.694400  1
  C  C2892  1  0.121600  0.856100  0.055600  1
  C  C2893  1  0.643900  0.944400  0.621600  1
  C  C2894  1  0.606100  0.871600  0.805600  1
  C  C2895  1  0.143900  0.555600  0.378400  1
  C  C2896  1  0.055600  0.121600  0.856100  1
  C  C2897  1  0.893900  0.128400  0.305600  1
  C  C2898  1  0.944400  0.621600  0.643900  1
  C  C2899  1  0.694400  0.606100  0.128400  1
  C  C2900  1  0.128400  0.694400  0.606100  1
  C  C2901  1  0.871600  0.805600  0.606100  1
  C  C2902  1  0.694400  0.393900  0.371600  1
  C  C2903  1  0.371600  0.694400  0.393900  1
  C  C2904  1  0.305600  0.893900  0.128400  1
  C  C2905  1  0.805600  0.606100  0.871600  1
  C  C2906  1  0.128400  0.305600  0.893900  1
  C  C2907  1  0.621600  0.643900  0.944400  1
  C  C2908  1  0.378400  0.856100  0.944400  1
  C  C2909  1  0.856100  0.055600  0.121600  1
  C  C2910  1  0.856100  0.944400  0.378400  1
  C  C2911  1  0.555600  0.378400  0.143900  1
  C  C2912  1  0.944400  0.378400  0.856100  1
  C  C2913  1  0.044100  0.726500  0.076400  1
  C  C2914  1  0.976500  0.705900  0.173600  1
  C  C2915  1  0.955900  0.773500  0.076400  1
  C  C2916  1  0.523500  0.294100  0.673600  1
  C  C2917  1  0.205900  0.326400  0.023500  1
  C  C2918  1  0.044100  0.273500  0.423600  1
  C  C2919  1  0.705900  0.173600  0.976500  1
  C  C2920  1  0.673600  0.523500  0.294100  1
  C  C2921  1  0.455900  0.726500  0.923600  1
  C  C2922  1  0.326400  0.023500  0.205900  1
  C  C2923  1  0.076400  0.044100  0.726500  1
  C  C2924  1  0.726500  0.076400  0.044100  1
  C  C2925  1  0.273500  0.423600  0.044100  1
  C  C2926  1  0.076400  0.955900  0.773500  1
  C  C2927  1  0.773500  0.076400  0.955900  1
  C  C2928  1  0.923600  0.455900  0.726500  1
  C  C2929  1  0.423600  0.044100  0.273500  1
  C  C2930  1  0.726500  0.923600  0.455900  1
  C  C2931  1  0.023500  0.205900  0.326400  1
  C  C2932  1  0.976500  0.294100  0.326400  1
  C  C2933  1  0.294100  0.673600  0.523500  1
  C  C2934  1  0.294100  0.326400  0.976500  1
  C  C2935  1  0.173600  0.976500  0.705900  1
  C  C2936  1  0.326400  0.976500  0.294100  1
  C  C2937  1  0.544100  0.226500  0.576400  1
  C  C2938  1  0.476500  0.205900  0.673600  1
  C  C2939  1  0.455900  0.273500  0.576400  1
  C  C2940  1  0.023500  0.794100  0.173600  1
  C  C2941  1  0.705900  0.826400  0.523500  1
  C  C2942  1  0.544100  0.773500  0.923600  1
  C  C2943  1  0.205900  0.673600  0.476500  1
  C  C2944  1  0.173600  0.023500  0.794100  1
  C  C2945  1  0.955900  0.226500  0.423600  1
  C  C2946  1  0.826400  0.523500  0.705900  1
  C  C2947  1  0.576400  0.544100  0.226500  1
  C  C2948  1  0.226500  0.576400  0.544100  1
  C  C2949  1  0.773500  0.923600  0.544100  1
  C  C2950  1  0.576400  0.455900  0.273500  1
  C  C2951  1  0.273500  0.576400  0.455900  1
  C  C2952  1  0.423600  0.955900  0.226500  1
  C  C2953  1  0.923600  0.544100  0.773500  1
  C  C2954  1  0.226500  0.423600  0.955900  1
  C  C2955  1  0.523500  0.705900  0.826400  1
  C  C2956  1  0.476500  0.794100  0.826400  1
  C  C2957  1  0.794100  0.173600  0.023500  1
  C  C2958  1  0.794100  0.826400  0.476500  1
  C  C2959  1  0.673600  0.476500  0.205900  1
  C  C2960  1  0.826400  0.476500  0.794100  1
  C  C2961  1  0.960100  0.685400  0.075400  1
  C  C2962  1  0.935400  0.789900  0.174600  1
  C  C2963  1  0.039900  0.814600  0.075400  1
  C  C2964  1  0.564600  0.210100  0.674600  1
  C  C2965  1  0.289900  0.325400  0.064600  1
  C  C2966  1  0.960100  0.314600  0.424600  1
  C  C2967  1  0.789900  0.174600  0.935400  1
  C  C2968  1  0.674600  0.564600  0.210100  1
  C  C2969  1  0.539900  0.685400  0.924600  1
  C  C2970  1  0.325400  0.064600  0.289900  1
  C  C2971  1  0.075400  0.960100  0.685400  1
  C  C2972  1  0.685400  0.075400  0.960100  1
  C  C2973  1  0.314600  0.424600  0.960100  1
  C  C2974  1  0.075400  0.039900  0.814600  1
  C  C2975  1  0.814600  0.075400  0.039900  1
  C  C2976  1  0.924600  0.539900  0.685400  1
  C  C2977  1  0.424600  0.960100  0.314600  1
  C  C2978  1  0.685400  0.924600  0.539900  1
  C  C2979  1  0.064600  0.289900  0.325400  1
  C  C2980  1  0.935400  0.210100  0.325400  1
  C  C2981  1  0.210100  0.674600  0.564600  1
  C  C2982  1  0.210100  0.325400  0.935400  1
  C  C2983  1  0.174600  0.935400  0.789900  1
  C  C2984  1  0.325400  0.935400  0.210100  1
  C  C2985  1  0.460100  0.185400  0.575400  1
  C  C2986  1  0.435400  0.289900  0.674600  1
  C  C2987  1  0.539900  0.314600  0.575400  1
  C  C2988  1  0.064600  0.710100  0.174600  1
  C  C2989  1  0.789900  0.825400  0.564600  1
  C  C2990  1  0.460100  0.814600  0.924600  1
  C  C2991  1  0.289900  0.674600  0.435400  1
  C  C2992  1  0.174600  0.064600  0.710100  1
  C  C2993  1  0.039900  0.185400  0.424600  1
  C  C2994  1  0.825400  0.564600  0.789900  1
  C  C2995  1  0.575400  0.460100  0.185400  1
  C  C2996  1  0.185400  0.575400  0.460100  1
  C  C2997  1  0.814600  0.924600  0.460100  1
  C  C2998  1  0.575400  0.539900  0.314600  1
  C  C2999  1  0.314600  0.575400  0.539900  1
  C  C3000  1  0.424600  0.039900  0.185400  1
  C  C3001  1  0.924600  0.460100  0.814600  1
  C  C3002  1  0.185400  0.424600  0.039900  1
  C  C3003  1  0.564600  0.789900  0.825400  1
  C  C3004  1  0.435400  0.710100  0.825400  1
  C  C3005  1  0.710100  0.174600  0.064600  1
  C  C3006  1  0.710100  0.825400  0.435400  1
  C  C3007  1  0.674600  0.435400  0.289900  1
  C  C3008  1  0.825400  0.435400  0.710100  1
  C  C3009  1  0.965200  0.653300  0.070800  1
  C  C3010  1  0.903300  0.784800  0.179200  1
  C  C3011  1  0.034800  0.846700  0.070800  1
  C  C3012  1  0.596700  0.215200  0.679200  1
  C  C3013  1  0.284800  0.320800  0.096700  1
  C  C3014  1  0.965200  0.346700  0.429200  1
  C  C3015  1  0.784800  0.179200  0.903300  1
  C  C3016  1  0.679200  0.596700  0.215200  1
  C  C3017  1  0.534800  0.653300  0.929200  1
  C  C3018  1  0.320800  0.096700  0.284800  1
  C  C3019  1  0.070800  0.965200  0.653300  1
  C  C3020  1  0.653300  0.070800  0.965200  1
  C  C3021  1  0.346700  0.429200  0.965200  1
  C  C3022  1  0.070800  0.034800  0.846700  1
  C  C3023  1  0.846700  0.070800  0.034800  1
  C  C3024  1  0.929200  0.534800  0.653300  1
  C  C3025  1  0.429200  0.965200  0.346700  1
  C  C3026  1  0.653300  0.929200  0.534800  1
  C  C3027  1  0.096700  0.284800  0.320800  1
  C  C3028  1  0.903300  0.215200  0.320800  1
  C  C3029  1  0.215200  0.679200  0.596700  1
  C  C3030  1  0.215200  0.320800  0.903300  1
  C  C3031  1  0.179200  0.903300  0.784800  1
  C  C3032  1  0.320800  0.903300  0.215200  1
  C  C3033  1  0.465200  0.153300  0.570800  1
  C  C3034  1  0.403300  0.284800  0.679200  1
  C  C3035  1  0.534800  0.346700  0.570800  1
  C  C3036  1  0.096700  0.715200  0.179200  1
  C  C3037  1  0.784800  0.820800  0.596700  1
  C  C3038  1  0.465200  0.846700  0.929200  1
  C  C3039  1  0.284800  0.679200  0.403300  1
  C  C3040  1  0.179200  0.096700  0.715200  1
  C  C3041  1  0.034800  0.153300  0.429200  1
  C  C3042  1  0.820800  0.596700  0.784800  1
  C  C3043  1  0.570800  0.465200  0.153300  1
  C  C3044  1  0.153300  0.570800  0.465200  1
  C  C3045  1  0.846700  0.929200  0.465200  1
  C  C3046  1  0.570800  0.534800  0.346700  1
  C  C3047  1  0.346700  0.570800  0.534800  1
  C  C3048  1  0.429200  0.034800  0.153300  1
  C  C3049  1  0.929200  0.465200  0.846700  1
  C  C3050  1  0.153300  0.429200  0.034800  1
  C  C3051  1  0.596700  0.784800  0.820800  1
  C  C3052  1  0.403300  0.715200  0.820800  1
  C  C3053  1  0.715200  0.179200  0.096700  1
  C  C3054  1  0.715200  0.820800  0.403300  1
  C  C3055  1  0.679200  0.403300  0.284800  1
  C  C3056  1  0.820800  0.403300  0.715200  1
  C  C3057  1  0.167500  0.530300  0.973600  1
  C  C3058  1  0.780300  0.582500  0.276400  1
  C  C3059  1  0.832500  0.969700  0.973600  1
  C  C3060  1  0.719700  0.417500  0.776400  1
  C  C3061  1  0.082500  0.223600  0.219700  1
  C  C3062  1  0.167500  0.469700  0.526400  1
  C  C3063  1  0.582500  0.276400  0.780300  1
  C  C3064  1  0.776400  0.719700  0.417500  1
  C  C3065  1  0.332500  0.530300  0.026400  1
  C  C3066  1  0.223600  0.219700  0.082500  1
  C  C3067  1  0.973600  0.167500  0.530300  1
  C  C3068  1  0.530300  0.973600  0.167500  1
  C  C3069  1  0.469700  0.526400  0.167500  1
  C  C3070  1  0.973600  0.832500  0.969700  1
  C  C3071  1  0.969700  0.973600  0.832500  1
  C  C3072  1  0.026400  0.332500  0.530300  1
  C  C3073  1  0.526400  0.167500  0.469700  1
  C  C3074  1  0.530300  0.026400  0.332500  1
  C  C3075  1  0.219700  0.082500  0.223600  1
  C  C3076  1  0.780300  0.417500  0.223600  1
  C  C3077  1  0.417500  0.776400  0.719700  1
  C  C3078  1  0.417500  0.223600  0.780300  1
  C  C3079  1  0.276400  0.780300  0.582500  1
  C  C3080  1  0.223600  0.780300  0.417500  1
  C  C3081  1  0.667500  0.030300  0.473600  1
  C  C3082  1  0.280300  0.082500  0.776400  1
  C  C3083  1  0.332500  0.469700  0.473600  1
  C  C3084  1  0.219700  0.917500  0.276400  1
  C  C3085  1  0.582500  0.723600  0.719700  1
  C  C3086  1  0.667500  0.969700  0.026400  1
  C  C3087  1  0.082500  0.776400  0.280300  1
  C  C3088  1  0.276400  0.219700  0.917500  1
  C  C3089  1  0.832500  0.030300  0.526400  1
  C  C3090  1  0.723600  0.719700  0.582500  1
  C  C3091  1  0.473600  0.667500  0.030300  1
  C  C3092  1  0.030300  0.473600  0.667500  1
  C  C3093  1  0.969700  0.026400  0.667500  1
  C  C3094  1  0.473600  0.332500  0.469700  1
  C  C3095  1  0.469700  0.473600  0.332500  1
  C  C3096  1  0.526400  0.832500  0.030300  1
  C  C3097  1  0.026400  0.667500  0.969700  1
  C  C3098  1  0.030300  0.526400  0.832500  1
  C  C3099  1  0.719700  0.582500  0.723600  1
  C  C3100  1  0.280300  0.917500  0.723600  1
  C  C3101  1  0.917500  0.276400  0.219700  1
  C  C3102  1  0.917500  0.723600  0.280300  1
  C  C3103  1  0.776400  0.280300  0.082500  1
  C  C3104  1  0.723600  0.280300  0.917500  1
  C  C3105  1  0.183000  0.552000  0.948000  1
  C  C3106  1  0.802000  0.567000  0.302000  1
  C  C3107  1  0.817000  0.948000  0.948000  1
  C  C3108  1  0.698000  0.433000  0.802000  1
  C  C3109  1  0.067000  0.198000  0.198000  1
  C  C3110  1  0.183000  0.448000  0.552000  1
  C  C3111  1  0.567000  0.302000  0.802000  1
  C  C3112  1  0.802000  0.698000  0.433000  1
  C  C3113  1  0.317000  0.552000  0.052000  1
  C  C3114  1  0.198000  0.198000  0.067000  1
  C  C3115  1  0.948000  0.183000  0.552000  1
  C  C3116  1  0.552000  0.948000  0.183000  1
  C  C3117  1  0.448000  0.552000  0.183000  1
  C  C3118  1  0.948000  0.817000  0.948000  1
  C  C3119  1  0.948000  0.948000  0.817000  1
  C  C3120  1  0.052000  0.317000  0.552000  1
  C  C3121  1  0.552000  0.183000  0.448000  1
  C  C3122  1  0.552000  0.052000  0.317000  1
  C  C3123  1  0.198000  0.067000  0.198000  1
  C  C3124  1  0.802000  0.433000  0.198000  1
  C  C3125  1  0.433000  0.802000  0.698000  1
  C  C3126  1  0.433000  0.198000  0.802000  1
  C  C3127  1  0.302000  0.802000  0.567000  1
  C  C3128  1  0.198000  0.802000  0.433000  1
  C  C3129  1  0.683000  0.052000  0.448000  1
  C  C3130  1  0.302000  0.067000  0.802000  1
  C  C3131  1  0.317000  0.448000  0.448000  1
  C  C3132  1  0.198000  0.933000  0.302000  1
  C  C3133  1  0.567000  0.698000  0.698000  1
  C  C3134  1  0.683000  0.948000  0.052000  1
  C  C3135  1  0.067000  0.802000  0.302000  1
  C  C3136  1  0.302000  0.198000  0.933000  1
  C  C3137  1  0.817000  0.052000  0.552000  1
  C  C3138  1  0.698000  0.698000  0.567000  1
  C  C3139  1  0.448000  0.683000  0.052000  1
  C  C3140  1  0.052000  0.448000  0.683000  1
  C  C3141  1  0.948000  0.052000  0.683000  1
  C  C3142  1  0.448000  0.317000  0.448000  1
  C  C3143  1  0.448000  0.448000  0.317000  1
  C  C3144  1  0.552000  0.817000  0.052000  1
  C  C3145  1  0.052000  0.683000  0.948000  1
  C  C3146  1  0.052000  0.552000  0.817000  1
  C  C3147  1  0.698000  0.567000  0.698000  1
  C  C3148  1  0.302000  0.933000  0.698000  1
  C  C3149  1  0.933000  0.302000  0.198000  1
  C  C3150  1  0.933000  0.698000  0.302000  1
  C  C3151  1  0.802000  0.302000  0.067000  1
  C  C3152  1  0.698000  0.302000  0.933000  1
  C  C3153  1  0.144000  0.718100  0.859000  1.0
  C  C3154  1  0.968100  0.606000  0.391000  1.0
  C  C3155  1  0.856000  0.781900  0.859000  1.0
  C  C3156  1  0.531900  0.394000  0.891000  1.0
  C  C3157  1  0.106000  0.109000  0.031900  1.0
  C  C3158  1  0.144000  0.281900  0.641000  1.0
  C  C3159  1  0.606000  0.391000  0.968100  1.0
  C  C3160  1  0.891000  0.531900  0.394000  1.0
  C  C3161  1  0.356000  0.718100  0.141000  1.0
  C  C3162  1  0.109000  0.031900  0.106000  1.0
  C  C3163  1  0.859000  0.144000  0.718100  1.0
  C  C3164  1  0.718100  0.859000  0.144000  1.0
  C  C3165  1  0.281900  0.641000  0.144000  1.0
  C  C3166  1  0.859000  0.856000  0.781900  1.0
  C  C3167  1  0.781900  0.859000  0.856000  1.0
  C  C3168  1  0.141000  0.356000  0.718100  1.0
  C  C3169  1  0.641000  0.144000  0.281900  1.0
  C  C3170  1  0.718100  0.141000  0.356000  1.0
  C  C3171  1  0.031900  0.106000  0.109000  1.0
  C  C3172  1  0.968100  0.394000  0.109000  1.0
  C  C3173  1  0.394000  0.891000  0.531900  1.0
  C  C3174  1  0.394000  0.109000  0.968100  1.0
  C  C3175  1  0.391000  0.968100  0.606000  1.0
  C  C3176  1  0.109000  0.968100  0.394000  1.0
  C  C3177  1  0.644000  0.218100  0.359000  1.0
  C  C3178  1  0.468100  0.106000  0.891000  1.0
  C  C3179  1  0.356000  0.281900  0.359000  1.0
  C  C3180  1  0.031900  0.894000  0.391000  1.0
  C  C3181  1  0.606000  0.609000  0.531900  1.0
  C  C3182  1  0.644000  0.781900  0.141000  1.0
  C  C3183  1  0.106000  0.891000  0.468100  1.0
  C  C3184  1  0.391000  0.031900  0.894000  1.0
  C  C3185  1  0.856000  0.218100  0.641000  1.0
  C  C3186  1  0.609000  0.531900  0.606000  1.0
  C  C3187  1  0.359000  0.644000  0.218100  1.0
  C  C3188  1  0.218100  0.359000  0.644000  1.0
  C  C3189  1  0.781900  0.141000  0.644000  1.0
  C  C3190  1  0.359000  0.356000  0.281900  1.0
  C  C3191  1  0.281900  0.359000  0.356000  1.0
  C  C3192  1  0.641000  0.856000  0.218100  1.0
  C  C3193  1  0.141000  0.644000  0.781900  1.0
  C  C3194  1  0.218100  0.641000  0.856000  1.0
  C  C3195  1  0.531900  0.606000  0.609000  1.0
  C  C3196  1  0.468100  0.894000  0.609000  1.0
  C  C3197  1  0.894000  0.391000  0.031900  1.0
  C  C3198  1  0.894000  0.609000  0.468100  1.0
  C  C3199  1  0.891000  0.468100  0.106000  1.0
  C  C3200  1  0.609000  0.468100  0.894000  1.0
  C  C3201  1  0.135900  0.710900  0.889200  1.0
  C  C3202  1  0.960900  0.614100  0.360800  1.0
  C  C3203  1  0.864100  0.789100  0.889200  1.0
  C  C3204  1  0.539100  0.385900  0.860800  1.0
  C  C3205  1  0.114100  0.139200  0.039100  1.0
  C  C3206  1  0.135900  0.289100  0.610800  1.0
  C  C3207  1  0.614100  0.360800  0.960900  1.0
  C  C3208  1  0.860800  0.539100  0.385900  1.0
  C  C3209  1  0.364100  0.710900  0.110800  1.0
  C  C3210  1  0.139200  0.039100  0.114100  1.0
  C  C3211  1  0.889200  0.135900  0.710900  1.0
  C  C3212  1  0.710900  0.889200  0.135900  1.0
  C  C3213  1  0.289100  0.610800  0.135900  1.0
  C  C3214  1  0.889200  0.864100  0.789100  1.0
  C  C3215  1  0.789100  0.889200  0.864100  1.0
  C  C3216  1  0.110800  0.364100  0.710900  1.0
  C  C3217  1  0.610800  0.135900  0.289100  1.0
  C  C3218  1  0.710900  0.110800  0.364100  1.0
  C  C3219  1  0.039100  0.114100  0.139200  1.0
  C  C3220  1  0.960900  0.385900  0.139200  1.0
  C  C3221  1  0.385900  0.860800  0.539100  1.0
  C  C3222  1  0.385900  0.139200  0.960900  1.0
  C  C3223  1  0.360800  0.960900  0.614100  1.0
  C  C3224  1  0.139200  0.960900  0.385900  1.0
  C  C3225  1  0.635900  0.210900  0.389200  1.0
  C  C3226  1  0.460900  0.114100  0.860800  1.0
  C  C3227  1  0.364100  0.289100  0.389200  1.0
  C  C3228  1  0.039100  0.885900  0.360800  1.0
  C  C3229  1  0.614100  0.639200  0.539100  1.0
  C  C3230  1  0.635900  0.789100  0.110800  1.0
  C  C3231  1  0.114100  0.860800  0.460900  1.0
  C  C3232  1  0.360800  0.039100  0.885900  1.0
  C  C3233  1  0.864100  0.210900  0.610800  1.0
  C  C3234  1  0.639200  0.539100  0.614100  1.0
  C  C3235  1  0.389200  0.635900  0.210900  1.0
  C  C3236  1  0.210900  0.389200  0.635900  1.0
  C  C3237  1  0.789100  0.110800  0.635900  1.0
  C  C3238  1  0.389200  0.364100  0.289100  1.0
  C  C3239  1  0.289100  0.389200  0.364100  1.0
  C  C3240  1  0.610800  0.864100  0.210900  1.0
  C  C3241  1  0.110800  0.635900  0.789100  1.0
  C  C3242  1  0.210900  0.610800  0.864100  1.0
  C  C3243  1  0.539100  0.614100  0.639200  1.0
  C  C3244  1  0.460900  0.885900  0.639200  1.0
  C  C3245  1  0.885900  0.360800  0.039100  1.0
  C  C3246  1  0.885900  0.639200  0.460900  1.0
  C  C3247  1  0.860800  0.460900  0.114100  1.0
  C  C3248  1  0.639200  0.460900  0.885900  1.0
  C  C3249  1  0.142070  0.682230  0.901630  1.0
  C  C3250  1  0.932230  0.607930  0.348370  1.0
  C  C3251  1  0.857930  0.817770  0.901630  1.0
  C  C3252  1  0.567770  0.392070  0.848370  1.0
  C  C3253  1  0.107930  0.151630  0.067770  1.0
  C  C3254  1  0.142070  0.317770  0.598370  1.0
  C  C3255  1  0.607930  0.348370  0.932230  1.0
  C  C3256  1  0.848370  0.567770  0.392070  1.0
  C  C3257  1  0.357930  0.682230  0.098370  1.0
  C  C3258  1  0.151630  0.067770  0.107930  1.0
  C  C3259  1  0.901630  0.142070  0.682230  1.0
  C  C3260  1  0.682230  0.901630  0.142070  1.0
  C  C3261  1  0.317770  0.598370  0.142070  1.0
  C  C3262  1  0.901630  0.857930  0.817770  1.0
  C  C3263  1  0.817770  0.901630  0.857930  1.0
  C  C3264  1  0.098370  0.357930  0.682230  1.0
  C  C3265  1  0.598370  0.142070  0.317770  1.0
  C  C3266  1  0.682230  0.098370  0.357930  1.0
  C  C3267  1  0.067770  0.107930  0.151630  1.0
  C  C3268  1  0.932230  0.392070  0.151630  1.0
  C  C3269  1  0.392070  0.848370  0.567770  1.0
  C  C3270  1  0.392070  0.151630  0.932230  1.0
  C  C3271  1  0.348370  0.932230  0.607930  1.0
  C  C3272  1  0.151630  0.932230  0.392070  1.0
  C  C3273  1  0.642070  0.182230  0.401630  1.0
  C  C3274  1  0.432230  0.107930  0.848370  1.0
  C  C3275  1  0.357930  0.317770  0.401630  1.0
  C  C3276  1  0.067770  0.892070  0.348370  1.0
  C  C3277  1  0.607930  0.651630  0.567770  1.0
  C  C3278  1  0.642070  0.817770  0.098370  1.0
  C  C3279  1  0.107930  0.848370  0.432230  1.0
  C  C3280  1  0.348370  0.067770  0.892070  1.0
  C  C3281  1  0.857930  0.182230  0.598370  1.0
  C  C3282  1  0.651630  0.567770  0.607930  1.0
  C  C3283  1  0.401630  0.642070  0.182230  1.0
  C  C3284  1  0.182230  0.401630  0.642070  1.0
  C  C3285  1  0.817770  0.098370  0.642070  1.0
  C  C3286  1  0.401630  0.357930  0.317770  1.0
  C  C3287  1  0.317770  0.401630  0.357930  1.0
  C  C3288  1  0.598370  0.857930  0.182230  1.0
  C  C3289  1  0.098370  0.642070  0.817770  1.0
  C  C3290  1  0.182230  0.598370  0.857930  1.0
  C  C3291  1  0.567770  0.607930  0.651630  1.0
  C  C3292  1  0.432230  0.892070  0.651630  1.0
  C  C3293  1  0.892070  0.348370  0.067770  1.0
  C  C3294  1  0.892070  0.651630  0.432230  1.0
  C  C3295  1  0.848370  0.432230  0.107930  1.0
  C  C3296  1  0.651630  0.432230  0.892070  1.0
  C  C3297  1  0.137970  0.676620  0.934850  1.0
  C  C3298  1  0.926620  0.612030  0.315150  1.0
  C  C3299  1  0.862030  0.823380  0.934850  1.0
  C  C3300  1  0.573380  0.387970  0.815150  1.0
  C  C3301  1  0.112030  0.184850  0.073380  1.0
  C  C3302  1  0.137970  0.323380  0.565150  1.0
  C  C3303  1  0.612030  0.315150  0.926620  1.0
  C  C3304  1  0.815150  0.573380  0.387970  1.0
  C  C3305  1  0.362030  0.676620  0.065150  1.0
  C  C3306  1  0.184850  0.073380  0.112030  1.0
  C  C3307  1  0.934850  0.137970  0.676620  1.0
  C  C3308  1  0.676620  0.934850  0.137970  1.0
  C  C3309  1  0.323380  0.565150  0.137970  1.0
  C  C3310  1  0.934850  0.862030  0.823380  1.0
  C  C3311  1  0.823380  0.934850  0.862030  1.0
  C  C3312  1  0.065150  0.362030  0.676620  1.0
  C  C3313  1  0.565150  0.137970  0.323380  1.0
  C  C3314  1  0.676620  0.065150  0.362030  1.0
  C  C3315  1  0.073380  0.112030  0.184850  1.0
  C  C3316  1  0.926620  0.387970  0.184850  1.0
  C  C3317  1  0.387970  0.815150  0.573380  1.0
  C  C3318  1  0.387970  0.184850  0.926620  1.0
  C  C3319  1  0.315150  0.926620  0.612030  1.0
  C  C3320  1  0.184850  0.926620  0.387970  1.0
  C  C3321  1  0.637970  0.176620  0.434850  1.0
  C  C3322  1  0.426620  0.112030  0.815150  1.0
  C  C3323  1  0.362030  0.323380  0.434850  1.0
  C  C3324  1  0.073380  0.887970  0.315150  1.0
  C  C3325  1  0.612030  0.684850  0.573380  1.0
  C  C3326  1  0.637970  0.823380  0.065150  1.0
  C  C3327  1  0.112030  0.815150  0.426620  1.0
  C  C3328  1  0.315150  0.073380  0.887970  1.0
  C  C3329  1  0.862030  0.176620  0.565150  1.0
  C  C3330  1  0.684850  0.573380  0.612030  1.0
  C  C3331  1  0.434850  0.637970  0.176620  1.0
  C  C3332  1  0.176620  0.434850  0.637970  1.0
  C  C3333  1  0.823380  0.065150  0.637970  1.0
  C  C3334  1  0.434850  0.362030  0.323380  1.0
  C  C3335  1  0.323380  0.434850  0.362030  1.0
  C  C3336  1  0.565150  0.862030  0.176620  1.0
  C  C3337  1  0.065150  0.637970  0.823380  1.0
  C  C3338  1  0.176620  0.565150  0.862030  1.0
  C  C3339  1  0.573380  0.612030  0.684850  1.0
  C  C3340  1  0.426620  0.887970  0.684850  1.0
  C  C3341  1  0.887970  0.315150  0.073380  1.0
  C  C3342  1  0.887970  0.684850  0.426620  1.0
  C  C3343  1  0.815150  0.426620  0.112030  1.0
  C  C3344  1  0.684850  0.426620  0.887970  1.0
  C  C3345  1  0.122660  0.696510  0.954300  1.0
  C  C3346  1  0.946510  0.627340  0.295700  1.0
  C  C3347  1  0.877340  0.803490  0.954300  1.0
  C  C3348  1  0.553490  0.372660  0.795700  1.0
  C  C3349  1  0.127340  0.204300  0.053490  1.0
  C  C3350  1  0.122660  0.303490  0.545700  1.0
  C  C3351  1  0.627340  0.295700  0.946510  1.0
  C  C3352  1  0.795700  0.553490  0.372660  1.0
  C  C3353  1  0.377340  0.696510  0.045700  1.0
  C  C3354  1  0.204300  0.053490  0.127340  1.0
  C  C3355  1  0.954300  0.122660  0.696510  1.0
  C  C3356  1  0.696510  0.954300  0.122660  1.0
  C  C3357  1  0.303490  0.545700  0.122660  1.0
  C  C3358  1  0.954300  0.877340  0.803490  1.0
  C  C3359  1  0.803490  0.954300  0.877340  1.0
  C  C3360  1  0.045700  0.377340  0.696510  1.0
  C  C3361  1  0.545700  0.122660  0.303490  1.0
  C  C3362  1  0.696510  0.045700  0.377340  1.0
  C  C3363  1  0.053490  0.127340  0.204300  1.0
  C  C3364  1  0.946510  0.372660  0.204300  1.0
  C  C3365  1  0.372660  0.795700  0.553490  1.0
  C  C3366  1  0.372660  0.204300  0.946510  1.0
  C  C3367  1  0.295700  0.946510  0.627340  1.0
  C  C3368  1  0.204300  0.946510  0.372660  1.0
  C  C3369  1  0.622660  0.196510  0.454300  1.0
  C  C3370  1  0.446510  0.127340  0.795700  1.0
  C  C3371  1  0.377340  0.303490  0.454300  1.0
  C  C3372  1  0.053490  0.872660  0.295700  1.0
  C  C3373  1  0.627340  0.704300  0.553490  1.0
  C  C3374  1  0.622660  0.803490  0.045700  1.0
  C  C3375  1  0.127340  0.795700  0.446510  1.0
  C  C3376  1  0.295700  0.053490  0.872660  1.0
  C  C3377  1  0.877340  0.196510  0.545700  1.0
  C  C3378  1  0.704300  0.553490  0.627340  1.0
  C  C3379  1  0.454300  0.622660  0.196510  1.0
  C  C3380  1  0.196510  0.454300  0.622660  1.0
  C  C3381  1  0.803490  0.045700  0.622660  1.0
  C  C3382  1  0.454300  0.377340  0.303490  1.0
  C  C3383  1  0.303490  0.454300  0.377340  1.0
  C  C3384  1  0.545700  0.877340  0.196510  1.0
  C  C3385  1  0.045700  0.622660  0.803490  1.0
  C  C3386  1  0.196510  0.545700  0.877340  1.0
  C  C3387  1  0.553490  0.627340  0.704300  1.0
  C  C3388  1  0.446510  0.872660  0.704300  1.0
  C  C3389  1  0.872660  0.295700  0.053490  1.0
  C  C3390  1  0.872660  0.704300  0.446510  1.0
  C  C3391  1  0.795700  0.446510  0.127340  1.0
  C  C3392  1  0.704300  0.446510  0.872660  1.0
  C  C3393  1  0.122230  0.689970  0.985420  1.0
  C  C3394  1  0.939970  0.627770  0.264580  1.0
  C  C3395  1  0.877770  0.810030  0.985420  1.0
  C  C3396  1  0.560030  0.372230  0.764580  1.0
  C  C3397  1  0.127770  0.235420  0.060030  1.0
  C  C3398  1  0.122230  0.310030  0.514580  1.0
  C  C3399  1  0.627770  0.264580  0.939970  1.0
  C  C3400  1  0.764580  0.560030  0.372230  1.0
  C  C3401  1  0.377770  0.689970  0.014580  1.0
  C  C3402  1  0.235420  0.060030  0.127770  1.0
  C  C3403  1  0.985420  0.122230  0.689970  1.0
  C  C3404  1  0.689970  0.985420  0.122230  1.0
  C  C3405  1  0.310030  0.514580  0.122230  1.0
  C  C3406  1  0.985420  0.877770  0.810030  1.0
  C  C3407  1  0.810030  0.985420  0.877770  1.0
  C  C3408  1  0.014580  0.377770  0.689970  1.0
  C  C3409  1  0.514580  0.122230  0.310030  1.0
  C  C3410  1  0.689970  0.014580  0.377770  1.0
  C  C3411  1  0.060030  0.127770  0.235420  1.0
  C  C3412  1  0.939970  0.372230  0.235420  1.0
  C  C3413  1  0.372230  0.764580  0.560030  1.0
  C  C3414  1  0.372230  0.235420  0.939970  1.0
  C  C3415  1  0.264580  0.939970  0.627770  1.0
  C  C3416  1  0.235420  0.939970  0.372230  1.0
  C  C3417  1  0.622230  0.189970  0.485420  1.0
  C  C3418  1  0.439970  0.127770  0.764580  1.0
  C  C3419  1  0.377770  0.310030  0.485420  1.0
  C  C3420  1  0.060030  0.872230  0.264580  1.0
  C  C3421  1  0.627770  0.735420  0.560030  1.0
  C  C3422  1  0.622230  0.810030  0.014580  1.0
  C  C3423  1  0.127770  0.764580  0.439970  1.0
  C  C3424  1  0.264580  0.060030  0.872230  1.0
  C  C3425  1  0.877770  0.189970  0.514580  1.0
  C  C3426  1  0.735420  0.560030  0.627770  1.0
  C  C3427  1  0.485420  0.622230  0.189970  1.0
  C  C3428  1  0.189970  0.485420  0.622230  1.0
  C  C3429  1  0.810030  0.014580  0.622230  1.0
  C  C3430  1  0.485420  0.377770  0.310030  1.0
  C  C3431  1  0.310030  0.485420  0.377770  1.0
  C  C3432  1  0.514580  0.877770  0.189970  1.0
  C  C3433  1  0.014580  0.622230  0.810030  1.0
  C  C3434  1  0.189970  0.514580  0.877770  1.0
  C  C3435  1  0.560030  0.627770  0.735420  1.0
  C  C3436  1  0.439970  0.872230  0.735420  1.0
  C  C3437  1  0.872230  0.264580  0.060030  1.0
  C  C3438  1  0.872230  0.735420  0.439970  1.0
  C  C3439  1  0.764580  0.439970  0.127770  1.0
  C  C3440  1  0.735420  0.439970  0.872230  1.0
  C  C3441  1  0.149670  0.645490  0.978490  1.0
  C  C3442  1  0.895490  0.600330  0.271510  1.0
  C  C3443  1  0.850330  0.854510  0.978490  1.0
  C  C3444  1  0.604510  0.399670  0.771510  1.0
  C  C3445  1  0.100330  0.228490  0.104510  1.0
  C  C3446  1  0.149670  0.354510  0.521510  1.0
  C  C3447  1  0.600330  0.271510  0.895490  1.0
  C  C3448  1  0.771510  0.604510  0.399670  1.0
  C  C3449  1  0.350330  0.645490  0.021510  1.0
  C  C3450  1  0.228490  0.104510  0.100330  1.0
  C  C3451  1  0.978490  0.149670  0.645490  1.0
  C  C3452  1  0.645490  0.978490  0.149670  1.0
  C  C3453  1  0.354510  0.521510  0.149670  1.0
  C  C3454  1  0.978490  0.850330  0.854510  1.0
  C  C3455  1  0.854510  0.978490  0.850330  1.0
  C  C3456  1  0.021510  0.350330  0.645490  1.0
  C  C3457  1  0.521510  0.149670  0.354510  1.0
  C  C3458  1  0.645490  0.021510  0.350330  1.0
  C  C3459  1  0.104510  0.100330  0.228490  1.0
  C  C3460  1  0.895490  0.399670  0.228490  1.0
  C  C3461  1  0.399670  0.771510  0.604510  1.0
  C  C3462  1  0.399670  0.228490  0.895490  1.0
  C  C3463  1  0.271510  0.895490  0.600330  1.0
  C  C3464  1  0.228490  0.895490  0.399670  1.0
  C  C3465  1  0.649670  0.145490  0.478490  1.0
  C  C3466  1  0.395490  0.100330  0.771510  1.0
  C  C3467  1  0.350330  0.354510  0.478490  1.0
  C  C3468  1  0.104510  0.899670  0.271510  1.0
  C  C3469  1  0.600330  0.728490  0.604510  1.0
  C  C3470  1  0.649670  0.854510  0.021510  1.0
  C  C3471  1  0.100330  0.771510  0.395490  1.0
  C  C3472  1  0.271510  0.104510  0.899670  1.0
  C  C3473  1  0.850330  0.145490  0.521510  1.0
  C  C3474  1  0.728490  0.604510  0.600330  1.0
  C  C3475  1  0.478490  0.649670  0.145490  1.0
  C  C3476  1  0.145490  0.478490  0.649670  1.0
  C  C3477  1  0.854510  0.021510  0.649670  1.0
  C  C3478  1  0.478490  0.350330  0.354510  1.0
  C  C3479  1  0.354510  0.478490  0.350330  1.0
  C  C3480  1  0.521510  0.850330  0.145490  1.0
  C  C3481  1  0.021510  0.649670  0.854510  1.0
  C  C3482  1  0.145490  0.521510  0.850330  1.0
  C  C3483  1  0.604510  0.600330  0.728490  1.0
  C  C3484  1  0.395490  0.899670  0.728490  1.0
  C  C3485  1  0.899670  0.271510  0.104510  1.0
  C  C3486  1  0.899670  0.728490  0.395490  1.0
  C  C3487  1  0.771510  0.395490  0.100330  1.0
  C  C3488  1  0.728490  0.395490  0.899670  1.0
  C  C3489  1  0.142100  0.750800  0.848500  1.0
  C  C3490  1  0.000800  0.607900  0.401500  1.0
  C  C3491  1  0.857900  0.749200  0.848500  1.0
  C  C3492  1  0.499200  0.392100  0.901500  1.0
  C  C3493  1  0.107900  0.098500  0.999200  1.0
  C  C3494  1  0.142100  0.249200  0.651500  1.0
  C  C3495  1  0.607900  0.401500  0.000800  1.0
  C  C3496  1  0.901500  0.499200  0.392100  1.0
  C  C3497  1  0.357900  0.750800  0.151500  1.0
  C  C3498  1  0.098500  0.999200  0.107900  1.0
  C  C3499  1  0.848500  0.142100  0.750800  1.0
  C  C3500  1  0.750800  0.848500  0.142100  1.0
  C  C3501  1  0.249200  0.651500  0.142100  1.0
  C  C3502  1  0.848500  0.857900  0.749200  1.0
  C  C3503  1  0.749200  0.848500  0.857900  1.0
  C  C3504  1  0.151500  0.357900  0.750800  1.0
  C  C3505  1  0.651500  0.142100  0.249200  1.0
  C  C3506  1  0.750800  0.151500  0.357900  1.0
  C  C3507  1  0.999200  0.107900  0.098500  1.0
  C  C3508  1  0.000800  0.392100  0.098500  1.0
  C  C3509  1  0.392100  0.901500  0.499200  1.0
  C  C3510  1  0.392100  0.098500  0.000800  1.0
  C  C3511  1  0.401500  0.000800  0.607900  1.0
  C  C3512  1  0.098500  0.000800  0.392100  1.0
  C  C3513  1  0.642100  0.250800  0.348500  1.0
  C  C3514  1  0.500800  0.107900  0.901500  1.0
  C  C3515  1  0.357900  0.249200  0.348500  1.0
  C  C3516  1  0.999200  0.892100  0.401500  1.0
  C  C3517  1  0.607900  0.598500  0.499200  1.0
  C  C3518  1  0.642100  0.749200  0.151500  1.0
  C  C3519  1  0.107900  0.901500  0.500800  1.0
  C  C3520  1  0.401500  0.999200  0.892100  1.0
  C  C3521  1  0.857900  0.250800  0.651500  1.0
  C  C3522  1  0.598500  0.499200  0.607900  1.0
  C  C3523  1  0.348500  0.642100  0.250800  1.0
  C  C3524  1  0.250800  0.348500  0.642100  1.0
  C  C3525  1  0.749200  0.151500  0.642100  1.0
  C  C3526  1  0.348500  0.357900  0.249200  1.0
  C  C3527  1  0.249200  0.348500  0.357900  1.0
  C  C3528  1  0.651500  0.857900  0.250800  1.0
  C  C3529  1  0.151500  0.642100  0.749200  1.0
  C  C3530  1  0.250800  0.651500  0.857900  1.0
  C  C3531  1  0.499200  0.607900  0.598500  1.0
  C  C3532  1  0.500800  0.892100  0.598500  1.0
  C  C3533  1  0.892100  0.401500  0.999200  1.0
  C  C3534  1  0.892100  0.598500  0.500800  1.0
  C  C3535  1  0.901500  0.500800  0.107900  1.0
  C  C3536  1  0.598500  0.500800  0.892100  1.0
  C  C3537  1  0.150770  0.650050  0.946880  1.0
  C  C3538  1  0.900050  0.599230  0.303120  1.0
  C  C3539  1  0.849230  0.849950  0.946880  1.0
  C  C3540  1  0.599950  0.400770  0.803120  1.0
  C  C3541  1  0.099230  0.196880  0.099950  1.0
  C  C3542  1  0.150770  0.349950  0.553120  1.0
  C  C3543  1  0.599230  0.303120  0.900050  1.0
  C  C3544  1  0.803120  0.599950  0.400770  1.0
  C  C3545  1  0.349230  0.650050  0.053120  1.0
  C  C3546  1  0.196880  0.099950  0.099230  1.0
  C  C3547  1  0.946880  0.150770  0.650050  1.0
  C  C3548  1  0.650050  0.946880  0.150770  1.0
  C  C3549  1  0.349950  0.553120  0.150770  1.0
  C  C3550  1  0.946880  0.849230  0.849950  1.0
  C  C3551  1  0.849950  0.946880  0.849230  1.0
  C  C3552  1  0.053120  0.349230  0.650050  1.0
  C  C3553  1  0.553120  0.150770  0.349950  1.0
  C  C3554  1  0.650050  0.053120  0.349230  1.0
  C  C3555  1  0.099950  0.099230  0.196880  1.0
  C  C3556  1  0.900050  0.400770  0.196880  1.0
  C  C3557  1  0.400770  0.803120  0.599950  1.0
  C  C3558  1  0.400770  0.196880  0.900050  1.0
  C  C3559  1  0.303120  0.900050  0.599230  1.0
  C  C3560  1  0.196880  0.900050  0.400770  1.0
  C  C3561  1  0.650770  0.150050  0.446880  1.0
  C  C3562  1  0.400050  0.099230  0.803120  1.0
  C  C3563  1  0.349230  0.349950  0.446880  1.0
  C  C3564  1  0.099950  0.900770  0.303120  1.0
  C  C3565  1  0.599230  0.696880  0.599950  1.0
  C  C3566  1  0.650770  0.849950  0.053120  1.0
  C  C3567  1  0.099230  0.803120  0.400050  1.0
  C  C3568  1  0.303120  0.099950  0.900770  1.0
  C  C3569  1  0.849230  0.150050  0.553120  1.0
  C  C3570  1  0.696880  0.599950  0.599230  1.0
  C  C3571  1  0.446880  0.650770  0.150050  1.0
  C  C3572  1  0.150050  0.446880  0.650770  1.0
  C  C3573  1  0.849950  0.053120  0.650770  1.0
  C  C3574  1  0.446880  0.349230  0.349950  1.0
  C  C3575  1  0.349950  0.446880  0.349230  1.0
  C  C3576  1  0.553120  0.849230  0.150050  1.0
  C  C3577  1  0.053120  0.650770  0.849950  1.0
  C  C3578  1  0.150050  0.553120  0.849230  1.0
  C  C3579  1  0.599950  0.599230  0.696880  1.0
  C  C3580  1  0.400050  0.900770  0.696880  1.0
  C  C3581  1  0.900770  0.303120  0.099950  1.0
  C  C3582  1  0.900770  0.696880  0.400050  1.0
  C  C3583  1  0.803120  0.400050  0.099230  1.0
  C  C3584  1  0.696880  0.400050  0.900770  1.0
  C  C3585  1  0.944000  0.553700  0.045600  1.0
  C  C3586  1  0.803700  0.806000  0.204400  1.0
  C  C3587  1  0.056000  0.946300  0.045600  1.0
  C  C3588  1  0.696300  0.194000  0.704400  1.0
  C  C3589  1  0.306000  0.295600  0.196300  1.0
  C  C3590  1  0.944000  0.446300  0.454400  1.0
  C  C3591  1  0.806000  0.204400  0.803700  1.0
  C  C3592  1  0.704400  0.696300  0.194000  1.0
  C  C3593  1  0.556000  0.553700  0.954400  1.0
  C  C3594  1  0.295600  0.196300  0.306000  1.0
  C  C3595  1  0.045600  0.944000  0.553700  1.0
  C  C3596  1  0.553700  0.045600  0.944000  1.0
  C  C3597  1  0.446300  0.454400  0.944000  1.0
  C  C3598  1  0.045600  0.056000  0.946300  1.0
  C  C3599  1  0.946300  0.045600  0.056000  1.0
  C  C3600  1  0.954400  0.556000  0.553700  1.0
  C  C3601  1  0.454400  0.944000  0.446300  1.0
  C  C3602  1  0.553700  0.954400  0.556000  1.0
  C  C3603  1  0.196300  0.306000  0.295600  1.0
  C  C3604  1  0.803700  0.194000  0.295600  1.0
  C  C3605  1  0.194000  0.704400  0.696300  1.0
  C  C3606  1  0.194000  0.295600  0.803700  1.0
  C  C3607  1  0.204400  0.803700  0.806000  1.0
  C  C3608  1  0.295600  0.803700  0.194000  1.0
  C  C3609  1  0.444000  0.053700  0.545600  1.0
  C  C3610  1  0.303700  0.306000  0.704400  1.0
  C  C3611  1  0.556000  0.446300  0.545600  1.0
  C  C3612  1  0.196300  0.694000  0.204400  1.0
  C  C3613  1  0.806000  0.795600  0.696300  1.0
  C  C3614  1  0.444000  0.946300  0.954400  1.0
  C  C3615  1  0.306000  0.704400  0.303700  1.0
  C  C3616  1  0.204400  0.196300  0.694000  1.0
  C  C3617  1  0.056000  0.053700  0.454400  1.0
  C  C3618  1  0.795600  0.696300  0.806000  1.0
  C  C3619  1  0.545600  0.444000  0.053700  1.0
  C  C3620  1  0.053700  0.545600  0.444000  1.0
  C  C3621  1  0.946300  0.954400  0.444000  1.0
  C  C3622  1  0.545600  0.556000  0.446300  1.0
  C  C3623  1  0.446300  0.545600  0.556000  1.0
  C  C3624  1  0.454400  0.056000  0.053700  1.0
  C  C3625  1  0.954400  0.444000  0.946300  1.0
  C  C3626  1  0.053700  0.454400  0.056000  1.0
  C  C3627  1  0.696300  0.806000  0.795600  1.0
  C  C3628  1  0.303700  0.694000  0.795600  1.0
  C  C3629  1  0.694000  0.204400  0.196300  1.0
  C  C3630  1  0.694000  0.795600  0.303700  1.0
  C  C3631  1  0.704400  0.303700  0.306000  1.0
  C  C3632  1  0.795600  0.303700  0.694000  1.0
  C  C3633  1  0.974300  0.548000  0.030200  1.0
  C  C3634  1  0.798000  0.775700  0.219800  1.0
  C  C3635  1  0.025700  0.952000  0.030200  1.0
  C  C3636  1  0.702000  0.224300  0.719800  1.0
  C  C3637  1  0.275700  0.280200  0.202000  1.0
  C  C3638  1  0.974300  0.452000  0.469800  1.0
  C  C3639  1  0.775700  0.219800  0.798000  1.0
  C  C3640  1  0.719800  0.702000  0.224300  1.0
  C  C3641  1  0.525700  0.548000  0.969800  1.0
  C  C3642  1  0.280200  0.202000  0.275700  1.0
  C  C3643  1  0.030200  0.974300  0.548000  1.0
  C  C3644  1  0.548000  0.030200  0.974300  1.0
  C  C3645  1  0.452000  0.469800  0.974300  1.0
  C  C3646  1  0.030200  0.025700  0.952000  1.0
  C  C3647  1  0.952000  0.030200  0.025700  1.0
  C  C3648  1  0.969800  0.525700  0.548000  1.0
  C  C3649  1  0.469800  0.974300  0.452000  1.0
  C  C3650  1  0.548000  0.969800  0.525700  1.0
  C  C3651  1  0.202000  0.275700  0.280200  1.0
  C  C3652  1  0.798000  0.224300  0.280200  1.0
  C  C3653  1  0.224300  0.719800  0.702000  1.0
  C  C3654  1  0.224300  0.280200  0.798000  1.0
  C  C3655  1  0.219800  0.798000  0.775700  1.0
  C  C3656  1  0.280200  0.798000  0.224300  1.0
  C  C3657  1  0.474300  0.048000  0.530200  1.0
  C  C3658  1  0.298000  0.275700  0.719800  1.0
  C  C3659  1  0.525700  0.452000  0.530200  1.0
  C  C3660  1  0.202000  0.724300  0.219800  1.0
  C  C3661  1  0.775700  0.780200  0.702000  1.0
  C  C3662  1  0.474300  0.952000  0.969800  1.0
  C  C3663  1  0.275700  0.719800  0.298000  1.0
  C  C3664  1  0.219800  0.202000  0.724300  1.0
  C  C3665  1  0.025700  0.048000  0.469800  1.0
  C  C3666  1  0.780200  0.702000  0.775700  1.0
  C  C3667  1  0.530200  0.474300  0.048000  1.0
  C  C3668  1  0.048000  0.530200  0.474300  1.0
  C  C3669  1  0.952000  0.969800  0.474300  1.0
  C  C3670  1  0.530200  0.525700  0.452000  1.0
  C  C3671  1  0.452000  0.530200  0.525700  1.0
  C  C3672  1  0.469800  0.025700  0.048000  1.0
  C  C3673  1  0.969800  0.474300  0.952000  1.0
  C  C3674  1  0.048000  0.469800  0.025700  1.0
  C  C3675  1  0.702000  0.775700  0.780200  1.0
  C  C3676  1  0.298000  0.724300  0.780200  1.0
  C  C3677  1  0.724300  0.219800  0.202000  1.0
  C  C3678  1  0.724300  0.780200  0.298000  1.0
  C  C3679  1  0.719800  0.298000  0.275700  1.0
  C  C3680  1  0.780200  0.298000  0.724300  1.0
  C  C3681  1  0.997300  0.569600  0.032600  1.0
  C  C3682  1  0.819600  0.752700  0.217400  1.0
  C  C3683  1  0.002700  0.930400  0.032600  1.0
  C  C3684  1  0.680400  0.247300  0.717400  1.0
  C  C3685  1  0.252700  0.282600  0.180400  1.0
  C  C3686  1  0.997300  0.430400  0.467400  1.0
  C  C3687  1  0.752700  0.217400  0.819600  1.0
  C  C3688  1  0.717400  0.680400  0.247300  1.0
  C  C3689  1  0.502700  0.569600  0.967400  1.0
  C  C3690  1  0.282600  0.180400  0.252700  1.0
  C  C3691  1  0.032600  0.997300  0.569600  1.0
  C  C3692  1  0.569600  0.032600  0.997300  1.0
  C  C3693  1  0.430400  0.467400  0.997300  1.0
  C  C3694  1  0.032600  0.002700  0.930400  1.0
  C  C3695  1  0.930400  0.032600  0.002700  1.0
  C  C3696  1  0.967400  0.502700  0.569600  1.0
  C  C3697  1  0.467400  0.997300  0.430400  1.0
  C  C3698  1  0.569600  0.967400  0.502700  1.0
  C  C3699  1  0.180400  0.252700  0.282600  1.0
  C  C3700  1  0.819600  0.247300  0.282600  1.0
  C  C3701  1  0.247300  0.717400  0.680400  1.0
  C  C3702  1  0.247300  0.282600  0.819600  1.0
  C  C3703  1  0.217400  0.819600  0.752700  1.0
  C  C3704  1  0.282600  0.819600  0.247300  1.0
  C  C3705  1  0.497300  0.069600  0.532600  1.0
  C  C3706  1  0.319600  0.252700  0.717400  1.0
  C  C3707  1  0.502700  0.430400  0.532600  1.0
  C  C3708  1  0.180400  0.747300  0.217400  1.0
  C  C3709  1  0.752700  0.782600  0.680400  1.0
  C  C3710  1  0.497300  0.930400  0.967400  1.0
  C  C3711  1  0.252700  0.717400  0.319600  1.0
  C  C3712  1  0.217400  0.180400  0.747300  1.0
  C  C3713  1  0.002700  0.069600  0.467400  1.0
  C  C3714  1  0.782600  0.680400  0.752700  1.0
  C  C3715  1  0.532600  0.497300  0.069600  1.0
  C  C3716  1  0.069600  0.532600  0.497300  1.0
  C  C3717  1  0.930400  0.967400  0.497300  1.0
  C  C3718  1  0.532600  0.502700  0.430400  1.0
  C  C3719  1  0.430400  0.532600  0.502700  1.0
  C  C3720  1  0.467400  0.002700  0.069600  1.0
  C  C3721  1  0.967400  0.497300  0.930400  1.0
  C  C3722  1  0.069600  0.467400  0.002700  1.0
  C  C3723  1  0.680400  0.752700  0.782600  1.0
  C  C3724  1  0.319600  0.747300  0.782600  1.0
  C  C3725  1  0.747300  0.217400  0.180400  1.0
  C  C3726  1  0.747300  0.782600  0.319600  1.0
  C  C3727  1  0.717400  0.319600  0.252700  1.0
  C  C3728  1  0.782600  0.319600  0.747300  1.0
  C  C3729  1  0.026200  0.564800  0.019640  1.0
  C  C3730  1  0.814800  0.723800  0.230360  1.0
  C  C3731  1  0.973800  0.935200  0.019640  1.0
  C  C3732  1  0.685200  0.276200  0.730360  1.0
  C  C3733  1  0.223800  0.269640  0.185200  1.0
  C  C3734  1  0.026200  0.435200  0.480360  1.0
  C  C3735  1  0.723800  0.230360  0.814800  1.0
  C  C3736  1  0.730360  0.685200  0.276200  1.0
  C  C3737  1  0.473800  0.564800  0.980360  1.0
  C  C3738  1  0.269640  0.185200  0.223800  1.0
  C  C3739  1  0.019640  0.026200  0.564800  1.0
  C  C3740  1  0.564800  0.019640  0.026200  1.0
  C  C3741  1  0.435200  0.480360  0.026200  1.0
  C  C3742  1  0.019640  0.973800  0.935200  1.0
  C  C3743  1  0.935200  0.019640  0.973800  1.0
  C  C3744  1  0.980360  0.473800  0.564800  1.0
  C  C3745  1  0.480360  0.026200  0.435200  1.0
  C  C3746  1  0.564800  0.980360  0.473800  1.0
  C  C3747  1  0.185200  0.223800  0.269640  1.0
  C  C3748  1  0.814800  0.276200  0.269640  1.0
  C  C3749  1  0.276200  0.730360  0.685200  1.0
  C  C3750  1  0.276200  0.269640  0.814800  1.0
  C  C3751  1  0.230360  0.814800  0.723800  1.0
  C  C3752  1  0.269640  0.814800  0.276200  1.0
  C  C3753  1  0.526200  0.064800  0.519640  1.0
  C  C3754  1  0.314800  0.223800  0.730360  1.0
  C  C3755  1  0.473800  0.435200  0.519640  1.0
  C  C3756  1  0.185200  0.776200  0.230360  1.0
  C  C3757  1  0.723800  0.769640  0.685200  1.0
  C  C3758  1  0.526200  0.935200  0.980360  1.0
  C  C3759  1  0.223800  0.730360  0.314800  1.0
  C  C3760  1  0.230360  0.185200  0.776200  1.0
  C  C3761  1  0.973800  0.064800  0.480360  1.0
  C  C3762  1  0.769640  0.685200  0.723800  1.0
  C  C3763  1  0.519640  0.526200  0.064800  1.0
  C  C3764  1  0.064800  0.519640  0.526200  1.0
  C  C3765  1  0.935200  0.980360  0.526200  1.0
  C  C3766  1  0.519640  0.473800  0.435200  1.0
  C  C3767  1  0.435200  0.519640  0.473800  1.0
  C  C3768  1  0.480360  0.973800  0.064800  1.0
  C  C3769  1  0.980360  0.526200  0.935200  1.0
  C  C3770  1  0.064800  0.480360  0.973800  1.0
  C  C3771  1  0.685200  0.723800  0.769640  1.0
  C  C3772  1  0.314800  0.776200  0.769640  1.0
  C  C3773  1  0.776200  0.230360  0.185200  1.0
  C  C3774  1  0.776200  0.769640  0.314800  1.0
  C  C3775  1  0.730360  0.314800  0.223800  1.0
  C  C3776  1  0.769640  0.314800  0.776200  1.0
  C  C3777  1  0.051180  0.587600  0.024850  1.0
  C  C3778  1  0.837600  0.698820  0.225150  1.0
  C  C3779  1  0.948820  0.912400  0.024850  1.0
  C  C3780  1  0.662400  0.301180  0.725150  1.0
  C  C3781  1  0.198820  0.274850  0.162400  1.0
  C  C3782  1  0.051180  0.412400  0.475150  1.0
  C  C3783  1  0.698820  0.225150  0.837600  1.0
  C  C3784  1  0.725150  0.662400  0.301180  1.0
  C  C3785  1  0.448820  0.587600  0.975150  1.0
  C  C3786  1  0.274850  0.162400  0.198820  1.0
  C  C3787  1  0.024850  0.051180  0.587600  1.0
  C  C3788  1  0.587600  0.024850  0.051180  1.0
  C  C3789  1  0.412400  0.475150  0.051180  1.0
  C  C3790  1  0.024850  0.948820  0.912400  1.0
  C  C3791  1  0.912400  0.024850  0.948820  1.0
  C  C3792  1  0.975150  0.448820  0.587600  1.0
  C  C3793  1  0.475150  0.051180  0.412400  1.0
  C  C3794  1  0.587600  0.975150  0.448820  1.0
  C  C3795  1  0.162400  0.198820  0.274850  1.0
  C  C3796  1  0.837600  0.301180  0.274850  1.0
  C  C3797  1  0.301180  0.725150  0.662400  1.0
  C  C3798  1  0.301180  0.274850  0.837600  1.0
  C  C3799  1  0.225150  0.837600  0.698820  1.0
  C  C3800  1  0.274850  0.837600  0.301180  1.0
  C  C3801  1  0.551180  0.087600  0.524850  1.0
  C  C3802  1  0.337600  0.198820  0.725150  1.0
  C  C3803  1  0.448820  0.412400  0.524850  1.0
  C  C3804  1  0.162400  0.801180  0.225150  1.0
  C  C3805  1  0.698820  0.774850  0.662400  1.0
  C  C3806  1  0.551180  0.912400  0.975150  1.0
  C  C3807  1  0.198820  0.725150  0.337600  1.0
  C  C3808  1  0.225150  0.162400  0.801180  1.0
  C  C3809  1  0.948820  0.087600  0.475150  1.0
  C  C3810  1  0.774850  0.662400  0.698820  1.0
  C  C3811  1  0.524850  0.551180  0.087600  1.0
  C  C3812  1  0.087600  0.524850  0.551180  1.0
  C  C3813  1  0.912400  0.975150  0.551180  1.0
  C  C3814  1  0.524850  0.448820  0.412400  1.0
  C  C3815  1  0.412400  0.524850  0.448820  1.0
  C  C3816  1  0.475150  0.948820  0.087600  1.0
  C  C3817  1  0.975150  0.551180  0.912400  1.0
  C  C3818  1  0.087600  0.475150  0.948820  1.0
  C  C3819  1  0.662400  0.698820  0.774850  1.0
  C  C3820  1  0.337600  0.801180  0.774850  1.0
  C  C3821  1  0.801180  0.225150  0.162400  1.0
  C  C3822  1  0.801180  0.774850  0.337600  1.0
  C  C3823  1  0.725150  0.337600  0.198820  1.0
  C  C3824  1  0.774850  0.337600  0.801180  1.0
  C  C3825  1  0.081400  0.578300  0.019300  1.0
  C  C3826  1  0.828300  0.668600  0.230700  1.0
  C  C3827  1  0.918600  0.921700  0.019300  1.0
  C  C3828  1  0.671700  0.331400  0.730700  1.0
  C  C3829  1  0.168600  0.269300  0.171700  1.0
  C  C3830  1  0.081400  0.421700  0.480700  1.0
  C  C3831  1  0.668600  0.230700  0.828300  1.0
  C  C3832  1  0.730700  0.671700  0.331400  1.0
  C  C3833  1  0.418600  0.578300  0.980700  1.0
  C  C3834  1  0.269300  0.171700  0.168600  1.0
  C  C3835  1  0.019300  0.081400  0.578300  1.0
  C  C3836  1  0.578300  0.019300  0.081400  1.0
  C  C3837  1  0.421700  0.480700  0.081400  1.0
  C  C3838  1  0.019300  0.918600  0.921700  1.0
  C  C3839  1  0.921700  0.019300  0.918600  1.0
  C  C3840  1  0.980700  0.418600  0.578300  1.0
  C  C3841  1  0.480700  0.081400  0.421700  1.0
  C  C3842  1  0.578300  0.980700  0.418600  1.0
  C  C3843  1  0.171700  0.168600  0.269300  1.0
  C  C3844  1  0.828300  0.331400  0.269300  1.0
  C  C3845  1  0.331400  0.730700  0.671700  1.0
  C  C3846  1  0.331400  0.269300  0.828300  1.0
  C  C3847  1  0.230700  0.828300  0.668600  1.0
  C  C3848  1  0.269300  0.828300  0.331400  1.0
  C  C3849  1  0.581400  0.078300  0.519300  1.0
  C  C3850  1  0.328300  0.168600  0.730700  1.0
  C  C3851  1  0.418600  0.421700  0.519300  1.0
  C  C3852  1  0.171700  0.831400  0.230700  1.0
  C  C3853  1  0.668600  0.769300  0.671700  1.0
  C  C3854  1  0.581400  0.921700  0.980700  1.0
  C  C3855  1  0.168600  0.730700  0.328300  1.0
  C  C3856  1  0.230700  0.171700  0.831400  1.0
  C  C3857  1  0.918600  0.078300  0.480700  1.0
  C  C3858  1  0.769300  0.671700  0.668600  1.0
  C  C3859  1  0.519300  0.581400  0.078300  1.0
  C  C3860  1  0.078300  0.519300  0.581400  1.0
  C  C3861  1  0.921700  0.980700  0.581400  1.0
  C  C3862  1  0.519300  0.418600  0.421700  1.0
  C  C3863  1  0.421700  0.519300  0.418600  1.0
  C  C3864  1  0.480700  0.918600  0.078300  1.0
  C  C3865  1  0.980700  0.581400  0.921700  1.0
  C  C3866  1  0.078300  0.480700  0.918600  1.0
  C  C3867  1  0.671700  0.668600  0.769300  1.0
  C  C3868  1  0.328300  0.831400  0.769300  1.0
  C  C3869  1  0.831400  0.230700  0.171700  1.0
  C  C3870  1  0.831400  0.769300  0.328300  1.0
  C  C3871  1  0.730700  0.328300  0.168600  1.0
  C  C3872  1  0.769300  0.328300  0.831400  1.0
  C  C3873  1  0.104480  0.598700  0.024460  1.0
  C  C3874  1  0.848700  0.645520  0.225540  1.0
  C  C3875  1  0.895520  0.901300  0.024460  1.0
  C  C3876  1  0.651300  0.354480  0.725540  1.0
  C  C3877  1  0.145520  0.274460  0.151300  1.0
  C  C3878  1  0.104480  0.401300  0.475540  1.0
  C  C3879  1  0.645520  0.225540  0.848700  1.0
  C  C3880  1  0.725540  0.651300  0.354480  1.0
  C  C3881  1  0.395520  0.598700  0.975540  1.0
  C  C3882  1  0.274460  0.151300  0.145520  1.0
  C  C3883  1  0.024460  0.104480  0.598700  1.0
  C  C3884  1  0.598700  0.024460  0.104480  1.0
  C  C3885  1  0.401300  0.475540  0.104480  1.0
  C  C3886  1  0.024460  0.895520  0.901300  1.0
  C  C3887  1  0.901300  0.024460  0.895520  1.0
  C  C3888  1  0.975540  0.395520  0.598700  1.0
  C  C3889  1  0.475540  0.104480  0.401300  1.0
  C  C3890  1  0.598700  0.975540  0.395520  1.0
  C  C3891  1  0.151300  0.145520  0.274460  1.0
  C  C3892  1  0.848700  0.354480  0.274460  1.0
  C  C3893  1  0.354480  0.725540  0.651300  1.0
  C  C3894  1  0.354480  0.274460  0.848700  1.0
  C  C3895  1  0.225540  0.848700  0.645520  1.0
  C  C3896  1  0.274460  0.848700  0.354480  1.0
  C  C3897  1  0.604480  0.098700  0.524460  1.0
  C  C3898  1  0.348700  0.145520  0.725540  1.0
  C  C3899  1  0.395520  0.401300  0.524460  1.0
  C  C3900  1  0.151300  0.854480  0.225540  1.0
  C  C3901  1  0.645520  0.774460  0.651300  1.0
  C  C3902  1  0.604480  0.901300  0.975540  1.0
  C  C3903  1  0.145520  0.725540  0.348700  1.0
  C  C3904  1  0.225540  0.151300  0.854480  1.0
  C  C3905  1  0.895520  0.098700  0.475540  1.0
  C  C3906  1  0.774460  0.651300  0.645520  1.0
  C  C3907  1  0.524460  0.604480  0.098700  1.0
  C  C3908  1  0.098700  0.524460  0.604480  1.0
  C  C3909  1  0.901300  0.975540  0.604480  1.0
  C  C3910  1  0.524460  0.395520  0.401300  1.0
  C  C3911  1  0.401300  0.524460  0.395520  1.0
  C  C3912  1  0.475540  0.895520  0.098700  1.0
  C  C3913  1  0.975540  0.604480  0.901300  1.0
  C  C3914  1  0.098700  0.475540  0.895520  1.0
  C  C3915  1  0.651300  0.645520  0.774460  1.0
  C  C3916  1  0.348700  0.854480  0.774460  1.0
  C  C3917  1  0.854480  0.225540  0.151300  1.0
  C  C3918  1  0.854480  0.774460  0.348700  1.0
  C  C3919  1  0.725540  0.348700  0.145520  1.0
  C  C3920  1  0.774460  0.348700  0.854480  1.0
  C  C3921  1  0.070510  0.636800  0.040340  1.0
  C  C3922  1  0.886800  0.679490  0.209660  1.0
  C  C3923  1  0.929490  0.863200  0.040340  1.0
  C  C3924  1  0.613200  0.320510  0.709660  1.0
  C  C3925  1  0.179490  0.290340  0.113200  1.0
  C  C3926  1  0.070510  0.363200  0.459660  1.0
  C  C3927  1  0.679490  0.209660  0.886800  1.0
  C  C3928  1  0.709660  0.613200  0.320510  1.0
  C  C3929  1  0.429490  0.636800  0.959660  1.0
  C  C3930  1  0.290340  0.113200  0.179490  1.0
  C  C3931  1  0.040340  0.070510  0.636800  1.0
  C  C3932  1  0.636800  0.040340  0.070510  1.0
  C  C3933  1  0.363200  0.459660  0.070510  1.0
  C  C3934  1  0.040340  0.929490  0.863200  1.0
  C  C3935  1  0.863200  0.040340  0.929490  1.0
  C  C3936  1  0.959660  0.429490  0.636800  1.0
  C  C3937  1  0.459660  0.070510  0.363200  1.0
  C  C3938  1  0.636800  0.959660  0.429490  1.0
  C  C3939  1  0.113200  0.179490  0.290340  1.0
  C  C3940  1  0.886800  0.320510  0.290340  1.0
  C  C3941  1  0.320510  0.709660  0.613200  1.0
  C  C3942  1  0.320510  0.290340  0.886800  1.0
  C  C3943  1  0.209660  0.886800  0.679490  1.0
  C  C3944  1  0.290340  0.886800  0.320510  1.0
  C  C3945  1  0.570510  0.136800  0.540340  1.0
  C  C3946  1  0.386800  0.179490  0.709660  1.0
  C  C3947  1  0.429490  0.363200  0.540340  1.0
  C  C3948  1  0.113200  0.820510  0.209660  1.0
  C  C3949  1  0.679490  0.790340  0.613200  1.0
  C  C3950  1  0.570510  0.863200  0.959660  1.0
  C  C3951  1  0.179490  0.709660  0.386800  1.0
  C  C3952  1  0.209660  0.113200  0.820510  1.0
  C  C3953  1  0.929490  0.136800  0.459660  1.0
  C  C3954  1  0.790340  0.613200  0.679490  1.0
  C  C3955  1  0.540340  0.570510  0.136800  1.0
  C  C3956  1  0.136800  0.540340  0.570510  1.0
  C  C3957  1  0.863200  0.959660  0.570510  1.0
  C  C3958  1  0.540340  0.429490  0.363200  1.0
  C  C3959  1  0.363200  0.540340  0.429490  1.0
  C  C3960  1  0.459660  0.929490  0.136800  1.0
  C  C3961  1  0.959660  0.570510  0.863200  1.0
  C  C3962  1  0.136800  0.459660  0.929490  1.0
  C  C3963  1  0.613200  0.679490  0.790340  1.0
  C  C3964  1  0.386800  0.820510  0.790340  1.0
  C  C3965  1  0.820510  0.209660  0.113200  1.0
  C  C3966  1  0.820510  0.790340  0.386800  1.0
  C  C3967  1  0.709660  0.386800  0.179490  1.0
  C  C3968  1  0.790340  0.386800  0.820510  1.0
  C  C3969  1  0.046330  0.617300  0.035150  1.0
  C  C3970  1  0.867300  0.703670  0.214850  1.0
  C  C3971  1  0.953670  0.882700  0.035150  1.0
  C  C3972  1  0.632700  0.296330  0.714850  1.0
  C  C3973  1  0.203670  0.285150  0.132700  1.0
  C  C3974  1  0.046330  0.382700  0.464850  1.0
  C  C3975  1  0.703670  0.214850  0.867300  1.0
  C  C3976  1  0.714850  0.632700  0.296330  1.0
  C  C3977  1  0.453670  0.617300  0.964850  1.0
  C  C3978  1  0.285150  0.132700  0.203670  1.0
  C  C3979  1  0.035150  0.046330  0.617300  1.0
  C  C3980  1  0.617300  0.035150  0.046330  1.0
  C  C3981  1  0.382700  0.464850  0.046330  1.0
  C  C3982  1  0.035150  0.953670  0.882700  1.0
  C  C3983  1  0.882700  0.035150  0.953670  1.0
  C  C3984  1  0.964850  0.453670  0.617300  1.0
  C  C3985  1  0.464850  0.046330  0.382700  1.0
  C  C3986  1  0.617300  0.964850  0.453670  1.0
  C  C3987  1  0.132700  0.203670  0.285150  1.0
  C  C3988  1  0.867300  0.296330  0.285150  1.0
  C  C3989  1  0.296330  0.714850  0.632700  1.0
  C  C3990  1  0.296330  0.285150  0.867300  1.0
  C  C3991  1  0.214850  0.867300  0.703670  1.0
  C  C3992  1  0.285150  0.867300  0.296330  1.0
  C  C3993  1  0.546330  0.117300  0.535150  1.0
  C  C3994  1  0.367300  0.203670  0.714850  1.0
  C  C3995  1  0.453670  0.382700  0.535150  1.0
  C  C3996  1  0.132700  0.796330  0.214850  1.0
  C  C3997  1  0.703670  0.785150  0.632700  1.0
  C  C3998  1  0.546330  0.882700  0.964850  1.0
  C  C3999  1  0.203670  0.714850  0.367300  1.0
  C  C4000  1  0.214850  0.132700  0.796330  1.0
  C  C4001  1  0.953670  0.117300  0.464850  1.0
  C  C4002  1  0.785150  0.632700  0.703670  1.0
  C  C4003  1  0.535150  0.546330  0.117300  1.0
  C  C4004  1  0.117300  0.535150  0.546330  1.0
  C  C4005  1  0.882700  0.964850  0.546330  1.0
  C  C4006  1  0.535150  0.453670  0.382700  1.0
  C  C4007  1  0.382700  0.535150  0.453670  1.0
  C  C4008  1  0.464850  0.953670  0.117300  1.0
  C  C4009  1  0.964850  0.546330  0.882700  1.0
  C  C4010  1  0.117300  0.464850  0.953670  1.0
  C  C4011  1  0.632700  0.703670  0.785150  1.0
  C  C4012  1  0.367300  0.796330  0.785150  1.0
  C  C4013  1  0.796330  0.214850  0.132700  1.0
  C  C4014  1  0.796330  0.785150  0.367300  1.0
  C  C4015  1  0.714850  0.367300  0.203670  1.0
  C  C4016  1  0.785150  0.367300  0.796330  1.0
  C  C4017  1  0.176200  0.709900  0.086600  1.0
  C  C4018  1  0.959900  0.573800  0.163400  1.0
  C  C4019  1  0.823800  0.790100  0.086600  1.0
  C  C4020  1  0.540100  0.426200  0.663400  1.0
  C  C4021  1  0.073800  0.336600  0.040100  1.0
  C  C4022  1  0.176200  0.290100  0.413400  1.0
  C  C4023  1  0.573800  0.163400  0.959900  1.0
  C  C4024  1  0.663400  0.540100  0.426200  1.0
  C  C4025  1  0.323800  0.709900  0.913400  1.0
  C  C4026  1  0.336600  0.040100  0.073800  1.0
  C  C4027  1  0.086600  0.176200  0.709900  1.0
  C  C4028  1  0.709900  0.086600  0.176200  1.0
  C  C4029  1  0.290100  0.413400  0.176200  1.0
  C  C4030  1  0.086600  0.823800  0.790100  1.0
  C  C4031  1  0.790100  0.086600  0.823800  1.0
  C  C4032  1  0.913400  0.323800  0.709900  1.0
  C  C4033  1  0.413400  0.176200  0.290100  1.0
  C  C4034  1  0.709900  0.913400  0.323800  1.0
  C  C4035  1  0.040100  0.073800  0.336600  1.0
  C  C4036  1  0.959900  0.426200  0.336600  1.0
  C  C4037  1  0.426200  0.663400  0.540100  1.0
  C  C4038  1  0.426200  0.336600  0.959900  1.0
  C  C4039  1  0.163400  0.959900  0.573800  1.0
  C  C4040  1  0.336600  0.959900  0.426200  1.0
  C  C4041  1  0.676200  0.209900  0.586600  1.0
  C  C4042  1  0.459900  0.073800  0.663400  1.0
  C  C4043  1  0.323800  0.290100  0.586600  1.0
  C  C4044  1  0.040100  0.926200  0.163400  1.0
  C  C4045  1  0.573800  0.836600  0.540100  1.0
  C  C4046  1  0.676200  0.790100  0.913400  1.0
  C  C4047  1  0.073800  0.663400  0.459900  1.0
  C  C4048  1  0.163400  0.040100  0.926200  1.0
  C  C4049  1  0.823800  0.209900  0.413400  1.0
  C  C4050  1  0.836600  0.540100  0.573800  1.0
  C  C4051  1  0.586600  0.676200  0.209900  1.0
  C  C4052  1  0.209900  0.586600  0.676200  1.0
  C  C4053  1  0.790100  0.913400  0.676200  1.0
  C  C4054  1  0.586600  0.323800  0.290100  1.0
  C  C4055  1  0.290100  0.586600  0.323800  1.0
  C  C4056  1  0.413400  0.823800  0.209900  1.0
  C  C4057  1  0.913400  0.676200  0.790100  1.0
  C  C4058  1  0.209900  0.413400  0.823800  1.0
  C  C4059  1  0.540100  0.573800  0.836600  1.0
  C  C4060  1  0.459900  0.926200  0.836600  1.0
  C  C4061  1  0.926200  0.163400  0.040100  1.0
  C  C4062  1  0.926200  0.836600  0.459900  1.0
  C  C4063  1  0.663400  0.459900  0.073800  1.0
  C  C4064  1  0.836600  0.459900  0.926200  1.0
  C  C4065  1  0.174400  0.693100  0.115800  1.0
  C  C4066  1  0.943100  0.575600  0.134200  1.0
  C  C4067  1  0.825600  0.806900  0.115800  1.0
  C  C4068  1  0.556900  0.424400  0.634200  1.0
  C  C4069  1  0.075600  0.365800  0.056900  1.0
  C  C4070  1  0.174400  0.306900  0.384200  1.0
  C  C4071  1  0.575600  0.134200  0.943100  1.0
  C  C4072  1  0.634200  0.556900  0.424400  1.0
  C  C4073  1  0.325600  0.693100  0.884200  1.0
  C  C4074  1  0.365800  0.056900  0.075600  1.0
  C  C4075  1  0.115800  0.174400  0.693100  1.0
  C  C4076  1  0.693100  0.115800  0.174400  1.0
  C  C4077  1  0.306900  0.384200  0.174400  1.0
  C  C4078  1  0.115800  0.825600  0.806900  1.0
  C  C4079  1  0.806900  0.115800  0.825600  1.0
  C  C4080  1  0.884200  0.325600  0.693100  1.0
  C  C4081  1  0.384200  0.174400  0.306900  1.0
  C  C4082  1  0.693100  0.884200  0.325600  1.0
  C  C4083  1  0.056900  0.075600  0.365800  1.0
  C  C4084  1  0.943100  0.424400  0.365800  1.0
  C  C4085  1  0.424400  0.634200  0.556900  1.0
  C  C4086  1  0.424400  0.365800  0.943100  1.0
  C  C4087  1  0.134200  0.943100  0.575600  1.0
  C  C4088  1  0.365800  0.943100  0.424400  1.0
  C  C4089  1  0.674400  0.193100  0.615800  1.0
  C  C4090  1  0.443100  0.075600  0.634200  1.0
  C  C4091  1  0.325600  0.306900  0.615800  1.0
  C  C4092  1  0.056900  0.924400  0.134200  1.0
  C  C4093  1  0.575600  0.865800  0.556900  1.0
  C  C4094  1  0.674400  0.806900  0.884200  1.0
  C  C4095  1  0.075600  0.634200  0.443100  1.0
  C  C4096  1  0.134200  0.056900  0.924400  1.0
  C  C4097  1  0.825600  0.193100  0.384200  1.0
  C  C4098  1  0.865800  0.556900  0.575600  1.0
  C  C4099  1  0.615800  0.674400  0.193100  1.0
  C  C4100  1  0.193100  0.615800  0.674400  1.0
  C  C4101  1  0.806900  0.884200  0.674400  1.0
  C  C4102  1  0.615800  0.325600  0.306900  1.0
  C  C4103  1  0.306900  0.615800  0.325600  1.0
  C  C4104  1  0.384200  0.825600  0.193100  1.0
  C  C4105  1  0.884200  0.674400  0.806900  1.0
  C  C4106  1  0.193100  0.384200  0.825600  1.0
  C  C4107  1  0.556900  0.575600  0.865800  1.0
  C  C4108  1  0.443100  0.924400  0.865800  1.0
  C  C4109  1  0.924400  0.134200  0.056900  1.0
  C  C4110  1  0.924400  0.865800  0.443100  1.0
  C  C4111  1  0.634200  0.443100  0.075600  1.0
  C  C4112  1  0.865800  0.443100  0.924400  1.0
  C  C4113  1  0.143700  0.678900  0.119700  1.0
  C  C4114  1  0.928900  0.606300  0.130300  1.0
  C  C4115  1  0.856300  0.821100  0.119700  1.0
  C  C4116  1  0.571100  0.393700  0.630300  1.0
  C  C4117  1  0.106300  0.369700  0.071100  1.0
  C  C4118  1  0.143700  0.321100  0.380300  1.0
  C  C4119  1  0.606300  0.130300  0.928900  1.0
  C  C4120  1  0.630300  0.571100  0.393700  1.0
  C  C4121  1  0.356300  0.678900  0.880300  1.0
  C  C4122  1  0.369700  0.071100  0.106300  1.0
  C  C4123  1  0.119700  0.143700  0.678900  1.0
  C  C4124  1  0.678900  0.119700  0.143700  1.0
  C  C4125  1  0.321100  0.380300  0.143700  1.0
  C  C4126  1  0.119700  0.856300  0.821100  1.0
  C  C4127  1  0.821100  0.119700  0.856300  1.0
  C  C4128  1  0.880300  0.356300  0.678900  1.0
  C  C4129  1  0.380300  0.143700  0.321100  1.0
  C  C4130  1  0.678900  0.880300  0.356300  1.0
  C  C4131  1  0.071100  0.106300  0.369700  1.0
  C  C4132  1  0.928900  0.393700  0.369700  1.0
  C  C4133  1  0.393700  0.630300  0.571100  1.0
  C  C4134  1  0.393700  0.369700  0.928900  1.0
  C  C4135  1  0.130300  0.928900  0.606300  1.0
  C  C4136  1  0.369700  0.928900  0.393700  1.0
  C  C4137  1  0.643700  0.178900  0.619700  1.0
  C  C4138  1  0.428900  0.106300  0.630300  1.0
  C  C4139  1  0.356300  0.321100  0.619700  1.0
  C  C4140  1  0.071100  0.893700  0.130300  1.0
  C  C4141  1  0.606300  0.869700  0.571100  1.0
  C  C4142  1  0.643700  0.821100  0.880300  1.0
  C  C4143  1  0.106300  0.630300  0.428900  1.0
  C  C4144  1  0.130300  0.071100  0.893700  1.0
  C  C4145  1  0.856300  0.178900  0.380300  1.0
  C  C4146  1  0.869700  0.571100  0.606300  1.0
  C  C4147  1  0.619700  0.643700  0.178900  1.0
  C  C4148  1  0.178900  0.619700  0.643700  1.0
  C  C4149  1  0.821100  0.880300  0.643700  1.0
  C  C4150  1  0.619700  0.356300  0.321100  1.0
  C  C4151  1  0.321100  0.619700  0.356300  1.0
  C  C4152  1  0.380300  0.856300  0.178900  1.0
  C  C4153  1  0.880300  0.643700  0.821100  1.0
  C  C4154  1  0.178900  0.380300  0.856300  1.0
  C  C4155  1  0.571100  0.606300  0.869700  1.0
  C  C4156  1  0.428900  0.893700  0.869700  1.0
  C  C4157  1  0.893700  0.130300  0.071100  1.0
  C  C4158  1  0.893700  0.869700  0.428900  1.0
  C  C4159  1  0.630300  0.428900  0.106300  1.0
  C  C4160  1  0.869700  0.428900  0.893700  1.0
  C  C4161  1  0.163200  0.614100  0.103200  1.0
  C  C4162  1  0.864100  0.586800  0.146800  1.0
  C  C4163  1  0.836800  0.885900  0.103200  1.0
  C  C4164  1  0.635900  0.413200  0.646800  1.0
  C  C4165  1  0.086800  0.353200  0.135900  1.0
  C  C4166  1  0.163200  0.385900  0.396800  1.0
  C  C4167  1  0.586800  0.146800  0.864100  1.0
  C  C4168  1  0.646800  0.635900  0.413200  1.0
  C  C4169  1  0.336800  0.614100  0.896800  1.0
  C  C4170  1  0.353200  0.135900  0.086800  1.0
  C  C4171  1  0.103200  0.163200  0.614100  1.0
  C  C4172  1  0.614100  0.103200  0.163200  1.0
  C  C4173  1  0.385900  0.396800  0.163200  1.0
  C  C4174  1  0.103200  0.836800  0.885900  1.0
  C  C4175  1  0.885900  0.103200  0.836800  1.0
  C  C4176  1  0.896800  0.336800  0.614100  1.0
  C  C4177  1  0.396800  0.163200  0.385900  1.0
  C  C4178  1  0.614100  0.896800  0.336800  1.0
  C  C4179  1  0.135900  0.086800  0.353200  1.0
  C  C4180  1  0.864100  0.413200  0.353200  1.0
  C  C4181  1  0.413200  0.646800  0.635900  1.0
  C  C4182  1  0.413200  0.353200  0.864100  1.0
  C  C4183  1  0.146800  0.864100  0.586800  1.0
  C  C4184  1  0.353200  0.864100  0.413200  1.0
  C  C4185  1  0.663200  0.114100  0.603200  1.0
  C  C4186  1  0.364100  0.086800  0.646800  1.0
  C  C4187  1  0.336800  0.385900  0.603200  1.0
  C  C4188  1  0.135900  0.913200  0.146800  1.0
  C  C4189  1  0.586800  0.853200  0.635900  1.0
  C  C4190  1  0.663200  0.885900  0.896800  1.0
  C  C4191  1  0.086800  0.646800  0.364100  1.0
  C  C4192  1  0.146800  0.135900  0.913200  1.0
  C  C4193  1  0.836800  0.114100  0.396800  1.0
  C  C4194  1  0.853200  0.635900  0.586800  1.0
  C  C4195  1  0.603200  0.663200  0.114100  1.0
  C  C4196  1  0.114100  0.603200  0.663200  1.0
  C  C4197  1  0.885900  0.896800  0.663200  1.0
  C  C4198  1  0.603200  0.336800  0.385900  1.0
  C  C4199  1  0.385900  0.603200  0.336800  1.0
  C  C4200  1  0.396800  0.836800  0.114100  1.0
  C  C4201  1  0.896800  0.663200  0.885900  1.0
  C  C4202  1  0.114100  0.396800  0.836800  1.0
  C  C4203  1  0.635900  0.586800  0.853200  1.0
  C  C4204  1  0.364100  0.913200  0.853200  1.0
  C  C4205  1  0.913200  0.146800  0.135900  1.0
  C  C4206  1  0.913200  0.853200  0.364100  1.0
  C  C4207  1  0.646800  0.364100  0.086800  1.0
  C  C4208  1  0.853200  0.364100  0.913200  1.0
  C  C4209  1  0.175200  0.611900  0.133200  1.0
  C  C4210  1  0.861900  0.574800  0.116800  1.0
  C  C4211  1  0.824800  0.888100  0.133200  1.0
  C  C4212  1  0.638100  0.425200  0.616800  1.0
  C  C4213  1  0.074800  0.383200  0.138100  1.0
  C  C4214  1  0.175200  0.388100  0.366800  1.0
  C  C4215  1  0.574800  0.116800  0.861900  1.0
  C  C4216  1  0.616800  0.638100  0.425200  1.0
  C  C4217  1  0.324800  0.611900  0.866800  1.0
  C  C4218  1  0.383200  0.138100  0.074800  1.0
  C  C4219  1  0.133200  0.175200  0.611900  1.0
  C  C4220  1  0.611900  0.133200  0.175200  1.0
  C  C4221  1  0.388100  0.366800  0.175200  1.0
  C  C4222  1  0.133200  0.824800  0.888100  1.0
  C  C4223  1  0.888100  0.133200  0.824800  1.0
  C  C4224  1  0.866800  0.324800  0.611900  1.0
  C  C4225  1  0.366800  0.175200  0.388100  1.0
  C  C4226  1  0.611900  0.866800  0.324800  1.0
  C  C4227  1  0.138100  0.074800  0.383200  1.0
  C  C4228  1  0.861900  0.425200  0.383200  1.0
  C  C4229  1  0.425200  0.616800  0.638100  1.0
  C  C4230  1  0.425200  0.383200  0.861900  1.0
  C  C4231  1  0.116800  0.861900  0.574800  1.0
  C  C4232  1  0.383200  0.861900  0.425200  1.0
  C  C4233  1  0.675200  0.111900  0.633200  1.0
  C  C4234  1  0.361900  0.074800  0.616800  1.0
  C  C4235  1  0.324800  0.388100  0.633200  1.0
  C  C4236  1  0.138100  0.925200  0.116800  1.0
  C  C4237  1  0.574800  0.883200  0.638100  1.0
  C  C4238  1  0.675200  0.888100  0.866800  1.0
  C  C4239  1  0.074800  0.616800  0.361900  1.0
  C  C4240  1  0.116800  0.138100  0.925200  1.0
  C  C4241  1  0.824800  0.111900  0.366800  1.0
  C  C4242  1  0.883200  0.638100  0.574800  1.0
  C  C4243  1  0.633200  0.675200  0.111900  1.0
  C  C4244  1  0.111900  0.633200  0.675200  1.0
  C  C4245  1  0.888100  0.866800  0.675200  1.0
  C  C4246  1  0.633200  0.324800  0.388100  1.0
  C  C4247  1  0.388100  0.633200  0.324800  1.0
  C  C4248  1  0.366800  0.824800  0.111900  1.0
  C  C4249  1  0.866800  0.675200  0.888100  1.0
  C  C4250  1  0.111900  0.366800  0.824800  1.0
  C  C4251  1  0.638100  0.574800  0.883200  1.0
  C  C4252  1  0.361900  0.925200  0.883200  1.0
  C  C4253  1  0.925200  0.116800  0.138100  1.0
  C  C4254  1  0.925200  0.883200  0.361900  1.0
  C  C4255  1  0.616800  0.361900  0.074800  1.0
  C  C4256  1  0.883200  0.361900  0.925200  1.0
  C  C4257  1  0.196300  0.587200  0.138300  1.0
  C  C4258  1  0.837200  0.553700  0.111700  1.0
  C  C4259  1  0.803700  0.912800  0.138300  1.0
  C  C4260  1  0.662800  0.446300  0.611700  1.0
  C  C4261  1  0.053700  0.388300  0.162800  1.0
  C  C4262  1  0.196300  0.412800  0.361700  1.0
  C  C4263  1  0.553700  0.111700  0.837200  1.0
  C  C4264  1  0.611700  0.662800  0.446300  1.0
  C  C4265  1  0.303700  0.587200  0.861700  1.0
  C  C4266  1  0.388300  0.162800  0.053700  1.0
  C  C4267  1  0.138300  0.196300  0.587200  1.0
  C  C4268  1  0.587200  0.138300  0.196300  1.0
  C  C4269  1  0.412800  0.361700  0.196300  1.0
  C  C4270  1  0.138300  0.803700  0.912800  1.0
  C  C4271  1  0.912800  0.138300  0.803700  1.0
  C  C4272  1  0.861700  0.303700  0.587200  1.0
  C  C4273  1  0.361700  0.196300  0.412800  1.0
  C  C4274  1  0.587200  0.861700  0.303700  1.0
  C  C4275  1  0.162800  0.053700  0.388300  1.0
  C  C4276  1  0.837200  0.446300  0.388300  1.0
  C  C4277  1  0.446300  0.611700  0.662800  1.0
  C  C4278  1  0.446300  0.388300  0.837200  1.0
  C  C4279  1  0.111700  0.837200  0.553700  1.0
  C  C4280  1  0.388300  0.837200  0.446300  1.0
  C  C4281  1  0.696300  0.087200  0.638300  1.0
  C  C4282  1  0.337200  0.053700  0.611700  1.0
  C  C4283  1  0.303700  0.412800  0.638300  1.0
  C  C4284  1  0.162800  0.946300  0.111700  1.0
  C  C4285  1  0.553700  0.888300  0.662800  1.0
  C  C4286  1  0.696300  0.912800  0.861700  1.0
  C  C4287  1  0.053700  0.611700  0.337200  1.0
  C  C4288  1  0.111700  0.162800  0.946300  1.0
  C  C4289  1  0.803700  0.087200  0.361700  1.0
  C  C4290  1  0.888300  0.662800  0.553700  1.0
  C  C4291  1  0.638300  0.696300  0.087200  1.0
  C  C4292  1  0.087200  0.638300  0.696300  1.0
  C  C4293  1  0.912800  0.861700  0.696300  1.0
  C  C4294  1  0.638300  0.303700  0.412800  1.0
  C  C4295  1  0.412800  0.638300  0.303700  1.0
  C  C4296  1  0.361700  0.803700  0.087200  1.0
  C  C4297  1  0.861700  0.696300  0.912800  1.0
  C  C4298  1  0.087200  0.361700  0.803700  1.0
  C  C4299  1  0.662800  0.553700  0.888300  1.0
  C  C4300  1  0.337200  0.946300  0.888300  1.0
  C  C4301  1  0.946300  0.111700  0.162800  1.0
  C  C4302  1  0.946300  0.888300  0.337200  1.0
  C  C4303  1  0.611700  0.337200  0.053700  1.0
  C  C4304  1  0.888300  0.337200  0.946300  1.0
  C  C4305  1  0.203800  0.567500  0.116000  1.0
  C  C4306  1  0.817500  0.546200  0.134000  1.0
  C  C4307  1  0.796200  0.932500  0.116000  1.0
  C  C4308  1  0.682500  0.453800  0.634000  1.0
  C  C4309  1  0.046200  0.366000  0.182500  1.0
  C  C4310  1  0.203800  0.432500  0.384000  1.0
  C  C4311  1  0.546200  0.134000  0.817500  1.0
  C  C4312  1  0.634000  0.682500  0.453800  1.0
  C  C4313  1  0.296200  0.567500  0.884000  1.0
  C  C4314  1  0.366000  0.182500  0.046200  1.0
  C  C4315  1  0.116000  0.203800  0.567500  1.0
  C  C4316  1  0.567500  0.116000  0.203800  1.0
  C  C4317  1  0.432500  0.384000  0.203800  1.0
  C  C4318  1  0.116000  0.796200  0.932500  1.0
  C  C4319  1  0.932500  0.116000  0.796200  1.0
  C  C4320  1  0.884000  0.296200  0.567500  1.0
  C  C4321  1  0.384000  0.203800  0.432500  1.0
  C  C4322  1  0.567500  0.884000  0.296200  1.0
  C  C4323  1  0.182500  0.046200  0.366000  1.0
  C  C4324  1  0.817500  0.453800  0.366000  1.0
  C  C4325  1  0.453800  0.634000  0.682500  1.0
  C  C4326  1  0.453800  0.366000  0.817500  1.0
  C  C4327  1  0.134000  0.817500  0.546200  1.0
  C  C4328  1  0.366000  0.817500  0.453800  1.0
  C  C4329  1  0.703800  0.067500  0.616000  1.0
  C  C4330  1  0.317500  0.046200  0.634000  1.0
  C  C4331  1  0.296200  0.432500  0.616000  1.0
  C  C4332  1  0.182500  0.953800  0.134000  1.0
  C  C4333  1  0.546200  0.866000  0.682500  1.0
  C  C4334  1  0.703800  0.932500  0.884000  1.0
  C  C4335  1  0.046200  0.634000  0.317500  1.0
  C  C4336  1  0.134000  0.182500  0.953800  1.0
  C  C4337  1  0.796200  0.067500  0.384000  1.0
  C  C4338  1  0.866000  0.682500  0.546200  1.0
  C  C4339  1  0.616000  0.703800  0.067500  1.0
  C  C4340  1  0.067500  0.616000  0.703800  1.0
  C  C4341  1  0.932500  0.884000  0.703800  1.0
  C  C4342  1  0.616000  0.296200  0.432500  1.0
  C  C4343  1  0.432500  0.616000  0.296200  1.0
  C  C4344  1  0.384000  0.796200  0.067500  1.0
  C  C4345  1  0.884000  0.703800  0.932500  1.0
  C  C4346  1  0.067500  0.384000  0.796200  1.0
  C  C4347  1  0.682500  0.546200  0.866000  1.0
  C  C4348  1  0.317500  0.953800  0.866000  1.0
  C  C4349  1  0.953800  0.134000  0.182500  1.0
  C  C4350  1  0.953800  0.866000  0.317500  1.0
  C  C4351  1  0.634000  0.317500  0.046200  1.0
  C  C4352  1  0.866000  0.317500  0.953800  1.0
  C  C4353  1  0.192000  0.570000  0.087300  1.0
  C  C4354  1  0.820000  0.558000  0.162700  1.0
  C  C4355  1  0.808000  0.930000  0.087300  1.0
  C  C4356  1  0.680000  0.442000  0.662700  1.0
  C  C4357  1  0.058000  0.337300  0.180000  1.0
  C  C4358  1  0.192000  0.430000  0.412700  1.0
  C  C4359  1  0.558000  0.162700  0.820000  1.0
  C  C4360  1  0.662700  0.680000  0.442000  1.0
  C  C4361  1  0.308000  0.570000  0.912700  1.0
  C  C4362  1  0.337300  0.180000  0.058000  1.0
  C  C4363  1  0.087300  0.192000  0.570000  1.0
  C  C4364  1  0.570000  0.087300  0.192000  1.0
  C  C4365  1  0.430000  0.412700  0.192000  1.0
  C  C4366  1  0.087300  0.808000  0.930000  1.0
  C  C4367  1  0.930000  0.087300  0.808000  1.0
  C  C4368  1  0.912700  0.308000  0.570000  1.0
  C  C4369  1  0.412700  0.192000  0.430000  1.0
  C  C4370  1  0.570000  0.912700  0.308000  1.0
  C  C4371  1  0.180000  0.058000  0.337300  1.0
  C  C4372  1  0.820000  0.442000  0.337300  1.0
  C  C4373  1  0.442000  0.662700  0.680000  1.0
  C  C4374  1  0.442000  0.337300  0.820000  1.0
  C  C4375  1  0.162700  0.820000  0.558000  1.0
  C  C4376  1  0.337300  0.820000  0.442000  1.0
  C  C4377  1  0.692000  0.070000  0.587300  1.0
  C  C4378  1  0.320000  0.058000  0.662700  1.0
  C  C4379  1  0.308000  0.430000  0.587300  1.0
  C  C4380  1  0.180000  0.942000  0.162700  1.0
  C  C4381  1  0.558000  0.837300  0.680000  1.0
  C  C4382  1  0.692000  0.930000  0.912700  1.0
  C  C4383  1  0.058000  0.662700  0.320000  1.0
  C  C4384  1  0.162700  0.180000  0.942000  1.0
  C  C4385  1  0.808000  0.070000  0.412700  1.0
  C  C4386  1  0.837300  0.680000  0.558000  1.0
  C  C4387  1  0.587300  0.692000  0.070000  1.0
  C  C4388  1  0.070000  0.587300  0.692000  1.0
  C  C4389  1  0.930000  0.912700  0.692000  1.0
  C  C4390  1  0.587300  0.308000  0.430000  1.0
  C  C4391  1  0.430000  0.587300  0.308000  1.0
  C  C4392  1  0.412700  0.808000  0.070000  1.0
  C  C4393  1  0.912700  0.692000  0.930000  1.0
  C  C4394  1  0.070000  0.412700  0.808000  1.0
  C  C4395  1  0.680000  0.558000  0.837300  1.0
  C  C4396  1  0.320000  0.942000  0.837300  1.0
  C  C4397  1  0.942000  0.162700  0.180000  1.0
  C  C4398  1  0.942000  0.837300  0.320000  1.0
  C  C4399  1  0.662700  0.320000  0.058000  1.0
  C  C4400  1  0.837300  0.320000  0.942000  1.0
  C  C4401  1  0.172200  0.594600  0.081100  1.0
  C  C4402  1  0.844600  0.577800  0.168900  1.0
  C  C4403  1  0.827800  0.905400  0.081100  1.0
  C  C4404  1  0.655400  0.422200  0.668900  1.0
  C  C4405  1  0.077800  0.331100  0.155400  1.0
  C  C4406  1  0.172200  0.405400  0.418900  1.0
  C  C4407  1  0.577800  0.168900  0.844600  1.0
  C  C4408  1  0.668900  0.655400  0.422200  1.0
  C  C4409  1  0.327800  0.594600  0.918900  1.0
  C  C4410  1  0.331100  0.155400  0.077800  1.0
  C  C4411  1  0.081100  0.172200  0.594600  1.0
  C  C4412  1  0.594600  0.081100  0.172200  1.0
  C  C4413  1  0.405400  0.418900  0.172200  1.0
  C  C4414  1  0.081100  0.827800  0.905400  1.0
  C  C4415  1  0.905400  0.081100  0.827800  1.0
  C  C4416  1  0.918900  0.327800  0.594600  1.0
  C  C4417  1  0.418900  0.172200  0.405400  1.0
  C  C4418  1  0.594600  0.918900  0.327800  1.0
  C  C4419  1  0.155400  0.077800  0.331100  1.0
  C  C4420  1  0.844600  0.422200  0.331100  1.0
  C  C4421  1  0.422200  0.668900  0.655400  1.0
  C  C4422  1  0.422200  0.331100  0.844600  1.0
  C  C4423  1  0.168900  0.844600  0.577800  1.0
  C  C4424  1  0.331100  0.844600  0.422200  1.0
  C  C4425  1  0.672200  0.094600  0.581100  1.0
  C  C4426  1  0.344600  0.077800  0.668900  1.0
  C  C4427  1  0.327800  0.405400  0.581100  1.0
  C  C4428  1  0.155400  0.922200  0.168900  1.0
  C  C4429  1  0.577800  0.831100  0.655400  1.0
  C  C4430  1  0.672200  0.905400  0.918900  1.0
  C  C4431  1  0.077800  0.668900  0.344600  1.0
  C  C4432  1  0.168900  0.155400  0.922200  1.0
  C  C4433  1  0.827800  0.094600  0.418900  1.0
  C  C4434  1  0.831100  0.655400  0.577800  1.0
  C  C4435  1  0.581100  0.672200  0.094600  1.0
  C  C4436  1  0.094600  0.581100  0.672200  1.0
  C  C4437  1  0.905400  0.918900  0.672200  1.0
  C  C4438  1  0.581100  0.327800  0.405400  1.0
  C  C4439  1  0.405400  0.581100  0.327800  1.0
  C  C4440  1  0.418900  0.827800  0.094600  1.0
  C  C4441  1  0.918900  0.672200  0.905400  1.0
  C  C4442  1  0.094600  0.418900  0.827800  1.0
  C  C4443  1  0.655400  0.577800  0.831100  1.0
  C  C4444  1  0.344600  0.922200  0.831100  1.0
  C  C4445  1  0.922200  0.168900  0.155400  1.0
  C  C4446  1  0.922200  0.831100  0.344600  1.0
  C  C4447  1  0.668900  0.344600  0.077800  1.0
  C  C4448  1  0.831100  0.344600  0.922200  1.0
  C  C4449  1  0.212560  0.665800  0.052200  1.0
  C  C4450  1  0.915800  0.537440  0.197800  1.0
  C  C4451  1  0.787440  0.834200  0.052200  1.0
  C  C4452  1  0.584200  0.462560  0.697800  1.0
  C  C4453  1  0.037440  0.302200  0.084200  1.0
  C  C4454  1  0.212560  0.334200  0.447800  1.0
  C  C4455  1  0.537440  0.197800  0.915800  1.0
  C  C4456  1  0.697800  0.584200  0.462560  1.0
  C  C4457  1  0.287440  0.665800  0.947800  1.0
  C  C4458  1  0.302200  0.084200  0.037440  1.0
  C  C4459  1  0.052200  0.212560  0.665800  1.0
  C  C4460  1  0.665800  0.052200  0.212560  1.0
  C  C4461  1  0.334200  0.447800  0.212560  1.0
  C  C4462  1  0.052200  0.787440  0.834200  1.0
  C  C4463  1  0.834200  0.052200  0.787440  1.0
  C  C4464  1  0.947800  0.287440  0.665800  1.0
  C  C4465  1  0.447800  0.212560  0.334200  1.0
  C  C4466  1  0.665800  0.947800  0.287440  1.0
  C  C4467  1  0.084200  0.037440  0.302200  1.0
  C  C4468  1  0.915800  0.462560  0.302200  1.0
  C  C4469  1  0.462560  0.697800  0.584200  1.0
  C  C4470  1  0.462560  0.302200  0.915800  1.0
  C  C4471  1  0.197800  0.915800  0.537440  1.0
  C  C4472  1  0.302200  0.915800  0.462560  1.0
  C  C4473  1  0.712560  0.165800  0.552200  1.0
  C  C4474  1  0.415800  0.037440  0.697800  1.0
  C  C4475  1  0.287440  0.334200  0.552200  1.0
  C  C4476  1  0.084200  0.962560  0.197800  1.0
  C  C4477  1  0.537440  0.802200  0.584200  1.0
  C  C4478  1  0.712560  0.834200  0.947800  1.0
  C  C4479  1  0.037440  0.697800  0.415800  1.0
  C  C4480  1  0.197800  0.084200  0.962560  1.0
  C  C4481  1  0.787440  0.165800  0.447800  1.0
  C  C4482  1  0.802200  0.584200  0.537440  1.0
  C  C4483  1  0.552200  0.712560  0.165800  1.0
  C  C4484  1  0.165800  0.552200  0.712560  1.0
  C  C4485  1  0.834200  0.947800  0.712560  1.0
  C  C4486  1  0.552200  0.287440  0.334200  1.0
  C  C4487  1  0.334200  0.552200  0.287440  1.0
  C  C4488  1  0.447800  0.787440  0.165800  1.0
  C  C4489  1  0.947800  0.712560  0.834200  1.0
  C  C4490  1  0.165800  0.447800  0.787440  1.0
  C  C4491  1  0.584200  0.537440  0.802200  1.0
  C  C4492  1  0.415800  0.962560  0.802200  1.0
  C  C4493  1  0.962560  0.197800  0.084200  1.0
  C  C4494  1  0.962560  0.802200  0.415800  1.0
  C  C4495  1  0.697800  0.415800  0.037440  1.0
  C  C4496  1  0.802200  0.415800  0.962560  1.0
  C  C4497  1  0.239200  0.678700  0.065300  1.0
  C  C4498  1  0.928700  0.510800  0.184700  1.0
  C  C4499  1  0.760800  0.821300  0.065300  1.0
  C  C4500  1  0.571300  0.489200  0.684700  1.0
  C  C4501  1  0.010800  0.315300  0.071300  1.0
  C  C4502  1  0.239200  0.321300  0.434700  1.0
  C  C4503  1  0.510800  0.184700  0.928700  1.0
  C  C4504  1  0.684700  0.571300  0.489200  1.0
  C  C4505  1  0.260800  0.678700  0.934700  1.0
  C  C4506  1  0.315300  0.071300  0.010800  1.0
  C  C4507  1  0.065300  0.239200  0.678700  1.0
  C  C4508  1  0.678700  0.065300  0.239200  1.0
  C  C4509  1  0.321300  0.434700  0.239200  1.0
  C  C4510  1  0.065300  0.760800  0.821300  1.0
  C  C4511  1  0.821300  0.065300  0.760800  1.0
  C  C4512  1  0.934700  0.260800  0.678700  1.0
  C  C4513  1  0.434700  0.239200  0.321300  1.0
  C  C4514  1  0.678700  0.934700  0.260800  1.0
  C  C4515  1  0.071300  0.010800  0.315300  1.0
  C  C4516  1  0.928700  0.489200  0.315300  1.0
  C  C4517  1  0.489200  0.684700  0.571300  1.0
  C  C4518  1  0.489200  0.315300  0.928700  1.0
  C  C4519  1  0.184700  0.928700  0.510800  1.0
  C  C4520  1  0.315300  0.928700  0.489200  1.0
  C  C4521  1  0.739200  0.178700  0.565300  1.0
  C  C4522  1  0.428700  0.010800  0.684700  1.0
  C  C4523  1  0.260800  0.321300  0.565300  1.0
  C  C4524  1  0.071300  0.989200  0.184700  1.0
  C  C4525  1  0.510800  0.815300  0.571300  1.0
  C  C4526  1  0.739200  0.821300  0.934700  1.0
  C  C4527  1  0.010800  0.684700  0.428700  1.0
  C  C4528  1  0.184700  0.071300  0.989200  1.0
  C  C4529  1  0.760800  0.178700  0.434700  1.0
  C  C4530  1  0.815300  0.571300  0.510800  1.0
  C  C4531  1  0.565300  0.739200  0.178700  1.0
  C  C4532  1  0.178700  0.565300  0.739200  1.0
  C  C4533  1  0.821300  0.934700  0.739200  1.0
  C  C4534  1  0.565300  0.260800  0.321300  1.0
  C  C4535  1  0.321300  0.565300  0.260800  1.0
  C  C4536  1  0.434700  0.760800  0.178700  1.0
  C  C4537  1  0.934700  0.739200  0.821300  1.0
  C  C4538  1  0.178700  0.434700  0.760800  1.0
  C  C4539  1  0.571300  0.510800  0.815300  1.0
  C  C4540  1  0.428700  0.989200  0.815300  1.0
  C  C4541  1  0.989200  0.184700  0.071300  1.0
  C  C4542  1  0.989200  0.815300  0.428700  1.0
  C  C4543  1  0.684700  0.428700  0.010800  1.0
  C  C4544  1  0.815300  0.428700  0.989200  1.0
  C  C4545  1  0.266200  0.661100  0.065900  1.0
  C  C4546  1  0.911100  0.483800  0.184100  1.0
  C  C4547  1  0.733800  0.838900  0.065900  1.0
  C  C4548  1  0.588900  0.516200  0.684100  1.0
  C  C4549  1  0.983800  0.315900  0.088900  1.0
  C  C4550  1  0.266200  0.338900  0.434100  1.0
  C  C4551  1  0.483800  0.184100  0.911100  1.0
  C  C4552  1  0.684100  0.588900  0.516200  1.0
  C  C4553  1  0.233800  0.661100  0.934100  1.0
  C  C4554  1  0.315900  0.088900  0.983800  1.0
  C  C4555  1  0.065900  0.266200  0.661100  1.0
  C  C4556  1  0.661100  0.065900  0.266200  1.0
  C  C4557  1  0.338900  0.434100  0.266200  1.0
  C  C4558  1  0.065900  0.733800  0.838900  1.0
  C  C4559  1  0.838900  0.065900  0.733800  1.0
  C  C4560  1  0.934100  0.233800  0.661100  1.0
  C  C4561  1  0.434100  0.266200  0.338900  1.0
  C  C4562  1  0.661100  0.934100  0.233800  1.0
  C  C4563  1  0.088900  0.983800  0.315900  1.0
  C  C4564  1  0.911100  0.516200  0.315900  1.0
  C  C4565  1  0.516200  0.684100  0.588900  1.0
  C  C4566  1  0.516200  0.315900  0.911100  1.0
  C  C4567  1  0.184100  0.911100  0.483800  1.0
  C  C4568  1  0.315900  0.911100  0.516200  1.0
  C  C4569  1  0.766200  0.161100  0.565900  1.0
  C  C4570  1  0.411100  0.983800  0.684100  1.0
  C  C4571  1  0.233800  0.338900  0.565900  1.0
  C  C4572  1  0.088900  0.016200  0.184100  1.0
  C  C4573  1  0.483800  0.815900  0.588900  1.0
  C  C4574  1  0.766200  0.838900  0.934100  1.0
  C  C4575  1  0.983800  0.684100  0.411100  1.0
  C  C4576  1  0.184100  0.088900  0.016200  1.0
  C  C4577  1  0.733800  0.161100  0.434100  1.0
  C  C4578  1  0.815900  0.588900  0.483800  1.0
  C  C4579  1  0.565900  0.766200  0.161100  1.0
  C  C4580  1  0.161100  0.565900  0.766200  1.0
  C  C4581  1  0.838900  0.934100  0.766200  1.0
  C  C4582  1  0.565900  0.233800  0.338900  1.0
  C  C4583  1  0.338900  0.565900  0.233800  1.0
  C  C4584  1  0.434100  0.733800  0.161100  1.0
  C  C4585  1  0.934100  0.766200  0.838900  1.0
  C  C4586  1  0.161100  0.434100  0.733800  1.0
  C  C4587  1  0.588900  0.483800  0.815900  1.0
  C  C4588  1  0.411100  0.016200  0.815900  1.0
  C  C4589  1  0.016200  0.184100  0.088900  1.0
  C  C4590  1  0.016200  0.815900  0.411100  1.0
  C  C4591  1  0.684100  0.411100  0.983800  1.0
  C  C4592  1  0.815900  0.411100  0.016200  1.0
  C  C4593  1  0.267000  0.632300  0.053400  1.0
  C  C4594  1  0.882300  0.483000  0.196600  1.0
  C  C4595  1  0.733000  0.867700  0.053400  1.0
  C  C4596  1  0.617700  0.517000  0.696600  1.0
  C  C4597  1  0.983000  0.303400  0.117700  1.0
  C  C4598  1  0.267000  0.367700  0.446600  1.0
  C  C4599  1  0.483000  0.196600  0.882300  1.0
  C  C4600  1  0.696600  0.617700  0.517000  1.0
  C  C4601  1  0.233000  0.632300  0.946600  1.0
  C  C4602  1  0.303400  0.117700  0.983000  1.0
  C  C4603  1  0.053400  0.267000  0.632300  1.0
  C  C4604  1  0.632300  0.053400  0.267000  1.0
  C  C4605  1  0.367700  0.446600  0.267000  1.0
  C  C4606  1  0.053400  0.733000  0.867700  1.0
  C  C4607  1  0.867700  0.053400  0.733000  1.0
  C  C4608  1  0.946600  0.233000  0.632300  1.0
  C  C4609  1  0.446600  0.267000  0.367700  1.0
  C  C4610  1  0.632300  0.946600  0.233000  1.0
  C  C4611  1  0.117700  0.983000  0.303400  1.0
  C  C4612  1  0.882300  0.517000  0.303400  1.0
  C  C4613  1  0.517000  0.696600  0.617700  1.0
  C  C4614  1  0.517000  0.303400  0.882300  1.0
  C  C4615  1  0.196600  0.882300  0.483000  1.0
  C  C4616  1  0.303400  0.882300  0.517000  1.0
  C  C4617  1  0.767000  0.132300  0.553400  1.0
  C  C4618  1  0.382300  0.983000  0.696600  1.0
  C  C4619  1  0.233000  0.367700  0.553400  1.0
  C  C4620  1  0.117700  0.017000  0.196600  1.0
  C  C4621  1  0.483000  0.803400  0.617700  1.0
  C  C4622  1  0.767000  0.867700  0.946600  1.0
  C  C4623  1  0.983000  0.696600  0.382300  1.0
  C  C4624  1  0.196600  0.117700  0.017000  1.0
  C  C4625  1  0.733000  0.132300  0.446600  1.0
  C  C4626  1  0.803400  0.617700  0.483000  1.0
  C  C4627  1  0.553400  0.767000  0.132300  1.0
  C  C4628  1  0.132300  0.553400  0.767000  1.0
  C  C4629  1  0.867700  0.946600  0.767000  1.0
  C  C4630  1  0.553400  0.233000  0.367700  1.0
  C  C4631  1  0.367700  0.553400  0.233000  1.0
  C  C4632  1  0.446600  0.733000  0.132300  1.0
  C  C4633  1  0.946600  0.767000  0.867700  1.0
  C  C4634  1  0.132300  0.446600  0.733000  1.0
  C  C4635  1  0.617700  0.483000  0.803400  1.0
  C  C4636  1  0.382300  0.017000  0.803400  1.0
  C  C4637  1  0.017000  0.196600  0.117700  1.0
  C  C4638  1  0.017000  0.803400  0.382300  1.0
  C  C4639  1  0.696600  0.382300  0.983000  1.0
  C  C4640  1  0.803400  0.382300  0.017000  1.0
  C  C4641  1  0.241200  0.620400  0.039200  1.0
  C  C4642  1  0.870400  0.508800  0.210800  1.0
  C  C4643  1  0.758800  0.879600  0.039200  1.0
  C  C4644  1  0.629600  0.491200  0.710800  1.0
  C  C4645  1  0.008800  0.289200  0.129600  1.0
  C  C4646  1  0.241200  0.379600  0.460800  1.0
  C  C4647  1  0.508800  0.210800  0.870400  1.0
  C  C4648  1  0.710800  0.629600  0.491200  1.0
  C  C4649  1  0.258800  0.620400  0.960800  1.0
  C  C4650  1  0.289200  0.129600  0.008800  1.0
  C  C4651  1  0.039200  0.241200  0.620400  1.0
  C  C4652  1  0.620400  0.039200  0.241200  1.0
  C  C4653  1  0.379600  0.460800  0.241200  1.0
  C  C4654  1  0.039200  0.758800  0.879600  1.0
  C  C4655  1  0.879600  0.039200  0.758800  1.0
  C  C4656  1  0.960800  0.258800  0.620400  1.0
  C  C4657  1  0.460800  0.241200  0.379600  1.0
  C  C4658  1  0.620400  0.960800  0.258800  1.0
  C  C4659  1  0.129600  0.008800  0.289200  1.0
  C  C4660  1  0.870400  0.491200  0.289200  1.0
  C  C4661  1  0.491200  0.710800  0.629600  1.0
  C  C4662  1  0.491200  0.289200  0.870400  1.0
  C  C4663  1  0.210800  0.870400  0.508800  1.0
  C  C4664  1  0.289200  0.870400  0.491200  1.0
  C  C4665  1  0.741200  0.120400  0.539200  1.0
  C  C4666  1  0.370400  0.008800  0.710800  1.0
  C  C4667  1  0.258800  0.379600  0.539200  1.0
  C  C4668  1  0.129600  0.991200  0.210800  1.0
  C  C4669  1  0.508800  0.789200  0.629600  1.0
  C  C4670  1  0.741200  0.879600  0.960800  1.0
  C  C4671  1  0.008800  0.710800  0.370400  1.0
  C  C4672  1  0.210800  0.129600  0.991200  1.0
  C  C4673  1  0.758800  0.120400  0.460800  1.0
  C  C4674  1  0.789200  0.629600  0.508800  1.0
  C  C4675  1  0.539200  0.741200  0.120400  1.0
  C  C4676  1  0.120400  0.539200  0.741200  1.0
  C  C4677  1  0.879600  0.960800  0.741200  1.0
  C  C4678  1  0.539200  0.258800  0.379600  1.0
  C  C4679  1  0.379600  0.539200  0.258800  1.0
  C  C4680  1  0.460800  0.758800  0.120400  1.0
  C  C4681  1  0.960800  0.741200  0.879600  1.0
  C  C4682  1  0.120400  0.460800  0.758800  1.0
  C  C4683  1  0.629600  0.508800  0.789200  1.0
  C  C4684  1  0.370400  0.991200  0.789200  1.0
  C  C4685  1  0.991200  0.210800  0.129600  1.0
  C  C4686  1  0.991200  0.789200  0.370400  1.0
  C  C4687  1  0.710800  0.370400  0.008800  1.0
  C  C4688  1  0.789200  0.370400  0.991200  1.0
  C  C4689  1  0.213900  0.637200  0.039600  1.0
  C  C4690  1  0.887200  0.536100  0.210400  1.0
  C  C4691  1  0.786100  0.862800  0.039600  1.0
  C  C4692  1  0.612800  0.463900  0.710400  1.0
  C  C4693  1  0.036100  0.289600  0.112800  1.0
  C  C4694  1  0.213900  0.362800  0.460400  1.0
  C  C4695  1  0.536100  0.210400  0.887200  1.0
  C  C4696  1  0.710400  0.612800  0.463900  1.0
  C  C4697  1  0.286100  0.637200  0.960400  1.0
  C  C4698  1  0.289600  0.112800  0.036100  1.0
  C  C4699  1  0.039600  0.213900  0.637200  1.0
  C  C4700  1  0.637200  0.039600  0.213900  1.0
  C  C4701  1  0.362800  0.460400  0.213900  1.0
  C  C4702  1  0.039600  0.786100  0.862800  1.0
  C  C4703  1  0.862800  0.039600  0.786100  1.0
  C  C4704  1  0.960400  0.286100  0.637200  1.0
  C  C4705  1  0.460400  0.213900  0.362800  1.0
  C  C4706  1  0.637200  0.960400  0.286100  1.0
  C  C4707  1  0.112800  0.036100  0.289600  1.0
  C  C4708  1  0.887200  0.463900  0.289600  1.0
  C  C4709  1  0.463900  0.710400  0.612800  1.0
  C  C4710  1  0.463900  0.289600  0.887200  1.0
  C  C4711  1  0.210400  0.887200  0.536100  1.0
  C  C4712  1  0.289600  0.887200  0.463900  1.0
  C  C4713  1  0.713900  0.137200  0.539600  1.0
  C  C4714  1  0.387200  0.036100  0.710400  1.0
  C  C4715  1  0.286100  0.362800  0.539600  1.0
  C  C4716  1  0.112800  0.963900  0.210400  1.0
  C  C4717  1  0.536100  0.789600  0.612800  1.0
  C  C4718  1  0.713900  0.862800  0.960400  1.0
  C  C4719  1  0.036100  0.710400  0.387200  1.0
  C  C4720  1  0.210400  0.112800  0.963900  1.0
  C  C4721  1  0.786100  0.137200  0.460400  1.0
  C  C4722  1  0.789600  0.612800  0.536100  1.0
  C  C4723  1  0.539600  0.713900  0.137200  1.0
  C  C4724  1  0.137200  0.539600  0.713900  1.0
  C  C4725  1  0.862800  0.960400  0.713900  1.0
  C  C4726  1  0.539600  0.286100  0.362800  1.0
  C  C4727  1  0.362800  0.539600  0.286100  1.0
  C  C4728  1  0.460400  0.786100  0.137200  1.0
  C  C4729  1  0.960400  0.713900  0.862800  1.0
  C  C4730  1  0.137200  0.460400  0.786100  1.0
  C  C4731  1  0.612800  0.536100  0.789600  1.0
  C  C4732  1  0.387200  0.963900  0.789600  1.0
  C  C4733  1  0.963900  0.210400  0.112800  1.0
  C  C4734  1  0.963900  0.789600  0.387200  1.0
  C  C4735  1  0.710400  0.387200  0.036100  1.0
  C  C4736  1  0.789600  0.387200  0.963900  1.0
  C  C4737  1  0.181800  0.714900  0.020500  1.0
  C  C4738  1  0.964900  0.568200  0.229500  1.0
  C  C4739  1  0.818200  0.785100  0.020500  1.0
  C  C4740  1  0.535100  0.431800  0.729500  1.0
  C  C4741  1  0.068200  0.270500  0.035100  1.0
  C  C4742  1  0.181800  0.285100  0.479500  1.0
  C  C4743  1  0.568200  0.229500  0.964900  1.0
  C  C4744  1  0.729500  0.535100  0.431800  1.0
  C  C4745  1  0.318200  0.714900  0.979500  1.0
  C  C4746  1  0.270500  0.035100  0.068200  1.0
  C  C4747  1  0.020500  0.181800  0.714900  1.0
  C  C4748  1  0.714900  0.020500  0.181800  1.0
  C  C4749  1  0.285100  0.479500  0.181800  1.0
  C  C4750  1  0.020500  0.818200  0.785100  1.0
  C  C4751  1  0.785100  0.020500  0.818200  1.0
  C  C4752  1  0.979500  0.318200  0.714900  1.0
  C  C4753  1  0.479500  0.181800  0.285100  1.0
  C  C4754  1  0.714900  0.979500  0.318200  1.0
  C  C4755  1  0.035100  0.068200  0.270500  1.0
  C  C4756  1  0.964900  0.431800  0.270500  1.0
  C  C4757  1  0.431800  0.729500  0.535100  1.0
  C  C4758  1  0.431800  0.270500  0.964900  1.0
  C  C4759  1  0.229500  0.964900  0.568200  1.0
  C  C4760  1  0.270500  0.964900  0.431800  1.0
  C  C4761  1  0.681800  0.214900  0.520500  1.0
  C  C4762  1  0.464900  0.068200  0.729500  1.0
  C  C4763  1  0.318200  0.285100  0.520500  1.0
  C  C4764  1  0.035100  0.931800  0.229500  1.0
  C  C4765  1  0.568200  0.770500  0.535100  1.0
  C  C4766  1  0.681800  0.785100  0.979500  1.0
  C  C4767  1  0.068200  0.729500  0.464900  1.0
  C  C4768  1  0.229500  0.035100  0.931800  1.0
  C  C4769  1  0.818200  0.214900  0.479500  1.0
  C  C4770  1  0.770500  0.535100  0.568200  1.0
  C  C4771  1  0.520500  0.681800  0.214900  1.0
  C  C4772  1  0.214900  0.520500  0.681800  1.0
  C  C4773  1  0.785100  0.979500  0.681800  1.0
  C  C4774  1  0.520500  0.318200  0.285100  1.0
  C  C4775  1  0.285100  0.520500  0.318200  1.0
  C  C4776  1  0.479500  0.818200  0.214900  1.0
  C  C4777  1  0.979500  0.681800  0.785100  1.0
  C  C4778  1  0.214900  0.479500  0.818200  1.0
  C  C4779  1  0.535100  0.568200  0.770500  1.0
  C  C4780  1  0.464900  0.931800  0.770500  1.0
  C  C4781  1  0.931800  0.229500  0.035100  1.0
  C  C4782  1  0.931800  0.770500  0.464900  1.0
  C  C4783  1  0.729500  0.464900  0.068200  1.0
  C  C4784  1  0.770500  0.464900  0.931800  1.0
  C  C4785  1  0.163400  0.741300  0.020800  1.0
  C  C4786  1  0.991300  0.586600  0.229200  1.0
  C  C4787  1  0.836600  0.758700  0.020800  1.0
  C  C4788  1  0.508700  0.413400  0.729200  1.0
  C  C4789  1  0.086600  0.270800  0.008700  1.0
  C  C4790  1  0.163400  0.258700  0.479200  1.0
  C  C4791  1  0.586600  0.229200  0.991300  1.0
  C  C4792  1  0.729200  0.508700  0.413400  1.0
  C  C4793  1  0.336600  0.741300  0.979200  1.0
  C  C4794  1  0.270800  0.008700  0.086600  1.0
  C  C4795  1  0.020800  0.163400  0.741300  1.0
  C  C4796  1  0.741300  0.020800  0.163400  1.0
  C  C4797  1  0.258700  0.479200  0.163400  1.0
  C  C4798  1  0.020800  0.836600  0.758700  1.0
  C  C4799  1  0.758700  0.020800  0.836600  1.0
  C  C4800  1  0.979200  0.336600  0.741300  1.0
  C  C4801  1  0.479200  0.163400  0.258700  1.0
  C  C4802  1  0.741300  0.979200  0.336600  1.0
  C  C4803  1  0.008700  0.086600  0.270800  1.0
  C  C4804  1  0.991300  0.413400  0.270800  1.0
  C  C4805  1  0.413400  0.729200  0.508700  1.0
  C  C4806  1  0.413400  0.270800  0.991300  1.0
  C  C4807  1  0.229200  0.991300  0.586600  1.0
  C  C4808  1  0.270800  0.991300  0.413400  1.0
  C  C4809  1  0.663400  0.241300  0.520800  1.0
  C  C4810  1  0.491300  0.086600  0.729200  1.0
  C  C4811  1  0.336600  0.258700  0.520800  1.0
  C  C4812  1  0.008700  0.913400  0.229200  1.0
  C  C4813  1  0.586600  0.770800  0.508700  1.0
  C  C4814  1  0.663400  0.758700  0.979200  1.0
  C  C4815  1  0.086600  0.729200  0.491300  1.0
  C  C4816  1  0.229200  0.008700  0.913400  1.0
  C  C4817  1  0.836600  0.241300  0.479200  1.0
  C  C4818  1  0.770800  0.508700  0.586600  1.0
  C  C4819  1  0.520800  0.663400  0.241300  1.0
  C  C4820  1  0.241300  0.520800  0.663400  1.0
  C  C4821  1  0.758700  0.979200  0.663400  1.0
  C  C4822  1  0.520800  0.336600  0.258700  1.0
  C  C4823  1  0.258700  0.520800  0.336600  1.0
  C  C4824  1  0.479200  0.836600  0.241300  1.0
  C  C4825  1  0.979200  0.663400  0.758700  1.0
  C  C4826  1  0.241300  0.479200  0.836600  1.0
  C  C4827  1  0.508700  0.586600  0.770800  1.0
  C  C4828  1  0.491300  0.913400  0.770800  1.0
  C  C4829  1  0.913400  0.229200  0.008700  1.0
  C  C4830  1  0.913400  0.770800  0.491300  1.0
  C  C4831  1  0.729200  0.491300  0.086600  1.0
  C  C4832  1  0.770800  0.491300  0.913400  1.0
  C  C4833  1  0.167100  0.762300  0.996100  1.0
  C  C4834  1  0.012300  0.582900  0.253900  1.0
  C  C4835  1  0.832900  0.737700  0.996100  1.0
  C  C4836  1  0.487700  0.417100  0.753900  1.0
  C  C4837  1  0.082900  0.246100  0.987700  1.0
  C  C4838  1  0.167100  0.237700  0.503900  1.0
  C  C4839  1  0.582900  0.253900  0.012300  1.0
  C  C4840  1  0.753900  0.487700  0.417100  1.0
  C  C4841  1  0.332900  0.762300  0.003900  1.0
  C  C4842  1  0.246100  0.987700  0.082900  1.0
  C  C4843  1  0.996100  0.167100  0.762300  1.0
  C  C4844  1  0.762300  0.996100  0.167100  1.0
  C  C4845  1  0.237700  0.503900  0.167100  1.0
  C  C4846  1  0.996100  0.832900  0.737700  1.0
  C  C4847  1  0.737700  0.996100  0.832900  1.0
  C  C4848  1  0.003900  0.332900  0.762300  1.0
  C  C4849  1  0.503900  0.167100  0.237700  1.0
  C  C4850  1  0.762300  0.003900  0.332900  1.0
  C  C4851  1  0.987700  0.082900  0.246100  1.0
  C  C4852  1  0.012300  0.417100  0.246100  1.0
  C  C4853  1  0.417100  0.753900  0.487700  1.0
  C  C4854  1  0.417100  0.246100  0.012300  1.0
  C  C4855  1  0.253900  0.012300  0.582900  1.0
  C  C4856  1  0.246100  0.012300  0.417100  1.0
  C  C4857  1  0.667100  0.262300  0.496100  1.0
  C  C4858  1  0.512300  0.082900  0.753900  1.0
  C  C4859  1  0.332900  0.237700  0.496100  1.0
  C  C4860  1  0.987700  0.917100  0.253900  1.0
  C  C4861  1  0.582900  0.746100  0.487700  1.0
  C  C4862  1  0.667100  0.737700  0.003900  1.0
  C  C4863  1  0.082900  0.753900  0.512300  1.0
  C  C4864  1  0.253900  0.987700  0.917100  1.0
  C  C4865  1  0.832900  0.262300  0.503900  1.0
  C  C4866  1  0.746100  0.487700  0.582900  1.0
  C  C4867  1  0.496100  0.667100  0.262300  1.0
  C  C4868  1  0.262300  0.496100  0.667100  1.0
  C  C4869  1  0.737700  0.003900  0.667100  1.0
  C  C4870  1  0.496100  0.332900  0.237700  1.0
  C  C4871  1  0.237700  0.496100  0.332900  1.0
  C  C4872  1  0.503900  0.832900  0.262300  1.0
  C  C4873  1  0.003900  0.667100  0.737700  1.0
  C  C4874  1  0.262300  0.503900  0.832900  1.0
  C  C4875  1  0.487700  0.582900  0.746100  1.0
  C  C4876  1  0.512300  0.917100  0.746100  1.0
  C  C4877  1  0.917100  0.253900  0.987700  1.0
  C  C4878  1  0.917100  0.746100  0.512300  1.0
  C  C4879  1  0.753900  0.512300  0.082900  1.0
  C  C4880  1  0.746100  0.512300  0.917100  1.0
  C  C4881  1  0.186700  0.756500  0.971700  1.0
  C  C4882  1  0.006500  0.563300  0.278300  1.0
  C  C4883  1  0.813300  0.743500  0.971700  1.0
  C  C4884  1  0.493500  0.436700  0.778300  1.0
  C  C4885  1  0.063300  0.221700  0.993500  1.0
  C  C4886  1  0.186700  0.243500  0.528300  1.0
  C  C4887  1  0.563300  0.278300  0.006500  1.0
  C  C4888  1  0.778300  0.493500  0.436700  1.0
  C  C4889  1  0.313300  0.756500  0.028300  1.0
  C  C4890  1  0.221700  0.993500  0.063300  1.0
  C  C4891  1  0.971700  0.186700  0.756500  1.0
  C  C4892  1  0.756500  0.971700  0.186700  1.0
  C  C4893  1  0.243500  0.528300  0.186700  1.0
  C  C4894  1  0.971700  0.813300  0.743500  1.0
  C  C4895  1  0.743500  0.971700  0.813300  1.0
  C  C4896  1  0.028300  0.313300  0.756500  1.0
  C  C4897  1  0.528300  0.186700  0.243500  1.0
  C  C4898  1  0.756500  0.028300  0.313300  1.0
  C  C4899  1  0.993500  0.063300  0.221700  1.0
  C  C4900  1  0.006500  0.436700  0.221700  1.0
  C  C4901  1  0.436700  0.778300  0.493500  1.0
  C  C4902  1  0.436700  0.221700  0.006500  1.0
  C  C4903  1  0.278300  0.006500  0.563300  1.0
  C  C4904  1  0.221700  0.006500  0.436700  1.0
  C  C4905  1  0.686700  0.256500  0.471700  1.0
  C  C4906  1  0.506500  0.063300  0.778300  1.0
  C  C4907  1  0.313300  0.243500  0.471700  1.0
  C  C4908  1  0.993500  0.936700  0.278300  1.0
  C  C4909  1  0.563300  0.721700  0.493500  1.0
  C  C4910  1  0.686700  0.743500  0.028300  1.0
  C  C4911  1  0.063300  0.778300  0.506500  1.0
  C  C4912  1  0.278300  0.993500  0.936700  1.0
  C  C4913  1  0.813300  0.256500  0.528300  1.0
  C  C4914  1  0.721700  0.493500  0.563300  1.0
  C  C4915  1  0.471700  0.686700  0.256500  1.0
  C  C4916  1  0.256500  0.471700  0.686700  1.0
  C  C4917  1  0.743500  0.028300  0.686700  1.0
  C  C4918  1  0.471700  0.313300  0.243500  1.0
  C  C4919  1  0.243500  0.471700  0.313300  1.0
  C  C4920  1  0.528300  0.813300  0.256500  1.0
  C  C4921  1  0.028300  0.686700  0.743500  1.0
  C  C4922  1  0.256500  0.528300  0.813300  1.0
  C  C4923  1  0.493500  0.563300  0.721700  1.0
  C  C4924  1  0.506500  0.936700  0.721700  1.0
  C  C4925  1  0.936700  0.278300  0.993500  1.0
  C  C4926  1  0.936700  0.721700  0.506500  1.0
  C  C4927  1  0.778300  0.506500  0.063300  1.0
  C  C4928  1  0.721700  0.506500  0.936700  1.0
  C  C4929  1  0.203900  0.729200  0.972100  1.0
  C  C4930  1  0.979200  0.546100  0.277900  1.0
  C  C4931  1  0.796100  0.770800  0.972100  1.0
  C  C4932  1  0.520800  0.453900  0.777900  1.0
  C  C4933  1  0.046100  0.222100  0.020800  1.0
  C  C4934  1  0.203900  0.270800  0.527900  1.0
  C  C4935  1  0.546100  0.277900  0.979200  1.0
  C  C4936  1  0.777900  0.520800  0.453900  1.0
  C  C4937  1  0.296100  0.729200  0.027900  1.0
  C  C4938  1  0.222100  0.020800  0.046100  1.0
  C  C4939  1  0.972100  0.203900  0.729200  1.0
  C  C4940  1  0.729200  0.972100  0.203900  1.0
  C  C4941  1  0.270800  0.527900  0.203900  1.0
  C  C4942  1  0.972100  0.796100  0.770800  1.0
  C  C4943  1  0.770800  0.972100  0.796100  1.0
  C  C4944  1  0.027900  0.296100  0.729200  1.0
  C  C4945  1  0.527900  0.203900  0.270800  1.0
  C  C4946  1  0.729200  0.027900  0.296100  1.0
  C  C4947  1  0.020800  0.046100  0.222100  1.0
  C  C4948  1  0.979200  0.453900  0.222100  1.0
  C  C4949  1  0.453900  0.777900  0.520800  1.0
  C  C4950  1  0.453900  0.222100  0.979200  1.0
  C  C4951  1  0.277900  0.979200  0.546100  1.0
  C  C4952  1  0.222100  0.979200  0.453900  1.0
  C  C4953  1  0.703900  0.229200  0.472100  1.0
  C  C4954  1  0.479200  0.046100  0.777900  1.0
  C  C4955  1  0.296100  0.270800  0.472100  1.0
  C  C4956  1  0.020800  0.953900  0.277900  1.0
  C  C4957  1  0.546100  0.722100  0.520800  1.0
  C  C4958  1  0.703900  0.770800  0.027900  1.0
  C  C4959  1  0.046100  0.777900  0.479200  1.0
  C  C4960  1  0.277900  0.020800  0.953900  1.0
  C  C4961  1  0.796100  0.229200  0.527900  1.0
  C  C4962  1  0.722100  0.520800  0.546100  1.0
  C  C4963  1  0.472100  0.703900  0.229200  1.0
  C  C4964  1  0.229200  0.472100  0.703900  1.0
  C  C4965  1  0.770800  0.027900  0.703900  1.0
  C  C4966  1  0.472100  0.296100  0.270800  1.0
  C  C4967  1  0.270800  0.472100  0.296100  1.0
  C  C4968  1  0.527900  0.796100  0.229200  1.0
  C  C4969  1  0.027900  0.703900  0.770800  1.0
  C  C4970  1  0.229200  0.527900  0.796100  1.0
  C  C4971  1  0.520800  0.546100  0.722100  1.0
  C  C4972  1  0.479200  0.953900  0.722100  1.0
  C  C4973  1  0.953900  0.277900  0.020800  1.0
  C  C4974  1  0.953900  0.722100  0.479200  1.0
  C  C4975  1  0.777900  0.479200  0.046100  1.0
  C  C4976  1  0.722100  0.479200  0.953900  1.0
  C  C4977  1  0.201600  0.709300  0.997400  1.0
  C  C4978  1  0.959300  0.548400  0.252600  1.0
  C  C4979  1  0.798400  0.790700  0.997400  1.0
  C  C4980  1  0.540700  0.451600  0.752600  1.0
  C  C4981  1  0.048400  0.247400  0.040700  1.0
  C  C4982  1  0.201600  0.290700  0.502600  1.0
  C  C4983  1  0.548400  0.252600  0.959300  1.0
  C  C4984  1  0.752600  0.540700  0.451600  1.0
  C  C4985  1  0.298400  0.709300  0.002600  1.0
  C  C4986  1  0.247400  0.040700  0.048400  1.0
  C  C4987  1  0.997400  0.201600  0.709300  1.0
  C  C4988  1  0.709300  0.997400  0.201600  1.0
  C  C4989  1  0.290700  0.502600  0.201600  1.0
  C  C4990  1  0.997400  0.798400  0.790700  1.0
  C  C4991  1  0.790700  0.997400  0.798400  1.0
  C  C4992  1  0.002600  0.298400  0.709300  1.0
  C  C4993  1  0.502600  0.201600  0.290700  1.0
  C  C4994  1  0.709300  0.002600  0.298400  1.0
  C  C4995  1  0.040700  0.048400  0.247400  1.0
  C  C4996  1  0.959300  0.451600  0.247400  1.0
  C  C4997  1  0.451600  0.752600  0.540700  1.0
  C  C4998  1  0.451600  0.247400  0.959300  1.0
  C  C4999  1  0.252600  0.959300  0.548400  1.0
  C  C5000  1  0.247400  0.959300  0.451600  1.0
  C  C5001  1  0.701600  0.209300  0.497400  1.0
  C  C5002  1  0.459300  0.048400  0.752600  1.0
  C  C5003  1  0.298400  0.290700  0.497400  1.0
  C  C5004  1  0.040700  0.951600  0.252600  1.0
  C  C5005  1  0.548400  0.747400  0.540700  1.0
  C  C5006  1  0.701600  0.790700  0.002600  1.0
  C  C5007  1  0.048400  0.752600  0.459300  1.0
  C  C5008  1  0.252600  0.040700  0.951600  1.0
  C  C5009  1  0.798400  0.209300  0.502600  1.0
  C  C5010  1  0.747400  0.540700  0.548400  1.0
  C  C5011  1  0.497400  0.701600  0.209300  1.0
  C  C5012  1  0.209300  0.497400  0.701600  1.0
  C  C5013  1  0.790700  0.002600  0.701600  1.0
  C  C5014  1  0.497400  0.298400  0.290700  1.0
  C  C5015  1  0.290700  0.497400  0.298400  1.0
  C  C5016  1  0.502600  0.798400  0.209300  1.0
  C  C5017  1  0.002600  0.701600  0.790700  1.0
  C  C5018  1  0.209300  0.502600  0.798400  1.0
  C  C5019  1  0.540700  0.548400  0.747400  1.0
  C  C5020  1  0.459300  0.951600  0.747400  1.0
  C  C5021  1  0.951600  0.252600  0.040700  1.0
  C  C5022  1  0.951600  0.747400  0.459300  1.0
  C  C5023  1  0.752600  0.459300  0.048400  1.0
  C  C5024  1  0.747400  0.459300  0.951600  1.0
  C  C5025  1  0.099000  0.631800  0.106800  1.0
  C  C5026  1  0.881800  0.651000  0.143200  1.0
  C  C5027  1  0.901000  0.868200  0.106800  1.0
  C  C5028  1  0.618200  0.349000  0.643200  1.0
  C  C5029  1  0.151000  0.356800  0.118200  1.0
  C  C5030  1  0.099000  0.368200  0.393200  1.0
  C  C5031  1  0.651000  0.143200  0.881800  1.0
  C  C5032  1  0.643200  0.618200  0.349000  1.0
  C  C5033  1  0.401000  0.631800  0.893200  1.0
  C  C5034  1  0.356800  0.118200  0.151000  1.0
  C  C5035  1  0.106800  0.099000  0.631800  1.0
  C  C5036  1  0.631800  0.106800  0.099000  1.0
  C  C5037  1  0.368200  0.393200  0.099000  1.0
  C  C5038  1  0.106800  0.901000  0.868200  1.0
  C  C5039  1  0.868200  0.106800  0.901000  1.0
  C  C5040  1  0.893200  0.401000  0.631800  1.0
  C  C5041  1  0.393200  0.099000  0.368200  1.0
  C  C5042  1  0.631800  0.893200  0.401000  1.0
  C  C5043  1  0.118200  0.151000  0.356800  1.0
  C  C5044  1  0.881800  0.349000  0.356800  1.0
  C  C5045  1  0.349000  0.643200  0.618200  1.0
  C  C5046  1  0.349000  0.356800  0.881800  1.0
  C  C5047  1  0.143200  0.881800  0.651000  1.0
  C  C5048  1  0.356800  0.881800  0.349000  1.0
  C  C5049  1  0.599000  0.131800  0.606800  1.0
  C  C5050  1  0.381800  0.151000  0.643200  1.0
  C  C5051  1  0.401000  0.368200  0.606800  1.0
  C  C5052  1  0.118200  0.849000  0.143200  1.0
  C  C5053  1  0.651000  0.856800  0.618200  1.0
  C  C5054  1  0.599000  0.868200  0.893200  1.0
  C  C5055  1  0.151000  0.643200  0.381800  1.0
  C  C5056  1  0.143200  0.118200  0.849000  1.0
  C  C5057  1  0.901000  0.131800  0.393200  1.0
  C  C5058  1  0.856800  0.618200  0.651000  1.0
  C  C5059  1  0.606800  0.599000  0.131800  1.0
  C  C5060  1  0.131800  0.606800  0.599000  1.0
  C  C5061  1  0.868200  0.893200  0.599000  1.0
  C  C5062  1  0.606800  0.401000  0.368200  1.0
  C  C5063  1  0.368200  0.606800  0.401000  1.0
  C  C5064  1  0.393200  0.901000  0.131800  1.0
  C  C5065  1  0.893200  0.599000  0.868200  1.0
  C  C5066  1  0.131800  0.393200  0.901000  1.0
  C  C5067  1  0.618200  0.651000  0.856800  1.0
  C  C5068  1  0.381800  0.849000  0.856800  1.0
  C  C5069  1  0.849000  0.143200  0.118200  1.0
  C  C5070  1  0.849000  0.856800  0.381800  1.0
  C  C5071  1  0.643200  0.381800  0.151000  1.0
  C  C5072  1  0.856800  0.381800  0.849000  1.0
  C  C5073  1  0.092700  0.599700  0.104400  1.0
  C  C5074  1  0.849700  0.657300  0.145600  1.0
  C  C5075  1  0.907300  0.900300  0.104400  1.0
  C  C5076  1  0.650300  0.342700  0.645600  1.0
  C  C5077  1  0.157300  0.354400  0.150300  1.0
  C  C5078  1  0.092700  0.400300  0.395600  1.0
  C  C5079  1  0.657300  0.145600  0.849700  1.0
  C  C5080  1  0.645600  0.650300  0.342700  1.0
  C  C5081  1  0.407300  0.599700  0.895600  1.0
  C  C5082  1  0.354400  0.150300  0.157300  1.0
  C  C5083  1  0.104400  0.092700  0.599700  1.0
  C  C5084  1  0.599700  0.104400  0.092700  1.0
  C  C5085  1  0.400300  0.395600  0.092700  1.0
  C  C5086  1  0.104400  0.907300  0.900300  1.0
  C  C5087  1  0.900300  0.104400  0.907300  1.0
  C  C5088  1  0.895600  0.407300  0.599700  1.0
  C  C5089  1  0.395600  0.092700  0.400300  1.0
  C  C5090  1  0.599700  0.895600  0.407300  1.0
  C  C5091  1  0.150300  0.157300  0.354400  1.0
  C  C5092  1  0.849700  0.342700  0.354400  1.0
  C  C5093  1  0.342700  0.645600  0.650300  1.0
  C  C5094  1  0.342700  0.354400  0.849700  1.0
  C  C5095  1  0.145600  0.849700  0.657300  1.0
  C  C5096  1  0.354400  0.849700  0.342700  1.0
  C  C5097  1  0.592700  0.099700  0.604400  1.0
  C  C5098  1  0.349700  0.157300  0.645600  1.0
  C  C5099  1  0.407300  0.400300  0.604400  1.0
  C  C5100  1  0.150300  0.842700  0.145600  1.0
  C  C5101  1  0.657300  0.854400  0.650300  1.0
  C  C5102  1  0.592700  0.900300  0.895600  1.0
  C  C5103  1  0.157300  0.645600  0.349700  1.0
  C  C5104  1  0.145600  0.150300  0.842700  1.0
  C  C5105  1  0.907300  0.099700  0.395600  1.0
  C  C5106  1  0.854400  0.650300  0.657300  1.0
  C  C5107  1  0.604400  0.592700  0.099700  1.0
  C  C5108  1  0.099700  0.604400  0.592700  1.0
  C  C5109  1  0.900300  0.895600  0.592700  1.0
  C  C5110  1  0.604400  0.407300  0.400300  1.0
  C  C5111  1  0.400300  0.604400  0.407300  1.0
  C  C5112  1  0.395600  0.907300  0.099700  1.0
  C  C5113  1  0.895600  0.592700  0.900300  1.0
  C  C5114  1  0.099700  0.395600  0.907300  1.0
  C  C5115  1  0.650300  0.657300  0.854400  1.0
  C  C5116  1  0.349700  0.842700  0.854400  1.0
  C  C5117  1  0.842700  0.145600  0.150300  1.0
  C  C5118  1  0.842700  0.854400  0.349700  1.0
  C  C5119  1  0.645600  0.349700  0.157300  1.0
  C  C5120  1  0.854400  0.349700  0.842700  1.0
  C  C5121  1  0.063600  0.588900  0.111100  1.0
  C  C5122  1  0.838900  0.686400  0.138900  1.0
  C  C5123  1  0.936400  0.911100  0.111100  1.0
  C  C5124  1  0.661100  0.313600  0.638900  1.0
  C  C5125  1  0.186400  0.361100  0.161100  1.0
  C  C5126  1  0.063600  0.411100  0.388900  1.0
  C  C5127  1  0.686400  0.138900  0.838900  1.0
  C  C5128  1  0.638900  0.661100  0.313600  1.0
  C  C5129  1  0.436400  0.588900  0.888900  1.0
  C  C5130  1  0.361100  0.161100  0.186400  1.0
  C  C5131  1  0.111100  0.063600  0.588900  1.0
  C  C5132  1  0.588900  0.111100  0.063600  1.0
  C  C5133  1  0.411100  0.388900  0.063600  1.0
  C  C5134  1  0.111100  0.936400  0.911100  1.0
  C  C5135  1  0.911100  0.111100  0.936400  1.0
  C  C5136  1  0.888900  0.436400  0.588900  1.0
  C  C5137  1  0.388900  0.063600  0.411100  1.0
  C  C5138  1  0.588900  0.888900  0.436400  1.0
  C  C5139  1  0.161100  0.186400  0.361100  1.0
  C  C5140  1  0.838900  0.313600  0.361100  1.0
  C  C5141  1  0.313600  0.638900  0.661100  1.0
  C  C5142  1  0.313600  0.361100  0.838900  1.0
  C  C5143  1  0.138900  0.838900  0.686400  1.0
  C  C5144  1  0.361100  0.838900  0.313600  1.0
  C  C5145  1  0.563600  0.088900  0.611100  1.0
  C  C5146  1  0.338900  0.186400  0.638900  1.0
  C  C5147  1  0.436400  0.411100  0.611100  1.0
  C  C5148  1  0.161100  0.813600  0.138900  1.0
  C  C5149  1  0.686400  0.861100  0.661100  1.0
  C  C5150  1  0.563600  0.911100  0.888900  1.0
  C  C5151  1  0.186400  0.638900  0.338900  1.0
  C  C5152  1  0.138900  0.161100  0.813600  1.0
  C  C5153  1  0.936400  0.088900  0.388900  1.0
  C  C5154  1  0.861100  0.661100  0.686400  1.0
  C  C5155  1  0.611100  0.563600  0.088900  1.0
  C  C5156  1  0.088900  0.611100  0.563600  1.0
  C  C5157  1  0.911100  0.888900  0.563600  1.0
  C  C5158  1  0.611100  0.436400  0.411100  1.0
  C  C5159  1  0.411100  0.611100  0.436400  1.0
  C  C5160  1  0.388900  0.936400  0.088900  1.0
  C  C5161  1  0.888900  0.563600  0.911100  1.0
  C  C5162  1  0.088900  0.388900  0.936400  1.0
  C  C5163  1  0.661100  0.686400  0.861100  1.0
  C  C5164  1  0.338900  0.813600  0.861100  1.0
  C  C5165  1  0.813600  0.138900  0.161100  1.0
  C  C5166  1  0.813600  0.861100  0.338900  1.0
  C  C5167  1  0.638900  0.338900  0.186400  1.0
  C  C5168  1  0.861100  0.338900  0.813600  1.0
  C  C5169  1  0.041000  0.610400  0.120200  1.0
  C  C5170  1  0.860400  0.709000  0.129800  1.0
  C  C5171  1  0.959000  0.889600  0.120200  1.0
  C  C5172  1  0.639600  0.291000  0.629800  1.0
  C  C5173  1  0.209000  0.370200  0.139600  1.0
  C  C5174  1  0.041000  0.389600  0.379800  1.0
  C  C5175  1  0.709000  0.129800  0.860400  1.0
  C  C5176  1  0.629800  0.639600  0.291000  1.0
  C  C5177  1  0.459000  0.610400  0.879800  1.0
  C  C5178  1  0.370200  0.139600  0.209000  1.0
  C  C5179  1  0.120200  0.041000  0.610400  1.0
  C  C5180  1  0.610400  0.120200  0.041000  1.0
  C  C5181  1  0.389600  0.379800  0.041000  1.0
  C  C5182  1  0.120200  0.959000  0.889600  1.0
  C  C5183  1  0.889600  0.120200  0.959000  1.0
  C  C5184  1  0.879800  0.459000  0.610400  1.0
  C  C5185  1  0.379800  0.041000  0.389600  1.0
  C  C5186  1  0.610400  0.879800  0.459000  1.0
  C  C5187  1  0.139600  0.209000  0.370200  1.0
  C  C5188  1  0.860400  0.291000  0.370200  1.0
  C  C5189  1  0.291000  0.629800  0.639600  1.0
  C  C5190  1  0.291000  0.370200  0.860400  1.0
  C  C5191  1  0.129800  0.860400  0.709000  1.0
  C  C5192  1  0.370200  0.860400  0.291000  1.0
  C  C5193  1  0.541000  0.110400  0.620200  1.0
  C  C5194  1  0.360400  0.209000  0.629800  1.0
  C  C5195  1  0.459000  0.389600  0.620200  1.0
  C  C5196  1  0.139600  0.791000  0.129800  1.0
  C  C5197  1  0.709000  0.870200  0.639600  1.0
  C  C5198  1  0.541000  0.889600  0.879800  1.0
  C  C5199  1  0.209000  0.629800  0.360400  1.0
  C  C5200  1  0.129800  0.139600  0.791000  1.0
  C  C5201  1  0.959000  0.110400  0.379800  1.0
  C  C5202  1  0.870200  0.639600  0.709000  1.0
  C  C5203  1  0.620200  0.541000  0.110400  1.0
  C  C5204  1  0.110400  0.620200  0.541000  1.0
  C  C5205  1  0.889600  0.879800  0.541000  1.0
  C  C5206  1  0.620200  0.459000  0.389600  1.0
  C  C5207  1  0.389600  0.620200  0.459000  1.0
  C  C5208  1  0.379800  0.959000  0.110400  1.0
  C  C5209  1  0.879800  0.541000  0.889600  1.0
  C  C5210  1  0.110400  0.379800  0.959000  1.0
  C  C5211  1  0.639600  0.709000  0.870200  1.0
  C  C5212  1  0.360400  0.791000  0.870200  1.0
  C  C5213  1  0.791000  0.129800  0.139600  1.0
  C  C5214  1  0.791000  0.870200  0.360400  1.0
  C  C5215  1  0.629800  0.360400  0.209000  1.0
  C  C5216  1  0.870200  0.360400  0.791000  1.0
  C  C5217  1  0.047000  0.640700  0.121700  1.0
  C  C5218  1  0.890700  0.703000  0.128300  1.0
  C  C5219  1  0.953000  0.859300  0.121700  1.0
  C  C5220  1  0.609300  0.297000  0.628300  1.0
  C  C5221  1  0.203000  0.371700  0.109300  1.0
  C  C5222  1  0.047000  0.359300  0.378300  1.0
  C  C5223  1  0.703000  0.128300  0.890700  1.0
  C  C5224  1  0.628300  0.609300  0.297000  1.0
  C  C5225  1  0.453000  0.640700  0.878300  1.0
  C  C5226  1  0.371700  0.109300  0.203000  1.0
  C  C5227  1  0.121700  0.047000  0.640700  1.0
  C  C5228  1  0.640700  0.121700  0.047000  1.0
  C  C5229  1  0.359300  0.378300  0.047000  1.0
  C  C5230  1  0.121700  0.953000  0.859300  1.0
  C  C5231  1  0.859300  0.121700  0.953000  1.0
  C  C5232  1  0.878300  0.453000  0.640700  1.0
  C  C5233  1  0.378300  0.047000  0.359300  1.0
  C  C5234  1  0.640700  0.878300  0.453000  1.0
  C  C5235  1  0.109300  0.203000  0.371700  1.0
  C  C5236  1  0.890700  0.297000  0.371700  1.0
  C  C5237  1  0.297000  0.628300  0.609300  1.0
  C  C5238  1  0.297000  0.371700  0.890700  1.0
  C  C5239  1  0.128300  0.890700  0.703000  1.0
  C  C5240  1  0.371700  0.890700  0.297000  1.0
  C  C5241  1  0.547000  0.140700  0.621700  1.0
  C  C5242  1  0.390700  0.203000  0.628300  1.0
  C  C5243  1  0.453000  0.359300  0.621700  1.0
  C  C5244  1  0.109300  0.797000  0.128300  1.0
  C  C5245  1  0.703000  0.871700  0.609300  1.0
  C  C5246  1  0.547000  0.859300  0.878300  1.0
  C  C5247  1  0.203000  0.628300  0.390700  1.0
  C  C5248  1  0.128300  0.109300  0.797000  1.0
  C  C5249  1  0.953000  0.140700  0.378300  1.0
  C  C5250  1  0.871700  0.609300  0.703000  1.0
  C  C5251  1  0.621700  0.547000  0.140700  1.0
  C  C5252  1  0.140700  0.621700  0.547000  1.0
  C  C5253  1  0.859300  0.878300  0.547000  1.0
  C  C5254  1  0.621700  0.453000  0.359300  1.0
  C  C5255  1  0.359300  0.621700  0.453000  1.0
  C  C5256  1  0.378300  0.953000  0.140700  1.0
  C  C5257  1  0.878300  0.547000  0.859300  1.0
  C  C5258  1  0.140700  0.378300  0.953000  1.0
  C  C5259  1  0.609300  0.703000  0.871700  1.0
  C  C5260  1  0.390700  0.797000  0.871700  1.0
  C  C5261  1  0.797000  0.128300  0.109300  1.0
  C  C5262  1  0.797000  0.871700  0.390700  1.0
  C  C5263  1  0.628300  0.390700  0.203000  1.0
  C  C5264  1  0.871700  0.390700  0.797000  1.0
  C  C5265  1  0.076100  0.652200  0.114600  1.0
  C  C5266  1  0.902200  0.673900  0.135400  1.0
  C  C5267  1  0.923900  0.847800  0.114600  1.0
  C  C5268  1  0.597800  0.326100  0.635400  1.0
  C  C5269  1  0.173900  0.364600  0.097800  1.0
  C  C5270  1  0.076100  0.347800  0.385400  1.0
  C  C5271  1  0.673900  0.135400  0.902200  1.0
  C  C5272  1  0.635400  0.597800  0.326100  1.0
  C  C5273  1  0.423900  0.652200  0.885400  1.0
  C  C5274  1  0.364600  0.097800  0.173900  1.0
  C  C5275  1  0.114600  0.076100  0.652200  1.0
  C  C5276  1  0.652200  0.114600  0.076100  1.0
  C  C5277  1  0.347800  0.385400  0.076100  1.0
  C  C5278  1  0.114600  0.923900  0.847800  1.0
  C  C5279  1  0.847800  0.114600  0.923900  1.0
  C  C5280  1  0.885400  0.423900  0.652200  1.0
  C  C5281  1  0.385400  0.076100  0.347800  1.0
  C  C5282  1  0.652200  0.885400  0.423900  1.0
  C  C5283  1  0.097800  0.173900  0.364600  1.0
  C  C5284  1  0.902200  0.326100  0.364600  1.0
  C  C5285  1  0.326100  0.635400  0.597800  1.0
  C  C5286  1  0.326100  0.364600  0.902200  1.0
  C  C5287  1  0.135400  0.902200  0.673900  1.0
  C  C5288  1  0.364600  0.902200  0.326100  1.0
  C  C5289  1  0.576100  0.152200  0.614600  1.0
  C  C5290  1  0.402200  0.173900  0.635400  1.0
  C  C5291  1  0.423900  0.347800  0.614600  1.0
  C  C5292  1  0.097800  0.826100  0.135400  1.0
  C  C5293  1  0.673900  0.864600  0.597800  1.0
  C  C5294  1  0.576100  0.847800  0.885400  1.0
  C  C5295  1  0.173900  0.635400  0.402200  1.0
  C  C5296  1  0.135400  0.097800  0.826100  1.0
  C  C5297  1  0.923900  0.152200  0.385400  1.0
  C  C5298  1  0.864600  0.597800  0.673900  1.0
  C  C5299  1  0.614600  0.576100  0.152200  1.0
  C  C5300  1  0.152200  0.614600  0.576100  1.0
  C  C5301  1  0.847800  0.885400  0.576100  1.0
  C  C5302  1  0.614600  0.423900  0.347800  1.0
  C  C5303  1  0.347800  0.614600  0.423900  1.0
  C  C5304  1  0.385400  0.923900  0.152200  1.0
  C  C5305  1  0.885400  0.576100  0.847800  1.0
  C  C5306  1  0.152200  0.385400  0.923900  1.0
  C  C5307  1  0.597800  0.673900  0.864600  1.0
  C  C5308  1  0.402200  0.826100  0.864600  1.0
  C  C5309  1  0.826100  0.135400  0.097800  1.0
  C  C5310  1  0.826100  0.864600  0.402200  1.0
  C  C5311  1  0.635400  0.402200  0.173900  1.0
  C  C5312  1  0.864600  0.402200  0.826100  1.0
  S  S5313  1  0.084180  0.736420  0.062610  1
  S  S5314  1  0.986420  0.665820  0.187390  1
  S  S5315  1  0.915820  0.763580  0.062610  1
  S  S5316  1  0.513580  0.334180  0.687390  1
  S  S5317  1  0.165820  0.312610  0.013580  1
  S  S5318  1  0.084180  0.263580  0.437390  1
  S  S5319  1  0.665820  0.187390  0.986420  1
  S  S5320  1  0.687390  0.513580  0.334180  1
  S  S5321  1  0.415820  0.736420  0.937390  1
  S  S5322  1  0.312610  0.013580  0.165820  1
  S  S5323  1  0.062610  0.084180  0.736420  1
  S  S5324  1  0.736420  0.062610  0.084180  1
  S  S5325  1  0.263580  0.437390  0.084180  1
  S  S5326  1  0.062610  0.915820  0.763580  1
  S  S5327  1  0.763580  0.062610  0.915820  1
  S  S5328  1  0.937390  0.415820  0.736420  1
  S  S5329  1  0.437390  0.084180  0.263580  1
  S  S5330  1  0.736420  0.937390  0.415820  1
  S  S5331  1  0.013580  0.165820  0.312610  1
  S  S5332  1  0.986420  0.334180  0.312610  1
  S  S5333  1  0.334180  0.687390  0.513580  1
  S  S5334  1  0.334180  0.312610  0.986420  1
  S  S5335  1  0.187390  0.986420  0.665820  1
  S  S5336  1  0.312610  0.986420  0.334180  1
  S  S5337  1  0.584180  0.236420  0.562610  1
  S  S5338  1  0.486420  0.165820  0.687390  1
  S  S5339  1  0.415820  0.263580  0.562610  1
  S  S5340  1  0.013580  0.834180  0.187390  1
  S  S5341  1  0.665820  0.812610  0.513580  1
  S  S5342  1  0.584180  0.763580  0.937390  1
  S  S5343  1  0.165820  0.687390  0.486420  1
  S  S5344  1  0.187390  0.013580  0.834180  1
  S  S5345  1  0.915820  0.236420  0.437390  1
  S  S5346  1  0.812610  0.513580  0.665820  1
  S  S5347  1  0.562610  0.584180  0.236420  1
  S  S5348  1  0.236420  0.562610  0.584180  1
  S  S5349  1  0.763580  0.937390  0.584180  1
  S  S5350  1  0.562610  0.415820  0.263580  1
  S  S5351  1  0.263580  0.562610  0.415820  1
  S  S5352  1  0.437390  0.915820  0.236420  1
  S  S5353  1  0.937390  0.584180  0.763580  1
  S  S5354  1  0.236420  0.437390  0.915820  1
  S  S5355  1  0.513580  0.665820  0.812610  1
  S  S5356  1  0.486420  0.834180  0.812610  1
  S  S5357  1  0.834180  0.187390  0.013580  1
  S  S5358  1  0.834180  0.812610  0.486420  1
  S  S5359  1  0.687390  0.486420  0.165820  1
  S  S5360  1  0.812610  0.486420  0.834180  1
  S  S5361  1  0.169980  0.560100  0.976470  1
  S  S5362  1  0.810100  0.580020  0.273530  1
  S  S5363  1  0.830020  0.939900  0.976470  1
  S  S5364  1  0.689900  0.419980  0.773530  1
  S  S5365  1  0.080020  0.226470  0.189900  1
  S  S5366  1  0.169980  0.439900  0.523530  1
  S  S5367  1  0.580020  0.273530  0.810100  1
  S  S5368  1  0.773530  0.689900  0.419980  1
  S  S5369  1  0.330020  0.560100  0.023530  1
  S  S5370  1  0.226470  0.189900  0.080020  1
  S  S5371  1  0.976470  0.169980  0.560100  1
  S  S5372  1  0.560100  0.976470  0.169980  1
  S  S5373  1  0.439900  0.523530  0.169980  1
  S  S5374  1  0.976470  0.830020  0.939900  1
  S  S5375  1  0.939900  0.976470  0.830020  1
  S  S5376  1  0.023530  0.330020  0.560100  1
  S  S5377  1  0.523530  0.169980  0.439900  1
  S  S5378  1  0.560100  0.023530  0.330020  1
  S  S5379  1  0.189900  0.080020  0.226470  1
  S  S5380  1  0.810100  0.419980  0.226470  1
  S  S5381  1  0.419980  0.773530  0.689900  1
  S  S5382  1  0.419980  0.226470  0.810100  1
  S  S5383  1  0.273530  0.810100  0.580020  1
  S  S5384  1  0.226470  0.810100  0.419980  1
  S  S5385  1  0.669980  0.060100  0.476470  1
  S  S5386  1  0.310100  0.080020  0.773530  1
  S  S5387  1  0.330020  0.439900  0.476470  1
  S  S5388  1  0.189900  0.919980  0.273530  1
  S  S5389  1  0.580020  0.726470  0.689900  1
  S  S5390  1  0.669980  0.939900  0.023530  1
  S  S5391  1  0.080020  0.773530  0.310100  1
  S  S5392  1  0.273530  0.189900  0.919980  1
  S  S5393  1  0.830020  0.060100  0.523530  1
  S  S5394  1  0.726470  0.689900  0.580020  1
  S  S5395  1  0.476470  0.669980  0.060100  1
  S  S5396  1  0.060100  0.476470  0.669980  1
  S  S5397  1  0.939900  0.023530  0.669980  1
  S  S5398  1  0.476470  0.330020  0.439900  1
  S  S5399  1  0.439900  0.476470  0.330020  1
  S  S5400  1  0.523530  0.830020  0.060100  1
  S  S5401  1  0.023530  0.669980  0.939900  1
  S  S5402  1  0.060100  0.523530  0.830020  1
  S  S5403  1  0.689900  0.580020  0.726470  1
  S  S5404  1  0.310100  0.919980  0.726470  1
  S  S5405  1  0.919980  0.273530  0.189900  1
  S  S5406  1  0.919980  0.726470  0.310100  1
  S  S5407  1  0.773530  0.310100  0.080020  1
  S  S5408  1  0.726470  0.310100  0.919980  1
  S  S5409  1  0.083620  0.726640  0.074070  1
  S  S5410  1  0.976640  0.666380  0.175930  1
  S  S5411  1  0.916380  0.773360  0.074070  1
  S  S5412  1  0.523360  0.333620  0.675930  1
  S  S5413  1  0.166380  0.324070  0.023360  1
  S  S5414  1  0.083620  0.273360  0.425930  1
  S  S5415  1  0.666380  0.175930  0.976640  1
  S  S5416  1  0.675930  0.523360  0.333620  1
  S  S5417  1  0.416380  0.726640  0.925930  1
  S  S5418  1  0.324070  0.023360  0.166380  1
  S  S5419  1  0.074070  0.083620  0.726640  1
  S  S5420  1  0.726640  0.074070  0.083620  1
  S  S5421  1  0.273360  0.425930  0.083620  1
  S  S5422  1  0.074070  0.916380  0.773360  1
  S  S5423  1  0.773360  0.074070  0.916380  1
  S  S5424  1  0.925930  0.416380  0.726640  1
  S  S5425  1  0.425930  0.083620  0.273360  1
  S  S5426  1  0.726640  0.925930  0.416380  1
  S  S5427  1  0.023360  0.166380  0.324070  1
  S  S5428  1  0.976640  0.333620  0.324070  1
  S  S5429  1  0.333620  0.675930  0.523360  1
  S  S5430  1  0.333620  0.324070  0.976640  1
  S  S5431  1  0.175930  0.976640  0.666380  1
  S  S5432  1  0.324070  0.976640  0.333620  1
  S  S5433  1  0.583620  0.226640  0.574070  1
  S  S5434  1  0.476640  0.166380  0.675930  1
  S  S5435  1  0.416380  0.273360  0.574070  1
  S  S5436  1  0.023360  0.833620  0.175930  1
  S  S5437  1  0.666380  0.824070  0.523360  1
  S  S5438  1  0.583620  0.773360  0.925930  1
  S  S5439  1  0.166380  0.675930  0.476640  1
  S  S5440  1  0.175930  0.023360  0.833620  1
  S  S5441  1  0.916380  0.226640  0.425930  1
  S  S5442  1  0.824070  0.523360  0.666380  1
  S  S5443  1  0.574070  0.583620  0.226640  1
  S  S5444  1  0.226640  0.574070  0.583620  1
  S  S5445  1  0.773360  0.925930  0.583620  1
  S  S5446  1  0.574070  0.416380  0.273360  1
  S  S5447  1  0.273360  0.574070  0.416380  1
  S  S5448  1  0.425930  0.916380  0.226640  1
  S  S5449  1  0.925930  0.583620  0.773360  1
  S  S5450  1  0.226640  0.425930  0.916380  1
  S  S5451  1  0.523360  0.666380  0.824070  1
  S  S5452  1  0.476640  0.833620  0.824070  1
  S  S5453  1  0.833620  0.175930  0.023360  1
  S  S5454  1  0.833620  0.824070  0.476640  1
  S  S5455  1  0.675930  0.476640  0.166380  1
  S  S5456  1  0.824070  0.476640  0.833620  1
  S  S5457  1  0.185300  0.558000  0.991300  1
  S  S5458  1  0.808000  0.564700  0.258700  1
  S  S5459  1  0.814700  0.942000  0.991300  1
  S  S5460  1  0.692000  0.435300  0.758700  1
  S  S5461  1  0.064700  0.241300  0.192000  1
  S  S5462  1  0.185300  0.442000  0.508700  1
  S  S5463  1  0.564700  0.258700  0.808000  1
  S  S5464  1  0.758700  0.692000  0.435300  1
  S  S5465  1  0.314700  0.558000  0.008700  1
  S  S5466  1  0.241300  0.192000  0.064700  1
  S  S5467  1  0.991300  0.185300  0.558000  1
  S  S5468  1  0.558000  0.991300  0.185300  1
  S  S5469  1  0.442000  0.508700  0.185300  1
  S  S5470  1  0.991300  0.814700  0.942000  1
  S  S5471  1  0.942000  0.991300  0.814700  1
  S  S5472  1  0.008700  0.314700  0.558000  1
  S  S5473  1  0.508700  0.185300  0.442000  1
  S  S5474  1  0.558000  0.008700  0.314700  1
  S  S5475  1  0.192000  0.064700  0.241300  1
  S  S5476  1  0.808000  0.435300  0.241300  1
  S  S5477  1  0.435300  0.758700  0.692000  1
  S  S5478  1  0.435300  0.241300  0.808000  1
  S  S5479  1  0.258700  0.808000  0.564700  1
  S  S5480  1  0.241300  0.808000  0.435300  1
  S  S5481  1  0.685300  0.058000  0.491300  1
  S  S5482  1  0.308000  0.064700  0.758700  1
  S  S5483  1  0.314700  0.442000  0.491300  1
  S  S5484  1  0.192000  0.935300  0.258700  1
  S  S5485  1  0.564700  0.741300  0.692000  1
  S  S5486  1  0.685300  0.942000  0.008700  1
  S  S5487  1  0.064700  0.758700  0.308000  1
  S  S5488  1  0.258700  0.192000  0.935300  1
  S  S5489  1  0.814700  0.058000  0.508700  1
  S  S5490  1  0.741300  0.692000  0.564700  1
  S  S5491  1  0.491300  0.685300  0.058000  1
  S  S5492  1  0.058000  0.491300  0.685300  1
  S  S5493  1  0.942000  0.008700  0.685300  1
  S  S5494  1  0.491300  0.314700  0.442000  1
  S  S5495  1  0.442000  0.491300  0.314700  1
  S  S5496  1  0.508700  0.814700  0.058000  1
  S  S5497  1  0.008700  0.685300  0.942000  1
  S  S5498  1  0.058000  0.508700  0.814700  1
  S  S5499  1  0.692000  0.564700  0.741300  1
  S  S5500  1  0.308000  0.935300  0.741300  1
  S  S5501  1  0.935300  0.258700  0.192000  1
  S  S5502  1  0.935300  0.741300  0.308000  1
  S  S5503  1  0.758700  0.308000  0.064700  1
  S  S5504  1  0.741300  0.308000  0.935300  1
  S  S5505  1  0.184600  0.565600  0.977600  1
  S  S5506  1  0.815600  0.565400  0.272400  1
  S  S5507  1  0.815400  0.934400  0.977600  1
  S  S5508  1  0.684400  0.434600  0.772400  1
  S  S5509  1  0.065400  0.227600  0.184400  1
  S  S5510  1  0.184600  0.434400  0.522400  1
  S  S5511  1  0.565400  0.272400  0.815600  1
  S  S5512  1  0.772400  0.684400  0.434600  1
  S  S5513  1  0.315400  0.565600  0.022400  1
  S  S5514  1  0.227600  0.184400  0.065400  1
  S  S5515  1  0.977600  0.184600  0.565600  1
  S  S5516  1  0.565600  0.977600  0.184600  1
  S  S5517  1  0.434400  0.522400  0.184600  1
  S  S5518  1  0.977600  0.815400  0.934400  1
  S  S5519  1  0.934400  0.977600  0.815400  1
  S  S5520  1  0.022400  0.315400  0.565600  1
  S  S5521  1  0.522400  0.184600  0.434400  1
  S  S5522  1  0.565600  0.022400  0.315400  1
  S  S5523  1  0.184400  0.065400  0.227600  1
  S  S5524  1  0.815600  0.434600  0.227600  1
  S  S5525  1  0.434600  0.772400  0.684400  1
  S  S5526  1  0.434600  0.227600  0.815600  1
  S  S5527  1  0.272400  0.815600  0.565400  1
  S  S5528  1  0.227600  0.815600  0.434600  1
  S  S5529  1  0.684600  0.065600  0.477600  1
  S  S5530  1  0.315600  0.065400  0.772400  1
  S  S5531  1  0.315400  0.434400  0.477600  1
  S  S5532  1  0.184400  0.934600  0.272400  1
  S  S5533  1  0.565400  0.727600  0.684400  1
  S  S5534  1  0.684600  0.934400  0.022400  1
  S  S5535  1  0.065400  0.772400  0.315600  1
  S  S5536  1  0.272400  0.184400  0.934600  1
  S  S5537  1  0.815400  0.065600  0.522400  1
  S  S5538  1  0.727600  0.684400  0.565400  1
  S  S5539  1  0.477600  0.684600  0.065600  1
  S  S5540  1  0.065600  0.477600  0.684600  1
  S  S5541  1  0.934400  0.022400  0.684600  1
  S  S5542  1  0.477600  0.315400  0.434400  1
  S  S5543  1  0.434400  0.477600  0.315400  1
  S  S5544  1  0.522400  0.815400  0.065600  1
  S  S5545  1  0.022400  0.684600  0.934400  1
  S  S5546  1  0.065600  0.522400  0.815400  1
  S  S5547  1  0.684400  0.565400  0.727600  1
  S  S5548  1  0.315600  0.934600  0.727600  1
  S  S5549  1  0.934600  0.272400  0.184400  1
  S  S5550  1  0.934600  0.727600  0.315600  1
  S  S5551  1  0.772400  0.315600  0.065400  1
  S  S5552  1  0.727600  0.315600  0.934600  1
  N  N5553  1  0.976800  0.647000  0.074800  1
  N  N5554  1  0.897000  0.773200  0.175200  1
  N  N5555  1  0.023200  0.853000  0.074800  1
  N  N5556  1  0.603000  0.226800  0.675200  1
  N  N5557  1  0.273200  0.324800  0.103000  1
  N  N5558  1  0.976800  0.353000  0.425200  1
  N  N5559  1  0.773200  0.175200  0.897000  1
  N  N5560  1  0.675200  0.603000  0.226800  1
  N  N5561  1  0.523200  0.647000  0.925200  1
  N  N5562  1  0.324800  0.103000  0.273200  1
  N  N5563  1  0.074800  0.976800  0.647000  1
  N  N5564  1  0.647000  0.074800  0.976800  1
  N  N5565  1  0.353000  0.425200  0.976800  1
  N  N5566  1  0.074800  0.023200  0.853000  1
  N  N5567  1  0.853000  0.074800  0.023200  1
  N  N5568  1  0.925200  0.523200  0.647000  1
  N  N5569  1  0.425200  0.976800  0.353000  1
  N  N5570  1  0.647000  0.925200  0.523200  1
  N  N5571  1  0.103000  0.273200  0.324800  1
  N  N5572  1  0.897000  0.226800  0.324800  1
  N  N5573  1  0.226800  0.675200  0.603000  1
  N  N5574  1  0.226800  0.324800  0.897000  1
  N  N5575  1  0.175200  0.897000  0.773200  1
  N  N5576  1  0.324800  0.897000  0.226800  1
  N  N5577  1  0.476800  0.147000  0.574800  1
  N  N5578  1  0.397000  0.273200  0.675200  1
  N  N5579  1  0.523200  0.353000  0.574800  1
  N  N5580  1  0.103000  0.726800  0.175200  1
  N  N5581  1  0.773200  0.824800  0.603000  1
  N  N5582  1  0.476800  0.853000  0.925200  1
  N  N5583  1  0.273200  0.675200  0.397000  1
  N  N5584  1  0.175200  0.103000  0.726800  1
  N  N5585  1  0.023200  0.147000  0.425200  1
  N  N5586  1  0.824800  0.603000  0.773200  1
  N  N5587  1  0.574800  0.476800  0.147000  1
  N  N5588  1  0.147000  0.574800  0.476800  1
  N  N5589  1  0.853000  0.925200  0.476800  1
  N  N5590  1  0.574800  0.523200  0.353000  1
  N  N5591  1  0.353000  0.574800  0.523200  1
  N  N5592  1  0.425200  0.023200  0.147000  1
  N  N5593  1  0.925200  0.476800  0.853000  1
  N  N5594  1  0.147000  0.425200  0.023200  1
  N  N5595  1  0.603000  0.773200  0.824800  1
  N  N5596  1  0.397000  0.726800  0.824800  1
  N  N5597  1  0.726800  0.175200  0.103000  1
  N  N5598  1  0.726800  0.824800  0.397000  1
  N  N5599  1  0.675200  0.397000  0.273200  1
  N  N5600  1  0.824800  0.397000  0.726800  1
  N  N5601  1  0.130500  0.640500  0.190500  1
  N  N5602  1  0.890500  0.619500  0.059500  1
  N  N5603  1  0.869500  0.859500  0.190500  1
  N  N5604  1  0.609500  0.380500  0.559500  1
  N  N5605  1  0.119500  0.440500  0.109500  1
  N  N5606  1  0.130500  0.359500  0.309500  1
  N  N5607  1  0.619500  0.059500  0.890500  1
  N  N5608  1  0.559500  0.609500  0.380500  1
  N  N5609  1  0.369500  0.640500  0.809500  1
  N  N5610  1  0.440500  0.109500  0.119500  1
  N  N5611  1  0.190500  0.130500  0.640500  1
  N  N5612  1  0.640500  0.190500  0.130500  1
  N  N5613  1  0.359500  0.309500  0.130500  1
  N  N5614  1  0.190500  0.869500  0.859500  1
  N  N5615  1  0.859500  0.190500  0.869500  1
  N  N5616  1  0.809500  0.369500  0.640500  1
  N  N5617  1  0.309500  0.130500  0.359500  1
  N  N5618  1  0.640500  0.809500  0.369500  1
  N  N5619  1  0.109500  0.119500  0.440500  1
  N  N5620  1  0.890500  0.380500  0.440500  1
  N  N5621  1  0.380500  0.559500  0.609500  1
  N  N5622  1  0.380500  0.440500  0.890500  1
  N  N5623  1  0.059500  0.890500  0.619500  1
  N  N5624  1  0.440500  0.890500  0.380500  1
  N  N5625  1  0.630500  0.140500  0.690500  1
  N  N5626  1  0.390500  0.119500  0.559500  1
  N  N5627  1  0.369500  0.359500  0.690500  1
  N  N5628  1  0.109500  0.880500  0.059500  1
  N  N5629  1  0.619500  0.940500  0.609500  1
  N  N5630  1  0.630500  0.859500  0.809500  1
  N  N5631  1  0.119500  0.559500  0.390500  1
  N  N5632  1  0.059500  0.109500  0.880500  1
  N  N5633  1  0.869500  0.140500  0.309500  1
  N  N5634  1  0.940500  0.609500  0.619500  1
  N  N5635  1  0.690500  0.630500  0.140500  1
  N  N5636  1  0.140500  0.690500  0.630500  1
  N  N5637  1  0.859500  0.809500  0.630500  1
  N  N5638  1  0.690500  0.369500  0.359500  1
  N  N5639  1  0.359500  0.690500  0.369500  1
  N  N5640  1  0.309500  0.869500  0.140500  1
  N  N5641  1  0.809500  0.630500  0.859500  1
  N  N5642  1  0.140500  0.309500  0.869500  1
  N  N5643  1  0.609500  0.619500  0.940500  1
  N  N5644  1  0.390500  0.880500  0.940500  1
  N  N5645  1  0.880500  0.059500  0.109500  1
  N  N5646  1  0.880500  0.940500  0.390500  1
  N  N5647  1  0.559500  0.390500  0.119500  1
  N  N5648  1  0.940500  0.390500  0.880500  1
  N  N5649  1  0.969800  0.627700  0.070100  1
  N  N5650  1  0.877700  0.780200  0.179900  1
  N  N5651  1  0.030200  0.872300  0.070100  1
  N  N5652  1  0.622300  0.219800  0.679900  1
  N  N5653  1  0.280200  0.320100  0.122300  1
  N  N5654  1  0.969800  0.372300  0.429900  1
  N  N5655  1  0.780200  0.179900  0.877700  1
  N  N5656  1  0.679900  0.622300  0.219800  1
  N  N5657  1  0.530200  0.627700  0.929900  1
  N  N5658  1  0.320100  0.122300  0.280200  1
  N  N5659  1  0.070100  0.969800  0.627700  1
  N  N5660  1  0.627700  0.070100  0.969800  1
  N  N5661  1  0.372300  0.429900  0.969800  1
  N  N5662  1  0.070100  0.030200  0.872300  1
  N  N5663  1  0.872300  0.070100  0.030200  1
  N  N5664  1  0.929900  0.530200  0.627700  1
  N  N5665  1  0.429900  0.969800  0.372300  1
  N  N5666  1  0.627700  0.929900  0.530200  1
  N  N5667  1  0.122300  0.280200  0.320100  1
  N  N5668  1  0.877700  0.219800  0.320100  1
  N  N5669  1  0.219800  0.679900  0.622300  1
  N  N5670  1  0.219800  0.320100  0.877700  1
  N  N5671  1  0.179900  0.877700  0.780200  1
  N  N5672  1  0.320100  0.877700  0.219800  1
  N  N5673  1  0.469800  0.127700  0.570100  1
  N  N5674  1  0.377700  0.280200  0.679900  1
  N  N5675  1  0.530200  0.372300  0.570100  1
  N  N5676  1  0.122300  0.719800  0.179900  1
  N  N5677  1  0.780200  0.820100  0.622300  1
  N  N5678  1  0.469800  0.872300  0.929900  1
  N  N5679  1  0.280200  0.679900  0.377700  1
  N  N5680  1  0.179900  0.122300  0.719800  1
  N  N5681  1  0.030200  0.127700  0.429900  1
  N  N5682  1  0.820100  0.622300  0.780200  1
  N  N5683  1  0.570100  0.469800  0.127700  1
  N  N5684  1  0.127700  0.570100  0.469800  1
  N  N5685  1  0.872300  0.929900  0.469800  1
  N  N5686  1  0.570100  0.530200  0.372300  1
  N  N5687  1  0.372300  0.570100  0.530200  1
  N  N5688  1  0.429900  0.030200  0.127700  1
  N  N5689  1  0.929900  0.469800  0.872300  1
  N  N5690  1  0.127700  0.429900  0.030200  1
  N  N5691  1  0.622300  0.780200  0.820100  1
  N  N5692  1  0.377700  0.719800  0.820100  1
  N  N5693  1  0.719800  0.179900  0.122300  1
  N  N5694  1  0.719800  0.820100  0.377700  1
  N  N5695  1  0.679900  0.377700  0.280200  1
  N  N5696  1  0.820100  0.377700  0.719800  1
  N  N5697  1  0.136080  0.665140  0.997520  1.0
  N  N5698  1  0.915140  0.613920  0.252480  1.0
  N  N5699  1  0.863920  0.834860  0.997520  1.0
  N  N5700  1  0.584860  0.386080  0.752480  1.0
  N  N5701  1  0.113920  0.247520  0.084860  1.0
  N  N5702  1  0.136080  0.334860  0.502480  1.0
  N  N5703  1  0.613920  0.252480  0.915140  1.0
  N  N5704  1  0.752480  0.584860  0.386080  1.0
  N  N5705  1  0.363920  0.665140  0.002480  1.0
  N  N5706  1  0.247520  0.084860  0.113920  1.0
  N  N5707  1  0.997520  0.136080  0.665140  1.0
  N  N5708  1  0.665140  0.997520  0.136080  1.0
  N  N5709  1  0.334860  0.502480  0.136080  1.0
  N  N5710  1  0.997520  0.863920  0.834860  1.0
  N  N5711  1  0.834860  0.997520  0.863920  1.0
  N  N5712  1  0.002480  0.363920  0.665140  1.0
  N  N5713  1  0.502480  0.136080  0.334860  1.0
  N  N5714  1  0.665140  0.002480  0.363920  1.0
  N  N5715  1  0.084860  0.113920  0.247520  1.0
  N  N5716  1  0.915140  0.386080  0.247520  1.0
  N  N5717  1  0.386080  0.752480  0.584860  1.0
  N  N5718  1  0.386080  0.247520  0.915140  1.0
  N  N5719  1  0.252480  0.915140  0.613920  1.0
  N  N5720  1  0.247520  0.915140  0.386080  1.0
  N  N5721  1  0.636080  0.165140  0.497520  1.0
  N  N5722  1  0.415140  0.113920  0.752480  1.0
  N  N5723  1  0.363920  0.334860  0.497520  1.0
  N  N5724  1  0.084860  0.886080  0.252480  1.0
  N  N5725  1  0.613920  0.747520  0.584860  1.0
  N  N5726  1  0.636080  0.834860  0.002480  1.0
  N  N5727  1  0.113920  0.752480  0.415140  1.0
  N  N5728  1  0.252480  0.084860  0.886080  1.0
  N  N5729  1  0.863920  0.165140  0.502480  1.0
  N  N5730  1  0.747520  0.584860  0.613920  1.0
  N  N5731  1  0.497520  0.636080  0.165140  1.0
  N  N5732  1  0.165140  0.497520  0.636080  1.0
  N  N5733  1  0.834860  0.002480  0.636080  1.0
  N  N5734  1  0.497520  0.363920  0.334860  1.0
  N  N5735  1  0.334860  0.497520  0.363920  1.0
  N  N5736  1  0.502480  0.863920  0.165140  1.0
  N  N5737  1  0.002480  0.636080  0.834860  1.0
  N  N5738  1  0.165140  0.502480  0.863920  1.0
  N  N5739  1  0.584860  0.613920  0.747520  1.0
  N  N5740  1  0.415140  0.886080  0.747520  1.0
  N  N5741  1  0.886080  0.252480  0.084860  1.0
  N  N5742  1  0.886080  0.747520  0.415140  1.0
  N  N5743  1  0.752480  0.415140  0.113920  1.0
  N  N5744  1  0.747520  0.415140  0.886080  1.0
  N  N5745  1  0.099530  0.627560  0.035400  1.0
  N  N5746  1  0.877560  0.650470  0.214600  1.0
  N  N5747  1  0.900470  0.872440  0.035400  1.0
  N  N5748  1  0.622440  0.349530  0.714600  1.0
  N  N5749  1  0.150470  0.285400  0.122440  1.0
  N  N5750  1  0.099530  0.372440  0.464600  1.0
  N  N5751  1  0.650470  0.214600  0.877560  1.0
  N  N5752  1  0.714600  0.622440  0.349530  1.0
  N  N5753  1  0.400470  0.627560  0.964600  1.0
  N  N5754  1  0.285400  0.122440  0.150470  1.0
  N  N5755  1  0.035400  0.099530  0.627560  1.0
  N  N5756  1  0.627560  0.035400  0.099530  1.0
  N  N5757  1  0.372440  0.464600  0.099530  1.0
  N  N5758  1  0.035400  0.900470  0.872440  1.0
  N  N5759  1  0.872440  0.035400  0.900470  1.0
  N  N5760  1  0.964600  0.400470  0.627560  1.0
  N  N5761  1  0.464600  0.099530  0.372440  1.0
  N  N5762  1  0.627560  0.964600  0.400470  1.0
  N  N5763  1  0.122440  0.150470  0.285400  1.0
  N  N5764  1  0.877560  0.349530  0.285400  1.0
  N  N5765  1  0.349530  0.714600  0.622440  1.0
  N  N5766  1  0.349530  0.285400  0.877560  1.0
  N  N5767  1  0.214600  0.877560  0.650470  1.0
  N  N5768  1  0.285400  0.877560  0.349530  1.0
  N  N5769  1  0.599530  0.127560  0.535400  1.0
  N  N5770  1  0.377560  0.150470  0.714600  1.0
  N  N5771  1  0.400470  0.372440  0.535400  1.0
  N  N5772  1  0.122440  0.849530  0.214600  1.0
  N  N5773  1  0.650470  0.785400  0.622440  1.0
  N  N5774  1  0.599530  0.872440  0.964600  1.0
  N  N5775  1  0.150470  0.714600  0.377560  1.0
  N  N5776  1  0.214600  0.122440  0.849530  1.0
  N  N5777  1  0.900470  0.127560  0.464600  1.0
  N  N5778  1  0.785400  0.622440  0.650470  1.0
  N  N5779  1  0.535400  0.599530  0.127560  1.0
  N  N5780  1  0.127560  0.535400  0.599530  1.0
  N  N5781  1  0.872440  0.964600  0.599530  1.0
  N  N5782  1  0.535400  0.400470  0.372440  1.0
  N  N5783  1  0.372440  0.535400  0.400470  1.0
  N  N5784  1  0.464600  0.900470  0.127560  1.0
  N  N5785  1  0.964600  0.599530  0.872440  1.0
  N  N5786  1  0.127560  0.464600  0.900470  1.0
  N  N5787  1  0.622440  0.650470  0.785400  1.0
  N  N5788  1  0.377560  0.849530  0.785400  1.0
  N  N5789  1  0.849530  0.214600  0.122440  1.0
  N  N5790  1  0.849530  0.785400  0.377560  1.0
  N  N5791  1  0.714600  0.377560  0.150470  1.0
  N  N5792  1  0.785400  0.377560  0.849530  1.0
  O  O5793  1  0.062100  0.738700  0.086400  1
  O  O5794  1  0.988700  0.687900  0.163600  1
  O  O5795  1  0.937900  0.761300  0.086400  1
  O  O5796  1  0.511300  0.312100  0.663600  1
  O  O5797  1  0.187900  0.336400  0.011300  1
  O  O5798  1  0.062100  0.261300  0.413600  1
  O  O5799  1  0.687900  0.163600  0.988700  1
  O  O5800  1  0.663600  0.511300  0.312100  1
  O  O5801  1  0.437900  0.738700  0.913600  1
  O  O5802  1  0.336400  0.011300  0.187900  1
  O  O5803  1  0.086400  0.062100  0.738700  1
  O  O5804  1  0.738700  0.086400  0.062100  1
  O  O5805  1  0.261300  0.413600  0.062100  1
  O  O5806  1  0.086400  0.937900  0.761300  1
  O  O5807  1  0.761300  0.086400  0.937900  1
  O  O5808  1  0.913600  0.437900  0.738700  1
  O  O5809  1  0.413600  0.062100  0.261300  1
  O  O5810  1  0.738700  0.913600  0.437900  1
  O  O5811  1  0.011300  0.187900  0.336400  1
  O  O5812  1  0.988700  0.312100  0.336400  1
  O  O5813  1  0.312100  0.663600  0.511300  1
  O  O5814  1  0.312100  0.336400  0.988700  1
  O  O5815  1  0.163600  0.988700  0.687900  1
  O  O5816  1  0.336400  0.988700  0.312100  1
  O  O5817  1  0.562100  0.238700  0.586400  1
  O  O5818  1  0.488700  0.187900  0.663600  1
  O  O5819  1  0.437900  0.261300  0.586400  1
  O  O5820  1  0.011300  0.812100  0.163600  1
  O  O5821  1  0.687900  0.836400  0.511300  1
  O  O5822  1  0.562100  0.761300  0.913600  1
  O  O5823  1  0.187900  0.663600  0.488700  1
  O  O5824  1  0.163600  0.011300  0.812100  1
  O  O5825  1  0.937900  0.238700  0.413600  1
  O  O5826  1  0.836400  0.511300  0.687900  1
  O  O5827  1  0.586400  0.562100  0.238700  1
  O  O5828  1  0.238700  0.586400  0.562100  1
  O  O5829  1  0.761300  0.913600  0.562100  1
  O  O5830  1  0.586400  0.437900  0.261300  1
  O  O5831  1  0.261300  0.586400  0.437900  1
  O  O5832  1  0.413600  0.937900  0.238700  1
  O  O5833  1  0.913600  0.562100  0.761300  1
  O  O5834  1  0.238700  0.413600  0.937900  1
  O  O5835  1  0.511300  0.687900  0.836400  1
  O  O5836  1  0.488700  0.812100  0.836400  1
  O  O5837  1  0.812100  0.163600  0.011300  1
  O  O5838  1  0.812100  0.836400  0.488700  1
  O  O5839  1  0.663600  0.488700  0.187900  1
  O  O5840  1  0.836400  0.488700  0.812100  1
  O  O5841  1  0.089800  0.707700  0.047800  1
  O  O5842  1  0.957700  0.660200  0.202200  1
  O  O5843  1  0.910200  0.792300  0.047800  1
  O  O5844  1  0.542300  0.339800  0.702200  1
  O  O5845  1  0.160200  0.297800  0.042300  1
  O  O5846  1  0.089800  0.292300  0.452200  1
  O  O5847  1  0.660200  0.202200  0.957700  1
  O  O5848  1  0.702200  0.542300  0.339800  1
  O  O5849  1  0.410200  0.707700  0.952200  1
  O  O5850  1  0.297800  0.042300  0.160200  1
  O  O5851  1  0.047800  0.089800  0.707700  1
  O  O5852  1  0.707700  0.047800  0.089800  1
  O  O5853  1  0.292300  0.452200  0.089800  1
  O  O5854  1  0.047800  0.910200  0.792300  1
  O  O5855  1  0.792300  0.047800  0.910200  1
  O  O5856  1  0.952200  0.410200  0.707700  1
  O  O5857  1  0.452200  0.089800  0.292300  1
  O  O5858  1  0.707700  0.952200  0.410200  1
  O  O5859  1  0.042300  0.160200  0.297800  1
  O  O5860  1  0.957700  0.339800  0.297800  1
  O  O5861  1  0.339800  0.702200  0.542300  1
  O  O5862  1  0.339800  0.297800  0.957700  1
  O  O5863  1  0.202200  0.957700  0.660200  1
  O  O5864  1  0.297800  0.957700  0.339800  1
  O  O5865  1  0.589800  0.207700  0.547800  1
  O  O5866  1  0.457700  0.160200  0.702200  1
  O  O5867  1  0.410200  0.292300  0.547800  1
  O  O5868  1  0.042300  0.839800  0.202200  1
  O  O5869  1  0.660200  0.797800  0.542300  1
  O  O5870  1  0.589800  0.792300  0.952200  1
  O  O5871  1  0.160200  0.702200  0.457700  1
  O  O5872  1  0.202200  0.042300  0.839800  1
  O  O5873  1  0.910200  0.207700  0.452200  1
  O  O5874  1  0.797800  0.542300  0.660200  1
  O  O5875  1  0.547800  0.589800  0.207700  1
  O  O5876  1  0.207700  0.547800  0.589800  1
  O  O5877  1  0.792300  0.952200  0.589800  1
  O  O5878  1  0.547800  0.410200  0.292300  1
  O  O5879  1  0.292300  0.547800  0.410200  1
  O  O5880  1  0.452200  0.910200  0.207700  1
  O  O5881  1  0.952200  0.589800  0.792300  1
  O  O5882  1  0.207700  0.452200  0.910200  1
  O  O5883  1  0.542300  0.660200  0.797800  1
  O  O5884  1  0.457700  0.839800  0.797800  1
  O  O5885  1  0.839800  0.202200  0.042300  1
  O  O5886  1  0.839800  0.797800  0.457700  1
  O  O5887  1  0.702200  0.457700  0.160200  1
  O  O5888  1  0.797800  0.457700  0.839800  1
  O  O5889  1  0.113500  0.754500  0.068900  1
  O  O5890  1  0.004500  0.636500  0.181100  1
  O  O5891  1  0.886500  0.745500  0.068900  1
  O  O5892  1  0.495500  0.363500  0.681100  1
  O  O5893  1  0.136500  0.318900  0.995500  1
  O  O5894  1  0.113500  0.245500  0.431100  1
  O  O5895  1  0.636500  0.181100  0.004500  1
  O  O5896  1  0.681100  0.495500  0.363500  1
  O  O5897  1  0.386500  0.754500  0.931100  1
  O  O5898  1  0.318900  0.995500  0.136500  1
  O  O5899  1  0.068900  0.113500  0.754500  1
  O  O5900  1  0.754500  0.068900  0.113500  1
  O  O5901  1  0.245500  0.431100  0.113500  1
  O  O5902  1  0.068900  0.886500  0.745500  1
  O  O5903  1  0.745500  0.068900  0.886500  1
  O  O5904  1  0.931100  0.386500  0.754500  1
  O  O5905  1  0.431100  0.113500  0.245500  1
  O  O5906  1  0.754500  0.931100  0.386500  1
  O  O5907  1  0.995500  0.136500  0.318900  1
  O  O5908  1  0.004500  0.363500  0.318900  1
  O  O5909  1  0.363500  0.681100  0.495500  1
  O  O5910  1  0.363500  0.318900  0.004500  1
  O  O5911  1  0.181100  0.004500  0.636500  1
  O  O5912  1  0.318900  0.004500  0.363500  1
  O  O5913  1  0.613500  0.254500  0.568900  1
  O  O5914  1  0.504500  0.136500  0.681100  1
  O  O5915  1  0.386500  0.245500  0.568900  1
  O  O5916  1  0.995500  0.863500  0.181100  1
  O  O5917  1  0.636500  0.818900  0.495500  1
  O  O5918  1  0.613500  0.745500  0.931100  1
  O  O5919  1  0.136500  0.681100  0.504500  1
  O  O5920  1  0.181100  0.995500  0.863500  1
  O  O5921  1  0.886500  0.254500  0.431100  1
  O  O5922  1  0.818900  0.495500  0.636500  1
  O  O5923  1  0.568900  0.613500  0.254500  1
  O  O5924  1  0.254500  0.568900  0.613500  1
  O  O5925  1  0.745500  0.931100  0.613500  1
  O  O5926  1  0.568900  0.386500  0.245500  1
  O  O5927  1  0.245500  0.568900  0.386500  1
  O  O5928  1  0.431100  0.886500  0.254500  1
  O  O5929  1  0.931100  0.613500  0.745500  1
  O  O5930  1  0.254500  0.431100  0.886500  1
  O  O5931  1  0.495500  0.636500  0.818900  1
  O  O5932  1  0.504500  0.863500  0.818900  1
  O  O5933  1  0.863500  0.181100  0.995500  1
  O  O5934  1  0.863500  0.818900  0.504500  1
  O  O5935  1  0.681100  0.504500  0.136500  1
  O  O5936  1  0.818900  0.504500  0.863500  1
  O  O5937  1  0.172600  0.579000  0.949400  1
  O  O5938  1  0.829000  0.577400  0.300600  1
  O  O5939  1  0.827400  0.921000  0.949400  1
  O  O5940  1  0.671000  0.422600  0.800600  1
  O  O5941  1  0.077400  0.199400  0.171000  1
  O  O5942  1  0.172600  0.421000  0.550600  1
  O  O5943  1  0.577400  0.300600  0.829000  1
  O  O5944  1  0.800600  0.671000  0.422600  1
  O  O5945  1  0.327400  0.579000  0.050600  1
  O  O5946  1  0.199400  0.171000  0.077400  1
  O  O5947  1  0.949400  0.172600  0.579000  1
  O  O5948  1  0.579000  0.949400  0.172600  1
  O  O5949  1  0.421000  0.550600  0.172600  1
  O  O5950  1  0.949400  0.827400  0.921000  1
  O  O5951  1  0.921000  0.949400  0.827400  1
  O  O5952  1  0.050600  0.327400  0.579000  1
  O  O5953  1  0.550600  0.172600  0.421000  1
  O  O5954  1  0.579000  0.050600  0.327400  1
  O  O5955  1  0.171000  0.077400  0.199400  1
  O  O5956  1  0.829000  0.422600  0.199400  1
  O  O5957  1  0.422600  0.800600  0.671000  1
  O  O5958  1  0.422600  0.199400  0.829000  1
  O  O5959  1  0.300600  0.829000  0.577400  1
  O  O5960  1  0.199400  0.829000  0.422600  1
  O  O5961  1  0.672600  0.079000  0.449400  1
  O  O5962  1  0.329000  0.077400  0.800600  1
  O  O5963  1  0.327400  0.421000  0.449400  1
  O  O5964  1  0.171000  0.922600  0.300600  1
  O  O5965  1  0.577400  0.699400  0.671000  1
  O  O5966  1  0.672600  0.921000  0.050600  1
  O  O5967  1  0.077400  0.800600  0.329000  1
  O  O5968  1  0.300600  0.171000  0.922600  1
  O  O5969  1  0.827400  0.079000  0.550600  1
  O  O5970  1  0.699400  0.671000  0.577400  1
  O  O5971  1  0.449400  0.672600  0.079000  1
  O  O5972  1  0.079000  0.449400  0.672600  1
  O  O5973  1  0.921000  0.050600  0.672600  1
  O  O5974  1  0.449400  0.327400  0.421000  1
  O  O5975  1  0.421000  0.449400  0.327400  1
  O  O5976  1  0.550600  0.827400  0.079000  1
  O  O5977  1  0.050600  0.672600  0.921000  1
  O  O5978  1  0.079000  0.550600  0.827400  1
  O  O5979  1  0.671000  0.577400  0.699400  1
  O  O5980  1  0.329000  0.922600  0.699400  1
  O  O5981  1  0.922600  0.300600  0.171000  1
  O  O5982  1  0.922600  0.699400  0.329000  1
  O  O5983  1  0.800600  0.329000  0.077400  1
  O  O5984  1  0.699400  0.329000  0.922600  1
  O  O5985  1  0.179100  0.578500  0.002200  1
  O  O5986  1  0.828500  0.570900  0.247800  1
  O  O5987  1  0.820900  0.921500  0.002200  1
  O  O5988  1  0.671500  0.429100  0.747800  1
  O  O5989  1  0.070900  0.252200  0.171500  1
  O  O5990  1  0.179100  0.421500  0.497800  1
  O  O5991  1  0.570900  0.247800  0.828500  1
  O  O5992  1  0.747800  0.671500  0.429100  1
  O  O5993  1  0.320900  0.578500  0.997800  1
  O  O5994  1  0.252200  0.171500  0.070900  1
  O  O5995  1  0.002200  0.179100  0.578500  1
  O  O5996  1  0.578500  0.002200  0.179100  1
  O  O5997  1  0.421500  0.497800  0.179100  1
  O  O5998  1  0.002200  0.820900  0.921500  1
  O  O5999  1  0.921500  0.002200  0.820900  1
  O  O6000  1  0.997800  0.320900  0.578500  1
  O  O6001  1  0.497800  0.179100  0.421500  1
  O  O6002  1  0.578500  0.997800  0.320900  1
  O  O6003  1  0.171500  0.070900  0.252200  1
  O  O6004  1  0.828500  0.429100  0.252200  1
  O  O6005  1  0.429100  0.747800  0.671500  1
  O  O6006  1  0.429100  0.252200  0.828500  1
  O  O6007  1  0.247800  0.828500  0.570900  1
  O  O6008  1  0.252200  0.828500  0.429100  1
  O  O6009  1  0.679100  0.078500  0.502200  1
  O  O6010  1  0.328500  0.070900  0.747800  1
  O  O6011  1  0.320900  0.421500  0.502200  1
  O  O6012  1  0.171500  0.929100  0.247800  1
  O  O6013  1  0.570900  0.752200  0.671500  1
  O  O6014  1  0.679100  0.921500  0.997800  1
  O  O6015  1  0.070900  0.747800  0.328500  1
  O  O6016  1  0.247800  0.171500  0.929100  1
  O  O6017  1  0.820900  0.078500  0.497800  1
  O  O6018  1  0.752200  0.671500  0.570900  1
  O  O6019  1  0.502200  0.679100  0.078500  1
  O  O6020  1  0.078500  0.502200  0.679100  1
  O  O6021  1  0.921500  0.997800  0.679100  1
  O  O6022  1  0.502200  0.320900  0.421500  1
  O  O6023  1  0.421500  0.502200  0.320900  1
  O  O6024  1  0.497800  0.820900  0.078500  1
  O  O6025  1  0.997800  0.679100  0.921500  1
  O  O6026  1  0.078500  0.497800  0.820900  1
  O  O6027  1  0.671500  0.570900  0.752200  1
  O  O6028  1  0.328500  0.929100  0.752200  1
  O  O6029  1  0.929100  0.247800  0.171500  1
  O  O6030  1  0.929100  0.752200  0.328500  1
  O  O6031  1  0.747800  0.328500  0.070900  1
  O  O6032  1  0.752200  0.328500  0.929100  1
  O  O6033  1  0.143100  0.541100  0.978700  1
  O  O6034  1  0.791100  0.606900  0.271300  1
  O  O6035  1  0.856900  0.958900  0.978700  1
  O  O6036  1  0.708900  0.393100  0.771300  1
  O  O6037  1  0.106900  0.228700  0.208900  1
  O  O6038  1  0.143100  0.458900  0.521300  1
  O  O6039  1  0.606900  0.271300  0.791100  1
  O  O6040  1  0.771300  0.708900  0.393100  1
  O  O6041  1  0.356900  0.541100  0.021300  1
  O  O6042  1  0.228700  0.208900  0.106900  1
  O  O6043  1  0.978700  0.143100  0.541100  1
  O  O6044  1  0.541100  0.978700  0.143100  1
  O  O6045  1  0.458900  0.521300  0.143100  1
  O  O6046  1  0.978700  0.856900  0.958900  1
  O  O6047  1  0.958900  0.978700  0.856900  1
  O  O6048  1  0.021300  0.356900  0.541100  1
  O  O6049  1  0.521300  0.143100  0.458900  1
  O  O6050  1  0.541100  0.021300  0.356900  1
  O  O6051  1  0.208900  0.106900  0.228700  1
  O  O6052  1  0.791100  0.393100  0.228700  1
  O  O6053  1  0.393100  0.771300  0.708900  1
  O  O6054  1  0.393100  0.228700  0.791100  1
  O  O6055  1  0.271300  0.791100  0.606900  1
  O  O6056  1  0.228700  0.791100  0.393100  1
  O  O6057  1  0.643100  0.041100  0.478700  1
  O  O6058  1  0.291100  0.106900  0.771300  1
  O  O6059  1  0.356900  0.458900  0.478700  1
  O  O6060  1  0.208900  0.893100  0.271300  1
  O  O6061  1  0.606900  0.728700  0.708900  1
  O  O6062  1  0.643100  0.958900  0.021300  1
  O  O6063  1  0.106900  0.771300  0.291100  1
  O  O6064  1  0.271300  0.208900  0.893100  1
  O  O6065  1  0.856900  0.041100  0.521300  1
  O  O6066  1  0.728700  0.708900  0.606900  1
  O  O6067  1  0.478700  0.643100  0.041100  1
  O  O6068  1  0.041100  0.478700  0.643100  1
  O  O6069  1  0.958900  0.021300  0.643100  1
  O  O6070  1  0.478700  0.356900  0.458900  1
  O  O6071  1  0.458900  0.478700  0.356900  1
  O  O6072  1  0.521300  0.856900  0.041100  1
  O  O6073  1  0.021300  0.643100  0.958900  1
  O  O6074  1  0.041100  0.521300  0.856900  1
  O  O6075  1  0.708900  0.606900  0.728700  1
  O  O6076  1  0.291100  0.893100  0.728700  1
  O  O6077  1  0.893100  0.271300  0.208900  1
  O  O6078  1  0.893100  0.728700  0.291100  1
  O  O6079  1  0.771300  0.291100  0.106900  1
  O  O6080  1  0.728700  0.291100  0.893100  1
  O  O6081  1  0.089500  0.756300  0.060300  1
  O  O6082  1  0.006300  0.660500  0.189700  1
  O  O6083  1  0.910500  0.743700  0.060300  1
  O  O6084  1  0.493700  0.339500  0.689700  1
  O  O6085  1  0.160500  0.310300  0.993700  1
  O  O6086  1  0.089500  0.243700  0.439700  1
  O  O6087  1  0.660500  0.189700  0.006300  1
  O  O6088  1  0.689700  0.493700  0.339500  1
  O  O6089  1  0.410500  0.756300  0.939700  1
  O  O6090  1  0.310300  0.993700  0.160500  1
  O  O6091  1  0.060300  0.089500  0.756300  1
  O  O6092  1  0.756300  0.060300  0.089500  1
  O  O6093  1  0.243700  0.439700  0.089500  1
  O  O6094  1  0.060300  0.910500  0.743700  1
  O  O6095  1  0.743700  0.060300  0.910500  1
  O  O6096  1  0.939700  0.410500  0.756300  1
  O  O6097  1  0.439700  0.089500  0.243700  1
  O  O6098  1  0.756300  0.939700  0.410500  1
  O  O6099  1  0.993700  0.160500  0.310300  1
  O  O6100  1  0.006300  0.339500  0.310300  1
  O  O6101  1  0.339500  0.689700  0.493700  1
  O  O6102  1  0.339500  0.310300  0.006300  1
  O  O6103  1  0.189700  0.006300  0.660500  1
  O  O6104  1  0.310300  0.006300  0.339500  1
  O  O6105  1  0.589500  0.256300  0.560300  1
  O  O6106  1  0.506300  0.160500  0.689700  1
  O  O6107  1  0.410500  0.243700  0.560300  1
  O  O6108  1  0.993700  0.839500  0.189700  1
  O  O6109  1  0.660500  0.810300  0.493700  1
  O  O6110  1  0.589500  0.743700  0.939700  1
  O  O6111  1  0.160500  0.689700  0.506300  1
  O  O6112  1  0.189700  0.993700  0.839500  1
  O  O6113  1  0.910500  0.256300  0.439700  1
  O  O6114  1  0.810300  0.493700  0.660500  1
  O  O6115  1  0.560300  0.589500  0.256300  1
  O  O6116  1  0.256300  0.560300  0.589500  1
  O  O6117  1  0.743700  0.939700  0.589500  1
  O  O6118  1  0.560300  0.410500  0.243700  1
  O  O6119  1  0.243700  0.560300  0.410500  1
  O  O6120  1  0.439700  0.910500  0.256300  1
  O  O6121  1  0.939700  0.589500  0.743700  1
  O  O6122  1  0.256300  0.439700  0.910500  1
  O  O6123  1  0.493700  0.660500  0.810300  1
  O  O6124  1  0.506300  0.839500  0.810300  1
  O  O6125  1  0.839500  0.189700  0.993700  1
  O  O6126  1  0.839500  0.810300  0.506300  1
  O  O6127  1  0.689700  0.506300  0.160500  1
  O  O6128  1  0.810300  0.506300  0.839500  1
  O  O6129  1  0.092700  0.703600  0.055800  1
  O  O6130  1  0.953600  0.657300  0.194200  1
  O  O6131  1  0.907300  0.796400  0.055800  1
  O  O6132  1  0.546400  0.342700  0.694200  1
  O  O6133  1  0.157300  0.305800  0.046400  1
  O  O6134  1  0.092700  0.296400  0.444200  1
  O  O6135  1  0.657300  0.194200  0.953600  1
  O  O6136  1  0.694200  0.546400  0.342700  1
  O  O6137  1  0.407300  0.703600  0.944200  1
  O  O6138  1  0.305800  0.046400  0.157300  1
  O  O6139  1  0.055800  0.092700  0.703600  1
  O  O6140  1  0.703600  0.055800  0.092700  1
  O  O6141  1  0.296400  0.444200  0.092700  1
  O  O6142  1  0.055800  0.907300  0.796400  1
  O  O6143  1  0.796400  0.055800  0.907300  1
  O  O6144  1  0.944200  0.407300  0.703600  1
  O  O6145  1  0.444200  0.092700  0.296400  1
  O  O6146  1  0.703600  0.944200  0.407300  1
  O  O6147  1  0.046400  0.157300  0.305800  1
  O  O6148  1  0.953600  0.342700  0.305800  1
  O  O6149  1  0.342700  0.694200  0.546400  1
  O  O6150  1  0.342700  0.305800  0.953600  1
  O  O6151  1  0.194200  0.953600  0.657300  1
  O  O6152  1  0.305800  0.953600  0.342700  1
  O  O6153  1  0.592700  0.203600  0.555800  1
  O  O6154  1  0.453600  0.157300  0.694200  1
  O  O6155  1  0.407300  0.296400  0.555800  1
  O  O6156  1  0.046400  0.842700  0.194200  1
  O  O6157  1  0.657300  0.805800  0.546400  1
  O  O6158  1  0.592700  0.796400  0.944200  1
  O  O6159  1  0.157300  0.694200  0.453600  1
  O  O6160  1  0.194200  0.046400  0.842700  1
  O  O6161  1  0.907300  0.203600  0.444200  1
  O  O6162  1  0.805800  0.546400  0.657300  1
  O  O6163  1  0.555800  0.592700  0.203600  1
  O  O6164  1  0.203600  0.555800  0.592700  1
  O  O6165  1  0.796400  0.944200  0.592700  1
  O  O6166  1  0.555800  0.407300  0.296400  1
  O  O6167  1  0.296400  0.555800  0.407300  1
  O  O6168  1  0.444200  0.907300  0.203600  1
  O  O6169  1  0.944200  0.592700  0.796400  1
  O  O6170  1  0.203600  0.444200  0.907300  1
  O  O6171  1  0.546400  0.657300  0.805800  1
  O  O6172  1  0.453600  0.842700  0.805800  1
  O  O6173  1  0.842700  0.194200  0.046400  1
  O  O6174  1  0.842700  0.805800  0.453600  1
  O  O6175  1  0.694200  0.453600  0.157300  1
  O  O6176  1  0.805800  0.453600  0.842700  1
  O  O6177  1  0.093900  0.723200  0.104300  1
  O  O6178  1  0.973200  0.656100  0.145700  1
  O  O6179  1  0.906100  0.776800  0.104300  1
  O  O6180  1  0.526800  0.343900  0.645700  1
  O  O6181  1  0.156100  0.354300  0.026800  1
  O  O6182  1  0.093900  0.276800  0.395700  1
  O  O6183  1  0.656100  0.145700  0.973200  1
  O  O6184  1  0.645700  0.526800  0.343900  1
  O  O6185  1  0.406100  0.723200  0.895700  1
  O  O6186  1  0.354300  0.026800  0.156100  1
  O  O6187  1  0.104300  0.093900  0.723200  1
  O  O6188  1  0.723200  0.104300  0.093900  1
  O  O6189  1  0.276800  0.395700  0.093900  1
  O  O6190  1  0.104300  0.906100  0.776800  1
  O  O6191  1  0.776800  0.104300  0.906100  1
  O  O6192  1  0.895700  0.406100  0.723200  1
  O  O6193  1  0.395700  0.093900  0.276800  1
  O  O6194  1  0.723200  0.895700  0.406100  1
  O  O6195  1  0.026800  0.156100  0.354300  1
  O  O6196  1  0.973200  0.343900  0.354300  1
  O  O6197  1  0.343900  0.645700  0.526800  1
  O  O6198  1  0.343900  0.354300  0.973200  1
  O  O6199  1  0.145700  0.973200  0.656100  1
  O  O6200  1  0.354300  0.973200  0.343900  1
  O  O6201  1  0.593900  0.223200  0.604300  1
  O  O6202  1  0.473200  0.156100  0.645700  1
  O  O6203  1  0.406100  0.276800  0.604300  1
  O  O6204  1  0.026800  0.843900  0.145700  1
  O  O6205  1  0.656100  0.854300  0.526800  1
  O  O6206  1  0.593900  0.776800  0.895700  1
  O  O6207  1  0.156100  0.645700  0.473200  1
  O  O6208  1  0.145700  0.026800  0.843900  1
  O  O6209  1  0.906100  0.223200  0.395700  1
  O  O6210  1  0.854300  0.526800  0.656100  1
  O  O6211  1  0.604300  0.593900  0.223200  1
  O  O6212  1  0.223200  0.604300  0.593900  1
  O  O6213  1  0.776800  0.895700  0.593900  1
  O  O6214  1  0.604300  0.406100  0.276800  1
  O  O6215  1  0.276800  0.604300  0.406100  1
  O  O6216  1  0.395700  0.906100  0.223200  1
  O  O6217  1  0.895700  0.593900  0.776800  1
  O  O6218  1  0.223200  0.395700  0.906100  1
  O  O6219  1  0.526800  0.656100  0.854300  1
  O  O6220  1  0.473200  0.843900  0.854300  1
  O  O6221  1  0.843900  0.145700  0.026800  1
  O  O6222  1  0.843900  0.854300  0.473200  1
  O  O6223  1  0.645700  0.473200  0.156100  1
  O  O6224  1  0.854300  0.473200  0.843900  1
  O  O6225  1  0.171800  0.574500  0.010600  1
  O  O6226  1  0.824500  0.578200  0.239400  1
  O  O6227  1  0.828200  0.925500  0.010600  1
  O  O6228  1  0.675500  0.421800  0.739400  1
  O  O6229  1  0.078200  0.260600  0.175500  1
  O  O6230  1  0.171800  0.425500  0.489400  1
  O  O6231  1  0.578200  0.239400  0.824500  1
  O  O6232  1  0.739400  0.675500  0.421800  1
  O  O6233  1  0.328200  0.574500  0.989400  1
  O  O6234  1  0.260600  0.175500  0.078200  1
  O  O6235  1  0.010600  0.171800  0.574500  1
  O  O6236  1  0.574500  0.010600  0.171800  1
  O  O6237  1  0.425500  0.489400  0.171800  1
  O  O6238  1  0.010600  0.828200  0.925500  1
  O  O6239  1  0.925500  0.010600  0.828200  1
  O  O6240  1  0.989400  0.328200  0.574500  1
  O  O6241  1  0.489400  0.171800  0.425500  1
  O  O6242  1  0.574500  0.989400  0.328200  1
  O  O6243  1  0.175500  0.078200  0.260600  1
  O  O6244  1  0.824500  0.421800  0.260600  1
  O  O6245  1  0.421800  0.739400  0.675500  1
  O  O6246  1  0.421800  0.260600  0.824500  1
  O  O6247  1  0.239400  0.824500  0.578200  1
  O  O6248  1  0.260600  0.824500  0.421800  1
  O  O6249  1  0.671800  0.074500  0.510600  1
  O  O6250  1  0.324500  0.078200  0.739400  1
  O  O6251  1  0.328200  0.425500  0.510600  1
  O  O6252  1  0.175500  0.921800  0.239400  1
  O  O6253  1  0.578200  0.760600  0.675500  1
  O  O6254  1  0.671800  0.925500  0.989400  1
  O  O6255  1  0.078200  0.739400  0.324500  1
  O  O6256  1  0.239400  0.175500  0.921800  1
  O  O6257  1  0.828200  0.074500  0.489400  1
  O  O6258  1  0.760600  0.675500  0.578200  1
  O  O6259  1  0.510600  0.671800  0.074500  1
  O  O6260  1  0.074500  0.510600  0.671800  1
  O  O6261  1  0.925500  0.989400  0.671800  1
  O  O6262  1  0.510600  0.328200  0.425500  1
  O  O6263  1  0.425500  0.510600  0.328200  1
  O  O6264  1  0.489400  0.828200  0.074500  1
  O  O6265  1  0.989400  0.671800  0.925500  1
  O  O6266  1  0.074500  0.489400  0.828200  1
  O  O6267  1  0.675500  0.578200  0.760600  1
  O  O6268  1  0.324500  0.921800  0.760600  1
  O  O6269  1  0.921800  0.239400  0.175500  1
  O  O6270  1  0.921800  0.760600  0.324500  1
  O  O6271  1  0.739400  0.324500  0.078200  1
  O  O6272  1  0.760600  0.324500  0.921800  1
  O  O6273  1  0.213600  0.565100  0.986000  1
  O  O6274  1  0.815100  0.536400  0.264000  1
  O  O6275  1  0.786400  0.934900  0.986000  1
  O  O6276  1  0.684900  0.463600  0.764000  1
  O  O6277  1  0.036400  0.236000  0.184900  1
  O  O6278  1  0.213600  0.434900  0.514000  1
  O  O6279  1  0.536400  0.264000  0.815100  1
  O  O6280  1  0.764000  0.684900  0.463600  1
  O  O6281  1  0.286400  0.565100  0.014000  1
  O  O6282  1  0.236000  0.184900  0.036400  1
  O  O6283  1  0.986000  0.213600  0.565100  1
  O  O6284  1  0.565100  0.986000  0.213600  1
  O  O6285  1  0.434900  0.514000  0.213600  1
  O  O6286  1  0.986000  0.786400  0.934900  1
  O  O6287  1  0.934900  0.986000  0.786400  1
  O  O6288  1  0.014000  0.286400  0.565100  1
  O  O6289  1  0.514000  0.213600  0.434900  1
  O  O6290  1  0.565100  0.014000  0.286400  1
  O  O6291  1  0.184900  0.036400  0.236000  1
  O  O6292  1  0.815100  0.463600  0.236000  1
  O  O6293  1  0.463600  0.764000  0.684900  1
  O  O6294  1  0.463600  0.236000  0.815100  1
  O  O6295  1  0.264000  0.815100  0.536400  1
  O  O6296  1  0.236000  0.815100  0.463600  1
  O  O6297  1  0.713600  0.065100  0.486000  1
  O  O6298  1  0.315100  0.036400  0.764000  1
  O  O6299  1  0.286400  0.434900  0.486000  1
  O  O6300  1  0.184900  0.963600  0.264000  1
  O  O6301  1  0.536400  0.736000  0.684900  1
  O  O6302  1  0.713600  0.934900  0.014000  1
  O  O6303  1  0.036400  0.764000  0.315100  1
  O  O6304  1  0.264000  0.184900  0.963600  1
  O  O6305  1  0.786400  0.065100  0.514000  1
  O  O6306  1  0.736000  0.684900  0.536400  1
  O  O6307  1  0.486000  0.713600  0.065100  1
  O  O6308  1  0.065100  0.486000  0.713600  1
  O  O6309  1  0.934900  0.014000  0.713600  1
  O  O6310  1  0.486000  0.286400  0.434900  1
  O  O6311  1  0.434900  0.486000  0.286400  1
  O  O6312  1  0.514000  0.786400  0.065100  1
  O  O6313  1  0.014000  0.713600  0.934900  1
  O  O6314  1  0.065100  0.514000  0.786400  1
  O  O6315  1  0.684900  0.536400  0.736000  1
  O  O6316  1  0.315100  0.963600  0.736000  1
  O  O6317  1  0.963600  0.264000  0.184900  1
  O  O6318  1  0.963600  0.736000  0.315100  1
  O  O6319  1  0.764000  0.315100  0.036400  1
  O  O6320  1  0.736000  0.315100  0.963600  1
  O  O6321  1  0.196200  0.553500  0.006200  1
  O  O6322  1  0.803500  0.553800  0.243800  1
  O  O6323  1  0.803800  0.946500  0.006200  1
  O  O6324  1  0.696500  0.446200  0.743800  1
  O  O6325  1  0.053800  0.256200  0.196500  1
  O  O6326  1  0.196200  0.446500  0.493800  1
  O  O6327  1  0.553800  0.243800  0.803500  1
  O  O6328  1  0.743800  0.696500  0.446200  1
  O  O6329  1  0.303800  0.553500  0.993800  1
  O  O6330  1  0.256200  0.196500  0.053800  1
  O  O6331  1  0.006200  0.196200  0.553500  1
  O  O6332  1  0.553500  0.006200  0.196200  1
  O  O6333  1  0.446500  0.493800  0.196200  1
  O  O6334  1  0.006200  0.803800  0.946500  1
  O  O6335  1  0.946500  0.006200  0.803800  1
  O  O6336  1  0.993800  0.303800  0.553500  1
  O  O6337  1  0.493800  0.196200  0.446500  1
  O  O6338  1  0.553500  0.993800  0.303800  1
  O  O6339  1  0.196500  0.053800  0.256200  1
  O  O6340  1  0.803500  0.446200  0.256200  1
  O  O6341  1  0.446200  0.743800  0.696500  1
  O  O6342  1  0.446200  0.256200  0.803500  1
  O  O6343  1  0.243800  0.803500  0.553800  1
  O  O6344  1  0.256200  0.803500  0.446200  1
  O  O6345  1  0.696200  0.053500  0.506200  1
  O  O6346  1  0.303500  0.053800  0.743800  1
  O  O6347  1  0.303800  0.446500  0.506200  1
  O  O6348  1  0.196500  0.946200  0.243800  1
  O  O6349  1  0.553800  0.756200  0.696500  1
  O  O6350  1  0.696200  0.946500  0.993800  1
  O  O6351  1  0.053800  0.743800  0.303500  1
  O  O6352  1  0.243800  0.196500  0.946200  1
  O  O6353  1  0.803800  0.053500  0.493800  1
  O  O6354  1  0.756200  0.696500  0.553800  1
  O  O6355  1  0.506200  0.696200  0.053500  1
  O  O6356  1  0.053500  0.506200  0.696200  1
  O  O6357  1  0.946500  0.993800  0.696200  1
  O  O6358  1  0.506200  0.303800  0.446500  1
  O  O6359  1  0.446500  0.506200  0.303800  1
  O  O6360  1  0.493800  0.803800  0.053500  1
  O  O6361  1  0.993800  0.696200  0.946500  1
  O  O6362  1  0.053500  0.493800  0.803800  1
  O  O6363  1  0.696500  0.553800  0.756200  1
  O  O6364  1  0.303500  0.946200  0.756200  1
  O  O6365  1  0.946200  0.243800  0.196500  1
  O  O6366  1  0.946200  0.756200  0.303500  1
  O  O6367  1  0.743800  0.303500  0.053800  1
  O  O6368  1  0.756200  0.303500  0.946200  1
  O  O6369  1  0.152650  0.698740  0.839910  1.0
  O  O6370  1  0.948740  0.597350  0.410090  1.0
  O  O6371  1  0.847350  0.801260  0.839910  1.0
  O  O6372  1  0.551260  0.402650  0.910090  1.0
  O  O6373  1  0.097350  0.089910  0.051260  1.0
  O  O6374  1  0.152650  0.301260  0.660090  1.0
  O  O6375  1  0.597350  0.410090  0.948740  1.0
  O  O6376  1  0.910090  0.551260  0.402650  1.0
  O  O6377  1  0.347350  0.698740  0.160090  1.0
  O  O6378  1  0.089910  0.051260  0.097350  1.0
  O  O6379  1  0.839910  0.152650  0.698740  1.0
  O  O6380  1  0.698740  0.839910  0.152650  1.0
  O  O6381  1  0.301260  0.660090  0.152650  1.0
  O  O6382  1  0.839910  0.847350  0.801260  1.0
  O  O6383  1  0.801260  0.839910  0.847350  1.0
  O  O6384  1  0.160090  0.347350  0.698740  1.0
  O  O6385  1  0.660090  0.152650  0.301260  1.0
  O  O6386  1  0.698740  0.160090  0.347350  1.0
  O  O6387  1  0.051260  0.097350  0.089910  1.0
  O  O6388  1  0.948740  0.402650  0.089910  1.0
  O  O6389  1  0.402650  0.910090  0.551260  1.0
  O  O6390  1  0.402650  0.089910  0.948740  1.0
  O  O6391  1  0.410090  0.948740  0.597350  1.0
  O  O6392  1  0.089910  0.948740  0.402650  1.0
  O  O6393  1  0.652650  0.198740  0.339910  1.0
  O  O6394  1  0.448740  0.097350  0.910090  1.0
  O  O6395  1  0.347350  0.301260  0.339910  1.0
  O  O6396  1  0.051260  0.902650  0.410090  1.0
  O  O6397  1  0.597350  0.589910  0.551260  1.0
  O  O6398  1  0.652650  0.801260  0.160090  1.0
  O  O6399  1  0.097350  0.910090  0.448740  1.0
  O  O6400  1  0.410090  0.051260  0.902650  1.0
  O  O6401  1  0.847350  0.198740  0.660090  1.0
  O  O6402  1  0.589910  0.551260  0.597350  1.0
  O  O6403  1  0.339910  0.652650  0.198740  1.0
  O  O6404  1  0.198740  0.339910  0.652650  1.0
  O  O6405  1  0.801260  0.160090  0.652650  1.0
  O  O6406  1  0.339910  0.347350  0.301260  1.0
  O  O6407  1  0.301260  0.339910  0.347350  1.0
  O  O6408  1  0.660090  0.847350  0.198740  1.0
  O  O6409  1  0.160090  0.652650  0.801260  1.0
  O  O6410  1  0.198740  0.660090  0.847350  1.0
  O  O6411  1  0.551260  0.597350  0.589910  1.0
  O  O6412  1  0.448740  0.902650  0.589910  1.0
  O  O6413  1  0.902650  0.410090  0.051260  1.0
  O  O6414  1  0.902650  0.589910  0.448740  1.0
  O  O6415  1  0.910090  0.448740  0.097350  1.0
  O  O6416  1  0.589910  0.448740  0.902650  1.0
  O  O6417  1  0.151380  0.659710  0.886300  1.0
  O  O6418  1  0.909710  0.598620  0.363700  1.0
  O  O6419  1  0.848620  0.840290  0.886300  1.0
  O  O6420  1  0.590290  0.401380  0.863700  1.0
  O  O6421  1  0.098620  0.136300  0.090290  1.0
  O  O6422  1  0.151380  0.340290  0.613700  1.0
  O  O6423  1  0.598620  0.363700  0.909710  1.0
  O  O6424  1  0.863700  0.590290  0.401380  1.0
  O  O6425  1  0.348620  0.659710  0.113700  1.0
  O  O6426  1  0.136300  0.090290  0.098620  1.0
  O  O6427  1  0.886300  0.151380  0.659710  1.0
  O  O6428  1  0.659710  0.886300  0.151380  1.0
  O  O6429  1  0.340290  0.613700  0.151380  1.0
  O  O6430  1  0.886300  0.848620  0.840290  1.0
  O  O6431  1  0.840290  0.886300  0.848620  1.0
  O  O6432  1  0.113700  0.348620  0.659710  1.0
  O  O6433  1  0.613700  0.151380  0.340290  1.0
  O  O6434  1  0.659710  0.113700  0.348620  1.0
  O  O6435  1  0.090290  0.098620  0.136300  1.0
  O  O6436  1  0.909710  0.401380  0.136300  1.0
  O  O6437  1  0.401380  0.863700  0.590290  1.0
  O  O6438  1  0.401380  0.136300  0.909710  1.0
  O  O6439  1  0.363700  0.909710  0.598620  1.0
  O  O6440  1  0.136300  0.909710  0.401380  1.0
  O  O6441  1  0.651380  0.159710  0.386300  1.0
  O  O6442  1  0.409710  0.098620  0.863700  1.0
  O  O6443  1  0.348620  0.340290  0.386300  1.0
  O  O6444  1  0.090290  0.901380  0.363700  1.0
  O  O6445  1  0.598620  0.636300  0.590290  1.0
  O  O6446  1  0.651380  0.840290  0.113700  1.0
  O  O6447  1  0.098620  0.863700  0.409710  1.0
  O  O6448  1  0.363700  0.090290  0.901380  1.0
  O  O6449  1  0.848620  0.159710  0.613700  1.0
  O  O6450  1  0.636300  0.590290  0.598620  1.0
  O  O6451  1  0.386300  0.651380  0.159710  1.0
  O  O6452  1  0.159710  0.386300  0.651380  1.0
  O  O6453  1  0.840290  0.113700  0.651380  1.0
  O  O6454  1  0.386300  0.348620  0.340290  1.0
  O  O6455  1  0.340290  0.386300  0.348620  1.0
  O  O6456  1  0.613700  0.848620  0.159710  1.0
  O  O6457  1  0.113700  0.651380  0.840290  1.0
  O  O6458  1  0.159710  0.613700  0.848620  1.0
  O  O6459  1  0.590290  0.598620  0.636300  1.0
  O  O6460  1  0.409710  0.901380  0.636300  1.0
  O  O6461  1  0.901380  0.363700  0.090290  1.0
  O  O6462  1  0.901380  0.636300  0.409710  1.0
  O  O6463  1  0.863700  0.409710  0.098620  1.0
  O  O6464  1  0.636300  0.409710  0.901380  1.0
  O  O6465  1  0.976360  0.522800  0.015600  1.0
  O  O6466  1  0.772800  0.773640  0.234400  1.0
  O  O6467  1  0.023640  0.977200  0.015600  1.0
  O  O6468  1  0.727200  0.226360  0.734400  1.0
  O  O6469  1  0.273640  0.265600  0.227200  1.0
  O  O6470  1  0.976360  0.477200  0.484400  1.0
  O  O6471  1  0.773640  0.234400  0.772800  1.0
  O  O6472  1  0.734400  0.727200  0.226360  1.0
  O  O6473  1  0.523640  0.522800  0.984400  1.0
  O  O6474  1  0.265600  0.227200  0.273640  1.0
  O  O6475  1  0.015600  0.976360  0.522800  1.0
  O  O6476  1  0.522800  0.015600  0.976360  1.0
  O  O6477  1  0.477200  0.484400  0.976360  1.0
  O  O6478  1  0.015600  0.023640  0.977200  1.0
  O  O6479  1  0.977200  0.015600  0.023640  1.0
  O  O6480  1  0.984400  0.523640  0.522800  1.0
  O  O6481  1  0.484400  0.976360  0.477200  1.0
  O  O6482  1  0.522800  0.984400  0.523640  1.0
  O  O6483  1  0.227200  0.273640  0.265600  1.0
  O  O6484  1  0.772800  0.226360  0.265600  1.0
  O  O6485  1  0.226360  0.734400  0.727200  1.0
  O  O6486  1  0.226360  0.265600  0.772800  1.0
  O  O6487  1  0.234400  0.772800  0.773640  1.0
  O  O6488  1  0.265600  0.772800  0.226360  1.0
  O  O6489  1  0.476360  0.022800  0.515600  1.0
  O  O6490  1  0.272800  0.273640  0.734400  1.0
  O  O6491  1  0.523640  0.477200  0.515600  1.0
  O  O6492  1  0.227200  0.726360  0.234400  1.0
  O  O6493  1  0.773640  0.765600  0.727200  1.0
  O  O6494  1  0.476360  0.977200  0.984400  1.0
  O  O6495  1  0.273640  0.734400  0.272800  1.0
  O  O6496  1  0.234400  0.227200  0.726360  1.0
  O  O6497  1  0.023640  0.022800  0.484400  1.0
  O  O6498  1  0.765600  0.727200  0.773640  1.0
  O  O6499  1  0.515600  0.476360  0.022800  1.0
  O  O6500  1  0.022800  0.515600  0.476360  1.0
  O  O6501  1  0.977200  0.984400  0.476360  1.0
  O  O6502  1  0.515600  0.523640  0.477200  1.0
  O  O6503  1  0.477200  0.515600  0.523640  1.0
  O  O6504  1  0.484400  0.023640  0.022800  1.0
  O  O6505  1  0.984400  0.476360  0.977200  1.0
  O  O6506  1  0.022800  0.484400  0.023640  1.0
  O  O6507  1  0.727200  0.773640  0.765600  1.0
  O  O6508  1  0.272800  0.726360  0.765600  1.0
  O  O6509  1  0.726360  0.234400  0.227200  1.0
  O  O6510  1  0.726360  0.765600  0.272800  1.0
  O  O6511  1  0.734400  0.272800  0.273640  1.0
  O  O6512  1  0.765600  0.272800  0.726360  1.0
  O  O6513  1  0.033840  0.541320  0.004060  1.0
  O  O6514  1  0.791320  0.716160  0.245940  1.0
  O  O6515  1  0.966160  0.958680  0.004060  1.0
  O  O6516  1  0.708680  0.283840  0.745940  1.0
  O  O6517  1  0.216160  0.254060  0.208680  1.0
  O  O6518  1  0.033840  0.458680  0.495940  1.0
  O  O6519  1  0.716160  0.245940  0.791320  1.0
  O  O6520  1  0.745940  0.708680  0.283840  1.0
  O  O6521  1  0.466160  0.541320  0.995940  1.0
  O  O6522  1  0.254060  0.208680  0.216160  1.0
  O  O6523  1  0.004060  0.033840  0.541320  1.0
  O  O6524  1  0.541320  0.004060  0.033840  1.0
  O  O6525  1  0.458680  0.495940  0.033840  1.0
  O  O6526  1  0.004060  0.966160  0.958680  1.0
  O  O6527  1  0.958680  0.004060  0.966160  1.0
  O  O6528  1  0.995940  0.466160  0.541320  1.0
  O  O6529  1  0.495940  0.033840  0.458680  1.0
  O  O6530  1  0.541320  0.995940  0.466160  1.0
  O  O6531  1  0.208680  0.216160  0.254060  1.0
  O  O6532  1  0.791320  0.283840  0.254060  1.0
  O  O6533  1  0.283840  0.745940  0.708680  1.0
  O  O6534  1  0.283840  0.254060  0.791320  1.0
  O  O6535  1  0.245940  0.791320  0.716160  1.0
  O  O6536  1  0.254060  0.791320  0.283840  1.0
  O  O6537  1  0.533840  0.041320  0.504060  1.0
  O  O6538  1  0.291320  0.216160  0.745940  1.0
  O  O6539  1  0.466160  0.458680  0.504060  1.0
  O  O6540  1  0.208680  0.783840  0.245940  1.0
  O  O6541  1  0.716160  0.754060  0.708680  1.0
  O  O6542  1  0.533840  0.958680  0.995940  1.0
  O  O6543  1  0.216160  0.745940  0.291320  1.0
  O  O6544  1  0.245940  0.208680  0.783840  1.0
  O  O6545  1  0.966160  0.041320  0.495940  1.0
  O  O6546  1  0.754060  0.708680  0.716160  1.0
  O  O6547  1  0.504060  0.533840  0.041320  1.0
  O  O6548  1  0.041320  0.504060  0.533840  1.0
  O  O6549  1  0.958680  0.995940  0.533840  1.0
  O  O6550  1  0.504060  0.466160  0.458680  1.0
  O  O6551  1  0.458680  0.504060  0.466160  1.0
  O  O6552  1  0.495940  0.966160  0.041320  1.0
  O  O6553  1  0.995940  0.533840  0.958680  1.0
  O  O6554  1  0.041320  0.495940  0.966160  1.0
  O  O6555  1  0.708680  0.716160  0.754060  1.0
  O  O6556  1  0.291320  0.783840  0.754060  1.0
  O  O6557  1  0.783840  0.245940  0.208680  1.0
  O  O6558  1  0.783840  0.754060  0.291320  1.0
  O  O6559  1  0.745940  0.291320  0.216160  1.0
  O  O6560  1  0.754060  0.291320  0.783840  1.0
  F  F6561  1  0.040100  0.749600  0.025800  1
  F  F6562  1  0.999600  0.709900  0.224200  1
  F  F6563  1  0.959900  0.750400  0.025800  1
  F  F6564  1  0.500400  0.290100  0.724200  1
  F  F6565  1  0.209900  0.275800  0.000400  1
  F  F6566  1  0.040100  0.250400  0.474200  1
  F  F6567  1  0.709900  0.224200  0.999600  1
  F  F6568  1  0.724200  0.500400  0.290100  1
  F  F6569  1  0.459900  0.749600  0.974200  1
  F  F6570  1  0.275800  0.000400  0.209900  1
  F  F6571  1  0.025800  0.040100  0.749600  1
  F  F6572  1  0.749600  0.025800  0.040100  1
  F  F6573  1  0.250400  0.474200  0.040100  1
  F  F6574  1  0.025800  0.959900  0.750400  1
  F  F6575  1  0.750400  0.025800  0.959900  1
  F  F6576  1  0.974200  0.459900  0.749600  1
  F  F6577  1  0.474200  0.040100  0.250400  1
  F  F6578  1  0.749600  0.974200  0.459900  1
  F  F6579  1  0.000400  0.209900  0.275800  1
  F  F6580  1  0.999600  0.290100  0.275800  1
  F  F6581  1  0.290100  0.724200  0.500400  1
  F  F6582  1  0.290100  0.275800  0.999600  1
  F  F6583  1  0.224200  0.999600  0.709900  1
  F  F6584  1  0.275800  0.999600  0.290100  1
  F  F6585  1  0.540100  0.249600  0.525800  1
  F  F6586  1  0.499600  0.209900  0.724200  1
  F  F6587  1  0.459900  0.250400  0.525800  1
  F  F6588  1  0.000400  0.790100  0.224200  1
  F  F6589  1  0.709900  0.775800  0.500400  1
  F  F6590  1  0.540100  0.750400  0.974200  1
  F  F6591  1  0.209900  0.724200  0.499600  1
  F  F6592  1  0.224200  0.000400  0.790100  1
  F  F6593  1  0.959900  0.249600  0.474200  1
  F  F6594  1  0.775800  0.500400  0.709900  1
  F  F6595  1  0.525800  0.540100  0.249600  1
  F  F6596  1  0.249600  0.525800  0.540100  1
  F  F6597  1  0.750400  0.974200  0.540100  1
  F  F6598  1  0.525800  0.459900  0.250400  1
  F  F6599  1  0.250400  0.525800  0.459900  1
  F  F6600  1  0.474200  0.959900  0.249600  1
  F  F6601  1  0.974200  0.540100  0.750400  1
  F  F6602  1  0.249600  0.474200  0.959900  1
  F  F6603  1  0.500400  0.709900  0.775800  1
  F  F6604  1  0.499600  0.790100  0.775800  1
  F  F6605  1  0.790100  0.224200  0.000400  1
  F  F6606  1  0.790100  0.775800  0.499600  1
  F  F6607  1  0.724200  0.499600  0.209900  1
  F  F6608  1  0.775800  0.499600  0.790100  1
  F  F6609  1  0.085600  0.758300  0.006700  1
  F  F6610  1  0.008300  0.664400  0.243300  1
  F  F6611  1  0.914400  0.741700  0.006700  1
  F  F6612  1  0.491700  0.335600  0.743300  1
  F  F6613  1  0.164400  0.256700  0.991700  1
  F  F6614  1  0.085600  0.241700  0.493300  1
  F  F6615  1  0.664400  0.243300  0.008300  1
  F  F6616  1  0.743300  0.491700  0.335600  1
  F  F6617  1  0.414400  0.758300  0.993300  1
  F  F6618  1  0.256700  0.991700  0.164400  1
  F  F6619  1  0.006700  0.085600  0.758300  1
  F  F6620  1  0.758300  0.006700  0.085600  1
  F  F6621  1  0.241700  0.493300  0.085600  1
  F  F6622  1  0.006700  0.914400  0.741700  1
  F  F6623  1  0.741700  0.006700  0.914400  1
  F  F6624  1  0.993300  0.414400  0.758300  1
  F  F6625  1  0.493300  0.085600  0.241700  1
  F  F6626  1  0.758300  0.993300  0.414400  1
  F  F6627  1  0.991700  0.164400  0.256700  1
  F  F6628  1  0.008300  0.335600  0.256700  1
  F  F6629  1  0.335600  0.743300  0.491700  1
  F  F6630  1  0.335600  0.256700  0.008300  1
  F  F6631  1  0.243300  0.008300  0.664400  1
  F  F6632  1  0.256700  0.008300  0.335600  1
  F  F6633  1  0.585600  0.258300  0.506700  1
  F  F6634  1  0.508300  0.164400  0.743300  1
  F  F6635  1  0.414400  0.241700  0.506700  1
  F  F6636  1  0.991700  0.835600  0.243300  1
  F  F6637  1  0.664400  0.756700  0.491700  1
  F  F6638  1  0.585600  0.741700  0.993300  1
  F  F6639  1  0.164400  0.743300  0.508300  1
  F  F6640  1  0.243300  0.991700  0.835600  1
  F  F6641  1  0.914400  0.258300  0.493300  1
  F  F6642  1  0.756700  0.491700  0.664400  1
  F  F6643  1  0.506700  0.585600  0.258300  1
  F  F6644  1  0.258300  0.506700  0.585600  1
  F  F6645  1  0.741700  0.993300  0.585600  1
  F  F6646  1  0.506700  0.414400  0.241700  1
  F  F6647  1  0.241700  0.506700  0.414400  1
  F  F6648  1  0.493300  0.914400  0.258300  1
  F  F6649  1  0.993300  0.585600  0.741700  1
  F  F6650  1  0.258300  0.493300  0.914400  1
  F  F6651  1  0.491700  0.664400  0.756700  1
  F  F6652  1  0.508300  0.835600  0.756700  1
  F  F6653  1  0.835600  0.243300  0.991700  1
  F  F6654  1  0.835600  0.756700  0.508300  1
  F  F6655  1  0.743300  0.508300  0.164400  1
  F  F6656  1  0.756700  0.508300  0.835600  1
  F  F6657  1  0.062900  0.788500  0.039300  1
  F  F6658  1  0.038500  0.687100  0.210700  1
  F  F6659  1  0.937100  0.711500  0.039300  1
  F  F6660  1  0.461500  0.312900  0.710700  1
  F  F6661  1  0.187100  0.289300  0.961500  1
  F  F6662  1  0.062900  0.211500  0.460700  1
  F  F6663  1  0.687100  0.210700  0.038500  1
  F  F6664  1  0.710700  0.461500  0.312900  1
  F  F6665  1  0.437100  0.788500  0.960700  1
  F  F6666  1  0.289300  0.961500  0.187100  1
  F  F6667  1  0.039300  0.062900  0.788500  1
  F  F6668  1  0.788500  0.039300  0.062900  1
  F  F6669  1  0.211500  0.460700  0.062900  1
  F  F6670  1  0.039300  0.937100  0.711500  1
  F  F6671  1  0.711500  0.039300  0.937100  1
  F  F6672  1  0.960700  0.437100  0.788500  1
  F  F6673  1  0.460700  0.062900  0.211500  1
  F  F6674  1  0.788500  0.960700  0.437100  1
  F  F6675  1  0.961500  0.187100  0.289300  1
  F  F6676  1  0.038500  0.312900  0.289300  1
  F  F6677  1  0.312900  0.710700  0.461500  1
  F  F6678  1  0.312900  0.289300  0.038500  1
  F  F6679  1  0.210700  0.038500  0.687100  1
  F  F6680  1  0.289300  0.038500  0.312900  1
  F  F6681  1  0.562900  0.288500  0.539300  1
  F  F6682  1  0.538500  0.187100  0.710700  1
  F  F6683  1  0.437100  0.211500  0.539300  1
  F  F6684  1  0.961500  0.812900  0.210700  1
  F  F6685  1  0.687100  0.789300  0.461500  1
  F  F6686  1  0.562900  0.711500  0.960700  1
  F  F6687  1  0.187100  0.710700  0.538500  1
  F  F6688  1  0.210700  0.961500  0.812900  1
  F  F6689  1  0.937100  0.288500  0.460700  1
  F  F6690  1  0.789300  0.461500  0.687100  1
  F  F6691  1  0.539300  0.562900  0.288500  1
  F  F6692  1  0.288500  0.539300  0.562900  1
  F  F6693  1  0.711500  0.960700  0.562900  1
  F  F6694  1  0.539300  0.437100  0.211500  1
  F  F6695  1  0.211500  0.539300  0.437100  1
  F  F6696  1  0.460700  0.937100  0.288500  1
  F  F6697  1  0.960700  0.562900  0.711500  1
  F  F6698  1  0.288500  0.460700  0.937100  1
  F  F6699  1  0.461500  0.687100  0.789300  1
  F  F6700  1  0.538500  0.812900  0.789300  1
  F  F6701  1  0.812900  0.210700  0.961500  1
  F  F6702  1  0.812900  0.789300  0.538500  1
  F  F6703  1  0.710700  0.538500  0.187100  1
  F  F6704  1  0.789300  0.538500  0.812900  1
  F  F6705  1  0.224500  0.543100  0.967600  1
  F  F6706  1  0.793100  0.525500  0.282400  1
  F  F6707  1  0.775500  0.956900  0.967600  1
  F  F6708  1  0.706900  0.474500  0.782400  1
  F  F6709  1  0.025500  0.217600  0.206900  1
  F  F6710  1  0.224500  0.456900  0.532400  1
  F  F6711  1  0.525500  0.282400  0.793100  1
  F  F6712  1  0.782400  0.706900  0.474500  1
  F  F6713  1  0.275500  0.543100  0.032400  1
  F  F6714  1  0.217600  0.206900  0.025500  1
  F  F6715  1  0.967600  0.224500  0.543100  1
  F  F6716  1  0.543100  0.967600  0.224500  1
  F  F6717  1  0.456900  0.532400  0.224500  1
  F  F6718  1  0.967600  0.775500  0.956900  1
  F  F6719  1  0.956900  0.967600  0.775500  1
  F  F6720  1  0.032400  0.275500  0.543100  1
  F  F6721  1  0.532400  0.224500  0.456900  1
  F  F6722  1  0.543100  0.032400  0.275500  1
  F  F6723  1  0.206900  0.025500  0.217600  1
  F  F6724  1  0.793100  0.474500  0.217600  1
  F  F6725  1  0.474500  0.782400  0.706900  1
  F  F6726  1  0.474500  0.217600  0.793100  1
  F  F6727  1  0.282400  0.793100  0.525500  1
  F  F6728  1  0.217600  0.793100  0.474500  1
  F  F6729  1  0.724500  0.043100  0.467600  1
  F  F6730  1  0.293100  0.025500  0.782400  1
  F  F6731  1  0.275500  0.456900  0.467600  1
  F  F6732  1  0.206900  0.974500  0.282400  1
  F  F6733  1  0.525500  0.717600  0.706900  1
  F  F6734  1  0.724500  0.956900  0.032400  1
  F  F6735  1  0.025500  0.782400  0.293100  1
  F  F6736  1  0.282400  0.206900  0.974500  1
  F  F6737  1  0.775500  0.043100  0.532400  1
  F  F6738  1  0.717600  0.706900  0.525500  1
  F  F6739  1  0.467600  0.724500  0.043100  1
  F  F6740  1  0.043100  0.467600  0.724500  1
  F  F6741  1  0.956900  0.032400  0.724500  1
  F  F6742  1  0.467600  0.275500  0.456900  1
  F  F6743  1  0.456900  0.467600  0.275500  1
  F  F6744  1  0.532400  0.775500  0.043100  1
  F  F6745  1  0.032400  0.724500  0.956900  1
  F  F6746  1  0.043100  0.532400  0.775500  1
  F  F6747  1  0.706900  0.525500  0.717600  1
  F  F6748  1  0.293100  0.974500  0.717600  1
  F  F6749  1  0.974500  0.282400  0.206900  1
  F  F6750  1  0.974500  0.717600  0.293100  1
  F  F6751  1  0.782400  0.293100  0.025500  1
  F  F6752  1  0.717600  0.293100  0.974500  1
  F  F6753  1  0.190700  0.513500  0.951500  1
  F  F6754  1  0.763500  0.559300  0.298500  1
  F  F6755  1  0.809300  0.986500  0.951500  1
  F  F6756  1  0.736500  0.440700  0.798500  1
  F  F6757  1  0.059300  0.201500  0.236500  1
  F  F6758  1  0.190700  0.486500  0.548500  1
  F  F6759  1  0.559300  0.298500  0.763500  1
  F  F6760  1  0.798500  0.736500  0.440700  1
  F  F6761  1  0.309300  0.513500  0.048500  1
  F  F6762  1  0.201500  0.236500  0.059300  1
  F  F6763  1  0.951500  0.190700  0.513500  1
  F  F6764  1  0.513500  0.951500  0.190700  1
  F  F6765  1  0.486500  0.548500  0.190700  1
  F  F6766  1  0.951500  0.809300  0.986500  1
  F  F6767  1  0.986500  0.951500  0.809300  1
  F  F6768  1  0.048500  0.309300  0.513500  1
  F  F6769  1  0.548500  0.190700  0.486500  1
  F  F6770  1  0.513500  0.048500  0.309300  1
  F  F6771  1  0.236500  0.059300  0.201500  1
  F  F6772  1  0.763500  0.440700  0.201500  1
  F  F6773  1  0.440700  0.798500  0.736500  1
  F  F6774  1  0.440700  0.201500  0.763500  1
  F  F6775  1  0.298500  0.763500  0.559300  1
  F  F6776  1  0.201500  0.763500  0.440700  1
  F  F6777  1  0.690700  0.013500  0.451500  1
  F  F6778  1  0.263500  0.059300  0.798500  1
  F  F6779  1  0.309300  0.486500  0.451500  1
  F  F6780  1  0.236500  0.940700  0.298500  1
  F  F6781  1  0.559300  0.701500  0.736500  1
  F  F6782  1  0.690700  0.986500  0.048500  1
  F  F6783  1  0.059300  0.798500  0.263500  1
  F  F6784  1  0.298500  0.236500  0.940700  1
  F  F6785  1  0.809300  0.013500  0.548500  1
  F  F6786  1  0.701500  0.736500  0.559300  1
  F  F6787  1  0.451500  0.690700  0.013500  1
  F  F6788  1  0.013500  0.451500  0.690700  1
  F  F6789  1  0.986500  0.048500  0.690700  1
  F  F6790  1  0.451500  0.309300  0.486500  1
  F  F6791  1  0.486500  0.451500  0.309300  1
  F  F6792  1  0.548500  0.809300  0.013500  1
  F  F6793  1  0.048500  0.690700  0.986500  1
  F  F6794  1  0.013500  0.548500  0.809300  1
  F  F6795  1  0.736500  0.559300  0.701500  1
  F  F6796  1  0.263500  0.940700  0.701500  1
  F  F6797  1  0.940700  0.298500  0.236500  1
  F  F6798  1  0.940700  0.701500  0.263500  1
  F  F6799  1  0.798500  0.263500  0.059300  1
  F  F6800  1  0.701500  0.263500  0.940700  1
  F  F6801  1  0.200400  0.515000  0.998200  1
  F  F6802  1  0.765000  0.549600  0.251800  1
  F  F6803  1  0.799600  0.985000  0.998200  1
  F  F6804  1  0.735000  0.450400  0.751800  1
  F  F6805  1  0.049600  0.248200  0.235000  1
  F  F6806  1  0.200400  0.485000  0.501800  1
  F  F6807  1  0.549600  0.251800  0.765000  1
  F  F6808  1  0.751800  0.735000  0.450400  1
  F  F6809  1  0.299600  0.515000  0.001800  1
  F  F6810  1  0.248200  0.235000  0.049600  1
  F  F6811  1  0.998200  0.200400  0.515000  1
  F  F6812  1  0.515000  0.998200  0.200400  1
  F  F6813  1  0.485000  0.501800  0.200400  1
  F  F6814  1  0.998200  0.799600  0.985000  1
  F  F6815  1  0.985000  0.998200  0.799600  1
  F  F6816  1  0.001800  0.299600  0.515000  1
  F  F6817  1  0.501800  0.200400  0.485000  1
  F  F6818  1  0.515000  0.001800  0.299600  1
  F  F6819  1  0.235000  0.049600  0.248200  1
  F  F6820  1  0.765000  0.450400  0.248200  1
  F  F6821  1  0.450400  0.751800  0.735000  1
  F  F6822  1  0.450400  0.248200  0.765000  1
  F  F6823  1  0.251800  0.765000  0.549600  1
  F  F6824  1  0.248200  0.765000  0.450400  1
  F  F6825  1  0.700400  0.015000  0.498200  1
  F  F6826  1  0.265000  0.049600  0.751800  1
  F  F6827  1  0.299600  0.485000  0.498200  1
  F  F6828  1  0.235000  0.950400  0.251800  1
  F  F6829  1  0.549600  0.748200  0.735000  1
  F  F6830  1  0.700400  0.985000  0.001800  1
  F  F6831  1  0.049600  0.751800  0.265000  1
  F  F6832  1  0.251800  0.235000  0.950400  1
  F  F6833  1  0.799600  0.015000  0.501800  1
  F  F6834  1  0.748200  0.735000  0.549600  1
  F  F6835  1  0.498200  0.700400  0.015000  1
  F  F6836  1  0.015000  0.498200  0.700400  1
  F  F6837  1  0.985000  0.001800  0.700400  1
  F  F6838  1  0.498200  0.299600  0.485000  1
  F  F6839  1  0.485000  0.498200  0.299600  1
  F  F6840  1  0.501800  0.799600  0.015000  1
  F  F6841  1  0.001800  0.700400  0.985000  1
  F  F6842  1  0.015000  0.501800  0.799600  1
  F  F6843  1  0.735000  0.549600  0.748200  1
  F  F6844  1  0.265000  0.950400  0.748200  1
  F  F6845  1  0.950400  0.251800  0.235000  1
  F  F6846  1  0.950400  0.748200  0.265000  1
  F  F6847  1  0.751800  0.265000  0.049600  1
  F  F6848  1  0.748200  0.265000  0.950400  1
  F  F6849  1  0.028800  0.731700  0.051400  1
  F  F6850  1  0.981700  0.721200  0.198600  1
  F  F6851  1  0.971200  0.768300  0.051400  1
  F  F6852  1  0.518300  0.278800  0.698600  1
  F  F6853  1  0.221200  0.301400  0.018300  1
  F  F6854  1  0.028800  0.268300  0.448600  1
  F  F6855  1  0.721200  0.198600  0.981700  1
  F  F6856  1  0.698600  0.518300  0.278800  1
  F  F6857  1  0.471200  0.731700  0.948600  1
  F  F6858  1  0.301400  0.018300  0.221200  1
  F  F6859  1  0.051400  0.028800  0.731700  1
  F  F6860  1  0.731700  0.051400  0.028800  1
  F  F6861  1  0.268300  0.448600  0.028800  1
  F  F6862  1  0.051400  0.971200  0.768300  1
  F  F6863  1  0.768300  0.051400  0.971200  1
  F  F6864  1  0.948600  0.471200  0.731700  1
  F  F6865  1  0.448600  0.028800  0.268300  1
  F  F6866  1  0.731700  0.948600  0.471200  1
  F  F6867  1  0.018300  0.221200  0.301400  1
  F  F6868  1  0.981700  0.278800  0.301400  1
  F  F6869  1  0.278800  0.698600  0.518300  1
  F  F6870  1  0.278800  0.301400  0.981700  1
  F  F6871  1  0.198600  0.981700  0.721200  1
  F  F6872  1  0.301400  0.981700  0.278800  1
  F  F6873  1  0.528800  0.231700  0.551400  1
  F  F6874  1  0.481700  0.221200  0.698600  1
  F  F6875  1  0.471200  0.268300  0.551400  1
  F  F6876  1  0.018300  0.778800  0.198600  1
  F  F6877  1  0.721200  0.801400  0.518300  1
  F  F6878  1  0.528800  0.768300  0.948600  1
  F  F6879  1  0.221200  0.698600  0.481700  1
  F  F6880  1  0.198600  0.018300  0.778800  1
  F  F6881  1  0.971200  0.231700  0.448600  1
  F  F6882  1  0.801400  0.518300  0.721200  1
  F  F6883  1  0.551400  0.528800  0.231700  1
  F  F6884  1  0.231700  0.551400  0.528800  1
  F  F6885  1  0.768300  0.948600  0.528800  1
  F  F6886  1  0.551400  0.471200  0.268300  1
  F  F6887  1  0.268300  0.551400  0.471200  1
  F  F6888  1  0.448600  0.971200  0.231700  1
  F  F6889  1  0.948600  0.528800  0.768300  1
  F  F6890  1  0.231700  0.448600  0.971200  1
  F  F6891  1  0.518300  0.721200  0.801400  1
  F  F6892  1  0.481700  0.778800  0.801400  1
  F  F6893  1  0.778800  0.198600  0.018300  1
  F  F6894  1  0.778800  0.801400  0.481700  1
  F  F6895  1  0.698600  0.481700  0.221200  1
  F  F6896  1  0.801400  0.481700  0.778800  1
  F  F6897  1  0.032900  0.698100  0.087900  1
  F  F6898  1  0.948100  0.717100  0.162100  1
  F  F6899  1  0.967100  0.801900  0.087900  1
  F  F6900  1  0.551900  0.282900  0.662100  1
  F  F6901  1  0.217100  0.337900  0.051900  1
  F  F6902  1  0.032900  0.301900  0.412100  1
  F  F6903  1  0.717100  0.162100  0.948100  1
  F  F6904  1  0.662100  0.551900  0.282900  1
  F  F6905  1  0.467100  0.698100  0.912100  1
  F  F6906  1  0.337900  0.051900  0.217100  1
  F  F6907  1  0.087900  0.032900  0.698100  1
  F  F6908  1  0.698100  0.087900  0.032900  1
  F  F6909  1  0.301900  0.412100  0.032900  1
  F  F6910  1  0.087900  0.967100  0.801900  1
  F  F6911  1  0.801900  0.087900  0.967100  1
  F  F6912  1  0.912100  0.467100  0.698100  1
  F  F6913  1  0.412100  0.032900  0.301900  1
  F  F6914  1  0.698100  0.912100  0.467100  1
  F  F6915  1  0.051900  0.217100  0.337900  1
  F  F6916  1  0.948100  0.282900  0.337900  1
  F  F6917  1  0.282900  0.662100  0.551900  1
  F  F6918  1  0.282900  0.337900  0.948100  1
  F  F6919  1  0.162100  0.948100  0.717100  1
  F  F6920  1  0.337900  0.948100  0.282900  1
  F  F6921  1  0.532900  0.198100  0.587900  1
  F  F6922  1  0.448100  0.217100  0.662100  1
  F  F6923  1  0.467100  0.301900  0.587900  1
  F  F6924  1  0.051900  0.782900  0.162100  1
  F  F6925  1  0.717100  0.837900  0.551900  1
  F  F6926  1  0.532900  0.801900  0.912100  1
  F  F6927  1  0.217100  0.662100  0.448100  1
  F  F6928  1  0.162100  0.051900  0.782900  1
  F  F6929  1  0.967100  0.198100  0.412100  1
  F  F6930  1  0.837900  0.551900  0.717100  1
  F  F6931  1  0.587900  0.532900  0.198100  1
  F  F6932  1  0.198100  0.587900  0.532900  1
  F  F6933  1  0.801900  0.912100  0.532900  1
  F  F6934  1  0.587900  0.467100  0.301900  1
  F  F6935  1  0.301900  0.587900  0.467100  1
  F  F6936  1  0.412100  0.967100  0.198100  1
  F  F6937  1  0.912100  0.532900  0.801900  1
  F  F6938  1  0.198100  0.412100  0.967100  1
  F  F6939  1  0.551900  0.717100  0.837900  1
  F  F6940  1  0.448100  0.782900  0.837900  1
  F  F6941  1  0.782900  0.162100  0.051900  1
  F  F6942  1  0.782900  0.837900  0.448100  1
  F  F6943  1  0.662100  0.448100  0.217100  1
  F  F6944  1  0.837900  0.448100  0.782900  1
  F  F6945  1  0.032100  0.747000  0.097500  1
  F  F6946  1  0.997000  0.717900  0.152500  1
  F  F6947  1  0.967900  0.753000  0.097500  1
  F  F6948  1  0.503000  0.282100  0.652500  1
  F  F6949  1  0.217900  0.347500  0.003000  1
  F  F6950  1  0.032100  0.253000  0.402500  1
  F  F6951  1  0.717900  0.152500  0.997000  1
  F  F6952  1  0.652500  0.503000  0.282100  1
  F  F6953  1  0.467900  0.747000  0.902500  1
  F  F6954  1  0.347500  0.003000  0.217900  1
  F  F6955  1  0.097500  0.032100  0.747000  1
  F  F6956  1  0.747000  0.097500  0.032100  1
  F  F6957  1  0.253000  0.402500  0.032100  1
  F  F6958  1  0.097500  0.967900  0.753000  1
  F  F6959  1  0.753000  0.097500  0.967900  1
  F  F6960  1  0.902500  0.467900  0.747000  1
  F  F6961  1  0.402500  0.032100  0.253000  1
  F  F6962  1  0.747000  0.902500  0.467900  1
  F  F6963  1  0.003000  0.217900  0.347500  1
  F  F6964  1  0.997000  0.282100  0.347500  1
  F  F6965  1  0.282100  0.652500  0.503000  1
  F  F6966  1  0.282100  0.347500  0.997000  1
  F  F6967  1  0.152500  0.997000  0.717900  1
  F  F6968  1  0.347500  0.997000  0.282100  1
  F  F6969  1  0.532100  0.247000  0.597500  1
  F  F6970  1  0.497000  0.217900  0.652500  1
  F  F6971  1  0.467900  0.253000  0.597500  1
  F  F6972  1  0.003000  0.782100  0.152500  1
  F  F6973  1  0.717900  0.847500  0.503000  1
  F  F6974  1  0.532100  0.753000  0.902500  1
  F  F6975  1  0.217900  0.652500  0.497000  1
  F  F6976  1  0.152500  0.003000  0.782100  1
  F  F6977  1  0.967900  0.247000  0.402500  1
  F  F6978  1  0.847500  0.503000  0.717900  1
  F  F6979  1  0.597500  0.532100  0.247000  1
  F  F6980  1  0.247000  0.597500  0.532100  1
  F  F6981  1  0.753000  0.902500  0.532100  1
  F  F6982  1  0.597500  0.467900  0.253000  1
  F  F6983  1  0.253000  0.597500  0.467900  1
  F  F6984  1  0.402500  0.967900  0.247000  1
  F  F6985  1  0.902500  0.532100  0.753000  1
  F  F6986  1  0.247000  0.402500  0.967900  1
  F  F6987  1  0.503000  0.717900  0.847500  1
  F  F6988  1  0.497000  0.782100  0.847500  1
  F  F6989  1  0.782100  0.152500  0.003000  1
  F  F6990  1  0.782100  0.847500  0.497000  1
  F  F6991  1  0.652500  0.497000  0.217900  1
  F  F6992  1  0.847500  0.497000  0.782100  1
  F  F6993  1  0.131800  0.536600  0.980200  1
  F  F6994  1  0.786600  0.618200  0.269800  1
  F  F6995  1  0.868200  0.963400  0.980200  1
  F  F6996  1  0.713400  0.381800  0.769800  1
  F  F6997  1  0.118200  0.230200  0.213400  1
  F  F6998  1  0.131800  0.463400  0.519800  1
  F  F6999  1  0.618200  0.269800  0.786600  1
  F  F7000  1  0.769800  0.713400  0.381800  1
  F  F7001  1  0.368200  0.536600  0.019800  1
  F  F7002  1  0.230200  0.213400  0.118200  1
  F  F7003  1  0.980200  0.131800  0.536600  1
  F  F7004  1  0.536600  0.980200  0.131800  1
  F  F7005  1  0.463400  0.519800  0.131800  1
  F  F7006  1  0.980200  0.868200  0.963400  1
  F  F7007  1  0.963400  0.980200  0.868200  1
  F  F7008  1  0.019800  0.368200  0.536600  1
  F  F7009  1  0.519800  0.131800  0.463400  1
  F  F7010  1  0.536600  0.019800  0.368200  1
  F  F7011  1  0.213400  0.118200  0.230200  1
  F  F7012  1  0.786600  0.381800  0.230200  1
  F  F7013  1  0.381800  0.769800  0.713400  1
  F  F7014  1  0.381800  0.230200  0.786600  1
  F  F7015  1  0.269800  0.786600  0.618200  1
  F  F7016  1  0.230200  0.786600  0.381800  1
  F  F7017  1  0.631800  0.036600  0.480200  1
  F  F7018  1  0.286600  0.118200  0.769800  1
  F  F7019  1  0.368200  0.463400  0.480200  1
  F  F7020  1  0.213400  0.881800  0.269800  1
  F  F7021  1  0.618200  0.730200  0.713400  1
  F  F7022  1  0.631800  0.963400  0.019800  1
  F  F7023  1  0.118200  0.769800  0.286600  1
  F  F7024  1  0.269800  0.213400  0.881800  1
  F  F7025  1  0.868200  0.036600  0.519800  1
  F  F7026  1  0.730200  0.713400  0.618200  1
  F  F7027  1  0.480200  0.631800  0.036600  1
  F  F7028  1  0.036600  0.480200  0.631800  1
  F  F7029  1  0.963400  0.019800  0.631800  1
  F  F7030  1  0.480200  0.368200  0.463400  1
  F  F7031  1  0.463400  0.480200  0.368200  1
  F  F7032  1  0.519800  0.868200  0.036600  1
  F  F7033  1  0.019800  0.631800  0.963400  1
  F  F7034  1  0.036600  0.519800  0.868200  1
  F  F7035  1  0.713400  0.618200  0.730200  1
  F  F7036  1  0.286600  0.881800  0.730200  1
  F  F7037  1  0.881800  0.269800  0.213400  1
  F  F7038  1  0.881800  0.730200  0.286600  1
  F  F7039  1  0.769800  0.286600  0.118200  1
  F  F7040  1  0.730200  0.286600  0.881800  1
  F  F7041  1  0.175500  0.509400  0.996300  1
  F  F7042  1  0.759400  0.574500  0.253700  1
  F  F7043  1  0.824500  0.990600  0.996300  1
  F  F7044  1  0.740600  0.425500  0.753700  1
  F  F7045  1  0.074500  0.246300  0.240600  1
  F  F7046  1  0.175500  0.490600  0.503700  1
  F  F7047  1  0.574500  0.253700  0.759400  1
  F  F7048  1  0.753700  0.740600  0.425500  1
  F  F7049  1  0.324500  0.509400  0.003700  1
  F  F7050  1  0.246300  0.240600  0.074500  1
  F  F7051  1  0.996300  0.175500  0.509400  1
  F  F7052  1  0.509400  0.996300  0.175500  1
  F  F7053  1  0.490600  0.503700  0.175500  1
  F  F7054  1  0.996300  0.824500  0.990600  1
  F  F7055  1  0.990600  0.996300  0.824500  1
  F  F7056  1  0.003700  0.324500  0.509400  1
  F  F7057  1  0.503700  0.175500  0.490600  1
  F  F7058  1  0.509400  0.003700  0.324500  1
  F  F7059  1  0.240600  0.074500  0.246300  1
  F  F7060  1  0.759400  0.425500  0.246300  1
  F  F7061  1  0.425500  0.753700  0.740600  1
  F  F7062  1  0.425500  0.246300  0.759400  1
  F  F7063  1  0.253700  0.759400  0.574500  1
  F  F7064  1  0.246300  0.759400  0.425500  1
  F  F7065  1  0.675500  0.009400  0.496300  1
  F  F7066  1  0.259400  0.074500  0.753700  1
  F  F7067  1  0.324500  0.490600  0.496300  1
  F  F7068  1  0.240600  0.925500  0.253700  1
  F  F7069  1  0.574500  0.746300  0.740600  1
  F  F7070  1  0.675500  0.990600  0.003700  1
  F  F7071  1  0.074500  0.753700  0.259400  1
  F  F7072  1  0.253700  0.240600  0.925500  1
  F  F7073  1  0.824500  0.009400  0.503700  1
  F  F7074  1  0.746300  0.740600  0.574500  1
  F  F7075  1  0.496300  0.675500  0.009400  1
  F  F7076  1  0.009400  0.496300  0.675500  1
  F  F7077  1  0.990600  0.003700  0.675500  1
  F  F7078  1  0.496300  0.324500  0.490600  1
  F  F7079  1  0.490600  0.496300  0.324500  1
  F  F7080  1  0.503700  0.824500  0.009400  1
  F  F7081  1  0.003700  0.675500  0.990600  1
  F  F7082  1  0.009400  0.503700  0.824500  1
  F  F7083  1  0.740600  0.574500  0.746300  1
  F  F7084  1  0.259400  0.925500  0.746300  1
  F  F7085  1  0.925500  0.253700  0.240600  1
  F  F7086  1  0.925500  0.746300  0.259400  1
  F  F7087  1  0.753700  0.259400  0.074500  1
  F  F7088  1  0.746300  0.259400  0.925500  1
  F  F7089  1  0.162500  0.523200  0.942600  1
  F  F7090  1  0.773200  0.587500  0.307400  1
  F  F7091  1  0.837500  0.976800  0.942600  1
  F  F7092  1  0.726800  0.412500  0.807400  1
  F  F7093  1  0.087500  0.192600  0.226800  1
  F  F7094  1  0.162500  0.476800  0.557400  1
  F  F7095  1  0.587500  0.307400  0.773200  1
  F  F7096  1  0.807400  0.726800  0.412500  1
  F  F7097  1  0.337500  0.523200  0.057400  1
  F  F7098  1  0.192600  0.226800  0.087500  1
  F  F7099  1  0.942600  0.162500  0.523200  1
  F  F7100  1  0.523200  0.942600  0.162500  1
  F  F7101  1  0.476800  0.557400  0.162500  1
  F  F7102  1  0.942600  0.837500  0.976800  1
  F  F7103  1  0.976800  0.942600  0.837500  1
  F  F7104  1  0.057400  0.337500  0.523200  1
  F  F7105  1  0.557400  0.162500  0.476800  1
  F  F7106  1  0.523200  0.057400  0.337500  1
  F  F7107  1  0.226800  0.087500  0.192600  1
  F  F7108  1  0.773200  0.412500  0.192600  1
  F  F7109  1  0.412500  0.807400  0.726800  1
  F  F7110  1  0.412500  0.192600  0.773200  1
  F  F7111  1  0.307400  0.773200  0.587500  1
  F  F7112  1  0.192600  0.773200  0.412500  1
  F  F7113  1  0.662500  0.023200  0.442600  1
  F  F7114  1  0.273200  0.087500  0.807400  1
  F  F7115  1  0.337500  0.476800  0.442600  1
  F  F7116  1  0.226800  0.912500  0.307400  1
  F  F7117  1  0.587500  0.692600  0.726800  1
  F  F7118  1  0.662500  0.976800  0.057400  1
  F  F7119  1  0.087500  0.807400  0.273200  1
  F  F7120  1  0.307400  0.226800  0.912500  1
  F  F7121  1  0.837500  0.023200  0.557400  1
  F  F7122  1  0.692600  0.726800  0.587500  1
  F  F7123  1  0.442600  0.662500  0.023200  1
  F  F7124  1  0.023200  0.442600  0.662500  1
  F  F7125  1  0.976800  0.057400  0.662500  1
  F  F7126  1  0.442600  0.337500  0.476800  1
  F  F7127  1  0.476800  0.442600  0.337500  1
  F  F7128  1  0.557400  0.837500  0.023200  1
  F  F7129  1  0.057400  0.662500  0.976800  1
  F  F7130  1  0.023200  0.557400  0.837500  1
  F  F7131  1  0.726800  0.587500  0.692600  1
  F  F7132  1  0.273200  0.912500  0.692600  1
  F  F7133  1  0.912500  0.307400  0.226800  1
  F  F7134  1  0.912500  0.692600  0.273200  1
  F  F7135  1  0.807400  0.273200  0.087500  1
  F  F7136  1  0.692600  0.273200  0.912500  1
  F  F7137  1  0.163000  0.555000  0.940000  1
  F  F7138  1  0.805000  0.587000  0.310000  1
  F  F7139  1  0.837000  0.945000  0.940000  1
  F  F7140  1  0.695000  0.413000  0.810000  1
  F  F7141  1  0.087000  0.190000  0.195000  1
  F  F7142  1  0.163000  0.445000  0.560000  1
  F  F7143  1  0.587000  0.310000  0.805000  1
  F  F7144  1  0.810000  0.695000  0.413000  1
  F  F7145  1  0.337000  0.555000  0.060000  1
  F  F7146  1  0.190000  0.195000  0.087000  1
  F  F7147  1  0.940000  0.163000  0.555000  1
  F  F7148  1  0.555000  0.940000  0.163000  1
  F  F7149  1  0.445000  0.560000  0.163000  1
  F  F7150  1  0.940000  0.837000  0.945000  1
  F  F7151  1  0.945000  0.940000  0.837000  1
  F  F7152  1  0.060000  0.337000  0.555000  1
  F  F7153  1  0.560000  0.163000  0.445000  1
  F  F7154  1  0.555000  0.060000  0.337000  1
  F  F7155  1  0.195000  0.087000  0.190000  1
  F  F7156  1  0.805000  0.413000  0.190000  1
  F  F7157  1  0.413000  0.810000  0.695000  1
  F  F7158  1  0.413000  0.190000  0.805000  1
  F  F7159  1  0.310000  0.805000  0.587000  1
  F  F7160  1  0.190000  0.805000  0.413000  1
  F  F7161  1  0.663000  0.055000  0.440000  1
  F  F7162  1  0.305000  0.087000  0.810000  1
  F  F7163  1  0.337000  0.445000  0.440000  1
  F  F7164  1  0.195000  0.913000  0.310000  1
  F  F7165  1  0.587000  0.690000  0.695000  1
  F  F7166  1  0.663000  0.945000  0.060000  1
  F  F7167  1  0.087000  0.810000  0.305000  1
  F  F7168  1  0.310000  0.195000  0.913000  1
  F  F7169  1  0.837000  0.055000  0.560000  1
  F  F7170  1  0.690000  0.695000  0.587000  1
  F  F7171  1  0.440000  0.663000  0.055000  1
  F  F7172  1  0.055000  0.440000  0.663000  1
  F  F7173  1  0.945000  0.060000  0.663000  1
  F  F7174  1  0.440000  0.337000  0.445000  1
  F  F7175  1  0.445000  0.440000  0.337000  1
  F  F7176  1  0.560000  0.837000  0.055000  1
  F  F7177  1  0.060000  0.663000  0.945000  1
  F  F7178  1  0.055000  0.560000  0.837000  1
  F  F7179  1  0.695000  0.587000  0.690000  1
  F  F7180  1  0.305000  0.913000  0.690000  1
  F  F7181  1  0.913000  0.310000  0.195000  1
  F  F7182  1  0.913000  0.690000  0.305000  1
  F  F7183  1  0.810000  0.305000  0.087000  1
  F  F7184  1  0.690000  0.305000  0.913000  1
