
#######################################################################
#
#                 Cambridge Crystallographic Data Centre
#                                CCDC 
#
#######################################################################
#
# If this CIF has been generated from an entry in the Cambridge 
# Structural Database, then it will include bibliographic, chemical, 
# crystal, experimental, refinement or atomic coordinate data resulting 
# from the CCDC's data processing and validation procedures.
#
#######################################################################

data_JEBZAU
_chemical_formula_moiety         
'C180 H184 Fe4 N40 P4 12+,10.5(C1 F3 O3 S1 1-),1.5(F6 P1 1-)'
_chemical_name_systematic        
'tetrakis(\m-2,8,9-tris[(4-{[(pyridin-2-yl)methylidene]amino}phenyl)methyl]-2,5,8,9-tetraaza-1-phosphabicyclo[3.3.3]undecan-1-ium)-tetra-iron(ii) trifluoromethanesulfonate hexafluorophosphate unknown solvate'
_symmetry_cell_setting           orthorhombic
_symmetry_space_group_name_H-M   'F d d d'
_symmetry_Int_Tables_number      70
_space_group_name_Hall           '-F 2uv 2vw'
loop_
_symmetry_equiv_pos_site_id
_symmetry_equiv_pos_as_xyz
1 x,y,z
2 3/4-x,3/4-y,z
3 3/4-x,y,3/4-z
4 x,3/4-y,3/4-z
5 x,1/2+y,1/2+z
6 3/4-x,1/4-y,1/2+z
7 3/4-x,1/2+y,1/4-z
8 x,1/4-y,1/4-z
9 1/2+x,y,1/2+z
10 1/4-x,3/4-y,1/2+z
11 1/4-x,y,1/4-z
12 1/2+x,3/4-y,1/4-z
13 1/2+x,1/2+y,z
14 1/4-x,1/4-y,z
15 1/4-x,1/2+y,3/4-z
16 1/2+x,1/4-y,3/4-z
17 -x,-y,-z
18 1/4+x,1/4+y,-z
19 1/4+x,-y,1/4+z
20 -x,1/4+y,1/4+z
21 -x,1/2-y,1/2-z
22 1/4+x,3/4+y,1/2-z
23 1/4+x,1/2-y,3/4+z
24 -x,3/4+y,3/4+z
25 1/2-x,-y,1/2-z
26 3/4+x,1/4+y,1/2-z
27 3/4+x,-y,3/4+z
28 1/2-x,1/4+y,3/4+z
29 1/2-x,1/2-y,-z
30 3/4+x,3/4+y,-z
31 3/4+x,1/2-y,1/4+z
32 1/2-x,3/4+y,1/4+z
_cell_length_a                   18.6629(8)
_cell_length_b                   64.266(3)
_cell_length_c                   85.271(4)
_cell_angle_alpha                90
_cell_angle_beta                 90
_cell_angle_gamma                90
_cell_volume                     102273
_exptl_crystal_colour            purple
_exptl_crystal_description       block
_cell_formula_units_Z            16
_exptl_crystal_recrystallization_method 'acetonitrile/ diethyl ether'
loop_
_atom_site_label
_atom_site_type_symbol
_atom_site_fract_x
_atom_site_fract_y
_atom_site_fract_z
Fe1 Fe 0.69115(10) 0.28153(3) 0.41484(2)
Fe2 Fe 0.54503(10) 0.43692(3) 0.54280(2)
N1 N 0.5868(5) 0.27795(16) 0.41314(12)
N2 N 0.6671(5) 0.28158(13) 0.43733(11)
N3 N 0.5803(5) 0.40840(14) 0.54748(12)
N4 N 0.5584(6) 0.43961(17) 0.56554(12)
N5 N 1.1090(5) 0.30075(14) 0.53945(11)
N6 N 1.2342(5) 0.28388(14) 0.53974(13)
N7 N 0.7928(5) 0.29894(11) 0.50626(10)
N8 N 0.6677(4) 0.32477(12) 0.50961(10)
N9 N 0.7784(4) 0.32603(12) 0.53311(9)
N10 N 0.7007(5) 0.29544(12) 0.52734(10)
P1 P 0.74929(16) 0.31784(4) 0.51560(3)
H1 H 0.7810 0.3328 0.5081
C1 C 0.5466(7) 0.2767(2) 0.40030(16)
H2 H 0.5692 0.2772 0.3903
C2 C 0.4712(7) 0.2748(3) 0.40104(19)
H3 H 0.4435 0.2746 0.3917
C3 C 0.4383(8) 0.2732(3) 0.41536(19)
H4 H 0.3876 0.2721 0.4160
C4 C 0.4793(7) 0.2731(3) 0.42882(18)
H5 H 0.4581 0.2712 0.4388
C5 C 0.5525(6) 0.2760(2) 0.42719(16)
C6 C 0.5994(6) 0.27818(18) 0.44036(15)
H6 H 0.5822 0.2772 0.4508
C7 C 0.7097(6) 0.28638(16) 0.45097(13)
C8 C 0.7673(6) 0.27414(16) 0.45524(13)
H7 H 0.7792 0.2622 0.4492
C9 C 0.8081(6) 0.27930(16) 0.46832(13)
H8 H 0.8479 0.2709 0.4711
C10 C 0.7913(6) 0.29653(15) 0.47734(12)
C11 C 0.7339(6) 0.30850(16) 0.47266(13)
H9 H 0.7222 0.3206 0.4785
C12 C 0.6928(6) 0.30357(16) 0.45975(13)
H10 H 0.6531 0.3120 0.4570
C13 C 0.8334(6) 0.30241(17) 0.49177(12)
H11 H 0.8780 0.2941 0.4921
H12 H 0.8469 0.3173 0.4911
C14 C 0.6536(6) 0.34528(14) 0.50270(12)
H13 H 0.6146 0.3439 0.4949
H14 H 0.6971 0.3500 0.4971
C15 C 0.6327(6) 0.36157(14) 0.51461(11)
C16 C 0.6859(6) 0.37297(15) 0.52228(12)
H15 H 0.7348 0.3703 0.5199
C17 C 0.6688(6) 0.38793(16) 0.53312(13)
H16 H 0.7058 0.3956 0.5381
C18 C 0.5986(6) 0.39185(16) 0.53673(12)
C19 C 0.5449(6) 0.38057(16) 0.52928(13)
H17 H 0.4961 0.3831 0.5318
C20 C 0.5626(6) 0.36593(17) 0.51835(14)
H18 H 0.5254 0.3585 0.5132
C21 C 0.5916(8) 0.4047(2) 0.56205(15)
H19 H 0.6074 0.3915 0.5655
C22 C 0.5796(8) 0.4215(2) 0.57295(14)
C23 C 0.5858(10) 0.4201(2) 0.58920(15)
H20 H 0.5997 0.4075 0.5941
C24 C 0.5713(11) 0.4377(3) 0.59789(19)
H21 H 0.5768 0.4374 0.6090
C25 C 0.5490(11) 0.4554(3) 0.59064(17)
H22 H 0.5360 0.4671 0.5967
C26 C 0.5450(8) 0.4564(2) 0.57434(15)
H23 H 0.5327 0.4692 0.5694
C27 C 0.8369(5) 0.34145(14) 0.53456(13)
H24 H 0.8281 0.3504 0.5438
H25 H 0.8373 0.3505 0.5252
C28 C 0.9090(5) 0.33105(16) 0.53622(12)
C29 C 0.9460(5) 0.32498(16) 0.52296(13)
H26 H 0.9262 0.3278 0.5129
C30 C 1.0112(6) 0.31493(16) 0.52409(13)
H27 H 1.0357 0.3107 0.5149
C31 C 1.0401(5) 0.31117(16) 0.53822(13)
C32 C 1.0057(6) 0.31699(17) 0.55177(14)
H28 H 1.0265 0.3141 0.5617
C33 C 0.9404(6) 0.32709(18) 0.55078(13)
H29 H 0.9167 0.3314 0.5601
C34 C 1.1088(6) 0.28075(17) 0.53745(16)
H30 H 1.0655 0.2732 0.5361
C35 C 1.1781(6) 0.27051(17) 0.53742(16)
C36 C 1.1884(7) 0.24964(18) 0.53367(19)
H31 H 1.1487 0.2408 0.5318
C37 C 1.2568(7) 0.2422(2) 0.5328(2)
H32 H 1.2647 0.2279 0.5304
C38 C 1.3139(7) 0.2551(2) 0.5351(2)
H33 H 1.3616 0.2500 0.5343
C39 C 1.3007(6) 0.27583(19) 0.53882(19)
H34 H 1.3404 0.2847 0.5408
C40 C 0.7768(7) 0.27744(15) 0.50950(14)
H35 H 0.8209 0.2689 0.5089
H36 H 0.7418 0.2720 0.5018
C41 C 0.7461(7) 0.27688(16) 0.52570(14)
H37 H 0.7174 0.2641 0.5272
H38 H 0.7850 0.2771 0.5336
C42 C 0.6301(6) 0.29236(16) 0.51968(15)
H39 H 0.5961 0.2856 0.5270
H40 H 0.6352 0.2835 0.5103
C43 C 0.6036(6) 0.31376(17) 0.51515(17)
H41 H 0.5672 0.3128 0.5067
H42 H 0.5824 0.3210 0.5243
C44 C 0.6922(6) 0.30264(18) 0.54342(13)
H43 H 0.6854 0.2907 0.5506
H44 H 0.6504 0.3120 0.5443
C45 C 0.7613(6) 0.31422(18) 0.54723(13)
H45 H 0.7543 0.3237 0.5563
H46 H 0.8003 0.3043 0.5498
N11 N 0.4451(5) 0.42719(15) 0.54523(13)
N12 N 0.5230(5) 0.43164(13) 0.52085(10)
N13 N 0.6788(5) 0.31164(13) 0.41193(11)
N14 N 0.7065(5) 0.28300(14) 0.39205(11)
N15 N 0.9525(5) 0.46817(14) 0.41729(10)
N16 N 1.0409(5) 0.49877(14) 0.41562(11)
N17 N 0.6679(6) 0.43225(12) 0.45265(11)
N18 N 0.5939(4) 0.39260(13) 0.45234(10)
N19 N 0.6949(5) 0.40295(16) 0.42810(10)
N20 N 0.5774(6) 0.42120(16) 0.43295(11)
P2 P 0.65619(19) 0.40860(5) 0.44523(4)
H47 H 0.7074 0.4002 0.4534
C46 C 0.4065(7) 0.4252(2) 0.55853(16)
H48 H 0.4289 0.4285 0.5682
C47 C 0.3346(7) 0.4186(2) 0.55870(18)
H49 H 0.3084 0.4176 0.5682
C48 C 0.3041(8) 0.4137(2) 0.54468(17)
H50 H 0.2562 0.4087 0.5444
C49 C 0.3418(7) 0.4159(2) 0.53085(17)
H51 H 0.3198 0.4127 0.5211
C50 C 0.4119(7) 0.4227(2) 0.53142(16)
C51 C 0.4572(6) 0.42541(19) 0.51793(15)
H52 H 0.4406 0.4229 0.5076
C52 C 0.5690(5) 0.43325(16) 0.50711(12)
C53 C 0.5956(6) 0.41518(16) 0.50044(13)
H53 H 0.5820 0.4020 0.5045
C54 C 0.6421(6) 0.41650(16) 0.48786(13)
H54 H 0.6613 0.4041 0.4835
C55 C 0.6613(6) 0.43556(15) 0.48158(12)
C56 C 0.6349(6) 0.45316(16) 0.48872(13)
H55 H 0.6484 0.4664 0.4847
C57 C 0.5894(6) 0.45243(17) 0.50160(13)
H56 H 0.5728 0.4648 0.5065
C58 C 0.7076(6) 0.43603(17) 0.46710(12)
H57 H 0.7313 0.4498 0.4664
H58 H 0.7456 0.4254 0.4681
C59 C 0.6139(6) 0.37250(15) 0.45910(13)
H59 H 0.5743 0.3676 0.4659
H60 H 0.6565 0.3745 0.4658
C60 C 0.6303(6) 0.35587(16) 0.44727(13)
C61 C 0.5759(6) 0.34502(17) 0.43934(14)
H61 H 0.5272 0.3480 0.4416
C62 C 0.5924(6) 0.33027(18) 0.42836(14)
H62 H 0.5551 0.3222 0.4238
C63 C 0.6618(6) 0.32688(17) 0.42384(13)
C64 C 0.7163(6) 0.33794(18) 0.43138(14)
H63 H 0.7650 0.3353 0.4288
C65 C 0.6997(6) 0.3524(2) 0.44243(16)
H64 H 0.7372 0.3604 0.4470
C66 C 0.6839(6) 0.31798(18) 0.39791(14)
H65 H 0.6764 0.3322 0.3953
C67 C 0.7014(6) 0.30281(18) 0.38599(13)
C68 C 0.7155(8) 0.3071(2) 0.37025(14)
H66 H 0.7117 0.3209 0.3664
C69 C 0.7347(7) 0.29132(19) 0.36038(15)
H67 H 0.7456 0.2941 0.3497
C70 C 0.7379(7) 0.2718(2) 0.36609(13)
H68 H 0.7489 0.2605 0.3593
C71 C 0.7252(6) 0.26804(18) 0.38181(13)
H69 H 0.7298 0.2542 0.3856
C72 C 0.7712(6) 0.39692(19) 0.42686(16)
H70 H 0.7771 0.3867 0.4183
H71 H 0.7866 0.3902 0.4368
C73 C 0.8179(7) 0.4157(2) 0.42366(14)
C74 C 0.8494(6) 0.41980(17) 0.40949(13)
H72 H 0.8403 0.4107 0.4009
C75 C 0.8937(6) 0.43670(17) 0.40725(13)
H73 H 0.9156 0.4389 0.3973
C76 C 0.9060(6) 0.45002(17) 0.41900(12)
C77 C 0.8785(9) 0.4460(2) 0.43352(15)
H74 H 0.8885 0.4551 0.4420
C78 C 0.8367(10) 0.4288(2) 0.43586(16)
H75 H 0.8200 0.4258 0.4461
C79 C 0.9230(7) 0.48630(17) 0.41702(14)
H76 H 0.8724 0.4879 0.4171
C80 C 0.9709(6) 0.50418(17) 0.41659(13)
C81 C 0.9496(8) 0.52474(18) 0.41658(15)
H77 H 0.9003 0.5282 0.4175
C82 C 1.0002(8) 0.5400(2) 0.41528(16)
H78 H 0.9859 0.5542 0.4147
C83 C 1.0712(8) 0.5350(2) 0.41476(17)
H79 H 1.1068 0.5455 0.4143
C84 C 1.0899(7) 0.51428(18) 0.41496(16)
H80 H 1.1393 0.5107 0.4146
C85 C 0.6224(9) 0.44954(19) 0.44824(18)
H81 H 0.6507 0.4625 0.4474
H82 H 0.5840 0.4516 0.4561
C86 C 0.5910(9) 0.4438(2) 0.43263(17)
H83 H 0.5457 0.4514 0.4308
H84 H 0.6248 0.4473 0.4241
C87 C 0.5105(7) 0.4161(2) 0.44146(17)
H85 H 0.4690 0.4169 0.4343
H86 H 0.5030 0.4260 0.4502
C88 C 0.5184(6) 0.3942(2) 0.44774(17)
H87 H 0.4866 0.3919 0.4569
H88 H 0.5066 0.3838 0.4396
C89 C 0.5805(8) 0.4117(3) 0.41739(15)
H89 H 0.5583 0.4209 0.4095
H90 H 0.5546 0.3982 0.4174
C90 C 0.6596(8) 0.4082(3) 0.41358(16)
H91 H 0.6650 0.3968 0.4059
H92 H 0.6806 0.4211 0.4091
Fe1A Fe 1.05885(10) 0.46847(3) 0.41484(2)
Fe2A Fe 1.20497(10) 0.31308(3) 0.54280(2)
N1A N 1.1632(5) 0.47205(16) 0.41314(12)
N2A N 1.0829(5) 0.46842(13) 0.43733(11)
N3A N 1.1697(5) 0.34160(14) 0.54748(12)
N4A N 1.1916(6) 0.31039(17) 0.56554(12)
N5A N 0.6410(5) 0.44925(14) 0.53945(11)
N6A N 0.5158(5) 0.46612(14) 0.53974(13)
N7A N 0.9572(5) 0.45106(11) 0.50626(10)
N8A N 1.0823(4) 0.42523(12) 0.50961(10)
N9A N 0.9716(4) 0.42397(12) 0.53311(9)
N10A N 1.0493(5) 0.45456(12) 0.52734(10)
P1A P 1.00071(16) 0.43216(4) 0.51560(3)
H1A H 0.9690 0.4172 0.5081
C1A C 1.2034(7) 0.4733(2) 0.40030(16)
H2A H 1.1808 0.4728 0.3903
C2A C 1.2788(7) 0.4752(3) 0.40104(19)
H3A H 1.3065 0.4754 0.3917
C3A C 1.3117(8) 0.4768(3) 0.41536(19)
H4A H 1.3624 0.4779 0.4160
C4A C 1.2707(7) 0.4769(3) 0.42882(18)
H5A H 1.2919 0.4788 0.4388
C5A C 1.1975(6) 0.4740(2) 0.42719(16)
C6A C 1.1506(6) 0.47182(18) 0.44036(15)
H6A H 1.1678 0.4728 0.4508
C7A C 1.0403(6) 0.46362(16) 0.45097(13)
C8A C 0.9827(6) 0.47586(16) 0.45524(13)
H7A H 0.9708 0.4878 0.4492
C9A C 0.9419(6) 0.47070(16) 0.46832(13)
H8A H 0.9021 0.4791 0.4711
C10A C 0.9587(6) 0.45347(15) 0.47734(12)
C11A C 1.0161(6) 0.44150(16) 0.47266(13)
H9A H 1.0278 0.4294 0.4785
C12A C 1.0572(6) 0.44643(16) 0.45975(13)
H10A H 1.0969 0.4380 0.4570
C13A C 0.9166(6) 0.44759(17) 0.49177(12)
H11A H 0.8720 0.4559 0.4921
H12A H 0.9031 0.4327 0.4911
C14A C 1.0964(6) 0.40472(14) 0.50270(12)
H13A H 1.1354 0.4061 0.4949
H14A H 1.0529 0.4000 0.4971
C15A C 1.1173(6) 0.38843(14) 0.51461(11)
C16A C 1.0641(6) 0.37703(15) 0.52228(12)
H15A H 1.0152 0.3797 0.5199
C17A C 1.0812(6) 0.36207(16) 0.53312(13)
H16A H 1.0442 0.3544 0.5381
C18A C 1.1514(6) 0.35815(16) 0.53673(12)
C19A C 1.2051(6) 0.36943(16) 0.52928(13)
H17A H 1.2539 0.3669 0.5318
C20A C 1.1874(6) 0.38407(17) 0.51835(14)
H18A H 1.2246 0.3915 0.5132
C21A C 1.1584(8) 0.3453(2) 0.56205(15)
H19A H 1.1426 0.3585 0.5655
C22A C 1.1704(8) 0.3285(2) 0.57295(14)
C23A C 1.1642(10) 0.3299(2) 0.58920(15)
H20A H 1.1503 0.3425 0.5941
C24A C 1.1787(11) 0.3123(3) 0.59789(19)
H21A H 1.1732 0.3126 0.6090
C25A C 1.2010(11) 0.2946(3) 0.59064(17)
H22A H 1.2140 0.2829 0.5967
C26A C 1.2050(8) 0.2936(2) 0.57434(15)
H23A H 1.2173 0.2808 0.5694
C27A C 0.9131(5) 0.40855(14) 0.53456(13)
H24A H 0.9219 0.3996 0.5438
H25A H 0.9127 0.3995 0.5252
C28A C 0.8410(5) 0.41895(16) 0.53622(12)
C29A C 0.8040(5) 0.42502(16) 0.52296(13)
H26A H 0.8238 0.4222 0.5129
C30A C 0.7388(6) 0.43507(16) 0.52409(13)
H27A H 0.7143 0.4393 0.5149
C31A C 0.7099(5) 0.43883(16) 0.53822(13)
C32A C 0.7443(6) 0.43301(17) 0.55177(14)
H28A H 0.7235 0.4359 0.5617
C33A C 0.8096(6) 0.42291(18) 0.55078(13)
H29A H 0.8333 0.4186 0.5601
C34A C 0.6412(6) 0.46925(17) 0.53745(16)
H30A H 0.6845 0.4768 0.5361
C35A C 0.5719(6) 0.47949(17) 0.53742(16)
C36A C 0.5616(7) 0.50036(18) 0.53367(19)
H31A H 0.6013 0.5092 0.5318
C37A C 0.4932(7) 0.5078(2) 0.5328(2)
H32A H 0.4853 0.5221 0.5304
C38A C 0.4361(7) 0.4949(2) 0.5351(2)
H33A H 0.3884 0.5000 0.5343
C39A C 0.4493(6) 0.47417(19) 0.53882(19)
H34A H 0.4096 0.4653 0.5408
C40A C 0.9732(7) 0.47256(15) 0.50950(14)
H35A H 0.9291 0.4811 0.5089
H36A H 1.0082 0.4780 0.5018
C41A C 1.0039(7) 0.47312(16) 0.52570(14)
H37A H 1.0326 0.4859 0.5272
H38A H 0.9650 0.4729 0.5336
C42A C 1.1199(6) 0.45764(16) 0.51968(15)
H39A H 1.1539 0.4644 0.5270
H40A H 1.1148 0.4665 0.5103
C43A C 1.1464(6) 0.43624(17) 0.51515(17)
H41A H 1.1828 0.4372 0.5067
H42A H 1.1676 0.4290 0.5243
C44A C 1.0578(6) 0.44736(18) 0.54342(13)
H43A H 1.0646 0.4593 0.5506
H44A H 1.0996 0.4380 0.5443
C45A C 0.9887(6) 0.43578(18) 0.54723(13)
H45A H 0.9957 0.4263 0.5563
H46A H 0.9497 0.4457 0.5498
N11A N 1.3049(5) 0.32281(15) 0.54523(13)
N12A N 1.2270(5) 0.31836(13) 0.52085(10)
N13A N 1.0712(5) 0.43836(13) 0.41193(11)
N14A N 1.0435(5) 0.46700(14) 0.39205(11)
N15A N 0.7975(5) 0.28183(14) 0.41729(10)
N16A N 0.7091(5) 0.25123(14) 0.41562(11)
N17A N 1.0821(6) 0.31775(12) 0.45265(11)
N18A N 1.1561(4) 0.35740(13) 0.45234(10)
N19A N 1.0551(5) 0.34705(16) 0.42810(10)
N20A N 1.1726(6) 0.32880(16) 0.43295(11)
P2A P 1.09381(19) 0.34140(5) 0.44523(4)
H47A H 1.0426 0.3498 0.4534
C46A C 1.3435(7) 0.3248(2) 0.55853(16)
H48A H 1.3211 0.3215 0.5682
C47A C 1.4154(7) 0.3314(2) 0.55870(18)
H49A H 1.4416 0.3324 0.5682
C48A C 1.4459(8) 0.3363(2) 0.54468(17)
H50A H 1.4938 0.3413 0.5444
C49A C 1.4082(7) 0.3341(2) 0.53085(17)
H51A H 1.4302 0.3373 0.5211
C50A C 1.3381(7) 0.3273(2) 0.53142(16)
C51A C 1.2928(6) 0.32459(19) 0.51793(15)
H52A H 1.3094 0.3271 0.5076
C52A C 1.1810(5) 0.31675(16) 0.50711(12)
C53A C 1.1544(6) 0.33482(16) 0.50044(13)
H53A H 1.1680 0.3480 0.5045
C54A C 1.1079(6) 0.33350(16) 0.48786(13)
H54A H 1.0887 0.3459 0.4835
C55A C 1.0887(6) 0.31444(15) 0.48158(12)
C56A C 1.1151(6) 0.29684(16) 0.48872(13)
H55A H 1.1016 0.2836 0.4847
C57A C 1.1606(6) 0.29757(17) 0.50160(13)
H56A H 1.1772 0.2852 0.5065
C58A C 1.0424(6) 0.31397(17) 0.46710(12)
H57A H 1.0187 0.3002 0.4664
H58A H 1.0044 0.3246 0.4681
C59A C 1.1361(6) 0.37750(15) 0.45910(13)
H59A H 1.1757 0.3824 0.4659
H60A H 1.0935 0.3755 0.4658
C60A C 1.1197(6) 0.39413(16) 0.44727(13)
C61A C 1.1741(6) 0.40498(17) 0.43934(14)
H61A H 1.2228 0.4020 0.4416
C62A C 1.1576(6) 0.41973(18) 0.42836(14)
H62A H 1.1949 0.4278 0.4238
C63A C 1.0882(6) 0.42312(17) 0.42384(13)
C64A C 1.0337(6) 0.41206(18) 0.43138(14)
H63A H 0.9850 0.4147 0.4288
C65A C 1.0503(6) 0.3976(2) 0.44243(16)
H64A H 1.0128 0.3896 0.4470
C66A C 1.0661(6) 0.43202(18) 0.39791(14)
H65A H 1.0736 0.4178 0.3953
C67A C 1.0486(6) 0.44719(18) 0.38599(13)
C68A C 1.0345(8) 0.4429(2) 0.37025(14)
H66A H 1.0383 0.4291 0.3664
C69A C 1.0153(7) 0.45868(19) 0.36038(15)
H67A H 1.0044 0.4559 0.3497
C70A C 1.0121(7) 0.4782(2) 0.36609(13)
H68A H 1.0011 0.4895 0.3593
C71A C 1.0248(6) 0.48196(18) 0.38181(13)
H69A H 1.0202 0.4958 0.3856
C72A C 0.9788(6) 0.35308(19) 0.42686(16)
H70A H 0.9729 0.3633 0.4183
H71A H 0.9634 0.3598 0.4368
C73A C 0.9321(7) 0.3343(2) 0.42366(14)
C74A C 0.9006(6) 0.33020(17) 0.40949(13)
H72A H 0.9097 0.3393 0.4009
C75A C 0.8563(6) 0.31330(17) 0.40725(13)
H73A H 0.8344 0.3111 0.3973
C76A C 0.8440(6) 0.29998(17) 0.41900(12)
C77A C 0.8715(9) 0.3040(2) 0.43352(15)
H74A H 0.8615 0.2949 0.4420
C78A C 0.9133(10) 0.3212(2) 0.43586(16)
H75A H 0.9300 0.3242 0.4461
C79A C 0.8270(7) 0.26370(17) 0.41702(14)
H76A H 0.8776 0.2621 0.4171
C80A C 0.7791(6) 0.24582(17) 0.41659(13)
C81A C 0.8004(8) 0.22526(18) 0.41658(15)
H77A H 0.8497 0.2218 0.4175
C82A C 0.7498(8) 0.2100(2) 0.41528(16)
H78A H 0.7641 0.1958 0.4147
C83A C 0.6788(8) 0.2150(2) 0.41476(17)
H79A H 0.6432 0.2045 0.4143
C84A C 0.6601(7) 0.23572(18) 0.41496(16)
H80A H 0.6107 0.2393 0.4146
C85A C 1.1276(9) 0.30046(19) 0.44824(18)
H81A H 1.0993 0.2875 0.4474
H82A H 1.1660 0.2984 0.4561
C86A C 1.1590(9) 0.3062(2) 0.43263(17)
H83A H 1.2043 0.2986 0.4308
H84A H 1.1252 0.3027 0.4241
C87A C 1.2395(7) 0.3339(2) 0.44146(17)
H85A H 1.2810 0.3331 0.4343
H86A H 1.2470 0.3240 0.4502
C88A C 1.2316(6) 0.3558(2) 0.44774(17)
H87A H 1.2634 0.3581 0.4569
H88A H 1.2434 0.3662 0.4396
C89A C 1.1695(8) 0.3383(3) 0.41739(15)
H89A H 1.1917 0.3291 0.4095
H90A H 1.1954 0.3518 0.4174
C90A C 1.0904(8) 0.3418(3) 0.41358(16)
H91A H 1.0850 0.3532 0.4059
H92A H 1.0694 0.3289 0.4091
P3 P 0.3750 0.3750 0.49076(12)
F1 F 0.3750 0.3750 0.4699(2)
F2 F 0.4466(8) 0.3893(2) 0.48859(16)
F3 F 0.3750 0.3750 0.5089(2)
F4 F 0.3163(9) 0.3952(3) 0.48993(18)
F2A F 0.3034(8) 0.3607(2) 0.48859(16)
F4A F 0.4337(9) 0.3548(3) 0.48993(18)
P4 P 0.8750 0.5293(2) 0.3750
F5 F 0.8626(12) 0.5452(4) 0.3869(2)
F6 F 0.8673(11) 0.5128(4) 0.3859(2)
F7 F 0.9565(10) 0.5280(3) 0.3791(2)
F5B F 0.8874(12) 0.5452(4) 0.3631(2)
F6B F 0.8827(11) 0.5128(4) 0.3641(2)
F7B F 0.7935(10) 0.5280(3) 0.3709(2)
S1 S 0.7743(4) 0.50212(14) 0.44256(12)
O1 O 0.7682(10) 0.4922(3) 0.4275(2)
O2 O 0.7372(12) 0.4917(4) 0.4558(3)
O3 O 0.8471(11) 0.5064(7) 0.4467(5)
C91 C 0.7342(12) 0.5292(3) 0.4410(3)
F8 F 0.6714(8) 0.5288(3) 0.4352(2)
F9 F 0.7309(9) 0.5366(3) 0.4557(2)
F10 F 0.7770(8) 0.5412(2) 0.4341(2)
S2 S 0.2355(5) 0.2667(2) 0.39560(13)
O4 O 0.2091(19) 0.2875(4) 0.3966(3)
O5 O 0.3027(12) 0.2564(5) 0.3929(3)
O6 O 0.1956(13) 0.2560(4) 0.3846(3)
C92 C 0.1973(18) 0.2555(6) 0.4154(3)
F11 F 0.1335(12) 0.2642(4) 0.4164(3)
F12 F 0.1865(13) 0.2347(4) 0.4136(3)
F13 F 0.2408(13) 0.2602(4) 0.4258(2)
S3 S 0.5297(11) 0.2633(3) 0.48272(19)
O7 O 0.5227(12) 0.2876(3) 0.4864(2)
O8 O 0.6040(13) 0.2644(5) 0.4830(5)
O9 O 0.4879(18) 0.2618(4) 0.4684(3)
C93 C 0.4723(15) 0.2611(5) 0.5000(3)
F14 F 0.5064(12) 0.2534(4) 0.5118(2)
F15 F 0.4606(10) 0.2806(3) 0.5036(2)
F16 F 0.4155(11) 0.2501(4) 0.4966(2)
loop_
_geom_bond_atom_site_label_1
_geom_bond_atom_site_label_2
_geom_bond_site_symmetry_1
_geom_bond_site_symmetry_2
Fe1 N1 1_555 1_555
Fe2 N3 1_555 1_555
N1 C1 1_555 1_555
N2 Fe1 1_555 1_555
N3 C18 1_555 1_555
N4 Fe2 1_555 1_555
N5 C31 1_555 1_555
N6 C35 1_555 1_555
N7 P1 1_555 1_555
N8 P1 1_555 1_555
N9 P1 1_555 1_555
N10 P1 1_555 1_555
P1 H1 1_555 1_555
C1 H2 1_555 1_555
C2 C1 1_555 1_555
H3 C2 1_555 1_555
C3 C2 1_555 1_555
H4 C3 1_555 1_555
C4 C3 1_555 1_555
H5 C4 1_555 1_555
C5 N1 1_555 1_555
C6 N2 1_555 1_555
H6 C6 1_555 1_555
C7 N2 1_555 1_555
C8 C7 1_555 1_555
H7 C8 1_555 1_555
C9 C8 1_555 1_555
H8 C9 1_555 1_555
C10 C9 1_555 1_555
C11 C10 1_555 1_555
H9 C11 1_555 1_555
C12 C7 1_555 1_555
H10 C12 1_555 1_555
C13 N7 1_555 1_555
H11 C13 1_555 1_555
H12 C13 1_555 1_555
C14 N8 1_555 1_555
H13 C14 1_555 1_555
H14 C14 1_555 1_555
C15 C14 1_555 1_555
C16 C15 1_555 1_555
H15 C16 1_555 1_555
C17 C16 1_555 1_555
H16 C17 1_555 1_555
C18 C17 1_555 1_555
C19 C18 1_555 1_555
H17 C19 1_555 1_555
C20 C15 1_555 1_555
H18 C20 1_555 1_555
C21 N3 1_555 1_555
H19 C21 1_555 1_555
C22 N4 1_555 1_555
C23 C22 1_555 1_555
H20 C23 1_555 1_555
C24 C23 1_555 1_555
H21 C24 1_555 1_555
C25 C24 1_555 1_555
H22 C25 1_555 1_555
C26 N4 1_555 1_555
H23 C26 1_555 1_555
C27 N9 1_555 1_555
H24 C27 1_555 1_555
H25 C27 1_555 1_555
C28 C27 1_555 1_555
C29 C28 1_555 1_555
H26 C29 1_555 1_555
C30 C29 1_555 1_555
H27 C30 1_555 1_555
C31 C30 1_555 1_555
C32 C31 1_555 1_555
H28 C32 1_555 1_555
C33 C28 1_555 1_555
H29 C33 1_555 1_555
C34 N5 1_555 1_555
H30 C34 1_555 1_555
C35 C34 1_555 1_555
C36 C35 1_555 1_555
H31 C36 1_555 1_555
C37 C36 1_555 1_555
H32 C37 1_555 1_555
C38 C37 1_555 1_555
H33 C38 1_555 1_555
C39 N6 1_555 1_555
H34 C39 1_555 1_555
C40 N7 1_555 1_555
H35 C40 1_555 1_555
H36 C40 1_555 1_555
C41 N10 1_555 1_555
H37 C41 1_555 1_555
H38 C41 1_555 1_555
C42 N10 1_555 1_555
H39 C42 1_555 1_555
H40 C42 1_555 1_555
C43 N8 1_555 1_555
H41 C43 1_555 1_555
H42 C43 1_555 1_555
C44 N10 1_555 1_555
H43 C44 1_555 1_555
H44 C44 1_555 1_555
C45 N9 1_555 1_555
H45 C45 1_555 1_555
H46 C45 1_555 1_555
N11 Fe2 1_555 1_555
N12 Fe2 1_555 1_555
N13 Fe1 1_555 1_555
N14 Fe1 1_555 1_555
N15 C76 1_555 1_555
N16 C80 1_555 1_555
N17 P2 1_555 1_555
N18 P2 1_555 1_555
N19 P2 1_555 1_555
N20 P2 1_555 1_555
P2 H47 1_555 1_555
C46 N11 1_555 1_555
H48 C46 1_555 1_555
C47 C46 1_555 1_555
H49 C47 1_555 1_555
C48 C47 1_555 1_555
H50 C48 1_555 1_555
C49 C48 1_555 1_555
H51 C49 1_555 1_555
C50 N11 1_555 1_555
C51 N12 1_555 1_555
H52 C51 1_555 1_555
C52 N12 1_555 1_555
C53 C52 1_555 1_555
H53 C53 1_555 1_555
C54 C53 1_555 1_555
H54 C54 1_555 1_555
C55 C54 1_555 1_555
C56 C55 1_555 1_555
H55 C56 1_555 1_555
C57 C52 1_555 1_555
H56 C57 1_555 1_555
C58 N17 1_555 1_555
H57 C58 1_555 1_555
H58 C58 1_555 1_555
C59 N18 1_555 1_555
H59 C59 1_555 1_555
H60 C59 1_555 1_555
C60 C59 1_555 1_555
C61 C60 1_555 1_555
H61 C61 1_555 1_555
C62 C61 1_555 1_555
H62 C62 1_555 1_555
C63 N13 1_555 1_555
C64 C63 1_555 1_555
H63 C64 1_555 1_555
C65 C60 1_555 1_555
H64 C65 1_555 1_555
C66 N13 1_555 1_555
H65 C66 1_555 1_555
C67 N14 1_555 1_555
C68 C67 1_555 1_555
H66 C68 1_555 1_555
C69 C68 1_555 1_555
H67 C69 1_555 1_555
C70 C69 1_555 1_555
H68 C70 1_555 1_555
C71 N14 1_555 1_555
H69 C71 1_555 1_555
C72 N19 1_555 1_555
H70 C72 1_555 1_555
H71 C72 1_555 1_555
C73 C72 1_555 1_555
C74 C73 1_555 1_555
H72 C74 1_555 1_555
C75 C74 1_555 1_555
H73 C75 1_555 1_555
C76 C75 1_555 1_555
C77 C76 1_555 1_555
H74 C77 1_555 1_555
C78 C73 1_555 1_555
H75 C78 1_555 1_555
C79 N15 1_555 1_555
H76 C79 1_555 1_555
C80 C79 1_555 1_555
C81 C80 1_555 1_555
H77 C81 1_555 1_555
C82 C81 1_555 1_555
H78 C82 1_555 1_555
C83 C82 1_555 1_555
H79 C83 1_555 1_555
C84 N16 1_555 1_555
H80 C84 1_555 1_555
C85 N17 1_555 1_555
H81 C85 1_555 1_555
H82 C85 1_555 1_555
C86 N20 1_555 1_555
H83 C86 1_555 1_555
H84 C86 1_555 1_555
C87 N20 1_555 1_555
H85 C87 1_555 1_555
H86 C87 1_555 1_555
C88 N18 1_555 1_555
H87 C88 1_555 1_555
H88 C88 1_555 1_555
C89 N20 1_555 1_555
H89 C89 1_555 1_555
H90 C89 1_555 1_555
C90 N19 1_555 1_555
H91 C90 1_555 1_555
H92 C90 1_555 1_555
P3 F1 1_555 1_555
F2 P3 1_555 1_555
F3 P3 1_555 1_555
F4 P3 1_555 1_555
P4 F5 1_555 1_555
F6 P4 1_555 1_555
F7 P4 1_555 1_555
S1 O1 1_555 1_555
O2 S1 1_555 1_555
O3 S1 1_555 1_555
C91 S1 1_555 1_555
F8 C91 1_555 1_555
F9 C91 1_555 1_555
F10 C91 1_555 1_555
S2 O4 1_555 1_555
O5 S2 1_555 1_555
O6 S2 1_555 1_555
C92 S2 1_555 1_555
F11 C92 1_555 1_555
F12 C92 1_555 1_555
F13 C92 1_555 1_555
S3 O7 1_555 1_555
O8 S3 1_555 1_555
O9 S3 1_555 1_555
C93 S3 1_555 1_555
F14 C93 1_555 1_555
F15 C93 1_555 1_555
F16 C93 1_555 1_555
Fe1A N15 1_555 1_555
Fe2A N5 1_555 1_555
N1A Fe1A 1_555 1_555
N2A Fe1A 1_555 1_555
N3A Fe2A 1_555 1_555
N4A Fe2A 1_555 1_555
N5A Fe2 1_555 1_555
N6A Fe2 1_555 1_555
N7A P1A 1_555 1_555
N8A P1A 1_555 1_555
N9A P1A 1_555 1_555
N10A P1A 1_555 1_555
P1A H1A 1_555 1_555
C1A N1A 1_555 1_555
H2A C1A 1_555 1_555
C2A C1A 1_555 1_555
H3A C2A 1_555 1_555
C3A C2A 1_555 1_555
H4A C3A 1_555 1_555
C4A C3A 1_555 1_555
H5A C4A 1_555 1_555
C5A N1A 1_555 1_555
C6A N2A 1_555 1_555
H6A C6A 1_555 1_555
C7A N2A 1_555 1_555
C8A C7A 1_555 1_555
H7A C8A 1_555 1_555
C9A C8A 1_555 1_555
H8A C9A 1_555 1_555
C10A C9A 1_555 1_555
C11A C10A 1_555 1_555
H9A C11A 1_555 1_555
C12A C7A 1_555 1_555
H10A C12A 1_555 1_555
C13A N7A 1_555 1_555
H11A C13A 1_555 1_555
H12A C13A 1_555 1_555
C14A N8A 1_555 1_555
H13A C14A 1_555 1_555
H14A C14A 1_555 1_555
C15A C14A 1_555 1_555
C16A C15A 1_555 1_555
H15A C16A 1_555 1_555
C17A C16A 1_555 1_555
H16A C17A 1_555 1_555
C18A N3A 1_555 1_555
C19A C18A 1_555 1_555
H17A C19A 1_555 1_555
C20A C15A 1_555 1_555
H18A C20A 1_555 1_555
C21A N3A 1_555 1_555
H19A C21A 1_555 1_555
C22A N4A 1_555 1_555
C23A C22A 1_555 1_555
H20A C23A 1_555 1_555
C24A C23A 1_555 1_555
H21A C24A 1_555 1_555
C25A C24A 1_555 1_555
H22A C25A 1_555 1_555
C26A N4A 1_555 1_555
H23A C26A 1_555 1_555
C27A N9A 1_555 1_555
H24A C27A 1_555 1_555
H25A C27A 1_555 1_555
C28A C27A 1_555 1_555
C29A C28A 1_555 1_555
H26A C29A 1_555 1_555
C30A C29A 1_555 1_555
H27A C30A 1_555 1_555
C31A N5A 1_555 1_555
C32A C31A 1_555 1_555
H28A C32A 1_555 1_555
C33A C28A 1_555 1_555
H29A C33A 1_555 1_555
C34A N5A 1_555 1_555
H30A C34A 1_555 1_555
C35A N6A 1_555 1_555
C36A C35A 1_555 1_555
H31A C36A 1_555 1_555
C37A C36A 1_555 1_555
H32A C37A 1_555 1_555
C38A C37A 1_555 1_555
H33A C38A 1_555 1_555
C39A N6A 1_555 1_555
H34A C39A 1_555 1_555
C40A N7A 1_555 1_555
H35A C40A 1_555 1_555
H36A C40A 1_555 1_555
C41A N10A 1_555 1_555
H37A C41A 1_555 1_555
H38A C41A 1_555 1_555
C42A N10A 1_555 1_555
H39A C42A 1_555 1_555
H40A C42A 1_555 1_555
C43A N8A 1_555 1_555
H41A C43A 1_555 1_555
H42A C43A 1_555 1_555
C44A N10A 1_555 1_555
H43A C44A 1_555 1_555
H44A C44A 1_555 1_555
C45A N9A 1_555 1_555
H45A C45A 1_555 1_555
H46A C45A 1_555 1_555
N11A Fe2A 1_555 1_555
N12A Fe2A 1_555 1_555
N13A Fe1A 1_555 1_555
N14A Fe1A 1_555 1_555
N15A Fe1 1_555 1_555
N16A Fe1 1_555 1_555
N17A P2A 1_555 1_555
N18A P2A 1_555 1_555
N19A P2A 1_555 1_555
N20A P2A 1_555 1_555
P2A H47A 1_555 1_555
C46A N11A 1_555 1_555
H48A C46A 1_555 1_555
C47A C46A 1_555 1_555
H49A C47A 1_555 1_555
C48A C47A 1_555 1_555
H50A C48A 1_555 1_555
C49A C48A 1_555 1_555
H51A C49A 1_555 1_555
C50A N11A 1_555 1_555
C51A N12A 1_555 1_555
H52A C51A 1_555 1_555
C52A N12A 1_555 1_555
C53A C52A 1_555 1_555
H53A C53A 1_555 1_555
C54A C53A 1_555 1_555
H54A C54A 1_555 1_555
C55A C54A 1_555 1_555
C56A C55A 1_555 1_555
H55A C56A 1_555 1_555
C57A C52A 1_555 1_555
H56A C57A 1_555 1_555
C58A N17A 1_555 1_555
H57A C58A 1_555 1_555
H58A C58A 1_555 1_555
C59A N18A 1_555 1_555
H59A C59A 1_555 1_555
H60A C59A 1_555 1_555
C60A C59A 1_555 1_555
C61A C60A 1_555 1_555
H61A C61A 1_555 1_555
C62A C61A 1_555 1_555
H62A C62A 1_555 1_555
C63A N13A 1_555 1_555
C64A C63A 1_555 1_555
H63A C64A 1_555 1_555
C65A C60A 1_555 1_555
H64A C65A 1_555 1_555
C66A N13A 1_555 1_555
H65A C66A 1_555 1_555
C67A N14A 1_555 1_555
C68A C67A 1_555 1_555
H66A C68A 1_555 1_555
C69A C68A 1_555 1_555
H67A C69A 1_555 1_555
C70A C69A 1_555 1_555
H68A C70A 1_555 1_555
C71A N14A 1_555 1_555
H69A C71A 1_555 1_555
C72A N19A 1_555 1_555
H70A C72A 1_555 1_555
H71A C72A 1_555 1_555
C73A C72A 1_555 1_555
C74A C73A 1_555 1_555
H72A C74A 1_555 1_555
C75A C74A 1_555 1_555
H73A C75A 1_555 1_555
C76A N15A 1_555 1_555
C77A C76A 1_555 1_555
H74A C77A 1_555 1_555
C78A C73A 1_555 1_555
H75A C78A 1_555 1_555
C79A N15A 1_555 1_555
H76A C79A 1_555 1_555
C80A N16A 1_555 1_555
C81A C80A 1_555 1_555
H77A C81A 1_555 1_555
C82A C81A 1_555 1_555
H78A C82A 1_555 1_555
C83A C82A 1_555 1_555
H79A C83A 1_555 1_555
C84A N16A 1_555 1_555
H80A C84A 1_555 1_555
C85A N17A 1_555 1_555
H81A C85A 1_555 1_555
H82A C85A 1_555 1_555
C86A N20A 1_555 1_555
H83A C86A 1_555 1_555
H84A C86A 1_555 1_555
C87A N20A 1_555 1_555
H85A C87A 1_555 1_555
H86A C87A 1_555 1_555
C88A N18A 1_555 1_555
H87A C88A 1_555 1_555
H88A C88A 1_555 1_555
C89A N20A 1_555 1_555
H89A C89A 1_555 1_555
H90A C89A 1_555 1_555
C90A N19A 1_555 1_555
H91A C90A 1_555 1_555
H92A C90A 1_555 1_555
F2A P3 1_555 1_555
F4A P3 1_555 1_555
F5B P4 1_555 1_555
F6B P4 1_555 1_555
F7B P4 1_555 1_555
N6 Fe2A 1_555 1_555
C4 C5 1_555 1_555
C5 C6 1_555 1_555
C10 C13 1_555 1_555
C11 C12 1_555 1_555
C19 C20 1_555 1_555
C21 C22 1_555 1_555
C25 C26 1_555 1_555
C32 C33 1_555 1_555
C38 C39 1_555 1_555
C40 C41 1_555 1_555
C42 C43 1_555 1_555
C44 C45 1_555 1_555
N16 Fe1A 1_555 1_555
C49 C50 1_555 1_555
C50 C51 1_555 1_555
C55 C58 1_555 1_555
C56 C57 1_555 1_555
C62 C63 1_555 1_555
C64 C65 1_555 1_555
C66 C67 1_555 1_555
C70 C71 1_555 1_555
C77 C78 1_555 1_555
C83 C84 1_555 1_555
C85 C86 1_555 1_555
C87 C88 1_555 1_555
C89 C90 1_555 1_555
C4A C5A 1_555 1_555
C5A C6A 1_555 1_555
C10A C13A 1_555 1_555
C11A C12A 1_555 1_555
C17A C18A 1_555 1_555
C19A C20A 1_555 1_555
C21A C22A 1_555 1_555
C25A C26A 1_555 1_555
C30A C31A 1_555 1_555
C32A C33A 1_555 1_555
C34A C35A 1_555 1_555
C38A C39A 1_555 1_555
C40A C41A 1_555 1_555
C42A C43A 1_555 1_555
C44A C45A 1_555 1_555
C49A C50A 1_555 1_555
C50A C51A 1_555 1_555
C55A C58A 1_555 1_555
C56A C57A 1_555 1_555
C62A C63A 1_555 1_555
C64A C65A 1_555 1_555
C66A C67A 1_555 1_555
C70A C71A 1_555 1_555
C75A C76A 1_555 1_555
C77A C78A 1_555 1_555
C79A C80A 1_555 1_555
C83A C84A 1_555 1_555
C85A C86A 1_555 1_555
C87A C88A 1_555 1_555
C89A C90A 1_555 1_555

#END
