# generated using pymatgen
data_B20P8H210Pt4C103O12
_symmetry_space_group_name_H-M   'P 1'
_cell_length_a   20.11460000
_cell_length_b   22.59390000
_cell_length_c   25.05550000
_cell_angle_alpha   90.00000000
_cell_angle_beta   90.00000000
_cell_angle_gamma   99.05060000
_symmetry_Int_Tables_number   1
_chemical_formula_structural   B20P8H210Pt4C103O12
_chemical_formula_sum   'B80 P32 H840 Pt16 C412 O48'
_cell_volume   11245.13524649
_cell_formula_units_Z   4
loop_
 _symmetry_equiv_pos_site_id
 _symmetry_equiv_pos_as_xyz
  1  'x, y, z'
loop_
 _atom_site_type_symbol
 _atom_site_label
 _atom_site_symmetry_multiplicity
 _atom_site_fract_x
 _atom_site_fract_y
 _atom_site_fract_z
 _atom_site_occupancy
  B  B1  1  0.507900  0.674500  0.369600  1
  B  B2  1  0.992100  0.825500  0.869600  1
  B  B3  1  0.492100  0.325500  0.630400  1
  B  B4  1  0.007900  0.174500  0.130400  1
  B  B5  1  0.527500  0.720500  0.425900  1
  B  B6  1  0.972500  0.779500  0.925900  1
  B  B7  1  0.472500  0.279500  0.574100  1
  B  B8  1  0.027500  0.220500  0.074100  1
  B  B9  1  0.564000  0.793100  0.402600  1
  B  B10  1  0.936000  0.706900  0.902600  1
  B  B11  1  0.436000  0.206900  0.597400  1
  B  B12  1  0.064000  0.293100  0.097400  1
  B  B13  1  0.565700  0.791200  0.332500  1
  B  B14  1  0.934300  0.708800  0.832500  1
  B  B15  1  0.434300  0.208800  0.667500  1
  B  B16  1  0.065700  0.291200  0.167500  1
  B  B17  1  0.531300  0.718800  0.311300  1
  B  B18  1  0.968700  0.781200  0.811300  1
  B  B19  1  0.468700  0.281200  0.688700  1
  B  B20  1  0.031300  0.218800  0.188700  1
  B  B21  1  0.444400  0.706100  0.402400  1
  B  B22  1  0.055600  0.793900  0.902400  1
  B  B23  1  0.555600  0.293900  0.597600  1
  B  B24  1  0.944400  0.206100  0.097600  1
  B  B25  1  0.479400  0.779400  0.423600  1
  B  B26  1  0.020600  0.720600  0.923600  1
  B  B27  1  0.520600  0.220600  0.576400  1
  B  B28  1  0.979400  0.279400  0.076400  1
  B  B29  1  0.502400  0.822100  0.365700  1
  B  B30  1  0.997600  0.677900  0.865700  1
  B  B31  1  0.497600  0.177900  0.634300  1
  B  B32  1  0.002400  0.322100  0.134300  1
  B  B33  1  0.482600  0.776100  0.309300  1
  B  B34  1  0.017400  0.723900  0.809300  1
  B  B35  1  0.517400  0.223900  0.690700  1
  B  B36  1  0.982600  0.276100  0.190700  1
  B  B37  1  0.446300  0.704200  0.331700  1
  B  B38  1  0.053700  0.795800  0.831700  1
  B  B39  1  0.553700  0.295800  0.668300  1
  B  B40  1  0.946300  0.204200  0.168300  1
  B  B41  1  0.413300  0.723800  0.661300  1
  B  B42  1  0.086700  0.776200  0.161300  1
  B  B43  1  0.586700  0.276200  0.338700  1
  B  B44  1  0.913300  0.223800  0.838700  1
  B  B45  1  0.457500  0.759700  0.606400  1
  B  B46  1  0.042500  0.740300  0.106400  1
  B  B47  1  0.542500  0.240300  0.393600  1
  B  B48  1  0.957500  0.259700  0.893600  1
  B  B49  1  0.521600  0.815500  0.630900  1
  B  B50  1  0.978400  0.684500  0.130900  1
  B  B51  1  0.478400  0.184500  0.369100  1
  B  B52  1  0.021600  0.315500  0.869100  1
  B  B53  1  0.518200  0.813300  0.702100  1
  B  B54  1  0.981800  0.686700  0.202100  1
  B  B55  1  0.481800  0.186700  0.297900  1
  B  B56  1  0.018200  0.313300  0.797900  1
  B  B57  1  0.451100  0.757900  0.721100  1
  B  B58  1  0.048900  0.742100  0.221100  1
  B  B59  1  0.548900  0.242100  0.278900  1
  B  B60  1  0.951100  0.257900  0.778900  1
  B  B61  1  0.469600  0.687800  0.698400  1
  B  B62  1  0.030400  0.812200  0.198400  1
  B  B63  1  0.530400  0.312200  0.301600  1
  B  B64  1  0.969600  0.187800  0.801600  1
  B  B65  1  0.474000  0.689000  0.628400  1
  B  B66  1  0.026000  0.811000  0.128400  1
  B  B67  1  0.526000  0.311000  0.371600  1
  B  B68  1  0.974000  0.189000  0.871600  1
  B  B69  1  0.541100  0.746100  0.608300  1
  B  B70  1  0.958900  0.753900  0.108300  1
  B  B71  1  0.458900  0.253900  0.391700  1
  B  B72  1  0.041100  0.246100  0.891700  1
  B  B73  1  0.578500  0.779000  0.667400  1
  B  B74  1  0.921500  0.721000  0.167400  1
  B  B75  1  0.421500  0.221000  0.332600  1
  B  B76  1  0.078500  0.279000  0.832600  1
  B  B77  1  0.535100  0.742900  0.723300  1
  B  B78  1  0.964900  0.757100  0.223300  1
  B  B79  1  0.464900  0.257100  0.276700  1
  B  B80  1  0.035100  0.242900  0.776700  1
  P  P81  1  0.265520  0.915640  0.356310  1
  P  P82  1  0.234480  0.584360  0.856310  1
  P  P83  1  0.734480  0.084360  0.643690  1
  P  P84  1  0.765520  0.415640  0.143690  1
  P  P85  1  0.223860  0.743850  0.458230  1
  P  P86  1  0.276140  0.756150  0.958230  1
  P  P87  1  0.776140  0.256150  0.541770  1
  P  P88  1  0.723860  0.243850  0.041770  1
  P  P89  1  0.354680  0.970170  0.580070  1
  P  P90  1  0.145320  0.529830  0.080070  1
  P  P91  1  0.645320  0.029830  0.419930  1
  P  P92  1  0.854680  0.470170  0.919930  1
  P  P93  1  0.206370  0.824540  0.663440  1
  P  P94  1  0.293630  0.675460  0.163440  1
  P  P95  1  0.793630  0.175460  0.336560  1
  P  P96  1  0.706370  0.324540  0.836560  1
  P  P97  1  0.639600  0.530430  0.587560  1
  P  P98  1  0.860400  0.969570  0.087560  1
  P  P99  1  0.360400  0.469570  0.412440  1
  P  P100  1  0.139600  0.030430  0.912440  1
  P  P101  1  0.783050  0.676540  0.674320  1
  P  P102  1  0.716950  0.823460  0.174320  1
  P  P103  1  0.216950  0.323460  0.325680  1
  P  P104  1  0.283050  0.176540  0.825680  1
  P  P105  1  0.735050  0.578850  0.366840  1
  P  P106  1  0.764950  0.921150  0.866840  1
  P  P107  1  0.264950  0.421150  0.633160  1
  P  P108  1  0.235050  0.078850  0.133160  1
  P  P109  1  0.783740  0.750860  0.466850  1
  P  P110  1  0.716260  0.749140  0.966850  1
  P  P111  1  0.216260  0.249140  0.533150  1
  P  P112  1  0.283740  0.250860  0.033150  1
  H  H113  1  0.947700  0.064400  0.706400  1
  H  H114  1  0.552300  0.435600  0.206400  1
  H  H115  1  0.052300  0.935600  0.293600  1
  H  H116  1  0.447700  0.564400  0.793600  1
  H  H117  1  0.012100  0.047200  0.676200  1
  H  H118  1  0.487900  0.452800  0.176200  1
  H  H119  1  0.987900  0.952800  0.323800  1
  H  H120  1  0.512100  0.547200  0.823800  1
  H  H121  1  0.004300  0.037500  0.739300  1
  H  H122  1  0.495700  0.462500  0.239300  1
  H  H123  1  0.995700  0.962500  0.260700  1
  H  H124  1  0.504300  0.537500  0.760700  1
  H  H125  1  0.949500  0.884300  0.687100  1
  H  H126  1  0.550500  0.615700  0.187100  1
  H  H127  1  0.050500  0.115700  0.312900  1
  H  H128  1  0.449500  0.384300  0.812900  1
  H  H129  1  0.004900  0.919500  0.726300  1
  H  H130  1  0.495100  0.580500  0.226300  1
  H  H131  1  0.995100  0.080500  0.273700  1
  H  H132  1  0.504900  0.419500  0.773700  1
  H  H133  1  0.012200  0.928700  0.663200  1
  H  H134  1  0.487800  0.571300  0.163200  1
  H  H135  1  0.987800  0.071300  0.336800  1
  H  H136  1  0.512200  0.428700  0.836800  1
  H  H137  1  0.934000  0.555300  0.297000  1
  H  H138  1  0.566000  0.944700  0.797000  1
  H  H139  1  0.066000  0.444700  0.703000  1
  H  H140  1  0.434000  0.055300  0.203000  1
  H  H141  1  0.959900  0.530300  0.242400  1
  H  H142  1  0.540100  0.969700  0.742400  1
  H  H143  1  0.040100  0.469700  0.757600  1
  H  H144  1  0.459900  0.030300  0.257600  1
  H  H145  1  0.011500  0.548200  0.290500  1
  H  H146  1  0.488500  0.951800  0.790500  1
  H  H147  1  0.988500  0.451800  0.709500  1
  H  H148  1  0.511500  0.048200  0.209500  1
  H  H149  1  0.969700  0.382700  0.304800  1
  H  H150  1  0.530300  0.117300  0.804800  1
  H  H151  1  0.030300  0.617300  0.695200  1
  H  H152  1  0.469700  0.882700  0.195200  1
  H  H153  1  0.035100  0.432200  0.296400  1
  H  H154  1  0.464900  0.067800  0.796400  1
  H  H155  1  0.964900  0.567800  0.703600  1
  H  H156  1  0.535100  0.932200  0.203600  1
  H  H157  1  0.983900  0.414600  0.248000  1
  H  H158  1  0.516100  0.085400  0.748000  1
  H  H159  1  0.016100  0.585400  0.752000  1
  H  H160  1  0.483900  0.914600  0.252000  1
  H  H161  1  0.510500  0.625400  0.371100  1
  H  H162  1  0.989500  0.874600  0.871100  1
  H  H163  1  0.489500  0.374600  0.628900  1
  H  H164  1  0.010500  0.125400  0.128900  1
  H  H165  1  0.542900  0.701700  0.464600  1
  H  H166  1  0.957100  0.798300  0.964600  1
  H  H167  1  0.457100  0.298300  0.535400  1
  H  H168  1  0.042900  0.201700  0.035400  1
  H  H169  1  0.603900  0.822400  0.425900  1
  H  H170  1  0.896100  0.677600  0.925900  1
  H  H171  1  0.396100  0.177600  0.574100  1
  H  H172  1  0.103900  0.322400  0.074100  1
  H  H173  1  0.606600  0.819400  0.309400  1
  H  H174  1  0.893400  0.680600  0.809400  1
  H  H175  1  0.393400  0.180600  0.690600  1
  H  H176  1  0.106600  0.319400  0.190600  1
  H  H177  1  0.549400  0.698900  0.274200  1
  H  H178  1  0.950600  0.801100  0.774200  1
  H  H179  1  0.450600  0.301100  0.725800  1
  H  H180  1  0.049400  0.198900  0.225800  1
  H  H181  1  0.403200  0.678200  0.425400  1
  H  H182  1  0.096800  0.821800  0.925400  1
  H  H183  1  0.596800  0.321800  0.574600  1
  H  H184  1  0.903200  0.178200  0.074600  1
  H  H185  1  0.461800  0.800000  0.460700  1
  H  H186  1  0.038200  0.700000  0.960700  1
  H  H187  1  0.538200  0.200000  0.539300  1
  H  H188  1  0.961800  0.300000  0.039300  1
  H  H189  1  0.499500  0.871200  0.364500  1
  H  H190  1  0.000500  0.628800  0.864500  1
  H  H191  1  0.500500  0.128800  0.635500  1
  H  H192  1  0.999500  0.371200  0.135500  1
  H  H193  1  0.466800  0.794600  0.270600  1
  H  H194  1  0.033200  0.705400  0.770600  1
  H  H195  1  0.533200  0.205400  0.729400  1
  H  H196  1  0.966800  0.294600  0.229400  1
  H  H197  1  0.406600  0.675100  0.308100  1
  H  H198  1  0.093400  0.824900  0.808100  1
  H  H199  1  0.593400  0.324900  0.691900  1
  H  H200  1  0.906600  0.175100  0.191900  1
  H  H201  1  0.358200  0.706000  0.658800  1
  H  H202  1  0.141800  0.794000  0.158800  1
  H  H203  1  0.641800  0.294000  0.341200  1
  H  H204  1  0.858200  0.206000  0.841200  1
  H  H205  1  0.431500  0.765600  0.567700  1
  H  H206  1  0.068500  0.734400  0.067700  1
  H  H207  1  0.568500  0.234400  0.432300  1
  H  H208  1  0.931500  0.265600  0.932300  1
  H  H209  1  0.537700  0.858300  0.608600  1
  H  H210  1  0.962300  0.641700  0.108600  1
  H  H211  1  0.462300  0.141700  0.391400  1
  H  H212  1  0.037700  0.358300  0.891400  1
  H  H213  1  0.532700  0.854700  0.726800  1
  H  H214  1  0.967300  0.645300  0.226800  1
  H  H215  1  0.467300  0.145300  0.273200  1
  H  H216  1  0.032700  0.354700  0.773200  1
  H  H217  1  0.421100  0.762800  0.758000  1
  H  H218  1  0.078900  0.737200  0.258000  1
  H  H219  1  0.578900  0.237200  0.242000  1
  H  H220  1  0.921100  0.262800  0.742000  1
  H  H221  1  0.452400  0.645100  0.720700  1
  H  H222  1  0.047600  0.854900  0.220700  1
  H  H223  1  0.547600  0.354900  0.279300  1
  H  H224  1  0.952400  0.145100  0.779300  1
  H  H225  1  0.460100  0.646900  0.604600  1
  H  H226  1  0.039900  0.853100  0.104600  1
  H  H227  1  0.539900  0.353100  0.395400  1
  H  H228  1  0.960100  0.146900  0.895400  1
  H  H229  1  0.571100  0.742000  0.571200  1
  H  H230  1  0.928900  0.758000  0.071200  1
  H  H231  1  0.428900  0.258000  0.428800  1
  H  H232  1  0.071100  0.242000  0.928800  1
  H  H233  1  0.633600  0.796900  0.669000  1
  H  H234  1  0.866400  0.703100  0.169000  1
  H  H235  1  0.366400  0.203100  0.331000  1
  H  H236  1  0.133600  0.296900  0.831000  1
  H  H237  1  0.561300  0.736400  0.761800  1
  H  H238  1  0.938700  0.763600  0.261800  1
  H  H239  1  0.438700  0.263600  0.238200  1
  H  H240  1  0.061300  0.236400  0.738200  1
  H  H241  1  0.112900  0.806900  0.356100  1
  H  H242  1  0.387100  0.693100  0.856100  1
  H  H243  1  0.887100  0.193100  0.643900  1
  H  H244  1  0.612900  0.306900  0.143900  1
  H  H245  1  0.003200  0.828300  0.364900  1
  H  H246  1  0.496800  0.671700  0.864900  1
  H  H247  1  0.996800  0.171700  0.635100  1
  H  H248  1  0.503200  0.328300  0.135100  1
  H  H249  1  0.977000  0.888700  0.433600  1
  H  H250  1  0.523000  0.611300  0.933600  1
  H  H251  1  0.023000  0.111300  0.566400  1
  H  H252  1  0.477000  0.388700  0.066400  1
  H  H253  1  0.014700  0.952200  0.511200  1
  H  H254  1  0.485300  0.547800  0.011200  1
  H  H255  1  0.985300  0.047800  0.488800  1
  H  H256  1  0.514700  0.452200  0.988800  1
  H  H257  1  0.049900  0.015200  0.590500  1
  H  H258  1  0.450100  0.484800  0.090500  1
  H  H259  1  0.950100  0.984800  0.409500  1
  H  H260  1  0.549900  0.515200  0.909500  1
  H  H261  1  0.125200  0.041300  0.657600  1
  H  H262  1  0.374800  0.458700  0.157600  1
  H  H263  1  0.874800  0.958700  0.342400  1
  H  H264  1  0.625200  0.541300  0.842400  1
  H  H265  1  0.219600  0.993100  0.668100  1
  H  H266  1  0.280400  0.506900  0.168100  1
  H  H267  1  0.780400  0.006900  0.331900  1
  H  H268  1  0.719600  0.493100  0.831900  1
  H  H269  1  0.220800  0.882500  0.511400  1
  H  H270  1  0.279200  0.617500  0.011400  1
  H  H271  1  0.779200  0.117500  0.488600  1
  H  H272  1  0.720800  0.382500  0.988600  1
  H  H273  1  0.767400  0.510300  0.684600  1
  H  H274  1  0.732600  0.989700  0.184600  1
  H  H275  1  0.232600  0.489700  0.315400  1
  H  H276  1  0.267400  0.010300  0.815400  1
  H  H277  1  0.861700  0.460600  0.682700  1
  H  H278  1  0.638300  0.039400  0.182700  1
  H  H279  1  0.138300  0.539400  0.317300  1
  H  H280  1  0.361700  0.960600  0.817300  1
  H  H281  1  0.938400  0.477800  0.615000  1
  H  H282  1  0.561600  0.022200  0.115000  1
  H  H283  1  0.061600  0.522200  0.385000  1
  H  H284  1  0.438400  0.977800  0.885000  1
  H  H285  1  0.978900  0.534800  0.533100  1
  H  H286  1  0.521100  0.965200  0.033100  1
  H  H287  1  0.021100  0.465200  0.466900  1
  H  H288  1  0.478900  0.034800  0.966900  1
  H  H289  1  0.019900  0.587500  0.450400  1
  H  H290  1  0.480100  0.912500  0.950400  1
  H  H291  1  0.980100  0.412500  0.549600  1
  H  H292  1  0.519900  0.087500  0.049600  1
  H  H293  1  0.001400  0.649200  0.381600  1
  H  H294  1  0.498600  0.850800  0.881600  1
  H  H295  1  0.998600  0.350800  0.618400  1
  H  H296  1  0.501400  0.149200  0.118400  1
  H  H297  1  0.895100  0.679000  0.369000  1
  H  H298  1  0.604900  0.821000  0.869000  1
  H  H299  1  0.104900  0.321000  0.631000  1
  H  H300  1  0.395100  0.179000  0.131000  1
  H  H301  1  0.779100  0.614700  0.524200  1
  H  H302  1  0.720900  0.885300  0.024200  1
  H  H303  1  0.220900  0.385300  0.475800  1
  H  H304  1  0.279100  0.114700  0.975800  1
  H  H305  1  0.361100  0.898800  0.311300  1
  H  H306  1  0.138900  0.601200  0.811300  1
  H  H307  1  0.638900  0.101200  0.688700  1
  H  H308  1  0.861100  0.398800  0.188700  1
  H  H309  1  0.347500  0.965700  0.300800  1
  H  H310  1  0.152500  0.534300  0.800800  1
  H  H311  1  0.652500  0.034300  0.699200  1
  H  H312  1  0.847500  0.465700  0.199200  1
  H  H313  1  0.445500  0.967300  0.352600  1
  H  H314  1  0.054500  0.532700  0.852600  1
  H  H315  1  0.554500  0.032700  0.647400  1
  H  H316  1  0.945500  0.467300  0.147400  1
  H  H317  1  0.403200  0.927400  0.397500  1
  H  H318  1  0.096800  0.572600  0.897500  1
  H  H319  1  0.596800  0.072600  0.602500  1
  H  H320  1  0.903200  0.427400  0.102500  1
  H  H321  1  0.390100  0.994400  0.386600  1
  H  H322  1  0.109900  0.505600  0.886600  1
  H  H323  1  0.609900  0.005600  0.613400  1
  H  H324  1  0.890100  0.494400  0.113400  1
  H  H325  1  0.163700  0.908000  0.306900  1
  H  H326  1  0.336300  0.592000  0.806900  1
  H  H327  1  0.836300  0.092000  0.693100  1
  H  H328  1  0.663700  0.408000  0.193100  1
  H  H329  1  0.223400  0.947200  0.274300  1
  H  H330  1  0.276600  0.552800  0.774300  1
  H  H331  1  0.776600  0.052800  0.725700  1
  H  H332  1  0.723400  0.447200  0.225700  1
  H  H333  1  0.187800  0.858800  0.232600  1
  H  H334  1  0.312200  0.641200  0.732600  1
  H  H335  1  0.812200  0.141200  0.767400  1
  H  H336  1  0.687800  0.358800  0.267400  1
  H  H337  1  0.205200  0.823000  0.284600  1
  H  H338  1  0.294800  0.677000  0.784600  1
  H  H339  1  0.794800  0.177000  0.715400  1
  H  H340  1  0.705200  0.323000  0.215400  1
  H  H341  1  0.264300  0.862300  0.251500  1
  H  H342  1  0.235700  0.637700  0.751500  1
  H  H343  1  0.735700  0.137700  0.748500  1
  H  H344  1  0.764300  0.362300  0.248500  1
  H  H345  1  0.193200  0.979100  0.389900  1
  H  H346  1  0.306800  0.520900  0.889900  1
  H  H347  1  0.806800  0.020900  0.610100  1
  H  H348  1  0.693200  0.479100  0.110100  1
  H  H349  1  0.263100  0.990600  0.421200  1
  H  H350  1  0.236900  0.509400  0.921200  1
  H  H351  1  0.736900  0.009400  0.578800  1
  H  H352  1  0.763100  0.490600  0.078800  1
  H  H353  1  0.248300  0.075900  0.372100  1
  H  H354  1  0.251700  0.424100  0.872100  1
  H  H355  1  0.751700  0.924100  0.627900  1
  H  H356  1  0.748300  0.575900  0.127900  1
  H  H357  1  0.243200  0.037900  0.318000  1
  H  H358  1  0.256800  0.462100  0.818000  1
  H  H359  1  0.756800  0.962100  0.682000  1
  H  H360  1  0.743200  0.537900  0.182000  1
  H  H361  1  0.312700  0.050000  0.350200  1
  H  H362  1  0.187300  0.450000  0.850200  1
  H  H363  1  0.687300  0.950000  0.649800  1
  H  H364  1  0.812700  0.550000  0.149800  1
  H  H365  1  0.268500  0.681800  0.396700  1
  H  H366  1  0.231500  0.818200  0.896700  1
  H  H367  1  0.731500  0.318200  0.603300  1
  H  H368  1  0.768500  0.181800  0.103300  1
  H  H369  1  0.211600  0.642600  0.432200  1
  H  H370  1  0.288400  0.857400  0.932200  1
  H  H371  1  0.788400  0.357400  0.567800  1
  H  H372  1  0.711600  0.142600  0.067800  1
  H  H373  1  0.172300  0.648700  0.343800  1
  H  H374  1  0.327700  0.851300  0.843800  1
  H  H375  1  0.827700  0.351300  0.656200  1
  H  H376  1  0.672300  0.148700  0.156200  1
  H  H377  1  0.183900  0.720300  0.347600  1
  H  H378  1  0.316100  0.779700  0.847600  1
  H  H379  1  0.816100  0.279700  0.652400  1
  H  H380  1  0.683900  0.220300  0.152400  1
  H  H381  1  0.127000  0.681400  0.383200  1
  H  H382  1  0.373000  0.818600  0.883200  1
  H  H383  1  0.873000  0.318600  0.616800  1
  H  H384  1  0.627000  0.181400  0.116800  1
  H  H385  1  0.333333  0.754600  0.489700  1
  H  H386  1  0.166667  0.745400  0.989700  1
  H  H387  1  0.666667  0.245400  0.510300  1
  H  H388  1  0.833333  0.254600  0.010300  1
  H  H389  1  0.283500  0.765000  0.536800  1
  H  H390  1  0.216500  0.735000  0.036800  1
  H  H391  1  0.716500  0.235000  0.463200  1
  H  H392  1  0.783500  0.265000  0.963200  1
  H  H393  1  0.334600  0.681600  0.555100  1
  H  H394  1  0.165400  0.818400  0.055100  1
  H  H395  1  0.665400  0.318400  0.444900  1
  H  H396  1  0.834600  0.181600  0.944900  1
  H  H397  1  0.305400  0.650100  0.501000  1
  H  H398  1  0.194600  0.849900  0.001000  1
  H  H399  1  0.694600  0.349900  0.499000  1
  H  H400  1  0.805400  0.150100  0.999000  1
  H  H401  1  0.255300  0.660500  0.548500  1
  H  H402  1  0.244700  0.839500  0.048500  1
  H  H403  1  0.744700  0.339500  0.451500  1
  H  H404  1  0.755300  0.160500  0.951500  1
  H  H405  1  0.142200  0.761500  0.519500  1
  H  H406  1  0.357800  0.738500  0.019500  1
  H  H407  1  0.857800  0.238500  0.480500  1
  H  H408  1  0.642200  0.261500  0.980500  1
  H  H409  1  0.107400  0.733600  0.466200  1
  H  H410  1  0.392600  0.766400  0.966200  1
  H  H411  1  0.892600  0.266400  0.533800  1
  H  H412  1  0.607400  0.233600  0.033800  1
  H  H413  1  0.078300  0.668100  0.537500  1
  H  H414  1  0.421700  0.831900  0.037500  1
  H  H415  1  0.921700  0.331900  0.462500  1
  H  H416  1  0.578300  0.168100  0.962500  1
  H  H417  1  0.155900  0.664700  0.548700  1
  H  H418  1  0.344100  0.835300  0.048700  1
  H  H419  1  0.844100  0.335300  0.451300  1
  H  H420  1  0.655900  0.164700  0.951300  1
  H  H421  1  0.120900  0.636600  0.495100  1
  H  H422  1  0.379100  0.863400  0.995100  1
  H  H423  1  0.879100  0.363400  0.504900  1
  H  H424  1  0.620900  0.136600  0.004900  1
  H  H425  1  0.319400  0.967500  0.491500  1
  H  H426  1  0.180600  0.532500  0.991500  1
  H  H427  1  0.680600  0.032500  0.508500  1
  H  H428  1  0.819400  0.467500  0.008500  1
  H  H429  1  0.286700  0.016600  0.523700  1
  H  H430  1  0.213300  0.483400  0.023700  1
  H  H431  1  0.713300  0.983400  0.476300  1
  H  H432  1  0.786700  0.516600  0.976300  1
  H  H433  1  0.360900  0.063500  0.459000  1
  H  H434  1  0.139100  0.436500  0.959000  1
  H  H435  1  0.639100  0.936500  0.541000  1
  H  H436  1  0.860900  0.563500  0.041000  1
  H  H437  1  0.421600  0.034900  0.484400  1
  H  H438  1  0.078400  0.465100  0.984400  1
  H  H439  1  0.578400  0.965100  0.515600  1
  H  H440  1  0.921600  0.534900  0.015600  1
  H  H441  1  0.389000  0.084200  0.516900  1
  H  H442  1  0.111000  0.415800  0.016900  1
  H  H443  1  0.611000  0.915800  0.483100  1
  H  H444  1  0.889000  0.584200  0.983100  1
  H  H445  1  0.467700  0.987500  0.554800  1
  H  H446  1  0.032300  0.512500  0.054800  1
  H  H447  1  0.532300  0.012500  0.445200  1
  H  H448  1  0.967700  0.487500  0.945200  1
  H  H449  1  0.455600  0.936100  0.599300  1
  H  H450  1  0.044400  0.563900  0.099300  1
  H  H451  1  0.544400  0.063900  0.400700  1
  H  H452  1  0.955600  0.436100  0.900700  1
  H  H453  1  0.479900  0.894700  0.516700  1
  H  H454  1  0.020100  0.605300  0.016700  1
  H  H455  1  0.520100  0.105300  0.483300  1
  H  H456  1  0.979900  0.394700  0.983300  1
  H  H457  1  0.416900  0.918600  0.490100  1
  H  H458  1  0.083100  0.581400  0.990100  1
  H  H459  1  0.583100  0.081400  0.509900  1
  H  H460  1  0.916900  0.418600  0.009900  1
  H  H461  1  0.405000  0.867200  0.534600  1
  H  H462  1  0.095000  0.632800  0.034600  1
  H  H463  1  0.595000  0.132800  0.465400  1
  H  H464  1  0.905000  0.367200  0.965400  1
  H  H465  1  0.403800  0.066500  0.607300  1
  H  H466  1  0.096200  0.433500  0.107300  1
  H  H467  1  0.596200  0.933500  0.392700  1
  H  H468  1  0.903800  0.566500  0.892700  1
  H  H469  1  0.326400  0.054000  0.624700  1
  H  H470  1  0.173600  0.446000  0.124700  1
  H  H471  1  0.673600  0.946000  0.375300  1
  H  H472  1  0.826400  0.554000  0.875300  1
  H  H473  1  0.395200  0.061500  0.700100  1
  H  H474  1  0.104800  0.438500  0.200100  1
  H  H475  1  0.604800  0.938500  0.299900  1
  H  H476  1  0.895200  0.561500  0.799900  1
  H  H477  1  0.431000  0.007500  0.678900  1
  H  H478  1  0.069000  0.492500  0.178900  1
  H  H479  1  0.569000  0.992500  0.321100  1
  H  H480  1  0.931000  0.507500  0.821100  1
  H  H481  1  0.353500  0.995200  0.696300  1
  H  H482  1  0.146500  0.504800  0.196300  1
  H  H483  1  0.646500  0.004800  0.303700  1
  H  H484  1  0.853500  0.495200  0.803700  1
  H  H485  1  0.097200  0.808700  0.698700  1
  H  H486  1  0.402800  0.691300  0.198700  1
  H  H487  1  0.902800  0.191300  0.301300  1
  H  H488  1  0.597200  0.308700  0.801300  1
  H  H489  1  0.113400  0.874300  0.673500  1
  H  H490  1  0.386600  0.625700  0.173500  1
  H  H491  1  0.886600  0.125700  0.326500  1
  H  H492  1  0.613400  0.374300  0.826500  1
  H  H493  1  0.028400  0.815700  0.624100  1
  H  H494  1  0.471600  0.684300  0.124100  1
  H  H495  1  0.971600  0.184300  0.375900  1
  H  H496  1  0.528400  0.315700  0.875900  1
  H  H497  1  0.076900  0.767500  0.612400  1
  H  H498  1  0.423100  0.732500  0.112400  1
  H  H499  1  0.923100  0.232500  0.387600  1
  H  H500  1  0.576900  0.267500  0.887600  1
  H  H501  1  0.093300  0.833100  0.587000  1
  H  H502  1  0.406700  0.666900  0.087000  1
  H  H503  1  0.906700  0.166900  0.413000  1
  H  H504  1  0.593300  0.333100  0.913000  1
  H  H505  1  0.195000  0.741800  0.607000  1
  H  H506  1  0.305000  0.758200  0.107000  1
  H  H507  1  0.805000  0.258200  0.393000  1
  H  H508  1  0.695000  0.241800  0.893000  1
  H  H509  1  0.254200  0.738600  0.648800  1
  H  H510  1  0.245800  0.761400  0.148800  1
  H  H511  1  0.745800  0.261400  0.351200  1
  H  H512  1  0.754200  0.238600  0.851200  1
  H  H513  1  0.165900  0.659900  0.664000  1
  H  H514  1  0.334100  0.840100  0.164000  1
  H  H515  1  0.834100  0.340100  0.336000  1
  H  H516  1  0.665900  0.159900  0.836000  1
  H  H517  1  0.114700  0.706400  0.673000  1
  H  H518  1  0.385300  0.793600  0.173000  1
  H  H519  1  0.885300  0.293600  0.327000  1
  H  H520  1  0.614700  0.206400  0.827000  1
  H  H521  1  0.174100  0.703200  0.714900  1
  H  H522  1  0.325900  0.796800  0.214900  1
  H  H523  1  0.825900  0.296800  0.285100  1
  H  H524  1  0.674100  0.203200  0.785100  1
  H  H525  1  0.201500  0.799000  0.754000  1
  H  H526  1  0.298500  0.701000  0.254000  1
  H  H527  1  0.798500  0.201000  0.246000  1
  H  H528  1  0.701500  0.299000  0.746000  1
  H  H529  1  0.278100  0.818300  0.736100  1
  H  H530  1  0.221900  0.681700  0.236100  1
  H  H531  1  0.721900  0.181700  0.263900  1
  H  H532  1  0.778100  0.318300  0.763900  1
  H  H533  1  0.246800  0.890000  0.794700  1
  H  H534  1  0.253200  0.610000  0.294700  1
  H  H535  1  0.753200  0.110000  0.205300  1
  H  H536  1  0.746800  0.390000  0.705300  1
  H  H537  1  0.186900  0.900600  0.755600  1
  H  H538  1  0.313100  0.599400  0.255600  1
  H  H539  1  0.813100  0.099400  0.244400  1
  H  H540  1  0.686900  0.400600  0.744400  1
  H  H541  1  0.263500  0.920000  0.737400  1
  H  H542  1  0.236500  0.580000  0.237400  1
  H  H543  1  0.736500  0.080000  0.262600  1
  H  H544  1  0.763500  0.420000  0.762600  1
  H  H545  1  0.682600  0.530200  0.500600  1
  H  H546  1  0.817400  0.969800  0.000600  1
  H  H547  1  0.317400  0.469800  0.499400  1
  H  H548  1  0.182600  0.030200  0.999400  1
  H  H549  1  0.708600  0.479100  0.535300  1
  H  H550  1  0.791400  0.020900  0.035300  1
  H  H551  1  0.291400  0.520900  0.464700  1
  H  H552  1  0.208600  0.979100  0.964700  1
  H  H553  1  0.634900  0.434900  0.468000  1
  H  H554  1  0.865100  0.065100  0.968000  1
  H  H555  1  0.365100  0.565100  0.532000  1
  H  H556  1  0.134900  0.934900  0.032000  1
  H  H557  1  0.576200  0.468500  0.490400  1
  H  H558  1  0.923800  0.031500  0.990400  1
  H  H559  1  0.423800  0.531500  0.509600  1
  H  H560  1  0.076200  0.968500  0.009600  1
  H  H561  1  0.602100  0.417300  0.525200  1
  H  H562  1  0.897900  0.082700  0.025200  1
  H  H563  1  0.397900  0.582700  0.474800  1
  H  H564  1  0.102100  0.917300  0.974800  1
  H  H565  1  0.527800  0.514500  0.558300  1
  H  H566  1  0.972200  0.985500  0.058300  1
  H  H567  1  0.472200  0.485500  0.441700  1
  H  H568  1  0.027800  0.014500  0.941700  1
  H  H569  1  0.538600  0.567000  0.601900  1
  H  H570  1  0.961400  0.933000  0.101900  1
  H  H571  1  0.461400  0.433000  0.398100  1
  H  H572  1  0.038600  0.067000  0.898100  1
  H  H573  1  0.520900  0.607200  0.517100  1
  H  H574  1  0.979100  0.892800  0.017100  1
  H  H575  1  0.479100  0.392800  0.482900  1
  H  H576  1  0.020900  0.107200  0.982900  1
  H  H577  1  0.584300  0.581000  0.493800  1
  H  H578  1  0.915700  0.919000  0.993800  1
  H  H579  1  0.415700  0.419000  0.506200  1
  H  H580  1  0.084300  0.081000  0.006200  1
  H  H581  1  0.595100  0.633400  0.537400  1
  H  H582  1  0.904900  0.866600  0.037400  1
  H  H583  1  0.404900  0.366600  0.462600  1
  H  H584  1  0.095100  0.133400  0.962600  1
  H  H585  1  0.590000  0.433900  0.612600  1
  H  H586  1  0.910000  0.066100  0.112600  1
  H  H587  1  0.410000  0.566100  0.387400  1
  H  H588  1  0.090000  0.933900  0.887400  1
  H  H589  1  0.664200  0.448700  0.636800  1
  H  H590  1  0.835800  0.051300  0.136800  1
  H  H591  1  0.335800  0.551300  0.363200  1
  H  H592  1  0.164200  0.948700  0.863200  1
  H  H593  1  0.584300  0.440200  0.706000  1
  H  H594  1  0.915700  0.059800  0.206000  1
  H  H595  1  0.415700  0.559800  0.294000  1
  H  H596  1  0.084300  0.940200  0.794000  1
  H  H597  1  0.550000  0.492700  0.680200  1
  H  H598  1  0.950000  0.007300  0.180200  1
  H  H599  1  0.450000  0.507300  0.319800  1
  H  H600  1  0.050000  0.992700  0.819800  1
  H  H601  1  0.624300  0.507200  0.704500  1
  H  H602  1  0.875700  0.992800  0.204500  1
  H  H603  1  0.375700  0.492800  0.295500  1
  H  H604  1  0.124300  0.007200  0.795500  1
  H  H605  1  0.800100  0.758000  0.615700  1
  H  H606  1  0.699900  0.742000  0.115700  1
  H  H607  1  0.199900  0.242000  0.384300  1
  H  H608  1  0.300100  0.258000  0.884300  1
  H  H609  1  0.736000  0.761700  0.652400  1
  H  H610  1  0.764000  0.738300  0.152400  1
  H  H611  1  0.264000  0.238300  0.347600  1
  H  H612  1  0.236000  0.261700  0.847600  1
  H  H613  1  0.822100  0.841600  0.672300  1
  H  H614  1  0.677900  0.658400  0.172300  1
  H  H615  1  0.177900  0.158400  0.327700  1
  H  H616  1  0.322100  0.341600  0.827700  1
  H  H617  1  0.872100  0.795500  0.687000  1
  H  H618  1  0.627900  0.704500  0.187000  1
  H  H619  1  0.127900  0.204500  0.313000  1
  H  H620  1  0.372100  0.295500  0.813000  1
  H  H621  1  0.807800  0.799400  0.723700  1
  H  H622  1  0.692200  0.700600  0.223700  1
  H  H623  1  0.192200  0.200600  0.276300  1
  H  H624  1  0.307800  0.299400  0.776300  1
  H  H625  1  0.889700  0.693900  0.713500  1
  H  H626  1  0.610300  0.806100  0.213500  1
  H  H627  1  0.110300  0.306100  0.286500  1
  H  H628  1  0.389700  0.193900  0.786500  1
  H  H629  1  0.874700  0.627200  0.690600  1
  H  H630  1  0.625300  0.872800  0.190600  1
  H  H631  1  0.125300  0.372800  0.309400  1
  H  H632  1  0.374700  0.127200  0.809400  1
  H  H633  1  0.962800  0.683400  0.641800  1
  H  H634  1  0.537200  0.816600  0.141800  1
  H  H635  1  0.037200  0.316600  0.358200  1
  H  H636  1  0.462800  0.183400  0.858200  1
  H  H637  1  0.915100  0.731100  0.626100  1
  H  H638  1  0.584900  0.768900  0.126100  1
  H  H639  1  0.084900  0.268900  0.373900  1
  H  H640  1  0.415100  0.231100  0.873900  1
  H  H641  1  0.899900  0.664300  0.603000  1
  H  H642  1  0.600100  0.835700  0.103000  1
  H  H643  1  0.100100  0.335700  0.397000  1
  H  H644  1  0.399900  0.164300  0.897000  1
  H  H645  1  0.781300  0.704200  0.764600  1
  H  H646  1  0.718700  0.795800  0.264600  1
  H  H647  1  0.218700  0.295800  0.235400  1
  H  H648  1  0.281300  0.204200  0.735400  1
  H  H649  1  0.706000  0.686500  0.742900  1
  H  H650  1  0.794000  0.813500  0.242900  1
  H  H651  1  0.294000  0.313500  0.257100  1
  H  H652  1  0.206000  0.186500  0.757100  1
  H  H653  1  0.729700  0.613900  0.805100  1
  H  H654  1  0.770300  0.886100  0.305100  1
  H  H655  1  0.270300  0.386100  0.194900  1
  H  H656  1  0.229700  0.113900  0.694900  1
  H  H657  1  0.792000  0.601100  0.769600  1
  H  H658  1  0.708000  0.898900  0.269600  1
  H  H659  1  0.208000  0.398900  0.230400  1
  H  H660  1  0.292000  0.101100  0.730400  1
  H  H661  1  0.716800  0.583300  0.747600  1
  H  H662  1  0.783200  0.916700  0.247600  1
  H  H663  1  0.283200  0.416700  0.252400  1
  H  H664  1  0.216800  0.083300  0.752400  1
  H  H665  1  0.723700  0.564400  0.275400  1
  H  H666  1  0.776300  0.935600  0.775400  1
  H  H667  1  0.276300  0.435600  0.724600  1
  H  H668  1  0.223700  0.064400  0.224600  1
  H  H669  1  0.696800  0.624500  0.292400  1
  H  H670  1  0.803200  0.875500  0.792400  1
  H  H671  1  0.303200  0.375500  0.707600  1
  H  H672  1  0.196800  0.124500  0.207600  1
  H  H673  1  0.792300  0.647400  0.239300  1
  H  H674  1  0.707700  0.852600  0.739300  1
  H  H675  1  0.207700  0.352600  0.760700  1
  H  H676  1  0.292300  0.147400  0.260700  1
  H  H677  1  0.835000  0.614400  0.280500  1
  H  H678  1  0.665000  0.885600  0.780500  1
  H  H679  1  0.165000  0.385600  0.719500  1
  H  H680  1  0.335000  0.114400  0.219500  1
  H  H681  1  0.808200  0.674600  0.297700  1
  H  H682  1  0.691800  0.825400  0.797700  1
  H  H683  1  0.191800  0.325400  0.702300  1
  H  H684  1  0.308200  0.174600  0.202300  1
  H  H685  1  0.771500  0.493000  0.340300  1
  H  H686  1  0.728500  0.007000  0.840300  1
  H  H687  1  0.228500  0.507000  0.659700  1
  H  H688  1  0.271500  0.993000  0.159700  1
  H  H689  1  0.831500  0.537900  0.366300  1
  H  H690  1  0.668500  0.962100  0.866300  1
  H  H691  1  0.168500  0.462100  0.633700  1
  H  H692  1  0.331500  0.037900  0.133700  1
  H  H693  1  0.811900  0.452500  0.412100  1
  H  H694  1  0.688100  0.047500  0.912100  1
  H  H695  1  0.188100  0.547500  0.587900  1
  H  H696  1  0.311900  0.952500  0.087900  1
  H  H697  1  0.735400  0.461000  0.422200  1
  H  H698  1  0.764600  0.039000  0.922200  1
  H  H699  1  0.264600  0.539000  0.577800  1
  H  H700  1  0.235400  0.961000  0.077800  1
  H  H701  1  0.795400  0.506400  0.448700  1
  H  H702  1  0.704600  0.993600  0.948700  1
  H  H703  1  0.204600  0.493600  0.551300  1
  H  H704  1  0.295400  0.006400  0.051300  1
  H  H705  1  0.643800  0.525900  0.414700  1
  H  H706  1  0.856200  0.974100  0.914700  1
  H  H707  1  0.356200  0.474100  0.585300  1
  H  H708  1  0.143800  0.025900  0.085300  1
  H  H709  1  0.616800  0.568000  0.371300  1
  H  H710  1  0.883200  0.932000  0.871300  1
  H  H711  1  0.383200  0.432000  0.628700  1
  H  H712  1  0.116800  0.068000  0.128700  1
  H  H713  1  0.578700  0.467900  0.351300  1
  H  H714  1  0.921300  0.032100  0.851300  1
  H  H715  1  0.421300  0.532100  0.648700  1
  H  H716  1  0.078700  0.967900  0.148700  1
  H  H717  1  0.654400  0.454600  0.348200  1
  H  H718  1  0.845600  0.045400  0.848200  1
  H  H719  1  0.345600  0.545400  0.651800  1
  H  H720  1  0.154400  0.954600  0.151800  1
  H  H721  1  0.627600  0.496900  0.304600  1
  H  H722  1  0.872400  0.003100  0.804600  1
  H  H723  1  0.372400  0.503100  0.695400  1
  H  H724  1  0.127600  0.996900  0.195400  1
  H  H725  1  0.744800  0.814000  0.403700  1
  H  H726  1  0.755200  0.686000  0.903700  1
  H  H727  1  0.255200  0.186000  0.596300  1
  H  H728  1  0.244800  0.314000  0.096300  1
  H  H729  1  0.803300  0.851200  0.439000  1
  H  H730  1  0.696700  0.648800  0.939000  1
  H  H731  1  0.196700  0.148800  0.561000  1
  H  H732  1  0.303300  0.351200  0.061000  1
  H  H733  1  0.842100  0.841200  0.351200  1
  H  H734  1  0.657900  0.658800  0.851200  1
  H  H735  1  0.157900  0.158800  0.648800  1
  H  H736  1  0.342100  0.341200  0.148800  1
  H  H737  1  0.826000  0.769800  0.356000  1
  H  H738  1  0.674000  0.730200  0.856000  1
  H  H739  1  0.174000  0.230200  0.644000  1
  H  H740  1  0.326000  0.269800  0.144000  1
  H  H741  1  0.884600  0.806800  0.391400  1
  H  H742  1  0.615400  0.693200  0.891400  1
  H  H743  1  0.115400  0.193200  0.608600  1
  H  H744  1  0.384600  0.306800  0.108600  1
  H  H745  1  0.860500  0.732000  0.531500  1
  H  H746  1  0.639500  0.768000  0.031500  1
  H  H747  1  0.139500  0.268000  0.468500  1
  H  H748  1  0.360500  0.232000  0.968500  1
  H  H749  1  0.899000  0.754700  0.478000  1
  H  H750  1  0.601000  0.745300  0.978000  1
  H  H751  1  0.101000  0.245300  0.522000  1
  H  H752  1  0.399000  0.254700  0.022000  1
  H  H753  1  0.930000  0.823000  0.547000  1
  H  H754  1  0.570000  0.677000  0.047000  1
  H  H755  1  0.070000  0.177000  0.453000  1
  H  H756  1  0.430000  0.323000  0.953000  1
  H  H757  1  0.853300  0.832000  0.555000  1
  H  H758  1  0.646700  0.668000  0.055000  1
  H  H759  1  0.146700  0.168000  0.445000  1
  H  H760  1  0.353300  0.332000  0.945000  1
  H  H761  1  0.892400  0.854700  0.501400  1
  H  H762  1  0.607600  0.645300  0.001400  1
  H  H763  1  0.107600  0.145300  0.498600  1
  H  H764  1  0.392400  0.354700  0.998600  1
  H  H765  1  0.672700  0.745300  0.495400  1
  H  H766  1  0.827300  0.754700  0.995400  1
  H  H767  1  0.327300  0.254700  0.504600  1
  H  H768  1  0.172700  0.245300  0.004600  1
  H  H769  1  0.719600  0.733600  0.544300  1
  H  H770  1  0.780400  0.766400  0.044300  1
  H  H771  1  0.280400  0.266400  0.455700  1
  H  H772  1  0.219600  0.233600  0.955700  1
  H  H773  1  0.674100  0.821400  0.558800  1
  H  H774  1  0.825900  0.678600  0.058800  1
  H  H775  1  0.325900  0.178600  0.441200  1
  H  H776  1  0.174100  0.321400  0.941200  1
  H  H777  1  0.707100  0.849700  0.504600  1
  H  H778  1  0.792900  0.650300  0.004600  1
  H  H779  1  0.292900  0.150300  0.495400  1
  H  H780  1  0.207100  0.349700  0.995400  1
  H  H781  1  0.754100  0.838100  0.553800  1
  H  H782  1  0.745900  0.661900  0.053800  1
  H  H783  1  0.245900  0.161900  0.446200  1
  H  H784  1  0.254100  0.338100  0.946200  1
  H  H785  1  0.227600  0.851600  0.226300  1
  H  H786  1  0.272400  0.648400  0.726300  1
  H  H787  1  0.772400  0.148400  0.773700  1
  H  H788  1  0.727600  0.351600  0.273700  1
  H  H789  1  0.178600  0.880800  0.265300  1
  H  H790  1  0.321400  0.619200  0.765300  1
  H  H791  1  0.821400  0.119200  0.734700  1
  H  H792  1  0.678600  0.380800  0.234700  1
  H  H793  1  0.207600  0.821800  0.283200  1
  H  H794  1  0.292400  0.678200  0.783200  1
  H  H795  1  0.792400  0.178200  0.716800  1
  H  H796  1  0.707600  0.321800  0.216800  1
  H  H797  1  0.361200  0.968500  0.406600  1
  H  H798  1  0.138800  0.531500  0.906600  1
  H  H799  1  0.638800  0.031500  0.593400  1
  H  H800  1  0.861200  0.468500  0.093400  1
  H  H801  1  0.388600  0.929700  0.360600  1
  H  H802  1  0.111400  0.570300  0.860600  1
  H  H803  1  0.611400  0.070300  0.639400  1
  H  H804  1  0.888600  0.429700  0.139400  1
  H  H805  1  0.422500  0.031400  0.343700  1
  H  H806  1  0.077500  0.468600  0.843700  1
  H  H807  1  0.577500  0.968600  0.656300  1
  H  H808  1  0.922500  0.531400  0.156300  1
  H  H809  1  0.345800  0.042400  0.343700  1
  H  H810  1  0.154200  0.457600  0.843700  1
  H  H811  1  0.654200  0.957600  0.656300  1
  H  H812  1  0.845800  0.542400  0.156300  1
  H  H813  1  0.372400  0.003400  0.297400  1
  H  H814  1  0.127600  0.496600  0.797400  1
  H  H815  1  0.627600  0.996600  0.702600  1
  H  H816  1  0.872400  0.503400  0.202600  1
  H  H817  1  0.284100  0.933100  0.265900  1
  H  H818  1  0.215900  0.566900  0.765900  1
  H  H819  1  0.715900  0.066900  0.734100  1
  H  H820  1  0.784100  0.433100  0.234100  1
  H  H821  1  0.313000  0.874300  0.283700  1
  H  H822  1  0.187000  0.625700  0.783700  1
  H  H823  1  0.687000  0.125700  0.716300  1
  H  H824  1  0.813000  0.374300  0.216300  1
  H  H825  1  0.223400  0.996900  0.324500  1
  H  H826  1  0.276600  0.503100  0.824500  1
  H  H827  1  0.776600  0.003100  0.675500  1
  H  H828  1  0.723400  0.496900  0.175500  1
  H  H829  1  0.165200  0.950700  0.351700  1
  H  H830  1  0.334800  0.549300  0.851700  1
  H  H831  1  0.834800  0.049300  0.648300  1
  H  H832  1  0.665200  0.450700  0.148300  1
  H  H833  1  0.181700  0.041400  0.402400  1
  H  H834  1  0.318300  0.458600  0.902400  1
  H  H835  1  0.818300  0.958600  0.597600  1
  H  H836  1  0.681700  0.541400  0.097600  1
  H  H837  1  0.259500  0.036600  0.411100  1
  H  H838  1  0.240500  0.463400  0.911100  1
  H  H839  1  0.740500  0.963400  0.588900  1
  H  H840  1  0.759500  0.536600  0.088900  1
  H  H841  1  0.202500  0.989300  0.439100  1
  H  H842  1  0.297500  0.510700  0.939100  1
  H  H843  1  0.797500  0.010700  0.560900  1
  H  H844  1  0.702500  0.489300  0.060900  1
  H  H845  1  0.827600  0.638100  0.245900  1
  H  H846  1  0.672400  0.861900  0.745900  1
  H  H847  1  0.172400  0.361900  0.754100  1
  H  H848  1  0.327600  0.138100  0.254100  1
  H  H849  1  0.815600  0.670500  0.301000  1
  H  H850  1  0.684400  0.829500  0.801000  1
  H  H851  1  0.184400  0.329500  0.699000  1
  H  H852  1  0.315600  0.170500  0.199000  1
  H  H853  1  0.752700  0.642400  0.265100  1
  H  H854  1  0.747300  0.857600  0.765100  1
  H  H855  1  0.247300  0.357600  0.734900  1
  H  H856  1  0.252700  0.142400  0.234900  1
  H  H857  1  0.820600  0.526700  0.344700  1
  H  H858  1  0.679400  0.973300  0.844700  1
  H  H859  1  0.179400  0.473300  0.655300  1
  H  H860  1  0.320600  0.026700  0.155300  1
  H  H861  1  0.804900  0.520800  0.407100  1
  H  H862  1  0.695100  0.979200  0.907100  1
  H  H863  1  0.195100  0.479200  0.592900  1
  H  H864  1  0.304900  0.020800  0.092900  1
  H  H865  1  0.840800  0.577500  0.315700  1
  H  H866  1  0.659200  0.922500  0.815700  1
  H  H867  1  0.159200  0.422500  0.684300  1
  H  H868  1  0.340800  0.077500  0.184300  1
  H  H869  1  0.778300  0.549200  0.279400  1
  H  H870  1  0.721700  0.950800  0.779400  1
  H  H871  1  0.221700  0.450800  0.720600  1
  H  H872  1  0.278300  0.049200  0.220600  1
  H  H873  1  0.769400  0.419600  0.363200  1
  H  H874  1  0.730600  0.080400  0.863200  1
  H  H875  1  0.230600  0.580400  0.636800  1
  H  H876  1  0.269400  0.919600  0.136800  1
  H  H877  1  0.718000  0.447600  0.325700  1
  H  H878  1  0.782000  0.052400  0.825700  1
  H  H879  1  0.282000  0.552400  0.674300  1
  H  H880  1  0.218000  0.947600  0.174300  1
  H  H881  1  0.704100  0.440900  0.388500  1
  H  H882  1  0.795900  0.059100  0.888500  1
  H  H883  1  0.295900  0.559100  0.611500  1
  H  H884  1  0.204100  0.940900  0.111500  1
  H  H885  1  0.644700  0.595800  0.315900  1
  H  H886  1  0.855300  0.904200  0.815900  1
  H  H887  1  0.355300  0.404200  0.684100  1
  H  H888  1  0.144700  0.095800  0.184100  1
  H  H889  1  0.661100  0.529400  0.305500  1
  H  H890  1  0.838900  0.970600  0.805500  1
  H  H891  1  0.338900  0.470600  0.694500  1
  H  H892  1  0.161100  0.029400  0.194500  1
  H  H893  1  0.560600  0.525500  0.356200  1
  H  H894  1  0.939400  0.974500  0.856200  1
  H  H895  1  0.439400  0.474500  0.643800  1
  H  H896  1  0.060600  0.025500  0.143800  1
  H  H897  1  0.601900  0.565100  0.401800  1
  H  H898  1  0.898100  0.934900  0.901800  1
  H  H899  1  0.398100  0.434900  0.598200  1
  H  H900  1  0.101900  0.065100  0.098200  1
  H  H901  1  0.616400  0.498700  0.390000  1
  H  H902  1  0.883600  0.001300  0.890000  1
  H  H903  1  0.383600  0.501300  0.610000  1
  H  H904  1  0.116400  0.998700  0.110000  1
  H  H905  1  0.954100  0.063100  0.687200  1
  H  H906  1  0.545900  0.436900  0.187200  1
  H  H907  1  0.045900  0.936900  0.312800  1
  H  H908  1  0.454100  0.563100  0.812800  1
  H  H909  1  0.019400  0.040100  0.711000  1
  H  H910  1  0.480600  0.459900  0.211000  1
  H  H911  1  0.980600  0.959900  0.289000  1
  H  H912  1  0.519400  0.540100  0.789000  1
  H  H913  1  0.955200  0.042400  0.748300  1
  H  H914  1  0.544800  0.457600  0.248300  1
  H  H915  1  0.044800  0.957600  0.251700  1
  H  H916  1  0.455200  0.542400  0.751700  1
  H  H917  1  0.924000  0.881300  0.713500  1
  H  H918  1  0.576000  0.618700  0.213500  1
  H  H919  1  0.076000  0.118700  0.286500  1
  H  H920  1  0.424000  0.381300  0.786500  1
  H  H921  1  0.942100  0.922500  0.765200  1
  H  H922  1  0.557900  0.577500  0.265200  1
  H  H923  1  0.057900  0.077500  0.234800  1
  H  H924  1  0.442100  0.422500  0.734800  1
  H  H925  1  0.000300  0.911500  0.724500  1
  H  H926  1  0.499700  0.588500  0.224500  1
  H  H927  1  0.999700  0.088500  0.275500  1
  H  H928  1  0.500300  0.411500  0.775500  1
  H  H929  1  0.969500  0.561100  0.310000  1
  H  H930  1  0.530500  0.938900  0.810000  1
  H  H931  1  0.030500  0.438900  0.690000  1
  H  H932  1  0.469500  0.061100  0.190000  1
  H  H933  1  0.966500  0.539600  0.249100  1
  H  H934  1  0.533500  0.960400  0.749100  1
  H  H935  1  0.033500  0.460400  0.750900  1
  H  H936  1  0.466500  0.039600  0.250900  1
  H  H937  1  0.031400  0.534300  0.284600  1
  H  H938  1  0.468600  0.965700  0.784600  1
  H  H939  1  0.968600  0.465700  0.715400  1
  H  H940  1  0.531400  0.034300  0.215400  1
  H  H941  1  0.939700  0.375800  0.283400  1
  H  H942  1  0.560300  0.124200  0.783400  1
  H  H943  1  0.060300  0.624200  0.716600  1
  H  H944  1  0.439700  0.875800  0.216600  1
  H  H945  1  0.012000  0.412000  0.267700  1
  H  H946  1  0.488000  0.088000  0.767700  1
  H  H947  1  0.988000  0.588000  0.732300  1
  H  H948  1  0.512000  0.912000  0.232300  1
  H  H949  1  0.947700  0.418000  0.231700  1
  H  H950  1  0.552300  0.082000  0.731700  1
  H  H951  1  0.052300  0.582000  0.768300  1
  H  H952  1  0.447700  0.918000  0.268300  1
  Pt  Pt953  1  0.246261  0.831894  0.410824  1
  Pt  Pt954  1  0.253739  0.668106  0.910824  1
  Pt  Pt955  1  0.753739  0.168106  0.589176  1
  Pt  Pt956  1  0.746261  0.331894  0.089176  1
  Pt  Pt957  1  0.279912  0.893817  0.615555  1
  Pt  Pt958  1  0.220088  0.606183  0.115555  1
  Pt  Pt959  1  0.720088  0.106183  0.384445  1
  Pt  Pt960  1  0.779912  0.393817  0.884445  1
  Pt  Pt961  1  0.712646  0.606847  0.624843  1
  Pt  Pt962  1  0.787354  0.893153  0.124843  1
  Pt  Pt963  1  0.287354  0.393153  0.375157  1
  Pt  Pt964  1  0.212646  0.106847  0.875157  1
  Pt  Pt965  1  0.759152  0.661678  0.421337  1
  Pt  Pt966  1  0.740848  0.838322  0.921337  1
  Pt  Pt967  1  0.240848  0.338322  0.578663  1
  Pt  Pt968  1  0.259152  0.161678  0.078663  1
  C  C969  1  0.980000  0.036100  0.705300  1
  C  C970  1  0.520000  0.463900  0.205300  1
  C  C971  1  0.020000  0.963900  0.294700  1
  C  C972  1  0.480000  0.536100  0.794700  1
  C  C973  1  0.941700  0.971500  0.695800  1
  C  C974  1  0.558300  0.528500  0.195800  1
  C  C975  1  0.058300  0.028500  0.304200  1
  C  C976  1  0.441700  0.471500  0.804200  1
  C  C977  1  0.980200  0.921900  0.692900  1
  C  C978  1  0.519800  0.578100  0.192900  1
  C  C979  1  0.019800  0.078100  0.307100  1
  C  C980  1  0.480200  0.421900  0.807100  1
  C  C981  1  0.965100  0.531000  0.281200  1
  C  C982  1  0.534900  0.969000  0.781200  1
  C  C983  1  0.034900  0.469000  0.718800  1
  C  C984  1  0.465100  0.031000  0.218800  1
  C  C985  1  0.949400  0.467000  0.302900  1
  C  C986  1  0.550600  0.033000  0.802900  1
  C  C987  1  0.050600  0.533000  0.697100  1
  C  C988  1  0.449400  0.967000  0.197100  1
  C  C989  1  0.987700  0.420300  0.286700  1
  C  C990  1  0.512300  0.079700  0.786700  1
  C  C991  1  0.012300  0.579700  0.713300  1
  C  C992  1  0.487700  0.920300  0.213300  1
  C  C993  1  0.647100  0.711600  0.369100  1
  C  C994  1  0.852900  0.788400  0.869100  1
  C  C995  1  0.352900  0.288400  0.630900  1
  C  C996  1  0.147100  0.211600  0.130900  1
  C  C997  1  0.576400  0.729900  0.369200  1
  C  C998  1  0.923600  0.770100  0.869200  1
  C  C999  1  0.423600  0.270100  0.630800  1
  C  C1000  1  0.076400  0.229900  0.130800  1
  C  C1001  1  0.434400  0.767300  0.365500  1
  C  C1002  1  0.065600  0.732700  0.865500  1
  C  C1003  1  0.565600  0.232700  0.634500  1
  C  C1004  1  0.934400  0.267300  0.134500  1
  C  C1005  1  0.363300  0.785600  0.361600  1
  C  C1006  1  0.136700  0.714400  0.861600  1
  C  C1007  1  0.636700  0.214400  0.638400  1
  C  C1008  1  0.863300  0.285600  0.138400  1
  C  C1009  1  0.153100  0.848400  0.422100  1
  C  C1010  1  0.346900  0.651600  0.922100  1
  C  C1011  1  0.846900  0.151600  0.577900  1
  C  C1012  1  0.653100  0.348400  0.077900  1
  C  C1013  1  0.102700  0.830000  0.385800  1
  C  C1014  1  0.397300  0.670000  0.885800  1
  C  C1015  1  0.897300  0.170000  0.614200  1
  C  C1016  1  0.602700  0.330000  0.114200  1
  C  C1017  1  0.036500  0.843500  0.390300  1
  C  C1018  1  0.463500  0.656500  0.890300  1
  C  C1019  1  0.963500  0.156500  0.609700  1
  C  C1020  1  0.536500  0.343500  0.109700  1
  C  C1021  1  0.020900  0.878400  0.431400  1
  C  C1022  1  0.479100  0.621600  0.931400  1
  C  C1023  1  0.979100  0.121600  0.568600  1
  C  C1024  1  0.520900  0.378400  0.068600  1
  C  C1025  1  0.069000  0.899300  0.470700  1
  C  C1026  1  0.431000  0.600700  0.970700  1
  C  C1027  1  0.931000  0.100700  0.529300  1
  C  C1028  1  0.569000  0.399300  0.029300  1
  C  C1029  1  0.056600  0.937900  0.511100  1
  C  C1030  1  0.443400  0.562100  0.011100  1
  C  C1031  1  0.943400  0.062100  0.488900  1
  C  C1032  1  0.556600  0.437900  0.988900  1
  C  C1033  1  0.102400  0.956700  0.551700  1
  C  C1034  1  0.397600  0.543300  0.051700  1
  C  C1035  1  0.897600  0.043300  0.448300  1
  C  C1036  1  0.602400  0.456700  0.948300  1
  C  C1037  1  0.089800  0.997600  0.592100  1
  C  C1038  1  0.410200  0.502400  0.092100  1
  C  C1039  1  0.910200  0.002400  0.407900  1
  C  C1040  1  0.589800  0.497600  0.907900  1
  C  C1041  1  0.133300  0.011800  0.632400  1
  C  C1042  1  0.366700  0.488200  0.132400  1
  C  C1043  1  0.866700  0.988200  0.367600  1
  C  C1044  1  0.633300  0.511800  0.867600  1
  C  C1045  1  0.191000  0.983600  0.638100  1
  C  C1046  1  0.309000  0.516400  0.138100  1
  C  C1047  1  0.809000  0.016400  0.361900  1
  C  C1048  1  0.691000  0.483600  0.861900  1
  C  C1049  1  0.206600  0.942700  0.601000  1
  C  C1050  1  0.293400  0.557300  0.101000  1
  C  C1051  1  0.793400  0.057300  0.399000  1
  C  C1052  1  0.706600  0.442700  0.899000  1
  C  C1053  1  0.164100  0.932100  0.554400  1
  C  C1054  1  0.335900  0.567900  0.054400  1
  C  C1055  1  0.835900  0.067900  0.445600  1
  C  C1056  1  0.664100  0.432100  0.945600  1
  C  C1057  1  0.178900  0.896900  0.511400  1
  C  C1058  1  0.321100  0.603100  0.011400  1
  C  C1059  1  0.821100  0.103100  0.488600  1
  C  C1060  1  0.678900  0.396900  0.988600  1
  C  C1061  1  0.134900  0.881500  0.468000  1
  C  C1062  1  0.365100  0.618500  0.968000  1
  C  C1063  1  0.865100  0.118500  0.532000  1
  C  C1064  1  0.634900  0.381500  0.032000  1
  C  C1065  1  0.397200  0.844600  0.664000  1
  C  C1066  1  0.102800  0.655400  0.164000  1
  C  C1067  1  0.602800  0.155400  0.336000  1
  C  C1068  1  0.897200  0.344600  0.836000  1
  C  C1069  1  0.446400  0.798300  0.664200  1
  C  C1070  1  0.053600  0.701700  0.164200  1
  C  C1071  1  0.553600  0.201700  0.335800  1
  C  C1072  1  0.946400  0.298300  0.835800  1
  C  C1073  1  0.545600  0.705100  0.665900  1
  C  C1074  1  0.954400  0.794900  0.165900  1
  C  C1075  1  0.454400  0.294900  0.334100  1
  C  C1076  1  0.045600  0.205100  0.834100  1
  C  C1077  1  0.593700  0.658000  0.668300  1
  C  C1078  1  0.906300  0.842000  0.168300  1
  C  C1079  1  0.406300  0.342000  0.331700  1
  C  C1080  1  0.093700  0.158000  0.831700  1
  C  C1081  1  0.785700  0.556500  0.616300  1
  C  C1082  1  0.714300  0.943500  0.116300  1
  C  C1083  1  0.214300  0.443500  0.383700  1
  C  C1084  1  0.285700  0.056500  0.883700  1
  C  C1085  1  0.798100  0.517600  0.655600  1
  C  C1086  1  0.701900  0.982400  0.155600  1
  C  C1087  1  0.201900  0.482400  0.344400  1
  C  C1088  1  0.298100  0.017600  0.844400  1
  C  C1089  1  0.855200  0.487500  0.654800  1
  C  C1090  1  0.644800  0.012500  0.154800  1
  C  C1091  1  0.144800  0.512500  0.345200  1
  C  C1092  1  0.355200  0.987500  0.845200  1
  C  C1093  1  0.899800  0.497200  0.614500  1
  C  C1094  1  0.600200  0.002800  0.114500  1
  C  C1095  1  0.100200  0.502800  0.385500  1
  C  C1096  1  0.399800  0.997200  0.885500  1
  C  C1097  1  0.890500  0.535900  0.571200  1
  C  C1098  1  0.609500  0.964100  0.071200  1
  C  C1099  1  0.109500  0.464100  0.428800  1
  C  C1100  1  0.390500  0.035900  0.928800  1
  C  C1101  1  0.937700  0.550400  0.530900  1
  C  C1102  1  0.562300  0.949600  0.030900  1
  C  C1103  1  0.062300  0.449600  0.469100  1
  C  C1104  1  0.437700  0.050400  0.969100  1
  C  C1105  1  0.928100  0.586000  0.487800  1
  C  C1106  1  0.571900  0.914000  0.987800  1
  C  C1107  1  0.071900  0.414000  0.512200  1
  C  C1108  1  0.428100  0.086000  0.012200  1
  C  C1109  1  0.978100  0.601800  0.447900  1
  C  C1110  1  0.521900  0.898200  0.947900  1
  C  C1111  1  0.021900  0.398200  0.552100  1
  C  C1112  1  0.478100  0.101800  0.052100  1
  C  C1113  1  0.966400  0.636800  0.406500  1
  C  C1114  1  0.533600  0.863200  0.906500  1
  C  C1115  1  0.033600  0.363200  0.593500  1
  C  C1116  1  0.466400  0.136800  0.093500  1
  C  C1117  1  0.902300  0.655800  0.399500  1
  C  C1118  1  0.597700  0.844200  0.899500  1
  C  C1119  1  0.097700  0.344200  0.600500  1
  C  C1120  1  0.402300  0.155800  0.100500  1
  C  C1121  1  0.851100  0.641100  0.435800  1
  C  C1122  1  0.648900  0.858900  0.935800  1
  C  C1123  1  0.148900  0.358900  0.564200  1
  C  C1124  1  0.351100  0.141100  0.064200  1
  C  C1125  1  0.864700  0.608400  0.482700  1
  C  C1126  1  0.635300  0.891600  0.982700  1
  C  C1127  1  0.135300  0.391600  0.517300  1
  C  C1128  1  0.364700  0.108400  0.017300  1
  C  C1129  1  0.819500  0.597800  0.525800  1
  C  C1130  1  0.680500  0.902200  0.025800  1
  C  C1131  1  0.180500  0.402200  0.474200  1
  C  C1132  1  0.319500  0.097800  0.974200  1
  C  C1133  1  0.830400  0.563800  0.570700  1
  C  C1134  1  0.669600  0.936200  0.070700  1
  C  C1135  1  0.169600  0.436200  0.429300  1
  C  C1136  1  0.330400  0.063800  0.929300  1
  C  C1137  1  0.348300  0.934700  0.328700  1
  C  C1138  1  0.151700  0.565300  0.828700  1
  C  C1139  1  0.651700  0.065300  0.671300  1
  C  C1140  1  0.848300  0.434700  0.171300  1
  C  C1141  1  0.401500  0.958000  0.370000  1
  C  C1142  1  0.098500  0.542000  0.870000  1
  C  C1143  1  0.598500  0.042000  0.630000  1
  C  C1144  1  0.901500  0.458000  0.130000  1
  C  C1145  1  0.211300  0.910300  0.295800  1
  C  C1146  1  0.288700  0.589700  0.795800  1
  C  C1147  1  0.788700  0.089700  0.704200  1
  C  C1148  1  0.711300  0.410300  0.204200  1
  C  C1149  1  0.217600  0.859700  0.263600  1
  C  C1150  1  0.282400  0.640300  0.763600  1
  C  C1151  1  0.782400  0.140300  0.736400  1
  C  C1152  1  0.717600  0.359700  0.236400  1
  C  C1153  1  0.242700  0.985000  0.385200  1
  C  C1154  1  0.257300  0.515000  0.885200  1
  C  C1155  1  0.757300  0.015000  0.614800  1
  C  C1156  1  0.742700  0.485000  0.114800  1
  C  C1157  1  0.263600  0.042300  0.353600  1
  C  C1158  1  0.236400  0.457700  0.853600  1
  C  C1159  1  0.736400  0.957700  0.646400  1
  C  C1160  1  0.763600  0.542300  0.146400  1
  C  C1161  1  0.223100  0.680600  0.412300  1
  C  C1162  1  0.276900  0.819400  0.912300  1
  C  C1163  1  0.776900  0.319400  0.587700  1
  C  C1164  1  0.723100  0.180600  0.087700  1
  C  C1165  1  0.172000  0.683000  0.367800  1
  C  C1166  1  0.328000  0.817000  0.867800  1
  C  C1167  1  0.828000  0.317000  0.632200  1
  C  C1168  1  0.672000  0.183000  0.132200  1
  C  C1169  1  0.290000  0.738300  0.506600  1
  C  C1170  1  0.210000  0.761700  0.006600  1
  C  C1171  1  0.710000  0.261700  0.493400  1
  C  C1172  1  0.790000  0.238300  0.993400  1
  C  C1173  1  0.296900  0.677200  0.529900  1
  C  C1174  1  0.203100  0.822800  0.029900  1
  C  C1175  1  0.703100  0.322800  0.470100  1
  C  C1176  1  0.796900  0.177200  0.970100  1
  C  C1177  1  0.142800  0.729400  0.492700  1
  C  C1178  1  0.357200  0.770600  0.992700  1
  C  C1179  1  0.857200  0.270600  0.507300  1
  C  C1180  1  0.642800  0.229400  0.007300  1
  C  C1181  1  0.122700  0.669300  0.521000  1
  C  C1182  1  0.377300  0.830700  0.021000  1
  C  C1183  1  0.877300  0.330700  0.479000  1
  C  C1184  1  0.622700  0.169300  0.979000  1
  C  C1185  1  0.329200  0.000700  0.517500  1
  C  C1186  1  0.170800  0.499300  0.017500  1
  C  C1187  1  0.670800  0.999300  0.482500  1
  C  C1188  1  0.829200  0.500700  0.982500  1
  C  C1189  1  0.379700  0.050300  0.492200  1
  C  C1190  1  0.120300  0.449700  0.992200  1
  C  C1191  1  0.620300  0.949700  0.507800  1
  C  C1192  1  0.879700  0.550300  0.007800  1
  C  C1193  1  0.437100  0.951100  0.566300  1
  C  C1194  1  0.062900  0.548900  0.066300  1
  C  C1195  1  0.562900  0.048900  0.433700  1
  C  C1196  1  0.937100  0.451100  0.933700  1
  C  C1197  1  0.434500  0.903700  0.523100  1
  C  C1198  1  0.065500  0.596300  0.023100  1
  C  C1199  1  0.565500  0.096300  0.476900  1
  C  C1200  1  0.934500  0.403700  0.976900  1
  C  C1201  1  0.368400  0.036400  0.623400  1
  C  C1202  1  0.131600  0.463600  0.123400  1
  C  C1203  1  0.631600  0.963600  0.376600  1
  C  C1204  1  0.868400  0.536400  0.876600  1
  C  C1205  1  0.388800  0.024100  0.679600  1
  C  C1206  1  0.111200  0.475900  0.179600  1
  C  C1207  1  0.611200  0.975900  0.320400  1
  C  C1208  1  0.888800  0.524100  0.820400  1
  C  C1209  1  0.117000  0.831600  0.667300  1
  C  C1210  1  0.383000  0.668400  0.167300  1
  C  C1211  1  0.883000  0.168400  0.332700  1
  C  C1212  1  0.617000  0.331600  0.832700  1
  C  C1213  1  0.075200  0.810100  0.618300  1
  C  C1214  1  0.424800  0.689900  0.118300  1
  C  C1215  1  0.924800  0.189900  0.381700  1
  C  C1216  1  0.575200  0.310100  0.881700  1
  C  C1217  1  0.207400  0.746800  0.645200  1
  C  C1218  1  0.292600  0.753200  0.145200  1
  C  C1219  1  0.792600  0.253200  0.354800  1
  C  C1220  1  0.707400  0.246800  0.854800  1
  C  C1221  1  0.161500  0.699900  0.677100  1
  C  C1222  1  0.338500  0.800100  0.177100  1
  C  C1223  1  0.838500  0.300100  0.322900  1
  C  C1224  1  0.661500  0.199900  0.822900  1
  C  C1225  1  0.232300  0.828900  0.733200  1
  C  C1226  1  0.267700  0.671100  0.233200  1
  C  C1227  1  0.767700  0.171100  0.266800  1
  C  C1228  1  0.732300  0.328900  0.766800  1
  C  C1229  1  0.232400  0.890300  0.757300  1
  C  C1230  1  0.267600  0.609700  0.257300  1
  C  C1231  1  0.767600  0.109700  0.242700  1
  C  C1232  1  0.732400  0.390300  0.742700  1
  C  C1233  1  0.668500  0.497600  0.526600  1
  C  C1234  1  0.831500  0.002400  0.026600  1
  C  C1235  1  0.331500  0.502400  0.473400  1
  C  C1236  1  0.168500  0.997600  0.973400  1
  C  C1237  1  0.615700  0.450300  0.500200  1
  C  C1238  1  0.884300  0.049700  0.000200  1
  C  C1239  1  0.384300  0.549700  0.499800  1
  C  C1240  1  0.115700  0.950300  0.999800  1
  C  C1241  1  0.558600  0.550800  0.570000  1
  C  C1242  1  0.941400  0.949200  0.070000  1
  C  C1243  1  0.441400  0.449200  0.430000  1
  C  C1244  1  0.058600  0.050800  0.930000  1
  C  C1245  1  0.565300  0.597200  0.525600  1
  C  C1246  1  0.934700  0.902800  0.025600  1
  C  C1247  1  0.434700  0.402800  0.474400  1
  C  C1248  1  0.065300  0.097200  0.974400  1
  C  C1249  1  0.621900  0.465100  0.631000  1
  C  C1250  1  0.878100  0.034900  0.131000  1
  C  C1251  1  0.378100  0.534900  0.369000  1
  C  C1252  1  0.121900  0.965100  0.869000  1
  C  C1253  1  0.592500  0.477400  0.685300  1
  C  C1254  1  0.907500  0.022600  0.185300  1
  C  C1255  1  0.407500  0.522600  0.314700  1
  C  C1256  1  0.092500  0.977400  0.814700  1
  C  C1257  1  0.783100  0.753900  0.652800  1
  C  C1258  1  0.716900  0.746100  0.152800  1
  C  C1259  1  0.216900  0.246100  0.347200  1
  C  C1260  1  0.283100  0.253900  0.847200  1
  C  C1261  1  0.825000  0.801900  0.687000  1
  C  C1262  1  0.675000  0.698100  0.187000  1
  C  C1263  1  0.175000  0.198100  0.313000  1
  C  C1264  1  0.325000  0.301900  0.813000  1
  C  C1265  1  0.871700  0.669500  0.682400  1
  C  C1266  1  0.628300  0.830500  0.182400  1
  C  C1267  1  0.128300  0.330500  0.317600  1
  C  C1268  1  0.371700  0.169500  0.817600  1
  C  C1269  1  0.916400  0.688800  0.634000  1
  C  C1270  1  0.583600  0.811200  0.134000  1
  C  C1271  1  0.083600  0.311200  0.366000  1
  C  C1272  1  0.416400  0.188800  0.866000  1
  C  C1273  1  0.751300  0.674600  0.742900  1
  C  C1274  1  0.748700  0.825400  0.242900  1
  C  C1275  1  0.248700  0.325400  0.257100  1
  C  C1276  1  0.251300  0.174600  0.757100  1
  C  C1277  1  0.747100  0.612600  0.768600  1
  C  C1278  1  0.752900  0.887400  0.268600  1
  C  C1279  1  0.252900  0.387400  0.231400  1
  C  C1280  1  0.247100  0.112600  0.731400  1
  C  C1281  1  0.733900  0.601000  0.297500  1
  C  C1282  1  0.766100  0.899000  0.797500  1
  C  C1283  1  0.266100  0.399000  0.702500  1
  C  C1284  1  0.233900  0.101000  0.202500  1
  C  C1285  1  0.797900  0.637600  0.276900  1
  C  C1286  1  0.702100  0.862400  0.776900  1
  C  C1287  1  0.202100  0.362400  0.723100  1
  C  C1288  1  0.297900  0.137600  0.223100  1
  C  C1289  1  0.783800  0.519600  0.371300  1
  C  C1290  1  0.716200  0.980400  0.871300  1
  C  C1291  1  0.216200  0.480400  0.628700  1
  C  C1292  1  0.283800  0.019600  0.128700  1
  C  C1293  1  0.781400  0.481900  0.417200  1
  C  C1294  1  0.718600  0.018100  0.917200  1
  C  C1295  1  0.218600  0.518100  0.582800  1
  C  C1296  1  0.281400  0.981900  0.082800  1
  C  C1297  1  0.648200  0.538900  0.376900  1
  C  C1298  1  0.851800  0.961100  0.876900  1
  C  C1299  1  0.351800  0.461100  0.623100  1
  C  C1300  1  0.148200  0.038900  0.123100  1
  C  C1301  1  0.625200  0.484800  0.342200  1
  C  C1302  1  0.874800  0.015200  0.842200  1
  C  C1303  1  0.374800  0.515200  0.657800  1
  C  C1304  1  0.125200  0.984800  0.157800  1
  C  C1305  1  0.789600  0.813000  0.419700  1
  C  C1306  1  0.710400  0.687000  0.919700  1
  C  C1307  1  0.210400  0.187000  0.580300  1
  C  C1308  1  0.289600  0.313000  0.080300  1
  C  C1309  1  0.840100  0.807200  0.375700  1
  C  C1310  1  0.659900  0.692800  0.875700  1
  C  C1311  1  0.159900  0.192800  0.624300  1
  C  C1312  1  0.340100  0.307200  0.124300  1
  C  C1313  1  0.863300  0.762700  0.503100  1
  C  C1314  1  0.636700  0.737300  0.003100  1
  C  C1315  1  0.136700  0.237300  0.496900  1
  C  C1316  1  0.363300  0.262700  0.996900  1
  C  C1317  1  0.886800  0.823500  0.528900  1
  C  C1318  1  0.613200  0.676500  0.028900  1
  C  C1319  1  0.113200  0.176500  0.471100  1
  C  C1320  1  0.386800  0.323500  0.971100  1
  C  C1321  1  0.716000  0.760100  0.513300  1
  C  C1322  1  0.784000  0.739900  0.013300  1
  C  C1323  1  0.284000  0.239900  0.486700  1
  C  C1324  1  0.216000  0.260100  0.986700  1
  C  C1325  1  0.712500  0.823000  0.534500  1
  C  C1326  1  0.787500  0.677000  0.034500  1
  C  C1327  1  0.287500  0.177000  0.465500  1
  C  C1328  1  0.212500  0.323000  0.965500  1
  C  C1329  1  0.356500  0.957600  0.368300  1
  C  C1330  1  0.143500  0.542400  0.868300  1
  C  C1331  1  0.643500  0.042400  0.631700  1
  C  C1332  1  0.856500  0.457600  0.131700  1
  C  C1333  1  0.376000  0.013600  0.335400  1
  C  C1334  1  0.124000  0.486400  0.835400  1
  C  C1335  1  0.624000  0.986400  0.664600  1
  C  C1336  1  0.876000  0.513600  0.164600  1
  C  C1337  1  0.273800  0.895600  0.286900  1
  C  C1338  1  0.226200  0.604400  0.786900  1
  C  C1339  1  0.726200  0.104400  0.713100  1
  C  C1340  1  0.773800  0.395600  0.213100  1
  C  C1341  1  0.212100  0.971200  0.356300  1
  C  C1342  1  0.287900  0.528800  0.856300  1
  C  C1343  1  0.787900  0.028800  0.643700  1
  C  C1344  1  0.712100  0.471200  0.143700  1
  C  C1345  1  0.214200  0.013700  0.407100  1
  C  C1346  1  0.285800  0.486300  0.907100  1
  C  C1347  1  0.785800  0.986300  0.592900  1
  C  C1348  1  0.714200  0.513700  0.092900  1
  C  C1349  1  0.795000  0.582500  0.304000  1
  C  C1350  1  0.705000  0.917500  0.804000  1
  C  C1351  1  0.205000  0.417500  0.696000  1
  C  C1352  1  0.295000  0.082500  0.196000  1
  C  C1353  1  0.739000  0.449400  0.361100  1
  C  C1354  1  0.761000  0.050600  0.861100  1
  C  C1355  1  0.261000  0.550600  0.638900  1
  C  C1356  1  0.239000  0.949400  0.138900  1
  C  C1357  1  0.657300  0.559800  0.333333  1
  C  C1358  1  0.842700  0.940200  0.833333  1
  C  C1359  1  0.342700  0.440200  0.666667  1
  C  C1360  1  0.157300  0.059800  0.166667  1
  C  C1361  1  0.604400  0.535100  0.373900  1
  C  C1362  1  0.895600  0.964900  0.873900  1
  C  C1363  1  0.395600  0.464900  0.626100  1
  C  C1364  1  0.104400  0.035100  0.126100  1
  C  C1365  1  0.970100  0.034800  0.712000  1
  C  C1366  1  0.529900  0.465200  0.212000  1
  C  C1367  1  0.029900  0.965200  0.288000  1
  C  C1368  1  0.470100  0.534800  0.788000  1
  C  C1369  1  0.953000  0.916900  0.727600  1
  C  C1370  1  0.547000  0.583100  0.227600  1
  C  C1371  1  0.047000  0.083100  0.272400  1
  C  C1372  1  0.453000  0.416900  0.772400  1
  C  C1373  1  0.982300  0.531500  0.285000  1
  C  C1374  1  0.517700  0.968500  0.785000  1
  C  C1375  1  0.017700  0.468500  0.715000  1
  C  C1376  1  0.482300  0.031500  0.215000  1
  C  C1377  1  0.963500  0.413200  0.268200  1
  C  C1378  1  0.536500  0.086800  0.768200  1
  C  C1379  1  0.036500  0.586800  0.731800  1
  C  C1380  1  0.463500  0.913200  0.231800  1
  O  O1381  1  0.877300  0.960700  0.704700  1
  O  O1382  1  0.622700  0.539300  0.204700  1
  O  O1383  1  0.122700  0.039300  0.295300  1
  O  O1384  1  0.377300  0.460700  0.795300  1
  O  O1385  1  0.893200  0.456600  0.328300  1
  O  O1386  1  0.606800  0.043400  0.828300  1
  O  O1387  1  0.106800  0.543400  0.671700  1
  O  O1388  1  0.393200  0.956600  0.171700  1
  O  O1389  1  0.683700  0.726800  0.331500  1
  O  O1390  1  0.816300  0.773200  0.831500  1
  O  O1391  1  0.316300  0.273200  0.668500  1
  O  O1392  1  0.183700  0.226800  0.168500  1
  O  O1393  1  0.659500  0.682100  0.409860  1
  O  O1394  1  0.840500  0.817900  0.909860  1
  O  O1395  1  0.340500  0.317900  0.590140  1
  O  O1396  1  0.159500  0.182100  0.090140  1
  O  O1397  1  0.347200  0.813140  0.402540  1
  O  O1398  1  0.152800  0.686860  0.902540  1
  O  O1399  1  0.652800  0.186860  0.597460  1
  O  O1400  1  0.847200  0.313140  0.097460  1
  O  O1401  1  0.330700  0.773300  0.321400  1
  O  O1402  1  0.169300  0.726700  0.821400  1
  O  O1403  1  0.669300  0.226700  0.678600  1
  O  O1404  1  0.830700  0.273300  0.178600  1
  O  O1405  1  0.352400  0.835390  0.628290  1
  O  O1406  1  0.147600  0.664610  0.128290  1
  O  O1407  1  0.647600  0.164610  0.371710  1
  O  O1408  1  0.852400  0.335390  0.871710  1
  O  O1409  1  0.406000  0.884700  0.697400  1
  O  O1410  1  0.094000  0.615300  0.197400  1
  O  O1411  1  0.594000  0.115300  0.302600  1
  O  O1412  1  0.906000  0.384700  0.802600  1
  O  O1413  1  0.639670  0.666310  0.632660  1
  O  O1414  1  0.860330  0.833690  0.132660  1
  O  O1415  1  0.360330  0.333690  0.367340  1
  O  O1416  1  0.139670  0.166310  0.867340  1
  O  O1417  1  0.584100  0.618800  0.701500  1
  O  O1418  1  0.915900  0.881200  0.201500  1
  O  O1419  1  0.415900  0.381200  0.298500  1
  O  O1420  1  0.084100  0.118800  0.798500  1
  O  O1421  1  0.916100  0.962400  0.643100  1
  O  O1422  1  0.583900  0.537600  0.143100  1
  O  O1423  1  0.083900  0.037600  0.356900  1
  O  O1424  1  0.416100  0.462400  0.856900  1
  O  O1425  1  0.928700  0.456500  0.355200  1
  O  O1426  1  0.571300  0.043500  0.855200  1
  O  O1427  1  0.071300  0.543500  0.644800  1
  O  O1428  1  0.428700  0.956500  0.144800  1
