# generated using pymatgen
data_Fe2P3H92C98S8N20(O4F5)6
_symmetry_space_group_name_H-M   'P 1'
_cell_length_a   18.66290000
_cell_length_b   33.46050878
_cell_length_c   43.64472270
_cell_angle_alpha   86.58166759
_cell_angle_beta   77.65458462
_cell_angle_gamma   73.80665877
_symmetry_Int_Tables_number   1
_chemical_formula_structural   Fe2P3H92C98S8N20(O4F5)6
_chemical_formula_sum   'Fe16 P24 H736 C784 S64 N160 O192 F240'
_cell_volume   25568.29471010
_cell_formula_units_Z   8
loop_
 _symmetry_equiv_pos_site_id
 _symmetry_equiv_pos_as_xyz
  1  'x, y, z'
loop_
 _atom_site_type_symbol
 _atom_site_label
 _atom_site_symmetry_multiplicity
 _atom_site_fract_x
 _atom_site_fract_y
 _atom_site_fract_z
 _atom_site_occupancy
  C  C1  1  0.764000  0.058400  0.882000  1
  C  C2  1  0.354000  0.441600  0.882000  1
  C  C3  1  0.177600  0.058400  0.618000  1
  C  C4  1  0.204400  0.441600  0.618000  1
  C  C5  1  0.236000  0.941600  0.118000  1
  C  C6  1  0.646000  0.558400  0.118000  1
  C  C7  1  0.822400  0.941600  0.382000  1
  C  C8  1  0.795600  0.558400  0.382000  1
  C  C9  1  0.526400  0.511000  0.830800  1
  C  C10  1  0.642800  0.989000  0.830800  1
  C  C11  1  0.962600  0.511000  0.669200  1
  C  C12  1  0.368200  0.989000  0.669200  1
  C  C13  1  0.473600  0.489000  0.169200  1
  C  C14  1  0.357200  0.011000  0.169200  1
  C  C15  1  0.037400  0.489000  0.330800  1
  C  C16  1  0.631800  0.011000  0.330800  1
  C  C17  1  0.711200  0.522200  0.000000  1
  C  C18  1  0.288800  0.977800  1.000000  1
  C  C19  1  0.766600  0.522200  0.500000  1
  C  C20  1  0.733400  0.977800  0.500000  1
  C  C21  1  0.288800  0.477800  0.000000  1
  C  C22  1  0.711200  0.022200  1.000000  1
  C  C23  1  0.233400  0.477800  0.500000  1
  C  C24  1  0.266600  0.022200  0.500000  1
  C  C25  1  0.776200  0.032800  0.859600  1
  C  C26  1  0.364200  0.467200  0.859600  1
  C  C27  1  0.191000  0.032800  0.640400  1
  C  C28  1  0.168600  0.467200  0.640400  1
  C  C29  1  0.223800  0.967200  0.140400  1
  C  C30  1  0.635800  0.532800  0.140400  1
  C  C31  1  0.809000  0.967200  0.359600  1
  C  C32  1  0.831400  0.532800  0.359600  1
  C  C33  1  0.747500  0.496200  0.001000  1
  C  C34  1  0.251500  0.003800  0.001000  1
  C  C35  1  0.756300  0.496200  0.499000  1
  C  C36  1  0.744700  0.003800  0.499000  1
  C  C37  1  0.252500  0.503800  0.999000  1
  C  C38  1  0.748500  0.996200  0.999000  1
  C  C39  1  0.243700  0.503800  0.501000  1
  C  C40  1  0.255300  0.996200  0.501000  1
  C  C41  1  0.533400  0.513400  0.810400  1
  C  C42  1  0.656200  0.986600  0.810400  1
  C  C43  1  0.953200  0.513400  0.689600  1
  C  C44  1  0.357200  0.986600  0.689600  1
  C  C45  1  0.466600  0.486600  0.189600  1
  C  C46  1  0.343800  0.013400  0.189600  1
  C  C47  1  0.046800  0.486600  0.310400  1
  C  C48  1  0.642800  0.013400  0.310400  1
  C  C49  1  0.558400  0.559400  0.765800  1
  C  C50  1  0.675800  0.940600  0.765800  1
  C  C51  1  0.882200  0.559400  0.734200  1
  C  C52  1  0.383600  0.940600  0.734200  1
  C  C53  1  0.441600  0.440600  0.234200  1
  C  C54  1  0.324200  0.059400  0.234200  1
  C  C55  1  0.117800  0.440600  0.265800  1
  C  C56  1  0.616400  0.059400  0.265800  1
  C  C57  1  0.065730  0.735840  0.948100  1
  C  C58  1  0.986170  0.764160  0.948100  1
  C  C59  1  0.198430  0.735840  0.551900  1
  C  C60  1  0.249670  0.764160  0.551900  1
  C  C61  1  0.934270  0.264160  0.051900  1
  C  C62  1  0.013830  0.235840  0.051900  1
  C  C63  1  0.801570  0.264160  0.448100  1
  C  C64  1  0.750330  0.235840  0.448100  1
  C  C65  1  0.869600  0.553400  0.800600  1.0
  C  C66  1  0.329800  0.946600  0.800600  1.0
  C  C67  1  0.577000  0.553400  0.699400  1.0
  C  C68  1  0.723600  0.946600  0.699400  1.0
  C  C69  1  0.130400  0.446600  0.199400  1.0
  C  C70  1  0.670200  0.053400  0.199400  1.0
  C  C71  1  0.423000  0.446600  0.300600  1.0
  C  C72  1  0.276400  0.053400  0.300600  1.0
  C  C73  1  0.795360  0.549600  0.802080  1.0
  C  C74  1  0.402560  0.950400  0.802080  1.0
  C  C75  1  0.655040  0.549600  0.697920  1.0
  C  C76  1  0.647040  0.950400  0.697920  1.0
  C  C77  1  0.204640  0.450400  0.197920  1.0
  C  C78  1  0.597440  0.049600  0.197920  1.0
  C  C79  1  0.344960  0.450400  0.302080  1.0
  C  C80  1  0.352960  0.049600  0.302080  1.0
  C  C81  1  0.749740  0.546400  0.830720  1.0
  C  C82  1  0.419540  0.953600  0.830720  1.0
  C  C83  1  0.703860  0.546400  0.669280  1.0
  C  C84  1  0.626860  0.953600  0.669280  1.0
  C  C85  1  0.250260  0.453600  0.169280  1.0
  C  C86  1  0.580460  0.046400  0.169280  1.0
  C  C87  1  0.296140  0.453600  0.330720  1.0
  C  C88  1  0.373140  0.046400  0.330720  1.0
  C  C89  1  0.777380  0.546200  0.857640  1.0
  C  C90  1  0.364980  0.953800  0.857640  1.0
  C  C91  1  0.676420  0.546200  0.642360  1.0
  C  C92  1  0.681220  0.953800  0.642360  1.0
  C  C93  1  0.222620  0.453800  0.142360  1.0
  C  C94  1  0.635020  0.046200  0.142360  1.0
  C  C95  1  0.323580  0.453800  0.357640  1.0
  C  C96  1  0.318780  0.046200  0.357640  1.0
  C  C97  1  0.849310  0.552000  0.854380  1.0
  C  C98  1  0.296310  0.948000  0.854380  1.0
  C  C99  1  0.598690  0.552000  0.645620  1.0
  C  C100  1  0.755690  0.948000  0.645620  1.0
  C  C101  1  0.150690  0.448000  0.145620  1.0
  C  C102  1  0.703690  0.052000  0.145620  1.0
  C  C103  1  0.401310  0.448000  0.354380  1.0
  C  C104  1  0.244310  0.052000  0.354380  1.0
  C  C105  1  0.880860  0.556360  0.880720  1.0
  C  C106  1  0.238420  0.943640  0.880720  1.0
  C  C107  1  0.562780  0.556360  0.619280  1.0
  C  C108  1  0.817940  0.943640  0.619280  1.0
  C  C109  1  0.119140  0.443640  0.119280  1.0
  C  C110  1  0.761580  0.056360  0.119280  1.0
  C  C111  1  0.437220  0.443640  0.380720  1.0
  C  C112  1  0.182060  0.056360  0.380720  1.0
  C  C113  1  0.972350  0.572760  0.901940  1.0
  C  C114  1  0.125710  0.927240  0.901940  1.0
  C  C115  1  0.454890  0.572760  0.598060  1.0
  C  C116  1  0.947050  0.927240  0.598060  1.0
  C  C117  1  0.027650  0.427240  0.098060  1.0
  C  C118  1  0.874290  0.072760  0.098060  1.0
  C  C119  1  0.545110  0.427240  0.401940  1.0
  C  C120  1  0.052950  0.072760  0.401940  1.0
  C  C121  1  0.037920  0.548280  0.910480  1.0
  C  C122  1  0.051600  0.951720  0.910480  1.0
  C  C123  1  0.413800  0.548280  0.589520  1.0
  C  C124  1  0.996680  0.951720  0.589520  1.0
  C  C125  1  0.962080  0.451720  0.089520  1.0
  C  C126  1  0.948400  0.048280  0.089520  1.0
  C  C127  1  0.586200  0.451720  0.410480  1.0
  C  C128  1  0.003320  0.048280  0.410480  1.0
  C  C129  1  0.060480  0.558600  0.936640  1.0
  C  C130  1  0.002880  0.941400  0.936640  1.0
  C  C131  1  0.380920  0.558600  0.563360  1.0
  C  C132  1  0.055720  0.941400  0.563360  1.0
  C  C133  1  0.939520  0.441400  0.063360  1.0
  C  C134  1  0.997120  0.058600  0.063360  1.0
  C  C135  1  0.619080  0.441400  0.436640  1.0
  C  C136  1  0.944280  0.058600  0.436640  1.0
  C  C137  1  0.017430  0.593060  0.954680  1.0
  C  C138  1  0.027890  0.906940  0.954680  1.0
  C  C139  1  0.389510  0.593060  0.545320  1.0
  C  C140  1  0.065170  0.906940  0.545320  1.0
  C  C141  1  0.982570  0.406940  0.045320  1.0
  C  C142  1  0.972110  0.093060  0.045320  1.0
  C  C143  1  0.610490  0.406940  0.454680  1.0
  C  C144  1  0.934830  0.093060  0.454680  1.0
  C  C145  1  0.952740  0.617000  0.945320  1.0
  C  C146  1  0.101940  0.883000  0.945320  1.0
  C  C147  1  0.430260  0.617000  0.554680  1.0
  C  C148  1  0.015060  0.883000  0.554680  1.0
  C  C149  1  0.047260  0.383000  0.054680  1.0
  C  C150  1  0.898060  0.117000  0.054680  1.0
  C  C151  1  0.569740  0.383000  0.445320  1.0
  C  C152  1  0.984940  0.117000  0.445320  1.0
  C  C153  1  0.929480  0.607140  0.919500  1.0
  C  C154  1  0.151020  0.892860  0.919500  1.0
  C  C155  1  0.463380  0.607140  0.580500  1.0
  C  C156  1  0.956120  0.892860  0.580500  1.0
  C  C157  1  0.070520  0.392860  0.080500  1.0
  C  C158  1  0.848980  0.107140  0.080500  1.0
  C  C159  1  0.536620  0.392860  0.419500  1.0
  C  C160  1  0.043880  0.107140  0.419500  1.0
  C  C161  1  0.039220  0.604820  0.983540  1.0
  C  C162  1  0.977240  0.895180  0.983540  1.0
  C  C163  1  0.355960  0.604820  0.516460  1.0
  C  C164  1  0.127580  0.895180  0.516460  1.0
  C  C165  1  0.960780  0.395180  0.016460  1.0
  C  C166  1  0.022760  0.104820  0.016460  1.0
  C  C167  1  0.644040  0.395180  0.483540  1.0
  C  C168  1  0.872420  0.104820  0.483540  1.0
  C  C169  1  0.805620  0.690560  0.005400  1.0
  C  C170  1  0.188980  0.809440  0.005400  1.0
  C  C171  1  0.503820  0.690560  0.494600  1.0
  C  C172  1  0.001580  0.809440  0.494600  1.0
  C  C173  1  0.194380  0.309440  0.994600  1.0
  C  C174  1  0.811020  0.190560  0.994600  1.0
  C  C175  1  0.496180  0.309440  0.505400  1.0
  C  C176  1  0.998420  0.190560  0.505400  1.0
  C  C177  1  0.756520  0.723140  0.029220  1.0
  C  C178  1  0.214260  0.776860  0.029220  1.0
  C  C179  1  0.520340  0.723140  0.470780  1.0
  C  C180  1  0.008880  0.776860  0.470780  1.0
  C  C181  1  0.243480  0.276860  0.970780  1.0
  C  C182  1  0.785740  0.223140  0.970780  1.0
  C  C183  1  0.479660  0.276860  0.529220  1.0
  C  C184  1  0.991120  0.223140  0.529220  1.0
  C  C185  1  0.790650  0.745940  0.044560  1.0
  C  C186  1  0.164790  0.754060  0.044560  1.0
  C  C187  1  0.463410  0.745940  0.455440  1.0
  C  C188  1  0.081150  0.754060  0.455440  1.0
  C  C189  1  0.209350  0.254060  0.955440  1.0
  C  C190  1  0.835210  0.245940  0.955440  1.0
  C  C191  1  0.536590  0.254060  0.544560  1.0
  C  C192  1  0.918850  0.245940  0.544560  1.0
  C  C193  1  0.747750  0.775860  0.066240  1.0
  C  C194  1  0.186010  0.724140  0.066240  1.0
  C  C195  1  0.476390  0.775860  0.433760  1.0
  C  C196  1  0.089850  0.724140  0.433760  1.0
  C  C197  1  0.252250  0.224140  0.933760  1.0
  C  C198  1  0.813990  0.275860  0.933760  1.0
  C  C199  1  0.523610  0.224140  0.566240  1.0
  C  C200  1  0.910150  0.275860  0.566240  1.0
  C  C201  1  0.670020  0.783700  0.073460  1.0
  C  C202  1  0.256520  0.716300  0.073460  1.0
  C  C203  1  0.546280  0.783700  0.426540  1.0
  C  C204  1  0.027180  0.716300  0.426540  1.0
  C  C205  1  0.329980  0.216300  0.926540  1.0
  C  C206  1  0.743480  0.283700  0.926540  1.0
  C  C207  1  0.453720  0.216300  0.573460  1.0
  C  C208  1  0.972820  0.283700  0.573460  1.0
  C  C209  1  0.635050  0.761140  0.058560  1.0
  C  C210  1  0.306390  0.738860  0.058560  1.0
  C  C211  1  0.603810  0.761140  0.441440  1.0
  C  C212  1  0.954750  0.738860  0.441440  1.0
  C  C213  1  0.364950  0.238860  0.941440  1.0
  C  C214  1  0.693610  0.261140  0.941440  1.0
  C  C215  1  0.396190  0.238860  0.558560  1.0
  C  C216  1  0.045250  0.261140  0.558560  1.0
  C  C217  1  0.678320  0.731860  0.036700  1.0
  C  C218  1  0.284980  0.768140  0.036700  1.0
  C  C219  1  0.589820  0.731860  0.463300  1.0
  C  C220  1  0.946880  0.768140  0.463300  1.0
  C  C221  1  0.321680  0.268140  0.963300  1.0
  C  C222  1  0.715020  0.231860  0.963300  1.0
  C  C223  1  0.410180  0.268140  0.536700  1.0
  C  C224  1  0.053120  0.231860  0.536700  1.0
  C  C225  1  0.624850  0.809400  0.124100  1.0
  C  C226  1  0.251050  0.690600  0.124100  1.0
  C  C227  1  0.565750  0.809400  0.375900  1.0
  C  C228  1  0.058350  0.690600  0.375900  1.0
  C  C229  1  0.375150  0.190600  0.875900  1.0
  C  C230  1  0.748950  0.309400  0.875900  1.0
  C  C231  1  0.434250  0.190600  0.624100  1.0
  C  C232  1  0.941650  0.309400  0.624100  1.0
  C  C233  1  0.585150  0.843000  0.145900  1.0
  C  C234  1  0.268950  0.657000  0.145900  1.0
  C  C235  1  0.571850  0.843000  0.354100  1.0
  C  C236  1  0.074050  0.657000  0.354100  1.0
  C  C237  1  0.414850  0.157000  0.854100  1.0
  C  C238  1  0.731050  0.343000  0.854100  1.0
  C  C239  1  0.428150  0.157000  0.645900  1.0
  C  C240  1  0.925950  0.343000  0.645900  1.0
  C  C241  1  0.576500  0.840200  0.178400  1.0
  C  C242  1  0.245100  0.659800  0.178400  1.0
  C  C243  1  0.583300  0.840200  0.321600  1.0
  C  C244  1  0.095100  0.659800  0.321600  1.0
  C  C245  1  0.423500  0.159800  0.821600  1.0
  C  C246  1  0.754900  0.340200  0.821600  1.0
  C  C247  1  0.416700  0.159800  0.678400  1.0
  C  C248  1  0.904900  0.340200  0.678400  1.0
  C  C249  1  0.535710  0.875400  0.195780  1.0
  C  C250  1  0.268510  0.624600  0.195780  1.0
  C  C251  1  0.588890  0.875400  0.304220  1.0
  C  C252  1  0.106890  0.624600  0.304220  1.0
  C  C253  1  0.464290  0.124600  0.804220  1.0
  C  C254  1  0.731490  0.375400  0.804220  1.0
  C  C255  1  0.411110  0.124600  0.695780  1.0
  C  C256  1  0.893110  0.375400  0.695780  1.0
  C  C257  1  0.502960  0.910800  0.181280  1.0
  C  C258  1  0.315760  0.589200  0.181280  1.0
  C  C259  1  0.586240  0.910800  0.318720  1.0
  C  C260  1  0.095040  0.589200  0.318720  1.0
  C  C261  1  0.497040  0.089200  0.818720  1.0
  C  C262  1  0.684240  0.410800  0.818720  1.0
  C  C263  1  0.413760  0.089200  0.681280  1.0
  C  C264  1  0.904960  0.410800  0.681280  1.0
  C  C265  1  0.514260  0.912800  0.148680  1.0
  C  C266  1  0.337060  0.587200  0.148680  1.0
  C  C267  1  0.572940  0.912800  0.351320  1.0
  C  C268  1  0.075740  0.587200  0.351320  1.0
  C  C269  1  0.485740  0.087200  0.851320  1.0
  C  C270  1  0.662940  0.412800  0.851320  1.0
  C  C271  1  0.427060  0.087200  0.648680  1.0
  C  C272  1  0.924260  0.412800  0.648680  1.0
  C  C273  1  0.960890  0.682900  0.069120  1.0
  C  C274  1  0.969990  0.817100  0.069120  1.0
  C  C275  1  0.356210  0.682900  0.430880  1.0
  C  C276  1  0.212910  0.817100  0.430880  1.0
  C  C277  1  0.039110  0.317100  0.930880  1.0
  C  C278  1  0.030010  0.182900  0.930880  1.0
  C  C279  1  0.643790  0.317100  0.569120  1.0
  C  C280  1  0.787090  0.182900  0.569120  1.0
  C  C281  1  0.041730  0.662100  0.072440  1.0
  C  C282  1  0.885830  0.837900  0.072440  1.0
  C  C283  1  0.296170  0.662100  0.427560  1.0
  C  C284  1  0.276270  0.837900  0.427560  1.0
  C  C285  1  0.958270  0.337900  0.927560  1.0
  C  C286  1  0.114170  0.162100  0.927560  1.0
  C  C287  1  0.703830  0.337900  0.572440  1.0
  C  C288  1  0.723730  0.162100  0.572440  1.0
  C  C289  1  0.098060  0.649960  0.045920  1.0
  C  C290  1  0.856020  0.850040  0.045920  1.0
  C  C291  1  0.251980  0.649960  0.454080  1.0
  C  C292  1  0.293940  0.850040  0.454080  1.0
  C  C293  1  0.901940  0.350040  0.954080  1.0
  C  C294  1  0.143980  0.149960  0.954080  1.0
  C  C295  1  0.748020  0.350040  0.545920  1.0
  C  C296  1  0.706060  0.149960  0.545920  1.0
  C  C297  1  0.172180  0.629860  0.048180  1.0
  C  C298  1  0.779640  0.870140  0.048180  1.0
  C  C299  1  0.197960  0.629860  0.451820  1.0
  C  C300  1  0.350220  0.870140  0.451820  1.0
  C  C301  1  0.827820  0.370140  0.951820  1.0
  C  C302  1  0.220360  0.129860  0.951820  1.0
  C  C303  1  0.802040  0.370140  0.548180  1.0
  C  C304  1  0.649780  0.129860  0.548180  1.0
  C  C305  1  0.190710  0.622340  0.076440  1.0
  C  C306  1  0.732850  0.877660  0.076440  1.0
  C  C307  1  0.186950  0.622340  0.423560  1.0
  C  C308  1  0.389490  0.877660  0.423560  1.0
  C  C309  1  0.809290  0.377660  0.923560  1.0
  C  C310  1  0.267150  0.122340  0.923560  1.0
  C  C311  1  0.813050  0.377660  0.576440  1.0
  C  C312  1  0.610510  0.122340  0.576440  1.0
  C  C313  1  0.136940  0.633980  0.103540  1.0
  C  C314  1  0.759520  0.866020  0.103540  1.0
  C  C315  1  0.229080  0.633980  0.396460  1.0
  C  C316  1  0.374460  0.866020  0.396460  1.0
  C  C317  1  0.863060  0.366020  0.896460  1.0
  C  C318  1  0.240480  0.133980  0.896460  1.0
  C  C319  1  0.770920  0.366020  0.603540  1.0
  C  C320  1  0.625540  0.133980  0.603540  1.0
  C  C321  1  0.062530  0.654180  0.101560  1.0
  C  C322  1  0.835910  0.845820  0.101560  1.0
  C  C323  1  0.283290  0.654180  0.398440  1.0
  C  C324  1  0.318270  0.845820  0.398440  1.0
  C  C325  1  0.937470  0.345820  0.898440  1.0
  C  C326  1  0.164090  0.154180  0.898440  1.0
  C  C327  1  0.716710  0.345820  0.601560  1.0
  C  C328  1  0.681730  0.154180  0.601560  1.0
  C  C329  1  0.290600  0.561500  0.074900  1.0
  C  C330  1  0.634500  0.938500  0.074900  1.0
  C  C331  1  0.147900  0.561500  0.425100  1.0
  C  C332  1  0.427000  0.938500  0.425100  1.0
  C  C333  1  0.709400  0.438500  0.925100  1.0
  C  C334  1  0.365500  0.061500  0.925100  1.0
  C  C335  1  0.852100  0.438500  0.574900  1.0
  C  C336  1  0.573000  0.061500  0.574900  1.0
  C  C337  1  0.370170  0.541020  0.074840  1.0
  C  C338  1  0.554990  0.958980  0.074840  1.0
  C  C339  1  0.088810  0.541020  0.425160  1.0
  C  C340  1  0.486030  0.958980  0.425160  1.0
  C  C341  1  0.629830  0.458980  0.925160  1.0
  C  C342  1  0.445010  0.041020  0.925160  1.0
  C  C343  1  0.911190  0.458980  0.574840  1.0
  C  C344  1  0.513970  0.041020  0.574840  1.0
  C  C345  1  0.405090  0.499280  0.067340  1.0
  C  C346  1  0.527570  0.000720  0.067340  1.0
  C  C347  1  0.095630  0.499280  0.432660  1.0
  C  C348  1  0.471710  0.000720  0.432660  1.0
  C  C349  1  0.594910  0.500720  0.932660  1.0
  C  C350  1  0.472430  0.999280  0.932660  1.0
  C  C351  1  0.904370  0.500720  0.567340  1.0
  C  C352  1  0.528290  0.999280  0.567340  1.0
  C  C353  1  0.481800  0.484400  0.065600  1.0
  C  C354  1  0.452600  0.015600  0.065600  1.0
  C  C355  1  0.033800  0.484400  0.434400  1.0
  C  C356  1  0.531800  0.015600  0.434400  1.0
  C  C357  1  0.518200  0.515600  0.934400  1.0
  C  C358  1  0.547400  0.984400  0.934400  1.0
  C  C359  1  0.966200  0.515600  0.565600  1.0
  C  C360  1  0.468200  0.984400  0.565600  1.0
  C  C361  1  0.523700  0.510200  0.070200  1.0
  C  C362  1  0.406100  0.989800  0.070200  1.0
  C  C363  1  0.966100  0.510200  0.429800  1.0
  C  C364  1  0.604100  0.989800  0.429800  1.0
  C  C365  1  0.476300  0.489800  0.929800  1.0
  C  C366  1  0.593900  0.010200  0.929800  1.0
  C  C367  1  0.033900  0.489800  0.570200  1.0
  C  C368  1  0.395900  0.010200  0.570200  1.0
  C  C369  1  0.486050  0.551660  0.077640  1.0
  C  C370  1  0.436310  0.948340  0.077640  1.0
  C  C371  1  0.962290  0.551660  0.422360  1.0
  C  C372  1  0.615350  0.948340  0.422360  1.0
  C  C373  1  0.513950  0.448340  0.922360  1.0
  C  C374  1  0.563690  0.051660  0.922360  1.0
  C  C375  1  0.037710  0.448340  0.577640  1.0
  C  C376  1  0.384650  0.051660  0.577640  1.0
  C  C377  1  0.989860  0.554880  0.019000  1.0
  C  C378  1  0.991140  0.945120  0.019000  1.0
  C  C379  1  0.455260  0.554880  0.481000  1.0
  C  C380  1  0.063740  0.945120  0.481000  1.0
  C  C381  1  0.010140  0.445120  0.981000  1.0
  C  C382  1  0.008860  0.054880  0.981000  1.0
  C  C383  1  0.544740  0.445120  0.519000  1.0
  C  C384  1  0.936260  0.054880  0.519000  1.0
  C  C385  1  0.943520  0.553760  0.051400  1.0
  C  C386  1  0.005080  0.946240  0.051400  1.0
  C  C387  1  0.502720  0.553760  0.448600  1.0
  C  C388  1  0.048680  0.946240  0.448600  1.0
  C  C389  1  0.056480  0.446240  0.948600  1.0
  C  C390  1  0.994920  0.053760  0.948600  1.0
  C  C391  1  0.497280  0.446240  0.551400  1.0
  C  C392  1  0.951320  0.053760  0.551400  1.0
  C  C393  1  0.818060  0.584720  0.039360  1.0
  C  C394  1  0.142580  0.915280  0.039360  1.0
  C  C395  1  0.597220  0.584720  0.460640  1.0
  C  C396  1  0.942140  0.915280  0.460640  1.0
  C  C397  1  0.181940  0.415280  0.960640  1.0
  C  C398  1  0.857420  0.084720  0.960640  1.0
  C  C399  1  0.402780  0.415280  0.539360  1.0
  C  C400  1  0.057860  0.084720  0.539360  1.0
  C  C401  1  0.774690  0.627520  0.030300  1.0
  C  C402  1  0.195010  0.872480  0.030300  1.0
  C  C403  1  0.597790  0.627520  0.469700  1.0
  C  C404  1  0.932510  0.872480  0.469700  1.0
  C  C405  1  0.225310  0.372480  0.969700  1.0
  C  C406  1  0.804990  0.127520  0.969700  1.0
  C  C407  1  0.402210  0.372480  0.530300  1.0
  C  C408  1  0.067490  0.127520  0.530300  1.0
  C  C409  1  0.846140  0.605280  0.086840  1.0
  C  C410  1  0.067020  0.894720  0.086840  1.0
  C  C411  1  0.548580  0.605280  0.413160  1.0
  C  C412  1  0.038260  0.894720  0.413160  1.0
  C  C413  1  0.153860  0.394720  0.913160  1.0
  C  C414  1  0.932980  0.105280  0.913160  1.0
  C  C415  1  0.451420  0.394720  0.586840  1.0
  C  C416  1  0.961740  0.105280  0.586840  1.0
  C  C417  1  0.899850  0.628440  0.094460  1.0
  C  C418  1  0.005690  0.871560  0.094460  1.0
  C  C419  1  0.471710  0.628440  0.405540  1.0
  C  C420  1  0.122750  0.871560  0.405540  1.0
  C  C421  1  0.100150  0.371560  0.905540  1.0
  C  C422  1  0.994310  0.128440  0.905540  1.0
  C  C423  1  0.528290  0.371560  0.594460  1.0
  C  C424  1  0.877250  0.128440  0.594460  1.0
  C  C425  1  0.422770  0.850400  0.117060  1.0
  C  C426  1  0.460170  0.649600  0.117060  1.0
  C  C427  1  0.726830  0.850400  0.382940  1.0
  C  C428  1  0.890230  0.649600  0.382940  1.0
  C  C429  1  0.577230  0.149600  0.882940  1.0
  C  C430  1  0.539830  0.350400  0.882940  1.0
  C  C431  1  0.273170  0.149600  0.617060  1.0
  C  C432  1  0.109770  0.350400  0.617060  1.0
  C  C433  1  0.357300  0.837200  0.117400  1.0
  C  C434  1  0.525300  0.662800  0.117400  1.0
  C  C435  1  0.805500  0.837200  0.382600  1.0
  C  C436  1  0.811900  0.662800  0.382600  1.0
  C  C437  1  0.642700  0.162800  0.882600  1.0
  C  C438  1  0.474700  0.337200  0.882600  1.0
  C  C439  1  0.194500  0.162800  0.617400  1.0
  C  C440  1  0.188100  0.337200  0.617400  1.0
  C  C441  1  0.345720  0.827400  0.089360  1.0
  C  C442  1  0.564920  0.672600  0.089360  1.0
  C  C443  1  0.826880  0.827400  0.410640  1.0
  C  C444  1  0.762480  0.672600  0.410640  1.0
  C  C445  1  0.654280  0.172600  0.910640  1.0
  C  C446  1  0.435080  0.327400  0.910640  1.0
  C  C447  1  0.173120  0.172600  0.589360  1.0
  C  C448  1  0.237520  0.327400  0.589360  1.0
  C  C449  1  0.395050  0.831800  0.061700  1.0
  C  C450  1  0.543250  0.668200  0.061700  1.0
  C  C451  1  0.773150  0.831800  0.438300  1.0
  C  C452  1  0.788550  0.668200  0.438300  1.0
  C  C453  1  0.604950  0.168200  0.938300  1.0
  C  C454  1  0.456750  0.331800  0.938300  1.0
  C  C455  1  0.226850  0.168200  0.561700  1.0
  C  C456  1  0.211450  0.331800  0.561700  1.0
  C  C457  1  0.457780  0.845400  0.062840  1.0
  C  C458  1  0.479380  0.654600  0.062840  1.0
  C  C459  1  0.696820  0.845400  0.437160  1.0
  C  C460  1  0.866020  0.654600  0.437160  1.0
  C  C461  1  0.542220  0.154600  0.937160  1.0
  C  C462  1  0.520620  0.345400  0.937160  1.0
  C  C463  1  0.303180  0.154600  0.562840  1.0
  C  C464  1  0.133980  0.345400  0.562840  1.0
  C  C465  1  0.513860  0.850820  0.035860  1.0
  C  C466  1  0.450280  0.649180  0.035860  1.0
  C  C467  1  0.635320  0.850820  0.464140  1.0
  C  C468  1  0.900540  0.649180  0.464140  1.0
  C  C469  1  0.486140  0.149180  0.964140  1.0
  C  C470  1  0.549720  0.350820  0.964140  1.0
  C  C471  1  0.364680  0.149180  0.535860  1.0
  C  C472  1  0.099460  0.350820  0.535860  1.0
  C  C473  1  0.628640  0.866500  0.014220  1.0
  C  C474  1  0.357140  0.633500  0.014220  1.0
  C  C475  1  0.504860  0.866500  0.485780  1.0
  C  C476  1  0.009360  0.633500  0.485780  1.0
  C  C477  1  0.371360  0.133500  0.985780  1.0
  C  C478  1  0.642860  0.366500  0.985780  1.0
  C  C479  1  0.495140  0.133500  0.514220  1.0
  C  C480  1  0.990640  0.366500  0.514220  1.0
  C  C481  1  0.679980  0.830360  0.000880  1.0
  C  C482  1  0.319140  0.669640  0.000880  1.0
  C  C483  1  0.489660  0.830360  0.499120  1.0
  C  C484  1  0.011220  0.669640  0.499120  1.0
  C  C485  1  0.320020  0.169640  0.999120  1.0
  C  C486  1  0.680860  0.330360  0.999120  1.0
  C  C487  1  0.510340  0.169640  0.500880  1.0
  C  C488  1  0.988780  0.330360  0.500880  1.0
  C  C489  1  0.737740  0.833000  0.975720  1.0
  C  C490  1  0.286540  0.667000  0.975720  1.0
  C  C491  1  0.429260  0.833000  0.524280  1.0
  C  C492  1  0.046460  0.667000  0.524280  1.0
  C  C493  1  0.262260  0.167000  0.024280  1.0
  C  C494  1  0.713460  0.333000  0.024280  1.0
  C  C495  1  0.570740  0.167000  0.475720  1.0
  C  C496  1  0.953540  0.333000  0.475720  1.0
  C  C497  1  0.744160  0.871120  0.963160  1.0
  C  C498  1  0.292680  0.628880  0.963160  1.0
  C  C499  1  0.384720  0.871120  0.536840  1.0
  C  C500  1  0.078440  0.628880  0.536840  1.0
  C  C501  1  0.255840  0.128880  0.036840  1.0
  C  C502  1  0.707320  0.371120  0.036840  1.0
  C  C503  1  0.615280  0.128880  0.463160  1.0
  C  C504  1  0.921560  0.371120  0.463160  1.0
  C  C505  1  0.693020  0.906320  0.977440  1.0
  C  C506  1  0.329540  0.593680  0.977440  1.0
  C  C507  1  0.400660  0.906320  0.522560  1.0
  C  C508  1  0.076780  0.593680  0.522560  1.0
  C  C509  1  0.306980  0.093680  0.022560  1.0
  C  C510  1  0.670460  0.406320  0.022560  1.0
  C  C511  1  0.599340  0.093680  0.477440  1.0
  C  C512  1  0.923220  0.406320  0.477440  1.0
  C  C513  1  0.635370  0.904860  0.003200  1.0
  C  C514  1  0.361430  0.595140  0.003200  1.0
  C  C515  1  0.459770  0.904860  0.496800  1.0
  C  C516  1  0.043430  0.595140  0.496800  1.0
  C  C517  1  0.364630  0.095140  0.996800  1.0
  C  C518  1  0.638570  0.404860  0.996800  1.0
  C  C519  1  0.540230  0.095140  0.503200  1.0
  C  C520  1  0.956570  0.404860  0.503200  1.0
  C  C521  1  0.804470  0.872060  0.934200  1.0
  C  C522  1  0.261330  0.627940  0.934200  1.0
  C  C523  1  0.323470  0.872060  0.565800  1.0
  C  C524  1  0.110730  0.627940  0.565800  1.0
  C  C525  1  0.195530  0.127940  0.065800  1.0
  C  C526  1  0.738670  0.372060  0.065800  1.0
  C  C527  1  0.676530  0.127940  0.434200  1.0
  C  C528  1  0.889270  0.372060  0.434200  1.0
  C  C529  1  0.782300  0.745000  0.918200  1.0
  C  C530  1  0.299500  0.755000  0.918200  1.0
  C  C531  1  0.472700  0.745000  0.581800  1.0
  C  C532  1  0.945500  0.755000  0.581800  1.0
  C  C533  1  0.217700  0.255000  0.081800  1.0
  C  C534  1  0.700500  0.245000  0.081800  1.0
  C  C535  1  0.527300  0.255000  0.418200  1.0
  C  C536  1  0.054500  0.245000  0.418200  1.0
  C  C537  1  0.827160  0.711740  0.894540  1.0
  C  C538  1  0.278300  0.788260  0.894540  1.0
  C  C539  1  0.461100  0.711740  0.605460  1.0
  C  C540  1  0.933440  0.788260  0.605460  1.0
  C  C541  1  0.172840  0.288260  0.105460  1.0
  C  C542  1  0.721700  0.211740  0.105460  1.0
  C  C543  1  0.538900  0.288260  0.394540  1.0
  C  C544  1  0.066560  0.211740  0.394540  1.0
  C  C545  1  0.791540  0.690040  0.878680  1.0
  C  C546  1  0.329780  0.809960  0.878680  1.0
  C  C547  1  0.518420  0.690040  0.621320  1.0
  C  C548  1  0.860260  0.809960  0.621320  1.0
  C  C549  1  0.208460  0.309960  0.121320  1.0
  C  C550  1  0.670220  0.190040  0.121320  1.0
  C  C551  1  0.481580  0.309960  0.378680  1.0
  C  C552  1  0.139740  0.190040  0.378680  1.0
  C  C553  1  0.833770  0.660540  0.856720  1.0
  C  C554  1  0.309510  0.839460  0.856720  1.0
  C  C555  1  0.505690  0.660540  0.643280  1.0
  C  C556  1  0.851030  0.839460  0.643280  1.0
  C  C557  1  0.166230  0.339460  0.143280  1.0
  C  C558  1  0.690490  0.160540  0.143280  1.0
  C  C559  1  0.494310  0.339460  0.356720  1.0
  C  C560  1  0.148970  0.160540  0.356720  1.0
  C  C561  1  0.911080  0.653760  0.847680  1.0
  C  C562  1  0.241240  0.846240  0.847680  1.0
  C  C563  1  0.435160  0.653760  0.652320  1.0
  C  C564  1  0.912520  0.846240  0.652320  1.0
  C  C565  1  0.088920  0.346240  0.152320  1.0
  C  C566  1  0.758760  0.153760  0.152320  1.0
  C  C567  1  0.564840  0.346240  0.347680  1.0
  C  C568  1  0.087480  0.153760  0.347680  1.0
  C  C569  1  0.946980  0.675880  0.862760  1.0
  C  C570  1  0.190260  0.824120  0.862760  1.0
  C  C571  1  0.377140  0.675880  0.637240  1.0
  C  C572  1  0.985620  0.824120  0.637240  1.0
  C  C573  1  0.053020  0.324120  0.137240  1.0
  C  C574  1  0.809740  0.175880  0.137240  1.0
  C  C575  1  0.622860  0.324120  0.362760  1.0
  C  C576  1  0.014380  0.175880  0.362760  1.0
  C  C577  1  0.904870  0.704800  0.884860  1.0
  C  C578  1  0.210270  0.795200  0.884860  1.0
  C  C579  1  0.390330  0.704800  0.615140  1.0
  C  C580  1  0.994530  0.795200  0.615140  1.0
  C  C581  1  0.095130  0.295200  0.115140  1.0
  C  C582  1  0.789730  0.204800  0.115140  1.0
  C  C583  1  0.609670  0.295200  0.384860  1.0
  C  C584  1  0.005470  0.204800  0.384860  1.0
  C  C585  1  0.968010  0.635960  0.795820  1.0
  C  C586  1  0.236170  0.864040  0.795820  1.0
  C  C587  1  0.396030  0.635960  0.704180  1.0
  C  C588  1  0.899790  0.864040  0.704180  1.0
  C  C589  1  0.031990  0.364040  0.204180  1.0
  C  C590  1  0.763830  0.135960  0.204180  1.0
  C  C591  1  0.603970  0.364040  0.295820  1.0
  C  C592  1  0.100210  0.135960  0.295820  1.0
  C  C593  1  0.012600  0.605620  0.771980  1.0
  C  C594  1  0.215420  0.894380  0.771980  1.0
  C  C595  1  0.381780  0.605620  0.728020  1.0
  C  C596  1  0.890200  0.894380  0.728020  1.0
  C  C597  1  0.987400  0.394380  0.228020  1.0
  C  C598  1  0.784580  0.105620  0.228020  1.0
  C  C599  1  0.618220  0.394380  0.271980  1.0
  C  C600  1  0.109800  0.105620  0.271980  1.0
  C  C601  1  0.038150  0.614200  0.740500  1.0
  C  C602  1  0.221350  0.885800  0.740500  1.0
  C  C603  1  0.347650  0.614200  0.759500  1.0
  C  C604  1  0.892850  0.885800  0.759500  1.0
  C  C605  1  0.961850  0.385800  0.259500  1.0
  C  C606  1  0.778650  0.114200  0.259500  1.0
  C  C607  1  0.652350  0.385800  0.240500  1.0
  C  C608  1  0.107150  0.114200  0.240500  1.0
  C  C609  1  0.083000  0.582640  0.720760  1.0
  C  C610  1  0.196240  0.917360  0.720760  1.0
  C  C611  1  0.334360  0.582640  0.779240  1.0
  C  C612  1  0.886400  0.917360  0.779240  1.0
  C  C613  1  0.917000  0.417360  0.279240  1.0
  C  C614  1  0.803760  0.082640  0.279240  1.0
  C  C615  1  0.665640  0.417360  0.220760  1.0
  C  C616  1  0.113600  0.082640  0.220760  1.0
  C  C617  1  0.100010  0.543600  0.732180  1.0
  C  C618  1  0.167810  0.956400  0.732180  1.0
  C  C619  1  0.356390  0.543600  0.767820  1.0
  C  C620  1  0.875790  0.956400  0.767820  1.0
  C  C621  1  0.899990  0.456400  0.267820  1.0
  C  C622  1  0.832190  0.043600  0.267820  1.0
  C  C623  1  0.643610  0.456400  0.232180  1.0
  C  C624  1  0.124210  0.043600  0.232180  1.0
  C  C625  1  0.075350  0.536080  0.763620  1.0
  C  C626  1  0.161030  0.963920  0.763620  1.0
  C  C627  1  0.388570  0.536080  0.736380  1.0
  C  C628  1  0.875050  0.963920  0.736380  1.0
  C  C629  1  0.924650  0.463920  0.236380  1.0
  C  C630  1  0.838970  0.036080  0.236380  1.0
  C  C631  1  0.611430  0.463920  0.263620  1.0
  C  C632  1  0.124950  0.036080  0.263620  1.0
  C  C633  1  0.947420  0.793840  0.853720  1.0
  C  C634  1  0.198860  0.706160  0.853720  1.0
  C  C635  1  0.258740  0.793840  0.646280  1.0
  C  C636  1  0.094980  0.706160  0.646280  1.0
  C  C637  1  0.052580  0.206160  0.146280  1.0
  C  C638  1  0.801140  0.293840  0.146280  1.0
  C  C639  1  0.741260  0.206160  0.353720  1.0
  C  C640  1  0.905020  0.293840  0.353720  1.0
  C  C641  1  0.978540  0.831400  0.847320  1.0
  C  C642  1  0.174140  0.668600  0.847320  1.0
  C  C643  1  0.190060  0.831400  0.652680  1.0
  C  C644  1  0.157260  0.668600  0.652680  1.0
  C  C645  1  0.021460  0.168600  0.152680  1.0
  C  C646  1  0.825860  0.331400  0.152680  1.0
  C  C647  1  0.809940  0.168600  0.347320  1.0
  C  C648  1  0.842740  0.331400  0.347320  1.0
  C  C649  1  0.020110  0.839600  0.818980  1.0
  C  C650  1  0.160910  0.660400  0.818980  1.0
  C  C651  1  0.140290  0.839600  0.681020  1.0
  C  C652  1  0.178690  0.660400  0.681020  1.0
  C  C653  1  0.979890  0.160400  0.181020  1.0
  C  C654  1  0.839090  0.339600  0.181020  1.0
  C  C655  1  0.859710  0.160400  0.318980  1.0
  C  C656  1  0.821310  0.339600  0.318980  1.0
  C  C657  1  0.049750  0.873400  0.814500  1.0
  C  C658  1  0.135750  0.626600  0.814500  1.0
  C  C659  1  0.076850  0.873400  0.685500  1.0
  C  C660  1  0.237650  0.626600  0.685500  1.0
  C  C661  1  0.950250  0.126600  0.185500  1.0
  C  C662  1  0.864250  0.373400  0.185500  1.0
  C  C663  1  0.923150  0.126600  0.314500  1.0
  C  C664  1  0.762350  0.373400  0.314500  1.0
  C  C665  1  0.036980  0.900040  0.838000  1.0
  C  C666  1  0.125020  0.599960  0.838000  1.0
  C  C667  1  0.062980  0.900040  0.662000  1.0
  C  C668  1  0.275020  0.599960  0.662000  1.0
  C  C669  1  0.963020  0.099960  0.162000  1.0
  C  C670  1  0.874980  0.400040  0.162000  1.0
  C  C671  1  0.937020  0.099960  0.338000  1.0
  C  C672  1  0.724980  0.400040  0.338000  1.0
  C  C673  1  0.998980  0.892000  0.867040  1.0
  C  C674  1  0.133980  0.608000  0.867040  1.0
  C  C675  1  0.109020  0.892000  0.632960  1.0
  C  C676  1  0.258020  0.608000  0.632960  1.0
  C  C677  1  0.001020  0.108000  0.132960  1.0
  C  C678  1  0.866020  0.392000  0.132960  1.0
  C  C679  1  0.890980  0.108000  0.367040  1.0
  C  C680  1  0.741980  0.392000  0.367040  1.0
  C  C681  1  0.972040  0.857600  0.871720  1.0
  C  C682  1  0.156240  0.642400  0.871720  1.0
  C  C683  1  0.170360  0.857600  0.628280  1.0
  C  C684  1  0.201360  0.642400  0.628280  1.0
  C  C685  1  0.027960  0.142400  0.128280  1.0
  C  C686  1  0.843760  0.357600  0.128280  1.0
  C  C687  1  0.829640  0.142400  0.371720  1.0
  C  C688  1  0.798640  0.357600  0.371720  1.0
  C  C689  1  0.019680  0.972600  0.834040  1.0
  C  C690  1  0.146280  0.527400  0.834040  1.0
  C  C691  1  0.007720  0.972600  0.665960  1.0
  C  C692  1  0.326320  0.527400  0.665960  1.0
  C  C693  1  0.980320  0.027400  0.165960  1.0
  C  C694  1  0.853720  0.472600  0.165960  1.0
  C  C695  1  0.992280  0.027400  0.334040  1.0
  C  C696  1  0.673680  0.472600  0.334040  1.0
  C  C697  1  0.050130  0.008360  0.833180  1.0
  C  C698  1  0.116690  0.491640  0.833180  1.0
  C  C699  1  0.941510  0.008360  0.666820  1.0
  C  C700  1  0.391670  0.491640  0.666820  1.0
  C  C701  1  0.949870  0.991640  0.166820  1.0
  C  C702  1  0.883310  0.508360  0.166820  1.0
  C  C703  1  0.058490  0.991640  0.333180  1.0
  C  C704  1  0.608330  0.508360  0.333180  1.0
  C  C705  1  0.008280  0.049480  0.833160  1.0
  C  C706  1  0.158560  0.450520  0.833160  1.0
  C  C707  1  0.942240  0.049480  0.666840  1.0
  C  C708  1  0.390920  0.450520  0.666840  1.0
  C  C709  1  0.991720  0.950520  0.166840  1.0
  C  C710  1  0.841440  0.549480  0.166840  1.0
  C  C711  1  0.057760  0.950520  0.333160  1.0
  C  C712  1  0.609080  0.549480  0.333160  1.0
  C  C713  1  0.044920  0.080000  0.830560  1.0
  C  C714  1  0.124520  0.420000  0.830560  1.0
  C  C715  1  0.875080  0.080000  0.669440  1.0
  C  C716  1  0.455480  0.420000  0.669440  1.0
  C  C717  1  0.955080  0.920000  0.169440  1.0
  C  C718  1  0.875480  0.580000  0.169440  1.0
  C  C719  1  0.124920  0.920000  0.330560  1.0
  C  C720  1  0.544520  0.580000  0.330560  1.0
  C  C721  1  0.121440  0.070000  0.829520  1.0
  C  C722  1  0.049040  0.430000  0.829520  1.0
  C  C723  1  0.808560  0.070000  0.670480  1.0
  C  C724  1  0.520960  0.430000  0.670480  1.0
  C  C725  1  0.878560  0.930000  0.170480  1.0
  C  C726  1  0.950960  0.570000  0.170480  1.0
  C  C727  1  0.191440  0.930000  0.329520  1.0
  C  C728  1  0.479040  0.570000  0.329520  1.0
  C  C729  1  0.160660  0.028560  0.829920  1.0
  C  C730  1  0.009420  0.471440  0.829920  1.0
  C  C731  1  0.810780  0.028560  0.670080  1.0
  C  C732  1  0.519140  0.471440  0.670080  1.0
  C  C733  1  0.839340  0.971440  0.170080  1.0
  C  C734  1  0.990580  0.528560  0.170080  1.0
  C  C735  1  0.189220  0.971440  0.329920  1.0
  C  C736  1  0.480860  0.528560  0.329920  1.0
  C  C737  1  0.724620  0.899080  0.896480  1.0
  C  C738  1  0.378900  0.600920  0.896480  1.0
  C  C739  1  0.376300  0.899080  0.603520  1.0
  C  C740  1  0.020180  0.600920  0.603520  1.0
  C  C741  1  0.275380  0.100920  0.103520  1.0
  C  C742  1  0.621100  0.399080  0.103520  1.0
  C  C743  1  0.623700  0.100920  0.396480  1.0
  C  C744  1  0.979820  0.399080  0.396480  1.0
  C  C745  1  0.714570  0.887600  0.865260  1.0
  C  C746  1  0.420170  0.612400  0.865260  1.0
  C  C747  1  0.397830  0.887600  0.634740  1.0
  C  C748  1  0.967430  0.612400  0.634740  1.0
  C  C749  1  0.285430  0.112400  0.134740  1.0
  C  C750  1  0.579830  0.387600  0.134740  1.0
  C  C751  1  0.602170  0.112400  0.365260  1.0
  C  C752  1  0.032570  0.387600  0.365260  1.0
  C  C753  1  0.652940  0.832200  0.882920  1.0
  C  C754  1  0.464140  0.667800  0.882920  1.0
  C  C755  1  0.514860  0.832200  0.617080  1.0
  C  C756  1  0.868060  0.667800  0.617080  1.0
  C  C757  1  0.347060  0.167800  0.117080  1.0
  C  C758  1  0.535860  0.332200  0.117080  1.0
  C  C759  1  0.485140  0.167800  0.382920  1.0
  C  C760  1  0.131940  0.332200  0.382920  1.0
  C  C761  1  0.676460  0.788400  0.895480  1.0
  C  C762  1  0.428060  0.711600  0.895480  1.0
  C  C763  1  0.535140  0.788400  0.604520  1.0
  C  C764  1  0.860340  0.711600  0.604520  1.0
  C  C765  1  0.323540  0.211600  0.104520  1.0
  C  C766  1  0.571940  0.288400  0.104520  1.0
  C  C767  1  0.464860  0.211600  0.395480  1.0
  C  C768  1  0.139660  0.288400  0.395480  1.0
  C  C769  1  0.751410  0.823400  0.834780  1.0
  C  C770  1  0.413810  0.676600  0.834780  1.0
  C  C771  1  0.425190  0.823400  0.665220  1.0
  C  C772  1  0.909590  0.676600  0.665220  1.0
  C  C773  1  0.248590  0.176600  0.165220  1.0
  C  C774  1  0.586190  0.323400  0.165220  1.0
  C  C775  1  0.574810  0.176600  0.334780  1.0
  C  C776  1  0.090410  0.323400  0.334780  1.0
  C  C777  1  0.837820  0.816400  0.827160  1.0
  C  C778  1  0.335020  0.683600  0.827160  1.0
  C  C779  1  0.345780  0.816400  0.672840  1.0
  C  C780  1  0.981380  0.683600  0.672840  1.0
  C  C781  1  0.162180  0.183600  0.172840  1.0
  C  C782  1  0.664980  0.316400  0.172840  1.0
  C  C783  1  0.654220  0.183600  0.327160  1.0
  C  C784  1  0.018620  0.316400  0.327160  1.0
  F  F785  1  0.530100  0.750000  0.939800  1
  F  F786  1  0.719900  0.750000  0.560200  1
  F  F787  1  0.469900  0.250000  0.060200  1
  F  F788  1  0.280100  0.250000  0.439800  1
  F  F789  1  0.491100  0.750000  0.017800  1
  F  F790  1  0.758900  0.750000  0.482200  1
  F  F791  1  0.508900  0.250000  0.982200  1
  F  F792  1  0.241100  0.250000  0.517800  1
  F  F793  1  0.707400  0.057600  0.870400  1
  F  F794  1  0.422200  0.442400  0.870400  1
  F  F795  1  0.235000  0.057600  0.629600  1
  F  F796  1  0.135400  0.442400  0.629600  1
  F  F797  1  0.292600  0.942400  0.129600  1
  F  F798  1  0.577800  0.557600  0.129600  1
  F  F799  1  0.765000  0.942400  0.370400  1
  F  F800  1  0.864600  0.557600  0.370400  1
  F  F801  1  0.738600  0.073200  0.911400  1
  F  F802  1  0.350000  0.426800  0.911400  1
  F  F803  1  0.188200  0.073200  0.588600  1
  F  F804  1  0.223200  0.426800  0.588600  1
  F  F805  1  0.261400  0.926800  0.088600  1
  F  F806  1  0.650000  0.573200  0.088600  1
  F  F807  1  0.811800  0.926800  0.411400  1
  F  F808  1  0.776800  0.573200  0.411400  1
  F  F809  1  0.801700  0.082400  0.868200  1
  F  F810  1  0.330100  0.417600  0.868200  1
  F  F811  1  0.115900  0.082400  0.631800  1
  F  F812  1  0.252300  0.417600  0.631800  1
  F  F813  1  0.198300  0.917600  0.131800  1
  F  F814  1  0.669900  0.582400  0.131800  1
  F  F815  1  0.884100  0.917600  0.368200  1
  F  F816  1  0.747700  0.582400  0.368200  1
  F  F817  1  0.452900  0.528400  0.832800  1
  F  F818  1  0.714300  0.971600  0.832800  1
  F  F819  1  0.018700  0.528400  0.667200  1
  F  F820  1  0.314100  0.971600  0.667200  1
  F  F821  1  0.547100  0.471600  0.167200  1
  F  F822  1  0.285700  0.028400  0.167200  1
  F  F823  1  0.981300  0.471600  0.332800  1
  F  F824  1  0.685900  0.028400  0.332800  1
  F  F825  1  0.538200  0.469400  0.827200  1
  F  F826  1  0.634600  0.030600  0.827200  1
  F  F827  1  0.992400  0.469400  0.672800  1
  F  F828  1  0.334800  0.030600  0.672800  1
  F  F829  1  0.461800  0.530600  0.172800  1
  F  F830  1  0.365400  0.969400  0.172800  1
  F  F831  1  0.007600  0.530600  0.327200  1
  F  F832  1  0.665200  0.969400  0.327200  1
  F  F833  1  0.554800  0.520400  0.851600  1
  F  F834  1  0.593600  0.979600  0.851600  1
  F  F835  1  0.924800  0.520400  0.648400  1
  F  F836  1  0.426800  0.979600  0.648400  1
  F  F837  1  0.445200  0.479600  0.148400  1
  F  F838  1  0.406400  0.020400  0.148400  1
  F  F839  1  0.075200  0.479600  0.351600  1
  F  F840  1  0.573200  0.020400  0.351600  1
  F  F841  1  0.741200  0.506800  0.023600  1
  F  F842  1  0.235200  0.993200  0.023600  1
  F  F843  1  0.752000  0.506800  0.476400  1
  F  F844  1  0.771600  0.993200  0.476400  1
  F  F845  1  0.258800  0.493200  0.976400  1
  F  F846  1  0.764800  0.006800  0.976400  1
  F  F847  1  0.248000  0.493200  0.523600  1
  F  F848  1  0.228400  0.006800  0.523600  1
  F  F849  1  0.676400  0.561200  0.007200  1
  F  F850  1  0.316400  0.938800  0.007200  1
  F  F851  1  0.762400  0.561200  0.492800  1
  F  F852  1  0.744800  0.938800  0.492800  1
  F  F853  1  0.323600  0.438800  0.992800  1
  F  F854  1  0.683600  0.061200  0.992800  1
  F  F855  1  0.237600  0.438800  0.507200  1
  F  F856  1  0.255200  0.061200  0.507200  1
  F  F857  1  0.668800  0.500200  0.993200  1
  F  F858  1  0.338000  0.999800  0.993200  1
  F  F859  1  0.831000  0.500200  0.506800  1
  F  F860  1  0.662200  0.999800  0.506800  1
  F  F861  1  0.331200  0.499800  0.006800  1
  F  F862  1  0.662000  0.000200  0.006800  1
  F  F863  1  0.169000  0.499800  0.493200  1
  F  F864  1  0.337800  0.000200  0.493200  1
  F  F865  1  0.821100  0.001400  0.842800  1
  F  F866  1  0.336100  0.498600  0.842800  1
  F  F867  1  0.177500  0.001400  0.657200  1
  F  F868  1  0.165300  0.498600  0.657200  1
  F  F869  1  0.178900  0.998600  0.157200  1
  F  F870  1  0.663900  0.501400  0.157200  1
  F  F871  1  0.822500  0.998600  0.342800  1
  F  F872  1  0.834700  0.501400  0.342800  1
  F  F873  1  0.800900  0.062400  0.849600  1
  F  F874  1  0.349500  0.437600  0.849600  1
  F  F875  1  0.136700  0.062400  0.650400  1
  F  F876  1  0.212900  0.437600  0.650400  1
  F  F877  1  0.199100  0.937600  0.150400  1
  F  F878  1  0.650500  0.562400  0.150400  1
  F  F879  1  0.863300  0.937600  0.349600  1
  F  F880  1  0.787100  0.562400  0.349600  1
  F  F881  1  0.707800  0.030800  0.864200  1
  F  F882  1  0.428000  0.469200  0.864200  1
  F  F883  1  0.261400  0.030800  0.635800  1
  F  F884  1  0.102800  0.469200  0.635800  1
  F  F885  1  0.292200  0.969200  0.135800  1
  F  F886  1  0.572000  0.530800  0.135800  1
  F  F887  1  0.738600  0.969200  0.364200  1
  F  F888  1  0.897200  0.530800  0.364200  1
  F  F889  1  0.788200  0.499200  0.020000  1
  F  F890  1  0.191800  0.000800  0.020000  1
  F  F891  1  0.712600  0.499200  0.480000  1
  F  F892  1  0.807400  0.000800  0.480000  1
  F  F893  1  0.211800  0.500800  0.980000  1
  F  F894  1  0.808200  0.999200  0.980000  1
  F  F895  1  0.287400  0.500800  0.520000  1
  F  F896  1  0.192600  0.999200  0.520000  1
  F  F897  1  0.675200  0.502200  0.005600  1
  F  F898  1  0.319200  0.997800  0.005600  1
  F  F899  1  0.822600  0.502200  0.494400  1
  F  F900  1  0.683000  0.997800  0.494400  1
  F  F901  1  0.324800  0.497800  0.994400  1
  F  F902  1  0.680800  0.002200  0.994400  1
  F  F903  1  0.177400  0.497800  0.505600  1
  F  F904  1  0.317000  0.002200  0.505600  1
  F  F905  1  0.779100  0.456400  0.991000  1
  F  F906  1  0.229900  0.043600  0.991000  1
  F  F907  1  0.764500  0.456400  0.509000  1
  F  F908  1  0.726500  0.043600  0.509000  1
  F  F909  1  0.220900  0.543600  0.009000  1
  F  F910  1  0.770100  0.956400  0.009000  1
  F  F911  1  0.235500  0.543600  0.491000  1
  F  F912  1  0.273500  0.956400  0.491000  1
  F  F913  1  0.578800  0.508800  0.830400  1
  F  F914  1  0.590800  0.991200  0.830400  1
  F  F915  1  0.912400  0.508800  0.669600  1
  F  F916  1  0.418000  0.991200  0.669600  1
  F  F917  1  0.421200  0.491200  0.169600  1
  F  F918  1  0.409200  0.008800  0.169600  1
  F  F919  1  0.087600  0.491200  0.330400  1
  F  F920  1  0.582000  0.008800  0.330400  1
  F  F921  1  0.542800  0.491000  0.785400  1
  F  F922  1  0.671800  0.009000  0.785400  1
  F  F923  1  0.966200  0.491000  0.714600  1
  F  F924  1  0.319200  0.009000  0.714600  1
  F  F925  1  0.457200  0.509000  0.214600  1
  F  F926  1  0.328200  0.991000  0.214600  1
  F  F927  1  0.033800  0.509000  0.285400  1
  F  F928  1  0.680800  0.991000  0.285400  1
  F  F929  1  0.465900  0.540400  0.814600  1
  F  F930  1  0.719500  0.959600  0.814600  1
  F  F931  1  0.993700  0.540400  0.685400  1
  F  F932  1  0.320900  0.959600  0.685400  1
  F  F933  1  0.534100  0.459600  0.185400  1
  F  F934  1  0.280500  0.040400  0.185400  1
  F  F935  1  0.006300  0.459600  0.314600  1
  F  F936  1  0.679100  0.040400  0.314600  1
  F  F937  1  0.499900  0.590600  0.777600  1
  F  F938  1  0.722500  0.909400  0.777600  1
  F  F939  1  0.909500  0.590600  0.722400  1
  F  F940  1  0.368100  0.909400  0.722400  1
  F  F941  1  0.500100  0.409400  0.222400  1
  F  F942  1  0.277500  0.090600  0.222400  1
  F  F943  1  0.090500  0.409400  0.277600  1
  F  F944  1  0.631900  0.090600  0.277600  1
  F  F945  1  0.620000  0.571600  0.760400  1
  F  F946  1  0.619600  0.928400  0.760400  1
  F  F947  1  0.808400  0.571600  0.739600  1
  F  F948  1  0.452000  0.928400  0.739600  1
  F  F949  1  0.380000  0.428400  0.239600  1
  F  F950  1  0.380400  0.071600  0.239600  1
  F  F951  1  0.191600  0.428400  0.260400  1
  F  F952  1  0.548000  0.071600  0.260400  1
  F  F953  1  0.551900  0.524600  0.757600  1
  F  F954  1  0.690500  0.975400  0.757600  1
  F  F955  1  0.923500  0.524600  0.742400  1
  F  F956  1  0.334100  0.975400  0.742400  1
  F  F957  1  0.448100  0.475400  0.242400  1
  F  F958  1  0.309500  0.024600  0.242400  1
  F  F959  1  0.076500  0.475400  0.257600  1
  F  F960  1  0.665900  0.024600  0.257600  1
  F  F961  1  0.088740  0.694600  0.952120  1
  F  F962  1  0.959140  0.805400  0.952120  1
  F  F963  1  0.216660  0.694600  0.547880  1
  F  F964  1  0.235460  0.805400  0.547880  1
  F  F965  1  0.911260  0.305400  0.047880  1
  F  F966  1  0.040860  0.194600  0.047880  1
  F  F967  1  0.783340  0.305400  0.452120  1
  F  F968  1  0.764540  0.194600  0.452120  1
  F  F969  1  0.120850  0.751380  0.953320  1
  F  F970  1  0.925830  0.748620  0.953320  1
  F  F971  1  0.127770  0.751380  0.546680  1
  F  F972  1  0.325550  0.748620  0.546680  1
  F  F973  1  0.879150  0.248620  0.046680  1
  F  F974  1  0.074170  0.251380  0.046680  1
  F  F975  1  0.872230  0.248620  0.453320  1
  F  F976  1  0.674450  0.251380  0.453320  1
  F  F977  1  0.062600  0.742400  0.917800  1
  F  F978  1  0.019600  0.757600  0.917800  1
  F  F979  1  0.195000  0.742400  0.582200  1
  F  F980  1  0.222800  0.757600  0.582200  1
  F  F981  1  0.937400  0.257600  0.082200  1
  F  F982  1  0.980400  0.242400  0.082200  1
  F  F983  1  0.805000  0.257600  0.417800  1
  F  F984  1  0.777200  0.242400  0.417800  1
  F  F985  1  0.568710  0.778600  0.977180  1.0
  F  F986  1  0.454110  0.721400  0.977180  1.0
  F  F987  1  0.652690  0.778600  0.522820  1.0
  F  F988  1  0.824490  0.721400  0.522820  1.0
  F  F989  1  0.431290  0.221400  0.022820  1.0
  F  F990  1  0.545890  0.278600  0.022820  1.0
  F  F991  1  0.347310  0.221400  0.477180  1.0
  F  F992  1  0.175510  0.278600  0.477180  1.0
  F  F993  1  0.431170  0.790400  0.979860  1.0
  F  F994  1  0.588970  0.709600  0.979860  1.0
  F  F995  1  0.778430  0.790400  0.520140  1.0
  F  F996  1  0.701430  0.709600  0.520140  1.0
  F  F997  1  0.568830  0.209600  0.020140  1.0
  F  F998  1  0.411030  0.290400  0.020140  1.0
  F  F999  1  0.221570  0.209600  0.479860  1.0
  F  F1000  1  0.298570  0.290400  0.479860  1.0
  F  F1001  1  0.930500  0.090400  0.773800  1.0
  F  F1002  1  0.295700  0.409600  0.773800  1.0
  F  F1003  1  0.979100  0.090400  0.726200  1.0
  F  F1004  1  0.294700  0.409600  0.726200  1.0
  F  F1005  1  0.069500  0.909600  0.226200  1.0
  F  F1006  1  0.704300  0.590400  0.226200  1.0
  F  F1007  1  0.020900  0.909600  0.273800  1.0
  F  F1008  1  0.705300  0.590400  0.273800  1.0
  F  F1009  1  0.968600  0.025600  0.771800  1.0
  F  F1010  1  0.259600  0.474400  0.771800  1.0
  F  F1011  1  0.005800  0.025600  0.728200  1.0
  F  F1012  1  0.266000  0.474400  0.728200  1.0
  F  F1013  1  0.031400  0.974400  0.228200  1.0
  F  F1014  1  0.740400  0.525600  0.228200  1.0
  F  F1015  1  0.994200  0.974400  0.271800  1.0
  F  F1016  1  0.734000  0.525600  0.271800  1.0
  F  F1017  1  0.049400  0.056000  0.758200  1.0
  F  F1018  1  0.192400  0.444000  0.758200  1.0
  F  F1019  1  0.894600  0.056000  0.741800  1.0
  F  F1020  1  0.363600  0.444000  0.741800  1.0
  F  F1021  1  0.950600  0.944000  0.241800  1.0
  F  F1022  1  0.807600  0.556000  0.241800  1.0
  F  F1023  1  0.105400  0.944000  0.258200  1.0
  F  F1024  1  0.636400  0.556000  0.258200  1.0
  Fe  Fe1025  1  0.994780  0.563060  0.829680  1.0
  Fe  Fe1026  1  0.175540  0.936940  0.829680  1.0
  Fe  Fe1027  1  0.442160  0.563060  0.670320  1.0
  Fe  Fe1028  1  0.887520  0.936940  0.670320  1.0
  Fe  Fe1029  1  0.005220  0.436940  0.170320  1.0
  Fe  Fe1030  1  0.824460  0.063060  0.170320  1.0
  Fe  Fe1031  1  0.557840  0.436940  0.329680  1.0
  Fe  Fe1032  1  0.112480  0.063060  0.329680  1.0
  Fe  Fe1033  1  0.565310  0.873840  0.085600  1.0
  Fe  Fe1034  1  0.349090  0.626160  0.085600  1.0
  Fe  Fe1035  1  0.560850  0.873840  0.414400  1.0
  Fe  Fe1036  1  0.024750  0.626160  0.414400  1.0
  Fe  Fe1037  1  0.434690  0.126160  0.914400  1.0
  Fe  Fe1038  1  0.650910  0.373840  0.914400  1.0
  Fe  Fe1039  1  0.439150  0.126160  0.585600  1.0
  Fe  Fe1040  1  0.975250  0.373840  0.585600  1.0
  H  H1041  1  0.940100  0.665600  0.016200  1.0
  H  H1042  1  0.043700  0.834400  0.016200  1.0
  H  H1043  1  0.394300  0.665600  0.483800  1.0
  H  H1044  1  0.121900  0.834400  0.483800  1.0
  H  H1045  1  0.059900  0.334400  0.983800  1.0
  H  H1046  1  0.956300  0.165600  0.983800  1.0
  H  H1047  1  0.605700  0.334400  0.516200  1.0
  H  H1048  1  0.878100  0.165600  0.516200  1.0
  H  H1049  1  0.901700  0.554400  0.780600  1.0
  H  H1050  1  0.317700  0.945600  0.780600  1.0
  H  H1051  1  0.543900  0.554400  0.719400  1.0
  H  H1052  1  0.736700  0.945600  0.719400  1.0
  H  H1053  1  0.098300  0.445600  0.219400  1.0
  H  H1054  1  0.682300  0.054400  0.219400  1.0
  H  H1055  1  0.456100  0.445600  0.280600  1.0
  H  H1056  1  0.263300  0.054400  0.280600  1.0
  H  H1057  1  0.777200  0.549200  0.783400  1.0
  H  H1058  1  0.439400  0.950800  0.783400  1.0
  H  H1059  1  0.673600  0.549200  0.716600  1.0
  H  H1060  1  0.609800  0.950800  0.716600  1.0
  H  H1061  1  0.222800  0.450800  0.216600  1.0
  H  H1062  1  0.560600  0.049200  0.216600  1.0
  H  H1063  1  0.326400  0.450800  0.283400  1.0
  H  H1064  1  0.390200  0.049200  0.283400  1.0
  H  H1065  1  0.699500  0.544200  0.832000  1.0
  H  H1066  1  0.468500  0.955800  0.832000  1.0
  H  H1067  1  0.756300  0.544200  0.668000  1.0
  H  H1068  1  0.575700  0.955800  0.668000  1.0
  H  H1069  1  0.300500  0.455800  0.168000  1.0
  H  H1070  1  0.531500  0.044200  0.168000  1.0
  H  H1071  1  0.243700  0.455800  0.332000  1.0
  H  H1072  1  0.424300  0.044200  0.332000  1.0
  H  H1073  1  0.748100  0.542400  0.877600  1.0
  H  H1074  1  0.374300  0.957600  0.877600  1.0
  H  H1075  1  0.709500  0.542400  0.622400  1.0
  H  H1076  1  0.668100  0.957600  0.622400  1.0
  H  H1077  1  0.251900  0.457600  0.122400  1.0
  H  H1078  1  0.625700  0.042400  0.122400  1.0
  H  H1079  1  0.290500  0.457600  0.377600  1.0
  H  H1080  1  0.331900  0.042400  0.377600  1.0
  H  H1081  1  0.854200  0.554400  0.901600  1.0
  H  H1082  1  0.244200  0.945600  0.901600  1.0
  H  H1083  1  0.591400  0.554400  0.598400  1.0
  H  H1084  1  0.810200  0.945600  0.598400  1.0
  H  H1085  1  0.145800  0.445600  0.098400  1.0
  H  H1086  1  0.755800  0.054400  0.098400  1.0
  H  H1087  1  0.408600  0.445600  0.401600  1.0
  H  H1088  1  0.189800  0.054400  0.401600  1.0
  H  H1089  1  0.067800  0.524400  0.898400  1.0
  H  H1090  1  0.033800  0.975600  0.898400  1.0
  H  H1091  1  0.407800  0.524400  0.601600  1.0
  H  H1092  1  0.990600  0.975600  0.601600  1.0
  H  H1093  1  0.932200  0.475600  0.101600  1.0
  H  H1094  1  0.966200  0.024400  0.101600  1.0
  H  H1095  1  0.592200  0.475600  0.398400  1.0
  H  H1096  1  0.009400  0.024400  0.398400  1.0
  H  H1097  1  0.105900  0.541800  0.942200  1.0
  H  H1098  1  0.951900  0.958200  0.942200  1.0
  H  H1099  1  0.352300  0.541800  0.557800  1.0
  H  H1100  1  0.089900  0.958200  0.557800  1.0
  H  H1101  1  0.894100  0.458200  0.057800  1.0
  H  H1102  1  0.048100  0.041800  0.057800  1.0
  H  H1103  1  0.647700  0.458200  0.442200  1.0
  H  H1104  1  0.910100  0.041800  0.442200  1.0
  H  H1105  1  0.923100  0.641200  0.957000  1.0
  H  H1106  1  0.119900  0.858800  0.957000  1.0
  H  H1107  1  0.435700  0.641200  0.543000  1.0
  H  H1108  1  0.021300  0.858800  0.543000  1.0
  H  H1109  1  0.076900  0.358800  0.043000  1.0
  H  H1110  1  0.880100  0.141200  0.043000  1.0
  H  H1111  1  0.564300  0.358800  0.457000  1.0
  H  H1112  1  0.978700  0.141200  0.457000  1.0
  H  H1113  1  0.884100  0.624000  0.914000  1.0
  H  H1114  1  0.201900  0.876000  0.914000  1.0
  H  H1115  1  0.491900  0.624000  0.586000  1.0
  H  H1116  1  0.922100  0.876000  0.586000  1.0
  H  H1117  1  0.115900  0.376000  0.086000  1.0
  H  H1118  1  0.798100  0.124000  0.086000  1.0
  H  H1119  1  0.508100  0.376000  0.414000  1.0
  H  H1120  1  0.077900  0.124000  0.414000  1.0
  H  H1121  1  0.091800  0.588200  0.984200  1.0
  H  H1122  1  0.924000  0.911800  0.984200  1.0
  H  H1123  1  0.320000  0.588200  0.515800  1.0
  H  H1124  1  0.164200  0.911800  0.515800  1.0
  H  H1125  1  0.908200  0.411800  0.015800  1.0
  H  H1126  1  0.076000  0.088200  0.015800  1.0
  H  H1127  1  0.680000  0.411800  0.484200  1.0
  H  H1128  1  0.835800  0.088200  0.484200  1.0
  H  H1129  1  0.038500  0.634600  0.982200  1.0
  H  H1130  1  0.979300  0.865400  0.982200  1.0
  H  H1131  1  0.326900  0.634600  0.517800  1.0
  H  H1132  1  0.155300  0.865400  0.517800  1.0
  H  H1133  1  0.961500  0.365400  0.017800  1.0
  H  H1134  1  0.020700  0.134600  0.017800  1.0
  H  H1135  1  0.673100  0.365400  0.482200  1.0
  H  H1136  1  0.844700  0.134600  0.482200  1.0
  H  H1137  1  0.775800  0.687800  0.989800  1.0
  H  H1138  1  0.234400  0.812200  0.989800  1.0
  H  H1139  1  0.536400  0.687800  0.510200  1.0
  H  H1140  1  0.953400  0.812200  0.510200  1.0
  H  H1141  1  0.224200  0.312200  0.010200  1.0
  H  H1142  1  0.765600  0.187800  0.010200  1.0
  H  H1143  1  0.463600  0.312200  0.489800  1.0
  H  H1144  1  0.046600  0.187800  0.489800  1.0
  H  H1145  1  0.850000  0.700000  0.994200  1.0
  H  H1146  1  0.155800  0.800000  0.994200  1.0
  H  H1147  1  0.450000  0.700000  0.505800  1.0
  H  H1148  1  0.044200  0.800000  0.505800  1.0
  H  H1149  1  0.150000  0.300000  0.005800  1.0
  H  H1150  1  0.844200  0.200000  0.005800  1.0
  H  H1151  1  0.550000  0.300000  0.494200  1.0
  H  H1152  1  0.955800  0.200000  0.494200  1.0
  H  H1153  1  0.844600  0.740600  0.039800  1.0
  H  H1154  1  0.115600  0.759400  0.039800  1.0
  H  H1155  1  0.414800  0.740600  0.460200  1.0
  H  H1156  1  0.125000  0.759400  0.460200  1.0
  H  H1157  1  0.155400  0.259400  0.960200  1.0
  H  H1158  1  0.884400  0.240600  0.960200  1.0
  H  H1159  1  0.585200  0.259400  0.539800  1.0
  H  H1160  1  0.875000  0.240600  0.539800  1.0
  H  H1161  1  0.772100  0.791200  0.076200  1.0
  H  H1162  1  0.151700  0.708800  0.076200  1.0
  H  H1163  1  0.436700  0.791200  0.423800  1.0
  H  H1164  1  0.139500  0.708800  0.423800  1.0
  H  H1165  1  0.227900  0.208800  0.923800  1.0
  H  H1166  1  0.848300  0.291200  0.923800  1.0
  H  H1167  1  0.563300  0.208800  0.576200  1.0
  H  H1168  1  0.860500  0.291200  0.576200  1.0
  H  H1169  1  0.581200  0.766200  0.063600  1.0
  H  H1170  1  0.355200  0.733800  0.063600  1.0
  H  H1171  1  0.652600  0.766200  0.436400  1.0
  H  H1172  1  0.911000  0.733800  0.436400  1.0
  H  H1173  1  0.418800  0.233800  0.936400  1.0
  H  H1174  1  0.644800  0.266200  0.936400  1.0
  H  H1175  1  0.347400  0.233800  0.563600  1.0
  H  H1176  1  0.089000  0.266200  0.563600  1.0
  H  H1177  1  0.653700  0.717000  0.026400  1.0
  H  H1178  1  0.319900  0.783000  0.026400  1.0
  H  H1179  1  0.629300  0.717000  0.473600  1.0
  H  H1180  1  0.897100  0.783000  0.473600  1.0
  H  H1181  1  0.346300  0.283000  0.973600  1.0
  H  H1182  1  0.680100  0.217000  0.973600  1.0
  H  H1183  1  0.370700  0.283000  0.526400  1.0
  H  H1184  1  0.102900  0.217000  0.526400  1.0
  H  H1185  1  0.650400  0.783000  0.131000  1.0
  H  H1186  1  0.218600  0.717000  0.131000  1.0
  H  H1187  1  0.566600  0.783000  0.369000  1.0
  H  H1188  1  0.064400  0.717000  0.369000  1.0
  H  H1189  1  0.349600  0.217000  0.869000  1.0
  H  H1190  1  0.781400  0.283000  0.869000  1.0
  H  H1191  1  0.433400  0.217000  0.631000  1.0
  H  H1192  1  0.935600  0.283000  0.631000  1.0
  H  H1193  1  0.598100  0.815000  0.188200  1.0
  H  H1194  1  0.213700  0.685000  0.188200  1.0
  H  H1195  1  0.586900  0.815000  0.311800  1.0
  H  H1196  1  0.101300  0.685000  0.311800  1.0
  H  H1197  1  0.401900  0.185000  0.811800  1.0
  H  H1198  1  0.786300  0.315000  0.811800  1.0
  H  H1199  1  0.413100  0.185000  0.688200  1.0
  H  H1200  1  0.898700  0.315000  0.688200  1.0
  H  H1201  1  0.530400  0.874800  0.218000  1.0
  H  H1202  1  0.251600  0.625200  0.218000  1.0
  H  H1203  1  0.594800  0.874800  0.282000  1.0
  H  H1204  1  0.123200  0.625200  0.282000  1.0
  H  H1205  1  0.469600  0.125200  0.782000  1.0
  H  H1206  1  0.748400  0.374800  0.782000  1.0
  H  H1207  1  0.405200  0.125200  0.718000  1.0
  H  H1208  1  0.876800  0.374800  0.718000  1.0
  H  H1209  1  0.472200  0.934200  0.193400  1.0
  H  H1210  1  0.334400  0.565800  0.193400  1.0
  H  H1211  1  0.593600  0.934200  0.306600  1.0
  H  H1212  1  0.099800  0.565800  0.306600  1.0
  H  H1213  1  0.527800  0.065800  0.806600  1.0
  H  H1214  1  0.665600  0.434200  0.806600  1.0
  H  H1215  1  0.406400  0.065800  0.693400  1.0
  H  H1216  1  0.900200  0.434200  0.693400  1.0
  H  H1217  1  0.494100  0.938400  0.138800  1.0
  H  H1218  1  0.367100  0.561600  0.138800  1.0
  H  H1219  1  0.567500  0.938400  0.361200  1.0
  H  H1220  1  0.071300  0.561600  0.361200  1.0
  H  H1221  1  0.505900  0.061600  0.861200  1.0
  H  H1222  1  0.632900  0.438400  0.861200  1.0
  H  H1223  1  0.432500  0.061600  0.638800  1.0
  H  H1224  1  0.928700  0.438400  0.638800  1.0
  H  H1225  1  0.933900  0.700800  0.087600  1.0
  H  H1226  1  0.978500  0.799200  0.087600  1.0
  H  H1227  1  0.365300  0.700800  0.412400  1.0
  H  H1228  1  0.222300  0.799200  0.412400  1.0
  H  H1229  1  0.066100  0.299200  0.912400  1.0
  H  H1230  1  0.021500  0.200800  0.912400  1.0
  H  H1231  1  0.634700  0.299200  0.587600  1.0
  H  H1232  1  0.777700  0.200800  0.587600  1.0
  H  H1233  1  0.961600  0.701000  0.050400  1.0
  H  H1234  1  0.988000  0.799000  0.050400  1.0
  H  H1235  1  0.337400  0.701000  0.449600  1.0
  H  H1236  1  0.213000  0.799000  0.449600  1.0
  H  H1237  1  0.038400  0.299000  0.949600  1.0
  H  H1238  1  0.012000  0.201000  0.949600  1.0
  H  H1239  1  0.662600  0.299000  0.550400  1.0
  H  H1240  1  0.787000  0.201000  0.550400  1.0
  H  H1241  1  0.085500  0.655600  0.025800  1.0
  H  H1242  1  0.888700  0.844400  0.025800  1.0
  H  H1243  1  0.258900  0.655600  0.474200  1.0
  H  H1244  1  0.266900  0.844400  0.474200  1.0
  H  H1245  1  0.914500  0.344400  0.974200  1.0
  H  H1246  1  0.111300  0.155600  0.974200  1.0
  H  H1247  1  0.741100  0.344400  0.525800  1.0
  H  H1248  1  0.733100  0.155600  0.525800  1.0
  H  H1249  1  0.210100  0.621400  0.029800  1.0
  H  H1250  1  0.760100  0.878600  0.029800  1.0
  H  H1251  1  0.168500  0.621400  0.470200  1.0
  H  H1252  1  0.361300  0.878600  0.470200  1.0
  H  H1253  1  0.789900  0.378600  0.970200  1.0
  H  H1254  1  0.239900  0.121400  0.970200  1.0
  H  H1255  1  0.831500  0.378600  0.529800  1.0
  H  H1256  1  0.638700  0.121400  0.529800  1.0
  H  H1257  1  0.150700  0.628200  0.123400  1.0
  H  H1258  1  0.725900  0.871800  0.123400  1.0
  H  H1259  1  0.221100  0.628200  0.376600  1.0
  H  H1260  1  0.402300  0.871800  0.376600  1.0
  H  H1261  1  0.849300  0.371800  0.876600  1.0
  H  H1262  1  0.274100  0.128200  0.876600  1.0
  H  H1263  1  0.778900  0.371800  0.623400  1.0
  H  H1264  1  0.597700  0.128200  0.623400  1.0
  H  H1265  1  0.025200  0.662800  0.120200  1.0
  H  H1266  1  0.854600  0.837200  0.120200  1.0
  H  H1267  1  0.312000  0.662800  0.379800  1.0
  H  H1268  1  0.308200  0.837200  0.379800  1.0
  H  H1269  1  0.974800  0.337200  0.879800  1.0
  H  H1270  1  0.145400  0.162800  0.879800  1.0
  H  H1271  1  0.688000  0.337200  0.620200  1.0
  H  H1272  1  0.691800  0.162800  0.620200  1.0
  H  H1273  1  0.256200  0.546400  0.072200  1.0
  H  H1274  1  0.671600  0.953600  0.072200  1.0
  H  H1275  1  0.197400  0.546400  0.427800  1.0
  H  H1276  1  0.374800  0.953600  0.427800  1.0
  H  H1277  1  0.743800  0.453600  0.927800  1.0
  H  H1278  1  0.328400  0.046400  0.927800  1.0
  H  H1279  1  0.802600  0.453600  0.572200  1.0
  H  H1280  1  0.625200  0.046400  0.572200  1.0
  H  H1281  1  0.376100  0.481600  0.063600  1.0
  H  H1282  1  0.560300  0.018400  0.063600  1.0
  H  H1283  1  0.142300  0.481600  0.436400  1.0
  H  H1284  1  0.421300  0.018400  0.436400  1.0
  H  H1285  1  0.623900  0.518400  0.936400  1.0
  H  H1286  1  0.439700  0.981600  0.936400  1.0
  H  H1287  1  0.857700  0.518400  0.563600  1.0
  H  H1288  1  0.578700  0.981600  0.563600  1.0
  H  H1289  1  0.506400  0.455800  0.060800  1.0
  H  H1290  1  0.432800  0.044200  0.060800  1.0
  H  H1291  1  0.037800  0.455800  0.439200  1.0
  H  H1292  1  0.523000  0.044200  0.439200  1.0
  H  H1293  1  0.493600  0.544200  0.939200  1.0
  H  H1294  1  0.567200  0.955800  0.939200  1.0
  H  H1295  1  0.962200  0.544200  0.560800  1.0
  H  H1296  1  0.477000  0.955800  0.560800  1.0
  H  H1297  1  0.577300  0.500000  0.068600  1.0
  H  H1298  1  0.354100  0.000000  0.068600  1.0
  H  H1299  1  0.922700  0.500000  0.431400  1.0
  H  H1300  1  0.645900  0.000000  0.431400  1.0
  H  H1301  1  0.422700  0.500000  0.931400  1.0
  H  H1302  1  0.645900  0.000000  0.931400  1.0
  H  H1303  1  0.077300  0.500000  0.568600  1.0
  H  H1304  1  0.354100  0.000000  0.568600  1.0
  H  H1305  1  0.514900  0.569400  0.081600  1.0
  H  H1306  1  0.403500  0.930600  0.081600  1.0
  H  H1307  1  0.915700  0.569400  0.418400  1.0
  H  H1308  1  0.665900  0.930600  0.418400  1.0
  H  H1309  1  0.485100  0.430600  0.918400  1.0
  H  H1310  1  0.596500  0.069400  0.918400  1.0
  H  H1311  1  0.084300  0.430600  0.581600  1.0
  H  H1312  1  0.334100  0.069400  0.581600  1.0
  H  H1313  1  0.043100  0.537800  0.017800  1.0
  H  H1314  1  0.939100  0.962200  0.017800  1.0
  H  H1315  1  0.419100  0.537800  0.482200  1.0
  H  H1316  1  0.098700  0.962200  0.482200  1.0
  H  H1317  1  0.956900  0.462200  0.982200  1.0
  H  H1318  1  0.060900  0.037800  0.982200  1.0
  H  H1319  1  0.580900  0.462200  0.517800  1.0
  H  H1320  1  0.901300  0.037800  0.517800  1.0
  H  H1321  1  0.968000  0.544000  0.003600  1.0
  H  H1322  1  0.028400  0.956000  0.003600  1.0
  H  H1323  1  0.488000  0.544000  0.496400  1.0
  H  H1324  1  0.015600  0.956000  0.496400  1.0
  H  H1325  1  0.032000  0.456000  0.996400  1.0
  H  H1326  1  0.971600  0.044000  0.996400  1.0
  H  H1327  1  0.512000  0.456000  0.503600  1.0
  H  H1328  1  0.984400  0.044000  0.503600  1.0
  H  H1329  1  0.926100  0.528200  0.054400  1.0
  H  H1330  1  0.019500  0.971800  0.054400  1.0
  H  H1331  1  0.545700  0.528200  0.445600  1.0
  H  H1332  1  0.008700  0.971800  0.445600  1.0
  H  H1333  1  0.073900  0.471800  0.945600  1.0
  H  H1334  1  0.980500  0.028200  0.945600  1.0
  H  H1335  1  0.454300  0.471800  0.554400  1.0
  H  H1336  1  0.991300  0.028200  0.554400  1.0
  H  H1337  1  0.974300  0.554200  0.067200  1.0
  H  H1338  1  0.958500  0.945800  0.067200  1.0
  H  H1339  1  0.471500  0.554200  0.432800  1.0
  H  H1340  1  0.095700  0.945800  0.432800  1.0
  H  H1341  1  0.025700  0.445800  0.932800  1.0
  H  H1342  1  0.041500  0.054200  0.932800  1.0
  H  H1343  1  0.528500  0.445800  0.567200  1.0
  H  H1344  1  0.904300  0.054200  0.567200  1.0
  H  H1345  1  0.783500  0.571200  0.054000  1.0
  H  H1346  1  0.162500  0.928800  0.054000  1.0
  H  H1347  1  0.645300  0.571200  0.446000  1.0
  H  H1348  1  0.908700  0.928800  0.446000  1.0
  H  H1349  1  0.216500  0.428800  0.946000  1.0
  H  H1350  1  0.837500  0.071200  0.946000  1.0
  H  H1351  1  0.354700  0.428800  0.554000  1.0
  H  H1352  1  0.091300  0.071200  0.554000  1.0
  H  H1353  1  0.841400  0.567000  0.020600  1.0
  H  H1354  1  0.138000  0.933000  0.020600  1.0
  H  H1355  1  0.591600  0.567000  0.479400  1.0
  H  H1356  1  0.929000  0.933000  0.479400  1.0
  H  H1357  1  0.158600  0.433000  0.979400  1.0
  H  H1358  1  0.862000  0.067000  0.979400  1.0
  H  H1359  1  0.408400  0.433000  0.520600  1.0
  H  H1360  1  0.071000  0.067000  0.520600  1.0
  H  H1361  1  0.747700  0.625600  0.013400  1.0
  H  H1362  1  0.238900  0.874400  0.013400  1.0
  H  H1363  1  0.626700  0.625600  0.486600  1.0
  H  H1364  1  0.886700  0.874400  0.486600  1.0
  H  H1365  1  0.252300  0.374400  0.986600  1.0
  H  H1366  1  0.761100  0.125600  0.986600  1.0
  H  H1367  1  0.373300  0.374400  0.513400  1.0
  H  H1368  1  0.113300  0.125600  0.513400  1.0
  H  H1369  1  0.737100  0.642000  0.048600  1.0
  H  H1370  1  0.214300  0.858000  0.048600  1.0
  H  H1371  1  0.620900  0.642000  0.451400  1.0
  H  H1372  1  0.927700  0.858000  0.451400  1.0
  H  H1373  1  0.262900  0.358000  0.951400  1.0
  H  H1374  1  0.785700  0.142000  0.951400  1.0
  H  H1375  1  0.379100  0.358000  0.548600  1.0
  H  H1376  1  0.072300  0.142000  0.548600  1.0
  H  H1377  1  0.844100  0.581400  0.101200  1.0
  H  H1378  1  0.054700  0.918600  0.101200  1.0
  H  H1379  1  0.574500  0.581400  0.398800  1.0
  H  H1380  1  0.026700  0.918600  0.398800  1.0
  H  H1381  1  0.155900  0.418600  0.898800  1.0
  H  H1382  1  0.945300  0.081400  0.898800  1.0
  H  H1383  1  0.425500  0.418600  0.601200  1.0
  H  H1384  1  0.973300  0.081400  0.601200  1.0
  H  H1385  1  0.794100  0.624000  0.088600  1.0
  H  H1386  1  0.117300  0.876000  0.088600  1.0
  H  H1387  1  0.581900  0.624000  0.411400  1.0
  H  H1388  1  0.006700  0.876000  0.411400  1.0
  H  H1389  1  0.205900  0.376000  0.911400  1.0
  H  H1390  1  0.882700  0.124000  0.911400  1.0
  H  H1391  1  0.418100  0.376000  0.588600  1.0
  H  H1392  1  0.993300  0.124000  0.588600  1.0
  H  H1393  1  0.874300  0.647400  0.112600  1.0
  H  H1394  1  0.013100  0.852600  0.112600  1.0
  H  H1395  1  0.478300  0.647400  0.387400  1.0
  H  H1396  1  0.134300  0.852600  0.387400  1.0
  H  H1397  1  0.125700  0.352600  0.887400  1.0
  H  H1398  1  0.986900  0.147400  0.887400  1.0
  H  H1399  1  0.521700  0.352600  0.612600  1.0
  H  H1400  1  0.865700  0.147400  0.612600  1.0
  H  H1401  1  0.946200  0.608600  0.099600  1.0
  H  H1402  1  0.954200  0.891400  0.099600  1.0
  H  H1403  1  0.445200  0.608600  0.400400  1.0
  H  H1404  1  0.154400  0.891400  0.400400  1.0
  H  H1405  1  0.053800  0.391400  0.900400  1.0
  H  H1406  1  0.045800  0.108600  0.900400  1.0
  H  H1407  1  0.554800  0.391400  0.599600  1.0
  H  H1408  1  0.845600  0.108600  0.599600  1.0
  H  H1409  1  0.853800  0.800400  0.906800  1.0
  H  H1410  1  0.239400  0.699600  0.906800  1.0
  H  H1411  1  0.345800  0.800400  0.593200  1.0
  H  H1412  1  0.061000  0.699600  0.593200  1.0
  H  H1413  1  0.146200  0.199600  0.093200  1.0
  H  H1414  1  0.760600  0.300400  0.093200  1.0
  H  H1415  1  0.654200  0.199600  0.406800  1.0
  H  H1416  1  0.939000  0.300400  0.406800  1.0
  H  H1417  1  0.432200  0.857000  0.136400  1.0
  H  H1418  1  0.431400  0.643000  0.136400  1.0
  H  H1419  1  0.710800  0.857000  0.363600  1.0
  H  H1420  1  0.925600  0.643000  0.363600  1.0
  H  H1421  1  0.567800  0.143000  0.863600  1.0
  H  H1422  1  0.568600  0.357000  0.863600  1.0
  H  H1423  1  0.289200  0.143000  0.636400  1.0
  H  H1424  1  0.074400  0.357000  0.636400  1.0
  H  H1425  1  0.322600  0.835200  0.136400  1.0
  H  H1426  1  0.541000  0.664800  0.136400  1.0
  H  H1427  1  0.842200  0.835200  0.363600  1.0
  H  H1428  1  0.794200  0.664800  0.363600  1.0
  H  H1429  1  0.677400  0.164800  0.863600  1.0
  H  H1430  1  0.459000  0.335200  0.863600  1.0
  H  H1431  1  0.157800  0.164800  0.636400  1.0
  H  H1432  1  0.205800  0.335200  0.636400  1.0
  H  H1433  1  0.303100  0.817400  0.088800  1.0
  H  H1434  1  0.608100  0.682600  0.088800  1.0
  H  H1435  1  0.879500  0.817400  0.411200  1.0
  H  H1436  1  0.709300  0.682600  0.411200  1.0
  H  H1437  1  0.696900  0.182600  0.911200  1.0
  H  H1438  1  0.391900  0.317400  0.911200  1.0
  H  H1439  1  0.120500  0.182600  0.588800  1.0
  H  H1440  1  0.290700  0.317400  0.588800  1.0
  H  H1441  1  0.386000  0.825400  0.042200  1.0
  H  H1442  1  0.571800  0.674600  0.042200  1.0
  H  H1443  1  0.788600  0.825400  0.457800  1.0
  H  H1444  1  0.753600  0.674600  0.457800  1.0
  H  H1445  1  0.614000  0.174600  0.957800  1.0
  H  H1446  1  0.428200  0.325400  0.957800  1.0
  H  H1447  1  0.211400  0.174600  0.542200  1.0
  H  H1448  1  0.246400  0.325400  0.542200  1.0
  H  H1449  1  0.510100  0.845800  0.015200  1.0
  H  H1450  1  0.474700  0.654200  0.015200  1.0
  H  H1451  1  0.644100  0.845800  0.484800  1.0
  H  H1452  1  0.871100  0.654200  0.484800  1.0
  H  H1453  1  0.489900  0.154200  0.984800  1.0
  H  H1454  1  0.525300  0.345800  0.984800  1.0
  H  H1455  1  0.355900  0.154200  0.515200  1.0
  H  H1456  1  0.128900  0.345800  0.515200  1.0
  H  H1457  1  0.675500  0.804000  0.009000  1.0
  H  H1458  1  0.315500  0.696000  0.009000  1.0
  H  H1459  1  0.520500  0.804000  0.491000  1.0
  H  H1460  1  0.988500  0.696000  0.491000  1.0
  H  H1461  1  0.324500  0.196000  0.991000  1.0
  H  H1462  1  0.684500  0.304000  0.991000  1.0
  H  H1463  1  0.479500  0.196000  0.509000  1.0
  H  H1464  1  0.011500  0.304000  0.509000  1.0
  H  H1465  1  0.773700  0.808200  0.967000  1.0
  H  H1466  1  0.259300  0.691800  0.967000  1.0
  H  H1467  1  0.418100  0.808200  0.533000  1.0
  H  H1468  1  0.048900  0.691800  0.533000  1.0
  H  H1469  1  0.226300  0.191800  0.033000  1.0
  H  H1470  1  0.740700  0.308200  0.033000  1.0
  H  H1471  1  0.581900  0.191800  0.467000  1.0
  H  H1472  1  0.951100  0.308200  0.467000  1.0
  H  H1473  1  0.697300  0.932800  0.969400  1.0
  H  H1474  1  0.333300  0.567200  0.969400  1.0
  H  H1475  1  0.369900  0.932800  0.530600  1.0
  H  H1476  1  0.099500  0.567200  0.530600  1.0
  H  H1477  1  0.302700  0.067200  0.030600  1.0
  H  H1478  1  0.666700  0.432800  0.030600  1.0
  H  H1479  1  0.630100  0.067200  0.469400  1.0
  H  H1480  1  0.900500  0.432800  0.469400  1.0
  H  H1481  1  0.601500  0.929600  0.013000  1.0
  H  H1482  1  0.385500  0.570400  0.013000  1.0
  H  H1483  1  0.468900  0.929600  0.487000  1.0
  H  H1484  1  0.044100  0.570400  0.487000  1.0
  H  H1485  1  0.398500  0.070400  0.987000  1.0
  H  H1486  1  0.614500  0.429600  0.987000  1.0
  H  H1487  1  0.531100  0.070400  0.513000  1.0
  H  H1488  1  0.955900  0.429600  0.513000  1.0
  H  H1489  1  0.815100  0.899600  0.932800  1.0
  H  H1490  1  0.252100  0.600400  0.932800  1.0
  H  H1491  1  0.285300  0.899600  0.567200  1.0
  H  H1492  1  0.147500  0.600400  0.567200  1.0
  H  H1493  1  0.184900  0.100400  0.067200  1.0
  H  H1494  1  0.747900  0.399600  0.067200  1.0
  H  H1495  1  0.714700  0.100400  0.432800  1.0
  H  H1496  1  0.852500  0.399600  0.432800  1.0
  H  H1497  1  0.852100  0.850800  0.936200  1.0
  H  H1498  1  0.211700  0.649200  0.936200  1.0
  H  H1499  1  0.297100  0.850800  0.563800  1.0
  H  H1500  1  0.139100  0.649200  0.563800  1.0
  H  H1501  1  0.147900  0.149200  0.063800  1.0
  H  H1502  1  0.788300  0.350800  0.063800  1.0
  H  H1503  1  0.702900  0.149200  0.436200  1.0
  H  H1504  1  0.860900  0.350800  0.436200  1.0
  H  H1505  1  0.740800  0.735200  0.931800  1.0
  H  H1506  1  0.327400  0.764800  0.931800  1.0
  H  H1507  1  0.524000  0.735200  0.568200  1.0
  H  H1508  1  0.907800  0.764800  0.568200  1.0
  H  H1509  1  0.259200  0.264800  0.068200  1.0
  H  H1510  1  0.672600  0.235200  0.068200  1.0
  H  H1511  1  0.476000  0.264800  0.431800  1.0
  H  H1512  1  0.092200  0.235200  0.431800  1.0
  H  H1513  1  0.816200  0.749000  0.931600  1.0
  H  H1514  1  0.252200  0.751000  0.931600  1.0
  H  H1515  1  0.434800  0.749000  0.568400  1.0
  H  H1516  1  0.996800  0.751000  0.568400  1.0
  H  H1517  1  0.183800  0.251000  0.068400  1.0
  H  H1518  1  0.747800  0.249000  0.068400  1.0
  H  H1519  1  0.565200  0.251000  0.431600  1.0
  H  H1520  1  0.003200  0.249000  0.431600  1.0
  H  H1521  1  0.737600  0.696000  0.883200  1.0
  H  H1522  1  0.379200  0.804000  0.883200  1.0
  H  H1523  1  0.566400  0.696000  0.616800  1.0
  H  H1524  1  0.816800  0.804000  0.616800  1.0
  H  H1525  1  0.262400  0.304000  0.116800  1.0
  H  H1526  1  0.620800  0.196000  0.116800  1.0
  H  H1527  1  0.433600  0.304000  0.383200  1.0
  H  H1528  1  0.183200  0.196000  0.383200  1.0
  H  H1529  1  0.809100  0.644400  0.847600  1.0
  H  H1530  1  0.343300  0.855600  0.847600  1.0
  H  H1531  1  0.546500  0.644400  0.652400  1.0
  H  H1532  1  0.801100  0.855600  0.652400  1.0
  H  H1533  1  0.190900  0.355600  0.152400  1.0
  H  H1534  1  0.656700  0.144400  0.152400  1.0
  H  H1535  1  0.453500  0.355600  0.347600  1.0
  H  H1536  1  0.198900  0.144400  0.347600  1.0
  H  H1537  1  0.000900  0.670600  0.857600  1.0
  H  H1538  1  0.141500  0.829400  0.857600  1.0
  H  H1539  1  0.328500  0.670600  0.642400  1.0
  H  H1540  1  0.029100  0.829400  0.642400  1.0
  H  H1541  1  0.999100  0.329400  0.142400  1.0
  H  H1542  1  0.858500  0.170600  0.142400  1.0
  H  H1543  1  0.671500  0.329400  0.357600  1.0
  H  H1544  1  0.970900  0.170600  0.357600  1.0
  H  H1545  1  0.929800  0.720800  0.894000  1.0
  H  H1546  1  0.176200  0.779200  0.894000  1.0
  H  H1547  1  0.349400  0.720800  0.606000  1.0
  H  H1548  1  0.044600  0.779200  0.606000  1.0
  H  H1549  1  0.070200  0.279200  0.106000  1.0
  H  H1550  1  0.823800  0.220800  0.106000  1.0
  H  H1551  1  0.650600  0.279200  0.394000  1.0
  H  H1552  1  0.955400  0.220800  0.394000  1.0
  H  H1553  1  0.948900  0.664400  0.790600  1.0
  H  H1554  1  0.260500  0.835600  0.790600  1.0
  H  H1555  1  0.386700  0.664400  0.709400  1.0
  H  H1556  1  0.903900  0.835600  0.709400  1.0
  H  H1557  1  0.051100  0.335600  0.209400  1.0
  H  H1558  1  0.739500  0.164400  0.209400  1.0
  H  H1559  1  0.613300  0.335600  0.290600  1.0
  H  H1560  1  0.096100  0.164400  0.290600  1.0
  H  H1561  1  0.024400  0.641800  0.732800  1.0
  H  H1562  1  0.242800  0.858200  0.732800  1.0
  H  H1563  1  0.333800  0.641800  0.767200  1.0
  H  H1564  1  0.899000  0.858200  0.767200  1.0
  H  H1565  1  0.975600  0.358200  0.267200  1.0
  H  H1566  1  0.757200  0.141800  0.267200  1.0
  H  H1567  1  0.666200  0.358200  0.232800  1.0
  H  H1568  1  0.101000  0.141800  0.232800  1.0
  H  H1569  1  0.101800  0.588200  0.699400  1.0
  H  H1570  1  0.198800  0.911800  0.699400  1.0
  H  H1571  1  0.310000  0.588200  0.800600  1.0
  H  H1572  1  0.889400  0.911800  0.800600  1.0
  H  H1573  1  0.898200  0.411800  0.300600  1.0
  H  H1574  1  0.801200  0.088200  0.300600  1.0
  H  H1575  1  0.690000  0.411800  0.199400  1.0
  H  H1576  1  0.110600  0.088200  0.199400  1.0
  H  H1577  1  0.129100  0.521000  0.718600  1.0
  H  H1578  1  0.152300  0.979000  0.718600  1.0
  H  H1579  1  0.349900  0.521000  0.781400  1.0
  H  H1580  1  0.868700  0.979000  0.781400  1.0
  H  H1581  1  0.870900  0.479000  0.281400  1.0
  H  H1582  1  0.847700  0.021000  0.281400  1.0
  H  H1583  1  0.650100  0.479000  0.218600  1.0
  H  H1584  1  0.131300  0.021000  0.218600  1.0
  H  H1585  1  0.090000  0.508400  0.771200  1.0
  H  H1586  1  0.138800  0.991600  0.771200  1.0
  H  H1587  1  0.401600  0.508400  0.728800  1.0
  H  H1588  1  0.869600  0.991600  0.728800  1.0
  H  H1589  1  0.910000  0.491600  0.228800  1.0
  H  H1590  1  0.861200  0.008400  0.228800  1.0
  H  H1591  1  0.598400  0.491600  0.271200  1.0
  H  H1592  1  0.130400  0.008400  0.271200  1.0
  H  H1593  1  0.972100  0.773400  0.836600  1.0
  H  H1594  1  0.191300  0.726600  0.836600  1.0
  H  H1595  1  0.254500  0.773400  0.663400  1.0
  H  H1596  1  0.082100  0.726600  0.663400  1.0
  H  H1597  1  0.027900  0.226600  0.163400  1.0
  H  H1598  1  0.808700  0.273400  0.163400  1.0
  H  H1599  1  0.745500  0.226600  0.336600  1.0
  H  H1600  1  0.917900  0.273400  0.336600  1.0
  H  H1601  1  0.959600  0.780400  0.873600  1.0
  H  H1602  1  0.166800  0.719600  0.873600  1.0
  H  H1603  1  0.260000  0.780400  0.626400  1.0
  H  H1604  1  0.113600  0.719600  0.626400  1.0
  H  H1605  1  0.040400  0.219600  0.126400  1.0
  H  H1606  1  0.833200  0.280400  0.126400  1.0
  H  H1607  1  0.740000  0.219600  0.373600  1.0
  H  H1608  1  0.886400  0.280400  0.373600  1.0
  H  H1609  1  0.028700  0.821400  0.801800  1.0
  H  H1610  1  0.169500  0.678600  0.801800  1.0
  H  H1611  1  0.149900  0.821400  0.698200  1.0
  H  H1612  1  0.151900  0.678600  0.698200  1.0
  H  H1613  1  0.971300  0.178600  0.198200  1.0
  H  H1614  1  0.830500  0.321400  0.198200  1.0
  H  H1615  1  0.850100  0.178600  0.301800  1.0
  H  H1616  1  0.848100  0.321400  0.301800  1.0
  H  H1617  1  0.079400  0.877800  0.794600  1.0
  H  H1618  1  0.126000  0.622200  0.794600  1.0
  H  H1619  1  0.042800  0.877800  0.705400  1.0
  H  H1620  1  0.251800  0.622200  0.705400  1.0
  H  H1621  1  0.920600  0.122200  0.205400  1.0
  H  H1622  1  0.874000  0.377800  0.205400  1.0
  H  H1623  1  0.957200  0.122200  0.294600  1.0
  H  H1624  1  0.748200  0.377800  0.294600  1.0
  H  H1625  1  0.991400  0.910200  0.884000  1.0
  H  H1626  1  0.124600  0.589800  0.884000  1.0
  H  H1627  1  0.098400  0.910200  0.616000  1.0
  H  H1628  1  0.285600  0.589800  0.616000  1.0
  H  H1629  1  0.008600  0.089800  0.116000  1.0
  H  H1630  1  0.875400  0.410200  0.116000  1.0
  H  H1631  1  0.901600  0.089800  0.384000  1.0
  H  H1632  1  0.714400  0.410200  0.384000  1.0
  H  H1633  1  0.948100  0.851600  0.892200  1.0
  H  H1634  1  0.159700  0.648400  0.892200  1.0
  H  H1635  1  0.200300  0.851600  0.607800  1.0
  H  H1636  1  0.191900  0.648400  0.607800  1.0
  H  H1637  1  0.051900  0.148400  0.107800  1.0
  H  H1638  1  0.840300  0.351600  0.107800  1.0
  H  H1639  1  0.799700  0.148400  0.392200  1.0
  H  H1640  1  0.808100  0.351600  0.392200  1.0
  H  H1641  1  0.967400  0.975800  0.834200  1.0
  H  H1642  1  0.198400  0.524200  0.834200  1.0
  H  H1643  1  0.056800  0.975800  0.665800  1.0
  H  H1644  1  0.277400  0.524200  0.665800  1.0
  H  H1645  1  0.032600  0.024200  0.165800  1.0
  H  H1646  1  0.801600  0.475800  0.165800  1.0
  H  H1647  1  0.943200  0.024200  0.334200  1.0
  H  H1648  1  0.722600  0.475800  0.334200  1.0
  H  H1649  1  0.954600  0.056400  0.835000  1.0
  H  H1650  1  0.210400  0.443600  0.835000  1.0
  H  H1651  1  0.989000  0.056400  0.665000  1.0
  H  H1652  1  0.346000  0.443600  0.665000  1.0
  H  H1653  1  0.045400  0.943600  0.165000  1.0
  H  H1654  1  0.789600  0.556400  0.165000  1.0
  H  H1655  1  0.011000  0.943600  0.335000  1.0
  H  H1656  1  0.654000  0.556400  0.335000  1.0
  H  H1657  1  0.017000  0.108400  0.829400  1.0
  H  H1658  1  0.153600  0.391600  0.829400  1.0
  H  H1659  1  0.874600  0.108400  0.670600  1.0
  H  H1660  1  0.454800  0.391600  0.670600  1.0
  H  H1661  1  0.983000  0.891600  0.170600  1.0
  H  H1662  1  0.846400  0.608400  0.170600  1.0
  H  H1663  1  0.125400  0.891600  0.329400  1.0
  H  H1664  1  0.545200  0.608400  0.329400  1.0
  H  H1665  1  0.147000  0.091000  0.828600  1.0
  H  H1666  1  0.024400  0.409000  0.828600  1.0
  H  H1667  1  0.762000  0.091000  0.671400  1.0
  H  H1668  1  0.566600  0.409000  0.671400  1.0
  H  H1669  1  0.853000  0.909000  0.171400  1.0
  H  H1670  1  0.975600  0.591000  0.171400  1.0
  H  H1671  1  0.238000  0.909000  0.328600  1.0
  H  H1672  1  0.433400  0.591000  0.328600  1.0
  H  H1673  1  0.214000  0.021400  0.829200  1.0
  H  H1674  1  0.956800  0.478600  0.829200  1.0
  H  H1675  1  0.764600  0.021400  0.670800  1.0
  H  H1676  1  0.564600  0.478600  0.670800  1.0
  H  H1677  1  0.786000  0.978600  0.170800  1.0
  H  H1678  1  0.043200  0.521400  0.170800  1.0
  H  H1679  1  0.235400  0.978600  0.329200  1.0
  H  H1680  1  0.435400  0.521400  0.329200  1.0
  H  H1681  1  0.740800  0.925000  0.894800  1.0
  H  H1682  1  0.364400  0.575000  0.894800  1.0
  H  H1683  1  0.334200  0.925000  0.605200  1.0
  H  H1684  1  0.060600  0.575000  0.605200  1.0
  H  H1685  1  0.259200  0.075000  0.105200  1.0
  H  H1686  1  0.635600  0.425000  0.105200  1.0
  H  H1687  1  0.665800  0.075000  0.394800  1.0
  H  H1688  1  0.939400  0.425000  0.394800  1.0
  H  H1689  1  0.676300  0.903200  0.912200  1.0
  H  H1690  1  0.411500  0.596800  0.912200  1.0
  H  H1691  1  0.420500  0.903200  0.587800  1.0
  H  H1692  1  0.991700  0.596800  0.587800  1.0
  H  H1693  1  0.323700  0.096800  0.087800  1.0
  H  H1694  1  0.588500  0.403200  0.087800  1.0
  H  H1695  1  0.579500  0.096800  0.412200  1.0
  H  H1696  1  0.008300  0.403200  0.412200  1.0
  H  H1697  1  0.663500  0.902800  0.861600  1.0
  H  H1698  1  0.474900  0.597200  0.861600  1.0
  H  H1699  1  0.433700  0.902800  0.638400  1.0
  H  H1700  1  0.927900  0.597200  0.638400  1.0
  H  H1701  1  0.336500  0.097200  0.138400  1.0
  H  H1702  1  0.525100  0.402800  0.138400  1.0
  H  H1703  1  0.566300  0.097200  0.361600  1.0
  H  H1704  1  0.072100  0.402800  0.361600  1.0
  H  H1705  1  0.753400  0.894600  0.848200  1.0
  H  H1706  1  0.398400  0.605400  0.848200  1.0
  H  H1707  1  0.352000  0.894600  0.651800  1.0
  H  H1708  1  0.996200  0.605400  0.651800  1.0
  H  H1709  1  0.246600  0.105400  0.151800  1.0
  H  H1710  1  0.601600  0.394600  0.151800  1.0
  H  H1711  1  0.648000  0.105400  0.348200  1.0
  H  H1712  1  0.003800  0.394600  0.348200  1.0
  H  H1713  1  0.617800  0.833800  0.868600  1.0
  H  H1714  1  0.513600  0.666200  0.868600  1.0
  H  H1715  1  0.548400  0.833800  0.631400  1.0
  H  H1716  1  0.820200  0.666200  0.631400  1.0
  H  H1717  1  0.382200  0.166200  0.131400  1.0
  H  H1718  1  0.486400  0.333800  0.131400  1.0
  H  H1719  1  0.451600  0.166200  0.368600  1.0
  H  H1720  1  0.179800  0.333800  0.368600  1.0
  H  H1721  1  0.626800  0.852000  0.900400  1.0
  H  H1722  1  0.472800  0.648000  0.900400  1.0
  H  H1723  1  0.521200  0.852000  0.599600  1.0
  H  H1724  1  0.879200  0.648000  0.599600  1.0
  H  H1725  1  0.373200  0.148000  0.099600  1.0
  H  H1726  1  0.527200  0.352000  0.099600  1.0
  H  H1727  1  0.478800  0.148000  0.400400  1.0
  H  H1728  1  0.120800  0.352000  0.400400  1.0
  H  H1729  1  0.637800  0.783800  0.913800  1.0
  H  H1730  1  0.448400  0.716200  0.913800  1.0
  H  H1731  1  0.578400  0.783800  0.586200  1.0
  H  H1732  1  0.835400  0.716200  0.586200  1.0
  H  H1733  1  0.362200  0.216200  0.086200  1.0
  H  H1734  1  0.551600  0.283800  0.086200  1.0
  H  H1735  1  0.421600  0.216200  0.413800  1.0
  H  H1736  1  0.164600  0.283800  0.413800  1.0
  H  H1737  1  0.683200  0.767600  0.879200  1.0
  H  H1738  1  0.437600  0.732400  0.879200  1.0
  H  H1739  1  0.549200  0.767600  0.620800  1.0
  H  H1740  1  0.830000  0.732400  0.620800  1.0
  H  H1741  1  0.316800  0.232400  0.120800  1.0
  H  H1742  1  0.562400  0.267600  0.120800  1.0
  H  H1743  1  0.450800  0.232400  0.379200  1.0
  H  H1744  1  0.170000  0.267600  0.379200  1.0
  H  H1745  1  0.727900  0.841800  0.819000  1.0
  H  H1746  1  0.453100  0.658200  0.819000  1.0
  H  H1747  1  0.430300  0.841800  0.681000  1.0
  H  H1748  1  0.888700  0.658200  0.681000  1.0
  H  H1749  1  0.272100  0.158200  0.181000  1.0
  H  H1750  1  0.546900  0.341800  0.181000  1.0
  H  H1751  1  0.569700  0.158200  0.319000  1.0
  H  H1752  1  0.111300  0.341800  0.319000  1.0
  H  H1753  1  0.739000  0.796400  0.834800  1.0
  H  H1754  1  0.426200  0.703600  0.834800  1.0
  H  H1755  1  0.464600  0.796400  0.665200  1.0
  H  H1756  1  0.870200  0.703600  0.665200  1.0
  H  H1757  1  0.261000  0.203600  0.165200  1.0
  H  H1758  1  0.573800  0.296400  0.165200  1.0
  H  H1759  1  0.535400  0.203600  0.334800  1.0
  H  H1760  1  0.129800  0.296400  0.334800  1.0
  H  H1761  1  0.862300  0.793600  0.811800  1.0
  H  H1762  1  0.325900  0.706400  0.811800  1.0
  H  H1763  1  0.344100  0.793600  0.688200  1.0
  H  H1764  1  0.967700  0.706400  0.688200  1.0
  H  H1765  1  0.137700  0.206400  0.188200  1.0
  H  H1766  1  0.674100  0.293600  0.188200  1.0
  H  H1767  1  0.655900  0.206400  0.311800  1.0
  H  H1768  1  0.032300  0.293600  0.311800  1.0
  H  H1769  1  0.850400  0.842200  0.818200  1.0
  H  H1770  1  0.331400  0.657800  0.818200  1.0
  H  H1771  1  0.307400  0.842200  0.681800  1.0
  H  H1772  1  0.010800  0.657800  0.681800  1.0
  H  H1773  1  0.149600  0.157800  0.181800  1.0
  H  H1774  1  0.668600  0.342200  0.181800  1.0
  H  H1775  1  0.692600  0.157800  0.318200  1.0
  H  H1776  1  0.989200  0.342200  0.318200  1.0
  N  N1777  1  0.895710  0.555900  0.826280  1.0
  N  N1778  1  0.278010  0.944100  0.826280  1.0
  N  N1779  1  0.548390  0.555900  0.673720  1.0
  N  N1780  1  0.777890  0.944100  0.673720  1.0
  N  N1781  1  0.104290  0.444100  0.173720  1.0
  N  N1782  1  0.721990  0.055900  0.173720  1.0
  N  N1783  1  0.451610  0.444100  0.326280  1.0
  N  N1784  1  0.222110  0.055900  0.326280  1.0
  N  N1785  1  0.948190  0.563160  0.874660  1.0
  N  N1786  1  0.177150  0.936840  0.874660  1.0
  N  N1787  1  0.488650  0.563160  0.625340  1.0
  N  N1788  1  0.886010  0.936840  0.625340  1.0
  N  N1789  1  0.051810  0.436840  0.125340  1.0
  N  N1790  1  0.822850  0.063160  0.125340  1.0
  N  N1791  1  0.511350  0.436840  0.374660  1.0
  N  N1792  1  0.113990  0.063160  0.374660  1.0
  N  N1793  1  0.624420  0.816800  0.094960  1.0
  N  N1794  1  0.280620  0.683200  0.094960  1.0
  N  N1795  1  0.558780  0.816800  0.405040  1.0
  N  N1796  1  0.036180  0.683200  0.405040  1.0
  N  N1797  1  0.375580  0.183200  0.905040  1.0
  N  N1798  1  0.719380  0.316800  0.905040  1.0
  N  N1799  1  0.441220  0.183200  0.594960  1.0
  N  N1800  1  0.963820  0.316800  0.594960  1.0
  N  N1801  1  0.553250  0.879220  0.131080  1.0
  N  N1802  1  0.315670  0.620780  0.131080  1.0
  N  N1803  1  0.567530  0.879220  0.368920  1.0
  N  N1804  1  0.063550  0.620780  0.368920  1.0
  N  N1805  1  0.446750  0.120780  0.868920  1.0
  N  N1806  1  0.684330  0.379220  0.868920  1.0
  N  N1807  1  0.432470  0.120780  0.631080  1.0
  N  N1808  1  0.936450  0.379220  0.631080  1.0
  N  N1809  1  0.268800  0.601500  0.078900  1.0
  N  N1810  1  0.652300  0.898500  0.078900  1.0
  N  N1811  1  0.129700  0.601500  0.421100  1.0
  N  N1812  1  0.449200  0.898500  0.421100  1.0
  N  N1813  1  0.731200  0.398500  0.921100  1.0
  N  N1814  1  0.347700  0.101500  0.921100  1.0
  N  N1815  1  0.870300  0.398500  0.578900  1.0
  N  N1816  1  0.550800  0.101500  0.578900  1.0
  N  N1817  1  0.410580  0.567760  0.079480  1.0
  N  N1818  1  0.509940  0.932240  0.079480  1.0
  N  N1819  1  0.021660  0.567760  0.420520  1.0
  N  N1820  1  0.557820  0.932240  0.420520  1.0
  N  N1821  1  0.589420  0.432240  0.920520  1.0
  N  N1822  1  0.490060  0.067760  0.920520  1.0
  N  N1823  1  0.978340  0.432240  0.579480  1.0
  N  N1824  1  0.442180  0.067760  0.579480  1.0
  N  N1825  1  0.987600  0.597880  0.012520  1.0
  N  N1826  1  0.999880  0.902120  0.012520  1.0
  N  N1827  1  0.414520  0.597880  0.487480  1.0
  N  N1828  1  0.098000  0.902120  0.487480  1.0
  N  N1829  1  0.012400  0.402120  0.987480  1.0
  N  N1830  1  0.000120  0.097880  0.987480  1.0
  N  N1831  1  0.585480  0.402120  0.512520  1.0
  N  N1832  1  0.902000  0.097880  0.512520  1.0
  N  N1833  1  0.833320  0.649540  0.019220  1.0
  N  N1834  1  0.147460  0.850460  0.019220  1.0
  N  N1835  1  0.517140  0.649540  0.480780  1.0
  N  N1836  1  0.002080  0.850460  0.480780  1.0
  N  N1837  1  0.166680  0.350460  0.980780  1.0
  N  N1838  1  0.852540  0.149540  0.980780  1.0
  N  N1839  1  0.482860  0.350460  0.519220  1.0
  N  N1840  1  0.997920  0.149540  0.519220  1.0
  N  N1841  1  0.919260  0.652060  0.066220  1.0
  N  N1842  1  0.014520  0.847940  0.066220  1.0
  N  N1843  1  0.428680  0.652060  0.433780  1.0
  N  N1844  1  0.137540  0.847940  0.433780  1.0
  N  N1845  1  0.080740  0.347940  0.933780  1.0
  N  N1846  1  0.985480  0.152060  0.933780  1.0
  N  N1847  1  0.571320  0.347940  0.566220  1.0
  N  N1848  1  0.862460  0.152060  0.566220  1.0
  N  N1849  1  0.877920  0.590880  0.054680  1.0
  N  N1850  1  0.067400  0.909120  0.054680  1.0
  N  N1851  1  0.531200  0.590880  0.445320  1.0
  N  N1852  1  0.023480  0.909120  0.445320  1.0
  N  N1853  1  0.122080  0.409120  0.945320  1.0
  N  N1854  1  0.932600  0.090880  0.945320  1.0
  N  N1855  1  0.468800  0.409120  0.554680  1.0
  N  N1856  1  0.976520  0.090880  0.554680  1.0
  N  N1857  1  0.472680  0.854380  0.090460  1.0
  N  N1858  1  0.436860  0.645620  0.090460  1.0
  N  N1859  1  0.672940  0.854380  0.409540  1.0
  N  N1860  1  0.917520  0.645620  0.409540  1.0
  N  N1861  1  0.527320  0.145620  0.909540  1.0
  N  N1862  1  0.563140  0.354380  0.909540  1.0
  N  N1863  1  0.327060  0.145620  0.590460  1.0
  N  N1864  1  0.082480  0.354380  0.590460  1.0
  N  N1865  1  0.570510  0.863280  0.041700  1.0
  N  N1866  1  0.387790  0.636720  0.041700  1.0
  N  N1867  1  0.566210  0.863280  0.458300  1.0
  N  N1868  1  0.975490  0.636720  0.458300  1.0
  N  N1869  1  0.429490  0.136720  0.958300  1.0
  N  N1870  1  0.612210  0.363280  0.958300  1.0
  N  N1871  1  0.433790  0.136720  0.541700  1.0
  N  N1872  1  0.024510  0.363280  0.541700  1.0
  N  N1873  1  0.955230  0.623280  0.823860  1.0
  N  N1874  1  0.220910  0.876720  0.823860  1.0
  N  N1875  1  0.421490  0.623280  0.676140  1.0
  N  N1876  1  0.902370  0.876720  0.676140  1.0
  N  N1877  1  0.044770  0.376720  0.176140  1.0
  N  N1878  1  0.779090  0.123280  0.176140  1.0
  N  N1879  1  0.578510  0.376720  0.323860  1.0
  N  N1880  1  0.097630  0.123280  0.323860  1.0
  N  N1881  1  0.031450  0.566000  0.784100  1.0
  N  N1882  1  0.184450  0.934000  0.784100  1.0
  N  N1883  1  0.402550  0.566000  0.715900  1.0
  N  N1884  1  0.881550  0.934000  0.715900  1.0
  N  N1885  1  0.968550  0.434000  0.215900  1.0
  N  N1886  1  0.815550  0.066000  0.215900  1.0
  N  N1887  1  0.597450  0.434000  0.284100  1.0
  N  N1888  1  0.118450  0.066000  0.284100  1.0
  N  N1889  1  0.067040  0.936340  0.834580  1.0
  N  N1890  1  0.098380  0.563660  0.834580  1.0
  N  N1891  1  0.996620  0.936340  0.665420  1.0
  N  N1892  1  0.337960  0.563660  0.665420  1.0
  N  N1893  1  0.932960  0.063660  0.165420  1.0
  N  N1894  1  0.901620  0.436340  0.165420  1.0
  N  N1895  1  0.003380  0.063660  0.334580  1.0
  N  N1896  1  0.662040  0.436340  0.334580  1.0
  N  N1897  1  0.126510  0.997540  0.831240  1.0
  N  N1898  1  0.042250  0.502460  0.831240  1.0
  N  N1899  1  0.875950  0.997540  0.668760  1.0
  N  N1900  1  0.455290  0.502460  0.668760  1.0
  N  N1901  1  0.873490  0.002460  0.168760  1.0
  N  N1902  1  0.957750  0.497540  0.168760  1.0
  N  N1903  1  0.124050  0.002460  0.331240  1.0
  N  N1904  1  0.544710  0.497540  0.331240  1.0
  N  N1905  1  0.783000  0.864500  0.905300  1.0
  N  N1906  1  0.311700  0.635500  0.905300  1.0
  N  N1907  1  0.352500  0.864500  0.594700  1.0
  N  N1908  1  0.052800  0.635500  0.594700  1.0
  N  N1909  1  0.217000  0.135500  0.094700  1.0
  N  N1910  1  0.688300  0.364500  0.094700  1.0
  N  N1911  1  0.647500  0.135500  0.405300  1.0
  N  N1912  1  0.947200  0.364500  0.405300  1.0
  N  N1913  1  0.748960  0.785200  0.904680  1.0
  N  N1914  1  0.346360  0.714800  0.904680  1.0
  N  N1915  1  0.465840  0.785200  0.595320  1.0
  N  N1916  1  0.938840  0.714800  0.595320  1.0
  N  N1917  1  0.251040  0.214800  0.095320  1.0
  N  N1918  1  0.653640  0.285200  0.095320  1.0
  N  N1919  1  0.534160  0.214800  0.404680  1.0
  N  N1920  1  0.061160  0.285200  0.404680  1.0
  N  N1921  1  0.863850  0.805900  0.856200  1.0
  N  N1922  1  0.279950  0.694100  0.856200  1.0
  N  N1923  1  0.330250  0.805900  0.643800  1.0
  N  N1924  1  0.025950  0.694100  0.643800  1.0
  N  N1925  1  0.136150  0.194100  0.143800  1.0
  N  N1926  1  0.720050  0.305900  0.143800  1.0
  N  N1927  1  0.669750  0.194100  0.356200  1.0
  N  N1928  1  0.974050  0.305900  0.356200  1.0
  N  N1929  1  0.723250  0.842400  0.865900  1.0
  N  N1930  1  0.410850  0.657600  0.865900  1.0
  N  N1931  1  0.434350  0.842400  0.634100  1.0
  N  N1932  1  0.931550  0.657600  0.634100  1.0
  N  N1933  1  0.276750  0.157600  0.134100  1.0
  N  N1934  1  0.589150  0.342400  0.134100  1.0
  N  N1935  1  0.565650  0.157600  0.365900  1.0
  N  N1936  1  0.068450  0.342400  0.365900  1.0
  O  O1937  1  0.848500  0.984400  0.855000  1
  O  O1938  1  0.296500  0.515600  0.855000  1
  O  O1939  1  0.167100  0.984400  0.645000  1
  O  O1940  1  0.187900  0.515600  0.645000  1
  O  O1941  1  0.151500  0.015600  0.145000  1
  O  O1942  1  0.703500  0.484400  0.145000  1
  O  O1943  1  0.832900  0.015600  0.355000  1
  O  O1944  1  0.812100  0.484400  0.355000  1
  O  O1945  1  0.789700  0.983400  0.911600  1
  O  O1946  1  0.298700  0.516600  0.911600  1
  O  O1947  1  0.226900  0.983400  0.588400  1
  O  O1948  1  0.184700  0.516600  0.588400  1
  O  O1949  1  0.210300  0.016600  0.088400  1
  O  O1950  1  0.701300  0.483400  0.088400  1
  O  O1951  1  0.773100  0.016600  0.411600  1
  O  O1952  1  0.815300  0.483400  0.411600  1
  O  O1953  1  0.894000  0.012800  0.893400  1
  O  O1954  1  0.212600  0.487200  0.893400  1
  O  O1955  1  0.093200  0.012800  0.606600  1
  O  O1956  1  0.300200  0.487200  0.606600  1
  O  O1957  1  0.106000  0.987200  0.106600  1
  O  O1958  1  0.787400  0.512800  0.106600  1
  O  O1959  1  0.906800  0.987200  0.393400  1
  O  O1960  1  0.699800  0.512800  0.393400  1
  O  O1961  1  0.525000  0.575000  0.793200  1
  O  O1962  1  0.681800  0.925000  0.793200  1
  O  O1963  1  0.900000  0.575000  0.706800  1
  O  O1964  1  0.393200  0.925000  0.706800  1
  O  O1965  1  0.475000  0.425000  0.206800  1
  O  O1966  1  0.318200  0.075000  0.206800  1
  O  O1967  1  0.100000  0.425000  0.293200  1
  O  O1968  1  0.606800  0.075000  0.293200  1
  O  O1969  1  0.653400  0.512800  0.785800  1
  O  O1970  1  0.560800  0.987200  0.785800  1
  O  O1971  1  0.833800  0.512800  0.714200  1
  O  O1972  1  0.452000  0.987200  0.714200  1
  O  O1973  1  0.346600  0.487200  0.214200  1
  O  O1974  1  0.439200  0.012800  0.214200  1
  O  O1975  1  0.166200  0.487200  0.285800  1
  O  O1976  1  0.548000  0.012800  0.285800  1
  O  O1977  1  0.555000  0.512000  0.769200  1
  O  O1978  1  0.675800  0.988000  0.769200  1
  O  O1979  1  0.933000  0.512000  0.730800  1
  O  O1980  1  0.336200  0.988000  0.730800  1
  O  O1981  1  0.445000  0.488000  0.230800  1
  O  O1982  1  0.324200  0.012000  0.230800  1
  O  O1983  1  0.067000  0.488000  0.269200  1
  O  O1984  1  0.663800  0.012000  0.269200  1
  O  O1985  1  0.748700  0.575200  0.972800  1
  O  O1986  1  0.278500  0.924800  0.972800  1
  O  O1987  1  0.676100  0.575200  0.527200  1
  O  O1988  1  0.796700  0.924800  0.527200  1
  O  O1989  1  0.251300  0.424800  0.027200  1
  O  O1990  1  0.721500  0.075200  0.027200  1
  O  O1991  1  0.323900  0.424800  0.472800  1
  O  O1992  1  0.203300  0.075200  0.472800  1
  O  O1993  1  0.856600  0.528800  0.966000  1
  O  O1994  1  0.177400  0.971200  0.966000  1
  O  O1995  1  0.614600  0.528800  0.534000  1
  O  O1996  1  0.851400  0.971200  0.534000  1
  O  O1997  1  0.143400  0.471200  0.034000  1
  O  O1998  1  0.822600  0.028800  0.034000  1
  O  O1999  1  0.385400  0.471200  0.466000  1
  O  O2000  1  0.148600  0.028800  0.466000  1
  O  O2001  1  0.757700  0.523600  0.936800  1
  O  O2002  1  0.305500  0.976400  0.936800  1
  O  O2003  1  0.718700  0.523600  0.563200  1
  O  O2004  1  0.718100  0.976400  0.563200  1
  O  O2005  1  0.242300  0.476400  0.063200  1
  O  O2006  1  0.694500  0.023600  0.063200  1
  O  O2007  1  0.281300  0.476400  0.436800  1
  O  O2008  1  0.281900  0.023600  0.436800  1
  O  O2009  1  0.778500  0.981000  0.902000  1
  O  O2010  1  0.319500  0.519000  0.902000  1
  O  O2011  1  0.240500  0.981000  0.598000  1
  O  O2012  1  0.161500  0.519000  0.598000  1
  O  O2013  1  0.221500  0.019000  0.098000  1
  O  O2014  1  0.680500  0.481000  0.098000  1
  O  O2015  1  0.759500  0.019000  0.402000  1
  O  O2016  1  0.838500  0.481000  0.402000  1
  O  O2017  1  0.750400  0.050600  0.920200  1
  O  O2018  1  0.329400  0.449400  0.920200  1
  O  O2019  1  0.199000  0.050600  0.579800  1
  O  O2020  1  0.221200  0.449400  0.579800  1
  O  O2021  1  0.249600  0.949400  0.079800  1
  O  O2022  1  0.670600  0.550600  0.079800  1
  O  O2023  1  0.801000  0.949400  0.420200  1
  O  O2024  1  0.778800  0.550600  0.420200  1
  O  O2025  1  0.883200  0.015400  0.896800  1
  O  O2026  1  0.220000  0.484600  0.896800  1
  O  O2027  1  0.101400  0.015400  0.603200  1
  O  O2028  1  0.295400  0.484600  0.603200  1
  O  O2029  1  0.116800  0.984600  0.103200  1
  O  O2030  1  0.780000  0.515400  0.103200  1
  O  O2031  1  0.898600  0.984600  0.396800  1
  O  O2032  1  0.704600  0.515400  0.396800  1
  O  O2033  1  0.741300  0.534400  0.941000  1
  O  O2034  1  0.317700  0.965600  0.941000  1
  O  O2035  1  0.724300  0.534400  0.559000  1
  O  O2036  1  0.716700  0.965600  0.559000  1
  O  O2037  1  0.258700  0.465600  0.059000  1
  O  O2038  1  0.682300  0.034400  0.059000  1
  O  O2039  1  0.275700  0.465600  0.441000  1
  O  O2040  1  0.283300  0.034400  0.441000  1
  O  O2041  1  0.836800  0.542200  0.968400  1
  O  O2042  1  0.194800  0.957800  0.968400  1
  O  O2043  1  0.621000  0.542200  0.531600  1
  O  O2044  1  0.847400  0.957800  0.531600  1
  O  O2045  1  0.163200  0.457800  0.031600  1
  O  O2046  1  0.805200  0.042200  0.031600  1
  O  O2047  1  0.379000  0.457800  0.468400  1
  O  O2048  1  0.152600  0.042200  0.468400  1
  O  O2049  1  0.834300  0.474800  0.954400  1
  O  O2050  1  0.211300  0.025200  0.954400  1
  O  O2051  1  0.690900  0.474800  0.545600  1
  O  O2052  1  0.763500  0.025200  0.545600  1
  O  O2053  1  0.165700  0.525200  0.045600  1
  O  O2054  1  0.788700  0.974800  0.045600  1
  O  O2055  1  0.309100  0.525200  0.454400  1
  O  O2056  1  0.236500  0.974800  0.454400  1
  O  O2057  1  0.652800  0.538200  0.774000  1
  O  O2058  1  0.573200  0.961800  0.774000  1
  O  O2059  1  0.809000  0.538200  0.726000  1
  O  O2060  1  0.465000  0.961800  0.726000  1
  O  O2061  1  0.347200  0.461800  0.226000  1
  O  O2062  1  0.426800  0.038200  0.226000  1
  O  O2063  1  0.191000  0.461800  0.274000  1
  O  O2064  1  0.535000  0.038200  0.274000  1
  O  O2065  1  0.574100  0.584800  0.813000  1
  O  O2066  1  0.612900  0.915200  0.813000  1
  O  O2067  1  0.841100  0.584800  0.687000  1
  O  O2068  1  0.471900  0.915200  0.687000  1
  O  O2069  1  0.425900  0.415200  0.187000  1
  O  O2070  1  0.387100  0.084800  0.187000  1
  O  O2071  1  0.158900  0.415200  0.313000  1
  O  O2072  1  0.528100  0.084800  0.313000  1
  O  O2073  1  0.540000  0.582200  0.766400  1
  O  O2074  1  0.693600  0.917800  0.766400  1
  O  O2075  1  0.877800  0.582200  0.733600  1
  O  O2076  1  0.388600  0.917800  0.733600  1
  O  O2077  1  0.460000  0.417800  0.233600  1
  O  O2078  1  0.306400  0.082200  0.233600  1
  O  O2079  1  0.122200  0.417800  0.266400  1
  O  O2080  1  0.611400  0.082200  0.266400  1
  O  O2081  1  0.578500  0.569200  0.819800  1
  O  O2082  1  0.601700  0.930800  0.819800  1
  O  O2083  1  0.852300  0.569200  0.680200  1
  O  O2084  1  0.467500  0.930800  0.680200  1
  O  O2085  1  0.421500  0.430800  0.180200  1
  O  O2086  1  0.398300  0.069200  0.180200  1
  O  O2087  1  0.147700  0.430800  0.319800  1
  O  O2088  1  0.532500  0.069200  0.319800  1
  O  O2089  1  0.649900  0.501600  0.796600  1
  O  O2090  1  0.553500  0.998400  0.796600  1
  O  O2091  1  0.848500  0.501600  0.703400  1
  O  O2092  1  0.448100  0.998400  0.703400  1
  O  O2093  1  0.350100  0.498400  0.203400  1
  O  O2094  1  0.446500  0.001600  0.203400  1
  O  O2095  1  0.151500  0.498400  0.296600  1
  O  O2096  1  0.551900  0.001600  0.296600  1
  O  O2097  1  0.510400  0.520000  0.817200  1
  O  O2098  1  0.672400  0.980000  0.817200  1
  O  O2099  1  0.969600  0.520000  0.682800  1
  O  O2100  1  0.347600  0.980000  0.682800  1
  O  O2101  1  0.489600  0.480000  0.182800  1
  O  O2102  1  0.327600  0.020000  0.182800  1
  O  O2103  1  0.030400  0.480000  0.317200  1
  O  O2104  1  0.652400  0.020000  0.317200  1
  O  O2105  1  0.959540  0.803100  0.966020  1
  O  O2106  1  0.074440  0.696900  0.966020  1
  O  O2107  1  0.237360  0.803100  0.533980  1
  O  O2108  1  0.228660  0.696900  0.533980  1
  O  O2109  1  0.040460  0.196900  0.033980  1
  O  O2110  1  0.925560  0.303100  0.033980  1
  O  O2111  1  0.762640  0.196900  0.466020  1
  O  O2112  1  0.771340  0.303100  0.466020  1
  O  O2113  1  0.989200  0.748800  0.005000  1
  O  O2114  1  0.005800  0.751200  0.005000  1
  O  O2115  1  0.262000  0.748800  0.495000  1
  O  O2116  1  0.243000  0.751200  0.495000  1
  O  O2117  1  0.010800  0.251200  0.995000  1
  O  O2118  1  0.994200  0.248800  0.995000  1
  O  O2119  1  0.738000  0.251200  0.505000  1
  O  O2120  1  0.757000  0.248800  0.505000  1
  O  O2121  1  0.923080  0.738580  0.964660  1
  O  O2122  1  0.112260  0.761420  0.964660  1
  O  O2123  1  0.338340  0.738580  0.535340  1
  O  O2124  1  0.126320  0.761420  0.535340  1
  O  O2125  1  0.076920  0.261420  0.035340  1
  O  O2126  1  0.887740  0.238580  0.035340  1
  O  O2127  1  0.661660  0.261420  0.464660  1
  O  O2128  1  0.873680  0.238580  0.464660  1
  P  P2129  1  0.509240  0.750000  0.981520  1
  P  P2130  1  0.740760  0.750000  0.518480  1
  P  P2131  1  0.490760  0.250000  0.018480  1
  P  P2132  1  0.259240  0.250000  0.481520  1
  P  P2133  1  0.970700  0.058600  0.750000  1
  P  P2134  1  0.279300  0.441400  0.750000  1
  P  P2135  1  0.029300  0.941400  0.250000  1
  P  P2136  1  0.720700  0.558600  0.250000  1
  P  P2137  1  0.915850  0.635680  0.031200  1.0
  P  P2138  1  0.052950  0.864320  0.031200  1.0
  P  P2139  1  0.448470  0.635680  0.468800  1.0
  P  P2140  1  0.082730  0.864320  0.468800  1.0
  P  P2141  1  0.084150  0.364320  0.968800  1.0
  P  P2142  1  0.947050  0.135680  0.968800  1.0
  P  P2143  1  0.551530  0.364320  0.531200  1.0
  P  P2144  1  0.917270  0.135680  0.531200  1.0
  P  P2145  1  0.802360  0.817200  0.890460  1.0
  P  P2146  1  0.307180  0.682800  0.890460  1.0
  P  P2147  1  0.380440  0.817200  0.609540  1.0
  P  P2148  1  0.010020  0.682800  0.609540  1.0
  P  P2149  1  0.197640  0.182800  0.109540  1.0
  P  P2150  1  0.692820  0.317200  0.109540  1.0
  P  P2151  1  0.619560  0.182800  0.390460  1.0
  P  P2152  1  0.989980  0.317200  0.390460  1.0
  S  S2153  1  0.829620  0.004240  0.885120  1
  S  S2154  1  0.285260  0.495760  0.885120  1
  S  S2155  1  0.166140  0.004240  0.614880  1
  S  S2156  1  0.218980  0.495760  0.614880  1
  S  S2157  1  0.170380  0.995760  0.114880  1
  S  S2158  1  0.714740  0.504240  0.114880  1
  S  S2159  1  0.833860  0.995760  0.385120  1
  S  S2160  1  0.781020  0.504240  0.385120  1
  S  S2161  1  0.573200  0.533400  0.791200  1
  S  S2162  1  0.635600  0.966600  0.791200  1
  S  S2163  1  0.893400  0.533400  0.708800  1
  S  S2164  1  0.397800  0.966600  0.708800  1
  S  S2165  1  0.426800  0.466600  0.208800  1
  S  S2166  1  0.364400  0.033400  0.208800  1
  S  S2167  1  0.106600  0.466600  0.291200  1
  S  S2168  1  0.602200  0.033400  0.291200  1
  S  S2169  1  0.783680  0.526600  0.965440  1
  S  S2170  1  0.250880  0.973400  0.965440  1
  S  S2171  1  0.689720  0.526600  0.534560  1
  S  S2172  1  0.775720  0.973400  0.534560  1
  S  S2173  1  0.216320  0.473400  0.034560  1
  S  S2174  1  0.749120  0.026600  0.034560  1
  S  S2175  1  0.310280  0.473400  0.465440  1
  S  S2176  1  0.224280  0.026600  0.465440  1
  S  S2177  1  0.804150  0.016660  0.901040  1
  S  S2178  1  0.294810  0.483340  0.901040  1
  S  S2179  1  0.179190  0.016660  0.598960  1
  S  S2180  1  0.221850  0.483340  0.598960  1
  S  S2181  1  0.195850  0.983340  0.098960  1
  S  S2182  1  0.705190  0.516660  0.098960  1
  S  S2183  1  0.820810  0.983340  0.401040  1
  S  S2184  1  0.778150  0.516660  0.401040  1
  S  S2185  1  0.790800  0.517800  0.961000  1
  S  S2186  1  0.248200  0.982200  0.961000  1
  S  S2187  1  0.691400  0.517800  0.539000  1
  S  S2188  1  0.769600  0.982200  0.539000  1
  S  S2189  1  0.209200  0.482200  0.039000  1
  S  S2190  1  0.751800  0.017800  0.039000  1
  S  S2191  1  0.308600  0.482200  0.461000  1
  S  S2192  1  0.230400  0.017800  0.461000  1
  S  S2193  1  0.575500  0.559000  0.789000  1
  S  S2194  1  0.635500  0.941000  0.789000  1
  S  S2195  1  0.865500  0.559000  0.711000  1
  S  S2196  1  0.423500  0.941000  0.711000  1
  S  S2197  1  0.424500  0.441000  0.211000  1
  S  S2198  1  0.364500  0.059000  0.211000  1
  S  S2199  1  0.134500  0.441000  0.289000  1
  S  S2200  1  0.576500  0.059000  0.289000  1
  S  S2201  1  0.579400  0.528600  0.807600  1
  S  S2202  1  0.613000  0.971400  0.807600  1
  S  S2203  1  0.892000  0.528600  0.692400  1
  S  S2204  1  0.415600  0.971400  0.692400  1
  S  S2205  1  0.420600  0.471400  0.192400  1
  S  S2206  1  0.387000  0.028600  0.192400  1
  S  S2207  1  0.108000  0.471400  0.307600  1
  S  S2208  1  0.584400  0.028600  0.307600  1
  S  S2209  1  0.972840  0.759540  0.974180  1
  S  S2210  1  0.052980  0.740460  0.974180  1
  S  S2211  1  0.267620  0.759540  0.525820  1
  S  S2212  1  0.206560  0.740460  0.525820  1
  S  S2213  1  0.027160  0.240460  0.025820  1
  S  S2214  1  0.947020  0.259540  0.025820  1
  S  S2215  1  0.732380  0.240460  0.474180  1
  S  S2216  1  0.793440  0.259540  0.474180  1
