# generated using pymatgen
data_Cu6BH2C215N55(OF2)2
_symmetry_space_group_name_H-M   'P 1'
_cell_length_a   24.84000000
_cell_length_b   28.15901959
_cell_length_c   48.62900000
_cell_angle_alpha   84.73712012
_cell_angle_beta   77.99700000
_cell_angle_gamma   63.82805263
_symmetry_Int_Tables_number   1
_chemical_formula_structural   Cu6BH2C215N55(OF2)2
_chemical_formula_sum   'Cu24 B4 H8 C860 N220 O8 F16'
_cell_volume   29859.74559480
_cell_formula_units_Z   4
loop_
 _symmetry_equiv_pos_site_id
 _symmetry_equiv_pos_as_xyz
  1  'x, y, z'
loop_
 _atom_site_type_symbol
 _atom_site_label
 _atom_site_symmetry_multiplicity
 _atom_site_fract_x
 _atom_site_fract_y
 _atom_site_fract_z
 _atom_site_occupancy
  B  B1  1  0.698000  0.802800  0.695500  1
  B  B2  1  0.500800  0.197200  0.195500  1
  B  B3  1  0.302000  0.197200  0.304500  1
  B  B4  1  0.499200  0.802800  0.804500  1
  C  C5  1  0.579100  0.118400  0.474400  1
  C  C6  1  0.697500  0.881600  0.974400  1
  C  C7  1  0.420900  0.881600  0.525600  1
  C  C8  1  0.302500  0.118400  0.025600  1
  C  C9  1  0.353430  0.010140  0.965140  1.0
  C  C10  1  0.363570  0.989860  0.465140  1.0
  C  C11  1  0.646570  0.989860  0.034860  1.0
  C  C12  1  0.636430  0.010140  0.534860  1.0
  C  C13  1  0.217100  0.077800  0.935300  1.0
  C  C14  1  0.294900  0.922200  0.435300  1.0
  C  C15  1  0.782900  0.922200  0.064700  1.0
  C  C16  1  0.705100  0.077800  0.564700  1.0
  C  C17  1  0.243000  0.047800  0.956500  1.0
  C  C18  1  0.290800  0.952200  0.456500  1.0
  C  C19  1  0.757000  0.952200  0.043500  1.0
  C  C20  1  0.709200  0.047800  0.543500  1.0
  C  C21  1  0.305490  0.038020  0.949200  1.0
  C  C22  1  0.343510  0.961980  0.449200  1.0
  C  C23  1  0.694510  0.961980  0.050800  1.0
  C  C24  1  0.656490  0.038020  0.550800  1.0
  C  C25  1  0.254100  0.122600  0.892400  1.0
  C  C26  1  0.376700  0.877400  0.392400  1.0
  C  C27  1  0.745900  0.877400  0.107600  1.0
  C  C28  1  0.623300  0.122600  0.607600  1.0
  C  C29  1  0.280200  0.094200  0.864300  1.0
  C  C30  1  0.374400  0.905800  0.364300  1.0
  C  C31  1  0.719800  0.905800  0.135700  1.0
  C  C32  1  0.625600  0.094200  0.635700  1.0
  C  C33  1  0.293700  0.119000  0.841500  1.0
  C  C34  1  0.412700  0.881000  0.341500  1.0
  C  C35  1  0.706300  0.881000  0.158500  1.0
  C  C36  1  0.587300  0.119000  0.658500  1.0
  C  C37  1  0.339060  0.022480  0.783700  1.0
  C  C38  1  0.361540  0.977520  0.283700  1.0
  C  C39  1  0.660940  0.977520  0.216300  1.0
  C  C40  1  0.638460  0.022480  0.716300  1.0
  C  C41  1  0.359180  0.926640  0.784800  1.0
  C  C42  1  0.285820  0.073360  0.284800  1.0
  C  C43  1  0.640820  0.073360  0.215200  1.0
  C  C44  1  0.714180  0.926640  0.715200  1.0
  C  C45  1  0.328130  0.899340  0.782860  1.0
  C  C46  1  0.227470  0.100660  0.282860  1.0
  C  C47  1  0.671870  0.100660  0.217140  1.0
  C  C48  1  0.772530  0.899340  0.717140  1.0
  C  C49  1  0.270370  0.938660  0.777540  1.0
  C  C50  1  0.209030  0.061340  0.277540  1.0
  C  C51  1  0.729630  0.061340  0.222460  1.0
  C  C52  1  0.790970  0.938660  0.722460  1.0
  C  C53  1  0.218200  0.933000  0.773070  1.0
  C  C54  1  0.151200  0.067000  0.273070  1.0
  C  C55  1  0.781800  0.067000  0.226930  1.0
  C  C56  1  0.848800  0.933000  0.726930  1.0
  C  C57  1  0.180860  0.135080  0.795860  1.0
  C  C58  1  0.315940  0.864920  0.295860  1.0
  C  C59  1  0.819140  0.864920  0.204140  1.0
  C  C60  1  0.684060  0.135080  0.704140  1.0
  C  C61  1  0.106100  0.097400  0.859500  1.0
  C  C62  1  0.203500  0.902600  0.359500  1.0
  C  C63  1  0.893900  0.902600  0.140500  1.0
  C  C64  1  0.796500  0.097400  0.640500  1.0
  C  C65  1  0.130900  0.129200  0.847650  1.0
  C  C66  1  0.260100  0.870800  0.347650  1.0
  C  C67  1  0.869100  0.870800  0.152350  1.0
  C  C68  1  0.739900  0.129200  0.652350  1.0
  C  C69  1  0.153440  0.112920  0.819250  1.0
  C  C70  1  0.266360  0.887080  0.319250  1.0
  C  C71  1  0.846560  0.887080  0.180750  1.0
  C  C72  1  0.733640  0.112920  0.680750  1.0
  C  C73  1  0.090000  0.024400  0.843800  1.0
  C  C74  1  0.114400  0.975600  0.343800  1.0
  C  C75  1  0.910000  0.975600  0.156200  1.0
  C  C76  1  0.885600  0.024400  0.656200  1.0
  C  C77  1  0.139520  0.965960  0.845600  1.0
  C  C78  1  0.105480  0.034040  0.345600  1.0
  C  C79  1  0.860480  0.034040  0.154400  1.0
  C  C80  1  0.894520  0.965960  0.654400  1.0
  C  C81  1  0.127500  0.924600  0.840600  1.0
  C  C82  1  0.052100  0.075400  0.340600  1.0
  C  C83  1  0.872500  0.075400  0.159400  1.0
  C  C84  1  0.947900  0.924600  0.659400  1.0
  C  C85  1  0.268830  0.806340  0.853240  1.0
  C  C86  1  0.075170  0.193660  0.353240  1.0
  C  C87  1  0.731170  0.193660  0.146760  1.0
  C  C88  1  0.924830  0.806340  0.646760  1.0
  C  C89  1  0.370760  0.790280  0.861790  1.0
  C  C90  1  0.161040  0.209720  0.361790  1.0
  C  C91  1  0.629240  0.209720  0.138210  1.0
  C  C92  1  0.838960  0.790280  0.638210  1.0
  C  C93  1  0.397430  0.783340  0.884360  1.0
  C  C94  1  0.180770  0.216660  0.384360  1.0
  C  C95  1  0.602570  0.216660  0.115640  1.0
  C  C96  1  0.819230  0.783340  0.615640  1.0
  C  C97  1  0.353200  0.783000  0.907860  1.0
  C  C98  1  0.136200  0.217000  0.407860  1.0
  C  C99  1  0.646800  0.217000  0.092140  1.0
  C  C100  1  0.863800  0.783000  0.592140  1.0
  C  C101  1  0.354260  0.774880  0.937510  1.0
  C  C102  1  0.129140  0.225120  0.437510  1.0
  C  C103  1  0.645740  0.225120  0.062490  1.0
  C  C104  1  0.870860  0.774880  0.562490  1.0
  C  C105  1  0.124600  0.840400  0.909400  1.0
  C  C106  1  0.965000  0.159600  0.409400  1.0
  C  C107  1  0.875400  0.159600  0.090600  1.0
  C  C108  1  0.035000  0.840400  0.590600  1.0
  C  C109  1  0.116200  0.958000  0.936700  1.0
  C  C110  1  0.074200  0.042000  0.436700  1.0
  C  C111  1  0.883800  0.042000  0.063300  1.0
  C  C112  1  0.925800  0.958000  0.563300  1.0
  C  C113  1  0.092550  0.938700  0.921200  1.0
  C  C114  1  0.031250  0.061300  0.421200  1.0
  C  C115  1  0.907450  0.061300  0.078800  1.0
  C  C116  1  0.968750  0.938700  0.578800  1.0
  C  C117  1  0.128700  0.882600  0.921760  1.0
  C  C118  1  0.011300  0.117400  0.421760  1.0
  C  C119  1  0.871300  0.117400  0.078240  1.0
  C  C120  1  0.988700  0.882600  0.578240  1.0
  C  C121  1  0.199200  0.921000  0.964600  1.0
  C  C122  1  0.120200  0.079000  0.464600  1.0
  C  C123  1  0.800800  0.079000  0.035400  1.0
  C  C124  1  0.879800  0.921000  0.535400  1.0
  C  C125  1  0.262000  0.914800  0.951500  1.0
  C  C126  1  0.176800  0.085200  0.451500  1.0
  C  C127  1  0.738000  0.085200  0.048500  1.0
  C  C128  1  0.823200  0.914800  0.548500  1.0
  C  C129  1  0.309750  0.899500  0.965900  1.0
  C  C130  1  0.209250  0.100500  0.465900  1.0
  C  C131  1  0.690250  0.100500  0.034100  1.0
  C  C132  1  0.790750  0.899500  0.534100  1.0
  C  C133  1  0.444780  0.896040  0.912270  1.0
  C  C134  1  0.340820  0.103960  0.412270  1.0
  C  C135  1  0.555220  0.103960  0.087730  1.0
  C  C136  1  0.659180  0.896040  0.587730  1.0
  C  C137  1  0.440860  0.042880  0.853030  1.0
  C  C138  1  0.483740  0.957120  0.353030  1.0
  C  C139  1  0.559140  0.957120  0.146970  1.0
  C  C140  1  0.516260  0.042880  0.646970  1.0
  C  C141  1  0.493420  0.695360  0.576380  1.0
  C  C142  1  0.188780  0.304640  0.076380  1.0
  C  C143  1  0.506580  0.304640  0.423620  1.0
  C  C144  1  0.811220  0.695360  0.923620  1.0
  C  C145  1  0.520880  0.666640  0.646860  1.0
  C  C146  1  0.187520  0.333360  0.146860  1.0
  C  C147  1  0.479120  0.333360  0.353140  1.0
  C  C148  1  0.812480  0.666640  0.853140  1.0
  C  C149  1  0.541350  0.678900  0.620630  1.0
  C  C150  1  0.220250  0.321100  0.120630  1.0
  C  C151  1  0.458650  0.321100  0.379370  1.0
  C  C152  1  0.779750  0.678900  0.879370  1.0
  C  C153  1  0.496920  0.682760  0.605330  1.0
  C  C154  1  0.179680  0.317240  0.105330  1.0
  C  C155  1  0.503080  0.317240  0.394670  1.0
  C  C156  1  0.820320  0.682760  0.894670  1.0
  C  C157  1  0.427800  0.653400  0.671600  1.0
  C  C158  1  0.081200  0.346600  0.171600  1.0
  C  C159  1  0.572200  0.346600  0.328400  1.0
  C  C160  1  0.918800  0.653400  0.828400  1.0
  C  C161  1  0.434500  0.596400  0.673700  1.0
  C  C162  1  0.030900  0.403600  0.173700  1.0
  C  C163  1  0.565500  0.403600  0.326300  1.0
  C  C164  1  0.969100  0.596400  0.826300  1.0
  C  C165  1  0.385700  0.591800  0.687400  1.0
  C  C166  1  0.977500  0.408200  0.187400  1.0
  C  C167  1  0.614300  0.408200  0.312600  1.0
  C  C168  1  0.022500  0.591800  0.812600  1.0
  C  C169  1  0.441600  0.439400  0.686000  1.0
  C  C170  1  0.881000  0.560600  0.186000  1.0
  C  C171  1  0.558400  0.560600  0.314000  1.0
  C  C172  1  0.119000  0.439400  0.814000  1.0
  C  C173  1  0.539500  0.359400  0.669600  1.0
  C  C174  1  0.898900  0.640600  0.169600  1.0
  C  C175  1  0.460500  0.640600  0.330400  1.0
  C  C176  1  0.101100  0.359400  0.830400  1.0
  C  C177  1  0.587000  0.329000  0.680900  1.0
  C  C178  1  0.916000  0.671000  0.180900  1.0
  C  C179  1  0.413000  0.671000  0.319100  1.0
  C  C180  1  0.084000  0.329000  0.819100  1.0
  C  C181  1  0.572700  0.351400  0.708500  1.0
  C  C182  1  0.924100  0.648600  0.208500  1.0
  C  C183  1  0.427300  0.648600  0.291500  1.0
  C  C184  1  0.075900  0.351400  0.791500  1.0
  C  C185  1  0.606700  0.331400  0.730000  1.0
  C  C186  1  0.938100  0.668600  0.230000  1.0
  C  C187  1  0.393300  0.668600  0.270000  1.0
  C  C188  1  0.061900  0.331400  0.770000  1.0
  C  C189  1  0.416980  0.530440  0.756300  1.0
  C  C190  1  0.947420  0.469560  0.256300  1.0
  C  C191  1  0.583020  0.469560  0.243700  1.0
  C  C192  1  0.052580  0.530440  0.743700  1.0
  C  C193  1  0.361800  0.575400  0.757800  1.0
  C  C194  1  0.937200  0.424600  0.257800  1.0
  C  C195  1  0.638200  0.424600  0.242200  1.0
  C  C196  1  0.062800  0.575400  0.742200  1.0
  C  C197  1  0.309700  0.569400  0.763400  1.0
  C  C198  1  0.879100  0.430600  0.263400  1.0
  C  C199  1  0.690300  0.430600  0.236600  1.0
  C  C200  1  0.120900  0.569400  0.736600  1.0
  C  C201  1  0.309100  0.520200  0.766100  1.0
  C  C202  1  0.829300  0.479800  0.266100  1.0
  C  C203  1  0.690900  0.479800  0.233900  1.0
  C  C204  1  0.170700  0.520200  0.733900  1.0
  C  C205  1  0.366000  0.475000  0.765100  1.0
  C  C206  1  0.841000  0.525000  0.265100  1.0
  C  C207  1  0.634000  0.525000  0.234900  1.0
  C  C208  1  0.159000  0.475000  0.734900  1.0
  C  C209  1  0.553400  0.549600  0.745300  1.0
  C  C210  1  0.103000  0.450400  0.245300  1.0
  C  C211  1  0.446600  0.450400  0.254700  1.0
  C  C212  1  0.897000  0.549600  0.754700  1.0
  C  C213  1  0.492560  0.572880  0.749000  1.0
  C  C214  1  0.065440  0.427120  0.249000  1.0
  C  C215  1  0.507440  0.427120  0.251000  1.0
  C  C216  1  0.934560  0.572880  0.751000  1.0
  C  C217  1  0.474990  0.530420  0.751510  1.0
  C  C218  1  0.005410  0.469580  0.251510  1.0
  C  C219  1  0.525010  0.469580  0.248490  1.0
  C  C220  1  0.994590  0.530420  0.748490  1.0
  C  C221  1  0.633800  0.458200  0.744700  1.0
  C  C222  1  0.092000  0.541800  0.244700  1.0
  C  C223  1  0.366200  0.541800  0.255300  1.0
  C  C224  1  0.908000  0.458200  0.755300  1.0
  C  C225  1  0.662300  0.427600  0.715400  1.0
  C  C226  1  0.089900  0.572400  0.215400  1.0
  C  C227  1  0.337700  0.572400  0.284600  1.0
  C  C228  1  0.910100  0.427600  0.784600  1.0
  C  C229  1  0.706900  0.382600  0.713700  1.0
  C  C230  1  0.089500  0.617400  0.213700  1.0
  C  C231  1  0.293100  0.617400  0.286300  1.0
  C  C232  1  0.910500  0.382600  0.786300  1.0
  C  C233  1  0.930400  0.339600  0.861000  1.0
  C  C234  1  0.270000  0.660400  0.361000  1.0
  C  C235  1  0.069600  0.660400  0.139000  1.0
  C  C236  1  0.730000  0.339600  0.639000  1.0
  C  C237  1  0.964600  0.371000  0.897900  1.0
  C  C238  1  0.335600  0.629000  0.397900  1.0
  C  C239  1  0.035400  0.629000  0.102100  1.0
  C  C240  1  0.664400  0.371000  0.602100  1.0
  C  C241  1  0.936500  0.398600  0.921400  1.0
  C  C242  1  0.335100  0.601400  0.421400  1.0
  C  C243  1  0.063500  0.601400  0.078600  1.0
  C  C244  1  0.664900  0.398600  0.578600  1.0
  C  C245  1  0.873580  0.412040  0.924180  1.0
  C  C246  1  0.285620  0.587960  0.424180  1.0
  C  C247  1  0.126420  0.587960  0.075820  1.0
  C  C248  1  0.714380  0.412040  0.575820  1.0
  C  C249  1  0.822590  0.436420  0.945900  1.0
  C  C250  1  0.259010  0.563580  0.445900  1.0
  C  C251  1  0.177410  0.563580  0.054100  1.0
  C  C252  1  0.740990  0.436420  0.554100  1.0
  C  C253  1  0.759890  0.434020  0.844350  1.0
  C  C254  1  0.193910  0.565980  0.344350  1.0
  C  C255  1  0.240110  0.565980  0.155650  1.0
  C  C256  1  0.806090  0.434020  0.655650  1.0
  C  C257  1  0.725790  0.569020  0.858370  1.0
  C  C258  1  0.294810  0.430980  0.358370  1.0
  C  C259  1  0.274210  0.430980  0.141630  1.0
  C  C260  1  0.705190  0.569020  0.641630  1.0
  C  C261  1  0.737740  0.533320  0.838650  1.0
  C  C262  1  0.271060  0.466680  0.338650  1.0
  C  C263  1  0.262260  0.466680  0.161350  1.0
  C  C264  1  0.728940  0.533320  0.661350  1.0
  C  C265  1  0.752450  0.484100  0.852960  1.0
  C  C266  1  0.236550  0.515900  0.352960  1.0
  C  C267  1  0.247550  0.515900  0.147040  1.0
  C  C268  1  0.763450  0.484100  0.647040  1.0
  C  C269  1  0.723890  0.567620  0.910180  1.0
  C  C270  1  0.291510  0.432380  0.410180  1.0
  C  C271  1  0.276110  0.432380  0.089820  1.0
  C  C272  1  0.708490  0.567620  0.589820  1.0
  C  C273  1  0.782510  0.561380  0.918260  1.0
  C  C274  1  0.343890  0.438620  0.418260  1.0
  C  C275  1  0.217490  0.438620  0.081740  1.0
  C  C276  1  0.656110  0.561380  0.581740  1.0
  C  C277  1  0.777240  0.579720  0.944400  1.0
  C  C278  1  0.356960  0.420280  0.444400  1.0
  C  C279  1  0.222760  0.420280  0.055600  1.0
  C  C280  1  0.643040  0.579720  0.555600  1.0
  C  C281  1  0.507900  0.551000  0.554400  1.0
  C  C282  1  0.058900  0.449000  0.054400  1.0
  C  C283  1  0.492100  0.449000  0.445600  1.0
  C  C284  1  0.941100  0.551000  0.945600  1.0
  C  C285  1  0.456900  0.503800  0.586500  1.0
  C  C286  1  0.960700  0.496200  0.086500  1.0
  C  C287  1  0.543100  0.496200  0.413500  1.0
  C  C288  1  0.039300  0.503800  0.913500  1.0
  C  C289  1  0.384690  0.574020  0.609960  1.0
  C  C290  1  0.958710  0.425980  0.109960  1.0
  C  C291  1  0.615310  0.425980  0.390040  1.0
  C  C292  1  0.041290  0.574020  0.890040  1.0
  C  C293  1  0.333740  0.610720  0.628590  1.0
  C  C294  1  0.944460  0.389280  0.128590  1.0
  C  C295  1  0.666260  0.389280  0.371410  1.0
  C  C296  1  0.055540  0.610720  0.871410  1.0
  C  C297  1  0.471260  0.100280  0.934560  1.0
  C  C298  1  0.571540  0.899720  0.434560  1.0
  C  C299  1  0.528740  0.899720  0.065440  1.0
  C  C300  1  0.428460  0.100280  0.565440  1.0
  C  C301  1  0.621640  0.002120  0.904980  1.0
  C  C302  1  0.623760  0.997880  0.404980  1.0
  C  C303  1  0.378360  0.997880  0.095020  1.0
  C  C304  1  0.376240  0.002120  0.595020  1.0
  C  C305  1  0.588550  0.048900  0.917880  1.0
  C  C306  1  0.637450  0.951100  0.417880  1.0
  C  C307  1  0.411450  0.951100  0.082120  1.0
  C  C308  1  0.362550  0.048900  0.582120  1.0
  C  C309  1  0.526790  0.058020  0.921600  1.0
  C  C310  1  0.584810  0.941980  0.421600  1.0
  C  C311  1  0.473210  0.941980  0.078400  1.0
  C  C312  1  0.415190  0.058020  0.578400  1.0
  C  C313  1  0.280560  0.764280  0.577530  1.0
  C  C314  1  0.044840  0.235720  0.077530  1.0
  C  C315  1  0.719440  0.235720  0.422470  1.0
  C  C316  1  0.955160  0.764280  0.922470  1.0
  C  C317  1  0.235070  0.786660  0.560950  1.0
  C  C318  1  0.021730  0.213340  0.060950  1.0
  C  C319  1  0.764930  0.213340  0.439050  1.0
  C  C320  1  0.978270  0.786660  0.939050  1.0
  C  C321  1  0.226350  0.752900  0.545600  1.0
  C  C322  1  0.979250  0.247100  0.045600  1.0
  C  C323  1  0.773650  0.247100  0.454400  1.0
  C  C324  1  0.020750  0.752900  0.954400  1.0
  C  C325  1  0.261200  0.699800  0.545600  1.0
  C  C326  1  0.961000  0.300200  0.045600  1.0
  C  C327  1  0.738800  0.300200  0.454400  1.0
  C  C328  1  0.039000  0.699800  0.954400  1.0
  C  C329  1  0.306830  0.680340  0.561640  1.0
  C  C330  1  0.987170  0.319660  0.061640  1.0
  C  C331  1  0.693170  0.319660  0.438360  1.0
  C  C332  1  0.012830  0.680340  0.938360  1.0
  C  C333  1  0.291440  0.862320  0.616500  1.0
  C  C334  1  0.153760  0.137680  0.116500  1.0
  C  C335  1  0.708560  0.137680  0.383500  1.0
  C  C336  1  0.846240  0.862320  0.883500  1.0
  C  C337  1  0.264710  0.851780  0.597300  1.0
  C  C338  1  0.116490  0.148220  0.097300  1.0
  C  C339  1  0.735290  0.148220  0.402700  1.0
  C  C340  1  0.883510  0.851780  0.902700  1.0
  C  C341  1  0.292580  0.796440  0.594450  1.0
  C  C342  1  0.089020  0.203560  0.094450  1.0
  C  C343  1  0.707420  0.203560  0.405550  1.0
  C  C344  1  0.910980  0.796440  0.905550  1.0
  C  C345  1  0.114420  0.098760  0.724170  1.0
  C  C346  1  0.213180  0.901240  0.224170  1.0
  C  C347  1  0.885580  0.901240  0.275830  1.0
  C  C348  1  0.786820  0.098760  0.775830  1.0
  C  C349  1  0.242800  0.018800  0.672810  1.0
  C  C350  1  0.261600  0.981200  0.172810  1.0
  C  C351  1  0.757200  0.981200  0.327190  1.0
  C  C352  1  0.738400  0.018800  0.827190  1.0
  C  C353  1  0.185310  0.056180  0.677720  1.0
  C  C354  1  0.241490  0.943820  0.177720  1.0
  C  C355  1  0.814690  0.943820  0.322280  1.0
  C  C356  1  0.758510  0.056180  0.822280  1.0
  C  C357  1  0.169480  0.064440  0.707200  1.0
  C  C358  1  0.233920  0.935560  0.207200  1.0
  C  C359  1  0.830520  0.935560  0.292800  1.0
  C  C360  1  0.766080  0.064440  0.792800  1.0
  C  C361  1  0.321840  0.962120  0.702880  1.0
  C  C362  1  0.283960  0.037880  0.202880  1.0
  C  C363  1  0.678160  0.037880  0.297120  1.0
  C  C364  1  0.716040  0.962120  0.797120  1.0
  C  C365  1  0.374580  0.806040  0.643700  1.0
  C  C366  1  0.180620  0.193960  0.143700  1.0
  C  C367  1  0.625420  0.193960  0.356300  1.0
  C  C368  1  0.819380  0.806040  0.856300  1.0
  C  C369  1  0.431200  0.913400  0.633260  1.0
  C  C370  1  0.344600  0.086600  0.133260  1.0
  C  C371  1  0.568800  0.086600  0.366740  1.0
  C  C372  1  0.655400  0.913400  0.866740  1.0
  C  C373  1  0.421010  0.870580  0.628620  1.0
  C  C374  1  0.291590  0.129420  0.128620  1.0
  C  C375  1  0.578990  0.129420  0.371380  1.0
  C  C376  1  0.708410  0.870580  0.871380  1.0
  C  C377  1  0.382470  0.854860  0.648990  1.0
  C  C378  1  0.237330  0.145140  0.148990  1.0
  C  C379  1  0.617530  0.145140  0.351010  1.0
  C  C380  1  0.762670  0.854860  0.851010  1.0
  C  C381  1  0.347760  0.886280  0.671940  1.0
  C  C382  1  0.234040  0.113720  0.171940  1.0
  C  C383  1  0.652240  0.113720  0.328060  1.0
  C  C384  1  0.765960  0.886280  0.828060  1.0
  C  C385  1  0.359040  0.928720  0.677440  1.0
  C  C386  1  0.287760  0.071280  0.177440  1.0
  C  C387  1  0.640960  0.071280  0.322560  1.0
  C  C388  1  0.712240  0.928720  0.822560  1.0
  C  C389  1  0.398020  0.943960  0.657970  1.0
  C  C390  1  0.341980  0.056040  0.157970  1.0
  C  C391  1  0.601980  0.056040  0.342030  1.0
  C  C392  1  0.658020  0.943960  0.842030  1.0
  C  C393  1  0.452790  0.838620  0.601920  1.0
  C  C394  1  0.291410  0.161380  0.101920  1.0
  C  C395  1  0.547210  0.161380  0.398080  1.0
  C  C396  1  0.708590  0.838620  0.898080  1.0
  C  C397  1  0.301200  0.872600  0.693600  1.0
  C  C398  1  0.173800  0.127400  0.193600  1.0
  C  C399  1  0.698800  0.127400  0.306400  1.0
  C  C400  1  0.826200  0.872600  0.806400  1.0
  C  C401  1  0.407770  0.991460  0.663400  1.0
  C  C402  1  0.399230  0.008540  0.163400  1.0
  C  C403  1  0.592230  0.008540  0.336600  1.0
  C  C404  1  0.600770  0.991460  0.836600  1.0
  C  C405  1  0.213400  0.699000  0.966490  1.0
  C  C406  1  0.912400  0.301000  0.466490  1.0
  C  C407  1  0.786600  0.301000  0.033510  1.0
  C  C408  1  0.087600  0.699000  0.533510  1.0
  C  C409  1  0.182900  0.678400  0.988520  1.0
  C  C410  1  0.861300  0.321600  0.488520  1.0
  C  C411  1  0.817100  0.321600  0.011480  1.0
  C  C412  1  0.138700  0.678400  0.511480  1.0
  C  C413  1  0.132900  0.713000  0.006860  1.0
  C  C414  1  0.845900  0.287000  0.506860  1.0
  C  C415  1  0.867100  0.287000  0.993140  1.0
  C  C416  1  0.154100  0.713000  0.493140  1.0
  C  C417  1  0.115220  0.766360  0.004640  1.0
  C  C418  1  0.881580  0.233640  0.504640  1.0
  C  C419  1  0.884780  0.233640  0.995360  1.0
  C  C420  1  0.118420  0.766360  0.495360  1.0
  C  C421  1  0.147000  0.784200  0.982840  1.0
  C  C422  1  0.931200  0.215800  0.482840  1.0
  C  C423  1  0.853000  0.215800  0.017160  1.0
  C  C424  1  0.068800  0.784200  0.517160  1.0
  C  C425  1  0.338230  0.599940  0.920290  1.0
  C  C426  1  0.938170  0.400060  0.420290  1.0
  C  C427  1  0.661770  0.400060  0.079710  1.0
  C  C428  1  0.061830  0.599940  0.579710  1.0
  C  C429  1  0.293930  0.609940  0.943410  1.0
  C  C430  1  0.903870  0.390060  0.443410  1.0
  C  C431  1  0.706070  0.390060  0.056590  1.0
  C  C432  1  0.096130  0.609940  0.556590  1.0
  C  C433  1  0.264760  0.665680  0.946290  1.0
  C  C434  1  0.930440  0.334320  0.446290  1.0
  C  C435  1  0.735240  0.334320  0.053710  1.0
  C  C436  1  0.069560  0.665680  0.553710  1.0
  C  C437  1  0.463870  0.360060  0.803630  1.0
  C  C438  1  0.823930  0.639940  0.303630  1.0
  C  C439  1  0.536130  0.639940  0.196370  1.0
  C  C440  1  0.176070  0.360060  0.696370  1.0
  C  C441  1  0.450800  0.318600  0.816400  1.0
  C  C442  1  0.769400  0.681400  0.316400  1.0
  C  C443  1  0.549200  0.681400  0.183600  1.0
  C  C444  1  0.230600  0.318600  0.683600  1.0
  C  C445  1  0.440400  0.288400  0.799200  1.0
  C  C446  1  0.728800  0.711600  0.299200  1.0
  C  C447  1  0.559600  0.711600  0.200800  1.0
  C  C448  1  0.271200  0.288400  0.700800  1.0
  C  C449  1  0.447140  0.294520  0.771000  1.0
  C  C450  1  0.741660  0.705480  0.271000  1.0
  C  C451  1  0.552860  0.705480  0.229000  1.0
  C  C452  1  0.258340  0.294520  0.729000  1.0
  C  C453  1  0.461730  0.335140  0.759880  1.0
  C  C454  1  0.796870  0.664860  0.259880  1.0
  C  C455  1  0.538270  0.664860  0.240120  1.0
  C  C456  1  0.203130  0.335140  0.740120  1.0
  C  C457  1  0.471730  0.444540  0.852800  1.0
  C  C458  1  0.916270  0.555460  0.352800  1.0
  C  C459  1  0.528270  0.555460  0.147200  1.0
  C  C460  1  0.083730  0.444540  0.647200  1.0
  C  C461  1  0.460200  0.402800  0.849570  1.0
  C  C462  1  0.863000  0.597200  0.349570  1.0
  C  C463  1  0.539800  0.597200  0.150430  1.0
  C  C464  1  0.137000  0.402800  0.650430  1.0
  C  C465  1  0.469480  0.397240  0.819950  1.0
  C  C466  1  0.866720  0.602760  0.319950  1.0
  C  C467  1  0.530520  0.602760  0.180050  1.0
  C  C468  1  0.133280  0.397240  0.680050  1.0
  C  C469  1  0.554830  0.467340  0.926300  1.0
  C  C470  1  0.022170  0.532660  0.426300  1.0
  C  C471  1  0.445170  0.532660  0.073700  1.0
  C  C472  1  0.977830  0.467340  0.573700  1.0
  C  C473  1  0.585550  0.416900  0.934600  1.0
  C  C474  1  0.002450  0.583100  0.434600  1.0
  C  C475  1  0.414450  0.583100  0.065400  1.0
  C  C476  1  0.997550  0.416900  0.565400  1.0
  C  C477  1  0.648070  0.404860  0.927640  1.0
  C  C478  1  0.052930  0.595140  0.427640  1.0
  C  C479  1  0.351930  0.595140  0.072360  1.0
  C  C480  1  0.947070  0.404860  0.572360  1.0
  C  C481  1  0.374190  0.657020  0.885200  1.0
  C  C482  1  0.031210  0.342980  0.385200  1.0
  C  C483  1  0.625810  0.342980  0.114800  1.0
  C  C484  1  0.968790  0.657020  0.614800  1.0
  C  C485  1  0.509340  0.502720  0.820140  1.0
  C  C486  1  0.012060  0.497280  0.320140  1.0
  C  C487  1  0.490660  0.497280  0.179860  1.0
  C  C488  1  0.987940  0.502720  0.679860  1.0
  C  C489  1  0.586920  0.536160  0.900800  1.0
  C  C490  1  0.123080  0.463840  0.400800  1.0
  C  C491  1  0.413080  0.463840  0.099200  1.0
  C  C492  1  0.876920  0.536160  0.599200  1.0
  C  C493  1  0.434360  0.609280  0.876600  1.0
  C  C494  1  0.043640  0.390720  0.376600  1.0
  C  C495  1  0.565640  0.390720  0.123400  1.0
  C  C496  1  0.956360  0.609280  0.623400  1.0
  C  C497  1  0.442300  0.579000  0.853610  1.0
  C  C498  1  0.021300  0.421000  0.353610  1.0
  C  C499  1  0.557700  0.421000  0.146390  1.0
  C  C500  1  0.978700  0.579000  0.646390  1.0
  C  C501  1  0.499630  0.535540  0.845150  1.0
  C  C502  1  0.035170  0.464460  0.345150  1.0
  C  C503  1  0.500370  0.464460  0.154850  1.0
  C  C504  1  0.964830  0.535540  0.654850  1.0
  C  C505  1  0.546750  0.522500  0.860180  1.0
  C  C506  1  0.069250  0.477500  0.360180  1.0
  C  C507  1  0.453250  0.477500  0.139820  1.0
  C  C508  1  0.930750  0.522500  0.639820  1.0
  C  C509  1  0.535910  0.552580  0.884160  1.0
  C  C510  1  0.088490  0.447420  0.384160  1.0
  C  C511  1  0.464090  0.447420  0.115840  1.0
  C  C512  1  0.911510  0.552580  0.615840  1.0
  C  C513  1  0.480660  0.595480  0.891830  1.0
  C  C514  1  0.076140  0.404520  0.391830  1.0
  C  C515  1  0.519340  0.404520  0.108170  1.0
  C  C516  1  0.923860  0.595480  0.608170  1.0
  C  C517  1  0.391120  0.590760  0.838190  1.0
  C  C518  1  0.981880  0.409240  0.338190  1.0
  C  C519  1  0.608880  0.409240  0.161810  1.0
  C  C520  1  0.018120  0.590760  0.661810  1.0
  C  C521  1  0.608270  0.476660  0.850730  1.0
  C  C522  1  0.084930  0.523340  0.350730  1.0
  C  C523  1  0.391730  0.523340  0.149270  1.0
  C  C524  1  0.915070  0.476660  0.649270  1.0
  C  C525  1  0.468820  0.629560  0.916870  1.0
  C  C526  1  0.098380  0.370440  0.416870  1.0
  C  C527  1  0.531180  0.370440  0.083130  1.0
  C  C528  1  0.901620  0.629560  0.583130  1.0
  C  C529  1  0.342100  0.992400  0.992530  1.0
  C  C530  1  0.334500  0.007600  0.492530  1.0
  C  C531  1  0.657900  0.007600  0.007470  1.0
  C  C532  1  0.665500  0.992400  0.507470  1.0
  C  C533  1  0.391600  0.965200  0.005200  1.0
  C  C534  1  0.356800  0.034800  0.505200  1.0
  C  C535  1  0.608400  0.034800  0.994800  1.0
  C  C536  1  0.643200  0.965200  0.494800  1.0
  C  C537  1  0.448680  0.958440  0.992460  1.0
  C  C538  1  0.407120  0.041560  0.492460  1.0
  C  C539  1  0.551320  0.041560  0.007540  1.0
  C  C540  1  0.592880  0.958440  0.507540  1.0
  C  C541  1  0.457010  0.976580  0.965230  1.0
  C  C542  1  0.433590  0.023420  0.465230  1.0
  C  C543  1  0.542990  0.023420  0.034770  1.0
  C  C544  1  0.566410  0.976580  0.534770  1.0
  C  C545  1  0.215390  0.885220  0.771400  1.0
  C  C546  1  0.100610  0.114780  0.271400  1.0
  C  C547  1  0.784610  0.114780  0.228600  1.0
  C  C548  1  0.899390  0.885220  0.728600  1.0
  C  C549  1  0.162600  0.886000  0.767200  1.0
  C  C550  1  0.048600  0.114000  0.267200  1.0
  C  C551  1  0.837400  0.114000  0.232800  1.0
  C  C552  1  0.951400  0.886000  0.732800  1.0
  C  C553  1  0.113500  0.933200  0.763300  1.0
  C  C554  1  0.046700  0.066800  0.263300  1.0
  C  C555  1  0.886500  0.066800  0.236700  1.0
  C  C556  1  0.953300  0.933200  0.736700  1.0
  C  C557  1  0.118890  0.980020  0.764400  1.0
  C  C558  1  0.098910  0.019980  0.264400  1.0
  C  C559  1  0.881110  0.019980  0.235600  1.0
  C  C560  1  0.901090  0.980020  0.735600  1.0
  C  C561  1  0.186580  0.181240  0.797270  1.0
  C  C562  1  0.367820  0.818760  0.297270  1.0
  C  C563  1  0.813420  0.818760  0.202730  1.0
  C  C564  1  0.632180  0.181240  0.702730  1.0
  C  C565  1  0.211460  0.200480  0.774160  1.0
  C  C566  1  0.411940  0.799520  0.274160  1.0
  C  C567  1  0.788540  0.799520  0.225840  1.0
  C  C568  1  0.588060  0.200480  0.725840  1.0
  C  C569  1  0.230750  0.174500  0.748690  1.0
  C  C570  1  0.405250  0.825500  0.248690  1.0
  C  C571  1  0.769250  0.825500  0.251310  1.0
  C  C572  1  0.594750  0.174500  0.751310  1.0
  C  C573  1  0.226140  0.127320  0.748350  1.0
  C  C574  1  0.353460  0.872680  0.248350  1.0
  C  C575  1  0.773860  0.872680  0.251650  1.0
  C  C576  1  0.646540  0.127320  0.751650  1.0
  C  C577  1  0.404200  0.765400  0.949450  1.0
  C  C578  1  0.169600  0.234600  0.449450  1.0
  C  C579  1  0.595800  0.234600  0.050550  1.0
  C  C580  1  0.830400  0.765400  0.550550  1.0
  C  C581  1  0.399420  0.760760  0.977980  1.0
  C  C582  1  0.160180  0.239240  0.477980  1.0
  C  C583  1  0.600580  0.239240  0.022020  1.0
  C  C584  1  0.839820  0.760760  0.522020  1.0
  C  C585  1  0.345730  0.764340  0.994480  1.0
  C  C586  1  0.110070  0.235660  0.494480  1.0
  C  C587  1  0.654270  0.235660  0.005520  1.0
  C  C588  1  0.889930  0.764340  0.505520  1.0
  C  C589  1  0.297170  0.773460  0.981960  1.0
  C  C590  1  0.070630  0.226540  0.481960  1.0
  C  C591  1  0.702830  0.226540  0.018040  1.0
  C  C592  1  0.929370  0.773460  0.518040  1.0
  C  C593  1  0.075700  0.846600  0.896900  1.0
  C  C594  1  0.922300  0.153400  0.396900  1.0
  C  C595  1  0.924300  0.153400  0.103100  1.0
  C  C596  1  0.077700  0.846600  0.603100  1.0
  C  C597  1  0.075700  0.804400  0.885700  1.0
  C  C598  1  0.880100  0.195600  0.385700  1.0
  C  C599  1  0.924300  0.195600  0.114300  1.0
  C  C600  1  0.119900  0.804400  0.614300  1.0
  C  C601  1  0.122200  0.755400  0.886100  1.0
  C  C602  1  0.877600  0.244600  0.386100  1.0
  C  C603  1  0.877800  0.244600  0.113900  1.0
  C  C604  1  0.122400  0.755400  0.613900  1.0
  C  C605  1  0.169220  0.750560  0.899510  1.0
  C  C606  1  0.919780  0.249440  0.399510  1.0
  C  C607  1  0.830780  0.249440  0.100490  1.0
  C  C608  1  0.080220  0.750560  0.600490  1.0
  C  C609  1  0.461210  0.908980  0.860020  1.0
  C  C610  1  0.370190  0.091020  0.360020  1.0
  C  C611  1  0.538790  0.091020  0.139980  1.0
  C  C612  1  0.629810  0.908980  0.639980  1.0
  C  C613  1  0.459540  0.948120  0.842480  1.0
  C  C614  1  0.407660  0.051880  0.342480  1.0
  C  C615  1  0.540460  0.051880  0.157520  1.0
  C  C616  1  0.592340  0.948120  0.657520  1.0
  C  C617  1  0.444570  0.991460  0.859910  1.0
  C  C618  1  0.436030  0.008540  0.359910  1.0
  C  C619  1  0.555430  0.008540  0.140090  1.0
  C  C620  1  0.563970  0.991460  0.640090  1.0
  C  C621  1  0.452840  0.060720  0.825920  1.0
  C  C622  1  0.513560  0.939280  0.325920  1.0
  C  C623  1  0.547160  0.939280  0.174080  1.0
  C  C624  1  0.486440  0.060720  0.674080  1.0
  C  C625  1  0.449360  0.110280  0.822800  1.0
  C  C626  1  0.559640  0.889720  0.322800  1.0
  C  C627  1  0.550640  0.889720  0.177200  1.0
  C  C628  1  0.440360  0.110280  0.677200  1.0
  C  C629  1  0.428300  0.144400  0.845000  1.0
  C  C630  1  0.572700  0.855600  0.345000  1.0
  C  C631  1  0.571700  0.855600  0.155000  1.0
  C  C632  1  0.427300  0.144400  0.655000  1.0
  C  C633  1  0.420140  0.123720  0.871800  1.0
  C  C634  1  0.543860  0.876280  0.371800  1.0
  C  C635  1  0.579860  0.876280  0.128200  1.0
  C  C636  1  0.456140  0.123720  0.628200  1.0
  C  C637  1  0.534310  0.708980  0.557730  1.0
  C  C638  1  0.243290  0.291020  0.057730  1.0
  C  C639  1  0.465690  0.291020  0.442270  1.0
  C  C640  1  0.756710  0.708980  0.942270  1.0
  C  C641  1  0.526200  0.718600  0.530200  1.0
  C  C642  1  0.244800  0.281400  0.030200  1.0
  C  C643  1  0.473800  0.281400  0.469800  1.0
  C  C644  1  0.755200  0.718600  0.969800  1.0
  C  C645  1  0.479200  0.715200  0.522000  1.0
  C  C646  1  0.194400  0.284800  0.022000  1.0
  C  C647  1  0.520800  0.284800  0.478000  1.0
  C  C648  1  0.805600  0.715200  0.978000  1.0
  C  C649  1  0.438000  0.702800  0.541520  1.0
  C  C650  1  0.140800  0.297200  0.041520  1.0
  C  C651  1  0.562000  0.297200  0.458480  1.0
  C  C652  1  0.859200  0.702800  0.958480  1.0
  C  C653  1  0.282150  0.043900  0.862300  1.0
  C  C654  1  0.326050  0.956100  0.362300  1.0
  C  C655  1  0.717850  0.956100  0.137700  1.0
  C  C656  1  0.673950  0.043900  0.637700  1.0
  C  C657  1  0.302050  0.019300  0.836020  1.0
  C  C658  1  0.321350  0.980700  0.336020  1.0
  C  C659  1  0.697950  0.980700  0.163980  1.0
  C  C660  1  0.678650  0.019300  0.663980  1.0
  C  C661  1  0.316120  0.045360  0.813790  1.0
  C  C662  1  0.361480  0.954640  0.313790  1.0
  C  C663  1  0.683880  0.954640  0.186210  1.0
  C  C664  1  0.638520  0.045360  0.686210  1.0
  C  C665  1  0.312500  0.096400  0.816400  1.0
  C  C666  1  0.408900  0.903600  0.316400  1.0
  C  C667  1  0.687500  0.903600  0.183600  1.0
  C  C668  1  0.591100  0.096400  0.683600  1.0
  C  C669  1  0.193100  0.956600  0.853500  1.0
  C  C670  1  0.149700  0.043400  0.353500  1.0
  C  C671  1  0.806900  0.043400  0.146500  1.0
  C  C672  1  0.850300  0.956600  0.646500  1.0
  C  C673  1  0.235670  0.904060  0.857240  1.0
  C  C674  1  0.139730  0.095940  0.357240  1.0
  C  C675  1  0.764330  0.095940  0.142760  1.0
  C  C676  1  0.860270  0.904060  0.642760  1.0
  C  C677  1  0.224100  0.862400  0.851360  1.0
  C  C678  1  0.086500  0.137600  0.351360  1.0
  C  C679  1  0.775900  0.137600  0.148640  1.0
  C  C680  1  0.913500  0.862400  0.648640  1.0
  C  C681  1  0.168100  0.873400  0.843800  1.0
  C  C682  1  0.041500  0.126600  0.343800  1.0
  C  C683  1  0.831900  0.126600  0.156200  1.0
  C  C684  1  0.958500  0.873400  0.656200  1.0
  C  C685  1  0.277140  0.924720  0.922030  1.0
  C  C686  1  0.201860  0.075280  0.422030  1.0
  C  C687  1  0.722860  0.075280  0.077970  1.0
  C  C688  1  0.798140  0.924720  0.577970  1.0
  C  C689  1  0.333340  0.918920  0.910600  1.0
  C  C690  1  0.252260  0.081080  0.410600  1.0
  C  C691  1  0.666660  0.081080  0.089400  1.0
  C  C692  1  0.747740  0.918920  0.589400  1.0
  C  C693  1  0.378250  0.904700  0.925430  1.0
  C  C694  1  0.282950  0.095300  0.425430  1.0
  C  C695  1  0.621750  0.095300  0.074570  1.0
  C  C696  1  0.717050  0.904700  0.574570  1.0
  C  C697  1  0.366700  0.893400  0.954500  1.0
  C  C698  1  0.260100  0.106600  0.454500  1.0
  C  C699  1  0.633300  0.106600  0.045500  1.0
  C  C700  1  0.739900  0.893400  0.545500  1.0
  C  C701  1  0.484500  0.556200  0.663100  1.0
  C  C702  1  0.040700  0.443800  0.163100  1.0
  C  C703  1  0.515500  0.443800  0.336900  1.0
  C  C704  1  0.959300  0.556200  0.836900  1.0
  C  C705  1  0.488000  0.503800  0.667200  1.0
  C  C706  1  0.991800  0.496200  0.167200  1.0
  C  C707  1  0.512000  0.496200  0.332800  1.0
  C  C708  1  0.008200  0.503800  0.832800  1.0
  C  C709  1  0.436900  0.498200  0.681500  1.0
  C  C710  1  0.935100  0.501800  0.181500  1.0
  C  C711  1  0.563100  0.501800  0.318500  1.0
  C  C712  1  0.064900  0.498200  0.818500  1.0
  C  C713  1  0.389200  0.537000  0.691000  1.0
  C  C714  1  0.926200  0.463000  0.191000  1.0
  C  C715  1  0.610800  0.463000  0.309000  1.0
  C  C716  1  0.073800  0.537000  0.809000  1.0
  C  C717  1  0.663400  0.285800  0.728000  1.0
  C  C718  1  0.949200  0.714200  0.228000  1.0
  C  C719  1  0.336600  0.714200  0.272000  1.0
  C  C720  1  0.050800  0.285800  0.772000  1.0
  C  C721  1  0.688900  0.269600  0.751200  1.0
  C  C722  1  0.958500  0.730400  0.251200  1.0
  C  C723  1  0.311100  0.730400  0.248800  1.0
  C  C724  1  0.041500  0.269600  0.748800  1.0
  C  C725  1  0.666700  0.298000  0.775800  1.0
  C  C726  1  0.964700  0.702000  0.275800  1.0
  C  C727  1  0.333300  0.702000  0.224200  1.0
  C  C728  1  0.035300  0.298000  0.724200  1.0
  C  C729  1  0.615300  0.346800  0.774700  1.0
  C  C730  1  0.962100  0.653200  0.274700  1.0
  C  C731  1  0.384700  0.653200  0.225300  1.0
  C  C732  1  0.037900  0.346800  0.725300  1.0
  C  C733  1  0.632600  0.452400  0.693800  1.0
  C  C734  1  0.085000  0.547600  0.193800  1.0
  C  C735  1  0.367400  0.547600  0.306200  1.0
  C  C736  1  0.915000  0.452400  0.806200  1.0
  C  C737  1  0.656300  0.423000  0.666600  1.0
  C  C738  1  0.079300  0.577000  0.166600  1.0
  C  C739  1  0.343700  0.577000  0.333400  1.0
  C  C740  1  0.920700  0.423000  0.833400  1.0
  C  C741  1  0.919900  0.376200  0.834500  1.0
  C  C742  1  0.296100  0.623800  0.334500  1.0
  C  C743  1  0.080100  0.623800  0.165500  1.0
  C  C744  1  0.703900  0.376200  0.665500  1.0
  C  C745  1  0.730900  0.354400  0.688400  1.0
  C  C746  1  0.085300  0.645600  0.188400  1.0
  C  C747  1  0.269100  0.645600  0.311600  1.0
  C  C748  1  0.914700  0.354400  0.811600  1.0
  C  C749  1  0.829100  0.450200  0.972020  1.0
  C  C750  1  0.279300  0.549800  0.472020  1.0
  C  C751  1  0.170900  0.549800  0.027980  1.0
  C  C752  1  0.720700  0.450200  0.527980  1.0
  C  C753  1  0.778000  0.474600  0.991300  1.0
  C  C754  1  0.252600  0.525400  0.491300  1.0
  C  C755  1  0.222000  0.525400  0.008700  1.0
  C  C756  1  0.747400  0.474600  0.508700  1.0
  C  C757  1  0.720800  0.486800  0.987400  1.0
  C  C758  1  0.207600  0.513200  0.487400  1.0
  C  C759  1  0.279200  0.513200  0.012600  1.0
  C  C760  1  0.792400  0.486800  0.512600  1.0
  C  C761  1  0.717300  0.472000  0.961150  1.0
  C  C762  1  0.189300  0.528000  0.461150  1.0
  C  C763  1  0.282700  0.528000  0.038850  1.0
  C  C764  1  0.810700  0.472000  0.538850  1.0
  C  C765  1  0.760980  0.423440  0.816350  1.0
  C  C766  1  0.184420  0.576560  0.316350  1.0
  C  C767  1  0.239020  0.576560  0.183650  1.0
  C  C768  1  0.815580  0.423440  0.683650  1.0
  C  C769  1  0.767930  0.374340  0.811170  1.0
  C  C770  1  0.142270  0.625660  0.311170  1.0
  C  C771  1  0.232070  0.625660  0.188830  1.0
  C  C772  1  0.857730  0.374340  0.688830  1.0
  C  C773  1  0.774550  0.336500  0.831620  1.0
  C  C774  1  0.111050  0.663500  0.331620  1.0
  C  C775  1  0.225450  0.663500  0.168380  1.0
  C  C776  1  0.888950  0.336500  0.668380  1.0
  C  C777  1  0.772600  0.350200  0.858880  1.0
  C  C778  1  0.122800  0.649800  0.358880  1.0
  C  C779  1  0.227400  0.649800  0.141120  1.0
  C  C780  1  0.877200  0.350200  0.641120  1.0
  C  C781  1  0.836650  0.540300  0.901300  1.0
  C  C782  1  0.376950  0.459700  0.401300  1.0
  C  C783  1  0.163350  0.459700  0.098700  1.0
  C  C784  1  0.623050  0.540300  0.598700  1.0
  C  C785  1  0.887670  0.538460  0.909100  1.0
  C  C786  1  0.426130  0.461540  0.409100  1.0
  C  C787  1  0.112330  0.461540  0.090900  1.0
  C  C788  1  0.573870  0.538460  0.590900  1.0
  C  C789  1  0.560300  0.555800  0.564700  1.0
  C  C790  1  0.116100  0.444200  0.064700  1.0
  C  C791  1  0.439700  0.444200  0.435300  1.0
  C  C792  1  0.883900  0.555800  0.935300  1.0
  C  C793  1  0.829110  0.576580  0.952000  1.0
  C  C794  1  0.405690  0.423420  0.452000  1.0
  C  C795  1  0.170890  0.423420  0.048000  1.0
  C  C796  1  0.594310  0.576580  0.548000  1.0
  C  C797  1  0.289500  0.597800  0.645200  1.0
  C  C798  1  0.887300  0.402200  0.145200  1.0
  C  C799  1  0.710500  0.402200  0.354800  1.0
  C  C800  1  0.112700  0.597800  0.854800  1.0
  C  C801  1  0.242690  0.634020  0.663000  1.0
  C  C802  1  0.876710  0.365980  0.163000  1.0
  C  C803  1  0.757310  0.365980  0.337000  1.0
  C  C804  1  0.123290  0.634020  0.837000  1.0
  C  C805  1  0.238800  0.683800  0.664700  1.0
  C  C806  1  0.922600  0.316200  0.164700  1.0
  C  C807  1  0.761200  0.316200  0.335300  1.0
  C  C808  1  0.077400  0.683800  0.835300  1.0
  C  C809  1  0.283720  0.695760  0.647400  1.0
  C  C810  1  0.979480  0.304240  0.147400  1.0
  C  C811  1  0.716280  0.304240  0.352600  1.0
  C  C812  1  0.020520  0.695760  0.852600  1.0
  C  C813  1  0.471650  0.143300  0.947500  1.0
  C  C814  1  0.614950  0.856700  0.447500  1.0
  C  C815  1  0.528350  0.856700  0.052500  1.0
  C  C816  1  0.385050  0.143300  0.552500  1.0
  C  C817  1  0.416900  0.184400  0.957800  1.0
  C  C818  1  0.601300  0.815600  0.457800  1.0
  C  C819  1  0.583100  0.815600  0.042200  1.0
  C  C820  1  0.398700  0.184400  0.542200  1.0
  C  C821  1  0.363400  0.183200  0.957000  1.0
  C  C822  1  0.546600  0.816800  0.457000  1.0
  C  C823  1  0.636600  0.816800  0.043000  1.0
  C  C824  1  0.453400  0.183200  0.543000  1.0
  C  C825  1  0.365960  0.139080  0.944800  1.0
  C  C826  1  0.505040  0.860920  0.444800  1.0
  C  C827  1  0.634040  0.860920  0.055200  1.0
  C  C828  1  0.494960  0.139080  0.555200  1.0
  C  C829  1  0.063400  0.134600  0.713200  1.0
  C  C830  1  0.198000  0.865400  0.213200  1.0
  C  C831  1  0.936600  0.865400  0.286800  1.0
  C  C832  1  0.802000  0.134600  0.786800  1.0
  C  C833  1  0.009000  0.163400  0.730200  1.0
  C  C834  1  0.172400  0.836600  0.230200  1.0
  C  C835  1  0.991000  0.836600  0.269800  1.0
  C  C836  1  0.827600  0.163400  0.769800  1.0
  C  C837  1  0.005600  0.159800  0.758500  1.0
  C  C838  1  0.165400  0.840200  0.258500  1.0
  C  C839  1  0.994400  0.840200  0.241500  1.0
  C  C840  1  0.834600  0.159800  0.741500  1.0
  C  C841  1  0.057690  0.124020  0.768510  1.0
  C  C842  1  0.181710  0.875980  0.268510  1.0
  C  C843  1  0.942310  0.875980  0.231490  1.0
  C  C844  1  0.818290  0.124020  0.731490  1.0
  C  C845  1  0.701040  0.356720  0.930540  1.0
  C  C846  1  0.057760  0.643280  0.430540  1.0
  C  C847  1  0.298960  0.643280  0.069460  1.0
  C  C848  1  0.942240  0.356720  0.569460  1.0
  C  C849  1  0.697060  0.309480  0.940670  1.0
  C  C850  1  0.006540  0.690520  0.440670  1.0
  C  C851  1  0.302940  0.690520  0.059330  1.0
  C  C852  1  0.993460  0.309480  0.559330  1.0
  C  C853  1  0.749190  0.265620  0.943000  1.0
  C  C854  1  0.014810  0.734380  0.443000  1.0
  C  C855  1  0.250810  0.734380  0.057000  1.0
  C  C856  1  0.985190  0.265620  0.557000  1.0
  C  C857  1  0.804870  0.266860  0.936150  1.0
  C  C858  1  0.071730  0.733140  0.436150  1.0
  C  C859  1  0.195130  0.733140  0.063850  1.0
  C  C860  1  0.928270  0.266860  0.563850  1.0
  C  C861  1  0.805800  0.315000  0.927140  1.0
  C  C862  1  0.120800  0.685000  0.427140  1.0
  C  C863  1  0.194200  0.685000  0.072860  1.0
  C  C864  1  0.879200  0.315000  0.572860  1.0
  Cu  Cu865  1  0.419510  0.037940  0.913740  1.0
  Cu  Cu866  1  0.457450  0.962060  0.413740  1.0
  Cu  Cu867  1  0.580490  0.962060  0.086260  1.0
  Cu  Cu868  1  0.542550  0.037940  0.586260  1.0
  Cu  Cu869  1  0.186020  0.044020  0.768940  1.0
  Cu  Cu870  1  0.230040  0.955980  0.268940  1.0
  Cu  Cu871  1  0.813980  0.955980  0.231060  1.0
  Cu  Cu872  1  0.769960  0.044020  0.731060  1.0
  Cu  Cu873  1  0.238420  0.781920  0.931327  1.0
  Cu  Cu874  1  0.020340  0.218080  0.431327  1.0
  Cu  Cu875  1  0.761580  0.218080  0.068673  1.0
  Cu  Cu876  1  0.979660  0.781920  0.568673  1.0
  Cu  Cu877  1  0.385440  0.680740  0.600250  1.0
  Cu  Cu878  1  0.066180  0.319260  0.100250  1.0
  Cu  Cu879  1  0.614560  0.319260  0.399750  1.0
  Cu  Cu880  1  0.933820  0.680740  0.899750  1.0
  Cu  Cu881  1  0.500500  0.422220  0.757920  1.0
  Cu  Cu882  1  0.922720  0.577780  0.257920  1.0
  Cu  Cu883  1  0.499500  0.577780  0.242080  1.0
  Cu  Cu884  1  0.077280  0.422220  0.742080  1.0
  Cu  Cu885  1  0.760430  0.424460  0.903990  1.0
  Cu  Cu886  1  0.184890  0.575540  0.403990  1.0
  Cu  Cu887  1  0.239570  0.575540  0.096010  1.0
  Cu  Cu888  1  0.815110  0.424460  0.596010  1.0
  F  F889  1  0.749760  0.799680  0.702020  1
  F  F890  1  0.549440  0.200320  0.202020  1
  F  F891  1  0.250240  0.200320  0.297980  1
  F  F892  1  0.450560  0.799680  0.797980  1
  F  F893  1  0.680910  0.766180  0.710490  1
  F  F894  1  0.447090  0.233820  0.210490  1
  F  F895  1  0.319090  0.233820  0.289510  1
  F  F896  1  0.552910  0.766180  0.789510  1
  F  F897  1  0.710060  0.791280  0.667060  1
  F  F898  1  0.501340  0.208720  0.167060  1
  F  F899  1  0.289940  0.208720  0.332940  1
  F  F900  1  0.498660  0.791280  0.832940  1
  F  F901  1  0.653450  0.851500  0.700380  1
  F  F902  1  0.504950  0.148500  0.200380  1
  F  F903  1  0.346550  0.148500  0.299620  1
  F  F904  1  0.495050  0.851500  0.799620  1
  H  H905  1  0.540600  0.661200  0.662400  1.0
  H  H906  1  0.201800  0.338800  0.162400  1.0
  H  H907  1  0.459400  0.338800  0.337600  1.0
  H  H908  1  0.798200  0.661200  0.837600  1.0
  H  H909  1  0.366800  0.566000  0.913000  1.0
  H  H910  1  0.932800  0.434000  0.413000  1.0
  H  H911  1  0.633200  0.434000  0.087000  1.0
  H  H912  1  0.067200  0.566000  0.587000  1.0
  N  N913  1  0.545090  0.088420  0.476900  1
  N  N914  1  0.633510  0.911580  0.976900  1
  N  N915  1  0.454910  0.911580  0.523100  1
  N  N916  1  0.366490  0.088420  0.023100  1
  N  N917  1  0.409040  0.003120  0.951370  1.0
  N  N918  1  0.412160  0.996880  0.451370  1.0
  N  N919  1  0.590960  0.996880  0.048630  1.0
  N  N920  1  0.587840  0.003120  0.548630  1.0
  N  N921  1  0.315960  0.063280  0.925740  1.0
  N  N922  1  0.379240  0.936720  0.425740  1.0
  N  N923  1  0.684040  0.936720  0.074260  1.0
  N  N924  1  0.620760  0.063280  0.574260  1.0
  N  N925  1  0.259800  0.088400  0.917270  1.0
  N  N926  1  0.348200  0.911600  0.417270  1.0
  N  N927  1  0.740200  0.911600  0.082730  1.0
  N  N928  1  0.651800  0.088400  0.582730  1.0
  N  N929  1  0.267890  0.986220  0.777420  1.0
  N  N930  1  0.254110  0.013780  0.277420  1.0
  N  N931  1  0.732110  0.013780  0.222580  1.0
  N  N932  1  0.745890  0.986220  0.722580  1.0
  N  N933  1  0.324690  0.979220  0.781480  1.0
  N  N934  1  0.303910  0.020780  0.281480  1.0
  N  N935  1  0.675310  0.020780  0.218520  1.0
  N  N936  1  0.696090  0.979220  0.718520  1.0
  N  N937  1  0.169960  0.980080  0.769650  1.0
  N  N938  1  0.150040  0.019920  0.269650  1.0
  N  N939  1  0.830040  0.019920  0.230350  1.0
  N  N940  1  0.849960  0.980080  0.730350  1.0
  N  N941  1  0.201380  0.107640  0.771130  1.0
  N  N942  1  0.309020  0.892360  0.271130  1.0
  N  N943  1  0.798620  0.892360  0.228870  1.0
  N  N944  1  0.690980  0.107640  0.728870  1.0
  N  N945  1  0.142400  0.072800  0.814530  1.0
  N  N946  1  0.215200  0.927200  0.314530  1.0
  N  N947  1  0.857600  0.927200  0.185470  1.0
  N  N948  1  0.784800  0.072800  0.685470  1.0
  N  N949  1  0.112700  0.062600  0.840330  1.0
  N  N950  1  0.175300  0.937400  0.340330  1.0
  N  N951  1  0.887300  0.937400  0.159670  1.0
  N  N952  1  0.824700  0.062600  0.659670  1.0
  N  N953  1  0.301900  0.791400  0.899500  1.0
  N  N954  1  0.093300  0.208600  0.399500  1.0
  N  N955  1  0.698100  0.208600  0.100500  1.0
  N  N956  1  0.906700  0.791400  0.600500  1.0
  N  N957  1  0.313140  0.796920  0.870770  1.0
  N  N958  1  0.110060  0.203080  0.370770  1.0
  N  N959  1  0.686860  0.203080  0.129230  1.0
  N  N960  1  0.889940  0.796920  0.629230  1.0
  N  N961  1  0.300540  0.777720  0.953550  1.0
  N  N962  1  0.078260  0.222280  0.453550  1.0
  N  N963  1  0.699460  0.222280  0.046450  1.0
  N  N964  1  0.921740  0.777720  0.546450  1.0
  N  N965  1  0.172340  0.791320  0.909600  1.0
  N  N966  1  0.963660  0.208680  0.409600  1.0
  N  N967  1  0.827660  0.208680  0.090400  1.0
  N  N968  1  0.036340  0.791320  0.590400  1.0
  N  N969  1  0.170260  0.871480  0.937190  1.0
  N  N970  1  0.041740  0.128520  0.437190  1.0
  N  N971  1  0.829740  0.128520  0.062810  1.0
  N  N972  1  0.958260  0.871480  0.562810  1.0
  N  N973  1  0.161670  0.918460  0.947840  1.0
  N  N974  1  0.080130  0.081540  0.447840  1.0
  N  N975  1  0.838330  0.081540  0.052160  1.0
  N  N976  1  0.919870  0.918460  0.552160  1.0
  N  N977  1  0.436140  0.978120  0.887200  1.0
  N  N978  1  0.414260  0.021880  0.387200  1.0
  N  N979  1  0.563860  0.021880  0.112800  1.0
  N  N980  1  0.585740  0.978120  0.612800  1.0
  N  N981  1  0.446340  0.925920  0.887050  1.0
  N  N982  1  0.372260  0.074080  0.387050  1.0
  N  N983  1  0.553660  0.074080  0.112950  1.0
  N  N984  1  0.627740  0.925920  0.612950  1.0
  N  N985  1  0.425610  0.074380  0.875860  1.0
  N  N986  1  0.499990  0.925620  0.375860  1.0
  N  N987  1  0.574390  0.925620  0.124140  1.0
  N  N988  1  0.500010  0.074380  0.624140  1.0
  N  N989  1  0.443880  0.694640  0.568830  1.0
  N  N990  1  0.138520  0.305360  0.068830  1.0
  N  N991  1  0.556120  0.305360  0.431170  1.0
  N  N992  1  0.861480  0.694640  0.931170  1.0
  N  N993  1  0.452880  0.671840  0.621400  1.0
  N  N994  1  0.124720  0.328160  0.121400  1.0
  N  N995  1  0.547120  0.328160  0.378600  1.0
  N  N996  1  0.875280  0.671840  0.878600  1.0
  N  N997  1  0.467950  0.663100  0.647720  1.0
  N  N998  1  0.131050  0.336900  0.147720  1.0
  N  N999  1  0.532050  0.336900  0.352280  1.0
  N  N1000  1  0.868950  0.663100  0.852280  1.0
  N  N1001  1  0.519630  0.393340  0.711910  1.0
  N  N1002  1  0.912970  0.606660  0.211910  1.0
  N  N1003  1  0.480370  0.606660  0.288090  1.0
  N  N1004  1  0.087030  0.393340  0.788090  1.0
  N  N1005  1  0.497000  0.399000  0.687000  1.0
  N  N1006  1  0.896000  0.601000  0.187000  1.0
  N  N1007  1  0.503000  0.601000  0.313000  1.0
  N  N1008  1  0.104000  0.399000  0.813000  1.0
  N  N1009  1  0.584310  0.361980  0.753650  1.0
  N  N1010  1  0.946290  0.638020  0.253650  1.0
  N  N1011  1  0.415690  0.638020  0.246350  1.0
  N  N1012  1  0.053710  0.361980  0.746350  1.0
  N  N1013  1  0.417570  0.480460  0.758930  1.0
  N  N1014  1  0.898030  0.519540  0.258930  1.0
  N  N1015  1  0.582430  0.519540  0.241070  1.0
  N  N1016  1  0.101970  0.480460  0.741070  1.0
  N  N1017  1  0.523370  0.485660  0.750220  1.0
  N  N1018  1  0.009030  0.514340  0.250220  1.0
  N  N1019  1  0.476630  0.514340  0.249780  1.0
  N  N1020  1  0.990970  0.485660  0.749780  1.0
  N  N1021  1  0.573650  0.496500  0.746430  1.0
  N  N1022  1  0.070150  0.503500  0.246430  1.0
  N  N1023  1  0.426350  0.503500  0.253570  1.0
  N  N1024  1  0.929850  0.496500  0.753570  1.0
  N  N1025  1  0.865050  0.393300  0.901900  1.0
  N  N1026  1  0.258350  0.606700  0.401900  1.0
  N  N1027  1  0.134950  0.606700  0.098100  1.0
  N  N1028  1  0.741650  0.393300  0.598100  1.0
  N  N1029  1  0.922350  0.368700  0.884980  1.0
  N  N1030  1  0.291050  0.631300  0.384980  1.0
  N  N1031  1  0.077650  0.631300  0.115020  1.0
  N  N1032  1  0.708950  0.368700  0.615020  1.0
  N  N1033  1  0.766740  0.449320  0.940640  1.0
  N  N1034  1  0.216060  0.550680  0.440640  1.0
  N  N1035  1  0.233260  0.550680  0.059360  1.0
  N  N1036  1  0.783940  0.449320  0.559360  1.0
  N  N1037  1  0.766200  0.397400  0.865570  1.0
  N  N1038  1  0.163600  0.602600  0.365570  1.0
  N  N1039  1  0.233800  0.602600  0.134430  1.0
  N  N1040  1  0.836400  0.397400  0.634430  1.0
  N  N1041  1  0.748800  0.490800  0.880360  1.0
  N  N1042  1  0.239600  0.509200  0.380360  1.0
  N  N1043  1  0.251200  0.509200  0.119640  1.0
  N  N1044  1  0.760400  0.490800  0.619640  1.0
  N  N1045  1  0.732150  0.543700  0.883480  1.0
  N  N1046  1  0.275850  0.456300  0.383480  1.0
  N  N1047  1  0.267850  0.456300  0.116520  1.0
  N  N1048  1  0.724150  0.543700  0.616520  1.0
  N  N1049  1  0.419330  0.591340  0.591490  1.0
  N  N1050  1  0.010670  0.408660  0.091490  1.0
  N  N1051  1  0.580670  0.408660  0.408510  1.0
  N  N1052  1  0.989330  0.591340  0.908510  1.0
  N  N1053  1  0.462820  0.547360  0.575800  1.0
  N  N1054  1  0.010180  0.452640  0.075800  1.0
  N  N1055  1  0.537180  0.452640  0.424200  1.0
  N  N1056  1  0.989820  0.547360  0.924200  1.0
  N  N1057  1  0.330110  0.660380  0.629710  1.0
  N  N1058  1  0.990490  0.339620  0.129710  1.0
  N  N1059  1  0.669890  0.339620  0.370290  1.0
  N  N1060  1  0.009510  0.660380  0.870290  1.0
  N  N1061  1  0.418650  0.099500  0.933480  1.0
  N  N1062  1  0.518150  0.900500  0.433480  1.0
  N  N1063  1  0.581350  0.900500  0.066520  1.0
  N  N1064  1  0.481850  0.099500  0.566520  1.0
  N  N1065  1  0.523820  0.016560  0.911120  1.0
  N  N1066  1  0.540380  0.983440  0.411120  1.0
  N  N1067  1  0.476180  0.983440  0.088880  1.0
  N  N1068  1  0.459620  0.016560  0.588880  1.0
  N  N1069  1  0.583230  0.982740  0.900460  1.0
  N  N1070  1  0.565970  0.017260  0.400460  1.0
  N  N1071  1  0.416770  0.017260  0.099540  1.0
  N  N1072  1  0.434030  0.982740  0.599540  1.0
  N  N1073  1  0.316960  0.712080  0.577050  1.0
  N  N1074  1  0.029040  0.287920  0.077050  1.0
  N  N1075  1  0.683040  0.287920  0.422950  1.0
  N  N1076  1  0.970960  0.712080  0.922950  1.0
  N  N1077  1  0.335780  0.774240  0.610280  1.0
  N  N1078  1  0.110020  0.225760  0.110280  1.0
  N  N1079  1  0.664220  0.225760  0.389720  1.0
  N  N1080  1  0.889980  0.774240  0.889720  1.0
  N  N1081  1  0.334160  0.815680  0.623360  1.0
  N  N1082  1  0.149840  0.184320  0.123360  1.0
  N  N1083  1  0.665840  0.184320  0.376640  1.0
  N  N1084  1  0.850160  0.815680  0.876640  1.0
  N  N1085  1  0.109750  0.093300  0.752420  1.0
  N  N1086  1  0.203050  0.906700  0.252420  1.0
  N  N1087  1  0.890250  0.906700  0.247580  1.0
  N  N1088  1  0.796950  0.093300  0.747580  1.0
  N  N1089  1  0.217530  0.032340  0.718980  1.0
  N  N1090  1  0.249870  0.967660  0.218980  1.0
  N  N1091  1  0.782470  0.967660  0.281020  1.0
  N  N1092  1  0.750130  0.032340  0.781020  1.0
  N  N1093  1  0.262380  0.003640  0.697640  1.0
  N  N1094  1  0.266020  0.996360  0.197640  1.0
  N  N1095  1  0.737620  0.996360  0.302360  1.0
  N  N1096  1  0.733980  0.003640  0.802360  1.0
  N  N1097  1  0.195130  0.752340  0.964300  1.0
  N  N1098  1  0.947470  0.247660  0.464300  1.0
  N  N1099  1  0.804870  0.247660  0.035700  1.0
  N  N1100  1  0.052530  0.752340  0.535700  1.0
  N  N1101  1  0.289830  0.688140  0.925410  1.0
  N  N1102  1  0.977970  0.311860  0.425410  1.0
  N  N1103  1  0.710170  0.311860  0.074590  1.0
  N  N1104  1  0.022030  0.688140  0.574590  1.0
  N  N1105  1  0.334620  0.647160  0.909310  1.0
  N  N1106  1  0.981780  0.352840  0.409310  1.0
  N  N1107  1  0.665380  0.352840  0.090690  1.0
  N  N1108  1  0.018220  0.647160  0.590690  1.0
  N  N1109  1  0.470560  0.366880  0.775690  1.0
  N  N1110  1  0.837440  0.633120  0.275690  1.0
  N  N1111  1  0.529440  0.633120  0.224310  1.0
  N  N1112  1  0.162560  0.366880  0.724310  1.0
  N  N1113  1  0.489520  0.431560  0.806860  1.0
  N  N1114  1  0.921080  0.568440  0.306860  1.0
  N  N1115  1  0.510480  0.568440  0.193140  1.0
  N  N1116  1  0.078920  0.431560  0.693140  1.0
  N  N1117  1  0.490630  0.461540  0.827450  1.0
  N  N1118  1  0.952170  0.538460  0.327450  1.0
  N  N1119  1  0.509370  0.538460  0.172550  1.0
  N  N1120  1  0.047830  0.461540  0.672550  1.0
  N  N1121  1  0.755140  0.359120  0.923420  1.0
  N  N1122  1  0.114260  0.640880  0.423420  1.0
  N  N1123  1  0.244860  0.640880  0.076580  1.0
  N  N1124  1  0.885740  0.359120  0.576580  1.0
  N  N1125  1  0.655280  0.447040  0.915060  1.0
  N  N1126  1  0.102320  0.552960  0.415060  1.0
  N  N1127  1  0.344720  0.552960  0.084940  1.0
  N  N1128  1  0.897680  0.447040  0.584940  1.0
  N  N1129  1  0.597340  0.484920  0.914770  1.0
  N  N1130  1  0.082260  0.515080  0.414770  1.0
  N  N1131  1  0.402660  0.515080  0.085230  1.0
  N  N1132  1  0.917740  0.484920  0.585230  1.0
  O  O1133  1  0.512400  0.085400  0.498530  1
  O  O1134  1  0.597800  0.914600  0.998530  1
  O  O1135  1  0.487600  0.914600  0.501470  1
  O  O1136  1  0.402200  0.085400  0.001470  1
  O  O1137  1  0.544800  0.069800  0.454830  1
  O  O1138  1  0.614600  0.930200  0.954830  1
  O  O1139  1  0.455200  0.930200  0.545170  1
  O  O1140  1  0.385400  0.069800  0.045170  1
