
#######################################################################
#
#                 Cambridge Crystallographic Data Centre
#                                CCDC 
#
#######################################################################
#
# If this CIF has been generated from an entry in the Cambridge 
# Structural Database, then it will include bibliographic, chemical, 
# crystal, experimental, refinement or atomic coordinate data resulting 
# from the CCDC's data processing and validation procedures.
#
#######################################################################

data_JECZUN
_chemical_formula_moiety         
'4(C105 H87 Cu3 N27 6+),24(B1 F4 1-),20(C1 H3 N1 O2)'
_chemical_name_systematic        
'tetrakis(\m~3~-2,4,6-Trimethyl-1,3,5-tris((3-(2-pyridyl)pyrazolyl)methyl)benzene)-dodecakis(\m~2~-1,4-bis((3-(2-pyridyl)pyrazolyl)methyl)benzene)-dodeca-copper(ii) tetracosakis(tetrafluoroborate) icosakis(nitromethane) clathrate'
_symmetry_cell_setting           monoclinic
_symmetry_space_group_name_H-M   'C 2/c'
_symmetry_Int_Tables_number      15
_space_group_name_Hall           '-C 2yn'
loop_
_symmetry_equiv_pos_site_id
_symmetry_equiv_pos_as_xyz
1 x,y,z
2 1/2+x,1/2+y,z
3 x,-y,1/2+z
4 1/2+x,1/2-y,1/2+z
5 -x,-y,-z
6 1/2-x,1/2-y,-z
7 -x,y,1/2-z
8 1/2-x,1/2+y,1/2-z
_cell_length_a                   24.840(7)
_cell_length_b                   50.544(13)
_cell_length_c                   48.629(12)
_cell_angle_alpha                90
_cell_angle_beta                 102.003(5)
_cell_angle_gamma                90
_cell_volume                     59719.5
_exptl_crystal_colour            green
_exptl_crystal_description       block
_cell_formula_units_Z            4
loop_
_atom_site_label
_atom_site_type_symbol
_atom_site_fract_x
_atom_site_fract_y
_atom_site_fract_z
B1 B 0.5994(4) 0.0986(2) 0.3045(2)
F1 F 0.6496(3) 0.10016(16) 0.29798(16)
F2 F 0.5640(3) 0.11691(13) 0.28951(14)
F3 F 0.6057(3) 0.10436(14) 0.33294(14)
F4 F 0.5792(3) 0.07425(13) 0.29962(14)
C215 C 0.6383(5) 0.9408(2) 0.5256(2)
N55 N 0.5893(4) 0.95579(19) 0.5231(2)
O1 O 0.5551(4) 0.95730(17) 0.50147(18)
O2 O 0.5797(4) 0.96510(17) 0.54517(18)
Cu1 Cu 0.43848(5) -0.01897(2) 0.08626(2)
Cu2 Cu 0.20803(5) -0.02201(2) 0.23106(2)
Cu3 Cu 0.12938(4) 0.10904(2) 0.068673(19)
Cu4 Cu 0.22581(5) 0.15963(2) 0.39975(2)
Cu5 Cu 0.21161(5) 0.28889(2) 0.24208(2)
Cu6 Cu 0.47266(5) 0.28777(2) 0.09601(2)
N1 N 0.4106(3) -0.00156(14) 0.04863(15)
C1 C 0.3585(3) -0.00507(18) 0.03486(18)
N2 N 0.3476(3) -0.03164(15) 0.07426(15)
N3 N 0.3040(3) -0.04420(16) 0.08273(17)
C2 C 0.2560(4) -0.0389(2) 0.0647(2)
C3 C 0.2669(4) -0.0239(2) 0.0435(2)
C4 C 0.3245(3) -0.01901(18) 0.05080(18)
C5 C 0.3154(5) -0.0613(2) 0.1076(2)
C6 C 0.3273(4) -0.0471(2) 0.1357(2)
C7 C 0.3532(4) -0.0595(2) 0.1585(2)
C8 C 0.3503(4) -0.01124(19) 0.2163(2)
N4 N 0.2610(3) 0.00689(13) 0.22258(14)
N5 N 0.3143(3) 0.01039(14) 0.21852(15)
C9 C 0.3225(4) 0.03668(18) 0.2152(2)
C10 C 0.2778(4) 0.05033(17) 0.21714(19)
C11 C 0.2397(3) 0.03067(15) 0.22246(17)
N6 N 0.1600(3) 0.00996(13) 0.23035(14)
C12 C 0.1847(3) 0.03350(16) 0.22693(19)
N7 N 0.2552(2) -0.05382(11) 0.22887(12)
C13 C 0.2484(3) -0.06754(15) 0.20414(15)
N8 N 0.1788(3) -0.03640(14) 0.18547(14)
N9 N 0.1440(3) -0.03130(16) 0.15967(16)
C14 C 0.1548(5) -0.0487(2) 0.1405(2)
C15 C 0.1955(4) -0.0646(2) 0.15235(19)
C16 C 0.2099(3) -0.05646(16) 0.18075(16)
C17 C 0.1022(5) -0.0122(2) 0.1562(2)
C18 C 0.1225(4) 0.01702(19) 0.1544(2)
C19 C 0.0898(5) 0.0377(2) 0.1594(2)
C20 C 0.1720(4) 0.09683(17) 0.14676(19)
N10 N 0.1976(3) 0.10430(13) 0.10050(12)
N11 N 0.2116(3) 0.10154(13) 0.12923(13)
C21 C 0.2659(3) 0.10486(18) 0.13821(18)
C22 C 0.2891(3) 0.10833(17) 0.11564(16)
C23 C 0.2447(3) 0.10850(16) 0.09214(14)
N12 N 0.1894(2) 0.11114(12) 0.04645(12)
C24 C 0.2417(3) 0.11256(15) 0.06249(14)
N13 N 0.0680(3) 0.10434(13) 0.09040(14)
C25 C 0.0448(4) 0.07980(17) 0.0906(2)
N14 N 0.1060(3) 0.06426(13) 0.06281(15)
N15 N 0.1209(3) 0.04077(15) 0.05216(16)
C26 C 0.0952(4) 0.0210(2) 0.0633(2)
C27 C 0.0619(4) 0.03065(18) 0.0788(2)
C28 C 0.0700(4) 0.05870(16) 0.07824(19)
C29 C 0.1597(4) 0.0395(2) 0.0354(2)
C30 C 0.2194(4) 0.04260(19) 0.0485(2)
C31 C 0.2595(4) 0.05025(18) 0.0341(2)
C32 C 0.3928(4) 0.05198(19) 0.08773(19)
N16 N 0.4252(3) 0.01094(13) 0.11280(14)
N17 N 0.4093(3) 0.03704(14) 0.11295(15)
N18 N 0.4628(3) -0.03719(14) 0.12414(15)
C33 C 0.4623(4) -0.02144(15) 0.14697(16)
N19 N 0.2912(3) 0.15268(14) 0.43117(13)
C34 C 0.3411(3) 0.15232(16) 0.42362(14)
N20 N 0.2888(3) 0.16408(14) 0.37860(13)
N21 N 0.2995(3) 0.16845(15) 0.35228(15)
C35 C 0.3542(4) 0.16668(19) 0.35314(19)
H1 H 0.3712 0.1694 0.3376
C36 C 0.3808(4) 0.16055(19) 0.37937(18)
C37 C 0.3383(3) 0.15862(17) 0.39467(15)
C38 C 0.2545(4) 0.1733(2) 0.3284(2)
C39 C 0.2327(5) 0.2018(2) 0.3263(2)
C40 C 0.1816(6) 0.2041(3) 0.3126(3)
C41 C 0.1613(6) 0.2803(3) 0.3140(3)
N22 N 0.2163(3) 0.30333(16) 0.28809(16)
N23 N 0.1965(5) 0.3005(2) 0.3130(2)
C42 C 0.2192(5) 0.3203(3) 0.3304(2)
C43 C 0.2515(5) 0.3355(2) 0.3191(2)
C44 C 0.2484(4) 0.3243(2) 0.2915(2)
N24 N 0.2653(3) 0.31901(14) 0.24635(14)
C45 C 0.2724(5) 0.3343(2) 0.2700(2)
N25 N 0.1578(3) 0.25977(15) 0.24107(17)
C46 C 0.1822(4) 0.23478(19) 0.2437(2)
C47 C 0.1495(5) 0.2123(2) 0.2422(3)
C48 C 0.0944(6) 0.2153(3) 0.2366(3)
C49 C 0.0692(6) 0.2399(3) 0.2339(4)
C50 C 0.1035(5) 0.2625(3) 0.2349(3)
N26 N 0.2662(3) 0.25717(14) 0.24978(16)
N27 N 0.3219(3) 0.25175(16) 0.25357(17)
C51 C 0.3282(5) 0.2252(2) 0.2547(3)
C52 C 0.2790(4) 0.21356(19) 0.2510(2)
C53 C 0.2402(3) 0.23479(17) 0.24849(19)
C54 C 0.3629(5) 0.2709(2) 0.2553(2)
C55 C 0.3761(4) 0.2862(2) 0.2846(2)
C56 C 0.3982(5) 0.3087(2) 0.2863(3)
C57 C 0.6002(5) 0.3302(2) 0.1390(2)
N28 N 0.5617(3) 0.30335(14) 0.09810(14)
N29 N 0.6067(3) 0.31565(16) 0.11502(16)
C58 C 0.6501(4) 0.3145(2) 0.1021(2)
C59 C 0.6358(4) 0.3007(2) 0.0786(2)
C60 C 0.5796(3) 0.29398(18) 0.07582(17)
N30 N 0.4914(3) 0.27534(14) 0.05936(14)
C61 C 0.5408(3) 0.28179(18) 0.05410(17)
N31 N 0.4649(3) 0.30130(12) 0.13443(13)
C62 C 0.4769(3) 0.28299(14) 0.15565(15)
N32 N 0.4942(3) 0.25460(12) 0.11964(13)
N33 N 0.5040(3) 0.22815(14) 0.11652(14)
C63 C 0.5103(4) 0.21549(17) 0.14163(17)
C64 C 0.5044(4) 0.23334(16) 0.16135(18)
C65 C 0.4945(3) 0.25795(14) 0.14704(15)
C66 C 0.5077(4) 0.21619(19) 0.08982(19)
C67 C 0.5632(4) 0.21931(18) 0.08174(19)
C68 C 0.5671(4) 0.21014(18) 0.0556(2)
C69 C 0.2834(4) 0.2245(2) 0.4456(2)
N34 N 0.2150(3) 0.20433(14) 0.40851(15)
N35 N 0.2365(3) 0.22632(15) 0.42420(15)
C70 C 0.2088(4) 0.2481(2) 0.4135(2)
C71 C 0.1717(3) 0.21299(16) 0.39004(17)
N36 N 0.1603(3) 0.16981(13) 0.37029(14)
C72 C 0.1391(3) 0.19464(15) 0.37141(17)
N37 N 0.4684(3) -0.04975(14) 0.06652(15)
C73 C 0.5214(3) -0.05014(16) 0.06544(19)
N38 N 0.5321(3) -0.00828(13) 0.08888(15)
N39 N 0.5746(3) 0.00863(14) 0.09954(15)
C74 C 0.6227(4) -0.00106(18) 0.09502(19)
C75 C 0.6130(4) -0.02445(18) 0.08212(19)
C76 C 0.5558(4) -0.02901(17) 0.0784(2)
N40 N 0.1730(3) 0.14396(13) 0.42295(14)
C77 C 0.1627(4) 0.11786(15) 0.42247(18)
C78 C 0.1284(4) 0.10667(18) 0.43905(18)
C79 C 0.1028(4) 0.12355(18) 0.4544(2)
C80 C 0.1111(4) 0.15010(18) 0.4544(2)
C81 C 0.1470(4) 0.15983(18) 0.43836(19)
N41 N 0.2229(3) 0.11288(12) 0.38972(13)
N42 N 0.2420(3) 0.09216(13) 0.37664(14)
C82 C 0.2226(4) 0.06884(19) 0.3835(2)
C83 C 0.1906(5) 0.07411(19) 0.4027(2)
C84 C 0.1908(4) 0.10178(16) 0.40555(18)
N43 N 0.1564(3) -0.04665(14) 0.24758(14)
C85 C 0.1638(4) -0.04938(17) 0.27583(17)
N44 N 0.2337(3) -0.01617(13) 0.28102(13)
N45 N 0.2642(3) -0.00182(13) 0.30236(14)
C86 C 0.2522(4) -0.0094(2) 0.32719(19)
C87 C 0.2134(4) -0.02809(19) 0.32228(18)
C88 C 0.2017(4) -0.03222(17) 0.29280(17)
C89 C 0.3029(4) 0.01894(17) 0.29712(18)
C90 C 0.2776(4) 0.09698(19) 0.3563(2)
C91 C 0.3879(4) 0.04330(17) 0.36674(17)
C92 C 0.3563(4) 0.06471(18) 0.37138(19)
C93 C 0.3099(3) 0.07257(16) 0.35101(17)
C94 C 0.2909(4) 0.05686(17) 0.32806(18)
C95 C 0.3234(3) 0.03564(16) 0.32256(17)
C96 C 0.3700(4) 0.02802(17) 0.34203(18)
C97 C 0.3721(4) 0.08069(18) 0.39808(19)
C98 C 0.2375(4) 0.0637(2) 0.3064(2)
C99 C 0.4035(4) 0.00427(19) 0.3366(2)
N46 N 0.0713(2) 0.12383(11) 0.03570(12)
C100 C 0.0629(3) 0.15050(14) 0.03351(15)
C101 C 0.0221(3) 0.16080(16) 0.01148(16)
C102 C -0.0106(4) 0.14350(16) -0.00686(19)
C103 C -0.0016(3) 0.11682(15) -0.00464(16)
C104 C 0.0391(3) 0.10790(16) 0.01716(15)
N47 N 0.1339(3) 0.15593(12) 0.07459(12)
N48 N 0.1582(3) 0.17642(12) 0.09069(12)
C105 C 0.1382(3) 0.20003(15) 0.07971(16)
H2 H 0.1498 0.2170 0.0870
C106 C 0.0989(3) 0.19503(15) 0.05659(16)
C107 C 0.0976(3) 0.16716(14) 0.05371(15)
N49 N 0.1540(3) 0.31656(13) 0.22431(14)
C108 C 0.1439(4) 0.31997(17) 0.19637(17)
C109 C 0.1101(5) 0.3407(2) 0.1836(2)
C110 C 0.0846(5) 0.3558(2) 0.2008(2)
C111 C 0.0944(4) 0.35274(19) 0.2290(2)
C112 C 0.1293(4) 0.33243(17) 0.24012(18)
N50 N 0.2053(3) 0.28422(13) 0.19314(13)
N51 N 0.2214(3) 0.26923(13) 0.17255(13)
C113 C 0.1940(4) 0.27773(19) 0.14720(19)
C114 C 0.1616(4) 0.2986(2) 0.15043(19)
C115 C 0.1681(4) 0.30138(18) 0.18005(18)
N52 N 0.4347(3) 0.32044(12) 0.07658(13)
N53 N 0.3788(3) 0.27648(12) 0.08494(13)
N54 N 0.3398(3) 0.25754(13) 0.08523(14)
C116 C 0.2885(4) 0.26633(18) 0.0737(2)
C117 C 0.2940(4) 0.29155(18) 0.0654(2)
C118 C 0.3505(3) 0.29757(14) 0.07236(17)
C119 C 0.2027(3) 0.17149(17) 0.11480(17)
C120 C 0.2607(4) 0.24864(16) 0.17986(17)
C121 C 0.3550(3) 0.23192(16) 0.09920(17)
C122 C 0.2390(3) 0.19536(15) 0.12340(16)
C123 C 0.2318(3) 0.21050(16) 0.14639(16)
C124 C 0.2674(3) 0.23223(16) 0.15485(17)
C125 C 0.3080(3) 0.23875(16) 0.13982(17)
C126 C 0.3122(3) 0.22371(16) 0.11584(17)
C127 C 0.2784(4) 0.20226(17) 0.10817(17)
C128 C 0.1865(4) 0.20462(18) 0.16181(19)
C129 C 0.3466(4) 0.26167(17) 0.14927(18)
C130 C 0.2836(3) 0.18522(16) 0.08313(16)
C131 C 0.3383(4) 0.0038(2) 0.00747(19)
C132 C 0.3742(4) 0.0174(2) -0.0052(2)
C133 C 0.4279(4) 0.02078(19) 0.00754(18)
C134 C 0.4453(4) 0.01171(17) 0.03477(17)
C135 C 0.1580(4) 0.05739(18) 0.2286(2)
C136 C 0.1056(4) 0.0570(2) 0.2328(2)
C137 C 0.0801(5) 0.0334(2) 0.2367(2)
C138 C 0.1089(4) 0.00999(19) 0.2356(2)
C139 C 0.2772(4) -0.09062(17) 0.20273(18)
C140 C 0.3117(4) -0.10024(19) 0.22584(19)
C141 C 0.3180(4) -0.08725(18) 0.25131(19)
C142 C 0.2898(3) -0.06366(16) 0.25165(17)
C143 C 0.2869(3) 0.11730(17) 0.05055(16)
C144 C 0.2798(3) 0.11962(17) 0.02202(16)
C145 C 0.2279(3) 0.11783(17) 0.00552(17)
C146 C 0.1839(3) 0.11327(16) 0.01804(15)
C147 C -0.0010(4) 0.0767(2) 0.1031(2)
C148 C -0.0221(5) 0.0978(2) 0.1143(2)
C149 C -0.0001(4) 0.1223(2) 0.1139(2)
C150 C 0.0445(4) 0.12472(17) 0.10049(18)
C151 C 0.4157(4) 0.04551(18) 0.13998(18)
C152 C 0.4336(4) 0.02594(17) 0.15752(18)
C153 C 0.4403(4) 0.00427(14) 0.14009(16)
C154 C 0.4832(4) -0.03036(18) 0.17408(18)
C155 C 0.5045(4) -0.05514(19) 0.1772(2)
C156 C 0.5005(5) -0.0722(2) 0.1550(2)
C157 C 0.4820(4) -0.06186(19) 0.1282(2)
C158 C 0.3888(4) 0.14551(18) 0.44227(17)
C159 C 0.3855(4) 0.1407(2) 0.4698(2)
C160 C 0.3368(4) 0.1424(2) 0.4780(2)
C161 C 0.2894(4) 0.14860(18) 0.45848(17)
C162 C 0.3041(4) -0.02195(19) 0.1377(2)
C163 C 0.3117(4) -0.00965(18) 0.16398(18)
C164 C 0.3388(4) -0.02268(18) 0.18621(18)
C165 C 0.3607(4) -0.0482(2) 0.1836(2)
C166 C 0.1714(4) 0.0217(2) 0.1465(2)
C167 C 0.1877(4) 0.04797(19) 0.14276(19)
C168 C 0.1553(4) 0.06880(18) 0.14864(18)
C169 C 0.1048(4) 0.0633(2) 0.1562(2)
C170 C 0.2395(4) 0.03764(18) 0.07797(19)
C171 C 0.2928(4) 0.04054(17) 0.0894(2)
C172 C 0.3306(4) 0.04765(17) 0.07457(18)
C173 C 0.3134(4) 0.0533(2) 0.0455(2)
C174 C 0.2626(5) 0.2219(2) 0.3369(2)
C175 C 0.2399(5) 0.2481(3) 0.3328(3)
C176 C 0.1860(6) 0.2509(3) 0.3185(3)
C177 C 0.1577(6) 0.2315(3) 0.3090(3)
C178 C 0.3063(6) 0.3571(3) 0.2720(3)
C179 C 0.3237(8) 0.3652(3) 0.2488(3)
C180 C 0.3157(7) 0.3510(3) 0.2242(3)
C181 C 0.2887(5) 0.3266(2) 0.2253(2)
C182 C 0.3588(5) 0.2738(2) 0.3062(2)
C183 C 0.3678(5) 0.2885(2) 0.3334(2)
C184 C 0.6080(4) 0.3119(2) 0.1655(2)
C185 C 0.4081(5) 0.3228(3) 0.3116(3)
C186 C 0.5542(4) 0.2749(2) 0.02798(19)
C187 C 0.5153(4) 0.2627(2) 0.0087(2)
C188 C 0.4642(4) 0.2566(2) 0.0126(2)
C189 C 0.4533(4) 0.2640(2) 0.03885(19)
C190 C 0.4727(4) 0.28828(16) 0.18365(16)
C191 C 0.4551(4) 0.31283(17) 0.18883(19)
C192 C 0.4428(4) 0.33175(18) 0.16838(18)
C193 C 0.4477(4) 0.32490(16) 0.14112(17)
C194 C 0.6068(4) 0.22985(19) 0.0987(2)
C195 C 0.6569(4) 0.23077(19) 0.0909(2)
C196 C 0.3382(4) 0.2221(2) 0.4353(2)
C197 C 0.6174(4) 0.21171(19) 0.0480(2)
C198 C 0.0884(4) 0.20110(18) 0.35480(19)
C199 C 0.0597(4) 0.18299(19) 0.3370(2)
C200 C 0.0807(4) 0.1581(2) 0.3353(2)
C201 C 0.1316(4) 0.15212(17) 0.35260(18)
C202 C 0.5433(4) -0.07165(18) 0.0525(2)
C203 C 0.5091(4) -0.0922(2) 0.0422(2)
C204 C 0.4550(4) -0.0916(2) 0.0430(2)
C205 C 0.4355(4) -0.06954(18) 0.0552(2)
C206 C 0.1307(4) -0.0673(2) 0.2868(2)
C207 C 0.0907(5) -0.0817(2) 0.2698(2)
C208 C 0.0855(4) -0.0799(2) 0.2415(2)
C209 C 0.1197(4) -0.06201(17) 0.23149(19)
C210 C 0.3794(3) 0.32164(15) 0.06946(18)
C211 C 0.3518(4) 0.34526(16) 0.05933(19)
C212 C 0.3820(4) 0.36719(18) 0.0570(2)
C213 C 0.4383(4) 0.36657(17) 0.06385(19)
C214 C 0.4633(4) 0.34250(15) 0.07286(18)
C195F C 0.3431(4) 0.23077(19) 0.4091(2)
C194F C 0.3932(4) 0.22985(19) 0.4013(2)
C67F C 0.4368(4) 0.21931(18) 0.41826(19)
C66F C 0.4923(4) 0.21619(19) 0.41018(19)
N33F N 0.4960(3) 0.22815(14) 0.38348(14)
N32F N 0.5058(3) 0.25460(12) 0.38036(13)
Cu6F Cu 0.52734(5) 0.28777(2) 0.40399(2)
N28F N 0.4383(3) 0.30335(14) 0.40190(14)
N29F N 0.3933(3) 0.31565(16) 0.38498(16)
C57F C 0.3998(5) 0.3302(2) 0.3610(2)
C184F C 0.3920(4) 0.3119(2) 0.3345(2)
C183F C 0.6322(5) 0.2885(2) 0.1666(2)
C182F C 0.6412(5) 0.2738(2) 0.1938(2)
C55F C 0.6239(4) 0.2862(2) 0.2154(2)
C54F C 0.6371(5) 0.2709(2) 0.2447(2)
N27F N 0.6781(3) 0.25175(16) 0.24643(17)
N26F N 0.7338(3) 0.25717(14) 0.25022(16)
Cu5F Cu 0.78839(5) 0.28889(2) 0.25792(2)
N22F N 0.7837(3) 0.30333(16) 0.21191(16)
N23F N 0.8035(5) 0.3005(2) 0.1870(2)
C41F C 0.8387(6) 0.2803(3) 0.1860(3)
C176F C 0.8140(6) 0.2509(3) 0.1815(3)
C175F C 0.7601(5) 0.2481(3) 0.1672(3)
C174F C 0.7374(5) 0.2219(2) 0.1631(2)
C39F C 0.7673(5) 0.2018(2) 0.1737(2)
C38F C 0.7455(4) 0.1733(2) 0.1716(2)
N21F N 0.7005(3) 0.16845(15) 0.14772(15)
N20F N 0.7112(3) 0.16408(14) 0.12140(13)
Cu4F Cu 0.77419(5) 0.15963(2) 0.10025(2)
N19F N 0.7088(3) 0.15268(14) 0.06883(13)
C34F C 0.6589(3) 0.15232(16) 0.07638(14)
C37F C 0.6617(3) 0.15862(17) 0.10533(15)
C36F C 0.6192(4) 0.16055(19) 0.12063(18)
C35F C 0.6458(4) 0.16668(19) 0.14686(19)
H1F H 0.6288 0.1694 0.1624
C158F C 0.6112(4) 0.14551(18) 0.05773(17)
C159F C 0.6145(4) 0.1407(2) 0.0302(2)
C160F C 0.6632(4) 0.1424(2) 0.0220(2)
C161F C 0.7106(4) 0.14860(18) 0.04152(17)
N34F N 0.7850(3) 0.20433(14) 0.09149(15)
N35F N 0.7635(3) 0.22632(15) 0.07580(15)
C69F C 0.7166(4) 0.2245(2) 0.0544(2)
C196F C 0.6618(4) 0.2221(2) 0.0647(2)
C70F C 0.7912(4) 0.2481(2) 0.0865(2)
C71F C 0.8283(3) 0.21299(16) 0.10996(17)
C72F C 0.8609(3) 0.19464(15) 0.12859(17)
N36F N 0.8397(3) 0.16981(13) 0.12971(14)
N40F N 0.8270(3) 0.14396(13) 0.07705(14)
C77F C 0.8373(4) 0.11786(15) 0.07753(18)
C78F C 0.8716(4) 0.10667(18) 0.06095(18)
C79F C 0.8972(4) 0.12355(18) 0.0456(2)
C80F C 0.8889(4) 0.15010(18) 0.0456(2)
C81F C 0.8530(4) 0.15983(18) 0.06164(19)
C84F C 0.8092(4) 0.10178(16) 0.09445(18)
N41F N 0.7771(3) 0.11288(12) 0.11028(13)
N42F N 0.7580(3) 0.09216(13) 0.12336(14)
C82F C 0.7774(4) 0.06884(19) 0.1165(2)
C83F C 0.8094(5) 0.07411(19) 0.0973(2)
C90F C 0.7224(4) 0.09698(19) 0.1437(2)
C93F C 0.6901(3) 0.07257(16) 0.14899(17)
C92F C 0.6437(4) 0.06471(18) 0.12862(19)
C91F C 0.6121(4) 0.04330(17) 0.13326(17)
C96F C 0.6300(4) 0.02802(17) 0.15797(18)
C95F C 0.6766(3) 0.03564(16) 0.17744(17)
C89F C 0.6971(4) 0.01894(17) 0.20288(18)
N45F N 0.7358(3) -0.00182(13) 0.19764(14)
N44F N 0.7663(3) -0.01617(13) 0.21898(13)
Cu2F Cu 0.79197(5) -0.02201(2) 0.26894(2)
N4F N 0.7390(3) 0.00689(13) 0.27742(14)
N5F N 0.6857(3) 0.01039(14) 0.28148(15)
C8F C 0.6497(4) -0.01124(19) 0.2837(2)
C164F C 0.6612(4) -0.02268(18) 0.31379(18)
C163F C 0.6883(4) -0.00965(18) 0.33602(18)
C162F C 0.6959(4) -0.02195(19) 0.3623(2)
C6F C 0.6727(4) -0.0471(2) 0.3643(2)
C5F C 0.6846(5) -0.0613(2) 0.3924(2)
N3F N 0.6960(3) -0.04420(16) 0.41727(17)
N2F N 0.6524(3) -0.03164(15) 0.42574(15)
Cu1F Cu 0.56152(5) -0.01897(2) 0.41374(2)
N1F N 0.5894(3) -0.00156(14) 0.45137(15)
C1F C 0.6415(3) -0.00507(18) 0.46514(18)
C4F C 0.6755(3) -0.01901(18) 0.44920(18)
C3F C 0.7331(4) -0.0239(2) 0.4565(2)
C2F C 0.7440(4) -0.0389(2) 0.4353(2)
C131F C 0.6617(4) 0.0038(2) 0.49253(19)
C132F C 0.6258(4) 0.0174(2) 0.5052(2)
C133F C 0.5721(4) 0.02078(19) 0.49246(18)
C134F C 0.5547(4) 0.01171(17) 0.46523(17)
N16F N 0.5748(3) 0.01094(13) 0.38720(14)
N17F N 0.5907(3) 0.03704(14) 0.38705(15)
C32F C 0.6072(4) 0.05198(19) 0.41227(19)
C172F C 0.6694(4) 0.04765(17) 0.42543(18)
C171F C 0.7072(4) 0.04054(17) 0.4106(2)
C170F C 0.7605(4) 0.03764(18) 0.42203(19)
C30F C 0.7806(4) 0.04260(19) 0.4515(2)
C29F C 0.8403(4) 0.0395(2) 0.4646(2)
N15F N 0.8791(3) 0.04077(15) 0.44784(16)
N14F N 0.8940(3) 0.06426(13) 0.43719(15)
Cu3F Cu 0.87062(4) 0.10904(2) 0.431327(19)
N10F N 0.8024(3) 0.10430(13) 0.39950(12)
N11F N 0.7884(3) 0.10154(13) 0.37077(13)
C20F C 0.8280(4) 0.09683(17) 0.35324(19)
C168F C 0.8447(4) 0.06880(18) 0.35136(18)
C167F C 0.8123(4) 0.04797(19) 0.35724(19)
C166F C 0.8286(4) 0.0217(2) 0.3535(2)
C18F C 0.8775(4) 0.01702(19) 0.3456(2)
C17F C 0.8978(5) -0.0122(2) 0.3438(2)
N9F N 0.8560(3) -0.03130(16) 0.34033(16)
N8F N 0.8212(3) -0.03640(14) 0.31453(14)
N6F N 0.8400(3) 0.00996(13) 0.26965(14)
C12F C 0.8153(3) 0.03350(16) 0.27307(19)
C11F C 0.7603(3) 0.03067(15) 0.27754(17)
C10F C 0.7222(4) 0.05033(17) 0.28286(19)
C9F C 0.6775(4) 0.03668(18) 0.2848(2)
C135F C 0.8420(4) 0.05739(18) 0.2714(2)
C136F C 0.8944(4) 0.0570(2) 0.2672(2)
C137F C 0.9199(5) 0.0334(2) 0.2633(2)
C138F C 0.8911(4) 0.00999(19) 0.2644(2)
N7F N 0.7448(2) -0.05382(11) 0.27113(12)
C13F C 0.7516(3) -0.06754(15) 0.29586(15)
C16F C 0.7901(3) -0.05646(16) 0.31925(16)
C15F C 0.8045(4) -0.0646(2) 0.34765(19)
C14F C 0.8452(5) -0.0487(2) 0.3595(2)
C139F C 0.7228(4) -0.09062(17) 0.29727(18)
C140F C 0.6883(4) -0.10024(19) 0.27416(19)
C141F C 0.6820(4) -0.08725(18) 0.24869(19)
C142F C 0.7102(3) -0.06366(16) 0.24835(17)
N43F N 0.8436(3) -0.04665(14) 0.25242(14)
C85F C 0.8362(4) -0.04938(17) 0.22417(17)
C88F C 0.7983(4) -0.03222(17) 0.20720(17)
C87F C 0.7866(4) -0.02809(19) 0.17772(18)
C86F C 0.7478(4) -0.0094(2) 0.17281(19)
C206F C 0.8693(4) -0.0673(2) 0.2132(2)
C207F C 0.9093(5) -0.0817(2) 0.2302(2)
C208F C 0.9145(4) -0.0799(2) 0.2585(2)
C209F C 0.8803(4) -0.06201(17) 0.26851(19)
C19F C 0.9102(5) 0.0377(2) 0.3406(2)
C169F C 0.8952(4) 0.0633(2) 0.3438(2)
C21F C 0.7341(3) 0.10486(18) 0.36179(18)
C22F C 0.7109(3) 0.10833(17) 0.38436(16)
C23F C 0.7553(3) 0.10850(16) 0.40786(14)
C24F C 0.7583(3) 0.11256(15) 0.43751(14)
N12F N 0.8106(2) 0.11114(12) 0.45355(12)
N13F N 0.9320(3) 0.10434(13) 0.40960(14)
C25F C 0.9552(4) 0.07980(17) 0.4094(2)
C28F C 0.9300(4) 0.05870(16) 0.42176(19)
C27F C 0.9381(4) 0.03065(18) 0.4212(2)
C26F C 0.9048(4) 0.0210(2) 0.4367(2)
C147F C 1.0010(4) 0.0767(2) 0.3969(2)
C148F C 1.0221(5) 0.0978(2) 0.3857(2)
C149F C 1.0001(4) 0.1223(2) 0.3861(2)
C150F C 0.9555(4) 0.12472(17) 0.39951(18)
N46F N 0.9287(2) 0.12383(11) 0.46430(12)
C100F C 0.9371(3) 0.15050(14) 0.46649(15)
C101F C 0.9779(3) 0.16080(16) 0.48852(16)
C102F C 1.0106(4) 0.14350(16) 0.50686(19)
C103F C 1.0016(3) 0.11682(15) 0.50464(16)
C104F C 0.9609(3) 0.10790(16) 0.48284(15)
C107F C 0.9024(3) 0.16716(14) 0.44629(15)
N47F N 0.8661(3) 0.15593(12) 0.42541(12)
N48F N 0.8418(3) 0.17642(12) 0.40931(12)
C105F C 0.8618(3) 0.20003(15) 0.42029(16)
H2F H 0.8502 0.2170 0.4130
C106F C 0.9011(3) 0.19503(15) 0.44341(16)
C119F C 0.7973(3) 0.17149(17) 0.38520(17)
C122F C 0.7610(3) 0.19536(15) 0.37660(16)
C123F C 0.7682(3) 0.21050(16) 0.35361(16)
C124F C 0.7326(3) 0.23223(16) 0.34515(17)
C120F C 0.7393(4) 0.24864(16) 0.32014(17)
N51F N 0.7786(3) 0.26923(13) 0.32745(13)
N50F N 0.7947(3) 0.28422(13) 0.30686(13)
N24F N 0.7347(3) 0.31901(14) 0.25365(14)
C45F C 0.7276(5) 0.3343(2) 0.2300(2)
C44F C 0.7516(4) 0.3243(2) 0.2085(2)
C43F C 0.7485(5) 0.3355(2) 0.1809(2)
C42F C 0.7808(5) 0.3203(3) 0.1696(2)
C178F C 0.6937(6) 0.3571(3) 0.2280(3)
C179F C 0.6763(8) 0.3652(3) 0.2512(3)
C180F C 0.6843(7) 0.3510(3) 0.2758(3)
C181F C 0.7113(5) 0.3266(2) 0.2747(2)
N25F N 0.8422(3) 0.25977(15) 0.25893(17)
C46F C 0.8178(4) 0.23478(19) 0.2563(2)
C47F C 0.8505(5) 0.2123(2) 0.2578(3)
C48F C 0.9056(6) 0.2153(3) 0.2634(3)
C49F C 0.9308(6) 0.2399(3) 0.2661(4)
C50F C 0.8965(5) 0.2625(3) 0.2651(3)
C53F C 0.7598(3) 0.23479(17) 0.25151(19)
C52F C 0.7210(4) 0.21356(19) 0.2490(2)
C51F C 0.6718(5) 0.2252(2) 0.2453(3)
N49F N 0.8460(3) 0.31656(13) 0.27569(14)
C108F C 0.8561(4) 0.31997(17) 0.30363(17)
C109F C 0.8899(5) 0.3407(2) 0.3164(2)
C110F C 0.9154(5) 0.3558(2) 0.2992(2)
C111F C 0.9056(4) 0.35274(19) 0.2710(2)
C112F C 0.8707(4) 0.33243(17) 0.25988(18)
C115F C 0.8319(4) 0.30138(18) 0.31995(18)
C114F C 0.8384(4) 0.2986(2) 0.34957(19)
C113F C 0.8060(4) 0.27773(19) 0.35280(19)
C125F C 0.6920(3) 0.23875(16) 0.36018(17)
C126F C 0.6878(3) 0.22371(16) 0.38416(17)
C121F C 0.6450(3) 0.23192(16) 0.40080(17)
N54F N 0.6602(3) 0.25754(13) 0.41477(14)
N53F N 0.6212(3) 0.27648(12) 0.41506(13)
N30F N 0.5086(3) 0.27534(14) 0.44064(14)
C61F C 0.4592(3) 0.28179(18) 0.44590(17)
C60F C 0.4204(3) 0.29398(18) 0.42418(17)
C59F C 0.3642(4) 0.3007(2) 0.4214(2)
C58F C 0.3499(4) 0.3145(2) 0.3979(2)
C186F C 0.4458(4) 0.2749(2) 0.47202(19)
C187F C 0.4847(4) 0.2627(2) 0.4913(2)
C188F C 0.5358(4) 0.2566(2) 0.4874(2)
C189F C 0.5467(4) 0.2640(2) 0.46115(19)
N31F N 0.5351(3) 0.30130(12) 0.36557(13)
C62F C 0.5231(3) 0.28299(14) 0.34435(15)
C65F C 0.5055(3) 0.25795(14) 0.35296(15)
C64F C 0.4956(4) 0.23334(16) 0.33865(18)
C63F C 0.4897(4) 0.21549(17) 0.35837(17)
C190F C 0.5273(4) 0.28828(16) 0.31635(16)
C191F C 0.5449(4) 0.31283(17) 0.31117(19)
C192F C 0.5572(4) 0.33175(18) 0.33162(18)
C193F C 0.5523(4) 0.32490(16) 0.35888(17)
N52F N 0.5653(3) 0.32044(12) 0.42342(13)
C210F C 0.6206(3) 0.32164(15) 0.43054(18)
C118F C 0.6495(3) 0.29757(14) 0.42764(17)
C117F C 0.7060(4) 0.29155(18) 0.4346(2)
C116F C 0.7115(4) 0.26633(18) 0.4263(2)
C211F C 0.6482(4) 0.34526(16) 0.44067(19)
C212F C 0.6180(4) 0.36719(18) 0.4430(2)
C213F C 0.5617(4) 0.36657(17) 0.43615(19)
C214F C 0.5367(4) 0.34250(15) 0.42714(18)
C127F C 0.7216(4) 0.20226(17) 0.39183(17)
C130F C 0.7164(3) 0.18522(16) 0.41687(16)
C129F C 0.6534(4) 0.26167(17) 0.35073(18)
C128F C 0.8135(4) 0.20462(18) 0.33819(19)
C146F C 0.8161(3) 0.11327(16) 0.48196(15)
C145F C 0.7721(3) 0.11783(17) 0.49448(17)
C144F C 0.7202(3) 0.11962(17) 0.47798(16)
C143F C 0.7131(3) 0.11730(17) 0.44945(16)
C31F C 0.7405(4) 0.05025(18) 0.4659(2)
C173F C 0.6866(4) 0.0533(2) 0.4545(2)
C151F C 0.5843(4) 0.04551(18) 0.36002(18)
C152F C 0.5664(4) 0.02594(17) 0.34248(18)
C153F C 0.5597(4) 0.00427(14) 0.35991(16)
C33F C 0.5377(4) -0.02144(15) 0.35303(16)
N18F N 0.5372(3) -0.03719(14) 0.37586(15)
N37F N 0.5316(3) -0.04975(14) 0.43348(15)
C73F C 0.4786(3) -0.05014(16) 0.43456(19)
C76F C 0.4442(4) -0.02901(17) 0.4216(2)
N38F N 0.4679(3) -0.00828(13) 0.41112(15)
N39F N 0.4254(3) 0.00863(14) 0.40046(15)
C74F C 0.3773(4) -0.00106(18) 0.40498(19)
C75F C 0.3870(4) -0.02445(18) 0.41788(19)
C202F C 0.4567(4) -0.07165(18) 0.4475(2)
C203F C 0.4909(4) -0.0922(2) 0.4578(2)
C204F C 0.5450(4) -0.0916(2) 0.4570(2)
C205F C 0.5645(4) -0.06954(18) 0.4448(2)
C157F C 0.5180(4) -0.06186(19) 0.3718(2)
C156F C 0.4995(5) -0.0722(2) 0.3450(2)
C155F C 0.4955(4) -0.05514(19) 0.3228(2)
C154F C 0.5168(4) -0.03036(18) 0.32592(18)
C7F C 0.6468(4) -0.0595(2) 0.3415(2)
C165F C 0.6393(4) -0.0482(2) 0.3164(2)
C94F C 0.7091(4) 0.05686(17) 0.17194(18)
C98F C 0.7625(4) 0.0637(2) 0.1936(2)
C99F C 0.5965(4) 0.00427(19) 0.1634(2)
C97F C 0.6279(4) 0.08069(18) 0.10192(19)
C201F C 0.8684(4) 0.15212(17) 0.14740(18)
C200F C 0.9193(4) 0.1581(2) 0.1647(2)
C199F C 0.9403(4) 0.18299(19) 0.1630(2)
C198F C 0.9116(4) 0.20110(18) 0.14520(19)
C40F C 0.8184(6) 0.2041(3) 0.1874(3)
C177F C 0.8423(6) 0.2315(3) 0.1910(3)
C56F C 0.6018(5) 0.3087(2) 0.2137(3)
C185F C 0.5919(5) 0.3228(3) 0.1884(3)
C68F C 0.4329(4) 0.21014(18) 0.4444(2)
C197F C 0.3826(4) 0.21171(19) 0.4520(2)
loop_
_geom_bond_atom_site_label_1
_geom_bond_atom_site_label_2
_geom_bond_site_symmetry_1
_geom_bond_site_symmetry_2
Cu1 N1 1_555 1_555
Cu2 N4 1_555 1_555
Cu3 N10 1_555 1_555
Cu4 N19 1_555 1_555
Cu5 N22 1_555 1_555
Cu6 N28 1_555 1_555
N1 C1 1_555 1_555
C1 C4 1_555 1_555
N2 Cu1 1_555 1_555
N3 N2 1_555 1_555
C2 N3 1_555 1_555
C3 C2 1_555 1_555
C4 N2 1_555 1_555
C5 N3 1_555 1_555
C6 C5 1_555 1_555
C7 C6 1_555 1_555
C8 N5 1_555 1_555
N4 N5 1_555 1_555
N5 C9 1_555 1_555
C9 C10 1_555 1_555
C10 C11 1_555 1_555
C11 N4 1_555 1_555
N6 Cu2 1_555 1_555
C12 C11 1_555 1_555
N7 Cu2 1_555 1_555
C13 N7 1_555 1_555
N8 Cu2 1_555 1_555
N9 N8 1_555 1_555
C14 N9 1_555 1_555
C15 C14 1_555 1_555
C16 C13 1_555 1_555
C17 N9 1_555 1_555
C18 C17 1_555 1_555
C19 C18 1_555 1_555
C20 N11 1_555 1_555
N10 N11 1_555 1_555
N11 C21 1_555 1_555
C21 C22 1_555 1_555
C22 C23 1_555 1_555
C23 N10 1_555 1_555
N12 Cu3 1_555 1_555
C24 C23 1_555 1_555
N13 Cu3 1_555 1_555
C25 N13 1_555 1_555
N14 Cu3 1_555 1_555
N15 N14 1_555 1_555
C26 N15 1_555 1_555
C27 C26 1_555 1_555
C28 C25 1_555 1_555
C29 N15 1_555 1_555
C30 C29 1_555 1_555
C31 C30 1_555 1_555
C32 N17 1_555 1_555
N16 Cu1 1_555 1_555
N17 N16 1_555 1_555
N18 Cu1 1_555 1_555
C33 N18 1_555 1_555
N19 C34 1_555 1_555
C34 C37 1_555 1_555
N20 Cu4 1_555 1_555
N21 N20 1_555 1_555
C35 N21 1_555 1_555
H1 C35 1_555 1_555
C36 C35 1_555 1_555
C37 N20 1_555 1_555
C38 N21 1_555 1_555
C39 C38 1_555 1_555
C40 C39 1_555 1_555
C41 N23 1_555 1_555
N22 N23 1_555 1_555
N23 C42 1_555 1_555
C42 C43 1_555 1_555
C43 C44 1_555 1_555
C44 N22 1_555 1_555
N24 Cu5 1_555 1_555
C45 C44 1_555 1_555
N25 Cu5 1_555 1_555
C46 N25 1_555 1_555
C47 C46 1_555 1_555
C48 C47 1_555 1_555
C49 C48 1_555 1_555
C50 N25 1_555 1_555
N26 Cu5 1_555 1_555
N27 N26 1_555 1_555
C51 N27 1_555 1_555
C52 C51 1_555 1_555
C53 C46 1_555 1_555
C54 N27 1_555 1_555
C55 C54 1_555 1_555
C56 C55 1_555 1_555
C57 N29 1_555 1_555
N28 N29 1_555 1_555
N29 C58 1_555 1_555
C58 C59 1_555 1_555
C59 C60 1_555 1_555
C60 N28 1_555 1_555
N30 Cu6 1_555 1_555
C61 C60 1_555 1_555
N31 Cu6 1_555 1_555
C62 N31 1_555 1_555
N32 Cu6 1_555 1_555
N33 N32 1_555 1_555
C63 N33 1_555 1_555
C64 C63 1_555 1_555
C65 C62 1_555 1_555
C66 N33 1_555 1_555
C67 C66 1_555 1_555
C68 C67 1_555 1_555
C69 N35 1_555 1_555
N34 Cu4 1_555 1_555
N35 N34 1_555 1_555
C70 N35 1_555 1_555
C71 N34 1_555 1_555
N36 Cu4 1_555 1_555
C72 C71 1_555 1_555
N37 Cu1 1_555 1_555
C73 N37 1_555 1_555
N38 Cu1 1_555 1_555
N39 N38 1_555 1_555
C74 N39 1_555 1_555
C75 C74 1_555 1_555
C76 C73 1_555 1_555
N40 Cu4 1_555 1_555
C77 N40 1_555 1_555
C78 C77 1_555 1_555
C79 C78 1_555 1_555
C80 C79 1_555 1_555
C81 N40 1_555 1_555
N41 Cu4 1_555 1_555
N42 N41 1_555 1_555
C82 N42 1_555 1_555
C83 C82 1_555 1_555
C84 C77 1_555 1_555
N43 Cu2 1_555 1_555
C85 N43 1_555 1_555
N44 Cu2 1_555 1_555
N45 N44 1_555 1_555
C86 N45 1_555 1_555
C87 C86 1_555 1_555
C88 C85 1_555 1_555
C89 N45 1_555 1_555
C90 N42 1_555 1_555
C91 C92 1_555 1_555
C92 C93 1_555 1_555
C93 C90 1_555 1_555
C94 C93 1_555 1_555
C95 C89 1_555 1_555
C96 C91 1_555 1_555
C97 C92 1_555 1_555
C98 C94 1_555 1_555
C99 C96 1_555 1_555
N46 Cu3 1_555 1_555
C100 N46 1_555 1_555
C101 C100 1_555 1_555
C102 C101 1_555 1_555
C103 C102 1_555 1_555
C104 N46 1_555 1_555
N47 Cu3 1_555 1_555
N48 N47 1_555 1_555
C105 N48 1_555 1_555
H2 C105 1_555 1_555
C106 C105 1_555 1_555
C107 C100 1_555 1_555
N49 Cu5 1_555 1_555
C108 N49 1_555 1_555
C109 C108 1_555 1_555
C110 C109 1_555 1_555
C111 C110 1_555 1_555
C112 N49 1_555 1_555
N50 Cu5 1_555 1_555
N51 N50 1_555 1_555
C113 N51 1_555 1_555
C114 C113 1_555 1_555
C115 C108 1_555 1_555
N52 Cu6 1_555 1_555
N53 Cu6 1_555 1_555
N54 N53 1_555 1_555
C116 N54 1_555 1_555
C117 C116 1_555 1_555
C118 N53 1_555 1_555
C119 N48 1_555 1_555
C120 N51 1_555 1_555
C121 N54 1_555 1_555
C122 C119 1_555 1_555
C123 C122 1_555 1_555
C124 C120 1_555 1_555
C125 C124 1_555 1_555
C126 C121 1_555 1_555
C127 C122 1_555 1_555
C128 C123 1_555 1_555
C129 C125 1_555 1_555
C130 C127 1_555 1_555
C131 C1 1_555 1_555
C132 C131 1_555 1_555
C133 C132 1_555 1_555
C134 N1 1_555 1_555
C135 C12 1_555 1_555
C136 C135 1_555 1_555
C137 C136 1_555 1_555
C138 N6 1_555 1_555
C139 C13 1_555 1_555
C140 C139 1_555 1_555
C141 C140 1_555 1_555
C142 N7 1_555 1_555
C143 C24 1_555 1_555
C144 C143 1_555 1_555
C145 C144 1_555 1_555
C146 N12 1_555 1_555
C147 C25 1_555 1_555
C148 C147 1_555 1_555
C149 C148 1_555 1_555
C150 N13 1_555 1_555
C151 N17 1_555 1_555
C152 C151 1_555 1_555
C153 N16 1_555 1_555
C154 C33 1_555 1_555
C155 C154 1_555 1_555
C156 C155 1_555 1_555
C157 N18 1_555 1_555
C158 C34 1_555 1_555
C159 C158 1_555 1_555
C160 C159 1_555 1_555
C161 N19 1_555 1_555
C162 C6 1_555 1_555
C163 C162 1_555 1_555
C164 C8 1_555 1_555
C165 C7 1_555 1_555
C166 C18 1_555 1_555
C167 C166 1_555 1_555
C168 C20 1_555 1_555
C169 C19 1_555 1_555
C170 C30 1_555 1_555
C171 C170 1_555 1_555
C172 C32 1_555 1_555
C173 C31 1_555 1_555
C174 C39 1_555 1_555
C175 C174 1_555 1_555
C176 C41 1_555 1_555
C177 C40 1_555 1_555
C178 C45 1_555 1_555
C179 C178 1_555 1_555
C180 C179 1_555 1_555
C181 N24 1_555 1_555
C182 C55 1_555 1_555
C183 C182 1_555 1_555
C184 C57 1_555 1_555
C185 C56 1_555 1_555
C186 C61 1_555 1_555
C187 C186 1_555 1_555
C188 C187 1_555 1_555
C189 N30 1_555 1_555
C190 C62 1_555 1_555
C191 C190 1_555 1_555
C192 C191 1_555 1_555
C193 N31 1_555 1_555
C194 C67 1_555 1_555
C195 C194 1_555 1_555
C196 C69 1_555 1_555
C197 C68 1_555 1_555
C198 C72 1_555 1_555
C199 C198 1_555 1_555
C200 C199 1_555 1_555
C201 N36 1_555 1_555
C202 C73 1_555 1_555
C203 C202 1_555 1_555
C204 C203 1_555 1_555
C205 N37 1_555 1_555
C206 C85 1_555 1_555
C207 C206 1_555 1_555
C208 C207 1_555 1_555
C209 N43 1_555 1_555
C210 N52 1_555 1_555
C211 C210 1_555 1_555
C212 C211 1_555 1_555
C213 C212 1_555 1_555
C214 N52 1_555 1_555
B1 F1 1_555 1_555
F2 B1 1_555 1_555
F3 B1 1_555 1_555
F4 B1 1_555 1_555
C215 N55 1_555 1_555
N55 O1 1_555 1_555
O2 N55 1_555 1_555
C195F C196 1_555 1_555
C194F C195F 1_555 1_555
C67F C194F 1_555 1_555
C66F C67F 1_555 1_555
N33F C66F 1_555 1_555
N32F N33F 1_555 1_555
Cu6F N32F 1_555 1_555
N28F Cu6F 1_555 1_555
N29F N28F 1_555 1_555
C57F N29F 1_555 1_555
C184F C183 1_555 1_555
C183F C184 1_555 1_555
C182F C183F 1_555 1_555
C55F C182F 1_555 1_555
C54F C55F 1_555 1_555
N27F C54F 1_555 1_555
N26F N27F 1_555 1_555
Cu5F N26F 1_555 1_555
N22F Cu5F 1_555 1_555
N23F N22F 1_555 1_555
C41F N23F 1_555 1_555
C176F C41F 1_555 1_555
C175F C176F 1_555 1_555
C174F C175F 1_555 1_555
C39F C174F 1_555 1_555
C38F C39F 1_555 1_555
N21F C38F 1_555 1_555
N20F N21F 1_555 1_555
Cu4F N20F 1_555 1_555
N19F Cu4F 1_555 1_555
C34F N19F 1_555 1_555
C37F N20F 1_555 1_555
C36F C37F 1_555 1_555
C35F N21F 1_555 1_555
H1F C35F 1_555 1_555
C158F C34F 1_555 1_555
C159F C158F 1_555 1_555
C160F C159F 1_555 1_555
C161F N19F 1_555 1_555
N34F Cu4F 1_555 1_555
N35F N34F 1_555 1_555
C69F N35F 1_555 1_555
C196F C195 1_555 1_555
C70F N35F 1_555 1_555
C71F N34F 1_555 1_555
C72F C71F 1_555 1_555
N36F Cu4F 1_555 1_555
N40F Cu4F 1_555 1_555
C77F N40F 1_555 1_555
C78F C77F 1_555 1_555
C79F C78F 1_555 1_555
C80F C79F 1_555 1_555
C81F N40F 1_555 1_555
C84F C77F 1_555 1_555
N41F Cu4F 1_555 1_555
N42F N41F 1_555 1_555
C82F N42F 1_555 1_555
C83F C84F 1_555 1_555
C90F N42F 1_555 1_555
C93F C90F 1_555 1_555
C92F C93F 1_555 1_555
C91F C92F 1_555 1_555
C96F C91F 1_555 1_555
C95F C96F 1_555 1_555
C89F C95F 1_555 1_555
N45F C89F 1_555 1_555
N44F N45F 1_555 1_555
Cu2F N44F 1_555 1_555
N4F Cu2F 1_555 1_555
N5F N4F 1_555 1_555
C8F N5F 1_555 1_555
C164F C8F 1_555 1_555
C163F C164F 1_555 1_555
C162F C163F 1_555 1_555
C6F C162F 1_555 1_555
C5F C6F 1_555 1_555
N3F C5F 1_555 1_555
N2F N3F 1_555 1_555
Cu1F N2F 1_555 1_555
N1F Cu1F 1_555 1_555
C1F N1F 1_555 1_555
C4F N2F 1_555 1_555
C3F C4F 1_555 1_555
C2F N3F 1_555 1_555
C131F C1F 1_555 1_555
C132F C131F 1_555 1_555
C133F C132F 1_555 1_555
C134F N1F 1_555 1_555
N16F Cu1F 1_555 1_555
N17F N16F 1_555 1_555
C32F N17F 1_555 1_555
C172F C32F 1_555 1_555
C171F C172F 1_555 1_555
C170F C171F 1_555 1_555
C30F C170F 1_555 1_555
C29F C30F 1_555 1_555
N15F C29F 1_555 1_555
N14F N15F 1_555 1_555
Cu3F N14F 1_555 1_555
N10F Cu3F 1_555 1_555
N11F N10F 1_555 1_555
C20F N11F 1_555 1_555
C168F C20F 1_555 1_555
C167F C168F 1_555 1_555
C166F C167F 1_555 1_555
C18F C166F 1_555 1_555
C17F C18F 1_555 1_555
N9F C17F 1_555 1_555
N8F Cu2F 1_555 1_555
N6F Cu2F 1_555 1_555
C12F N6F 1_555 1_555
C11F N4F 1_555 1_555
C10F C11F 1_555 1_555
C9F N5F 1_555 1_555
C135F C12F 1_555 1_555
C136F C135F 1_555 1_555
C137F C136F 1_555 1_555
C138F N6F 1_555 1_555
N7F Cu2F 1_555 1_555
C13F N7F 1_555 1_555
C16F N8F 1_555 1_555
C15F C16F 1_555 1_555
C14F N9F 1_555 1_555
C139F C13F 1_555 1_555
C140F C139F 1_555 1_555
C141F C140F 1_555 1_555
C142F N7F 1_555 1_555
N43F Cu2F 1_555 1_555
C85F N43F 1_555 1_555
C88F N44F 1_555 1_555
C87F C88F 1_555 1_555
C86F N45F 1_555 1_555
C206F C85F 1_555 1_555
C207F C206F 1_555 1_555
C208F C207F 1_555 1_555
C209F N43F 1_555 1_555
C19F C18F 1_555 1_555
C169F C168F 1_555 1_555
C21F N11F 1_555 1_555
C22F C21F 1_555 1_555
C23F N10F 1_555 1_555
C24F C23F 1_555 1_555
N12F Cu3F 1_555 1_555
N13F Cu3F 1_555 1_555
C25F N13F 1_555 1_555
C28F N14F 1_555 1_555
C27F C28F 1_555 1_555
C26F N15F 1_555 1_555
C147F C25F 1_555 1_555
C148F C147F 1_555 1_555
C149F C148F 1_555 1_555
C150F N13F 1_555 1_555
N46F Cu3F 1_555 1_555
C100F N46F 1_555 1_555
C101F C100F 1_555 1_555
C102F C101F 1_555 1_555
C103F C102F 1_555 1_555
C104F N46F 1_555 1_555
C107F C100F 1_555 1_555
N47F Cu3F 1_555 1_555
N48F N47F 1_555 1_555
C105F N48F 1_555 1_555
H2F C105F 1_555 1_555
C106F C107F 1_555 1_555
C119F N48F 1_555 1_555
C122F C119F 1_555 1_555
C123F C122F 1_555 1_555
C124F C123F 1_555 1_555
C120F C124F 1_555 1_555
N51F C120F 1_555 1_555
N50F Cu5F 1_555 1_555
N24F Cu5F 1_555 1_555
C45F N24F 1_555 1_555
C44F N22F 1_555 1_555
C43F C44F 1_555 1_555
C42F N23F 1_555 1_555
C178F C45F 1_555 1_555
C179F C178F 1_555 1_555
C180F C179F 1_555 1_555
C181F N24F 1_555 1_555
N25F Cu5F 1_555 1_555
C46F N25F 1_555 1_555
C47F C46F 1_555 1_555
C48F C47F 1_555 1_555
C49F C48F 1_555 1_555
C50F N25F 1_555 1_555
C53F N26F 1_555 1_555
C52F C53F 1_555 1_555
C51F N27F 1_555 1_555
N49F Cu5F 1_555 1_555
C108F N49F 1_555 1_555
C109F C108F 1_555 1_555
C110F C109F 1_555 1_555
C111F C110F 1_555 1_555
C112F N49F 1_555 1_555
C115F N50F 1_555 1_555
C114F C115F 1_555 1_555
C113F N51F 1_555 1_555
C125F C124F 1_555 1_555
C126F C125F 1_555 1_555
C121F C126F 1_555 1_555
N54F C121F 1_555 1_555
N53F Cu6F 1_555 1_555
N30F Cu6F 1_555 1_555
C61F N30F 1_555 1_555
C60F N28F 1_555 1_555
C59F C60F 1_555 1_555
C58F N29F 1_555 1_555
C186F C61F 1_555 1_555
C187F C186F 1_555 1_555
C188F C187F 1_555 1_555
C189F N30F 1_555 1_555
N31F Cu6F 1_555 1_555
C62F N31F 1_555 1_555
C65F N32F 1_555 1_555
C64F C65F 1_555 1_555
C63F N33F 1_555 1_555
C190F C62F 1_555 1_555
C191F C190F 1_555 1_555
C192F C191F 1_555 1_555
C193F N31F 1_555 1_555
N52F Cu6F 1_555 1_555
C210F N52F 1_555 1_555
C118F N53F 1_555 1_555
C117F C118F 1_555 1_555
C116F N54F 1_555 1_555
C211F C210F 1_555 1_555
C212F C211F 1_555 1_555
C213F C212F 1_555 1_555
C214F N52F 1_555 1_555
C127F C122F 1_555 1_555
C130F C127F 1_555 1_555
C129F C125F 1_555 1_555
C128F C123F 1_555 1_555
C146F N12F 1_555 1_555
C145F C146F 1_555 1_555
C144F C145F 1_555 1_555
C143F C24F 1_555 1_555
C31F C30F 1_555 1_555
C173F C172F 1_555 1_555
C151F N17F 1_555 1_555
C152F C151F 1_555 1_555
C153F N16F 1_555 1_555
C33F C153F 1_555 1_555
N18F Cu1F 1_555 1_555
N37F Cu1F 1_555 1_555
C73F N37F 1_555 1_555
C76F C73F 1_555 1_555
N38F Cu1F 1_555 1_555
N39F N38F 1_555 1_555
C74F N39F 1_555 1_555
C75F C76F 1_555 1_555
C202F C73F 1_555 1_555
C203F C202F 1_555 1_555
C204F C203F 1_555 1_555
C205F N37F 1_555 1_555
C157F N18F 1_555 1_555
C156F C157F 1_555 1_555
C155F C156F 1_555 1_555
C154F C33F 1_555 1_555
C7F C6F 1_555 1_555
C165F C164F 1_555 1_555
C94F C93F 1_555 1_555
C98F C94F 1_555 1_555
C99F C96F 1_555 1_555
C97F C92F 1_555 1_555
C201F N36F 1_555 1_555
C200F C201F 1_555 1_555
C199F C200F 1_555 1_555
C198F C72F 1_555 1_555
C40F C39F 1_555 1_555
C177F C176F 1_555 1_555
C56F C55F 1_555 1_555
C185F C184 1_555 1_555
C68F C67F 1_555 1_555
C197F C196 1_555 1_555
C3 C4 1_555 1_555
N6 C12 1_555 1_555
N8 C16 1_555 1_555
C15 C16 1_555 1_555
N12 C24 1_555 1_555
N14 C28 1_555 1_555
C27 C28 1_555 1_555
C33 C153 1_555 1_555
C36 C37 1_555 1_555
N24 C45 1_555 1_555
C49 C50 1_555 1_555
N26 C53 1_555 1_555
C52 C53 1_555 1_555
N30 C61 1_555 1_555
N32 C65 1_555 1_555
C64 C65 1_555 1_555
N36 C72 1_555 1_555
N38 C76 1_555 1_555
C75 C76 1_555 1_555
C80 C81 1_555 1_555
N41 C84 1_555 1_555
C83 C84 1_555 1_555
N44 C88 1_555 1_555
C87 C88 1_555 1_555
C94 C95 1_555 1_555
C95 C96 1_555 1_555
C103 C104 1_555 1_555
N47 C107 1_555 1_555
C106 C107 1_555 1_555
C111 C112 1_555 1_555
N50 C115 1_555 1_555
C114 C115 1_555 1_555
C117 C118 1_555 1_555
C118 C210 1_555 1_555
C123 C124 1_555 1_555
C125 C126 1_555 1_555
C126 C127 1_555 1_555
C133 C134 1_555 1_555
C137 C138 1_555 1_555
C141 C142 1_555 1_555
C145 C146 1_555 1_555
C149 C150 1_555 1_555
C152 C153 1_555 1_555
C156 C157 1_555 1_555
C160 C161 1_555 1_555
C163 C164 1_555 1_555
C164 C165 1_555 1_555
C167 C168 1_555 1_555
C168 C169 1_555 1_555
C171 C172 1_555 1_555
C172 C173 1_555 1_555
C175 C176 1_555 1_555
C176 C177 1_555 1_555
C180 C181 1_555 1_555
C185 C184F 1_555 1_555
C188 C189 1_555 1_555
C192 C193 1_555 1_555
C197 C196F 1_555 1_555
C200 C201 1_555 1_555
C204 C205 1_555 1_555
C208 C209 1_555 1_555
C213 C214 1_555 1_555
C57F C184F 1_555 1_555
C34F C37F 1_555 1_555
C36F C35F 1_555 1_555
C160F C161F 1_555 1_555
C69F C196F 1_555 1_555
C72F N36F 1_555 1_555
C80F C81F 1_555 1_555
C84F N41F 1_555 1_555
C82F C83F 1_555 1_555
C95F C94F 1_555 1_555
C1F C4F 1_555 1_555
C3F C2F 1_555 1_555
C133F C134F 1_555 1_555
N9F N8F 1_555 1_555
C12F C11F 1_555 1_555
C10F C9F 1_555 1_555
C137F C138F 1_555 1_555
C13F C16F 1_555 1_555
C15F C14F 1_555 1_555
C141F C142F 1_555 1_555
C85F C88F 1_555 1_555
C87F C86F 1_555 1_555
C208F C209F 1_555 1_555
C19F C169F 1_555 1_555
C22F C23F 1_555 1_555
C24F N12F 1_555 1_555
C25F C28F 1_555 1_555
C27F C26F 1_555 1_555
C149F C150F 1_555 1_555
C103F C104F 1_555 1_555
C107F N47F 1_555 1_555
C105F C106F 1_555 1_555
N51F N50F 1_555 1_555
C45F C44F 1_555 1_555
C43F C42F 1_555 1_555
C180F C181F 1_555 1_555
C46F C53F 1_555 1_555
C49F C50F 1_555 1_555
C52F C51F 1_555 1_555
C108F C115F 1_555 1_555
C111F C112F 1_555 1_555
C114F C113F 1_555 1_555
C126F C127F 1_555 1_555
N54F N53F 1_555 1_555
C61F C60F 1_555 1_555
C59F C58F 1_555 1_555
C188F C189F 1_555 1_555
C62F C65F 1_555 1_555
C64F C63F 1_555 1_555
C192F C193F 1_555 1_555
C210F C118F 1_555 1_555
C117F C116F 1_555 1_555
C213F C214F 1_555 1_555
C144F C143F 1_555 1_555
C31F C173F 1_555 1_555
C152F C153F 1_555 1_555
C33F N18F 1_555 1_555
C76F N38F 1_555 1_555
C74F C75F 1_555 1_555
C204F C205F 1_555 1_555
C155F C154F 1_555 1_555
C7F C165F 1_555 1_555
C199F C198F 1_555 1_555
C40F C177F 1_555 1_555
C56F C185F 1_555 1_555
C68F C197F 1_555 1_555

#END
