
#######################################################################
#
#                 Cambridge Crystallographic Data Centre
#                                CCDC 
#
#######################################################################
#
# If this CIF has been generated from an entry in the Cambridge 
# Structural Database, then it will include bibliographic, chemical, 
# crystal, experimental, refinement or atomic coordinate data resulting 
# from the CCDC's data processing and validation procedures.
#
#######################################################################

data_JEHSIB
_chemical_name_common            ZAS-6
_chemical_formula_moiety         'C36 H52 Co4 N16 O16,25(H2 O1)'
_chemical_name_systematic        
'tetrakis(\m-4,5-dicarboxylato-2-ethyl-imidazolato)-tetrakis(ethane-1,2-diamine)-tetra-cobalt(iii) pentacosahydrate'
_symmetry_cell_setting           tetragonal
_symmetry_space_group_name_H-M   'I 41/a m d'
_symmetry_Int_Tables_number      141
_space_group_name_Hall           '-I 4bd 2'
loop_
_symmetry_equiv_pos_site_id
_symmetry_equiv_pos_as_xyz
1 x,y,z
2 1/2-x,-y,1/2+z
3 1/4-y,3/4+x,1/4+z
4 1/4+y,1/4-x,3/4+z
5 1/2-x,y,1/2-z
6 x,-y,-z
7 1/4+y,3/4+x,1/4-z
8 1/4-y,1/4-x,3/4-z
9 1/2+x,1/2+y,1/2+z
10 -x,1/2-y,z
11 3/4-y,1/4+x,3/4+z
12 3/4+y,3/4-x,1/4+z
13 -x,1/2+y,-z
14 1/2+x,1/2-y,1/2-z
15 3/4+y,1/4+x,3/4-z
16 3/4-y,3/4-x,1/4-z
17 -x,-y,-z
18 1/2+x,y,1/2-z
19 3/4+y,1/4-x,3/4-z
20 3/4-y,3/4+x,1/4-z
21 1/2+x,-y,1/2+z
22 -x,y,z
23 3/4-y,1/4-x,3/4+z
24 3/4+y,3/4+x,1/4+z
25 1/2-x,1/2-y,1/2-z
26 x,1/2+y,-z
27 1/4+y,3/4-x,1/4-z
28 1/4-y,1/4+x,3/4-z
29 x,1/2-y,z
30 1/2-x,1/2+y,1/2+z
31 1/4-y,3/4-x,1/4+z
32 1/4+y,1/4+x,3/4+z
_cell_length_a                   19.959(3)
_cell_length_b                   19.959(3)
_cell_length_c                   20.408(4)
_cell_angle_alpha                90
_cell_angle_beta                 90
_cell_angle_gamma                90
_cell_volume                     8129.77
_exptl_crystal_colour            red
_exptl_crystal_description       block
_cell_formula_units_Z            4
loop_
_atom_site_label
_atom_site_type_symbol
_atom_site_fract_x
_atom_site_fract_y
_atom_site_fract_z
Co1 Co 0.15311(2) 0.59689(2) 0.1250
O1 O 0.16253(12) 0.60278(11) 0.21772(13)
O2 O 0.16820(14) 0.67317(12) 0.30163(12)
N1 N 0.15532(13) 0.69440(14) 0.12856(12)
N2 N 0.24968(16) 0.59287(14) 0.11564(16)
H1 H 0.2610 0.6007 0.0736
H2 H 0.2688 0.6247 0.1407
C1 C 0.1514(2) 0.7500 0.0914(2)
C2 C 0.16191(15) 0.71541(16) 0.19286(15)
C3 C 0.1421(4) 0.7500 0.0175(3)
C4 C 0.16463(15) 0.66226(16) 0.24253(16)
C5 C 0.2095(8) 0.7500 -0.0113(10)
H3 H 0.2424 0.7500 0.0230
H4 H 0.2151 0.7893 -0.0379
C6 C 0.2744(2) 0.5257(2) 0.1359(3)
H5 H 0.3175 0.5167 0.1158
H6 H 0.2797 0.5239 0.1831
O1BA O 0.16253(12) 0.89722(11) 0.21772(13)
O2BA O 0.16820(14) 0.82683(12) 0.30163(12)
N1BA N 0.15532(13) 0.80560(14) 0.12856(12)
C2BA C 0.16191(15) 0.78459(16) 0.19286(15)
C4BA C 0.16463(15) 0.83774(16) 0.24253(16)
H4BA H 0.2151 0.7107 -0.0379
N2O N 0.15713(14) 0.50032(16) 0.13436(16)
H1O H 0.1493 0.4890 0.1764
H2O H 0.1253 0.4812 0.1093
C6O C 0.2243(2) 0.4756(2) 0.1141(3)
H5O H 0.2333 0.4325 0.1342
H6O H 0.2261 0.4703 0.0669
O1O O 0.14722(11) 0.58747(12) 0.03228(13)
O2O O 0.07683(12) 0.58180(14) -0.05163(12)
N1O N 0.05560(14) 0.59468(13) 0.12144(12)
C1O C 0.0000 0.5986(2) 0.1586(2)
C2O C 0.03459(16) 0.58809(15) 0.05714(15)
C3O C 0.0000 0.6079(4) 0.2325(3)
C4O C 0.08774(16) 0.58537(15) 0.00747(16)
C5O C 0.0000 0.5405(8) 0.2613(10)
H3O H 0.0000 0.5076 0.2270
H4O H -0.0393 0.5349 0.2879
O1Z O -0.14722(11) 0.58747(12) 0.03228(13)
O2Z O -0.07683(12) 0.58180(14) -0.05163(12)
N1Z N -0.05560(14) 0.59468(13) 0.12144(12)
C2Z C -0.03459(16) 0.58809(15) 0.05714(15)
C4Z C -0.08774(16) 0.58537(15) 0.00747(16)
H4Z H 0.0393 0.5349 0.2879
Co1S Co 0.15311(2) 0.90311(2) 0.1250
O1S O 0.14722(11) 0.91253(12) 0.03228(13)
O2S O 0.07683(12) 0.91820(14) -0.05163(12)
N1S N 0.05560(14) 0.90532(13) 0.12144(12)
N2S N 0.15713(14) 0.99968(16) 0.13436(16)
H1S H 0.1493 1.0110 0.1764
H2S H 0.1253 1.0188 0.1093
C1F C 0.0000 0.9014(2) 0.1586(2)
C2S C 0.03459(16) 0.91191(15) 0.05714(15)
C3F C 0.0000 0.8921(4) 0.2325(3)
C4S C 0.08774(16) 0.91463(15) 0.00747(16)
C5F C 0.0000 0.9595(8) 0.2613(10)
H3F H 0.0000 0.9924 0.2270
H4S H -0.0393 0.9651 0.2879
C6S C 0.2243(2) 1.0244(2) 0.1141(3)
H5S H 0.2333 1.0675 0.1342
H6S H 0.2261 1.0297 0.0669
O1F O -0.14722(11) 0.91253(12) 0.03228(13)
O2F O -0.07683(12) 0.91820(14) -0.05163(12)
N1F N -0.05560(14) 0.90532(13) 0.12144(12)
C2F C -0.03459(16) 0.91191(15) 0.05714(15)
C4F C -0.08774(16) 0.91463(15) 0.00747(16)
H4F H 0.0393 0.9651 0.2879
N2BA N 0.24968(16) 0.90713(14) 0.11564(16)
H1BA H 0.2610 0.8993 0.0736
H2BA H 0.2688 0.8753 0.1407
C6BA C 0.2744(2) 0.9743(2) 0.1359(3)
H5BA H 0.3175 0.9833 0.1158
H6BA H 0.2797 0.9761 0.1831
Co1U Co -0.15311(2) 0.59689(2) 0.1250
N2Z N -0.15713(14) 0.50032(16) 0.13436(16)
H1Z H -0.1493 0.4890 0.1764
H2Z H -0.1253 0.4812 0.1093
C6Z C -0.2243(2) 0.4756(2) 0.1141(3)
H5Z H -0.2333 0.4325 0.1342
H6Z H -0.2261 0.4703 0.0669
N2U N -0.24968(16) 0.59287(14) 0.11564(16)
H1U H -0.2610 0.6007 0.0736
H2U H -0.2688 0.6247 0.1407
C6U C -0.2744(2) 0.5257(2) 0.1359(3)
H5U H -0.3175 0.5167 0.1158
H6U H -0.2797 0.5239 0.1831
Co1F Co -0.15311(2) 0.90311(2) 0.1250
N2F N -0.15713(14) 0.99968(16) 0.13436(16)
H1F H -0.1493 1.0110 0.1764
H2F H -0.1253 1.0188 0.1093
C6F C -0.2243(2) 1.0244(2) 0.1141(3)
H5F H -0.2333 1.0675 0.1342
H6F H -0.2261 1.0297 0.0669
N2I N -0.24968(16) 0.90713(14) 0.11564(16)
H1I H -0.2610 0.8993 0.0736
H2I H -0.2688 0.8753 0.1407
C6I C -0.2744(2) 0.9743(2) 0.1359(3)
H5I H -0.3175 0.9833 0.1158
H6I H -0.2797 0.9761 0.1831
O1I O -0.16253(12) 0.89722(11) 0.21772(13)
O2I O -0.16820(14) 0.82683(12) 0.30163(12)
N1I N -0.15532(13) 0.80560(14) 0.12856(12)
C1I C -0.1514(2) 0.7500 0.0914(2)
C2I C -0.16191(15) 0.78459(16) 0.19286(15)
C3I C -0.1421(4) 0.7500 0.0175(3)
C4I C -0.16463(15) 0.83774(16) 0.24253(16)
C5I C -0.2095(8) 0.7500 -0.0113(10)
H3I H -0.2424 0.7500 0.0230
H4I H -0.2151 0.7107 -0.0379
O1U O -0.16253(12) 0.60278(11) 0.21772(13)
O2U O -0.16820(14) 0.67317(12) 0.30163(12)
N1U N -0.15532(13) 0.69440(14) 0.12856(12)
C2U C -0.16191(15) 0.71541(16) 0.19286(15)
C4U C -0.16463(15) 0.66226(16) 0.24253(16)
H4U H -0.2151 0.7893 -0.0379
O3 O 0.394(2) 0.389(2) 0.128(2)
O4 O 0.0000 0.7500 -0.200(3)
O5 O 0.0704(8) 0.6373(10) 0.4008(8)
O6 O 0.0709(11) 0.6003(12) 0.3875(10)
O7 O 0.3474(10) 0.6154(13) -0.0020(12)
O8 O 0.3555(10) 0.5703(12) 0.0005(11)
O9 O 0.3118(18) 0.6546(17) -0.0131(17)
O10 O 0.1317(13) 0.7500 0.4179(11)
O11 O 0.1747(16) 0.7500 0.4276(14)
C7? C 0.0693(8) 0.7500 0.0038(11)
H7? H 0.0450 0.7500 0.0444
H8? H 0.0578 0.7107 -0.0209
H9? H 0.2151 0.7893 -0.0379
H10? H 0.0578 0.7107 -0.0209
loop_
_geom_bond_atom_site_label_1
_geom_bond_atom_site_label_2
_geom_bond_site_symmetry_1
_geom_bond_site_symmetry_2
Co1 O1 1_555 1_555
O1 C4 1_555 1_555
O2 C4 1_555 1_555
N1 Co1 1_555 1_555
N2 Co1 1_555 1_555
H1 N2 1_555 1_555
H2 N2 1_555 1_555
C1 N1 1_555 1_555
C2 N1 1_555 1_555
C3 C1 1_555 1_555
C4 C2 1_555 1_555
C5 C3 1_555 1_555
H3 C5 1_555 1_555
H4 C5 1_555 1_555
C6 N2 1_555 1_555
H5 C6 1_555 1_555
H6 C6 1_555 1_555
O1BA C4BA 1_555 1_555
O2BA C4BA 1_555 1_555
N1BA C1 1_555 1_555
C2BA C2 1_555 1_555
C4BA C2BA 1_555 1_555
H4BA C5 1_555 1_555
N2O Co1 1_555 1_555
H1O N2O 1_555 1_555
H2O N2O 1_555 1_555
C6O C6 1_555 1_555
H5O C6O 1_555 1_555
H6O C6O 1_555 1_555
O1O Co1 1_555 1_555
O2O C4O 1_555 1_555
N1O Co1 1_555 1_555
C1O N1O 1_555 1_555
C2O N1O 1_555 1_555
C3O C1O 1_555 1_555
C4O O1O 1_555 1_555
C5O C3O 1_555 1_555
H3O C5O 1_555 1_555
H4O C5O 1_555 1_555
O1Z C4Z 1_555 1_555
O2Z C4Z 1_555 1_555
N1Z C1O 1_555 1_555
C2Z C2O 1_555 1_555
C4Z C2Z 1_555 1_555
H4Z C5O 1_555 1_555
Co1S O1BA 1_555 1_555
O1S Co1S 1_555 1_555
O2S C4S 1_555 1_555
N1S Co1S 1_555 1_555
N2S Co1S 1_555 1_555
H1S N2S 1_555 1_555
H2S N2S 1_555 1_555
C1F N1S 1_555 1_555
C2S N1S 1_555 1_555
C3F C1F 1_555 1_555
C4S O1S 1_555 1_555
C5F C3F 1_555 1_555
H3F C5F 1_555 1_555
H4S C5F 1_555 1_555
C6S N2S 1_555 1_555
H5S C6S 1_555 1_555
H6S C6S 1_555 1_555
O1F C4F 1_555 1_555
O2F C4F 1_555 1_555
N1F C1F 1_555 1_555
C2F C2S 1_555 1_555
C4F C2F 1_555 1_555
H4F C5F 1_555 1_555
N2BA Co1S 1_555 1_555
H1BA N2BA 1_555 1_555
H2BA N2BA 1_555 1_555
C6BA C6S 1_555 1_555
H5BA C6BA 1_555 1_555
H6BA C6BA 1_555 1_555
Co1U O1Z 1_555 1_555
N2Z Co1U 1_555 1_555
H1Z N2Z 1_555 1_555
H2Z N2Z 1_555 1_555
C6Z N2Z 1_555 1_555
H5Z C6Z 1_555 1_555
H6Z C6Z 1_555 1_555
N2U Co1U 1_555 1_555
H1U N2U 1_555 1_555
H2U N2U 1_555 1_555
C6U C6Z 1_555 1_555
H5U C6U 1_555 1_555
H6U C6U 1_555 1_555
Co1F O1F 1_555 1_555
N2F Co1F 1_555 1_555
H1F N2F 1_555 1_555
H2F N2F 1_555 1_555
C6F N2F 1_555 1_555
H5F C6F 1_555 1_555
H6F C6F 1_555 1_555
N2I Co1F 1_555 1_555
H1I N2I 1_555 1_555
H2I N2I 1_555 1_555
C6I C6F 1_555 1_555
H5I C6I 1_555 1_555
H6I C6I 1_555 1_555
O1I Co1F 1_555 1_555
O2I C4I 1_555 1_555
N1I Co1F 1_555 1_555
C1I N1I 1_555 1_555
C2I N1I 1_555 1_555
C3I C1I 1_555 1_555
C4I O1I 1_555 1_555
C5I C3I 1_555 1_555
H3I C5I 1_555 1_555
H4I C5I 1_555 1_555
O1U Co1U 1_555 1_555
O2U C4U 1_555 1_555
N1U Co1U 1_555 1_555
C2U C2I 1_555 1_555
C4U O1U 1_555 1_555
H4U C5I 1_555 1_555
N1BA C2BA 1_555 1_555
N1BA Co1S 1_555 1_555
N2O C6O 1_555 1_555
C2O C4O 1_555 1_555
N1Z C2Z 1_555 1_555
N1Z Co1U 1_555 1_555
C2S C4S 1_555 1_555
N1F C2F 1_555 1_555
N1F Co1F 1_555 1_555
N2BA C6BA 1_555 1_555
N2U C6U 1_555 1_555
N2I C6I 1_555 1_555
C1I N1U 1_555 1_555
C2I C4I 1_555 1_555
N1U C2U 1_555 1_555
C2U C4U 1_555 1_555

#END
