
#######################################################################
#
#                 Cambridge Crystallographic Data Centre
#                                CCDC 
#
#######################################################################
#
# If this CIF has been generated from an entry in the Cambridge 
# Structural Database, then it will include bibliographic, chemical, 
# crystal, experimental, refinement or atomic coordinate data resulting 
# from the CCDC's data processing and validation procedures.
#
#######################################################################

data_JEHSOH
_chemical_name_common            ZSA-3
_chemical_formula_moiety         'C36 H36 Co4 N16 O16,25(H2 O1)'
_chemical_name_systematic        
'tetrakis(\m-4,5-dicarboxylato-2-methyl-imidazolato)-tetrakis(propane-1,2-diamine)-tetra-cobalt(iii) pentacosahydrate'
_symmetry_cell_setting           tetragonal
_symmetry_space_group_name_H-M   'I 41/a m d'
_symmetry_Int_Tables_number      141
_space_group_name_Hall           '-I 4bd 2'
loop_
_symmetry_equiv_pos_site_id
_symmetry_equiv_pos_as_xyz
1 x,y,z
2 1/2-x,-y,1/2+z
3 1/4-y,3/4+x,1/4+z
4 1/4+y,1/4-x,3/4+z
5 1/2-x,y,1/2-z
6 x,-y,-z
7 1/4+y,3/4+x,1/4-z
8 1/4-y,1/4-x,3/4-z
9 1/2+x,1/2+y,1/2+z
10 -x,1/2-y,z
11 3/4-y,1/4+x,3/4+z
12 3/4+y,3/4-x,1/4+z
13 -x,1/2+y,-z
14 1/2+x,1/2-y,1/2-z
15 3/4+y,1/4+x,3/4-z
16 3/4-y,3/4-x,1/4-z
17 -x,-y,-z
18 1/2+x,y,1/2-z
19 3/4+y,1/4-x,3/4-z
20 3/4-y,3/4+x,1/4-z
21 1/2+x,-y,1/2+z
22 -x,y,z
23 3/4-y,1/4-x,3/4+z
24 3/4+y,3/4+x,1/4+z
25 1/2-x,1/2-y,1/2-z
26 x,1/2+y,-z
27 1/4+y,3/4-x,1/4-z
28 1/4-y,1/4+x,3/4-z
29 x,1/2-y,z
30 1/2-x,1/2+y,1/2+z
31 1/4-y,3/4-x,1/4+z
32 1/4+y,1/4+x,3/4+z
_cell_length_a                   18.631(3)
_cell_length_b                   18.631(3)
_cell_length_c                   21.582(4)
_cell_angle_alpha                90
_cell_angle_beta                 90
_cell_angle_gamma                90
_cell_volume                     7491.42
_exptl_crystal_colour            red
_exptl_crystal_description       block
_cell_formula_units_Z            4
loop_
_atom_site_label
_atom_site_type_symbol
_atom_site_fract_x
_atom_site_fract_y
_atom_site_fract_z
O3 O 0.3992(11) 0.6196(12) 0.2367(10)
O4 O 0.5000 0.305(5) -0.117(4)
O5 O 0.5000 0.337(2) -0.1392(14)
O6 O 0.5000 0.394(4) -0.154(3)
O7 O 0.542(4) 0.322(4) -0.129(3)
O8 O 0.343(2) 0.701(3) 0.1182(19)
O9 O 0.334(3) 0.7500 0.284(3)
O10 O 0.321(4) 0.7500 0.241(3)
O11 O 0.5000 0.567(4) 0.329(3)
O12 O 0.5000 0.623(5) 0.338(4)
O13 O 0.5000 0.732(6) 0.396(4)
Co1 Co 0.33720(4) 0.41280(4) 0.1250
O1 O 0.34165(18) 0.41737(19) 0.03673(16)
O2 O 0.4157(2) 0.4062(2) -0.04291(16)
N1 N 0.4408(2) 0.4143(2) 0.12026(16)
N2 N 0.3333(3) 0.5173(2) 0.1311(2)
C1 C 0.4633(3) 0.4104(3) 0.0595(2)
C2 C 0.5000 0.4162(4) 0.1553(3)
C3 C 0.4049(3) 0.4111(3) 0.0125(2)
C4 C 0.5000 0.4219(6) 0.2244(4)
C5 C 0.2601(11) 0.5444(11) 0.1108(10)
C6 C 0.2489(12) 0.6172(12) 0.1324(10)
O1U O 0.65835(18) 0.41737(19) 0.03673(16)
O2U O 0.5843(2) 0.4062(2) -0.04291(16)
N1U N 0.5592(2) 0.4143(2) 0.12026(16)
C1U C 0.5367(3) 0.4104(3) 0.0595(2)
C3U C 0.5951(3) 0.4111(3) 0.0125(2)
N2O N 0.2327(2) 0.4167(3) 0.1189(2)
C5O C 0.2056(11) 0.4899(11) 0.1392(10)
C6O C 0.1328(12) 0.5011(12) 0.1176(10)
O1O O 0.33263(19) 0.40835(18) 0.21327(16)
O2O O 0.3438(2) 0.3343(2) 0.29291(16)
N1O N 0.3357(2) 0.3092(2) 0.12974(16)
C1O C 0.3396(3) 0.2867(3) 0.1905(2)
C2O C 0.3338(4) 0.2500 0.0947(3)
C3O C 0.3389(3) 0.3451(3) 0.2375(2)
C4O C 0.3281(6) 0.2500 0.0256(4)
O1S O 0.33263(19) 0.09165(18) 0.21327(16)
O2S O 0.3438(2) 0.1657(2) 0.29291(16)
N1S N 0.3357(2) 0.1908(2) 0.12974(16)
C1S C 0.3396(3) 0.2133(3) 0.1905(2)
C3S C 0.3389(3) 0.1549(3) 0.2375(2)
Co1S Co 0.33720(4) 0.08720(4) 0.1250
N2S N 0.2327(2) 0.0833(3) 0.1189(2)
C5S C 0.2056(11) 0.0101(11) 0.1392(10)
C6S C 0.1328(12) -0.0011(12) 0.1176(10)
N2BA N 0.3333(3) -0.0173(2) 0.1311(2)
C5BA C 0.2601(11) -0.0444(11) 0.1108(10)
C6BA C 0.2489(12) -0.1172(12) 0.1324(10)
Co1U Co 0.66280(4) 0.41280(4) 0.1250
N2U N 0.6667(3) 0.5173(2) 0.1311(2)
C5U C 0.7399(11) 0.5444(11) 0.1108(10)
C6U C 0.7511(12) 0.6172(12) 0.1324(10)
N2Z N 0.7673(2) 0.4167(3) 0.1189(2)
C5Z C 0.7944(11) 0.4899(11) 0.1392(10)
C6Z C 0.8672(12) 0.5011(12) 0.1176(10)
O1Z O 0.66737(19) 0.40835(18) 0.21327(16)
O2Z O 0.6562(2) 0.3343(2) 0.29291(16)
N1Z N 0.6643(2) 0.3092(2) 0.12974(16)
C1Z C 0.6604(3) 0.2867(3) 0.1905(2)
C2F C 0.6662(4) 0.2500 0.0947(3)
C3Z C 0.6611(3) 0.3451(3) 0.2375(2)
C4F C 0.6719(6) 0.2500 0.0256(4)
O1F O 0.66737(19) 0.09165(18) 0.21327(16)
O2F O 0.6562(2) 0.1657(2) 0.29291(16)
N1F N 0.6643(2) 0.1908(2) 0.12974(16)
C1F C 0.6604(3) 0.2133(3) 0.1905(2)
C3F C 0.6611(3) 0.1549(3) 0.2375(2)
Co1F Co 0.66280(4) 0.08720(4) 0.1250
N2F N 0.7673(2) 0.0833(3) 0.1189(2)
C5F C 0.7944(11) 0.0101(11) 0.1392(10)
C6F C 0.8672(12) -0.0011(12) 0.1176(10)
N2I N 0.6667(3) -0.0173(2) 0.1311(2)
C5I C 0.7399(11) -0.0444(11) 0.1108(10)
C6I C 0.7511(12) -0.1172(12) 0.1324(10)
O1I O 0.65835(18) 0.08263(19) 0.03673(16)
O2I O 0.5843(2) 0.0938(2) -0.04291(16)
N1I N 0.5592(2) 0.0857(2) 0.12026(16)
C1I C 0.5367(3) 0.0896(3) 0.0595(2)
C2I C 0.5000 0.0838(4) 0.1553(3)
C3I C 0.5951(3) 0.0889(3) 0.0125(2)
C4I C 0.5000 0.0781(6) 0.2244(4)
O1BA O 0.34165(18) 0.08263(19) 0.03673(16)
O2BA O 0.4157(2) 0.0938(2) -0.04291(16)
N1BA N 0.4408(2) 0.0857(2) 0.12026(16)
C1BA C 0.4633(3) 0.0896(3) 0.0595(2)
C3BA C 0.4049(3) 0.0889(3) 0.0125(2)
loop_
_geom_bond_atom_site_label_1
_geom_bond_atom_site_label_2
_geom_bond_site_symmetry_1
_geom_bond_site_symmetry_2
Co1 O1 1_555 1_555
O1 C3 1_555 1_555
O2 C3 1_555 1_555
N1 Co1 1_555 1_555
N2 Co1 1_555 1_555
C1 N1 1_555 1_555
C2 N1 1_555 1_555
C3 C1 1_555 1_555
C4 C2 1_555 1_555
C5 N2 1_555 1_555
C6 C5 1_555 1_555
O1U C3U 1_555 1_555
O2U C3U 1_555 1_555
N1U C2 1_555 1_555
C1U C1 1_555 1_555
C3U C1U 1_555 1_555
N2O Co1 1_555 1_555
C5O C5 1_555 1_555
C6O C5O 1_555 1_555
O1O Co1 1_555 1_555
O2O C3O 1_555 1_555
N1O Co1 1_555 1_555
C1O N1O 1_555 1_555
C2O N1O 1_555 1_555
C3O O1O 1_555 1_555
C4O C2O 1_555 1_555
O1S C3S 1_555 1_555
O2S C3S 1_555 1_555
N1S C2O 1_555 1_555
C1S C1O 1_555 1_555
C3S C1S 1_555 1_555
Co1S O1S 1_555 1_555
N2S Co1S 1_555 1_555
C5S N2S 1_555 1_555
C6S C5S 1_555 1_555
N2BA Co1S 1_555 1_555
C5BA C5S 1_555 1_555
C6BA C5BA 1_555 1_555
Co1U O1U 1_555 1_555
N2U Co1U 1_555 1_555
C5U N2U 1_555 1_555
C6U C5U 1_555 1_555
N2Z Co1U 1_555 1_555
C5Z C5U 1_555 1_555
C6Z C5Z 1_555 1_555
O1Z Co1U 1_555 1_555
O2Z C3Z 1_555 1_555
N1Z Co1U 1_555 1_555
C1Z N1Z 1_555 1_555
C2F N1Z 1_555 1_555
C3Z O1Z 1_555 1_555
C4F C2F 1_555 1_555
O1F C3F 1_555 1_555
O2F C3F 1_555 1_555
N1F C2F 1_555 1_555
C1F C1Z 1_555 1_555
C3F C1F 1_555 1_555
Co1F O1F 1_555 1_555
N2F Co1F 1_555 1_555
C5F N2F 1_555 1_555
C6F C5F 1_555 1_555
N2I Co1F 1_555 1_555
C5I C5F 1_555 1_555
C6I C5I 1_555 1_555
O1I Co1F 1_555 1_555
O2I C3I 1_555 1_555
N1I Co1F 1_555 1_555
C1I N1I 1_555 1_555
C2I N1I 1_555 1_555
C3I O1I 1_555 1_555
C4I C2I 1_555 1_555
O1BA Co1S 1_555 1_555
O2BA C3BA 1_555 1_555
N1BA Co1S 1_555 1_555
C1BA C1I 1_555 1_555
C3BA O1BA 1_555 1_555
N1U C1U 1_555 1_555
N1U Co1U 1_555 1_555
N2O C5O 1_555 1_555
C1O C3O 1_555 1_555
N1S C1S 1_555 1_555
N1S Co1S 1_555 1_555
N2BA C5BA 1_555 1_555
N2Z C5Z 1_555 1_555
C1Z C3Z 1_555 1_555
N1F C1F 1_555 1_555
N1F Co1F 1_555 1_555
N2I C5I 1_555 1_555
C1I C3I 1_555 1_555
C2I N1BA 1_555 1_555
N1BA C1BA 1_555 1_555
C1BA C3BA 1_555 1_555

#END
