
#######################################################################
#
#                 Cambridge Crystallographic Data Centre
#                                CCDC 
#
#######################################################################
#
# If this CIF has been generated from an entry in the Cambridge 
# Structural Database, then it will include bibliographic, chemical, 
# crystal, experimental, refinement or atomic coordinate data resulting 
# from the CCDC's data processing and validation procedures.
#
#######################################################################

data_JEHSAT
_chemical_name_common            ZSA-5
_chemical_formula_moiety         'C32 H44 Co4 N16 O16,28(H2 O1)'
_chemical_name_systematic        
'tetrakis(\m-4,5-dicarboxylato-2-methyl-imidazolato)-tetrakis(ethane-1,2-diamine)-tetra-cobalt(iii) octacosahydrate'
_symmetry_cell_setting           tetragonal
_symmetry_space_group_name_H-M   'I 41/a m d'
_symmetry_Int_Tables_number      141
_space_group_name_Hall           '-I 4bd 2'
loop_
_symmetry_equiv_pos_site_id
_symmetry_equiv_pos_as_xyz
1 x,y,z
2 1/2-x,-y,1/2+z
3 1/4-y,3/4+x,1/4+z
4 1/4+y,1/4-x,3/4+z
5 1/2-x,y,1/2-z
6 x,-y,-z
7 1/4+y,3/4+x,1/4-z
8 1/4-y,1/4-x,3/4-z
9 1/2+x,1/2+y,1/2+z
10 -x,1/2-y,z
11 3/4-y,1/4+x,3/4+z
12 3/4+y,3/4-x,1/4+z
13 -x,1/2+y,-z
14 1/2+x,1/2-y,1/2-z
15 3/4+y,1/4+x,3/4-z
16 3/4-y,3/4-x,1/4-z
17 -x,-y,-z
18 1/2+x,y,1/2-z
19 3/4+y,1/4-x,3/4-z
20 3/4-y,3/4+x,1/4-z
21 1/2+x,-y,1/2+z
22 -x,y,z
23 3/4-y,1/4-x,3/4+z
24 3/4+y,3/4+x,1/4+z
25 1/2-x,1/2-y,1/2-z
26 x,1/2+y,-z
27 1/4+y,3/4-x,1/4-z
28 1/4-y,1/4+x,3/4-z
29 x,1/2-y,z
30 1/2-x,1/2+y,1/2+z
31 1/4-y,3/4-x,1/4+z
32 1/4+y,1/4+x,3/4+z
_cell_length_a                   19.368(3)
_cell_length_b                   19.368(3)
_cell_length_c                   20.907(7)
_cell_angle_alpha                90
_cell_angle_beta                 90
_cell_angle_gamma                90
_cell_volume                     7842.62
_exptl_crystal_colour            red
_exptl_crystal_description       block
_cell_formula_units_Z            4
loop_
_atom_site_label
_atom_site_type_symbol
_atom_site_fract_x
_atom_site_fract_y
_atom_site_fract_z
Co1 Co 0.15664(2) 0.59336(2) 0.1250
O1 O 0.16292(12) 0.59805(11) 0.21578(12)
O2 O 0.15934(13) 0.67007(13) 0.29847(11)
N1 N 0.15823(12) 0.69310(14) 0.12975(12)
N2 N 0.25617(16) 0.58944(15) 0.11767(15)
H1 H 0.2688 0.5992 0.0772
H2 H 0.2754 0.6211 0.1437
C1 C 0.1579(2) 0.7500 0.0929(2)
C2 C 0.15812(14) 0.71465(15) 0.19248(14)
C3 C 0.1575(3) 0.7500 0.0219(3)
C4 C 0.16013(15) 0.65962(17) 0.24024(15)
C5 C 0.2810(2) 0.5201(3) 0.1352(3)
H3 H 0.3249 0.5110 0.1145
H4 H 0.2876 0.5173 0.1811
O1BA O 0.16292(12) 0.90195(11) 0.21578(12)
O2BA O 0.15934(13) 0.82993(13) 0.29847(11)
N1BA N 0.15823(12) 0.80690(14) 0.12975(12)
C2BA C 0.15812(14) 0.78535(15) 0.19248(14)
C4BA C 0.16013(15) 0.84038(17) 0.24024(15)
N2O N 0.16056(15) 0.49383(16) 0.13233(15)
H1O H 0.1508 0.4812 0.1728
H2O H 0.1289 0.4746 0.1063
C5O C 0.2299(3) 0.4690(2) 0.1148(3)
H3O H 0.2390 0.4251 0.1355
H4O H 0.2327 0.4624 0.0689
O1O O 0.15195(11) 0.58708(12) 0.03422(12)
O2O O 0.07993(13) 0.59066(13) -0.04847(11)
N1O N 0.05690(14) 0.59177(12) 0.12025(12)
C1O C 0.0000 0.5921(2) 0.1571(2)
C2O C 0.03535(15) 0.59188(14) 0.05752(14)
C3O C 0.0000 0.5925(3) 0.2281(3)
C4O C 0.09038(17) 0.58987(15) 0.00976(15)
O1Z O -0.15195(11) 0.58708(12) 0.03422(12)
O2Z O -0.07993(13) 0.59066(13) -0.04847(11)
N1Z N -0.05690(14) 0.59177(12) 0.12025(12)
C2Z C -0.03535(15) 0.59188(14) 0.05752(14)
C4Z C -0.09038(17) 0.58987(15) 0.00976(15)
Co1S Co 0.15664(2) 0.90664(2) 0.1250
O1S O 0.15195(11) 0.91292(12) 0.03422(12)
O2S O 0.07993(13) 0.90934(13) -0.04847(11)
N1S N 0.05690(14) 0.90823(12) 0.12025(12)
N2S N 0.16056(15) 1.00617(16) 0.13233(15)
H1S H 0.1508 1.0188 0.1728
H2S H 0.1289 1.0254 0.1063
C1F C 0.0000 0.9079(2) 0.1571(2)
C2S C 0.03535(15) 0.90812(14) 0.05752(14)
C3F C 0.0000 0.9075(3) 0.2281(3)
C4S C 0.09038(17) 0.91013(15) 0.00976(15)
C5S C 0.2299(3) 1.0310(2) 0.1148(3)
H3S H 0.2390 1.0749 0.1355
H4S H 0.2327 1.0376 0.0689
O1F O -0.15195(11) 0.91292(12) 0.03422(12)
O2F O -0.07993(13) 0.90934(13) -0.04847(11)
N1F N -0.05690(14) 0.90823(12) 0.12025(12)
C2F C -0.03535(15) 0.90812(14) 0.05752(14)
C4F C -0.09038(17) 0.91013(15) 0.00976(15)
N2BA N 0.25617(16) 0.91056(15) 0.11767(15)
H1BA H 0.2688 0.9008 0.0772
H2BA H 0.2754 0.8789 0.1437
C5BA C 0.2810(2) 0.9799(3) 0.1352(3)
H3BA H 0.3249 0.9890 0.1145
H4BA H 0.2876 0.9827 0.1811
Co1U Co -0.15664(2) 0.59336(2) 0.1250
N2Z N -0.16056(15) 0.49383(16) 0.13233(15)
H1Z H -0.1508 0.4812 0.1728
H2Z H -0.1289 0.4746 0.1063
C5Z C -0.2299(3) 0.4690(2) 0.1148(3)
H3Z H -0.2390 0.4251 0.1355
H4Z H -0.2327 0.4624 0.0689
N2U N -0.25617(16) 0.58944(15) 0.11767(15)
H1U H -0.2688 0.5992 0.0772
H2U H -0.2754 0.6211 0.1437
C5U C -0.2810(2) 0.5201(3) 0.1352(3)
H3U H -0.3249 0.5110 0.1145
H4U H -0.2876 0.5173 0.1811
Co1F Co -0.15664(2) 0.90664(2) 0.1250
N2F N -0.16056(15) 1.00617(16) 0.13233(15)
H1F H -0.1508 1.0188 0.1728
H2F H -0.1289 1.0254 0.1063
C5F C -0.2299(3) 1.0310(2) 0.1148(3)
H3F H -0.2390 1.0749 0.1355
H4F H -0.2327 1.0376 0.0689
N2I N -0.25617(16) 0.91056(15) 0.11767(15)
H1I H -0.2688 0.9008 0.0772
H2I H -0.2754 0.8789 0.1437
C5I C -0.2810(2) 0.9799(3) 0.1352(3)
H3I H -0.3249 0.9890 0.1145
H4I H -0.2876 0.9827 0.1811
O1I O -0.16292(12) 0.90195(11) 0.21578(12)
O2I O -0.15934(13) 0.82993(13) 0.29847(11)
N1I N -0.15823(12) 0.80690(14) 0.12975(12)
C1I C -0.1579(2) 0.7500 0.0929(2)
C2I C -0.15812(14) 0.78535(15) 0.19248(14)
C3I C -0.1575(3) 0.7500 0.0219(3)
C4I C -0.16013(15) 0.84038(17) 0.24024(15)
O1U O -0.16292(12) 0.59805(11) 0.21578(12)
O2U O -0.15934(13) 0.67007(13) 0.29847(11)
N1U N -0.15823(12) 0.69310(14) 0.12975(12)
C2U C -0.15812(14) 0.71465(15) 0.19248(14)
C4U C -0.16013(15) 0.65962(17) 0.24024(15)
O3 O 0.1700(11) 0.7500 0.4187(10)
O4 O 0.098(3) 0.732(3) 0.393(2)
O5 O 0.136(2) 0.7500 0.4195(16)
O6 O 0.0588(11) 0.6285(12) 0.3929(10)
O7 O 0.0589(12) 0.5871(12) 0.3792(10)
O8 O 0.3210(14) 0.6575(13) -0.0087(11)
O9 O 0.370(2) 0.577(2) 0.0060(19)
O10 O 0.3491(14) 0.6271(16) 0.0057(13)
O11 O 0.416(3) 0.537(3) -0.008(3)
O12 O 0.0000 0.483(5) 0.373(4)
O13 O 0.023(3) 0.461(3) 0.358(3)
loop_
_geom_bond_atom_site_label_1
_geom_bond_atom_site_label_2
_geom_bond_site_symmetry_1
_geom_bond_site_symmetry_2
Co1 O1 1_555 1_555
O1 C4 1_555 1_555
O2 C4 1_555 1_555
N1 Co1 1_555 1_555
N2 Co1 1_555 1_555
H1 N2 1_555 1_555
H2 N2 1_555 1_555
C1 N1 1_555 1_555
C2 N1 1_555 1_555
C3 C1 1_555 1_555
C4 C2 1_555 1_555
C5 N2 1_555 1_555
H3 C5 1_555 1_555
H4 C5 1_555 1_555
O1BA C4BA 1_555 1_555
O2BA C4BA 1_555 1_555
N1BA C1 1_555 1_555
C2BA C2 1_555 1_555
C4BA C2BA 1_555 1_555
N2O Co1 1_555 1_555
H1O N2O 1_555 1_555
H2O N2O 1_555 1_555
C5O C5 1_555 1_555
H3O C5O 1_555 1_555
H4O C5O 1_555 1_555
O1O Co1 1_555 1_555
O2O C4O 1_555 1_555
N1O Co1 1_555 1_555
C1O N1O 1_555 1_555
C2O N1O 1_555 1_555
C3O C1O 1_555 1_555
C4O O1O 1_555 1_555
O1Z C4Z 1_555 1_555
O2Z C4Z 1_555 1_555
N1Z C1O 1_555 1_555
C2Z C2O 1_555 1_555
C4Z C2Z 1_555 1_555
Co1S O1BA 1_555 1_555
O1S Co1S 1_555 1_555
O2S C4S 1_555 1_555
N1S Co1S 1_555 1_555
N2S Co1S 1_555 1_555
H1S N2S 1_555 1_555
H2S N2S 1_555 1_555
C1F N1S 1_555 1_555
C2S N1S 1_555 1_555
C3F C1F 1_555 1_555
C4S O1S 1_555 1_555
C5S N2S 1_555 1_555
H3S C5S 1_555 1_555
H4S C5S 1_555 1_555
O1F C4F 1_555 1_555
O2F C4F 1_555 1_555
N1F C1F 1_555 1_555
C2F C2S 1_555 1_555
C4F C2F 1_555 1_555
N2BA Co1S 1_555 1_555
H1BA N2BA 1_555 1_555
H2BA N2BA 1_555 1_555
C5BA C5S 1_555 1_555
H3BA C5BA 1_555 1_555
H4BA C5BA 1_555 1_555
Co1U O1Z 1_555 1_555
N2Z Co1U 1_555 1_555
H1Z N2Z 1_555 1_555
H2Z N2Z 1_555 1_555
C5Z N2Z 1_555 1_555
H3Z C5Z 1_555 1_555
H4Z C5Z 1_555 1_555
N2U Co1U 1_555 1_555
H1U N2U 1_555 1_555
H2U N2U 1_555 1_555
C5U C5Z 1_555 1_555
H3U C5U 1_555 1_555
H4U C5U 1_555 1_555
Co1F O1F 1_555 1_555
N2F Co1F 1_555 1_555
H1F N2F 1_555 1_555
H2F N2F 1_555 1_555
C5F N2F 1_555 1_555
H3F C5F 1_555 1_555
H4F C5F 1_555 1_555
N2I Co1F 1_555 1_555
H1I N2I 1_555 1_555
H2I N2I 1_555 1_555
C5I C5F 1_555 1_555
H3I C5I 1_555 1_555
H4I C5I 1_555 1_555
O1I Co1F 1_555 1_555
O2I C4I 1_555 1_555
N1I Co1F 1_555 1_555
C1I N1I 1_555 1_555
C2I N1I 1_555 1_555
C3I C1I 1_555 1_555
C4I O1I 1_555 1_555
O1U Co1U 1_555 1_555
O2U C4U 1_555 1_555
N1U Co1U 1_555 1_555
C2U C2I 1_555 1_555
C4U O1U 1_555 1_555
N1BA C2BA 1_555 1_555
N1BA Co1S 1_555 1_555
N2O C5O 1_555 1_555
C2O C4O 1_555 1_555
N1Z C2Z 1_555 1_555
N1Z Co1U 1_555 1_555
C2S C4S 1_555 1_555
N1F C2F 1_555 1_555
N1F Co1F 1_555 1_555
N2BA C5BA 1_555 1_555
N2U C5U 1_555 1_555
N2I C5I 1_555 1_555
C1I N1U 1_555 1_555
C2I C4I 1_555 1_555
N1U C2U 1_555 1_555
C2U C4U 1_555 1_555

#END
