
#######################################################################
#
#                 Cambridge Crystallographic Data Centre
#                                CCDC 
#
#######################################################################
#
# If this CIF has been generated from an entry in the Cambridge 
# Structural Database, then it will include bibliographic, chemical, 
# crystal, experimental, refinement or atomic coordinate data resulting 
# from the CCDC's data processing and validation procedures.
#
#######################################################################

data_JEHSUN
_chemical_name_common            ZAS-4
_chemical_formula_moiety         'C40 H60 Co4 N16 O16,23(H2 O1)'
_chemical_name_systematic        
'tetrakis(\m-4,5-dicarboxylato-2-ethyl-imidazolato)-tetrakis(propane-1,2-diamine)-tetra-cobalt(iii) tricosahydrate'
_symmetry_cell_setting           tetragonal
_symmetry_space_group_name_H-M   'I 41/a m d'
_symmetry_Int_Tables_number      141
_space_group_name_Hall           '-I 4bd 2'
loop_
_symmetry_equiv_pos_site_id
_symmetry_equiv_pos_as_xyz
1 x,y,z
2 1/2-x,-y,1/2+z
3 1/4-y,3/4+x,1/4+z
4 1/4+y,1/4-x,3/4+z
5 1/2-x,y,1/2-z
6 x,-y,-z
7 1/4+y,3/4+x,1/4-z
8 1/4-y,1/4-x,3/4-z
9 1/2+x,1/2+y,1/2+z
10 -x,1/2-y,z
11 3/4-y,1/4+x,3/4+z
12 3/4+y,3/4-x,1/4+z
13 -x,1/2+y,-z
14 1/2+x,1/2-y,1/2-z
15 3/4+y,1/4+x,3/4-z
16 3/4-y,3/4-x,1/4-z
17 -x,-y,-z
18 1/2+x,y,1/2-z
19 3/4+y,1/4-x,3/4-z
20 3/4-y,3/4+x,1/4-z
21 1/2+x,-y,1/2+z
22 -x,y,z
23 3/4-y,1/4-x,3/4+z
24 3/4+y,3/4+x,1/4+z
25 1/2-x,1/2-y,1/2-z
26 x,1/2+y,-z
27 1/4+y,3/4-x,1/4-z
28 1/4-y,1/4+x,3/4-z
29 x,1/2-y,z
30 1/2-x,1/2+y,1/2+z
31 1/4-y,3/4-x,1/4+z
32 1/4+y,1/4+x,3/4+z
_cell_length_a                   19.802(3)
_cell_length_b                   19.802(3)
_cell_length_c                   20.696(4)
_cell_angle_alpha                90
_cell_angle_beta                 90
_cell_angle_gamma                90
_cell_volume                     8115.3
_exptl_crystal_colour            red
_exptl_crystal_description       block
_cell_formula_units_Z            4
loop_
_atom_site_label
_atom_site_type_symbol
_atom_site_fract_x
_atom_site_fract_y
_atom_site_fract_z
O3 O 0.1589(15) 0.6437(15) 0.0026(13)
O4 O 0.138(2) 0.624(2) -0.0013(18)
O5 O 0.5000 0.5798(19) 0.1696(15)
O6 O 0.6402(17) 0.6854(17) 0.1369(14)
O7 O 0.5205(16) 0.656(2) 0.1441(17)
O8 O 0.5806(17) 0.6808(16) 0.1473(15)
O9 O 0.5150(11) 0.6209(12) 0.1596(9)
O10 O 0.130(3) 0.7500 0.093(3)
Co1 Co 0.34597(2) 0.59597(2) -0.1250
O1 O 0.35151(10) 0.58649(11) -0.03385(13)
O2 O 0.42263(11) 0.57999(12) 0.04887(11)
N1 N 0.44433(13) 0.59402(12) -0.12107(12)
N2 N 0.24873(15) 0.59178(13) -0.11539(15)
C1 C 0.5000 0.5980(2) -0.1581(2)
C2 C 0.46546(15) 0.58723(14) -0.05818(14)
C3 C 0.5000 0.6082(3) -0.2296(2)
C4 C 0.5000 0.6876(8) -0.2464(7)
C5 C 0.41182(16) 0.58377(15) -0.00941(14)
C6 C 0.2234(4) 0.5241(4) -0.1345(5)
C7 C 0.1527(5) 0.5122(6) -0.1113(6)
O1U O 0.64849(10) 0.58649(11) -0.03385(13)
O2U O 0.57737(11) 0.57999(12) 0.04887(11)
N1U N 0.55567(13) 0.59402(12) -0.12107(12)
C2U C 0.53454(15) 0.58723(14) -0.05818(14)
C5U C 0.58818(16) 0.58377(15) -0.00941(14)
N2N N 0.34178(13) 0.49873(15) -0.13461(15)
C6N C 0.2741(4) 0.4734(4) -0.1155(5)
C7N C 0.2622(6) 0.4027(5) -0.1387(6)
O1N O 0.33649(11) 0.60151(10) -0.21615(13)
O2N O 0.32999(12) 0.67263(11) -0.29887(11)
N1N N 0.34402(12) 0.69433(13) -0.12893(12)
C1N C 0.3480(2) 0.7500 -0.0919(2)
C2N C 0.33723(14) 0.71546(15) -0.19182(14)
C3N C 0.3582(3) 0.7500 -0.0204(2)
C4N C 0.4376(8) 0.7500 -0.0036(7)
C5N C 0.33377(15) 0.66182(16) -0.24059(14)
O1R O 0.33649(11) 0.89849(10) -0.21615(13)
O2R O 0.32999(12) 0.82737(11) -0.29887(11)
N1R N 0.34402(12) 0.80567(13) -0.12893(12)
C2R C 0.33723(14) 0.78454(15) -0.19182(14)
C5R C 0.33377(15) 0.83818(16) -0.24059(14)
Co1R Co 0.34597(2) 0.90403(2) -0.1250
N2R N 0.34178(13) 1.00127(15) -0.13461(15)
C6R C 0.2741(4) 1.0266(4) -0.1155(5)
C7R C 0.2622(6) 1.0973(5) -0.1387(6)
N2BA N 0.24873(15) 0.90822(13) -0.11539(15)
C6BA C 0.2234(4) 0.9759(4) -0.1345(5)
C7BA C 0.1527(5) 0.9878(6) -0.1113(6)
Co1U Co 0.65403(2) 0.59597(2) -0.1250
N2U N 0.75127(15) 0.59178(13) -0.11539(15)
C6U C 0.7766(4) 0.5241(4) -0.1345(5)
C7U C 0.8473(5) 0.5122(6) -0.1113(6)
N2AA N 0.65822(13) 0.49873(15) -0.13461(15)
C6AA C 0.7259(4) 0.4734(4) -0.1155(5)
C7AA C 0.7378(6) 0.4027(5) -0.1387(6)
O1AA O 0.66351(11) 0.60151(10) -0.21615(13)
O2AA O 0.67001(12) 0.67263(11) -0.29887(11)
N1AA N 0.65598(12) 0.69433(13) -0.12893(12)
C1G C 0.6520(2) 0.7500 -0.0919(2)
C2AA C 0.66277(14) 0.71546(15) -0.19182(14)
C3G C 0.6418(3) 0.7500 -0.0204(2)
C4G C 0.5624(8) 0.7500 -0.0036(7)
C5AA C 0.66623(15) 0.66182(16) -0.24059(14)
O1G O 0.66351(11) 0.89849(10) -0.21615(13)
O2G O 0.67001(12) 0.82737(11) -0.29887(11)
N1G N 0.65598(12) 0.80567(13) -0.12893(12)
C2G C 0.66277(14) 0.78454(15) -0.19182(14)
C5G C 0.66623(15) 0.83818(16) -0.24059(14)
O1BA O 0.35151(10) 0.91351(11) -0.03385(13)
O2BA O 0.42263(11) 0.92001(12) 0.04887(11)
N1BA N 0.44433(13) 0.90598(12) -0.12107(12)
C1I C 0.5000 0.9020(2) -0.1581(2)
C2BA C 0.46546(15) 0.91277(14) -0.05818(14)
C3I C 0.5000 0.8918(3) -0.2296(2)
C4I C 0.5000 0.8124(8) -0.2464(7)
C5BA C 0.41182(16) 0.91623(15) -0.00941(14)
O1I O 0.64849(10) 0.91351(11) -0.03385(13)
O2I O 0.57737(11) 0.92001(12) 0.04887(11)
N1I N 0.55567(13) 0.90598(12) -0.12107(12)
C2I C 0.53454(15) 0.91277(14) -0.05818(14)
C5I C 0.58818(16) 0.91623(15) -0.00941(14)
Co1G Co 0.65403(2) 0.90403(2) -0.1250
N2G N 0.65822(13) 1.00127(15) -0.13461(15)
C6G C 0.7259(4) 1.0266(4) -0.1155(5)
C7G C 0.7378(6) 1.0973(5) -0.1387(6)
N2I N 0.75127(15) 0.90822(13) -0.11539(15)
C6I C 0.7766(4) 0.9759(4) -0.1345(5)
C7I C 0.8473(5) 0.9878(6) -0.1113(6)
C8? C 0.5000 0.5307(11) -0.2635(10)
C9? C 0.2317(15) 0.5171(17) -0.0972(12)
loop_
_geom_bond_atom_site_label_1
_geom_bond_atom_site_label_2
_geom_bond_site_symmetry_1
_geom_bond_site_symmetry_2
Co1 O1 1_555 1_555
O1 C5 1_555 1_555
O2 C5 1_555 1_555
N1 Co1 1_555 1_555
N2 Co1 1_555 1_555
C1 N1 1_555 1_555
C2 N1 1_555 1_555
C3 C1 1_555 1_555
C4 C3 1_555 1_555
C5 C2 1_555 1_555
C6 N2 1_555 1_555
C7 C6 1_555 1_555
O1U C5U 1_555 1_555
O2U C5U 1_555 1_555
N1U C1 1_555 1_555
C2U C2 1_555 1_555
C5U C2U 1_555 1_555
N2N Co1 1_555 1_555
C6N C6 1_555 1_555
C7N C6N 1_555 1_555
O1N Co1 1_555 1_555
O2N C5N 1_555 1_555
N1N Co1 1_555 1_555
C1N N1N 1_555 1_555
C2N N1N 1_555 1_555
C3N C1N 1_555 1_555
C4N C3N 1_555 1_555
C5N O1N 1_555 1_555
O1R C5R 1_555 1_555
O2R C5R 1_555 1_555
N1R C1N 1_555 1_555
C2R C2N 1_555 1_555
C5R C2R 1_555 1_555
Co1R O1R 1_555 1_555
N2R Co1R 1_555 1_555
C6R N2R 1_555 1_555
C7R C6R 1_555 1_555
N2BA Co1R 1_555 1_555
C6BA C6R 1_555 1_555
C7BA C6BA 1_555 1_555
Co1U O1U 1_555 1_555
N2U Co1U 1_555 1_555
C6U N2U 1_555 1_555
C7U C6U 1_555 1_555
N2AA Co1U 1_555 1_555
C6AA C6U 1_555 1_555
C7AA C6AA 1_555 1_555
O1AA Co1U 1_555 1_555
O2AA C5AA 1_555 1_555
N1AA Co1U 1_555 1_555
C1G N1AA 1_555 1_555
C2AA N1AA 1_555 1_555
C3G C1G 1_555 1_555
C4G C3G 1_555 1_555
C5AA O1AA 1_555 1_555
O1G C5G 1_555 1_555
O2G C5G 1_555 1_555
N1G C1G 1_555 1_555
C2G C2AA 1_555 1_555
C5G C2G 1_555 1_555
O1BA Co1R 1_555 1_555
O2BA C5BA 1_555 1_555
N1BA Co1R 1_555 1_555
C1I N1BA 1_555 1_555
C2BA N1BA 1_555 1_555
C3I C1I 1_555 1_555
C4I C3I 1_555 1_555
C5BA O1BA 1_555 1_555
O1I C5I 1_555 1_555
O2I C5I 1_555 1_555
N1I C1I 1_555 1_555
C2I C2BA 1_555 1_555
C5I C2I 1_555 1_555
Co1G O1G 1_555 1_555
N2G Co1G 1_555 1_555
C6G N2G 1_555 1_555
C7G C6G 1_555 1_555
N2I Co1G 1_555 1_555
C6I C6G 1_555 1_555
C7I C6I 1_555 1_555
N1U C2U 1_555 1_555
N1U Co1U 1_555 1_555
N2N C6N 1_555 1_555
C2N C5N 1_555 1_555
N1R C2R 1_555 1_555
N1R Co1R 1_555 1_555
N2BA C6BA 1_555 1_555
N2AA C6AA 1_555 1_555
C2AA C5AA 1_555 1_555
N1G C2G 1_555 1_555
N1G Co1G 1_555 1_555
C2BA C5BA 1_555 1_555
O1I Co1G 1_555 1_555
N1I C2I 1_555 1_555
N1I Co1G 1_555 1_555
N2I C6I 1_555 1_555

#END
