
#######################################################################
#
#                 Cambridge Crystallographic Data Centre
#                                CCDC 
#
#######################################################################
#
# If this CIF has been generated from an entry in the Cambridge 
# Structural Database, then it will include bibliographic, chemical, 
# crystal, experimental, refinement or atomic coordinate data resulting 
# from the CCDC's data processing and validation procedures.
#
#######################################################################

data_JEQJIB
_chemical_formula_moiety         
'C360 H174 Co24 O198 S48 30-,6(C6 H16 N1 1+),24(Na1 1+),5(C1 H4 O1),10(H2 O1)'
_chemical_name_systematic        
"hexakis(triethylammonium) tetracosa-sodium hexakis(\m-hydroxo)-octakis(\m-4,4',4''-(benzene-1,3,5-triyl)tribenzoato)-hexakis(\m-5,11,17,23-tetrasulfito-2,8,14,20-tetrasulfonylcalix(4)arene-25,26,27,28-tetraolato)-tetracosa-cobalt(ii) methanol solvate decahydrate"
_symmetry_cell_setting           rhombohedral
_symmetry_space_group_name_H-M   'R -3'
_symmetry_Int_Tables_number      148
_space_group_name_Hall           '-R 3'
loop_
_symmetry_equiv_pos_site_id
_symmetry_equiv_pos_as_xyz
1 x,y,z
2 -y,x-y,z
3 -x+y,-x,z
4 2/3+x,1/3+y,1/3+z
5 2/3-y,1/3+x-y,1/3+z
6 2/3-x+y,1/3-x,1/3+z
7 1/3+x,2/3+y,2/3+z
8 1/3-y,2/3+x-y,2/3+z
9 1/3-x+y,2/3-x,2/3+z
10 -x,-y,-z
11 y,-x+y,-z
12 x-y,x,-z
13 1/3-x,2/3-y,2/3-z
14 1/3+y,2/3-x+y,2/3-z
15 1/3+x-y,2/3+x,2/3-z
16 2/3-x,1/3-y,1/3-z
17 2/3+y,1/3-x+y,1/3-z
18 2/3+x-y,1/3+x,1/3-z
_cell_length_a                   33.5421(11)
_cell_length_b                   33.5421(11)
_cell_length_c                   80.869(5)
_cell_angle_alpha                90
_cell_angle_beta                 90
_cell_angle_gamma                120
_cell_volume                     78794
_exptl_crystal_colour            purple
_exptl_crystal_description       block
_cell_formula_units_Z            3
loop_
_atom_site_label
_atom_site_type_symbol
_atom_site_fract_x
_atom_site_fract_y
_atom_site_fract_z
Co1 Co 1.07445(3) -0.25010(3) -0.10729(2)
Co2 Co 0.97136(3) -0.30508(3) -0.10732(2)
Co3 Co 0.97286(3) -0.35567(3) -0.07687(2)
Co4 Co 1.07621(3) -0.30027(3) -0.07682(2)
S1 S 0.92756(6) -0.36709(6) -0.13786(2)
S2 S 0.93237(7) -0.46049(6) -0.08081(2)
S3 S 1.12538(7) -0.35662(6) -0.08097(2)
S4 S 1.12080(6) -0.26373(6) -0.13816(2)
S5 S 1.02610(8) -0.36589(8) -0.19063(2)
S6 S 0.84638(13) -0.55252(9) -0.13587(4)
S7 S 1.03661(14) -0.54097(10) -0.08445(5)
S8 S 1.20850(13) -0.36122(13) -0.13724(4)
O1 O 1.05828(15) -0.20063(14) -0.11246(5)
O2 O 0.98318(16) -0.24149(15) -0.11386(5)
O3 O 0.92075(16) -0.30649(16) -0.09378(5)
O4 O 0.91809(16) -0.34840(16) -0.07227(6)
O5 O 0.65882(17) -0.32711(24) 0.05261(5)
O6 O 0.69705(17) -0.36469(23) 0.05252(5)
O7 O 0.64002(23) -0.12457(16) -0.07139(5)
O8 O 0.67578(22) -0.12504(16) -0.09428(6)
O9 O 1.02355(14) -0.30024(14) -0.12244(5)
O10 O 0.92651(15) -0.33298(14) -0.12765(5)
O11 O 0.95481(14) -0.37255(13) -0.10159(5)
O12 O 0.93132(17) -0.42611(14) -0.07043(5)
O13 O 1.02658(15) -0.36882(14) -0.08055(5)
O14 O 1.12301(16) -0.32190(15) -0.07098(5)
O15 O 1.09615(14) -0.29668(14) -0.10156(5)
O16 O 1.11879(14) -0.22952(14) -0.12769(5)
O17 O 0.89675(16) -0.38326(16) -0.15143(5)
O18 O 0.90238(17) -0.50689(15) -0.07594(6)
O19 O 1.15791(18) -0.37010(18) -0.07596(6)
O20 O 1.15231(15) -0.24657(15) -0.15173(5)
O21 O 1.0067(5) -0.3449(5) -0.20025(10)
O22 O 0.9937(3) -0.4108(3) -0.19090(9)
O23 O 1.0704(3) -0.3465(4) -0.19526(10)
O24 O 0.8057(4) -0.5775(3) -0.12612(14)
O25 O 0.8727(5) -0.5748(3) -0.13368(17)
O26 O 0.8414(5) -0.5424(3) -0.15169(11)
O27 O 1.0500(7) -0.5479(4) -0.06941(15)
O28 O 1.0746(5) -0.5287(4) -0.0938(2)
O29 O 1.0016(5) -0.5707(3) -0.09350(19)
O30 O 1.2469(4) -0.3479(6) -0.12700(15)
O31 O 1.2187(4) -0.3416(5) -0.15211(10)
O32 O 1.1812(5) -0.4093(4) -0.1372(2)
O33 O 1.02286(14) -0.28660(14) -0.08745(4)
C1 C 1.0049(2) -0.0394(2) -0.11385(9)
C2 C 0.9610(2) -0.0429(2) -0.11412(8)
H1 H 0.9343 -0.0726 -0.1145
C3 C 1.0085(2) -0.0824(2) -0.11415(9)
C4 C 1.0477(3) -0.0807(3) -0.10746(10)
H2 H 1.0712 -0.0533 -0.1025
C5 C 1.0517(2) -0.1203(2) -0.10815(10)
H3 H 1.0791 -0.1187 -0.1042
C6 C 1.0172(2) -0.1613(2) -0.11431(8)
C7 C 0.9788(3) -0.1621(2) -0.12097(11)
H4 H 0.9551 -0.1896 -0.1258
C8 C 0.9746(3) -0.1223(2) -0.12067(12)
H5 H 0.9478 -0.1235 -0.1251
C9 C 1.0208(2) -0.2033(2) -0.11299(8)
C10 C 0.7770(3) -0.2827(3) -0.04656(8)
C11 C 0.7606(3) -0.2559(3) -0.05459(8)
H6 H 0.7706 -0.2451 -0.0655
C12 C 0.7310(2) -0.2456(3) -0.04697(8)
C13 C 0.7156(3) -0.2621(3) -0.03067(8)
H7 H 0.6937 -0.2564 -0.0254
C14 C 0.7332(3) -0.2873(3) -0.02237(8)
C15 C 0.7635(3) -0.2972(3) -0.03099(8)
H8 H 0.7749 -0.3147 -0.0256
C16 C 0.8095(3) -0.2938(3) -0.05584(9)
C17 C 0.8109(3) -0.3337(3) -0.05223(11)
H9 H 0.7894 -0.3549 -0.0445
C18 C 0.8427(3) -0.3438(3) -0.05950(10)
H10 H 0.8445 -0.3701 -0.0563
C19 C 0.8711(3) -0.3140(3) -0.07150(8)
C20 C 0.8686(3) -0.2759(3) -0.07621(10)
H11 H 0.8879 -0.2565 -0.0848
C21 C 0.8379(3) -0.2658(3) -0.06837(10)
H12 H 0.8363 -0.2394 -0.0716
C22 C 0.9063(3) -0.3223(3) -0.08005(9)
C23 C 0.7132(4) -0.2182(3) -0.05554(8)
C24 C 0.7170(6) -0.2109(4) -0.07208(11)
H13 H 0.7303 -0.2248 -0.0786
C25 C 0.7024(5) -0.1843(4) -0.07961(13)
H14 H 0.7073 -0.1788 -0.0912
C26 C 0.6804(4) -0.1648(3) -0.07102(8)
C27 C 0.6831(5) -0.1664(4) -0.05384(10)
H15 H 0.6744 -0.1485 -0.0473
C28 C 0.6978(6) -0.1928(5) -0.04615(12)
H16 H 0.6978 -0.1942 -0.0344
C29 C 0.6648(3) -0.1356(2) -0.07912(7)
C30 C 0.7191(3) -0.3024(4) -0.00517(10)
C31 C 0.6970(4) -0.2876(5) 0.00392(11)
H17 H 0.6880 -0.2677 -0.0010
C32 C 0.6861(4) -0.2992(5) 0.02017(12)
H18 H 0.6718 -0.2855 0.0263
C33 C 0.6949(3) -0.3283(4) 0.02735(10)
C34 C 0.7200(5) -0.3396(6) 0.01940(11)
H19 H 0.7320 -0.3563 0.0250
C35 C 0.7306(5) -0.3288(6) 0.00287(12)
H20 H 0.7470 -0.3409 -0.0028
C36 C 0.6842(3) -0.3405(4) 0.04575(8)
C37 C 1.02415(19) -0.31369(18) -0.13756(6)
C38 C 0.9833(3) -0.3453(2) -0.14622(7)
C39 C 0.9835(3) -0.3622(2) -0.16221(8)
H21 H 0.9555 -0.3833 -0.1675
C40 C 1.0260(3) -0.3470(2) -0.17005(8)
C41 C 1.0660(3) -0.3169(2) -0.16267(8)
H22 H 1.0943 -0.3057 -0.1684
C42 C 1.0651(2) -0.3017(2) -0.14601(7)
C43 C 0.9299(2) -0.41216(19) -0.10885(6)
C44 C 0.9171(3) -0.4548(2) -0.10134(9)
C45 C 0.8913(3) -0.4975(3) -0.10932(9)
H23 H 0.8825 -0.5253 -0.1035
C46 C 0.8784(3) -0.4986(3) -0.12607(10)
C47 C 0.8912(3) -0.4573(2) -0.13399(8)
H24 H 0.8831 -0.4573 -0.1453
C48 C 0.9159(2) -0.4160(2) -0.12556(8)
C49 C 1.0281(2) -0.40738(18) -0.08074(7)
C50 C 1.0702(3) -0.4073(2) -0.08151(8)
C51 C 1.0742(3) -0.4473(3) -0.08197(10)
H25 H 1.1033 -0.4457 -0.0813
C52 C 1.0329(4) -0.4898(3) -0.08343(11)
C53 C 0.9906(3) -0.4915(3) -0.08225(10)
H26 H 0.9629 -0.5204 -0.0820
C54 C 0.9890(3) -0.4511(2) -0.08148(9)
C55 C 1.12220(19) -0.30867(19) -0.10922(6)
C56 C 1.1361(2) -0.2981(2) -0.12574(8)
C57 C 1.1617(3) -0.3132(3) -0.13453(9)
H27 H 1.1687 -0.3056 -0.1459
C58 C 1.1768(3) -0.3396(3) -0.12635(10)
C59 C 1.1642(3) -0.3525(3) -0.11012(9)
H28 H 1.1730 -0.3720 -0.1047
C60 C 1.1384(2) -0.3369(3) -0.10159(9)
O1A O 1.20063(14) 0.25891(21) -0.11246(5)
O2A O 1.24149(15) 0.22467(22) -0.11386(5)
C1A C 1.0394(2) 0.0443(3) -0.11385(9)
C2A C 1.0429(2) 0.0039(3) -0.11412(8)
H1A H 1.0726 0.0069 -0.1145
C3A C 1.0824(2) 0.0909(3) -0.11415(9)
C4A C 1.0807(3) 0.1284(4) -0.10746(10)
H2A H 1.0533 0.1245 -0.1025
C5A C 1.1203(2) 0.1720(3) -0.10815(10)
H3A H 1.1187 0.1978 -0.1042
C6A C 1.1613(2) 0.1785(3) -0.11431(8)
C7A C 1.1621(2) 0.1409(4) -0.12097(11)
H4A H 1.1896 0.1447 -0.1258
C8A C 1.1223(2) 0.0969(4) -0.12067(12)
H5A H 1.1235 0.0713 -0.1251
C9A C 1.2033(2) 0.2241(3) -0.11299(8)
O1B O 0.74109(21) -0.05828(15) -0.11246(5)
O2B O 0.77533(22) 0.01682(16) -0.11386(5)
C1B C 0.9557(3) -0.0049(2) -0.11385(9)
C2B C 0.9961(3) 0.0390(2) -0.11412(8)
H1B H 0.9931 0.0657 -0.1145
C3B C 0.9091(3) -0.0085(2) -0.11415(9)
C4B C 0.8716(4) -0.0477(3) -0.10746(10)
H2B H 0.8755 -0.0712 -0.1025
C5B C 0.8280(3) -0.0517(2) -0.10815(10)
H3B H 0.8022 -0.0791 -0.1042
C6B C 0.8215(3) -0.0172(2) -0.11431(8)
C7B C 0.8591(4) 0.0212(3) -0.12097(11)
H4B H 0.8553 0.0449 -0.1258
C8B C 0.9031(4) 0.0254(3) -0.12067(12)
H5B H 0.9287 0.0522 -0.1251
C9B C 0.7759(3) -0.0208(2) -0.11299(8)
Co1A Co 1.25010(3) 0.32455(4) -0.10729(2)
Co2A Co 1.30508(3) 0.27644(4) -0.10732(2)
Co3A Co 1.35567(3) 0.32853(4) -0.07687(2)
Co4A Co 1.30027(3) 0.37648(4) -0.07682(2)
S1A S 1.36709(6) 0.29465(8) -0.13786(2)
S2A S 1.46049(6) 0.39286(9) -0.08081(2)
S3A S 1.35662(6) 0.48200(9) -0.08097(2)
S4A S 1.26373(6) 0.38453(8) -0.13816(2)
S5A S 1.36589(8) 0.39199(11) -0.19063(2)
S6A S 1.55252(9) 0.39890(16) -0.13587(4)
S7A S 1.54097(10) 0.57758(17) -0.08445(5)
S8A S 1.36122(13) 0.56972(18) -0.13724(4)
O3A O 1.30649(16) 0.22724(23) -0.09378(5)
O4A O 1.34840(16) 0.26649(23) -0.07227(6)
O5A O 1.32711(24) -0.01407(29) 0.05261(5)
O6A O 1.36469(23) 0.06174(29) 0.05252(5)
O7A O 1.12457(16) -0.23541(28) -0.07139(5)
O8A O 1.12504(16) -0.19918(27) -0.09428(6)
O9A O 1.30024(14) 0.32379(20) -0.12244(5)
O10A O 1.33298(14) 0.25949(21) -0.12765(5)
O11A O 1.37255(13) 0.32736(19) -0.10159(5)
O12A O 1.42611(14) 0.35743(22) -0.07043(5)
O13A O 1.36882(14) 0.39540(21) -0.08055(5)
O14A O 1.32190(15) 0.44491(22) -0.07098(5)
O15A O 1.29668(14) 0.39283(20) -0.10156(5)
O16A O 1.22952(14) 0.34831(20) -0.12769(5)
O17A O 1.38326(16) 0.28001(23) -0.15143(5)
O18A O 1.50689(15) 0.40927(23) -0.07594(6)
O19A O 1.37010(18) 0.52801(25) -0.07596(6)
O20A O 1.24657(15) 0.39888(21) -0.15173(5)
O21A O 1.3449(5) 0.3516(7) -0.20025(10)
O22A O 1.4108(3) 0.4045(4) -0.19090(9)
O23A O 1.3465(4) 0.4169(5) -0.19526(10)
O24A O 1.5775(3) 0.3832(5) -0.12612(14)
O25A O 1.5748(3) 0.4475(6) -0.13368(17)
O26A O 1.5424(3) 0.3838(6) -0.15169(11)
O27A O 1.5479(4) 0.5979(8) -0.06941(15)
O28A O 1.5287(4) 0.6033(6) -0.0938(2)
O29A O 1.5707(3) 0.5723(6) -0.09350(19)
O30A O 1.3479(6) 0.5948(7) -0.12700(15)
O31A O 1.3416(5) 0.5603(6) -0.15211(10)
O32A O 1.4093(4) 0.5905(6) -0.1372(2)
O33A O 1.28660(14) 0.30946(20) -0.08745(4)
C10A C 1.2827(3) 0.0597(4) -0.04656(8)
C11A C 1.2559(3) 0.0165(4) -0.05459(8)
H6A H 1.2451 0.0157 -0.0655
C12A C 1.2456(3) -0.0234(4) -0.04697(8)
C13A C 1.2621(3) -0.0223(4) -0.03067(8)
H7A H 1.2564 -0.0499 -0.0254
C14A C 1.2873(3) 0.0205(4) -0.02237(8)
C15A C 1.2972(3) 0.0607(4) -0.03099(8)
H8A H 1.3147 0.0896 -0.0256
C16A C 1.2938(3) 0.1033(4) -0.05584(9)
C17A C 1.3337(3) 0.1446(4) -0.05223(11)
H9A H 1.3549 0.1443 -0.0445
C18A C 1.3438(3) 0.1865(4) -0.05950(10)
H10A H 1.3701 0.2146 -0.0563
C19A C 1.3140(3) 0.1851(4) -0.07150(8)
C20A C 1.2759(3) 0.1445(4) -0.07621(10)
H11A H 1.2565 0.1444 -0.0848
C21A C 1.2658(3) 0.1037(4) -0.06837(10)
H12A H 1.2394 0.0757 -0.0716
C22A C 1.3223(3) 0.2286(4) -0.08005(9)
C23A C 1.2182(3) -0.0686(5) -0.05554(8)
C24A C 1.2109(4) -0.0721(7) -0.07208(11)
H13A H 1.2248 -0.0449 -0.0786
C25A C 1.1843(4) -0.1133(6) -0.07961(13)
H14A H 1.1788 -0.1139 -0.0912
C26A C 1.1648(3) -0.1548(5) -0.07102(8)
C27A C 1.1664(4) -0.1505(6) -0.05384(10)
H15A H 1.1485 -0.1771 -0.0473
C28A C 1.1928(5) -0.1094(8) -0.04615(12)
H16A H 1.1942 -0.1080 -0.0344
C29A C 1.1356(2) -0.1996(4) -0.07912(7)
C30A C 1.3024(4) 0.0215(5) -0.00517(10)
C31A C 1.2876(5) -0.0154(6) 0.00392(11)
H17A H 1.2677 -0.0443 -0.0010
C32A C 1.2992(5) -0.0147(6) 0.02017(12)
H18A H 1.2855 -0.0427 0.0263
C33A C 1.3283(4) 0.0232(5) 0.02735(10)
C34A C 1.3396(6) 0.0596(8) 0.01940(11)
H19A H 1.3563 0.0883 0.0250
C35A C 1.3288(6) 0.0594(8) 0.00287(12)
H20A H 1.3409 0.0879 -0.0028
C36A C 1.3405(4) 0.0247(5) 0.04575(8)
C37A C 1.31369(18) 0.33784(26) -0.13756(6)
C38A C 1.3453(2) 0.3286(4) -0.14622(7)
C39A C 1.3622(2) 0.3457(4) -0.16221(8)
H21A H 1.3833 0.3388 -0.1675
C40A C 1.3470(2) 0.3730(4) -0.17005(8)
C41A C 1.3169(2) 0.3829(4) -0.16267(8)
H22A H 1.3057 0.4000 -0.1684
C42A C 1.3017(2) 0.3668(3) -0.14601(7)
C43A C 1.41216(19) 0.34206(28) -0.10885(6)
C44A C 1.4548(2) 0.3719(4) -0.10134(9)
C45A C 1.4975(3) 0.3888(4) -0.10932(9)
H23A H 1.5253 0.4078 -0.1035
C46A C 1.4986(3) 0.3770(4) -0.12607(10)
C47A C 1.4573(2) 0.3485(4) -0.13399(8)
H24A H 1.4573 0.3404 -0.1453
C48A C 1.4160(2) 0.3319(3) -0.12556(8)
C49A C 1.40738(18) 0.43548(27) -0.08074(7)
C50A C 1.4073(2) 0.4775(4) -0.08151(8)
C51A C 1.4473(3) 0.5215(4) -0.08197(10)
H25A H 1.4457 0.5490 -0.0813
C52A C 1.4898(3) 0.5227(5) -0.08343(11)
C53A C 1.4915(3) 0.4821(4) -0.08225(10)
H26A H 1.5204 0.4833 -0.0820
C54A C 1.4511(2) 0.4401(4) -0.08148(9)
C55A C 1.30867(19) 0.43087(27) -0.10922(6)
C56A C 1.2981(2) 0.4342(3) -0.12574(8)
C57A C 1.3132(3) 0.4749(4) -0.13453(9)
H27A H 1.3056 0.4743 -0.1459
C58A C 1.3396(3) 0.5164(4) -0.12635(10)
C59A C 1.3525(3) 0.5167(4) -0.11012(9)
H28A H 1.3720 0.5450 -0.1047
C60A C 1.3369(3) 0.4753(4) -0.10159(9)
Co1B Co 0.67545(4) -0.07445(3) -0.10729(2)
Co2B Co 0.72356(4) 0.02864(3) -0.10732(2)
Co3B Co 0.67147(4) 0.02714(3) -0.07687(2)
Co4B Co 0.62352(4) -0.07621(3) -0.07682(2)
S1B S 0.70535(8) 0.07244(6) -0.13786(2)
S2B S 0.60714(9) 0.06763(7) -0.08081(2)
S3B S 0.51800(9) -0.12538(7) -0.08097(2)
S4B S 0.61547(8) -0.12080(6) -0.13816(2)
S5B S 0.60801(11) -0.02610(8) -0.19063(2)
S6B S 0.60110(16) 0.15362(13) -0.13587(4)
S7B S 0.42242(17) -0.03661(14) -0.08445(5)
S8B S 0.43028(18) -0.20850(13) -0.13724(4)
O3B O 0.77276(23) 0.07925(16) -0.09378(5)
O4B O 0.73351(23) 0.08191(16) -0.07227(6)
O5B O 1.01407(29) 0.34118(17) 0.05261(5)
O6B O 0.93826(29) 0.30295(17) 0.05252(5)
O7B O 1.23541(28) 0.35998(23) -0.07139(5)
O8B O 1.19918(27) 0.32422(22) -0.09428(6)
O9B O 0.67621(20) -0.02355(14) -0.12244(5)
O10B O 0.74051(21) 0.07349(15) -0.12765(5)
O11B O 0.67264(19) 0.04519(14) -0.10159(5)
O12B O 0.64257(22) 0.06868(17) -0.07043(5)
O13B O 0.60460(21) -0.02658(15) -0.08055(5)
O14B O 0.55509(22) -0.12301(16) -0.07098(5)
O15B O 0.60717(20) -0.09615(14) -0.10156(5)
O16B O 0.65169(20) -0.11879(14) -0.12769(5)
O17B O 0.71999(23) 0.10325(16) -0.15143(5)
O18B O 0.59073(23) 0.09762(17) -0.07594(6)
O19B O 0.47199(25) -0.15791(18) -0.07596(6)
O20B O 0.60112(21) -0.15231(15) -0.15173(5)
O21B O 0.6484(7) -0.0067(5) -0.20025(10)
O22B O 0.5955(4) 0.0063(3) -0.19090(9)
O23B O 0.5831(5) -0.0704(3) -0.19526(10)
O24B O 0.6168(5) 0.1943(4) -0.12612(14)
O25B O 0.5525(6) 0.1273(5) -0.13368(17)
O26B O 0.6162(6) 0.1586(5) -0.15169(11)
O27B O 0.4021(8) -0.0500(7) -0.06941(15)
O28B O 0.3967(6) -0.0746(5) -0.0938(2)
O29B O 0.4277(6) -0.0016(5) -0.09350(19)
O30B O 0.4052(7) -0.2469(4) -0.12700(15)
O31B O 0.4397(6) -0.2187(4) -0.15211(10)
O32B O 0.4095(6) -0.1812(5) -0.1372(2)
O33B O 0.69054(20) -0.02286(14) -0.08745(4)
C10B C 0.9403(4) 0.2230(3) -0.04656(8)
C11B C 0.9835(4) 0.2394(3) -0.05459(8)
H6B H 0.9843 0.2294 -0.0655
C12B C 1.0234(4) 0.2690(2) -0.04697(8)
C13B C 1.0223(4) 0.2844(3) -0.03067(8)
H7B H 1.0499 0.3063 -0.0254
C14B C 0.9795(4) 0.2668(3) -0.02237(8)
C15B C 0.9393(4) 0.2365(3) -0.03099(8)
H8B H 0.9104 0.2251 -0.0256
C16B C 0.8967(4) 0.1905(3) -0.05584(9)
C17B C 0.8554(4) 0.1891(3) -0.05223(11)
H9B H 0.8557 0.2106 -0.0445
C18B C 0.8135(4) 0.1573(3) -0.05950(10)
H10B H 0.7854 0.1555 -0.0563
C19B C 0.8149(4) 0.1289(3) -0.07150(8)
C20B C 0.8555(4) 0.1314(3) -0.07621(10)
H11B H 0.8556 0.1121 -0.0848
C21B C 0.8963(4) 0.1621(3) -0.06837(10)
H12B H 0.9243 0.1637 -0.0716
C22B C 0.7714(4) 0.0937(3) -0.08005(9)
C23B C 1.0686(5) 0.2868(4) -0.05554(8)
C24B C 1.0721(7) 0.2830(6) -0.07208(11)
H13B H 1.0449 0.2697 -0.0786
C25B C 1.1133(6) 0.2976(5) -0.07961(13)
H14B H 1.1139 0.2927 -0.0912
C26B C 1.1548(5) 0.3196(4) -0.07102(8)
C27B C 1.1505(6) 0.3169(5) -0.05384(10)
H15B H 1.1771 0.3256 -0.0473
C28B C 1.1094(8) 0.3022(6) -0.04615(12)
H16B H 1.1080 0.3022 -0.0344
C29B C 1.1996(4) 0.3352(3) -0.07912(7)
C30B C 0.9785(5) 0.2809(3) -0.00517(10)
C31B C 1.0154(6) 0.3030(4) 0.00392(11)
H17B H 1.0443 0.3120 -0.0010
C32B C 1.0147(6) 0.3139(4) 0.02017(12)
H18B H 1.0427 0.3282 0.0263
C33B C 0.9768(5) 0.3051(3) 0.02735(10)
C34B C 0.9404(8) 0.2800(5) 0.01940(11)
H19B H 0.9117 0.2680 0.0250
C35B C 0.9406(8) 0.2694(5) 0.00287(12)
H20B H 0.9121 0.2530 -0.0028
C36B C 0.9753(5) 0.3158(3) 0.04575(8)
C37B C 0.66216(26) -0.02415(19) -0.13756(6)
C38B C 0.6714(4) 0.0167(3) -0.14622(7)
C39B C 0.6543(4) 0.0165(3) -0.16221(8)
H21B H 0.6612 0.0445 -0.1675
C40B C 0.6270(4) -0.0260(3) -0.17005(8)
C41B C 0.6171(4) -0.0660(3) -0.16267(8)
H22B H 0.6000 -0.0943 -0.1684
C42B C 0.6332(3) -0.0651(2) -0.14601(7)
C43B C 0.65794(28) 0.0701(2) -0.10885(6)
C44B C 0.6281(4) 0.0829(3) -0.10134(9)
C45B C 0.6112(4) 0.1087(3) -0.10932(9)
H23B H 0.5922 0.1175 -0.1035
C46B C 0.6230(4) 0.1216(3) -0.12607(10)
C47B C 0.6515(4) 0.1088(3) -0.13399(8)
H24B H 0.6596 0.1169 -0.1453
C48B C 0.6681(3) 0.0841(2) -0.12556(8)
C49B C 0.56452(27) -0.0281(2) -0.08074(7)
C50B C 0.5225(4) -0.0702(3) -0.08151(8)
C51B C 0.4785(4) -0.0742(3) -0.08197(10)
H25B H 0.4510 -0.1033 -0.0813
C52B C 0.4773(5) -0.0329(4) -0.08343(11)
C53B C 0.5179(4) 0.0094(3) -0.08225(10)
H26B H 0.5167 0.0371 -0.0820
C54B C 0.5599(4) 0.0110(3) -0.08148(9)
C55B C 0.56913(27) -0.12220(19) -0.10922(6)
C56B C 0.5658(3) -0.1361(2) -0.12574(8)
C57B C 0.5251(4) -0.1617(3) -0.13453(9)
H27B H 0.5257 -0.1687 -0.1459
C58B C 0.4836(4) -0.1768(3) -0.12635(10)
C59B C 0.4833(4) -0.1642(3) -0.11012(9)
H28B H 0.4550 -0.1730 -0.1047
C60B C 0.5247(4) -0.1384(2) -0.10159(9)
Co1I Co 0.92555(3) 0.25010(3) 0.10729(2)
Co2I Co 1.02864(3) 0.30508(3) 0.10732(2)
Co3I Co 1.02714(3) 0.35567(3) 0.07687(2)
Co4I Co 0.92379(3) 0.30027(3) 0.07682(2)
S1I S 1.07244(6) 0.36709(6) 0.13786(2)
S2I S 1.06763(7) 0.46049(6) 0.08081(2)
S3I S 0.87462(7) 0.35662(6) 0.08097(2)
S4I S 0.87920(6) 0.26373(6) 0.13816(2)
S5I S 0.97390(8) 0.36589(8) 0.19063(2)
S6I S 1.15362(13) 0.55252(9) 0.13587(4)
S7I S 0.96339(14) 0.54097(10) 0.08445(5)
S8I S 0.79150(13) 0.36122(13) 0.13724(4)
O1I O 0.94172(15) 0.20063(14) 0.11246(5)
O2I O 1.01682(16) 0.24149(15) 0.11386(5)
O3I O 1.07925(16) 0.30649(16) 0.09378(5)
O4I O 1.08191(16) 0.34840(16) 0.07227(6)
O5I O 1.34118(17) 0.32711(24) -0.05261(5)
O6I O 1.30295(17) 0.36469(23) -0.05252(5)
O7I O 1.35998(23) 0.12457(16) 0.07139(5)
O8I O 1.32422(22) 0.12504(16) 0.09428(6)
O9I O 0.97645(14) 0.30024(14) 0.12244(5)
O10I O 1.07349(15) 0.33298(14) 0.12765(5)
O11I O 1.04519(14) 0.37255(13) 0.10159(5)
O12I O 1.06868(17) 0.42611(14) 0.07043(5)
O13I O 0.97342(15) 0.36882(14) 0.08055(5)
O14I O 0.87699(16) 0.32190(15) 0.07098(5)
O15I O 0.90385(14) 0.29668(14) 0.10156(5)
O16I O 0.88121(14) 0.22952(14) 0.12769(5)
O17I O 1.10325(16) 0.38326(16) 0.15143(5)
O18I O 1.09762(17) 0.50689(15) 0.07594(6)
O19I O 0.84209(18) 0.37010(18) 0.07596(6)
O20I O 0.84769(15) 0.24657(15) 0.15173(5)
O21I O 0.9933(5) 0.3449(5) 0.20025(10)
O22I O 1.0063(3) 0.4108(3) 0.19090(9)
O23I O 0.9296(3) 0.3465(4) 0.19526(10)
O24I O 1.1943(4) 0.5775(3) 0.12612(14)
O25I O 1.1273(5) 0.5748(3) 0.13368(17)
O26I O 1.1586(5) 0.5424(3) 0.15169(11)
O27I O 0.9500(7) 0.5479(4) 0.06941(15)
O28I O 0.9254(5) 0.5287(4) 0.0938(2)
O29I O 0.9984(5) 0.5707(3) 0.09350(19)
O30I O 0.7531(4) 0.3479(6) 0.12700(15)
O31I O 0.7813(4) 0.3416(5) 0.15211(10)
O32I O 0.8188(5) 0.4093(4) 0.1372(2)
O33I O 0.97714(14) 0.28660(14) 0.08745(4)
C1I C 0.9951(2) 0.0394(2) 0.11385(9)
C2I C 1.0390(2) 0.0429(2) 0.11412(8)
H1I H 1.0657 0.0726 0.1145
C3I C 0.9915(2) 0.0824(2) 0.11415(9)
C4I C 0.9523(3) 0.0807(3) 0.10746(10)
H2I H 0.9288 0.0533 0.1025
C5I C 0.9483(2) 0.1203(2) 0.10815(10)
H3I H 0.9209 0.1187 0.1042
C6I C 0.9828(2) 0.1613(2) 0.11431(8)
C7I C 1.0212(3) 0.1621(2) 0.12097(11)
H4I H 1.0449 0.1896 0.1258
C8I C 1.0254(3) 0.1223(2) 0.12067(12)
H5I H 1.0522 0.1235 0.1251
C9I C 0.9792(2) 0.2033(2) 0.11299(8)
C10I C 1.2230(3) 0.2827(3) 0.04656(8)
C11I C 1.2394(3) 0.2559(3) 0.05459(8)
H6I H 1.2294 0.2451 0.0655
C12I C 1.2690(2) 0.2456(3) 0.04697(8)
C13I C 1.2844(3) 0.2621(3) 0.03067(8)
H7I H 1.3063 0.2564 0.0254
C14I C 1.2668(3) 0.2873(3) 0.02237(8)
C15I C 1.2365(3) 0.2972(3) 0.03099(8)
H8I H 1.2251 0.3147 0.0256
C16I C 1.1905(3) 0.2938(3) 0.05584(9)
C17I C 1.1891(3) 0.3337(3) 0.05223(11)
H9I H 1.2106 0.3549 0.0445
C18I C 1.1573(3) 0.3438(3) 0.05950(10)
H10I H 1.1555 0.3701 0.0563
C19I C 1.1289(3) 0.3140(3) 0.07150(8)
C20I C 1.1314(3) 0.2759(3) 0.07621(10)
H11I H 1.1121 0.2565 0.0848
C21I C 1.1621(3) 0.2658(3) 0.06837(10)
H12I H 1.1637 0.2394 0.0716
C22I C 1.0937(3) 0.3223(3) 0.08005(9)
C23I C 1.2868(4) 0.2182(3) 0.05554(8)
C24I C 1.2830(6) 0.2109(4) 0.07208(11)
H13I H 1.2697 0.2248 0.0786
C25I C 1.2976(5) 0.1843(4) 0.07961(13)
H14I H 1.2927 0.1788 0.0912
C26I C 1.3196(4) 0.1648(3) 0.07102(8)
C27I C 1.3169(5) 0.1664(4) 0.05384(10)
H15I H 1.3256 0.1485 0.0473
C28I C 1.3022(6) 0.1928(5) 0.04615(12)
H16I H 1.3022 0.1942 0.0344
C29I C 1.3352(3) 0.1356(2) 0.07912(7)
C30I C 1.2809(3) 0.3024(4) 0.00517(10)
C31I C 1.3030(4) 0.2876(5) -0.00392(11)
H17I H 1.3120 0.2677 0.0010
C32I C 1.3139(4) 0.2992(5) -0.02017(12)
H18I H 1.3282 0.2855 -0.0263
C33I C 1.3051(3) 0.3283(4) -0.02735(10)
C34I C 1.2800(5) 0.3396(6) -0.01940(11)
H19I H 1.2680 0.3563 -0.0250
C35I C 1.2694(5) 0.3288(6) -0.00287(12)
H20I H 1.2530 0.3409 0.0028
C36I C 1.3158(3) 0.3405(4) -0.04575(8)
C37I C 0.97585(19) 0.31369(18) 0.13756(6)
C38I C 1.0167(3) 0.3453(2) 0.14622(7)
C39I C 1.0165(3) 0.3622(2) 0.16221(8)
H21I H 1.0445 0.3833 0.1675
C40I C 0.9740(3) 0.3470(2) 0.17005(8)
C41I C 0.9340(3) 0.3169(2) 0.16267(8)
H22I H 0.9057 0.3057 0.1684
C42I C 0.9349(2) 0.3017(2) 0.14601(7)
C43I C 1.0701(2) 0.41216(19) 0.10885(6)
C44I C 1.0829(3) 0.4548(2) 0.10134(9)
C45I C 1.1087(3) 0.4975(3) 0.10932(9)
H23I H 1.1175 0.5253 0.1035
C46I C 1.1216(3) 0.4986(3) 0.12607(10)
C47I C 1.1088(3) 0.4573(2) 0.13399(8)
H24I H 1.1169 0.4573 0.1453
C48I C 1.0841(2) 0.4160(2) 0.12556(8)
C49I C 0.9719(2) 0.40738(18) 0.08074(7)
C50I C 0.9298(3) 0.4073(2) 0.08151(8)
C51I C 0.9258(3) 0.4473(3) 0.08197(10)
H25I H 0.8967 0.4457 0.0813
C52I C 0.9671(4) 0.4898(3) 0.08343(11)
C53I C 1.0094(3) 0.4915(3) 0.08225(10)
H26I H 1.0371 0.5204 0.0820
C54I C 1.0110(3) 0.4511(2) 0.08148(9)
C55I C 0.87780(19) 0.30867(19) 0.10922(6)
C56I C 0.8639(2) 0.2981(2) 0.12574(8)
C57I C 0.8383(3) 0.3132(3) 0.13453(9)
H27I H 0.8313 0.3056 0.1459
C58I C 0.8232(3) 0.3396(3) 0.12635(10)
C59I C 0.8358(3) 0.3525(3) 0.11012(9)
H28I H 0.8270 0.3720 0.1047
C60I C 0.8616(2) 0.3369(3) 0.10159(9)
O1J O 0.79937(14) -0.25891(21) 0.11246(5)
O2J O 0.75851(15) -0.22467(22) 0.11386(5)
C1J C 0.9606(2) -0.0443(3) 0.11385(9)
C2J C 0.9571(2) -0.0039(3) 0.11412(8)
H1J H 0.9274 -0.0069 0.1145
C3J C 0.9176(2) -0.0909(3) 0.11415(9)
C4J C 0.9193(3) -0.1284(4) 0.10746(10)
H2J H 0.9467 -0.1245 0.1025
C5J C 0.8797(2) -0.1720(3) 0.10815(10)
H3J H 0.8813 -0.1978 0.1042
C6J C 0.8387(2) -0.1785(3) 0.11431(8)
C7J C 0.8379(2) -0.1409(4) 0.12097(11)
H4J H 0.8104 -0.1447 0.1258
C8J C 0.8777(2) -0.0969(4) 0.12067(12)
H5J H 0.8765 -0.0713 0.1251
C9J C 0.7967(2) -0.2241(3) 0.11299(8)
O1K O 1.25891(21) 0.05828(15) 0.11246(5)
O2K O 1.22467(22) -0.01682(16) 0.11386(5)
C1K C 1.0443(3) 0.0049(2) 0.11385(9)
C2K C 1.0039(3) -0.0390(2) 0.11412(8)
H1K H 1.0069 -0.0657 0.1145
C3K C 1.0909(3) 0.0085(2) 0.11415(9)
C4K C 1.1284(4) 0.0477(3) 0.10746(10)
H2K H 1.1245 0.0712 0.1025
C5K C 1.1720(3) 0.0517(2) 0.10815(10)
H3K H 1.1978 0.0791 0.1042
C6K C 1.1785(3) 0.0172(2) 0.11431(8)
C7K C 1.1409(4) -0.0212(3) 0.12097(11)
H4K H 1.1447 -0.0449 0.1258
C8K C 1.0969(4) -0.0254(3) 0.12067(12)
H5K H 1.0713 -0.0522 0.1251
C9K C 1.2241(3) 0.0208(2) 0.11299(8)
Co1J Co 0.74990(3) -0.32455(4) 0.10729(2)
Co2J Co 0.69492(3) -0.27644(4) 0.10732(2)
Co3J Co 0.64433(3) -0.32853(4) 0.07687(2)
Co4J Co 0.69973(3) -0.37648(4) 0.07682(2)
S1J S 0.63291(6) -0.29465(8) 0.13786(2)
S2J S 0.53951(6) -0.39286(9) 0.08081(2)
S3J S 0.64338(6) -0.48200(9) 0.08097(2)
S4J S 0.73627(6) -0.38453(8) 0.13816(2)
S5J S 0.63411(8) -0.39199(11) 0.19063(2)
S6J S 0.44748(9) -0.39890(16) 0.13587(4)
S7J S 0.45903(10) -0.57758(17) 0.08445(5)
S8J S 0.63878(13) -0.56972(18) 0.13724(4)
O3J O 0.69351(16) -0.22724(23) 0.09378(5)
O4J O 0.65160(16) -0.26649(23) 0.07227(6)
O5J O 0.67289(24) 0.01407(29) -0.05261(5)
O6J O 0.63531(23) -0.06174(29) -0.05252(5)
O7J O 0.87543(16) 0.23541(28) 0.07139(5)
O8J O 0.87496(16) 0.19918(27) 0.09428(6)
O9J O 0.69976(14) -0.32379(20) 0.12244(5)
O10J O 0.66702(14) -0.25949(21) 0.12765(5)
O11J O 0.62745(13) -0.32736(19) 0.10159(5)
O12J O 0.57389(14) -0.35743(22) 0.07043(5)
O13J O 0.63118(14) -0.39540(21) 0.08055(5)
O14J O 0.67810(15) -0.44491(22) 0.07098(5)
O15J O 0.70332(14) -0.39283(20) 0.10156(5)
O16J O 0.77048(14) -0.34831(20) 0.12769(5)
O17J O 0.61674(16) -0.28001(23) 0.15143(5)
O18J O 0.49311(15) -0.40927(23) 0.07594(6)
O19J O 0.62990(18) -0.52801(25) 0.07596(6)
O20J O 0.75343(15) -0.39888(21) 0.15173(5)
O21J O 0.6551(5) -0.3516(7) 0.20025(10)
O22J O 0.5892(3) -0.4045(4) 0.19090(9)
O23J O 0.6535(4) -0.4169(5) 0.19526(10)
O24J O 0.4225(3) -0.3832(5) 0.12612(14)
O25J O 0.4252(3) -0.4475(6) 0.13368(17)
O26J O 0.4576(3) -0.3838(6) 0.15169(11)
O27J O 0.4521(4) -0.5979(8) 0.06941(15)
O28J O 0.4713(4) -0.6033(6) 0.0938(2)
O29J O 0.4293(3) -0.5723(6) 0.09350(19)
O30J O 0.6521(6) -0.5948(7) 0.12700(15)
O31J O 0.6584(5) -0.5603(6) 0.15211(10)
O32J O 0.5907(4) -0.5905(6) 0.1372(2)
O33J O 0.71340(14) -0.30946(20) 0.08745(4)
C10J C 0.7173(3) -0.0597(4) 0.04656(8)
C11J C 0.7441(3) -0.0165(4) 0.05459(8)
H6J H 0.7549 -0.0157 0.0655
C12J C 0.7544(3) 0.0234(4) 0.04697(8)
C13J C 0.7379(3) 0.0223(4) 0.03067(8)
H7J H 0.7436 0.0499 0.0254
C14J C 0.7127(3) -0.0205(4) 0.02237(8)
C15J C 0.7028(3) -0.0607(4) 0.03099(8)
H8J H 0.6853 -0.0896 0.0256
C16J C 0.7062(3) -0.1033(4) 0.05584(9)
C17J C 0.6663(3) -0.1446(4) 0.05223(11)
H9J H 0.6451 -0.1443 0.0445
C18J C 0.6562(3) -0.1865(4) 0.05950(10)
H10J H 0.6299 -0.2146 0.0563
C19J C 0.6860(3) -0.1851(4) 0.07150(8)
C20J C 0.7241(3) -0.1445(4) 0.07621(10)
H11J H 0.7435 -0.1444 0.0848
C21J C 0.7342(3) -0.1037(4) 0.06837(10)
H12J H 0.7606 -0.0757 0.0716
C22J C 0.6777(3) -0.2286(4) 0.08005(9)
C23J C 0.7818(3) 0.0686(5) 0.05554(8)
C24J C 0.7891(4) 0.0721(7) 0.07208(11)
H13J H 0.7752 0.0449 0.0786
C25J C 0.8157(4) 0.1133(6) 0.07961(13)
H14J H 0.8212 0.1139 0.0912
C26J C 0.8352(3) 0.1548(5) 0.07102(8)
C27J C 0.8336(4) 0.1505(6) 0.05384(10)
H15J H 0.8515 0.1771 0.0473
C28J C 0.8072(5) 0.1094(8) 0.04615(12)
H16J H 0.8058 0.1080 0.0344
C29J C 0.8644(2) 0.1996(4) 0.07912(7)
C30J C 0.6976(4) -0.0215(5) 0.00517(10)
C31J C 0.7124(5) 0.0154(6) -0.00392(11)
H17J H 0.7323 0.0443 0.0010
C32J C 0.7008(5) 0.0147(6) -0.02017(12)
H18J H 0.7145 0.0427 -0.0263
C33J C 0.6717(4) -0.0232(5) -0.02735(10)
C34J C 0.6604(6) -0.0596(8) -0.01940(11)
H19J H 0.6437 -0.0883 -0.0250
C35J C 0.6712(6) -0.0594(8) -0.00287(12)
H20J H 0.6591 -0.0879 0.0028
C36J C 0.6595(4) -0.0247(5) -0.04575(8)
C37J C 0.68631(18) -0.33784(26) 0.13756(6)
C38J C 0.6547(2) -0.3286(4) 0.14622(7)
C39J C 0.6378(2) -0.3457(4) 0.16221(8)
H21J H 0.6167 -0.3388 0.1675
C40J C 0.6530(2) -0.3730(4) 0.17005(8)
C41J C 0.6831(2) -0.3829(4) 0.16267(8)
H22J H 0.6943 -0.4000 0.1684
C42J C 0.6983(2) -0.3668(3) 0.14601(7)
C43J C 0.58784(19) -0.34206(28) 0.10885(6)
C44J C 0.5452(2) -0.3719(4) 0.10134(9)
C45J C 0.5025(3) -0.3888(4) 0.10932(9)
H23J H 0.4747 -0.4078 0.1035
C46J C 0.5014(3) -0.3770(4) 0.12607(10)
C47J C 0.5427(2) -0.3485(4) 0.13399(8)
H24J H 0.5427 -0.3404 0.1453
C48J C 0.5840(2) -0.3319(3) 0.12556(8)
C49J C 0.59262(18) -0.43548(27) 0.08074(7)
C50J C 0.5927(2) -0.4775(4) 0.08151(8)
C51J C 0.5527(3) -0.5215(4) 0.08197(10)
H25J H 0.5543 -0.5490 0.0813
C52J C 0.5102(3) -0.5227(5) 0.08343(11)
C53J C 0.5085(3) -0.4821(4) 0.08225(10)
H26J H 0.4796 -0.4833 0.0820
C54J C 0.5489(2) -0.4401(4) 0.08148(9)
C55J C 0.69133(19) -0.43087(27) 0.10922(6)
C56J C 0.7019(2) -0.4342(3) 0.12574(8)
C57J C 0.6868(3) -0.4749(4) 0.13453(9)
H27J H 0.6944 -0.4743 0.1459
C58J C 0.6604(3) -0.5164(4) 0.12635(10)
C59J C 0.6475(3) -0.5167(4) 0.11012(9)
H28J H 0.6280 -0.5450 0.1047
C60J C 0.6631(3) -0.4753(4) 0.10159(9)
Co1K Co 1.32455(4) 0.07445(3) 0.10729(2)
Co2K Co 1.27644(4) -0.02864(3) 0.10732(2)
Co3K Co 1.32853(4) -0.02714(3) 0.07687(2)
Co4K Co 1.37648(4) 0.07621(3) 0.07682(2)
S1K S 1.29465(8) -0.07244(6) 0.13786(2)
S2K S 1.39286(9) -0.06763(7) 0.08081(2)
S3K S 1.48200(9) 0.12538(7) 0.08097(2)
S4K S 1.38453(8) 0.12080(6) 0.13816(2)
S5K S 1.39199(11) 0.02610(8) 0.19063(2)
S6K S 1.39890(16) -0.15362(13) 0.13587(4)
S7K S 1.57758(17) 0.03661(14) 0.08445(5)
S8K S 1.56972(18) 0.20850(13) 0.13724(4)
O3K O 1.22724(23) -0.07925(16) 0.09378(5)
O4K O 1.26649(23) -0.08191(16) 0.07227(6)
O5K O 0.98593(29) -0.34118(17) -0.05261(5)
O6K O 1.06174(29) -0.30295(17) -0.05252(5)
O7K O 0.76459(28) -0.35998(23) 0.07139(5)
O8K O 0.80082(27) -0.32422(22) 0.09428(6)
O9K O 1.32379(20) 0.02355(14) 0.12244(5)
O10K O 1.25949(21) -0.07349(15) 0.12765(5)
O11K O 1.32736(19) -0.04519(14) 0.10159(5)
O12K O 1.35743(22) -0.06868(17) 0.07043(5)
O13K O 1.39540(21) 0.02658(15) 0.08055(5)
O14K O 1.44491(22) 0.12301(16) 0.07098(5)
O15K O 1.39283(20) 0.09615(14) 0.10156(5)
O16K O 1.34831(20) 0.11879(14) 0.12769(5)
O17K O 1.28001(23) -0.10325(16) 0.15143(5)
O18K O 1.40927(23) -0.09762(17) 0.07594(6)
O19K O 1.52801(25) 0.15791(18) 0.07596(6)
O20K O 1.39888(21) 0.15231(15) 0.15173(5)
O21K O 1.3516(7) 0.0067(5) 0.20025(10)
O22K O 1.4045(4) -0.0063(3) 0.19090(9)
O23K O 1.4169(5) 0.0704(3) 0.19526(10)
O24K O 1.3832(5) -0.1943(4) 0.12612(14)
O25K O 1.4475(6) -0.1273(5) 0.13368(17)
O26K O 1.3838(6) -0.1586(5) 0.15169(11)
O27K O 1.5979(8) 0.0500(7) 0.06941(15)
O28K O 1.6033(6) 0.0746(5) 0.0938(2)
O29K O 1.5723(6) 0.0016(5) 0.09350(19)
O30K O 1.5948(7) 0.2469(4) 0.12700(15)
O31K O 1.5603(6) 0.2187(4) 0.15211(10)
O32K O 1.5905(6) 0.1812(5) 0.1372(2)
O33K O 1.30946(20) 0.02286(14) 0.08745(4)
C10K C 1.0597(4) -0.2230(3) 0.04656(8)
C11K C 1.0165(4) -0.2394(3) 0.05459(8)
H6K H 1.0157 -0.2294 0.0655
C12K C 0.9766(4) -0.2690(2) 0.04697(8)
C13K C 0.9777(4) -0.2844(3) 0.03067(8)
H7K H 0.9501 -0.3063 0.0254
C14K C 1.0205(4) -0.2668(3) 0.02237(8)
C15K C 1.0607(4) -0.2365(3) 0.03099(8)
H8K H 1.0896 -0.2251 0.0256
C16K C 1.1033(4) -0.1905(3) 0.05584(9)
C17K C 1.1446(4) -0.1891(3) 0.05223(11)
H9K H 1.1443 -0.2106 0.0445
C18K C 1.1865(4) -0.1573(3) 0.05950(10)
H10K H 1.2146 -0.1555 0.0563
C19K C 1.1851(4) -0.1289(3) 0.07150(8)
C20K C 1.1445(4) -0.1314(3) 0.07621(10)
H11K H 1.1444 -0.1121 0.0848
C21K C 1.1037(4) -0.1621(3) 0.06837(10)
H12K H 1.0757 -0.1637 0.0716
C22K C 1.2286(4) -0.0937(3) 0.08005(9)
C23K C 0.9314(5) -0.2868(4) 0.05554(8)
C24K C 0.9279(7) -0.2830(6) 0.07208(11)
H13K H 0.9551 -0.2697 0.0786
C25K C 0.8867(6) -0.2976(5) 0.07961(13)
H14K H 0.8861 -0.2927 0.0912
C26K C 0.8452(5) -0.3196(4) 0.07102(8)
C27K C 0.8495(6) -0.3169(5) 0.05384(10)
H15K H 0.8229 -0.3256 0.0473
C28K C 0.8906(8) -0.3022(6) 0.04615(12)
H16K H 0.8920 -0.3022 0.0344
C29K C 0.8004(4) -0.3352(3) 0.07912(7)
C30K C 1.0215(5) -0.2809(3) 0.00517(10)
C31K C 0.9846(6) -0.3030(4) -0.00392(11)
H17K H 0.9557 -0.3120 0.0010
C32K C 0.9853(6) -0.3139(4) -0.02017(12)
H18K H 0.9573 -0.3282 -0.0263
C33K C 1.0232(5) -0.3051(3) -0.02735(10)
C34K C 1.0596(8) -0.2800(5) -0.01940(11)
H19K H 1.0883 -0.2680 -0.0250
C35K C 1.0594(8) -0.2694(5) -0.00287(12)
H20K H 1.0879 -0.2530 0.0028
C36K C 1.0247(5) -0.3158(3) -0.04575(8)
C37K C 1.33784(26) 0.02415(19) 0.13756(6)
C38K C 1.3286(4) -0.0167(3) 0.14622(7)
C39K C 1.3457(4) -0.0165(3) 0.16221(8)
H21K H 1.3388 -0.0445 0.1675
C40K C 1.3730(4) 0.0260(3) 0.17005(8)
C41K C 1.3829(4) 0.0660(3) 0.16267(8)
H22K H 1.4000 0.0943 0.1684
C42K C 1.3668(3) 0.0651(2) 0.14601(7)
C43K C 1.34206(28) -0.0701(2) 0.10885(6)
C44K C 1.3719(4) -0.0829(3) 0.10134(9)
C45K C 1.3888(4) -0.1087(3) 0.10932(9)
H23K H 1.4078 -0.1175 0.1035
C46K C 1.3770(4) -0.1216(3) 0.12607(10)
C47K C 1.3485(4) -0.1088(3) 0.13399(8)
H24K H 1.3404 -0.1169 0.1453
C48K C 1.3319(3) -0.0841(2) 0.12556(8)
C49K C 1.43548(27) 0.0281(2) 0.08074(7)
C50K C 1.4775(4) 0.0702(3) 0.08151(8)
C51K C 1.5215(4) 0.0742(3) 0.08197(10)
H25K H 1.5490 0.1033 0.0813
C52K C 1.5227(5) 0.0329(4) 0.08343(11)
C53K C 1.4821(4) -0.0094(3) 0.08225(10)
H26K H 1.4833 -0.0371 0.0820
C54K C 1.4401(4) -0.0110(3) 0.08148(9)
C55K C 1.43087(27) 0.12220(19) 0.10922(6)
C56K C 1.4342(3) 0.1361(2) 0.12574(8)
C57K C 1.4749(4) 0.1617(3) 0.13453(9)
H27K H 1.4743 0.1687 0.1459
C58K C 1.5164(4) 0.1768(3) 0.12635(10)
C59K C 1.5167(4) 0.1642(3) 0.11012(9)
H28K H 1.5450 0.1730 0.1047
C60K C 1.4753(4) 0.1384(2) 0.10159(9)
N1 N 1.0223(5) -0.4928(3) -0.13957(15)
C61 C 1.0083(5) -0.4654(4) -0.12773(17)
H29 H 0.9752 -0.4764 -0.1295
H30 H 1.0117 -0.4734 -0.1162
C62 C 1.0315(4) -0.4189(4) -0.12904(14)
H31 H 1.0194 -0.4059 -0.1210
H32 H 1.0643 -0.4071 -0.1269
H33 H 1.0276 -0.4101 -0.1402
C63 C 0.9906(6) -0.5449(4) -0.13419(17)
H34 H 0.9946 -0.5475 -0.1222
H35 H 0.9581 -0.5538 -0.1361
C64 C 1.0000(7) -0.5753(5) -0.1426(2)
H36 H 0.9792 -0.6067 -0.1386
H37 H 0.9954 -0.5736 -0.1544
H38 H 1.0320 -0.5673 -0.1405
C65 C 1.0182(8) -0.4864(8) -0.1587(3)
H39 H 1.0388 -0.4537 -0.1616
H40 H 1.0285 -0.5050 -0.1649
C66 C 0.9727(8) -0.4995(8) -0.1635(2)
H41 H 0.9718 -0.4949 -0.1754
H42 H 0.9522 -0.5321 -0.1608
H43 H 0.9625 -0.4807 -0.1575
loop_
_geom_bond_atom_site_label_1
_geom_bond_atom_site_label_2
_geom_bond_site_symmetry_1
_geom_bond_site_symmetry_2
Co1 O1 1_555 1_555
Co2 O2 1_555 1_555
Co3 O4 1_555 1_555
Co4 O13 1_555 1_555
S1 O10 1_555 1_555
S2 O12 1_555 1_555
S3 O14 1_555 1_555
S4 O16 1_555 1_555
S5 O21 1_555 1_555
S6 O24 1_555 1_555
S7 O27 1_555 1_555
S8 O30 1_555 1_555
O1 C9 1_555 1_555
O2 C9 1_555 1_555
O3 Co2 1_555 1_555
O4 C22 1_555 1_555
O5 C36 1_555 1_555
O6 C36 1_555 1_555
O7 C29 1_555 1_555
O8 C29 1_555 1_555
O9 Co1 1_555 1_555
O10 Co2 1_555 1_555
O11 Co2 1_555 1_555
O12 Co3 1_555 1_555
O13 Co3 1_555 1_555
O14 Co4 1_555 1_555
O15 Co1 1_555 1_555
O16 Co1 1_555 1_555
O17 S1 1_555 1_555
O18 S2 1_555 1_555
O19 S3 1_555 1_555
O20 S4 1_555 1_555
O22 S5 1_555 1_555
O23 S5 1_555 1_555
O25 S6 1_555 1_555
O26 S6 1_555 1_555
O28 S7 1_555 1_555
O29 S7 1_555 1_555
O31 S8 1_555 1_555
O32 S8 1_555 1_555
O33 Co1 1_555 1_555
C1 C2 1_555 1_555
C2 H1 1_555 1_555
C3 C1 1_555 1_555
C4 C3 1_555 1_555
H2 C4 1_555 1_555
C5 C4 1_555 1_555
H3 C5 1_555 1_555
C6 C5 1_555 1_555
C7 C6 1_555 1_555
H4 C7 1_555 1_555
C8 C3 1_555 1_555
H5 C8 1_555 1_555
C9 C6 1_555 1_555
C10 C11 1_555 1_555
C11 H6 1_555 1_555
C12 C11 1_555 1_555
C13 C12 1_555 1_555
H7 C13 1_555 1_555
C14 C13 1_555 1_555
C15 C10 1_555 1_555
H8 C15 1_555 1_555
C16 C10 1_555 1_555
C17 C16 1_555 1_555
H9 C17 1_555 1_555
C18 C17 1_555 1_555
H10 C18 1_555 1_555
C19 C18 1_555 1_555
C20 C19 1_555 1_555
H11 C20 1_555 1_555
C21 C16 1_555 1_555
H12 C21 1_555 1_555
C22 O3 1_555 1_555
C23 C12 1_555 1_555
C24 C23 1_555 1_555
H13 C24 1_555 1_555
C25 C24 1_555 1_555
H14 C25 1_555 1_555
C26 C25 1_555 1_555
C27 C26 1_555 1_555
H15 C27 1_555 1_555
C28 C23 1_555 1_555
H16 C28 1_555 1_555
C29 C26 1_555 1_555
C30 C14 1_555 1_555
C31 C30 1_555 1_555
H17 C31 1_555 1_555
C32 C31 1_555 1_555
H18 C32 1_555 1_555
C33 C32 1_555 1_555
C34 C33 1_555 1_555
H19 C34 1_555 1_555
C35 C30 1_555 1_555
H20 C35 1_555 1_555
C36 C33 1_555 1_555
C37 O9 1_555 1_555
C38 S1 1_555 1_555
C39 C38 1_555 1_555
H21 C39 1_555 1_555
C40 S5 1_555 1_555
C41 C40 1_555 1_555
H22 C41 1_555 1_555
C42 S4 1_555 1_555
C43 O11 1_555 1_555
C44 S2 1_555 1_555
C45 C44 1_555 1_555
H23 C45 1_555 1_555
C46 S6 1_555 1_555
C47 C46 1_555 1_555
H24 C47 1_555 1_555
C48 S1 1_555 1_555
C49 O13 1_555 1_555
C50 S3 1_555 1_555
C51 C50 1_555 1_555
H25 C51 1_555 1_555
C52 S7 1_555 1_555
C53 C52 1_555 1_555
H26 C53 1_555 1_555
C54 S2 1_555 1_555
C55 O15 1_555 1_555
C56 S4 1_555 1_555
C57 C56 1_555 1_555
H27 C57 1_555 1_555
C58 S8 1_555 1_555
C59 C58 1_555 1_555
H28 C59 1_555 1_555
C60 S3 1_555 1_555
N1 C61 1_555 1_555
C61 H29 1_555 1_555
H30 C61 1_555 1_555
C62 C61 1_555 1_555
H31 C62 1_555 1_555
H32 C62 1_555 1_555
H33 C62 1_555 1_555
C63 N1 1_555 1_555
H34 C63 1_555 1_555
H35 C63 1_555 1_555
C64 C63 1_555 1_555
H36 C64 1_555 1_555
H37 C64 1_555 1_555
H38 C64 1_555 1_555
C65 N1 1_555 1_555
H39 C65 1_555 1_555
H40 C65 1_555 1_555
C66 C65 1_555 1_555
H41 C66 1_555 1_555
H42 C66 1_555 1_555
H43 C66 1_555 1_555
O1A C9A 1_555 1_555
O2A C9A 1_555 1_555
C1A C2A 1_555 1_555
C2A C1 1_555 1_555
H1A C2A 1_555 1_555
C3A C1A 1_555 1_555
C4A C3A 1_555 1_555
H2A C4A 1_555 1_555
C5A C4A 1_555 1_555
H3A C5A 1_555 1_555
C6A C5A 1_555 1_555
C7A C6A 1_555 1_555
H4A C7A 1_555 1_555
C8A C3A 1_555 1_555
H5A C8A 1_555 1_555
C9A C6A 1_555 1_555
O1B C9B 1_555 1_555
O2B C9B 1_555 1_555
C1B C2 1_555 1_555
C2B C1A 1_555 1_555
H1B C2B 1_555 1_555
C3B C1B 1_555 1_555
C4B C3B 1_555 1_555
H2B C4B 1_555 1_555
C5B C4B 1_555 1_555
H3B C5B 1_555 1_555
C6B C5B 1_555 1_555
C7B C6B 1_555 1_555
H4B C7B 1_555 1_555
C8B C3B 1_555 1_555
H5B C8B 1_555 1_555
C9B C6B 1_555 1_555
Co1A O1A 1_555 1_555
Co2A O2A 1_555 1_555
Co3A O4A 1_555 1_555
Co4A O13A 1_555 1_555
S1A O10A 1_555 1_555
S2A O12A 1_555 1_555
S3A O14A 1_555 1_555
S4A O16A 1_555 1_555
S5A O21A 1_555 1_555
S6A O24A 1_555 1_555
S7A O27A 1_555 1_555
S8A O30A 1_555 1_555
O3A Co2A 1_555 1_555
O4A C22A 1_555 1_555
O5A C36A 1_555 1_555
O6A C36A 1_555 1_555
O7A Co4 1_555 1_555
O8A Co1 1_555 1_555
O9A Co1A 1_555 1_555
O10A Co2A 1_555 1_555
O11A Co2A 1_555 1_555
O12A Co3A 1_555 1_555
O13A Co3A 1_555 1_555
O14A Co4A 1_555 1_555
O15A Co1A 1_555 1_555
O16A Co1A 1_555 1_555
O17A S1A 1_555 1_555
O18A S2A 1_555 1_555
O19A S3A 1_555 1_555
O20A S4A 1_555 1_555
O22A S5A 1_555 1_555
O23A S5A 1_555 1_555
O25A S6A 1_555 1_555
O26A S6A 1_555 1_555
O28A S7A 1_555 1_555
O29A S7A 1_555 1_555
O31A S8A 1_555 1_555
O32A S8A 1_555 1_555
O33A Co1A 1_555 1_555
C10A C11A 1_555 1_555
C11A H6A 1_555 1_555
C12A C11A 1_555 1_555
C13A C12A 1_555 1_555
H7A C13A 1_555 1_555
C14A C13A 1_555 1_555
C15A C10A 1_555 1_555
H8A C15A 1_555 1_555
C16A C10A 1_555 1_555
C17A C16A 1_555 1_555
H9A C17A 1_555 1_555
C18A C17A 1_555 1_555
H10A C18A 1_555 1_555
C19A C18A 1_555 1_555
C20A C19A 1_555 1_555
H11A C20A 1_555 1_555
C21A C16A 1_555 1_555
H12A C21A 1_555 1_555
C22A O3A 1_555 1_555
C23A C12A 1_555 1_555
C24A C23A 1_555 1_555
H13A C24A 1_555 1_555
C25A C24A 1_555 1_555
H14A C25A 1_555 1_555
C26A C25A 1_555 1_555
C27A C26A 1_555 1_555
H15A C27A 1_555 1_555
C28A C23A 1_555 1_555
H16A C28A 1_555 1_555
C29A O7A 1_555 1_555
C30A C14A 1_555 1_555
C31A C30A 1_555 1_555
H17A C31A 1_555 1_555
C32A C31A 1_555 1_555
H18A C32A 1_555 1_555
C33A C32A 1_555 1_555
C34A C33A 1_555 1_555
H19A C34A 1_555 1_555
C35A C30A 1_555 1_555
H20A C35A 1_555 1_555
C36A C33A 1_555 1_555
C37A O9A 1_555 1_555
C38A S1A 1_555 1_555
C39A C38A 1_555 1_555
H21A C39A 1_555 1_555
C40A S5A 1_555 1_555
C41A C40A 1_555 1_555
H22A C41A 1_555 1_555
C42A S4A 1_555 1_555
C43A O11A 1_555 1_555
C44A S2A 1_555 1_555
C45A C44A 1_555 1_555
H23A C45A 1_555 1_555
C46A S6A 1_555 1_555
C47A C46A 1_555 1_555
H24A C47A 1_555 1_555
C48A S1A 1_555 1_555
C49A O13A 1_555 1_555
C50A S3A 1_555 1_555
C51A C50A 1_555 1_555
H25A C51A 1_555 1_555
C52A S7A 1_555 1_555
C53A C52A 1_555 1_555
H26A C53A 1_555 1_555
C54A S2A 1_555 1_555
C55A O15A 1_555 1_555
C56A S4A 1_555 1_555
C57A C56A 1_555 1_555
H27A C57A 1_555 1_555
C58A S8A 1_555 1_555
C59A C58A 1_555 1_555
H28A C59A 1_555 1_555
C60A S3A 1_555 1_555
Co1B O8 1_555 1_555
Co2B O2B 1_555 1_555
Co3B O4B 1_555 1_555
Co4B O7 1_555 1_555
S1B O10B 1_555 1_555
S2B O12B 1_555 1_555
S3B O14B 1_555 1_555
S4B O16B 1_555 1_555
S5B O21B 1_555 1_555
S6B O24B 1_555 1_555
S7B O27B 1_555 1_555
S8B O30B 1_555 1_555
O3B Co2B 1_555 1_555
O4B C22B 1_555 1_555
O5B C36B 1_555 1_555
O6B C36B 1_555 1_555
O7B Co4A 1_555 1_555
O8B Co1A 1_555 1_555
O9B Co1B 1_555 1_555
O10B Co2B 1_555 1_555
O11B Co2B 1_555 1_555
O12B Co3B 1_555 1_555
O13B Co3B 1_555 1_555
O14B Co4B 1_555 1_555
O15B Co1B 1_555 1_555
O16B Co1B 1_555 1_555
O17B S1B 1_555 1_555
O18B S2B 1_555 1_555
O19B S3B 1_555 1_555
O20B S4B 1_555 1_555
O22B S5B 1_555 1_555
O23B S5B 1_555 1_555
O25B S6B 1_555 1_555
O26B S6B 1_555 1_555
O28B S7B 1_555 1_555
O29B S7B 1_555 1_555
O31B S8B 1_555 1_555
O32B S8B 1_555 1_555
O33B Co1B 1_555 1_555
C10B C11B 1_555 1_555
C11B H6B 1_555 1_555
C12B C11B 1_555 1_555
C13B C12B 1_555 1_555
H7B C13B 1_555 1_555
C14B C13B 1_555 1_555
C15B C10B 1_555 1_555
H8B C15B 1_555 1_555
C16B C10B 1_555 1_555
C17B C16B 1_555 1_555
H9B C17B 1_555 1_555
C18B C17B 1_555 1_555
H10B C18B 1_555 1_555
C19B C18B 1_555 1_555
C20B C19B 1_555 1_555
H11B C20B 1_555 1_555
C21B C16B 1_555 1_555
H12B C21B 1_555 1_555
C22B O3B 1_555 1_555
C23B C12B 1_555 1_555
C24B C23B 1_555 1_555
H13B C24B 1_555 1_555
C25B C24B 1_555 1_555
H14B C25B 1_555 1_555
C26B C25B 1_555 1_555
C27B C26B 1_555 1_555
H15B C27B 1_555 1_555
C28B C23B 1_555 1_555
H16B C28B 1_555 1_555
C29B O7B 1_555 1_555
C30B C14B 1_555 1_555
C31B C30B 1_555 1_555
H17B C31B 1_555 1_555
C32B C31B 1_555 1_555
H18B C32B 1_555 1_555
C33B C32B 1_555 1_555
C34B C33B 1_555 1_555
H19B C34B 1_555 1_555
C35B C30B 1_555 1_555
H20B C35B 1_555 1_555
C36B C33B 1_555 1_555
C37B O9B 1_555 1_555
C38B S1B 1_555 1_555
C39B C38B 1_555 1_555
H21B C39B 1_555 1_555
C40B S5B 1_555 1_555
C41B C40B 1_555 1_555
H22B C41B 1_555 1_555
C42B S4B 1_555 1_555
C43B O11B 1_555 1_555
C44B S2B 1_555 1_555
C45B C44B 1_555 1_555
H23B C45B 1_555 1_555
C46B S6B 1_555 1_555
C47B C46B 1_555 1_555
H24B C47B 1_555 1_555
C48B S1B 1_555 1_555
C49B O13B 1_555 1_555
C50B S3B 1_555 1_555
C51B C50B 1_555 1_555
H25B C51B 1_555 1_555
C52B S7B 1_555 1_555
C53B C52B 1_555 1_555
H26B C53B 1_555 1_555
C54B S2B 1_555 1_555
C55B O15B 1_555 1_555
C56B S4B 1_555 1_555
C57B C56B 1_555 1_555
H27B C57B 1_555 1_555
C58B S8B 1_555 1_555
C59B C58B 1_555 1_555
H28B C59B 1_555 1_555
C60B S3B 1_555 1_555
Co1I O1I 1_555 1_555
Co2I O2I 1_555 1_555
Co3I O5B 1_555 1_555
Co4I O6B 1_555 1_555
S1I O10I 1_555 1_555
S2I O12I 1_555 1_555
S3I O14I 1_555 1_555
S4I O16I 1_555 1_555
S5I O21I 1_555 1_555
S6I O24I 1_555 1_555
S7I O27I 1_555 1_555
S8I O30I 1_555 1_555
O1I C9I 1_555 1_555
O2I C9I 1_555 1_555
O3I Co2I 1_555 1_555
O4I Co3I 1_555 1_555
O5I Co3A 1_555 1_555
O6I Co4A 1_555 1_555
O7I C29I 1_555 1_555
O8I C29I 1_555 1_555
O9I Co1I 1_555 1_555
O10I Co2I 1_555 1_555
O11I Co2I 1_555 1_555
O12I Co3I 1_555 1_555
O13I Co3I 1_555 1_555
O14I Co4I 1_555 1_555
O15I Co1I 1_555 1_555
O16I Co1I 1_555 1_555
O17I S1I 1_555 1_555
O18I S2I 1_555 1_555
O19I S3I 1_555 1_555
O20I S4I 1_555 1_555
O22I S5I 1_555 1_555
O23I S5I 1_555 1_555
O25I S6I 1_555 1_555
O26I S6I 1_555 1_555
O28I S7I 1_555 1_555
O29I S7I 1_555 1_555
O31I S8I 1_555 1_555
O32I S8I 1_555 1_555
O33I Co1I 1_555 1_555
C1I C2I 1_555 1_555
C2I H1I 1_555 1_555
C3I C1I 1_555 1_555
C4I C3I 1_555 1_555
H2I C4I 1_555 1_555
C5I C4I 1_555 1_555
H3I C5I 1_555 1_555
C6I C5I 1_555 1_555
C7I C6I 1_555 1_555
H4I C7I 1_555 1_555
C8I C3I 1_555 1_555
H5I C8I 1_555 1_555
C9I C6I 1_555 1_555
C10I C11I 1_555 1_555
C11I H6I 1_555 1_555
C12I C11I 1_555 1_555
C13I C12I 1_555 1_555
H7I C13I 1_555 1_555
C14I C13I 1_555 1_555
C15I C10I 1_555 1_555
H8I C15I 1_555 1_555
C16I C10I 1_555 1_555
C17I C16I 1_555 1_555
H9I C17I 1_555 1_555
C18I C17I 1_555 1_555
H10I C18I 1_555 1_555
C19I C18I 1_555 1_555
C20I C19I 1_555 1_555
H11I C20I 1_555 1_555
C21I C16I 1_555 1_555
H12I C21I 1_555 1_555
C22I O3I 1_555 1_555
C23I C12I 1_555 1_555
C24I C23I 1_555 1_555
H13I C24I 1_555 1_555
C25I C24I 1_555 1_555
H14I C25I 1_555 1_555
C26I C25I 1_555 1_555
C27I C26I 1_555 1_555
H15I C27I 1_555 1_555
C28I C23I 1_555 1_555
H16I C28I 1_555 1_555
C29I C26I 1_555 1_555
C30I C14I 1_555 1_555
C31I C30I 1_555 1_555
H17I C31I 1_555 1_555
C32I C31I 1_555 1_555
H18I C32I 1_555 1_555
C33I C32I 1_555 1_555
C34I C33I 1_555 1_555
H19I C34I 1_555 1_555
C35I C30I 1_555 1_555
H20I C35I 1_555 1_555
C36I O5I 1_555 1_555
C37I O9I 1_555 1_555
C38I S1I 1_555 1_555
C39I C38I 1_555 1_555
H21I C39I 1_555 1_555
C40I S5I 1_555 1_555
C41I C40I 1_555 1_555
H22I C41I 1_555 1_555
C42I S4I 1_555 1_555
C43I O11I 1_555 1_555
C44I S2I 1_555 1_555
C45I C44I 1_555 1_555
H23I C45I 1_555 1_555
C46I S6I 1_555 1_555
C47I C46I 1_555 1_555
H24I C47I 1_555 1_555
C48I S1I 1_555 1_555
C49I O13I 1_555 1_555
C50I S3I 1_555 1_555
C51I C50I 1_555 1_555
H25I C51I 1_555 1_555
C52I S7I 1_555 1_555
C53I C52I 1_555 1_555
H26I C53I 1_555 1_555
C54I S2I 1_555 1_555
C55I O15I 1_555 1_555
C56I S4I 1_555 1_555
C57I C56I 1_555 1_555
H27I C57I 1_555 1_555
C58I S8I 1_555 1_555
C59I C58I 1_555 1_555
H28I C59I 1_555 1_555
C60I S3I 1_555 1_555
O1J C9J 1_555 1_555
O2J C9J 1_555 1_555
C1J C2J 1_555 1_555
C2J C1I 1_555 1_555
H1J C2J 1_555 1_555
C3J C1J 1_555 1_555
C4J C3J 1_555 1_555
H2J C4J 1_555 1_555
C5J C4J 1_555 1_555
H3J C5J 1_555 1_555
C6J C5J 1_555 1_555
C7J C6J 1_555 1_555
H4J C7J 1_555 1_555
C8J C3J 1_555 1_555
H5J C8J 1_555 1_555
C9J C6J 1_555 1_555
O1K C9K 1_555 1_555
O2K C9K 1_555 1_555
C1K C2I 1_555 1_555
C2K C1J 1_555 1_555
H1K C2K 1_555 1_555
C3K C1K 1_555 1_555
C4K C3K 1_555 1_555
H2K C4K 1_555 1_555
C5K C4K 1_555 1_555
H3K C5K 1_555 1_555
C6K C5K 1_555 1_555
C7K C6K 1_555 1_555
H4K C7K 1_555 1_555
C8K C3K 1_555 1_555
H5K C8K 1_555 1_555
C9K C6K 1_555 1_555
Co1J O1J 1_555 1_555
Co2J O2J 1_555 1_555
Co3J O5 1_555 1_555
Co4J O6 1_555 1_555
S1J O10J 1_555 1_555
S2J O12J 1_555 1_555
S3J O14J 1_555 1_555
S4J O16J 1_555 1_555
S5J O21J 1_555 1_555
S6J O24J 1_555 1_555
S7J O27J 1_555 1_555
S8J O30J 1_555 1_555
O3J Co2J 1_555 1_555
O4J Co3J 1_555 1_555
O5J Co3B 1_555 1_555
O6J Co4B 1_555 1_555
O7J Co4I 1_555 1_555
O8J Co1I 1_555 1_555
O9J Co1J 1_555 1_555
O10J Co2J 1_555 1_555
O11J Co2J 1_555 1_555
O12J Co3J 1_555 1_555
O13J Co3J 1_555 1_555
O14J Co4J 1_555 1_555
O15J Co1J 1_555 1_555
O16J Co1J 1_555 1_555
O17J S1J 1_555 1_555
O18J S2J 1_555 1_555
O19J S3J 1_555 1_555
O20J S4J 1_555 1_555
O22J S5J 1_555 1_555
O23J S5J 1_555 1_555
O25J S6J 1_555 1_555
O26J S6J 1_555 1_555
O28J S7J 1_555 1_555
O29J S7J 1_555 1_555
O31J S8J 1_555 1_555
O32J S8J 1_555 1_555
O33J Co1J 1_555 1_555
C10J C11J 1_555 1_555
C11J H6J 1_555 1_555
C12J C11J 1_555 1_555
C13J C12J 1_555 1_555
H7J C13J 1_555 1_555
C14J C13J 1_555 1_555
C15J C10J 1_555 1_555
H8J C15J 1_555 1_555
C16J C10J 1_555 1_555
C17J C16J 1_555 1_555
H9J C17J 1_555 1_555
C18J C17J 1_555 1_555
H10J C18J 1_555 1_555
C19J C18J 1_555 1_555
C20J C19J 1_555 1_555
H11J C20J 1_555 1_555
C21J C16J 1_555 1_555
H12J C21J 1_555 1_555
C22J O3J 1_555 1_555
C23J C12J 1_555 1_555
C24J C23J 1_555 1_555
H13J C24J 1_555 1_555
C25J C24J 1_555 1_555
H14J C25J 1_555 1_555
C26J C25J 1_555 1_555
C27J C26J 1_555 1_555
H15J C27J 1_555 1_555
C28J C23J 1_555 1_555
H16J C28J 1_555 1_555
C29J O7J 1_555 1_555
C30J C14J 1_555 1_555
C31J C30J 1_555 1_555
H17J C31J 1_555 1_555
C32J C31J 1_555 1_555
H18J C32J 1_555 1_555
C33J C32J 1_555 1_555
C34J C33J 1_555 1_555
H19J C34J 1_555 1_555
C35J C30J 1_555 1_555
H20J C35J 1_555 1_555
C36J O5J 1_555 1_555
C37J O9J 1_555 1_555
C38J S1J 1_555 1_555
C39J C38J 1_555 1_555
H21J C39J 1_555 1_555
C40J S5J 1_555 1_555
C41J C40J 1_555 1_555
H22J C41J 1_555 1_555
C42J S4J 1_555 1_555
C43J O11J 1_555 1_555
C44J S2J 1_555 1_555
C45J C44J 1_555 1_555
H23J C45J 1_555 1_555
C46J S6J 1_555 1_555
C47J C46J 1_555 1_555
H24J C47J 1_555 1_555
C48J S1J 1_555 1_555
C49J O13J 1_555 1_555
C50J S3J 1_555 1_555
C51J C50J 1_555 1_555
H25J C51J 1_555 1_555
C52J S7J 1_555 1_555
C53J C52J 1_555 1_555
H26J C53J 1_555 1_555
C54J S2J 1_555 1_555
C55J O15J 1_555 1_555
C56J S4J 1_555 1_555
C57J C56J 1_555 1_555
H27J C57J 1_555 1_555
C58J S8J 1_555 1_555
C59J C58J 1_555 1_555
H28J C59J 1_555 1_555
C60J S3J 1_555 1_555
Co1K O8I 1_555 1_555
Co2K O2K 1_555 1_555
Co3K O5A 1_555 1_555
Co4K O6A 1_555 1_555
S1K O10K 1_555 1_555
S2K O12K 1_555 1_555
S3K O14K 1_555 1_555
S4K O16K 1_555 1_555
S5K O21K 1_555 1_555
S6K O24K 1_555 1_555
S7K O27K 1_555 1_555
S8K O30K 1_555 1_555
O3K Co2K 1_555 1_555
O4K Co3K 1_555 1_555
O5K Co3 1_555 1_555
O6K Co4 1_555 1_555
O7K Co4J 1_555 1_555
O8K Co1J 1_555 1_555
O9K Co1K 1_555 1_555
O10K Co2K 1_555 1_555
O11K Co2K 1_555 1_555
O12K Co3K 1_555 1_555
O13K Co3K 1_555 1_555
O14K Co4K 1_555 1_555
O15K Co1K 1_555 1_555
O16K Co1K 1_555 1_555
O17K S1K 1_555 1_555
O18K S2K 1_555 1_555
O19K S3K 1_555 1_555
O20K S4K 1_555 1_555
O22K S5K 1_555 1_555
O23K S5K 1_555 1_555
O25K S6K 1_555 1_555
O26K S6K 1_555 1_555
O28K S7K 1_555 1_555
O29K S7K 1_555 1_555
O31K S8K 1_555 1_555
O32K S8K 1_555 1_555
O33K Co1K 1_555 1_555
C10K C11K 1_555 1_555
C11K H6K 1_555 1_555
C12K C11K 1_555 1_555
C13K C12K 1_555 1_555
H7K C13K 1_555 1_555
C14K C13K 1_555 1_555
C15K C10K 1_555 1_555
H8K C15K 1_555 1_555
C16K C10K 1_555 1_555
C17K C16K 1_555 1_555
H9K C17K 1_555 1_555
C18K C17K 1_555 1_555
H10K C18K 1_555 1_555
C19K C18K 1_555 1_555
C20K C19K 1_555 1_555
H11K C20K 1_555 1_555
C21K C16K 1_555 1_555
H12K C21K 1_555 1_555
C22K O3K 1_555 1_555
C23K C12K 1_555 1_555
C24K C23K 1_555 1_555
H13K C24K 1_555 1_555
C25K C24K 1_555 1_555
H14K C25K 1_555 1_555
C26K C25K 1_555 1_555
C27K C26K 1_555 1_555
H15K C27K 1_555 1_555
C28K C23K 1_555 1_555
H16K C28K 1_555 1_555
C29K O7K 1_555 1_555
C30K C14K 1_555 1_555
C31K C30K 1_555 1_555
H17K C31K 1_555 1_555
C32K C31K 1_555 1_555
H18K C32K 1_555 1_555
C33K C32K 1_555 1_555
C34K C33K 1_555 1_555
H19K C34K 1_555 1_555
C35K C30K 1_555 1_555
H20K C35K 1_555 1_555
C36K O5K 1_555 1_555
C37K O9K 1_555 1_555
C38K S1K 1_555 1_555
C39K C38K 1_555 1_555
H21K C39K 1_555 1_555
C40K S5K 1_555 1_555
C41K C40K 1_555 1_555
H22K C41K 1_555 1_555
C42K S4K 1_555 1_555
C43K O11K 1_555 1_555
C44K S2K 1_555 1_555
C45K C44K 1_555 1_555
H23K C45K 1_555 1_555
C46K S6K 1_555 1_555
C47K C46K 1_555 1_555
H24K C47K 1_555 1_555
C48K S1K 1_555 1_555
C49K O13K 1_555 1_555
C50K S3K 1_555 1_555
C51K C50K 1_555 1_555
H25K C51K 1_555 1_555
C52K S7K 1_555 1_555
C53K C52K 1_555 1_555
H26K C53K 1_555 1_555
C54K S2K 1_555 1_555
C55K O15K 1_555 1_555
C56K S4K 1_555 1_555
C57K C56K 1_555 1_555
H27K C57K 1_555 1_555
C58K S8K 1_555 1_555
C59K C58K 1_555 1_555
H28K C59K 1_555 1_555
C60K S3K 1_555 1_555
Co2 O9 1_555 1_555
Co2 O33 1_555 1_555
Co3 O11 1_555 1_555
Co3 O33 1_555 1_555
Co4 O15 1_555 1_555
Co4 O33 1_555 1_555
C7 C8 1_555 1_555
C14 C15 1_555 1_555
C19 C22 1_555 1_555
C20 C21 1_555 1_555
C27 C28 1_555 1_555
C34 C35 1_555 1_555
C37 C38 1_555 1_555
C37 C42 1_555 1_555
C39 C40 1_555 1_555
C41 C42 1_555 1_555
C43 C44 1_555 1_555
C43 C48 1_555 1_555
C45 C46 1_555 1_555
C47 C48 1_555 1_555
C49 C50 1_555 1_555
C49 C54 1_555 1_555
C51 C52 1_555 1_555
C53 C54 1_555 1_555
C55 C56 1_555 1_555
C55 C60 1_555 1_555
C57 C58 1_555 1_555
C59 C60 1_555 1_555
C7A C8A 1_555 1_555
O1B Co1B 1_555 1_555
C1B C2B 1_555 1_555
C7B C8B 1_555 1_555
Co2A O9A 1_555 1_555
Co2A O33A 1_555 1_555
Co3A O11A 1_555 1_555
Co3A O33A 1_555 1_555
Co4A O15A 1_555 1_555
Co4A O33A 1_555 1_555
O8A C29A 1_555 1_555
C14A C15A 1_555 1_555
C19A C22A 1_555 1_555
C20A C21A 1_555 1_555
C26A C29A 1_555 1_555
C27A C28A 1_555 1_555
C34A C35A 1_555 1_555
C37A C38A 1_555 1_555
C37A C42A 1_555 1_555
C39A C40A 1_555 1_555
C41A C42A 1_555 1_555
C43A C44A 1_555 1_555
C43A C48A 1_555 1_555
C45A C46A 1_555 1_555
C47A C48A 1_555 1_555
C49A C50A 1_555 1_555
C49A C54A 1_555 1_555
C51A C52A 1_555 1_555
C53A C54A 1_555 1_555
C55A C56A 1_555 1_555
C55A C60A 1_555 1_555
C57A C58A 1_555 1_555
C59A C60A 1_555 1_555
Co2B O9B 1_555 1_555
Co2B O33B 1_555 1_555
Co3B O11B 1_555 1_555
Co3B O33B 1_555 1_555
Co4B O13B 1_555 1_555
Co4B O15B 1_555 1_555
Co4B O33B 1_555 1_555
O8B C29B 1_555 1_555
C14B C15B 1_555 1_555
C19B C22B 1_555 1_555
C20B C21B 1_555 1_555
C26B C29B 1_555 1_555
C27B C28B 1_555 1_555
C34B C35B 1_555 1_555
C37B C38B 1_555 1_555
C37B C42B 1_555 1_555
C39B C40B 1_555 1_555
C41B C42B 1_555 1_555
C43B C44B 1_555 1_555
C43B C48B 1_555 1_555
C45B C46B 1_555 1_555
C47B C48B 1_555 1_555
C49B C50B 1_555 1_555
C49B C54B 1_555 1_555
C51B C52B 1_555 1_555
C53B C54B 1_555 1_555
C55B C56B 1_555 1_555
C55B C60B 1_555 1_555
C57B C58B 1_555 1_555
C59B C60B 1_555 1_555
Co2I O9I 1_555 1_555
Co2I O33I 1_555 1_555
Co3I O11I 1_555 1_555
Co3I O33I 1_555 1_555
Co4I O13I 1_555 1_555
Co4I O15I 1_555 1_555
Co4I O33I 1_555 1_555
O4I C22I 1_555 1_555
O6I C36I 1_555 1_555
O7I Co4K 1_555 1_555
C7I C8I 1_555 1_555
C14I C15I 1_555 1_555
C19I C22I 1_555 1_555
C20I C21I 1_555 1_555
C27I C28I 1_555 1_555
C33I C36I 1_555 1_555
C34I C35I 1_555 1_555
C37I C38I 1_555 1_555
C37I C42I 1_555 1_555
C39I C40I 1_555 1_555
C41I C42I 1_555 1_555
C43I C44I 1_555 1_555
C43I C48I 1_555 1_555
C45I C46I 1_555 1_555
C47I C48I 1_555 1_555
C49I C50I 1_555 1_555
C49I C54I 1_555 1_555
C51I C52I 1_555 1_555
C53I C54I 1_555 1_555
C55I C56I 1_555 1_555
C55I C60I 1_555 1_555
C57I C58I 1_555 1_555
C59I C60I 1_555 1_555
C7J C8J 1_555 1_555
O1K Co1K 1_555 1_555
C1K C2K 1_555 1_555
C7K C8K 1_555 1_555
Co2J O9J 1_555 1_555
Co2J O33J 1_555 1_555
Co3J O11J 1_555 1_555
Co3J O33J 1_555 1_555
Co4J O13J 1_555 1_555
Co4J O15J 1_555 1_555
Co4J O33J 1_555 1_555
O4J C22J 1_555 1_555
O6J C36J 1_555 1_555
O8J C29J 1_555 1_555
C14J C15J 1_555 1_555
C19J C22J 1_555 1_555
C20J C21J 1_555 1_555
C26J C29J 1_555 1_555
C27J C28J 1_555 1_555
C33J C36J 1_555 1_555
C34J C35J 1_555 1_555
C37J C38J 1_555 1_555
C37J C42J 1_555 1_555
C39J C40J 1_555 1_555
C41J C42J 1_555 1_555
C43J C44J 1_555 1_555
C43J C48J 1_555 1_555
C45J C46J 1_555 1_555
C47J C48J 1_555 1_555
C49J C50J 1_555 1_555
C49J C54J 1_555 1_555
C51J C52J 1_555 1_555
C53J C54J 1_555 1_555
C55J C56J 1_555 1_555
C55J C60J 1_555 1_555
C57J C58J 1_555 1_555
C59J C60J 1_555 1_555
Co2K O9K 1_555 1_555
Co2K O33K 1_555 1_555
Co3K O11K 1_555 1_555
Co3K O33K 1_555 1_555
Co4K O13K 1_555 1_555
Co4K O15K 1_555 1_555
Co4K O33K 1_555 1_555
O4K C22K 1_555 1_555
O6K C36K 1_555 1_555
O8K C29K 1_555 1_555
C14K C15K 1_555 1_555
C19K C22K 1_555 1_555
C20K C21K 1_555 1_555
C26K C29K 1_555 1_555
C27K C28K 1_555 1_555
C33K C36K 1_555 1_555
C34K C35K 1_555 1_555
C37K C38K 1_555 1_555
C37K C42K 1_555 1_555
C39K C40K 1_555 1_555
C41K C42K 1_555 1_555
C43K C44K 1_555 1_555
C43K C48K 1_555 1_555
C45K C46K 1_555 1_555
C47K C48K 1_555 1_555
C49K C50K 1_555 1_555
C49K C54K 1_555 1_555
C51K C52K 1_555 1_555
C53K C54K 1_555 1_555
C55K C56K 1_555 1_555
C55K C60K 1_555 1_555
C57K C58K 1_555 1_555
C59K C60K 1_555 1_555

#END
