# generated using pymatgen
data_Co4H47C70S8NO33
_symmetry_space_group_name_H-M   'P 1'
_cell_length_a   33.19138539
_cell_length_b   33.19138539
_cell_length_c   33.19138539
_cell_angle_alpha   60.70030953
_cell_angle_beta   60.70030953
_cell_angle_gamma   60.70030953
_symmetry_Int_Tables_number   1
_chemical_formula_structural   Co4H47C70S8NO33
_chemical_formula_sum   'Co24 H282 C420 S48 N6 O198'
_cell_volume   26264.67000094
_cell_formula_units_Z   6
loop_
 _symmetry_equiv_pos_site_id
 _symmetry_equiv_pos_as_xyz
  1  'x, y, z'
loop_
 _atom_site_type_symbol
 _atom_site_label
 _atom_site_symmetry_multiplicity
 _atom_site_fract_x
 _atom_site_fract_y
 _atom_site_fract_z
 _atom_site_occupancy
  C  C1  1  0.880570  0.398570  0.337670  1
  C  C2  1  0.337670  0.880570  0.398570  1
  C  C3  1  0.398570  0.337670  0.880570  1
  C  C4  1  0.119430  0.601430  0.662330  1
  C  C5  1  0.662330  0.119430  0.601430  1
  C  C6  1  0.601430  0.662330  0.119430  1
  C  C7  1  0.902460  0.420560  0.289860  1
  C  C8  1  0.289860  0.902460  0.420560  1
  C  C9  1  0.420560  0.289860  0.902460  1
  C  C10  1  0.097540  0.579440  0.710140  1
  C  C11  1  0.710140  0.097540  0.579440  1
  C  C12  1  0.579440  0.710140  0.097540  1
  C  C13  1  0.856410  0.330310  0.410710  1
  C  C14  1  0.410710  0.856410  0.330310  1
  C  C15  1  0.330310  0.410710  0.856410  1
  C  C16  1  0.143590  0.669690  0.589290  1
  C  C17  1  0.589290  0.143590  0.669690  1
  C  C18  1  0.669690  0.589290  0.143590  1
  C  C19  1  0.857400  0.282100  0.432700  1
  C  C20  1  0.432700  0.857400  0.282100  1
  C  C21  1  0.282100  0.432700  0.857400  1
  C  C22  1  0.142600  0.717900  0.567300  1
  C  C23  1  0.567300  0.142600  0.717900  1
  C  C24  1  0.717900  0.567300  0.142600  1
  C  C25  1  0.859500  0.336700  0.327700  1
  C  C26  1  0.327700  0.859500  0.336700  1
  C  C27  1  0.336700  0.327700  0.859500  1
  C  C28  1  0.140500  0.663300  0.672300  1
  C  C29  1  0.672300  0.140500  0.663300  1
  C  C30  1  0.663300  0.672300  0.140500  1
  C  C31  1  0.809200  0.364300  0.336000  1
  C  C32  1  0.336000  0.809200  0.364300  1
  C  C33  1  0.364300  0.336000  0.809200  1
  C  C34  1  0.190800  0.635700  0.664000  1
  C  C35  1  0.664000  0.190800  0.635700  1
  C  C36  1  0.635700  0.664000  0.190800  1
  C  C37  1  0.121300  0.666800  0.007600  1
  C  C38  1  0.007600  0.121300  0.666800  1
  C  C39  1  0.666800  0.007600  0.121300  1
  C  C40  1  0.878700  0.333200  0.992400  1
  C  C41  1  0.992400  0.878700  0.333200  1
  C  C42  1  0.333200  0.992400  0.878700  1
  C  C43  1  0.087700  0.644200  0.039500  1
  C  C44  1  0.039500  0.087700  0.644200  1
  C  C45  1  0.644200  0.039500  0.087700  1
  C  C46  1  0.912300  0.355800  0.960500  1
  C  C47  1  0.960500  0.912300  0.355800  1
  C  C48  1  0.355800  0.960500  0.912300  1
  C  C49  1  0.137400  0.595100  0.092000  1
  C  C50  1  0.092000  0.137400  0.595100  1
  C  C51  1  0.595100  0.092000  0.137400  1
  C  C52  1  0.862600  0.404900  0.908000  1
  C  C53  1  0.908000  0.862600  0.404900  1
  C  C54  1  0.404900  0.908000  0.862600  1
  C  C55  1  0.169700  0.619400  0.057600  1
  C  C56  1  0.057600  0.169700  0.619400  1
  C  C57  1  0.619400  0.057600  0.169700  1
  C  C58  1  0.830300  0.380600  0.942400  1
  C  C59  1  0.942400  0.830300  0.380600  1
  C  C60  1  0.380600  0.942400  0.830300  1
  C  C61  1  0.891050  0.841850  0.925550  1.0
  C  C62  1  0.925550  0.891050  0.841850  1.0
  C  C63  1  0.841850  0.925550  0.891050  1.0
  C  C64  1  0.108950  0.158150  0.074450  1.0
  C  C65  1  0.074450  0.108950  0.158150  1.0
  C  C66  1  0.158150  0.074450  0.108950  1.0
  C  C67  1  0.846880  0.881980  0.928780  1.0
  C  C68  1  0.928780  0.846880  0.881980  1.0
  C  C69  1  0.881980  0.928780  0.846880  1.0
  C  C70  1  0.153120  0.118020  0.071220  1.0
  C  C71  1  0.071220  0.153120  0.118020  1.0
  C  C72  1  0.118020  0.071220  0.153120  1.0
  C  C73  1  0.894350  0.794950  0.968250  1.0
  C  C74  1  0.968250  0.894350  0.794950  1.0
  C  C75  1  0.794950  0.968250  0.894350  1.0
  C  C76  1  0.105650  0.205050  0.031750  1.0
  C  C77  1  0.031750  0.105650  0.205050  1.0
  C  C78  1  0.205050  0.031750  0.105650  1.0
  C  C79  1  0.940240  0.764140  0.973240  1.0
  C  C80  1  0.973240  0.940240  0.764140  1.0
  C  C81  1  0.764140  0.973240  0.940240  1.0
  C  C82  1  0.059760  0.235860  0.026760  1.0
  C  C83  1  0.026760  0.059760  0.235860  1.0
  C  C84  1  0.235860  0.026760  0.059760  1.0
  C  C85  1  0.943550  0.719850  0.012150  1.0
  C  C86  1  0.012150  0.943550  0.719850  1.0
  C  C87  1  0.719850  0.012150  0.943550  1.0
  C  C88  1  0.056450  0.280150  0.987850  1.0
  C  C89  1  0.987850  0.056450  0.280150  1.0
  C  C90  1  0.280150  0.987850  0.056450  1.0
  C  C91  1  0.902890  0.707190  0.046990  1.0
  C  C92  1  0.046990  0.902890  0.707190  1.0
  C  C93  1  0.707190  0.046990  0.902890  1.0
  C  C94  1  0.097110  0.292810  0.953010  1.0
  C  C95  1  0.953010  0.097110  0.292810  1.0
  C  C96  1  0.292810  0.953010  0.097110  1.0
  C  C97  1  0.857830  0.738130  0.041130  1.0
  C  C98  1  0.041130  0.857830  0.738130  1.0
  C  C99  1  0.738130  0.041130  0.857830  1.0
  C  C100  1  0.142170  0.261870  0.958870  1.0
  C  C101  1  0.958870  0.142170  0.261870  1.0
  C  C102  1  0.261870  0.958870  0.142170  1.0
  C  C103  1  0.853930  0.782430  0.001630  1.0
  C  C104  1  0.001630  0.853930  0.782430  1.0
  C  C105  1  0.782430  0.001630  0.853930  1.0
  C  C106  1  0.146070  0.217570  0.998370  1.0
  C  C107  1  0.998370  0.146070  0.217570  1.0
  C  C108  1  0.217570  0.998370  0.146070  1.0
  C  C109  1  0.907810  0.662910  0.090310  1.0
  C  C110  1  0.090310  0.907810  0.662910  1.0
  C  C111  1  0.662910  0.090310  0.907810  1.0
  C  C112  1  0.092190  0.337090  0.909690  1.0
  C  C113  1  0.909690  0.092190  0.337090  1.0
  C  C114  1  0.337090  0.909690  0.092190  1.0
  C  C115  1  0.730440  0.893740  0.236140  1.0
  C  C116  1  0.236140  0.730440  0.893740  1.0
  C  C117  1  0.893740  0.236140  0.730440  1.0
  C  C118  1  0.269560  0.106260  0.763860  1.0
  C  C119  1  0.763860  0.269560  0.106260  1.0
  C  C120  1  0.106260  0.763860  0.269560  1.0
  C  C121  1  0.706010  0.928910  0.201310  1.0
  C  C122  1  0.201310  0.706010  0.928910  1.0
  C  C123  1  0.928910  0.201310  0.706010  1.0
  C  C124  1  0.293990  0.071090  0.798690  1.0
  C  C125  1  0.798690  0.293990  0.071090  1.0
  C  C126  1  0.071090  0.798690  0.293990  1.0
  C  C127  1  0.684030  0.976430  0.198630  1.0
  C  C128  1  0.198630  0.684030  0.976430  1.0
  C  C129  1  0.976430  0.198630  0.684030  1.0
  C  C130  1  0.315970  0.023570  0.801370  1.0
  C  C131  1  0.801370  0.315970  0.023570  1.0
  C  C132  1  0.023570  0.801370  0.315970  1.0
  C  C133  1  0.684930  0.991630  0.231430  1.0
  C  C134  1  0.231430  0.684930  0.991630  1.0
  C  C135  1  0.991630  0.231430  0.684930  1.0
  C  C136  1  0.315070  0.008370  0.768570  1.0
  C  C137  1  0.768570  0.315070  0.008370  1.0
  C  C138  1  0.008370  0.768570  0.315070  1.0
  C  C139  1  0.710830  0.957130  0.264930  1.0
  C  C140  1  0.264930  0.710830  0.957130  1.0
  C  C141  1  0.957130  0.264930  0.710830  1.0
  C  C142  1  0.289170  0.042870  0.735070  1.0
  C  C143  1  0.735070  0.289170  0.042870  1.0
  C  C144  1  0.042870  0.735070  0.289170  1.0
  C  C145  1  0.732510  0.908310  0.266210  1.0
  C  C146  1  0.266210  0.732510  0.908310  1.0
  C  C147  1  0.908310  0.266210  0.732510  1.0
  C  C148  1  0.267490  0.091690  0.733790  1.0
  C  C149  1  0.733790  0.267490  0.091690  1.0
  C  C150  1  0.091690  0.733790  0.267490  1.0
  C  C151  1  0.753660  0.840860  0.237960  1.0
  C  C152  1  0.237960  0.753660  0.840860  1.0
  C  C153  1  0.840860  0.237960  0.753660  1.0
  C  C154  1  0.246340  0.159140  0.762040  1.0
  C  C155  1  0.762040  0.246340  0.159140  1.0
  C  C156  1  0.159140  0.762040  0.246340  1.0
  C  C157  1  0.758670  0.803170  0.281470  1.0
  C  C158  1  0.281470  0.758670  0.803170  1.0
  C  C159  1  0.803170  0.281470  0.758670  1.0
  C  C160  1  0.241330  0.196830  0.718530  1.0
  C  C161  1  0.718530  0.241330  0.196830  1.0
  C  C162  1  0.196830  0.718530  0.241330  1.0
  C  C163  1  0.783200  0.754000  0.284300  1.0
  C  C164  1  0.284300  0.783200  0.754000  1.0
  C  C165  1  0.754000  0.284300  0.783200  1.0
  C  C166  1  0.216800  0.246000  0.715700  1.0
  C  C167  1  0.715700  0.216800  0.246000  1.0
  C  C168  1  0.246000  0.715700  0.216800  1.0
  C  C169  1  0.799600  0.743400  0.242500  1.0
  C  C170  1  0.242500  0.799600  0.743400  1.0
  C  C171  1  0.743400  0.242500  0.799600  1.0
  C  C172  1  0.200400  0.256600  0.757500  1.0
  C  C173  1  0.757500  0.200400  0.256600  1.0
  C  C174  1  0.256600  0.757500  0.200400  1.0
  C  C175  1  0.792390  0.779290  0.199690  1.0
  C  C176  1  0.199690  0.792390  0.779290  1.0
  C  C177  1  0.779290  0.199690  0.792390  1.0
  C  C178  1  0.207610  0.220710  0.800310  1.0
  C  C179  1  0.800310  0.207610  0.220710  1.0
  C  C180  1  0.220710  0.800310  0.207610  1.0
  C  C181  1  0.769530  0.827930  0.197430  1.0
  C  C182  1  0.197430  0.769530  0.827930  1.0
  C  C183  1  0.827930  0.197430  0.769530  1.0
  C  C184  1  0.230470  0.172070  0.802570  1.0
  C  C185  1  0.802570  0.230470  0.172070  1.0
  C  C186  1  0.172070  0.802570  0.230470  1.0
  C  C187  1  0.826250  0.691350  0.242250  1.0
  C  C188  1  0.242250  0.826250  0.691350  1.0
  C  C189  1  0.691350  0.242250  0.826250  1.0
  C  C190  1  0.173750  0.308650  0.757750  1.0
  C  C191  1  0.757750  0.173750  0.308650  1.0
  C  C192  1  0.308650  0.757750  0.173750  1.0
  C  C193  1  0.657660  0.013060  0.162660  1.0
  C  C194  1  0.162660  0.657660  0.013060  1.0
  C  C195  1  0.013060  0.162660  0.657660  1.0
  C  C196  1  0.342340  0.986940  0.837340  1.0
  C  C197  1  0.837340  0.342340  0.986940  1.0
  C  C198  1  0.986940  0.837340  0.342340  1.0
  C  C199  1  0.644920  0.000020  0.138820  1.0
  C  C200  1  0.138820  0.644920  0.000020  1.0
  C  C201  1  0.000020  0.138820  0.644920  1.0
  C  C202  1  0.355080  0.999980  0.861180  1.0
  C  C203  1  0.861180  0.355080  0.999980  1.0
  C  C204  1  0.999980  0.861180  0.355080  1.0
  C  C205  1  0.622790  0.033690  0.104690  1.0
  C  C206  1  0.104690  0.622790  0.033690  1.0
  C  C207  1  0.033690  0.104690  0.622790  1.0
  C  C208  1  0.377210  0.966310  0.895310  1.0
  C  C209  1  0.895310  0.377210  0.966310  1.0
  C  C210  1  0.966310  0.895310  0.377210  1.0
  C  C211  1  0.609380  0.083780  0.093780  1.0
  C  C212  1  0.093780  0.609380  0.083780  1.0
  C  C213  1  0.083780  0.093780  0.609380  1.0
  C  C214  1  0.390620  0.916220  0.906220  1.0
  C  C215  1  0.906220  0.390620  0.916220  1.0
  C  C216  1  0.916220  0.906220  0.390620  1.0
  C  C217  1  0.629260  0.096660  0.112560  1.0
  C  C218  1  0.112560  0.629260  0.096660  1.0
  C  C219  1  0.096660  0.112560  0.629260  1.0
  C  C220  1  0.370740  0.903340  0.887440  1.0
  C  C221  1  0.887440  0.370740  0.903340  1.0
  C  C222  1  0.903340  0.887440  0.370740  1.0
  C  C223  1  0.651650  0.063250  0.146650  1.0
  C  C224  1  0.146650  0.651650  0.063250  1.0
  C  C225  1  0.063250  0.146650  0.651650  1.0
  C  C226  1  0.348350  0.936750  0.853350  1.0
  C  C227  1  0.853350  0.348350  0.936750  1.0
  C  C228  1  0.936750  0.853350  0.348350  1.0
  C  C229  1  0.585680  0.120480  0.056480  1.0
  C  C230  1  0.056480  0.585680  0.120480  1.0
  C  C231  1  0.120480  0.056480  0.585680  1.0
  C  C232  1  0.414320  0.879520  0.943520  1.0
  C  C233  1  0.943520  0.414320  0.879520  1.0
  C  C234  1  0.879520  0.943520  0.414320  1.0
  C  C235  1  0.713930  0.973330  0.297230  1.0
  C  C236  1  0.297230  0.713930  0.973330  1.0
  C  C237  1  0.973330  0.297230  0.713930  1.0
  C  C238  1  0.286070  0.026670  0.702770  1.0
  C  C239  1  0.702770  0.286070  0.026670  1.0
  C  C240  1  0.026670  0.702770  0.286070  1.0
  C  C241  1  0.700920  0.019320  0.291520  1.0
  C  C242  1  0.291520  0.700920  0.019320  1.0
  C  C243  1  0.019320  0.291520  0.700920  1.0
  C  C244  1  0.299080  0.980680  0.708480  1.0
  C  C245  1  0.708480  0.299080  0.980680  1.0
  C  C246  1  0.980680  0.708480  0.299080  1.0
  C  C247  1  0.706270  0.034870  0.319370  1.0
  C  C248  1  0.319370  0.706270  0.034870  1.0
  C  C249  1  0.034870  0.319370  0.706270  1.0
  C  C250  1  0.293730  0.965130  0.680630  1.0
  C  C251  1  0.680630  0.293730  0.965130  1.0
  C  C252  1  0.965130  0.680630  0.293730  1.0
  C  C253  1  0.722250  0.004150  0.355650  1.0
  C  C254  1  0.355650  0.722250  0.004150  1.0
  C  C255  1  0.004150  0.355650  0.722250  1.0
  C  C256  1  0.277750  0.995850  0.644350  1.0
  C  C257  1  0.644350  0.277750  0.995850  1.0
  C  C258  1  0.995850  0.644350  0.277750  1.0
  C  C259  1  0.739400  0.959800  0.359000  1.0
  C  C260  1  0.359000  0.739400  0.959800  1.0
  C  C261  1  0.959800  0.359000  0.739400  1.0
  C  C262  1  0.260600  0.040200  0.641000  1.0
  C  C263  1  0.641000  0.260600  0.040200  1.0
  C  C264  1  0.040200  0.641000  0.260600  1.0
  C  C265  1  0.733470  0.943470  0.331670  1.0
  C  C266  1  0.331670  0.733470  0.943470  1.0
  C  C267  1  0.943470  0.331670  0.733470  1.0
  C  C268  1  0.266530  0.056530  0.668330  1.0
  C  C269  1  0.668330  0.266530  0.056530  1.0
  C  C270  1  0.056530  0.668330  0.266530  1.0
  C  C271  1  0.729950  0.021050  0.386250  1.0
  C  C272  1  0.386250  0.729950  0.021050  1.0
  C  C273  1  0.021050  0.386250  0.729950  1.0
  C  C274  1  0.270050  0.978950  0.613750  1.0
  C  C275  1  0.613750  0.270050  0.978950  1.0
  C  C276  1  0.978950  0.613750  0.270050  1.0
  C  C277  1  0.886590  0.524600  0.176130  1.0
  C  C278  1  0.176130  0.886590  0.524600  1.0
  C  C279  1  0.524600  0.176130  0.886590  1.0
  C  C280  1  0.113410  0.475400  0.823870  1.0
  C  C281  1  0.823870  0.113410  0.475400  1.0
  C  C282  1  0.475400  0.823870  0.113410  1.0
  C  C283  1  0.837080  0.525180  0.199080  1.0
  C  C284  1  0.199080  0.837080  0.525180  1.0
  C  C285  1  0.525180  0.199080  0.837080  1.0
  C  C286  1  0.162920  0.474820  0.800920  1.0
  C  C287  1  0.800920  0.162920  0.474820  1.0
  C  C288  1  0.474820  0.800920  0.162920  1.0
  C  C289  1  0.821290  0.492090  0.199990  1.0
  C  C290  1  0.199990  0.821290  0.492090  1.0
  C  C291  1  0.492090  0.199990  0.821290  1.0
  C  C292  1  0.178710  0.507910  0.800010  1.0
  C  C293  1  0.800010  0.178710  0.507910  1.0
  C  C294  1  0.507910  0.800010  0.178710  1.0
  C  C295  1  0.855950  0.456950  0.176950  1.0
  C  C296  1  0.176950  0.855950  0.456950  1.0
  C  C297  1  0.456950  0.176950  0.855950  1.0
  C  C298  1  0.144050  0.543050  0.823050  1.0
  C  C299  1  0.823050  0.144050  0.543050  1.0
  C  C300  1  0.543050  0.823050  0.144050  1.0
  C  C301  1  0.903330  0.454430  0.154230  1.0
  C  C302  1  0.154230  0.903330  0.454430  1.0
  C  C303  1  0.454430  0.154230  0.903330  1.0
  C  C304  1  0.096670  0.545570  0.845770  1.0
  C  C305  1  0.845770  0.096670  0.545570  1.0
  C  C306  1  0.545570  0.845770  0.096670  1.0
  C  C307  1  0.919090  0.487190  0.155690  1.0
  C  C308  1  0.155690  0.919090  0.487190  1.0
  C  C309  1  0.487190  0.155690  0.919090  1.0
  C  C310  1  0.080910  0.512810  0.844310  1.0
  C  C311  1  0.844310  0.080910  0.512810  1.0
  C  C312  1  0.512810  0.844310  0.080910  1.0
  C  C313  1  0.821050  0.549090  0.303310  1.0
  C  C314  1  0.303310  0.821050  0.549090  1.0
  C  C315  1  0.549090  0.303310  0.821050  1.0
  C  C316  1  0.178950  0.450910  0.696690  1.0
  C  C317  1  0.696690  0.178950  0.450910  1.0
  C  C318  1  0.450910  0.696690  0.178950  1.0
  C  C319  1  0.815760  0.526760  0.353460  1.0
  C  C320  1  0.353460  0.815760  0.526760  1.0
  C  C321  1  0.526760  0.353460  0.815760  1.0
  C  C322  1  0.184240  0.473240  0.646540  1.0
  C  C323  1  0.646540  0.184240  0.473240  1.0
  C  C324  1  0.473240  0.646540  0.184240  1.0
  C  C325  1  0.781980  0.501880  0.388180  1.0
  C  C326  1  0.388180  0.781980  0.501880  1.0
  C  C327  1  0.501880  0.388180  0.781980  1.0
  C  C328  1  0.218020  0.498120  0.611820  1.0
  C  C329  1  0.611820  0.218020  0.498120  1.0
  C  C330  1  0.498120  0.611820  0.218020  1.0
  C  C331  1  0.752330  0.496930  0.372530  1.0
  C  C332  1  0.372530  0.752330  0.496930  1.0
  C  C333  1  0.496930  0.372530  0.752330  1.0
  C  C334  1  0.247670  0.503070  0.627470  1.0
  C  C335  1  0.627470  0.247670  0.503070  1.0
  C  C336  1  0.503070  0.627470  0.247670  1.0
  C  C337  1  0.757210  0.517510  0.323310  1.0
  C  C338  1  0.323310  0.757210  0.517510  1.0
  C  C339  1  0.517510  0.323310  0.757210  1.0
  C  C340  1  0.242790  0.482490  0.676690  1.0
  C  C341  1  0.676690  0.242790  0.482490  1.0
  C  C342  1  0.482490  0.676690  0.242790  1.0
  C  C343  1  0.790340  0.542540  0.290440  1.0
  C  C344  1  0.290440  0.790340  0.542540  1.0
  C  C345  1  0.542540  0.290440  0.790340  1.0
  C  C346  1  0.209660  0.457460  0.709560  1.0
  C  C347  1  0.709560  0.209660  0.457460  1.0
  C  C348  1  0.457460  0.709560  0.209660  1.0
  C  C349  1  0.947360  0.483780  0.326640  1.0
  C  C350  1  0.326640  0.947360  0.483780  1.0
  C  C351  1  0.483780  0.326640  0.947360  1.0
  C  C352  1  0.052640  0.516220  0.673360  1.0
  C  C353  1  0.673360  0.052640  0.516220  1.0
  C  C354  1  0.516220  0.673360  0.052640  1.0
  C  C355  1  0.988690  0.440990  0.325790  1.0
  C  C356  1  0.325790  0.988690  0.440990  1.0
  C  C357  1  0.440990  0.325790  0.988690  1.0
  C  C358  1  0.011310  0.559010  0.674210  1.0
  C  C359  1  0.674210  0.011310  0.559010  1.0
  C  C360  1  0.559010  0.674210  0.011310  1.0
  C  C361  1  0.992230  0.396530  0.365330  1.0
  C  C362  1  0.365330  0.992230  0.396530  1.0
  C  C363  1  0.396530  0.365330  0.992230  1.0
  C  C364  1  0.007770  0.603470  0.634670  1.0
  C  C365  1  0.634670  0.007770  0.603470  1.0
  C  C366  1  0.603470  0.634670  0.007770  1.0
  C  C367  1  0.949470  0.393870  0.406370  1.0
  C  C368  1  0.406370  0.949470  0.393870  1.0
  C  C369  1  0.393870  0.406370  0.949470  1.0
  C  C370  1  0.050530  0.606130  0.593630  1.0
  C  C371  1  0.593630  0.050530  0.606130  1.0
  C  C372  1  0.606130  0.593630  0.050530  1.0
  C  C373  1  0.908350  0.435650  0.409250  1.0
  C  C374  1  0.409250  0.908350  0.435650  1.0
  C  C375  1  0.435650  0.409250  0.908350  1.0
  C  C376  1  0.091650  0.564350  0.590750  1.0
  C  C377  1  0.590750  0.091650  0.564350  1.0
  C  C378  1  0.564350  0.590750  0.091650  1.0
  C  C379  1  0.907520  0.478420  0.369620  1.0
  C  C380  1  0.369620  0.907520  0.478420  1.0
  C  C381  1  0.478420  0.369620  0.907520  1.0
  C  C382  1  0.092480  0.521580  0.630380  1.0
  C  C383  1  0.630380  0.092480  0.521580  1.0
  C  C384  1  0.521580  0.630380  0.092480  1.0
  C  C385  1  0.012980  0.459910  0.199450  1.0
  C  C386  1  0.199450  0.012980  0.459910  1.0
  C  C387  1  0.459910  0.199450  0.012980  1.0
  C  C388  1  0.987020  0.540090  0.800550  1.0
  C  C389  1  0.800550  0.987020  0.540090  1.0
  C  C390  1  0.540090  0.800550  0.987020  1.0
  C  C391  1  0.010360  0.440060  0.172360  1.0
  C  C392  1  0.172360  0.010360  0.440060  1.0
  C  C393  1  0.440060  0.172360  0.010360  1.0
  C  C394  1  0.989640  0.559940  0.827640  1.0
  C  C395  1  0.827640  0.989640  0.559940  1.0
  C  C396  1  0.559940  0.827640  0.989640  1.0
  C  C397  1  0.027170  0.390570  0.178670  1.0
  C  C398  1  0.178670  0.027170  0.390570  1.0
  C  C399  1  0.390570  0.178670  0.027170  1.0
  C  C400  1  0.972830  0.609430  0.821330  1.0
  C  C401  1  0.821330  0.972830  0.609430  1.0
  C  C402  1  0.609430  0.821330  0.972830  1.0
  C  C403  1  0.050450  0.357250  0.213250  1.0
  C  C404  1  0.213250  0.050450  0.357250  1.0
  C  C405  1  0.357250  0.213250  0.050450  1.0
  C  C406  1  0.949550  0.642750  0.786750  1.0
  C  C407  1  0.786750  0.949550  0.642750  1.0
  C  C408  1  0.642750  0.786750  0.949550  1.0
  C  C409  1  0.054080  0.373180  0.242380  1.0
  C  C410  1  0.242380  0.054080  0.373180  1.0
  C  C411  1  0.373180  0.242380  0.054080  1.0
  C  C412  1  0.945920  0.626820  0.757620  1.0
  C  C413  1  0.757620  0.945920  0.626820  1.0
  C  C414  1  0.626820  0.757620  0.945920  1.0
  C  C415  1  0.036810  0.423110  0.235310  1.0
  C  C416  1  0.235310  0.036810  0.423110  1.0
  C  C417  1  0.423110  0.235310  0.036810  1.0
  C  C418  1  0.963190  0.576890  0.764690  1.0
  C  C419  1  0.764690  0.963190  0.576890  1.0
  C  C420  1  0.576890  0.764690  0.963190  1.0
  Co  Co421  1  0.967160  0.568160  0.142810  1.0
  Co  Co422  1  0.142810  0.967160  0.568160  1.0
  Co  Co423  1  0.568160  0.142810  0.967160  1.0
  Co  Co424  1  0.032840  0.431840  0.857190  1.0
  Co  Co425  1  0.857190  0.032840  0.431840  1.0
  Co  Co426  1  0.431840  0.857190  0.032840  1.0
  Co  Co427  1  0.864040  0.616240  0.197760  1.0
  Co  Co428  1  0.197760  0.864040  0.616240  1.0
  Co  Co429  1  0.616240  0.197760  0.864040  1.0
  Co  Co430  1  0.135960  0.383760  0.802240  1.0
  Co  Co431  1  0.802240  0.135960  0.383760  1.0
  Co  Co432  1  0.383760  0.802240  0.135960  1.0
  Co  Co433  1  0.895990  0.594600  0.278800  1.0
  Co  Co434  1  0.278800  0.895990  0.594600  1.0
  Co  Co435  1  0.594600  0.278800  0.895990  1.0
  Co  Co436  1  0.104010  0.405400  0.721200  1.0
  Co  Co437  1  0.721200  0.104010  0.405400  1.0
  Co  Co438  1  0.405400  0.721200  0.104010  1.0
  Co  Co439  1  0.999390  0.546700  0.223450  1.0
  Co  Co440  1  0.223450  0.999390  0.546700  1.0
  Co  Co441  1  0.546700  0.223450  0.999390  1.0
  Co  Co442  1  0.000610  0.453300  0.776550  1.0
  Co  Co443  1  0.776550  0.000610  0.453300  1.0
  Co  Co444  1  0.453300  0.776550  0.000610  1.0
  H  H445  1  0.845700  0.418900  0.346900  1
  H  H446  1  0.346900  0.845700  0.418900  1
  H  H447  1  0.418900  0.346900  0.845700  1
  H  H448  1  0.154300  0.581100  0.653100  1
  H  H449  1  0.653100  0.154300  0.581100  1
  H  H450  1  0.581100  0.653100  0.154300  1
  H  H451  1  0.895500  0.398700  0.357200  1
  H  H452  1  0.357200  0.895500  0.398700  1
  H  H453  1  0.398700  0.357200  0.895500  1
  H  H454  1  0.104500  0.601300  0.642800  1
  H  H455  1  0.642800  0.104500  0.601300  1
  H  H456  1  0.601300  0.642800  0.104500  1
  H  H457  1  0.898400  0.453700  0.284900  1
  H  H458  1  0.284900  0.898400  0.453700  1
  H  H459  1  0.453700  0.284900  0.898400  1
  H  H460  1  0.101600  0.546300  0.715100  1
  H  H461  1  0.715100  0.101600  0.546300  1
  H  H462  1  0.546300  0.715100  0.101600  1
  H  H463  1  0.937400  0.401700  0.280200  1
  H  H464  1  0.280200  0.937400  0.401700  1
  H  H465  1  0.401700  0.280200  0.937400  1
  H  H466  1  0.062600  0.598300  0.719800  1
  H  H467  1  0.719800  0.062600  0.598300  1
  H  H468  1  0.598300  0.719800  0.062600  1
  H  H469  1  0.887400  0.422100  0.269900  1
  H  H470  1  0.269900  0.887400  0.422100  1
  H  H471  1  0.422100  0.269900  0.887400  1
  H  H472  1  0.112600  0.577900  0.730100  1
  H  H473  1  0.730100  0.112600  0.577900  1
  H  H474  1  0.577900  0.730100  0.112600  1
  H  H475  1  0.872400  0.335700  0.425300  1
  H  H476  1  0.425300  0.872400  0.335700  1
  H  H477  1  0.335700  0.425300  0.872400  1
  H  H478  1  0.127600  0.664300  0.574700  1
  H  H479  1  0.574700  0.127600  0.664300  1
  H  H480  1  0.664300  0.574700  0.127600  1
  H  H481  1  0.822000  0.352000  0.417700  1
  H  H482  1  0.417700  0.822000  0.352000  1
  H  H483  1  0.352000  0.417700  0.822000  1
  H  H484  1  0.178000  0.648000  0.582300  1
  H  H485  1  0.582300  0.178000  0.648000  1
  H  H486  1  0.648000  0.582300  0.178000  1
  H  H487  1  0.840600  0.275500  0.468100  1
  H  H488  1  0.468100  0.840600  0.275500  1
  H  H489  1  0.275500  0.468100  0.840600  1
  H  H490  1  0.159400  0.724500  0.531900  1
  H  H491  1  0.531900  0.159400  0.724500  1
  H  H492  1  0.724500  0.531900  0.159400  1
  H  H493  1  0.841000  0.276600  0.419200  1
  H  H494  1  0.419200  0.841000  0.276600  1
  H  H495  1  0.276600  0.419200  0.841000  1
  H  H496  1  0.159000  0.723400  0.580800  1
  H  H497  1  0.580800  0.159000  0.723400  1
  H  H498  1  0.723400  0.580800  0.159000  1
  H  H499  1  0.891500  0.260200  0.426800  1
  H  H500  1  0.426800  0.891500  0.260200  1
  H  H501  1  0.260200  0.426800  0.891500  1
  H  H502  1  0.108500  0.739800  0.573200  1
  H  H503  1  0.573200  0.108500  0.739800  1
  H  H504  1  0.739800  0.573200  0.108500  1
  H  H505  1  0.877200  0.345900  0.292100  1
  H  H506  1  0.292100  0.877200  0.345900  1
  H  H507  1  0.345900  0.292100  0.877200  1
  H  H508  1  0.122800  0.654100  0.707900  1
  H  H509  1  0.707900  0.122800  0.654100  1
  H  H510  1  0.654100  0.707900  0.122800  1
  H  H511  1  0.863600  0.301600  0.340100  1
  H  H512  1  0.340100  0.863600  0.301600  1
  H  H513  1  0.301600  0.340100  0.863600  1
  H  H514  1  0.136400  0.698400  0.659900  1
  H  H515  1  0.659900  0.136400  0.698400  1
  H  H516  1  0.698400  0.659900  0.136400  1
  H  H517  1  0.796400  0.357900  0.319500  1
  H  H518  1  0.319500  0.796400  0.357900  1
  H  H519  1  0.357900  0.319500  0.796400  1
  H  H520  1  0.203600  0.642100  0.680500  1
  H  H521  1  0.680500  0.203600  0.642100  1
  H  H522  1  0.642100  0.680500  0.203600  1
  H  H523  1  0.791400  0.354900  0.371300  1
  H  H524  1  0.371300  0.791400  0.354900  1
  H  H525  1  0.354900  0.371300  0.791400  1
  H  H526  1  0.208600  0.645100  0.628700  1
  H  H527  1  0.628700  0.208600  0.645100  1
  H  H528  1  0.645100  0.628700  0.208600  1
  H  H529  1  0.805000  0.399300  0.323200  1
  H  H530  1  0.323200  0.805000  0.399300  1
  H  H531  1  0.399300  0.323200  0.805000  1
  H  H532  1  0.195000  0.600700  0.676800  1
  H  H533  1  0.676800  0.195000  0.600700  1
  H  H534  1  0.600700  0.676800  0.195000  1
  H  H535  1  0.115100  0.691300  0.978500  1
  H  H536  1  0.978500  0.115100  0.691300  1
  H  H537  1  0.691300  0.978500  0.115100  1
  H  H538  1  0.884900  0.308700  0.021500  1
  H  H539  1  0.021500  0.884900  0.308700  1
  H  H540  1  0.308700  0.021500  0.884900  1
  H  H541  1  0.060100  0.652000  0.032000  1
  H  H542  1  0.032000  0.060100  0.652000  1
  H  H543  1  0.652000  0.032000  0.060100  1
  H  H544  1  0.939900  0.348000  0.968000  1
  H  H545  1  0.968000  0.939900  0.348000  1
  H  H546  1  0.348000  0.968000  0.939900  1
  H  H547  1  0.144000  0.569300  0.120500  1
  H  H548  1  0.120500  0.144000  0.569300  1
  H  H549  1  0.569300  0.120500  0.144000  1
  H  H550  1  0.856000  0.430700  0.879500  1
  H  H551  1  0.879500  0.856000  0.430700  1
  H  H552  1  0.430700  0.879500  0.856000  1
  H  H553  1  0.198800  0.610500  0.063500  1
  H  H554  1  0.063500  0.198800  0.610500  1
  H  H555  1  0.610500  0.063500  0.198800  1
  H  H556  1  0.801200  0.389500  0.936500  1
  H  H557  1  0.936500  0.801200  0.389500  1
  H  H558  1  0.389500  0.936500  0.801200  1
  H  H559  1  0.819800  0.878600  0.958100  1.0
  H  H560  1  0.958100  0.819800  0.878600  1.0
  H  H561  1  0.878600  0.958100  0.819800  1.0
  H  H562  1  0.180200  0.121400  0.041900  1.0
  H  H563  1  0.041900  0.180200  0.121400  1.0
  H  H564  1  0.121400  0.041900  0.180200  1.0
  H  H565  1  0.968700  0.773000  0.950800  1.0
  H  H566  1  0.950800  0.968700  0.773000  1.0
  H  H567  1  0.773000  0.950800  0.968700  1.0
  H  H568  1  0.031300  0.227000  0.049200  1.0
  H  H569  1  0.049200  0.031300  0.227000  1.0
  H  H570  1  0.227000  0.049200  0.031300  1.0
  H  H571  1  0.974900  0.698000  0.014500  1.0
  H  H572  1  0.014500  0.974900  0.698000  1.0
  H  H573  1  0.698000  0.014500  0.974900  1.0
  H  H574  1  0.025100  0.302000  0.985500  1.0
  H  H575  1  0.985500  0.025100  0.302000  1.0
  H  H576  1  0.302000  0.985500  0.025100  1.0
  H  H577  1  0.829300  0.729500  0.063800  1.0
  H  H578  1  0.063800  0.829300  0.729500  1.0
  H  H579  1  0.729500  0.063800  0.829300  1.0
  H  H580  1  0.170700  0.270500  0.936200  1.0
  H  H581  1  0.936200  0.170700  0.270500  1.0
  H  H582  1  0.270500  0.936200  0.170700  1.0
  H  H583  1  0.822700  0.803600  0.998400  1.0
  H  H584  1  0.998400  0.822700  0.803600  1.0
  H  H585  1  0.803600  0.998400  0.822700  1.0
  H  H586  1  0.177300  0.196400  0.001600  1.0
  H  H587  1  0.001600  0.177300  0.196400  1.0
  H  H588  1  0.196400  0.001600  0.177300  1.0
  H  H589  1  0.705100  0.918800  0.179600  1.0
  H  H590  1  0.179600  0.705100  0.918800  1.0
  H  H591  1  0.918800  0.179600  0.705100  1.0
  H  H592  1  0.294900  0.081200  0.820400  1.0
  H  H593  1  0.820400  0.294900  0.081200  1.0
  H  H594  1  0.081200  0.820400  0.294900  1.0
  H  H595  1  0.668300  0.024500  0.231000  1.0
  H  H596  1  0.231000  0.668300  0.024500  1.0
  H  H597  1  0.024500  0.231000  0.668300  1.0
  H  H598  1  0.331700  0.975500  0.769000  1.0
  H  H599  1  0.769000  0.331700  0.975500  1.0
  H  H600  1  0.975500  0.769000  0.331700  1.0
  H  H601  1  0.749300  0.884800  0.289100  1.0
  H  H602  1  0.289100  0.749300  0.884800  1.0
  H  H603  1  0.884800  0.289100  0.749300  1.0
  H  H604  1  0.250700  0.115200  0.710900  1.0
  H  H605  1  0.710900  0.250700  0.115200  1.0
  H  H606  1  0.115200  0.710900  0.250700  1.0
  H  H607  1  0.744900  0.811200  0.310400  1.0
  H  H608  1  0.310400  0.744900  0.811200  1.0
  H  H609  1  0.811200  0.310400  0.744900  1.0
  H  H610  1  0.255100  0.188800  0.689600  1.0
  H  H611  1  0.689600  0.255100  0.188800  1.0
  H  H612  1  0.188800  0.689600  0.255100  1.0
  H  H613  1  0.788200  0.729100  0.313800  1.0
  H  H614  1  0.313800  0.788200  0.729100  1.0
  H  H615  1  0.729100  0.313800  0.788200  1.0
  H  H616  1  0.211800  0.270900  0.686200  1.0
  H  H617  1  0.686200  0.211800  0.270900  1.0
  H  H618  1  0.270900  0.686200  0.211800  1.0
  H  H619  1  0.803100  0.770800  0.171700  1.0
  H  H620  1  0.171700  0.803100  0.770800  1.0
  H  H621  1  0.770800  0.171700  0.803100  1.0
  H  H622  1  0.196900  0.229200  0.828300  1.0
  H  H623  1  0.828300  0.196900  0.229200  1.0
  H  H624  1  0.229200  0.828300  0.196900  1.0
  H  H625  1  0.764700  0.852700  0.167800  1.0
  H  H626  1  0.167800  0.764700  0.852700  1.0
  H  H627  1  0.852700  0.167800  0.764700  1.0
  H  H628  1  0.235300  0.147300  0.832200  1.0
  H  H629  1  0.832200  0.235300  0.147300  1.0
  H  H630  1  0.147300  0.832200  0.235300  1.0
  H  H631  1  0.651700  0.966300  0.146200  1.0
  H  H632  1  0.146200  0.651700  0.966300  1.0
  H  H633  1  0.966300  0.146200  0.651700  1.0
  H  H634  1  0.348300  0.033700  0.853800  1.0
  H  H635  1  0.853800  0.348300  0.033700  1.0
  H  H636  1  0.033700  0.853800  0.348300  1.0
  H  H637  1  0.616100  0.022700  0.087600  1.0
  H  H638  1  0.087600  0.616100  0.022700  1.0
  H  H639  1  0.022700  0.087600  0.616100  1.0
  H  H640  1  0.383900  0.977300  0.912400  1.0
  H  H641  1  0.912400  0.383900  0.977300  1.0
  H  H642  1  0.977300  0.912400  0.383900  1.0
  H  H643  1  0.627100  0.129800  0.101200  1.0
  H  H644  1  0.101200  0.627100  0.129800  1.0
  H  H645  1  0.129800  0.101200  0.627100  1.0
  H  H646  1  0.372900  0.870200  0.898800  1.0
  H  H647  1  0.898800  0.372900  0.870200  1.0
  H  H648  1  0.870200  0.898800  0.372900  1.0
  H  H649  1  0.663400  0.073600  0.159800  1.0
  H  H650  1  0.159800  0.663400  0.073600  1.0
  H  H651  1  0.073600  0.159800  0.663400  1.0
  H  H652  1  0.336600  0.926400  0.840200  1.0
  H  H653  1  0.840200  0.336600  0.926400  1.0
  H  H654  1  0.926400  0.840200  0.336600  1.0
  H  H655  1  0.687000  0.043300  0.266700  1.0
  H  H656  1  0.266700  0.687000  0.043300  1.0
  H  H657  1  0.043300  0.266700  0.687000  1.0
  H  H658  1  0.313000  0.956700  0.733300  1.0
  H  H659  1  0.733300  0.313000  0.956700  1.0
  H  H660  1  0.956700  0.733300  0.313000  1.0
  H  H661  1  0.698100  0.069000  0.311800  1.0
  H  H662  1  0.311800  0.698100  0.069000  1.0
  H  H663  1  0.069000  0.311800  0.698100  1.0
  H  H664  1  0.301900  0.931000  0.688200  1.0
  H  H665  1  0.688200  0.301900  0.931000  1.0
  H  H666  1  0.931000  0.688200  0.301900  1.0
  H  H667  1  0.757000  0.936700  0.381300  1.0
  H  H668  1  0.381300  0.757000  0.936700  1.0
  H  H669  1  0.936700  0.381300  0.757000  1.0
  H  H670  1  0.243000  0.063300  0.618700  1.0
  H  H671  1  0.618700  0.243000  0.063300  1.0
  H  H672  1  0.063300  0.618700  0.243000  1.0
  H  H673  1  0.744200  0.909300  0.338100  1.0
  H  H674  1  0.338100  0.744200  0.909300  1.0
  H  H675  1  0.909300  0.338100  0.744200  1.0
  H  H676  1  0.255800  0.090700  0.661900  1.0
  H  H677  1  0.661900  0.255800  0.090700  1.0
  H  H678  1  0.090700  0.661900  0.255800  1.0
  H  H679  1  0.788000  0.493700  0.215800  1.0
  H  H680  1  0.215800  0.788000  0.493700  1.0
  H  H681  1  0.493700  0.215800  0.788000  1.0
  H  H682  1  0.212000  0.506300  0.784200  1.0
  H  H683  1  0.784200  0.212000  0.506300  1.0
  H  H684  1  0.506300  0.784200  0.212000  1.0
  H  H685  1  0.925900  0.431600  0.137300  1.0
  H  H686  1  0.137300  0.925900  0.431600  1.0
  H  H687  1  0.431600  0.137300  0.925900  1.0
  H  H688  1  0.074100  0.568400  0.862700  1.0
  H  H689  1  0.862700  0.074100  0.568400  1.0
  H  H690  1  0.568400  0.862700  0.074100  1.0
  H  H691  1  0.779000  0.488700  0.421800  1.0
  H  H692  1  0.421800  0.779000  0.488700  1.0
  H  H693  1  0.488700  0.421800  0.779000  1.0
  H  H694  1  0.221000  0.511300  0.578200  1.0
  H  H695  1  0.578200  0.221000  0.511300  1.0
  H  H696  1  0.511300  0.578200  0.221000  1.0
  H  H697  1  0.737800  0.514300  0.312000  1.0
  H  H698  1  0.312000  0.737800  0.514300  1.0
  H  H699  1  0.514300  0.312000  0.737800  1.0
  H  H700  1  0.262200  0.485700  0.688000  1.0
  H  H701  1  0.688000  0.262200  0.485700  1.0
  H  H702  1  0.485700  0.688000  0.262200  1.0
  H  H703  1  0.022000  0.369700  0.364400  1.0
  H  H704  1  0.364400  0.022000  0.369700  1.0
  H  H705  1  0.369700  0.364400  0.022000  1.0
  H  H706  1  0.978000  0.630300  0.635600  1.0
  H  H707  1  0.635600  0.978000  0.630300  1.0
  H  H708  1  0.630300  0.635600  0.978000  1.0
  H  H709  1  0.880900  0.434700  0.438400  1.0
  H  H710  1  0.438400  0.880900  0.434700  1.0
  H  H711  1  0.434700  0.438400  0.880900  1.0
  H  H712  1  0.119100  0.565300  0.561600  1.0
  H  H713  1  0.561600  0.119100  0.565300  1.0
  H  H714  1  0.565300  0.561600  0.119100  1.0
  H  H715  1  0.022800  0.379800  0.159700  1.0
  H  H716  1  0.159700  0.022800  0.379800  1.0
  H  H717  1  0.379800  0.159700  0.022800  1.0
  H  H718  1  0.977200  0.620200  0.840300  1.0
  H  H719  1  0.840300  0.977200  0.620200  1.0
  H  H720  1  0.620200  0.840300  0.977200  1.0
  H  H721  1  0.068300  0.350300  0.267300  1.0
  H  H722  1  0.267300  0.068300  0.350300  1.0
  H  H723  1  0.350300  0.267300  0.068300  1.0
  H  H724  1  0.931700  0.649700  0.732700  1.0
  H  H725  1  0.732700  0.931700  0.649700  1.0
  H  H726  1  0.649700  0.732700  0.931700  1.0
  N  N727  1  0.882730  0.345330  0.353230  1
  N  N728  1  0.353230  0.882730  0.345330  1
  N  N729  1  0.345330  0.353230  0.882730  1
  N  N730  1  0.117270  0.654670  0.646770  1
  N  N731  1  0.646770  0.117270  0.654670  1
  N  N732  1  0.654670  0.646770  0.117270  1
  O  O733  1  0.945820  0.628630  0.088170  1.0
  O  O734  1  0.088170  0.945820  0.628630  1.0
  O  O735  1  0.628630  0.088170  0.945820  1.0
  O  O736  1  0.054180  0.371370  0.911830  1.0
  O  O737  1  0.911830  0.054180  0.371370  1.0
  O  O738  1  0.371370  0.911830  0.054180  1.0
  O  O739  1  0.869320  0.661470  0.127630  1.0
  O  O740  1  0.127630  0.869320  0.661470  1.0
  O  O741  1  0.661470  0.127630  0.869320  1.0
  O  O742  1  0.130680  0.338530  0.872370  1.0
  O  O743  1  0.872370  0.130680  0.338530  1.0
  O  O744  1  0.338530  0.872370  0.130680  1.0
  O  O745  1  0.826970  0.678980  0.212710  1.0
  O  O746  1  0.212710  0.826970  0.678980  1.0
  O  O747  1  0.678980  0.212710  0.826970  1.0
  O  O748  1  0.173030  0.321020  0.787290  1.0
  O  O749  1  0.787290  0.173030  0.321020  1.0
  O  O750  1  0.321020  0.787290  0.173030  1.0
  O  O751  1  0.845820  0.661240  0.276130  1.0
  O  O752  1  0.276130  0.845820  0.661240  1.0
  O  O753  1  0.661240  0.276130  0.845820  1.0
  O  O754  1  0.154180  0.338760  0.723870  1.0
  O  O755  1  0.723870  0.154180  0.338760  1.0
  O  O756  1  0.338760  0.723870  0.154180  1.0
  O  O757  1  0.711430  0.066680  0.379720  1.0
  O  O758  1  0.379720  0.711430  0.066680  1.0
  O  O759  1  0.066680  0.379720  0.711430  1.0
  O  O760  1  0.288570  0.933320  0.620280  1.0
  O  O761  1  0.620280  0.288570  0.933320  1.0
  O  O762  1  0.933320  0.620280  0.288570  1.0
  O  O763  1  0.749570  0.990780  0.417210  1.0
  O  O764  1  0.417210  0.749570  0.990780  1.0
  O  O765  1  0.990780  0.417210  0.749570  1.0
  O  O766  1  0.250430  0.009220  0.582790  1.0
  O  O767  1  0.582790  0.250430  0.009220  1.0
  O  O768  1  0.009220  0.582790  0.250430  1.0
  O  O769  1  0.568630  0.164020  0.053180  1.0
  O  O770  1  0.053180  0.568630  0.164020  1.0
  O  O771  1  0.164020  0.053180  0.568630  1.0
  O  O772  1  0.431370  0.835980  0.946820  1.0
  O  O773  1  0.946820  0.431370  0.835980  1.0
  O  O774  1  0.835980  0.946820  0.431370  1.0
  O  O775  1  0.581500  0.104900  0.030760  1.0
  O  O776  1  0.030760  0.581500  0.104900  1.0
  O  O777  1  0.104900  0.030760  0.581500  1.0
  O  O778  1  0.418500  0.895100  0.969240  1.0
  O  O779  1  0.969240  0.418500  0.895100  1.0
  O  O780  1  0.895100  0.969240  0.418500  1.0
  O  O781  1  0.901110  0.553770  0.177800  1.0
  O  O782  1  0.177800  0.901110  0.553770  1.0
  O  O783  1  0.553770  0.177800  0.901110  1.0
  O  O784  1  0.098890  0.446230  0.822200  1.0
  O  O785  1  0.822200  0.098890  0.446230  1.0
  O  O786  1  0.446230  0.822200  0.098890  1.0
  O  O787  1  0.798860  0.612860  0.205330  1.0
  O  O788  1  0.205330  0.798860  0.612860  1.0
  O  O789  1  0.612860  0.205330  0.798860  1.0
  O  O790  1  0.201140  0.387140  0.794670  1.0
  O  O791  1  0.794670  0.201140  0.387140  1.0
  O  O792  1  0.387140  0.794670  0.201140  1.0
  O  O793  1  0.853220  0.571050  0.270960  1.0
  O  O794  1  0.270960  0.853220  0.571050  1.0
  O  O795  1  0.571050  0.270960  0.853220  1.0
  O  O796  1  0.146780  0.428950  0.729040  1.0
  O  O797  1  0.729040  0.146780  0.428950  1.0
  O  O798  1  0.428950  0.729040  0.146780  1.0
  O  O799  1  0.860890  0.572140  0.355680  1.0
  O  O800  1  0.355680  0.860890  0.572140  1.0
  O  O801  1  0.572140  0.355680  0.860890  1.0
  O  O802  1  0.139110  0.427860  0.644320  1.0
  O  O803  1  0.644320  0.139110  0.427860  1.0
  O  O804  1  0.427860  0.644320  0.139110  1.0
  O  O805  1  0.946030  0.524050  0.288270  1.0
  O  O806  1  0.288270  0.946030  0.524050  1.0
  O  O807  1  0.524050  0.288270  0.946030  1.0
  O  O808  1  0.053970  0.475950  0.711730  1.0
  O  O809  1  0.711730  0.053970  0.475950  1.0
  O  O810  1  0.475950  0.711730  0.053970  1.0
  O  O811  1  0.052030  0.484110  0.250920  1.0
  O  O812  1  0.250920  0.052030  0.484110  1.0
  O  O813  1  0.484110  0.250920  0.052030  1.0
  O  O814  1  0.947970  0.515890  0.749080  1.0
  O  O815  1  0.749080  0.947970  0.515890  1.0
  O  O816  1  0.515890  0.749080  0.947970  1.0
  O  O817  1  0.994590  0.505610  0.195120  1.0
  O  O818  1  0.195120  0.994590  0.505610  1.0
  O  O819  1  0.505610  0.195120  0.994590  1.0
  O  O820  1  0.005410  0.494390  0.804880  1.0
  O  O821  1  0.804880  0.005410  0.494390  1.0
  O  O822  1  0.494390  0.804880  0.005410  1.0
  O  O823  1  0.991100  0.524000  0.101830  1.0
  O  O824  1  0.101830  0.991100  0.524000  1.0
  O  O825  1  0.524000  0.101830  0.991100  1.0
  O  O826  1  0.008900  0.476000  0.898170  1.0
  O  O827  1  0.898170  0.008900  0.476000  1.0
  O  O828  1  0.476000  0.898170  0.008900  1.0
  O  O829  1  0.745320  0.568560  0.231830  1.0
  O  O830  1  0.231830  0.745320  0.568560  1.0
  O  O831  1  0.568560  0.231830  0.745320  1.0
  O  O832  1  0.254680  0.431440  0.768170  1.0
  O  O833  1  0.768170  0.254680  0.431440  1.0
  O  O834  1  0.431440  0.768170  0.254680  1.0
  O  O835  1  0.826440  0.514790  0.430950  1.0
  O  O836  1  0.430950  0.826440  0.514790  1.0
  O  O837  1  0.514790  0.430950  0.826440  1.0
  O  O838  1  0.173560  0.485210  0.569050  1.0
  O  O839  1  0.569050  0.173560  0.485210  1.0
  O  O840  1  0.485210  0.569050  0.173560  1.0
  O  O841  1  0.081950  0.396030  0.294140  1.0
  O  O842  1  0.294140  0.081950  0.396030  1.0
  O  O843  1  0.396030  0.294140  0.081950  1.0
  O  O844  1  0.918050  0.603970  0.705860  1.0
  O  O845  1  0.705860  0.918050  0.603970  1.0
  O  O846  1  0.603970  0.705860  0.918050  1.0
  O  O847  1  0.000580  0.449390  0.094840  1.0
  O  O848  1  0.094840  0.000580  0.449390  1.0
  O  O849  1  0.449390  0.094840  0.000580  1.0
  O  O850  1  0.999420  0.550610  0.905160  1.0
  O  O851  1  0.905160  0.999420  0.550610  1.0
  O  O852  1  0.550610  0.905160  0.999420  1.0
  O  O853  1  0.806450  0.448150  0.144650  1.0
  O  O854  1  0.144650  0.806450  0.448150  1.0
  O  O855  1  0.448150  0.144650  0.806450  1.0
  O  O856  1  0.193550  0.551850  0.855350  1.0
  O  O857  1  0.855350  0.193550  0.551850  1.0
  O  O858  1  0.551850  0.855350  0.193550  1.0
  O  O859  1  0.802800  0.404600  0.219900  1.0
  O  O860  1  0.219900  0.802800  0.404600  1.0
  O  O861  1  0.404600  0.219900  0.802800  1.0
  O  O862  1  0.197200  0.595400  0.780100  1.0
  O  O863  1  0.780100  0.197200  0.595400  1.0
  O  O864  1  0.595400  0.780100  0.197200  1.0
  O  O865  1  0.875140  0.387840  0.151240  1.0
  O  O866  1  0.151240  0.875140  0.387840  1.0
  O  O867  1  0.387840  0.151240  0.875140  1.0
  O  O868  1  0.124860  0.612160  0.848760  1.0
  O  O869  1  0.848760  0.124860  0.612160  1.0
  O  O870  1  0.612160  0.848760  0.124860  1.0
  O  O871  1  0.679580  0.490680  0.451380  1.0
  O  O872  1  0.451380  0.679580  0.490680  1.0
  O  O873  1  0.490680  0.451380  0.679580  1.0
  O  O874  1  0.320420  0.509320  0.548620  1.0
  O  O875  1  0.548620  0.320420  0.509320  1.0
  O  O876  1  0.509320  0.548620  0.320420  1.0
  O  O877  1  0.739020  0.418820  0.441120  1.0
  O  O878  1  0.441120  0.739020  0.418820  1.0
  O  O879  1  0.418820  0.441120  0.739020  1.0
  O  O880  1  0.260980  0.581180  0.558880  1.0
  O  O881  1  0.558880  0.260980  0.581180  1.0
  O  O882  1  0.581180  0.558880  0.260980  1.0
  O  O883  1  0.689710  0.464510  0.390710  1.0
  O  O884  1  0.390710  0.689710  0.464510  1.0
  O  O885  1  0.464510  0.390710  0.689710  1.0
  O  O886  1  0.310290  0.535490  0.609290  1.0
  O  O887  1  0.609290  0.310290  0.535490  1.0
  O  O888  1  0.535490  0.609290  0.310290  1.0
  O  O889  1  0.980590  0.332690  0.478490  1.0
  O  O890  1  0.478490  0.980590  0.332690  1.0
  O  O891  1  0.332690  0.478490  0.980590  1.0
  O  O892  1  0.019410  0.667310  0.521510  1.0
  O  O893  1  0.521510  0.019410  0.667310  1.0
  O  O894  1  0.667310  0.521510  0.019410  1.0
  O  O895  1  0.980800  0.302900  0.434900  1.0
  O  O896  1  0.434900  0.980800  0.302900  1.0
  O  O897  1  0.302900  0.434900  0.980800  1.0
  O  O898  1  0.019200  0.697100  0.565100  1.0
  O  O899  1  0.565100  0.019200  0.697100  1.0
  O  O900  1  0.697100  0.565100  0.019200  1.0
  O  O901  1  0.908100  0.334200  0.477200  1.0
  O  O902  1  0.477200  0.908100  0.334200  1.0
  O  O903  1  0.334200  0.477200  0.908100  1.0
  O  O904  1  0.091900  0.665800  0.522800  1.0
  O  O905  1  0.522800  0.091900  0.665800  1.0
  O  O906  1  0.665800  0.522800  0.091900  1.0
  O  O907  1  0.119900  0.278200  0.220900  1.0
  O  O908  1  0.220900  0.119900  0.278200  1.0
  O  O909  1  0.278200  0.220900  0.119900  1.0
  O  O910  1  0.880100  0.721800  0.779100  1.0
  O  O911  1  0.779100  0.880100  0.721800  1.0
  O  O912  1  0.721800  0.779100  0.880100  1.0
  O  O913  1  0.066590  0.287590  0.189490  1.0
  O  O914  1  0.189490  0.066590  0.287590  1.0
  O  O915  1  0.287590  0.189490  0.066590  1.0
  O  O916  1  0.933410  0.712410  0.810510  1.0
  O  O917  1  0.810510  0.933410  0.712410  1.0
  O  O918  1  0.712410  0.810510  0.933410  1.0
  O  O919  1  0.044000  0.272300  0.272100  1.0
  O  O920  1  0.272100  0.044000  0.272300  1.0
  O  O921  1  0.272300  0.272100  0.044000  1.0
  O  O922  1  0.956000  0.727700  0.727900  1.0
  O  O923  1  0.727900  0.956000  0.727700  1.0
  O  O924  1  0.727700  0.727900  0.956000  1.0
  O  O925  1  0.935410  0.603090  0.199150  1.0
  O  O926  1  0.199150  0.935410  0.603090  1.0
  O  O927  1  0.603090  0.199150  0.935410  1.0
  O  O928  1  0.064590  0.396910  0.800850  1.0
  O  O929  1  0.800850  0.064590  0.396910  1.0
  O  O930  1  0.396910  0.800850  0.064590  1.0
  S  S931  1  0.789700  0.567490  0.229230  1.0
  S  S932  1  0.229230  0.789700  0.567490  1.0
  S  S933  1  0.567490  0.229230  0.789700  1.0
  S  S934  1  0.210300  0.432510  0.770770  1.0
  S  S935  1  0.770770  0.210300  0.432510  1.0
  S  S936  1  0.432510  0.770770  0.210300  1.0
  S  S937  1  0.851560  0.526330  0.379680  1.0
  S  S938  1  0.379680  0.851560  0.526330  1.0
  S  S939  1  0.526330  0.379680  0.851560  1.0
  S  S940  1  0.148440  0.473670  0.620320  1.0
  S  S941  1  0.620320  0.148440  0.473670  1.0
  S  S942  1  0.473670  0.620320  0.148440  1.0
  S  S943  1  0.044410  0.437030  0.275650  1.0
  S  S944  1  0.275650  0.044410  0.437030  1.0
  S  S945  1  0.437030  0.275650  0.044410  1.0
  S  S946  1  0.955590  0.562970  0.724350  1.0
  S  S947  1  0.724350  0.955590  0.562970  1.0
  S  S948  1  0.562970  0.724350  0.955590  1.0
  S  S949  1  0.982640  0.477310  0.125570  1.0
  S  S950  1  0.125570  0.982640  0.477310  1.0
  S  S951  1  0.477310  0.125570  0.982640  1.0
  S  S952  1  0.017360  0.522690  0.874430  1.0
  S  S953  1  0.874430  0.017360  0.522690  1.0
  S  S954  1  0.522690  0.874430  0.017360  1.0
  S  S955  1  0.835470  0.417380  0.175260  1.0
  S  S956  1  0.175260  0.835470  0.417380  1.0
  S  S957  1  0.417380  0.175260  0.835470  1.0
  S  S958  1  0.164530  0.582620  0.824740  1.0
  S  S959  1  0.824740  0.164530  0.582620  1.0
  S  S960  1  0.582620  0.824740  0.164530  1.0
  S  S961  1  0.710510  0.465230  0.416650  1.0
  S  S962  1  0.416650  0.710510  0.465230  1.0
  S  S963  1  0.465230  0.416650  0.710510  1.0
  S  S964  1  0.289490  0.534770  0.583350  1.0
  S  S965  1  0.583350  0.289490  0.534770  1.0
  S  S966  1  0.534770  0.583350  0.289490  1.0
  S  S967  1  0.952160  0.337970  0.456520  1.0
  S  S968  1  0.456520  0.952160  0.337970  1.0
  S  S969  1  0.337970  0.456520  0.952160  1.0
  S  S970  1  0.047840  0.662030  0.543480  1.0
  S  S971  1  0.543480  0.047840  0.662030  1.0
  S  S972  1  0.662030  0.543480  0.047840  1.0
  S  S973  1  0.071260  0.293040  0.223980  1.0
  S  S974  1  0.223980  0.071260  0.293040  1.0
  S  S975  1  0.293040  0.223980  0.071260  1.0
  S  S976  1  0.928740  0.706960  0.776020  1.0
  S  S977  1  0.776020  0.928740  0.706960  1.0
  S  S978  1  0.706960  0.776020  0.928740  1.0
