
#######################################################################
#
#                 Cambridge Crystallographic Data Centre
#                                CCDC 
#
#######################################################################
#
# If this CIF has been generated from an entry in the Cambridge 
# Structural Database, then it will include bibliographic, chemical, 
# crystal, experimental, refinement or atomic coordinate data resulting 
# from the CCDC's data processing and validation procedures.
#
#######################################################################

data_JIBYEB
_chemical_formula_moiety         'C264 H336 N60 Pd12 24+,57(H2 O1),24(N1 O3 1-)'
_chemical_name_systematic        
"hexakis(\m-N^4^,N^4^,N^4'^,N^4'^-tetrakis(pyridin-4-yl)[1,1'-biphenyl]-4,4'-diamine)-dodecakis(N,N,N',N'-tetramethylethane-1,2-diamine)-dodeca-palladium tetracosanitrate heptapentacontahydrate"
_symmetry_cell_setting           hexagonal
_symmetry_space_group_name_H-M   'P 63/m m c'
_symmetry_Int_Tables_number      194
_space_group_name_Hall           "-P 6c 2'c"
loop_
_symmetry_equiv_pos_site_id
_symmetry_equiv_pos_as_xyz
1 x,y,z
2 -x,-y,1/2+z
3 -y,-x,1/2-z
4 y,x,-z
5 x-y,-y,-z
6 -x+y,y,1/2-z
7 x,x-y,1/2-z
8 -x,-x+y,-z
9 -y,x-y,z
10 y,-x+y,1/2+z
11 x-y,x,1/2+z
12 -x+y,-x,z
13 -x,-y,-z
14 x,y,1/2-z
15 y,x,1/2+z
16 -y,-x,z
17 -x+y,y,z
18 x-y,-y,1/2+z
19 -x,-x+y,1/2+z
20 x,x-y,z
21 y,-x+y,-z
22 -y,x-y,1/2-z
23 -x+y,-x,1/2-z
24 x-y,x,-z
_cell_length_a                   37.048(5)
_cell_length_b                   37.048(5)
_cell_length_c                   27.519(6)
_cell_angle_alpha                90
_cell_angle_beta                 90
_cell_angle_gamma                120
_cell_volume                     32710.9
_exptl_crystal_colour            colorless
_exptl_crystal_description       rectangular
_cell_formula_units_Z            2
loop_
_atom_site_label
_atom_site_type_symbol
_atom_site_fract_x
_atom_site_fract_y
_atom_site_fract_z
Pd1 Pd 0.28194(3) 0.25837(3) 0.7500
Pd2 Pd 0.40472(4) 0.20236(2) 1.08197(3)
N1 N 0.3266(2) 0.2764(3) 0.8006(2)
N2 N 0.4079(3) 0.2399(2) 1.0285(2)
N3 N 0.2366(3) 0.2414(3) 0.6992(3)
N4 N 0.4024(4) 0.1631(4) 1.1368(3)
N5 N 0.4165(3) 0.3154(3) 0.9095(3)
C1 C 0.3359(3) 0.2492(3) 0.8218(3)
H1 H 0.3218 0.2210 0.8115
C2 C 0.3654(3) 0.2614(3) 0.8581(3)
H2 H 0.3711 0.2415 0.8727
C3 C 0.3871(3) 0.3034(4) 0.8736(3)
C4 C 0.3793(4) 0.3307(3) 0.8509(3)
H3 H 0.3947 0.3594 0.8591
C5 C 0.3487(4) 0.3171(4) 0.8153(4)
H4 H 0.3429 0.3368 0.8005
C6 C 0.4461(3) 0.2719(4) 1.0109(4)
H5 H 0.4710 0.2768 1.0265
C7 C 0.4491(4) 0.2960(4) 0.9724(4)
H6 H 0.4757 0.3174 0.9621
C8 C 0.4142(3) 0.2900(4) 0.9482(3)
C9 C 0.3753(3) 0.2594(3) 0.9670(3)
H7 H 0.3504 0.2557 0.9524
C10 C 0.3725(3) 0.2352(3) 1.0051(3)
H8 H 0.3458 0.2146 1.0162
C11 C 0.4554(3) 0.3560(4) 0.9066(4)
C12 C 0.4630(5) 0.3853(4) 0.9402(4)
H9 H 0.4432 0.3794 0.9653
C13 C 0.4991(4) 0.4238(5) 0.9393(4)
H10 H 0.5042 0.4438 0.9639
C14 C 0.5273(3) 0.4328(4) 0.9027(4)
C15 C 0.5158(5) 0.4030(5) 0.8674(5)
H11 H 0.5340 0.4093 0.8404
C16 C 0.4797(4) 0.3646(4) 0.8679(5)
H12 H 0.4727 0.3454 0.8419
C17 C 0.1986(4) 0.2294(6) 0.7236(3)
H13 H 0.1781 0.2010 0.7126
H14 H 0.1884 0.2482 0.7126
C18 C 0.2315(4) 0.2054(5) 0.6683(5)
H15 H 0.2577 0.2135 0.6512
H16 H 0.2244 0.1813 0.6891
H17 H 0.2093 0.1981 0.6445
C19 C 0.2406(5) 0.2742(5) 0.6676(6)
H18 H 0.2664 0.2850 0.6486
H19 H 0.2167 0.2633 0.6455
H20 H 0.2416 0.2968 0.6871
C20 C 0.3896(7) 0.1752(5) 1.1803(4)
H21 H 0.4079 0.1763 1.2071
H22 H 0.3610 0.1528 1.1883
C21 C 0.3627(7) 0.1257(8) 1.1341(7)
H23 H 0.3619 0.1095 1.1056
H24 H 0.3582 0.1091 1.1636
H25 H 0.3407 0.1330 1.1314
C22 C 0.4408(5) 0.1625(5) 1.1405(6)
H26 H 0.4643 0.1911 1.1418
H27 H 0.4405 0.1475 1.1700
H28 H 0.4439 0.1483 1.1120
N1O N 0.7236(3) 0.6734(2) 0.8006(2)
N2O N 0.7601(2) 0.5921(3) 1.0285(2)
N5O N 0.6846(3) 0.5835(3) 0.9095(3)
C1O C 0.7508(3) 0.6641(3) 0.8218(3)
H1O H 0.7790 0.6782 0.8115
C2O C 0.7386(3) 0.6346(3) 0.8581(3)
H2O H 0.7585 0.6289 0.8727
C3O C 0.6966(4) 0.6129(3) 0.8736(3)
C4O C 0.6693(3) 0.6207(4) 0.8509(3)
H3O H 0.6406 0.6053 0.8591
C5O C 0.6829(4) 0.6513(4) 0.8153(4)
H4O H 0.6632 0.6571 0.8005
C6O C 0.7281(4) 0.5539(3) 1.0109(4)
H5O H 0.7232 0.5290 1.0265
C7O C 0.7040(4) 0.5509(4) 0.9724(4)
H6O H 0.6826 0.5243 0.9621
C8O C 0.7100(4) 0.5858(3) 0.9482(3)
C9O C 0.7406(3) 0.6247(3) 0.9670(3)
H7O H 0.7443 0.6496 0.9524
C10O C 0.7648(3) 0.6275(3) 1.0051(3)
H8O H 0.7854 0.6542 1.0162
C11O C 0.6440(4) 0.5446(3) 0.9066(4)
C12O C 0.6147(4) 0.5370(5) 0.9402(4)
H9O H 0.6206 0.5568 0.9653
C13O C 0.5762(5) 0.5009(4) 0.9393(4)
H10O H 0.5562 0.4958 0.9639
C14O C 0.5672(4) 0.4727(3) 0.9027(4)
C15O C 0.5970(5) 0.4842(5) 0.8674(5)
H11O H 0.5907 0.4660 0.8404
C16O C 0.6354(4) 0.5203(4) 0.8679(5)
H12O H 0.6546 0.5273 0.8419
N3M N 0.2366(3) 0.2414(3) 0.8008(3)
C17M C 0.1986(4) 0.2294(6) 0.7764(3)
H13M H 0.1781 0.2010 0.7874
H14M H 0.1884 0.2482 0.7874
C18M C 0.2315(4) 0.2054(5) 0.8317(5)
H15M H 0.2577 0.2135 0.8488
H16M H 0.2244 0.1813 0.8109
H17M H 0.2093 0.1981 0.8555
C19M C 0.2406(5) 0.2742(5) 0.8324(6)
H18M H 0.2664 0.2850 0.8514
H19M H 0.2167 0.2633 0.8545
H20M H 0.2416 0.2968 0.8129
N4S N 0.4024(4) 0.2393(6) 1.1368(3)
C20S C 0.3896(7) 0.2144(9) 1.1803(4)
H21S H 0.4079 0.2316 1.2071
H22S H 0.3610 0.2082 1.1883
C21S C 0.3627(7) 0.2370(11) 1.1341(7)
H23S H 0.3619 0.2524 1.1056
H24S H 0.3582 0.2491 1.1636
H25S H 0.3407 0.2077 1.1314
C22S C 0.4408(5) 0.2783(7) 1.1405(6)
H26S H 0.4643 0.2732 1.1418
H27S H 0.4405 0.2930 1.1700
H28S H 0.4439 0.2956 1.1120
Pd1B Pd 0.74163(3) 0.71806(3) 0.7500
Pd2B Pd 0.79764(2) 0.59528(4) 0.41803(3)
N1B N 0.7236(3) 0.6734(2) 0.6994(2)
N2B N 0.7601(2) 0.5921(3) 0.4715(2)
N3B N 0.7586(3) 0.7634(3) 0.8008(3)
N4B N 0.8369(4) 0.5976(4) 0.3632(3)
N5B N 0.6846(3) 0.5835(3) 0.5905(3)
C1B C 0.7508(3) 0.6641(3) 0.6782(3)
H1B H 0.7790 0.6782 0.6885
C2B C 0.7386(3) 0.6346(3) 0.6419(3)
H2B H 0.7585 0.6289 0.6273
C3B C 0.6966(4) 0.6129(3) 0.6264(3)
C4B C 0.6693(3) 0.6207(4) 0.6491(3)
H3B H 0.6406 0.6053 0.6409
C5B C 0.6829(4) 0.6513(4) 0.6847(4)
H4B H 0.6632 0.6571 0.6995
C6B C 0.7281(4) 0.5539(3) 0.4891(4)
H5B H 0.7232 0.5290 0.4735
C7B C 0.7040(4) 0.5509(4) 0.5276(4)
H6B H 0.6826 0.5243 0.5379
C8B C 0.7100(4) 0.5858(3) 0.5518(3)
C9B C 0.7406(3) 0.6247(3) 0.5330(3)
H7B H 0.7443 0.6496 0.5476
C10B C 0.7648(3) 0.6275(3) 0.4949(3)
H8B H 0.7854 0.6542 0.4838
C11B C 0.6440(4) 0.5446(3) 0.5934(4)
C12B C 0.6147(4) 0.5370(5) 0.5598(4)
H9B H 0.6206 0.5568 0.5347
C13B C 0.5762(5) 0.5009(4) 0.5607(4)
H10B H 0.5562 0.4958 0.5361
C14B C 0.5672(4) 0.4727(3) 0.5973(4)
C15B C 0.5970(5) 0.4842(5) 0.6326(5)
H11B H 0.5907 0.4660 0.6596
C16B C 0.6354(4) 0.5203(4) 0.6321(5)
H12B H 0.6546 0.5273 0.6581
C17B C 0.7706(6) 0.8014(4) 0.7764(3)
H13B H 0.7990 0.8219 0.7874
H14B H 0.7518 0.8116 0.7874
C18B C 0.7946(5) 0.7685(4) 0.8317(5)
H15B H 0.7865 0.7423 0.8488
H16B H 0.8187 0.7756 0.8109
H17B H 0.8019 0.7907 0.8555
C19B C 0.7258(5) 0.7594(5) 0.8324(6)
H18B H 0.7150 0.7336 0.8514
H19B H 0.7367 0.7833 0.8545
H20B H 0.7032 0.7584 0.8129
C20B C 0.8248(5) 0.6104(7) 0.3197(4)
H21B H 0.8237 0.5921 0.2929
H22B H 0.8472 0.6390 0.3117
C21B C 0.8743(8) 0.6373(7) 0.3659(7)
H23B H 0.8905 0.6381 0.3944
H24B H 0.8909 0.6418 0.3364
H25B H 0.8670 0.6593 0.3686
C22B C 0.8375(5) 0.5592(5) 0.3595(6)
H26B H 0.8089 0.5357 0.3582
H27B H 0.8525 0.5595 0.3300
H28B H 0.8517 0.5561 0.3880
N1M N 0.3266(2) 0.2764(3) 0.6994(2)
N2M N 0.4079(3) 0.2399(2) 0.4715(2)
N5M N 0.4165(3) 0.3154(3) 0.5905(3)
C1M C 0.3359(3) 0.2492(3) 0.6782(3)
H1M H 0.3218 0.2210 0.6885
C2M C 0.3654(3) 0.2614(3) 0.6419(3)
H2M H 0.3711 0.2415 0.6273
C3M C 0.3871(3) 0.3034(4) 0.6264(3)
C4M C 0.3793(4) 0.3307(3) 0.6491(3)
H3M H 0.3947 0.3594 0.6409
C5M C 0.3487(4) 0.3171(4) 0.6847(4)
H4M H 0.3429 0.3368 0.6995
C6M C 0.4461(3) 0.2719(4) 0.4891(4)
H5M H 0.4710 0.2768 0.4735
C7M C 0.4491(4) 0.2960(4) 0.5276(4)
H6M H 0.4757 0.3174 0.5379
C8M C 0.4142(3) 0.2900(4) 0.5518(3)
C9M C 0.3753(3) 0.2594(3) 0.5330(3)
H7M H 0.3504 0.2557 0.5476
C10M C 0.3725(3) 0.2352(3) 0.4949(3)
H8M H 0.3458 0.2146 0.4838
C11M C 0.4554(3) 0.3560(4) 0.5934(4)
C12M C 0.4630(5) 0.3853(4) 0.5598(4)
H9M H 0.4432 0.3794 0.5347
C13M C 0.4991(4) 0.4238(5) 0.5607(4)
H10M H 0.5042 0.4438 0.5361
C14M C 0.5273(3) 0.4328(4) 0.5973(4)
C15M C 0.5158(5) 0.4030(5) 0.6326(5)
H11M H 0.5340 0.4093 0.6596
C16M C 0.4797(4) 0.3646(4) 0.6321(5)
H12M H 0.4727 0.3454 0.6581
N3O N 0.7586(3) 0.7634(3) 0.6992(3)
C17O C 0.7706(6) 0.8014(4) 0.7236(3)
H13O H 0.7990 0.8219 0.7126
H14O H 0.7518 0.8116 0.7126
C18O C 0.7946(5) 0.7685(4) 0.6683(5)
H15O H 0.7865 0.7423 0.6512
H16O H 0.8187 0.7756 0.6891
H17O H 0.8019 0.7907 0.6445
C19O C 0.7258(5) 0.7594(5) 0.6676(6)
H18O H 0.7150 0.7336 0.6486
H19O H 0.7367 0.7833 0.6455
H20O H 0.7032 0.7584 0.6871
N4V N 0.7607(6) 0.5976(4) 0.3632(3)
C20V C 0.7856(9) 0.6104(7) 0.3197(4)
H21V H 0.7684 0.5921 0.2929
H22V H 0.7918 0.6390 0.3117
C21V C 0.7630(11) 0.6373(7) 0.3659(7)
H23V H 0.7476 0.6381 0.3944
H24V H 0.7509 0.6418 0.3364
H25V H 0.7923 0.6593 0.3686
C22V C 0.7217(7) 0.5592(5) 0.3595(6)
H26V H 0.7268 0.5357 0.3582
H27V H 0.7070 0.5595 0.3300
H28V H 0.7044 0.5561 0.3880
Pd1E Pd 0.97643(4) 0.25837(3) 0.7500
Pd2E Pd 0.79764(4) 0.20236(2) 0.41803(3)
N1E N 0.9498(4) 0.2764(3) 0.6994(2)
N2E N 0.8320(4) 0.2399(2) 0.4715(2)
N3E N 1.0048(4) 0.2414(3) 0.8008(3)
N4E N 0.7607(6) 0.1631(4) 0.3632(3)
N5E N 0.8989(4) 0.3154(3) 0.5905(3)
C1E C 0.9133(4) 0.2492(3) 0.6782(3)
H1E H 0.8992 0.2210 0.6885
C2E C 0.8960(4) 0.2614(3) 0.6419(3)
H2E H 0.8704 0.2415 0.6273
C3E C 0.9163(5) 0.3034(4) 0.6264(3)
C4E C 0.9514(5) 0.3307(3) 0.6491(3)
H3E H 0.9647 0.3594 0.6409
C5E C 0.9684(6) 0.3171(4) 0.6847(4)
H4E H 0.9939 0.3368 0.6995
C6E C 0.8258(5) 0.2719(4) 0.4891(4)
H5E H 0.8058 0.2768 0.4735
C7E C 0.8469(6) 0.2960(4) 0.5276(4)
H6E H 0.8417 0.3174 0.5379
C8E C 0.8758(5) 0.2900(4) 0.5518(3)
C9E C 0.8841(4) 0.2594(3) 0.5330(3)
H7E H 0.9053 0.2557 0.5476
C10E C 0.8627(4) 0.2352(3) 0.4949(3)
H8E H 0.8688 0.2146 0.4838
C11E C 0.9006(5) 0.3560(4) 0.5934(4)
C12E C 0.9223(6) 0.3853(4) 0.5598(4)
H9E H 0.9362 0.3794 0.5347
C13E C 0.9247(6) 0.4238(5) 0.5607(4)
H10E H 0.9396 0.4438 0.5361
C14E C 0.9055(5) 0.4328(4) 0.5973(4)
C15E C 0.8872(7) 0.4030(5) 0.6326(5)
H11E H 0.8753 0.4093 0.6596
C16E C 0.8849(6) 0.3646(4) 0.6321(5)
H12E H 0.8727 0.3454 0.6581
C17E C 1.0308(7) 0.2294(6) 0.7764(3)
H13E H 1.0229 0.2010 0.7874
H14E H 1.0598 0.2482 0.7874
C18E C 0.9739(6) 0.2054(5) 0.8317(5)
H15E H 0.9558 0.2135 0.8488
H16E H 0.9569 0.1813 0.8109
H17E H 0.9888 0.1981 0.8555
C19E C 1.0336(7) 0.2742(5) 0.8324(6)
H18E H 1.0186 0.2850 0.8514
H19E H 1.0466 0.2633 0.8545
H20E H 1.0552 0.2968 0.8129
C20E C 0.7856(9) 0.1752(5) 0.3197(4)
H21E H 0.7684 0.1763 0.2929
H22E H 0.7918 0.1528 0.3117
C21E C 0.7630(11) 0.1257(8) 0.3659(7)
H23E H 0.7476 0.1095 0.3944
H24E H 0.7509 0.1091 0.3364
H25E H 0.7923 0.1330 0.3686
C22E C 0.7217(7) 0.1625(5) 0.3595(6)
H26E H 0.7268 0.1911 0.3582
H27E H 0.7070 0.1475 0.3300
H28E H 0.7044 0.1483 0.3880
N1V N 0.9498(4) 0.6734(2) 0.6994(2)
N2V N 0.8320(4) 0.5921(3) 0.4715(2)
N5V N 0.8989(4) 0.5835(3) 0.5905(3)
C1V C 0.9133(4) 0.6641(3) 0.6782(3)
H1V H 0.8992 0.6782 0.6885
C2V C 0.8960(4) 0.6346(3) 0.6419(3)
H2V H 0.8704 0.6289 0.6273
C3V C 0.9163(5) 0.6129(3) 0.6264(3)
C4V C 0.9514(5) 0.6207(4) 0.6491(3)
H3V H 0.9647 0.6053 0.6409
C5V C 0.9684(6) 0.6513(4) 0.6847(4)
H4V H 0.9939 0.6571 0.6995
C6V C 0.8258(5) 0.5539(3) 0.4891(4)
H5V H 0.8058 0.5290 0.4735
C7V C 0.8469(6) 0.5509(4) 0.5276(4)
H6V H 0.8417 0.5243 0.5379
C8V C 0.8758(5) 0.5858(3) 0.5518(3)
C9V C 0.8841(4) 0.6247(3) 0.5330(3)
H7V H 0.9053 0.6496 0.5476
C10V C 0.8627(4) 0.6275(3) 0.4949(3)
H8V H 0.8688 0.6542 0.4838
C11V C 0.9006(5) 0.5446(3) 0.5934(4)
C12V C 0.9223(6) 0.5370(5) 0.5598(4)
H9V H 0.9362 0.5568 0.5347
C13V C 0.9247(6) 0.5009(4) 0.5607(4)
H10V H 0.9396 0.4958 0.5361
C14V C 0.9055(5) 0.4727(3) 0.5973(4)
C15V C 0.8872(7) 0.4842(5) 0.6326(5)
H11V H 0.8753 0.4660 0.6596
C16V C 0.8849(6) 0.5203(4) 0.6321(5)
H12V H 0.8727 0.5273 0.6581
N3P N 1.0048(4) 0.2414(3) 0.6992(3)
C17P C 1.0308(7) 0.2294(6) 0.7236(3)
H13P H 1.0229 0.2010 0.7126
H14P H 1.0598 0.2482 0.7126
C18P C 0.9739(6) 0.2054(5) 0.6683(5)
H15P H 0.9558 0.2135 0.6512
H16P H 0.9569 0.1813 0.6891
H17P H 0.9888 0.1981 0.6445
C19P C 1.0336(7) 0.2742(5) 0.6676(6)
H18P H 1.0186 0.2850 0.6486
H19P H 1.0466 0.2633 0.6455
H20P H 1.0552 0.2968 0.6871
N4U N 0.8369(4) 0.2393(6) 0.3632(3)
C20U C 0.8248(5) 0.2144(9) 0.3197(4)
H21U H 0.8237 0.2316 0.2929
H22U H 0.8472 0.2082 0.3117
C21U C 0.8743(8) 0.2370(11) 0.3659(7)
H23U H 0.8905 0.2524 0.3944
H24U H 0.8909 0.2491 0.3364
H25U H 0.8670 0.2077 0.3686
C22U C 0.8375(5) 0.2783(7) 0.3595(6)
H26U H 0.8089 0.2732 0.3582
H27U H 0.8525 0.2930 0.3300
H28U H 0.8517 0.2956 0.3880
Pd1F Pd 0.28194(3) 0.02357(4) 0.7500
Pd2F Pd 0.40472(4) 0.20236(4) 0.41803(3)
N1F N 0.3266(2) 0.0502(4) 0.6994(2)
N2F N 0.4079(3) 0.1680(4) 0.4715(2)
N3F N 0.2366(3) -0.0048(4) 0.8008(3)
N4F N 0.4024(4) 0.2393(6) 0.3632(3)
N5F N 0.4165(3) 0.1011(4) 0.5905(3)
C1F C 0.3359(3) 0.0867(4) 0.6782(3)
H1F H 0.3218 0.1008 0.6885
C2F C 0.3654(3) 0.1040(4) 0.6419(3)
H2F H 0.3711 0.1296 0.6273
C3F C 0.3871(3) 0.0837(5) 0.6264(3)
C4F C 0.3793(4) 0.0486(5) 0.6491(3)
H3F H 0.3947 0.0353 0.6409
C5F C 0.3487(4) 0.0316(6) 0.6847(4)
H4F H 0.3429 0.0061 0.6995
C6F C 0.4461(3) 0.1742(5) 0.4891(4)
H5F H 0.4710 0.1942 0.4735
C7F C 0.4491(4) 0.1531(6) 0.5276(4)
H6F H 0.4757 0.1583 0.5379
C8F C 0.4142(3) 0.1242(5) 0.5518(3)
C9F C 0.3753(3) 0.1159(4) 0.5330(3)
H7F H 0.3504 0.0947 0.5476
C10F C 0.3725(3) 0.1373(4) 0.4949(3)
H8F H 0.3458 0.1312 0.4838
C11F C 0.4554(3) 0.0994(5) 0.5934(4)
C12F C 0.4630(5) 0.0777(6) 0.5598(4)
H9F H 0.4432 0.0638 0.5347
C13F C 0.4991(4) 0.0753(6) 0.5607(4)
H10F H 0.5042 0.0604 0.5361
C14F C 0.5273(3) 0.0945(5) 0.5973(4)
C15F C 0.5158(5) 0.1128(7) 0.6326(5)
H11F H 0.5340 0.1247 0.6596
C16F C 0.4797(4) 0.1151(6) 0.6321(5)
H12F H 0.4727 0.1273 0.6581
C17F C 0.1986(4) -0.0308(7) 0.7764(3)
H13F H 0.1781 -0.0229 0.7874
H14F H 0.1884 -0.0598 0.7874
C18F C 0.2315(4) 0.0261(6) 0.8317(5)
H15F H 0.2577 0.0442 0.8488
H16F H 0.2244 0.0431 0.8109
H17F H 0.2093 0.0112 0.8555
C19F C 0.2406(5) -0.0336(7) 0.8324(6)
H18F H 0.2664 -0.0186 0.8514
H19F H 0.2167 -0.0466 0.8545
H20F H 0.2416 -0.0552 0.8129
C20F C 0.3896(7) 0.2144(9) 0.3197(4)
H21F H 0.4079 0.2316 0.2929
H22F H 0.3610 0.2082 0.3117
C21F C 0.3627(7) 0.2370(11) 0.3659(7)
H23F H 0.3619 0.2524 0.3944
H24F H 0.3582 0.2491 0.3364
H25F H 0.3407 0.2077 0.3686
C22F C 0.4408(5) 0.2783(7) 0.3595(6)
H26F H 0.4643 0.2732 0.3582
H27F H 0.4405 0.2930 0.3300
H28F H 0.4439 0.2956 0.3880
N1U N 0.7236(3) 0.0502(4) 0.6994(2)
N2U N 0.7601(2) 0.1680(4) 0.4715(2)
N5U N 0.6846(3) 0.1011(4) 0.5905(3)
C1U C 0.7508(3) 0.0867(4) 0.6782(3)
H1U H 0.7790 0.1008 0.6885
C2U C 0.7386(3) 0.1040(4) 0.6419(3)
H2U H 0.7585 0.1296 0.6273
C3U C 0.6966(4) 0.0837(5) 0.6264(3)
C4U C 0.6693(3) 0.0486(5) 0.6491(3)
H3U H 0.6406 0.0353 0.6409
C5U C 0.6829(4) 0.0316(6) 0.6847(4)
H4U H 0.6632 0.0061 0.6995
C6U C 0.7281(4) 0.1742(5) 0.4891(4)
H5U H 0.7232 0.1942 0.4735
C7U C 0.7040(4) 0.1531(6) 0.5276(4)
H6U H 0.6826 0.1583 0.5379
C8U C 0.7100(4) 0.1242(5) 0.5518(3)
C9U C 0.7406(3) 0.1159(4) 0.5330(3)
H7U H 0.7443 0.0947 0.5476
C10U C 0.7648(3) 0.1373(4) 0.4949(3)
H8U H 0.7854 0.1312 0.4838
C11U C 0.6440(4) 0.0994(5) 0.5934(4)
C12U C 0.6147(4) 0.0777(6) 0.5598(4)
H9U H 0.6206 0.0638 0.5347
C13U C 0.5762(5) 0.0753(6) 0.5607(4)
H10U H 0.5562 0.0604 0.5361
C14U C 0.5672(4) 0.0945(5) 0.5973(4)
C15U C 0.5970(5) 0.1128(7) 0.6326(5)
H11U H 0.5907 0.1247 0.6596
C16U C 0.6354(4) 0.1151(6) 0.6321(5)
H12U H 0.6546 0.1273 0.6581
N3S N 0.2366(3) -0.0048(4) 0.6992(3)
C17S C 0.1986(4) -0.0308(7) 0.7236(3)
H13S H 0.1781 -0.0229 0.7126
H14S H 0.1884 -0.0598 0.7126
C18S C 0.2315(4) 0.0261(6) 0.6683(5)
H15S H 0.2577 0.0442 0.6512
H16S H 0.2244 0.0431 0.6891
H17S H 0.2093 0.0112 0.6445
C19S C 0.2406(5) -0.0336(7) 0.6676(6)
H18S H 0.2664 -0.0186 0.6486
H19S H 0.2167 -0.0466 0.6455
H20S H 0.2416 -0.0552 0.6871
N4M N 0.4024(4) 0.1631(4) 0.3632(3)
C20M C 0.3896(7) 0.1752(5) 0.3197(4)
H21M H 0.4079 0.1763 0.2929
H22M H 0.3610 0.1528 0.3117
C21M C 0.3627(7) 0.1257(8) 0.3659(7)
H23M H 0.3619 0.1095 0.3944
H24M H 0.3582 0.1091 0.3364
H25M H 0.3407 0.1330 0.3686
C22M C 0.4408(5) 0.1625(5) 0.3595(6)
H26M H 0.4643 0.1911 0.3582
H27M H 0.4405 0.1475 0.3300
H28M H 0.4439 0.1483 0.3880
Pd1H Pd 0.74163(3) 0.02357(4) 0.7500
Pd2H Pd 0.79764(2) 0.20236(4) 1.08197(3)
N1H N 0.7236(3) 0.0502(4) 0.8006(2)
N2H N 0.7601(2) 0.1680(4) 1.0285(2)
N3H N 0.7586(3) -0.0048(4) 0.6992(3)
N4H N 0.8369(4) 0.2393(6) 1.1368(3)
N5H N 0.6846(3) 0.1011(4) 0.9095(3)
C1H C 0.7508(3) 0.0867(4) 0.8218(3)
H1H H 0.7790 0.1008 0.8115
C2H C 0.7386(3) 0.1040(4) 0.8581(3)
H2H H 0.7585 0.1296 0.8727
C3H C 0.6966(4) 0.0837(5) 0.8736(3)
C4H C 0.6693(3) 0.0486(5) 0.8509(3)
H3H H 0.6406 0.0353 0.8591
C5H C 0.6829(4) 0.0316(6) 0.8153(4)
H4H H 0.6632 0.0061 0.8005
C6H C 0.7281(4) 0.1742(5) 1.0109(4)
H5H H 0.7232 0.1942 1.0265
C7H C 0.7040(4) 0.1531(6) 0.9724(4)
H6H H 0.6826 0.1583 0.9621
C8H C 0.7100(4) 0.1242(5) 0.9482(3)
C9H C 0.7406(3) 0.1159(4) 0.9670(3)
H7H H 0.7443 0.0947 0.9524
C10H C 0.7648(3) 0.1373(4) 1.0051(3)
H8H H 0.7854 0.1312 1.0162
C11H C 0.6440(4) 0.0994(5) 0.9066(4)
C12H C 0.6147(4) 0.0777(6) 0.9402(4)
H9H H 0.6206 0.0638 0.9653
C13H C 0.5762(5) 0.0753(6) 0.9393(4)
H10H H 0.5562 0.0604 0.9639
C14H C 0.5672(4) 0.0945(5) 0.9027(4)
C15H C 0.5970(5) 0.1128(7) 0.8674(5)
H11H H 0.5907 0.1247 0.8404
C16H C 0.6354(4) 0.1151(6) 0.8679(5)
H12H H 0.6546 0.1273 0.8419
C17H C 0.7706(6) -0.0308(7) 0.7236(3)
H13H H 0.7990 -0.0229 0.7126
H14H H 0.7518 -0.0598 0.7126
C18H C 0.7946(5) 0.0261(6) 0.6683(5)
H15H H 0.7865 0.0442 0.6512
H16H H 0.8187 0.0431 0.6891
H17H H 0.8019 0.0112 0.6445
C19H C 0.7258(5) -0.0336(7) 0.6676(6)
H18H H 0.7150 -0.0186 0.6486
H19H H 0.7367 -0.0466 0.6455
H20H H 0.7032 -0.0552 0.6871
C20H C 0.8248(5) 0.2144(9) 1.1803(4)
H21H H 0.8237 0.2316 1.2071
H22H H 0.8472 0.2082 1.1883
C21H C 0.8743(8) 0.2370(11) 1.1341(7)
H23H H 0.8905 0.2524 1.1056
H24H H 0.8909 0.2491 1.1636
H25H H 0.8670 0.2077 1.1314
C22H C 0.8375(5) 0.2783(7) 1.1405(6)
H26H H 0.8089 0.2732 1.1418
H27H H 0.8525 0.2930 1.1700
H28H H 0.8517 0.2956 1.1120
N1S N 0.3266(2) 0.0502(4) 0.8006(2)
N2S N 0.4079(3) 0.1680(4) 1.0285(2)
N5S N 0.4165(3) 0.1011(4) 0.9095(3)
C1S C 0.3359(3) 0.0867(4) 0.8218(3)
H1S H 0.3218 0.1008 0.8115
C2S C 0.3654(3) 0.1040(4) 0.8581(3)
H2S H 0.3711 0.1296 0.8727
C3S C 0.3871(3) 0.0837(5) 0.8736(3)
C4S C 0.3793(4) 0.0486(5) 0.8509(3)
H3S H 0.3947 0.0353 0.8591
C5S C 0.3487(4) 0.0316(6) 0.8153(4)
H4S H 0.3429 0.0061 0.8005
C6S C 0.4461(3) 0.1742(5) 1.0109(4)
H5S H 0.4710 0.1942 1.0265
C7S C 0.4491(4) 0.1531(6) 0.9724(4)
H6S H 0.4757 0.1583 0.9621
C8S C 0.4142(3) 0.1242(5) 0.9482(3)
C9S C 0.3753(3) 0.1159(4) 0.9670(3)
H7S H 0.3504 0.0947 0.9524
C10S C 0.3725(3) 0.1373(4) 1.0051(3)
H8S H 0.3458 0.1312 1.0162
C11S C 0.4554(3) 0.0994(5) 0.9066(4)
C12S C 0.4630(5) 0.0777(6) 0.9402(4)
H9S H 0.4432 0.0638 0.9653
C13S C 0.4991(4) 0.0753(6) 0.9393(4)
H10S H 0.5042 0.0604 0.9639
C14S C 0.5273(3) 0.0945(5) 0.9027(4)
C15S C 0.5158(5) 0.1128(7) 0.8674(5)
H11S H 0.5340 0.1247 0.8404
C16S C 0.4797(4) 0.1151(6) 0.8679(5)
H12S H 0.4727 0.1273 0.8419
N3U N 0.7586(3) -0.0048(4) 0.8008(3)
C17U C 0.7706(6) -0.0308(7) 0.7764(3)
H13U H 0.7990 -0.0229 0.7874
H14U H 0.7518 -0.0598 0.7874
C18U C 0.7946(5) 0.0261(6) 0.8317(5)
H15U H 0.7865 0.0442 0.8488
H16U H 0.8187 0.0431 0.8109
H17U H 0.8019 0.0112 0.8555
C19U C 0.7258(5) -0.0336(7) 0.8324(6)
H18U H 0.7150 -0.0186 0.8514
H19U H 0.7367 -0.0466 0.8545
H20U H 0.7032 -0.0552 0.8129
N4P N 0.7607(6) 0.1631(4) 1.1368(3)
C20P C 0.7856(9) 0.1752(5) 1.1803(4)
H21P H 0.7684 0.1763 1.2071
H22P H 0.7918 0.1528 1.1883
C21P C 0.7630(11) 0.1257(8) 1.1341(7)
H23P H 0.7476 0.1095 1.1056
H24P H 0.7509 0.1091 1.1636
H25P H 0.7923 0.1330 1.1314
C22P C 0.7217(7) 0.1625(5) 1.1405(6)
H26P H 0.7268 0.1911 1.1418
H27P H 0.7070 0.1475 1.1700
H28P H 0.7044 0.1483 1.1120
Pd1K Pd 0.97643(4) 0.71806(3) 0.7500
Pd2K Pd 0.79764(4) 0.59528(4) 1.08197(3)
N1K N 0.9498(4) 0.6734(2) 0.8006(2)
N2K N 0.8320(4) 0.5921(3) 1.0285(2)
N3K N 1.0048(4) 0.7634(3) 0.6992(3)
N4K N 0.7607(6) 0.5976(4) 1.1368(3)
N5K N 0.8989(4) 0.5835(3) 0.9095(3)
C1K C 0.9133(4) 0.6641(3) 0.8218(3)
H1K H 0.8992 0.6782 0.8115
C2K C 0.8960(4) 0.6346(3) 0.8581(3)
H2K H 0.8704 0.6289 0.8727
C3K C 0.9163(5) 0.6129(3) 0.8736(3)
C4K C 0.9514(5) 0.6207(4) 0.8509(3)
H3K H 0.9647 0.6053 0.8591
C5K C 0.9684(6) 0.6513(4) 0.8153(4)
H4K H 0.9939 0.6571 0.8005
C6K C 0.8258(5) 0.5539(3) 1.0109(4)
H5K H 0.8058 0.5290 1.0265
C7K C 0.8469(6) 0.5509(4) 0.9724(4)
H6K H 0.8417 0.5243 0.9621
C8K C 0.8758(5) 0.5858(3) 0.9482(3)
C9K C 0.8841(4) 0.6247(3) 0.9670(3)
H7K H 0.9053 0.6496 0.9524
C10K C 0.8627(4) 0.6275(3) 1.0051(3)
H8K H 0.8688 0.6542 1.0162
C11K C 0.9006(5) 0.5446(3) 0.9066(4)
C12K C 0.9223(6) 0.5370(5) 0.9402(4)
H9K H 0.9362 0.5568 0.9653
C13K C 0.9247(6) 0.5009(4) 0.9393(4)
H10K H 0.9396 0.4958 0.9639
C14K C 0.9055(5) 0.4727(3) 0.9027(4)
C15K C 0.8872(7) 0.4842(5) 0.8674(5)
H11K H 0.8753 0.4660 0.8404
C16K C 0.8849(6) 0.5203(4) 0.8679(5)
H12K H 0.8727 0.5273 0.8419
C17K C 1.0308(7) 0.8014(4) 0.7236(3)
H13K H 1.0229 0.8219 0.7126
H14K H 1.0598 0.8116 0.7126
C18K C 0.9739(6) 0.7685(4) 0.6683(5)
H15K H 0.9558 0.7423 0.6512
H16K H 0.9569 0.7756 0.6891
H17K H 0.9888 0.7907 0.6445
C19K C 1.0336(7) 0.7594(5) 0.6676(6)
H18K H 1.0186 0.7336 0.6486
H19K H 1.0466 0.7833 0.6455
H20K H 1.0552 0.7584 0.6871
C20K C 0.7856(9) 0.6104(7) 1.1803(4)
H21K H 0.7684 0.5921 1.2071
H22K H 0.7918 0.6390 1.1883
C21K C 0.7630(11) 0.6373(7) 1.1341(7)
H23K H 0.7476 0.6381 1.1056
H24K H 0.7509 0.6418 1.1636
H25K H 0.7923 0.6593 1.1314
C22K C 0.7217(7) 0.5592(5) 1.1405(6)
H26K H 0.7268 0.5357 1.1418
H27K H 0.7070 0.5595 1.1700
H28K H 0.7044 0.5561 1.1120
N1P N 0.9498(4) 0.2764(3) 0.8006(2)
N2P N 0.8320(4) 0.2399(2) 1.0285(2)
N5P N 0.8989(4) 0.3154(3) 0.9095(3)
C1P C 0.9133(4) 0.2492(3) 0.8218(3)
H1P H 0.8992 0.2210 0.8115
C2P C 0.8960(4) 0.2614(3) 0.8581(3)
H2P H 0.8704 0.2415 0.8727
C3P C 0.9163(5) 0.3034(4) 0.8736(3)
C4P C 0.9514(5) 0.3307(3) 0.8509(3)
H3P H 0.9647 0.3594 0.8591
C5P C 0.9684(6) 0.3171(4) 0.8153(4)
H4P H 0.9939 0.3368 0.8005
C6P C 0.8258(5) 0.2719(4) 1.0109(4)
H5P H 0.8058 0.2768 1.0265
C7P C 0.8469(6) 0.2960(4) 0.9724(4)
H6P H 0.8417 0.3174 0.9621
C8P C 0.8758(5) 0.2900(4) 0.9482(3)
C9P C 0.8841(4) 0.2594(3) 0.9670(3)
H7P H 0.9053 0.2557 0.9524
C10P C 0.8627(4) 0.2352(3) 1.0051(3)
H8P H 0.8688 0.2146 1.0162
C11P C 0.9006(5) 0.3560(4) 0.9066(4)
C12P C 0.9223(6) 0.3853(4) 0.9402(4)
H9P H 0.9362 0.3794 0.9653
C13P C 0.9247(6) 0.4238(5) 0.9393(4)
H10P H 0.9396 0.4438 0.9639
C14P C 0.9055(5) 0.4328(4) 0.9027(4)
C15P C 0.8872(7) 0.4030(5) 0.8674(5)
H11P H 0.8753 0.4093 0.8404
C16P C 0.8849(6) 0.3646(4) 0.8679(5)
H12P H 0.8727 0.3454 0.8419
N3V N 1.0048(4) 0.7634(3) 0.8008(3)
C17V C 1.0308(7) 0.8014(4) 0.7764(3)
H13V H 1.0229 0.8219 0.7874
H14V H 1.0598 0.8116 0.7874
C18V C 0.9739(6) 0.7685(4) 0.8317(5)
H15V H 0.9558 0.7423 0.8488
H16V H 0.9569 0.7756 0.8109
H17V H 0.9888 0.7907 0.8555
C19V C 1.0336(7) 0.7594(5) 0.8324(6)
H18V H 1.0186 0.7336 0.8514
H19V H 1.0466 0.7833 0.8545
H20V H 1.0552 0.7584 0.8129
N4O N 0.8369(4) 0.5976(4) 1.1368(3)
C20O C 0.8248(5) 0.6104(7) 1.1803(4)
H21O H 0.8237 0.5921 1.2071
H22O H 0.8472 0.6390 1.1883
C21O C 0.8743(8) 0.6373(7) 1.1341(7)
H23O H 0.8905 0.6381 1.1056
H24O H 0.8909 0.6418 1.1636
H25O H 0.8670 0.6593 1.1314
C22O C 0.8375(5) 0.5592(5) 1.1405(6)
H26O H 0.8089 0.5357 1.1418
H27O H 0.8525 0.5595 1.1700
H28O H 0.8517 0.5561 1.1120
N6 N 0.3130(6) 0.3887(7) 0.7500
O1 O 0.3020(5) 0.4130(5) 0.7500
O2 O 0.2930(6) 0.3541(7) 0.7500
O3 O 0.3498(8) 0.3989(7) 0.7500
N7 N 0.2225(6) 0.4450(11) 0.3788(11)
O4 O 0.2045(3) 0.4090(5) 0.3955(7)
O5 O 0.2570(7) 0.4577(7) 0.3674(8)
O5P O 0.2007(10) 0.4577(7) 0.3674(8)
O6 O 0.2996(8) 0.2802(8) 0.9568(9)
O7 O 0.0376(6) 0.1501(6) 0.2500
O8 O 0.7431(3) 0.4861(7) 0.4166(7)
O9 O 0.1482(3) 0.2964(7) 0.9376(8)
O10 O 0.1232(5) 0.2464(10) 0.7500
O11 O 0.1939(5) 0.3878(10) 0.2500
O12 O 0.0801(5) 0.1602(10) 0.2927(13)
O13 O 0.449(2) 0.461(2) 0.7500
O14 O 0.326(4) 0.433(4) 0.911(4)
O15 O 0.267(4) 0.389(4) 0.2500
N8? N 0.0982(15) 0.1457(12) 0.6979(16)
O16? O 0.113(3) 0.127(3) 0.675(3)
O17? O 0.114(3) 0.162(3) 0.737(2)
O18? O 0.070(2) 0.151(3) 0.681(3)
O19? O 0.2749 0.1588 0.5703
N9? N 0.2624 0.1312 0.5828
O20? O 0.2233 0.1009 0.5960
O21? O 0.2782 0.1028 0.5711
N10? N 0.1395(3) 0.2790(5) 0.2500
O22? O 0.1436(4) 0.2871(8) 0.2991(7)
O23? O 0.1050(4) 0.2725(5) 0.2384(5)
O24? O 0.1469(9) 0.2937(19) 0.7500
O25? O 0.488(5) 0.487(5) 0.905(4)
loop_
_geom_bond_atom_site_label_1
_geom_bond_atom_site_label_2
_geom_bond_site_symmetry_1
_geom_bond_site_symmetry_2
Pd1 N1 1_555 1_555
Pd2 N2 1_555 1_555
N1 C1 1_555 1_555
N2 C6 1_555 1_555
N3 Pd1 1_555 1_555
N4 Pd2 1_555 1_555
N5 C3 1_555 1_555
C1 H1 1_555 1_555
C2 C1 1_555 1_555
H2 C2 1_555 1_555
C3 C2 1_555 1_555
C4 C3 1_555 1_555
H3 C4 1_555 1_555
C5 N1 1_555 1_555
H4 C5 1_555 1_555
C6 H5 1_555 1_555
C7 C6 1_555 1_555
H6 C7 1_555 1_555
C8 N5 1_555 1_555
C9 C8 1_555 1_555
H7 C9 1_555 1_555
C10 N2 1_555 1_555
H8 C10 1_555 1_555
C11 N5 1_555 1_555
C12 C11 1_555 1_555
H9 C12 1_555 1_555
C13 C12 1_555 1_555
H10 C13 1_555 1_555
C14 C13 1_555 1_555
C15 C14 1_555 1_555
H11 C15 1_555 1_555
C16 C11 1_555 1_555
H12 C16 1_555 1_555
C17 N3 1_555 1_555
H13 C17 1_555 1_555
H14 C17 1_555 1_555
C18 N3 1_555 1_555
H15 C18 1_555 1_555
H16 C18 1_555 1_555
H17 C18 1_555 1_555
C19 N3 1_555 1_555
H18 C19 1_555 1_555
H19 C19 1_555 1_555
H20 C19 1_555 1_555
C20 N4 1_555 1_555
H21 C20 1_555 1_555
H22 C20 1_555 1_555
C21 N4 1_555 1_555
H23 C21 1_555 1_555
H24 C21 1_555 1_555
H25 C21 1_555 1_555
C22 N4 1_555 1_555
H26 C22 1_555 1_555
H27 C22 1_555 1_555
H28 C22 1_555 1_555
N6 O1 1_555 1_555
O2 N6 1_555 1_555
O3 N6 1_555 1_555
N7 O4 1_555 1_555
O5 N7 1_555 1_555
N1O C1O 1_555 1_555
N2O C6O 1_555 1_555
N5O C3O 1_555 1_555
C1O H1O 1_555 1_555
C2O C1O 1_555 1_555
H2O C2O 1_555 1_555
C3O C2O 1_555 1_555
C4O C3O 1_555 1_555
H3O C4O 1_555 1_555
C5O N1O 1_555 1_555
H4O C5O 1_555 1_555
C6O H5O 1_555 1_555
C7O C6O 1_555 1_555
H6O C7O 1_555 1_555
C8O N5O 1_555 1_555
C9O C8O 1_555 1_555
H7O C9O 1_555 1_555
C10O N2O 1_555 1_555
H8O C10O 1_555 1_555
C11O N5O 1_555 1_555
C12O C11O 1_555 1_555
H9O C12O 1_555 1_555
C13O C12O 1_555 1_555
H10O C13O 1_555 1_555
C14O C14 1_555 1_555
C15O C14O 1_555 1_555
H11O C15O 1_555 1_555
C16O C11O 1_555 1_555
H12O C16O 1_555 1_555
N3M Pd1 1_555 1_555
C17M C17 1_555 1_555
H13M C17M 1_555 1_555
H14M C17M 1_555 1_555
C18M N3M 1_555 1_555
H15M C18M 1_555 1_555
H16M C18M 1_555 1_555
H17M C18M 1_555 1_555
C19M N3M 1_555 1_555
H18M C19M 1_555 1_555
H19M C19M 1_555 1_555
H20M C19M 1_555 1_555
N4S Pd2 1_555 1_555
C20S C20 1_555 1_555
H21S C20S 1_555 1_555
H22S C20S 1_555 1_555
C21S N4S 1_555 1_555
H23S C21S 1_555 1_555
H24S C21S 1_555 1_555
H25S C21S 1_555 1_555
C22S N4S 1_555 1_555
H26S C22S 1_555 1_555
H27S C22S 1_555 1_555
H28S C22S 1_555 1_555
Pd1B N1O 1_555 1_555
Pd2B N2B 1_555 1_555
N1B Pd1B 1_555 1_555
N2B C6B 1_555 1_555
N3B Pd1B 1_555 1_555
N4B Pd2B 1_555 1_555
N5B C3B 1_555 1_555
C1B N1B 1_555 1_555
H1B C1B 1_555 1_555
C2B C1B 1_555 1_555
H2B C2B 1_555 1_555
C3B C2B 1_555 1_555
C4B C3B 1_555 1_555
H3B C4B 1_555 1_555
C5B N1B 1_555 1_555
H4B C5B 1_555 1_555
C6B H5B 1_555 1_555
C7B C6B 1_555 1_555
H6B C7B 1_555 1_555
C8B N5B 1_555 1_555
C9B C8B 1_555 1_555
H7B C9B 1_555 1_555
C10B N2B 1_555 1_555
H8B C10B 1_555 1_555
C11B N5B 1_555 1_555
C12B C11B 1_555 1_555
H9B C12B 1_555 1_555
C13B C12B 1_555 1_555
H10B C13B 1_555 1_555
C14B C13B 1_555 1_555
C15B C14B 1_555 1_555
H11B C15B 1_555 1_555
C16B C11B 1_555 1_555
H12B C16B 1_555 1_555
C17B N3B 1_555 1_555
H13B C17B 1_555 1_555
H14B C17B 1_555 1_555
C18B N3B 1_555 1_555
H15B C18B 1_555 1_555
H16B C18B 1_555 1_555
H17B C18B 1_555 1_555
C19B N3B 1_555 1_555
H18B C19B 1_555 1_555
H19B C19B 1_555 1_555
H20B C19B 1_555 1_555
C20B N4B 1_555 1_555
H21B C20B 1_555 1_555
H22B C20B 1_555 1_555
C21B N4B 1_555 1_555
H23B C21B 1_555 1_555
H24B C21B 1_555 1_555
H25B C21B 1_555 1_555
C22B N4B 1_555 1_555
H26B C22B 1_555 1_555
H27B C22B 1_555 1_555
H28B C22B 1_555 1_555
N1M Pd1 1_555 1_555
N2M C6M 1_555 1_555
N5M C3M 1_555 1_555
C1M N1M 1_555 1_555
H1M C1M 1_555 1_555
C2M C1M 1_555 1_555
H2M C2M 1_555 1_555
C3M C2M 1_555 1_555
C4M C3M 1_555 1_555
H3M C4M 1_555 1_555
C5M N1M 1_555 1_555
H4M C5M 1_555 1_555
C6M H5M 1_555 1_555
C7M C6M 1_555 1_555
H6M C7M 1_555 1_555
C8M N5M 1_555 1_555
C9M C8M 1_555 1_555
H7M C9M 1_555 1_555
C10M N2M 1_555 1_555
H8M C10M 1_555 1_555
C11M N5M 1_555 1_555
C12M C11M 1_555 1_555
H9M C12M 1_555 1_555
C13M C12M 1_555 1_555
H10M C13M 1_555 1_555
C14M C14B 1_555 1_555
C15M C14M 1_555 1_555
H11M C15M 1_555 1_555
C16M C11M 1_555 1_555
H12M C16M 1_555 1_555
N3O Pd1B 1_555 1_555
C17O C17B 1_555 1_555
H13O C17O 1_555 1_555
H14O C17O 1_555 1_555
C18O N3O 1_555 1_555
H15O C18O 1_555 1_555
H16O C18O 1_555 1_555
H17O C18O 1_555 1_555
C19O N3O 1_555 1_555
H18O C19O 1_555 1_555
H19O C19O 1_555 1_555
H20O C19O 1_555 1_555
N4V Pd2B 1_555 1_555
C20V C20B 1_555 1_555
H21V C20V 1_555 1_555
H22V C20V 1_555 1_555
C21V N4V 1_555 1_555
H23V C21V 1_555 1_555
H24V C21V 1_555 1_555
H25V C21V 1_555 1_555
C22V N4V 1_555 1_555
H26V C22V 1_555 1_555
H27V C22V 1_555 1_555
H28V C22V 1_555 1_555
Pd1E N1E 1_555 1_555
Pd2E N2E 1_555 1_555
N1E C1E 1_555 1_555
N2E C6E 1_555 1_555
N3E Pd1E 1_555 1_555
N4E Pd2E 1_555 1_555
N5E C3E 1_555 1_555
C1E H1E 1_555 1_555
C2E C1E 1_555 1_555
H2E C2E 1_555 1_555
C3E C2E 1_555 1_555
C4E C3E 1_555 1_555
H3E C4E 1_555 1_555
C5E N1E 1_555 1_555
H4E C5E 1_555 1_555
C6E H5E 1_555 1_555
C7E C6E 1_555 1_555
H6E C7E 1_555 1_555
C8E N5E 1_555 1_555
C9E C8E 1_555 1_555
H7E C9E 1_555 1_555
C10E N2E 1_555 1_555
H8E C10E 1_555 1_555
C11E N5E 1_555 1_555
C12E C11E 1_555 1_555
H9E C12E 1_555 1_555
C13E C12E 1_555 1_555
H10E C13E 1_555 1_555
C14E C13E 1_555 1_555
C15E C14E 1_555 1_555
H11E C15E 1_555 1_555
C16E C11E 1_555 1_555
H12E C16E 1_555 1_555
C17E N3E 1_555 1_555
H13E C17E 1_555 1_555
H14E C17E 1_555 1_555
C18E N3E 1_555 1_555
H15E C18E 1_555 1_555
H16E C18E 1_555 1_555
H17E C18E 1_555 1_555
C19E N3E 1_555 1_555
H18E C19E 1_555 1_555
H19E C19E 1_555 1_555
H20E C19E 1_555 1_555
C20E N4E 1_555 1_555
H21E C20E 1_555 1_555
H22E C20E 1_555 1_555
C21E N4E 1_555 1_555
H23E C21E 1_555 1_555
H24E C21E 1_555 1_555
H25E C21E 1_555 1_555
C22E N4E 1_555 1_555
H26E C22E 1_555 1_555
H27E C22E 1_555 1_555
H28E C22E 1_555 1_555
N1V C1V 1_555 1_555
N2V Pd2B 1_555 1_555
N5V C3V 1_555 1_555
C1V H1V 1_555 1_555
C2V C1V 1_555 1_555
H2V C2V 1_555 1_555
C3V C2V 1_555 1_555
C4V C3V 1_555 1_555
H3V C4V 1_555 1_555
C5V N1V 1_555 1_555
H4V C5V 1_555 1_555
C6V N2V 1_555 1_555
H5V C6V 1_555 1_555
C7V C6V 1_555 1_555
H6V C7V 1_555 1_555
C8V N5V 1_555 1_555
C9V C8V 1_555 1_555
H7V C9V 1_555 1_555
C10V N2V 1_555 1_555
H8V C10V 1_555 1_555
C11V N5V 1_555 1_555
C12V C11V 1_555 1_555
H9V C12V 1_555 1_555
C13V C12V 1_555 1_555
H10V C13V 1_555 1_555
C14V C14E 1_555 1_555
C15V C14V 1_555 1_555
H11V C15V 1_555 1_555
C16V C11V 1_555 1_555
H12V C16V 1_555 1_555
N3P Pd1E 1_555 1_555
C17P C17E 1_555 1_555
H13P C17P 1_555 1_555
H14P C17P 1_555 1_555
C18P N3P 1_555 1_555
H15P C18P 1_555 1_555
H16P C18P 1_555 1_555
H17P C18P 1_555 1_555
C19P N3P 1_555 1_555
H18P C19P 1_555 1_555
H19P C19P 1_555 1_555
H20P C19P 1_555 1_555
N4U Pd2E 1_555 1_555
C20U C20E 1_555 1_555
H21U C20U 1_555 1_555
H22U C20U 1_555 1_555
C21U N4U 1_555 1_555
H23U C21U 1_555 1_555
H24U C21U 1_555 1_555
H25U C21U 1_555 1_555
C22U N4U 1_555 1_555
H26U C22U 1_555 1_555
H27U C22U 1_555 1_555
H28U C22U 1_555 1_555
Pd1F N1F 1_555 1_555
Pd2F N2M 1_555 1_555
N1F C1F 1_555 1_555
N2F Pd2F 1_555 1_555
N3F Pd1F 1_555 1_555
N4F Pd2F 1_555 1_555
N5F C3F 1_555 1_555
C1F H1F 1_555 1_555
C2F C1F 1_555 1_555
H2F C2F 1_555 1_555
C3F C2F 1_555 1_555
C4F C3F 1_555 1_555
H3F C4F 1_555 1_555
C5F N1F 1_555 1_555
H4F C5F 1_555 1_555
C6F N2F 1_555 1_555
H5F C6F 1_555 1_555
C7F C6F 1_555 1_555
H6F C7F 1_555 1_555
C8F N5F 1_555 1_555
C9F C8F 1_555 1_555
H7F C9F 1_555 1_555
C10F N2F 1_555 1_555
H8F C10F 1_555 1_555
C11F N5F 1_555 1_555
C12F C11F 1_555 1_555
H9F C12F 1_555 1_555
C13F C12F 1_555 1_555
H10F C13F 1_555 1_555
C14F C13F 1_555 1_555
C15F C14F 1_555 1_555
H11F C15F 1_555 1_555
C16F C11F 1_555 1_555
H12F C16F 1_555 1_555
C17F N3F 1_555 1_555
H13F C17F 1_555 1_555
H14F C17F 1_555 1_555
C18F N3F 1_555 1_555
H15F C18F 1_555 1_555
H16F C18F 1_555 1_555
H17F C18F 1_555 1_555
C19F N3F 1_555 1_555
H18F C19F 1_555 1_555
H19F C19F 1_555 1_555
H20F C19F 1_555 1_555
C20F N4F 1_555 1_555
H21F C20F 1_555 1_555
H22F C20F 1_555 1_555
C21F N4F 1_555 1_555
H23F C21F 1_555 1_555
H24F C21F 1_555 1_555
H25F C21F 1_555 1_555
C22F N4F 1_555 1_555
H26F C22F 1_555 1_555
H27F C22F 1_555 1_555
H28F C22F 1_555 1_555
N1U C1U 1_555 1_555
N2U Pd2E 1_555 1_555
N5U C3U 1_555 1_555
C1U H1U 1_555 1_555
C2U C1U 1_555 1_555
H2U C2U 1_555 1_555
C3U C2U 1_555 1_555
C4U C3U 1_555 1_555
H3U C4U 1_555 1_555
C5U N1U 1_555 1_555
H4U C5U 1_555 1_555
C6U N2U 1_555 1_555
H5U C6U 1_555 1_555
C7U C6U 1_555 1_555
H6U C7U 1_555 1_555
C8U N5U 1_555 1_555
C9U C8U 1_555 1_555
H7U C9U 1_555 1_555
C10U N2U 1_555 1_555
H8U C10U 1_555 1_555
C11U N5U 1_555 1_555
C12U C11U 1_555 1_555
H9U C12U 1_555 1_555
C13U C12U 1_555 1_555
H10U C13U 1_555 1_555
C14U C14F 1_555 1_555
C15U C14U 1_555 1_555
H11U C15U 1_555 1_555
C16U C11U 1_555 1_555
H12U C16U 1_555 1_555
N3S Pd1F 1_555 1_555
C17S C17F 1_555 1_555
H13S C17S 1_555 1_555
H14S C17S 1_555 1_555
C18S N3S 1_555 1_555
H15S C18S 1_555 1_555
H16S C18S 1_555 1_555
H17S C18S 1_555 1_555
C19S N3S 1_555 1_555
H18S C19S 1_555 1_555
H19S C19S 1_555 1_555
H20S C19S 1_555 1_555
N4M Pd2F 1_555 1_555
C20M C20F 1_555 1_555
H21M C20M 1_555 1_555
H22M C20M 1_555 1_555
C21M N4M 1_555 1_555
H23M C21M 1_555 1_555
H24M C21M 1_555 1_555
H25M C21M 1_555 1_555
C22M N4M 1_555 1_555
H26M C22M 1_555 1_555
H27M C22M 1_555 1_555
H28M C22M 1_555 1_555
Pd1H N1U 1_555 1_555
Pd2H N2H 1_555 1_555
N1H Pd1H 1_555 1_555
N2H C6H 1_555 1_555
N3H Pd1H 1_555 1_555
N4H Pd2H 1_555 1_555
N5H C3H 1_555 1_555
C1H N1H 1_555 1_555
H1H C1H 1_555 1_555
C2H C1H 1_555 1_555
H2H C2H 1_555 1_555
C3H C2H 1_555 1_555
C4H C3H 1_555 1_555
H3H C4H 1_555 1_555
C5H N1H 1_555 1_555
H4H C5H 1_555 1_555
C6H H5H 1_555 1_555
C7H C6H 1_555 1_555
H6H C7H 1_555 1_555
C8H N5H 1_555 1_555
C9H C8H 1_555 1_555
H7H C9H 1_555 1_555
C10H N2H 1_555 1_555
H8H C10H 1_555 1_555
C11H N5H 1_555 1_555
C12H C11H 1_555 1_555
H9H C12H 1_555 1_555
C13H C12H 1_555 1_555
H10H C13H 1_555 1_555
C14H C13H 1_555 1_555
C15H C14H 1_555 1_555
H11H C15H 1_555 1_555
C16H C11H 1_555 1_555
H12H C16H 1_555 1_555
C17H N3H 1_555 1_555
H13H C17H 1_555 1_555
H14H C17H 1_555 1_555
C18H N3H 1_555 1_555
H15H C18H 1_555 1_555
H16H C18H 1_555 1_555
H17H C18H 1_555 1_555
C19H N3H 1_555 1_555
H18H C19H 1_555 1_555
H19H C19H 1_555 1_555
H20H C19H 1_555 1_555
C20H N4H 1_555 1_555
H21H C20H 1_555 1_555
H22H C20H 1_555 1_555
C21H N4H 1_555 1_555
H23H C21H 1_555 1_555
H24H C21H 1_555 1_555
H25H C21H 1_555 1_555
C22H N4H 1_555 1_555
H26H C22H 1_555 1_555
H27H C22H 1_555 1_555
H28H C22H 1_555 1_555
N1S Pd1F 1_555 1_555
N2S Pd2 1_555 1_555
N5S C3S 1_555 1_555
C1S N1S 1_555 1_555
H1S C1S 1_555 1_555
C2S C1S 1_555 1_555
H2S C2S 1_555 1_555
C3S C2S 1_555 1_555
C4S C3S 1_555 1_555
H3S C4S 1_555 1_555
C5S N1S 1_555 1_555
H4S C5S 1_555 1_555
C6S N2S 1_555 1_555
H5S C6S 1_555 1_555
C7S C6S 1_555 1_555
H6S C7S 1_555 1_555
C8S N5S 1_555 1_555
C9S C8S 1_555 1_555
H7S C9S 1_555 1_555
C10S N2S 1_555 1_555
H8S C10S 1_555 1_555
C11S N5S 1_555 1_555
C12S C11S 1_555 1_555
H9S C12S 1_555 1_555
C13S C12S 1_555 1_555
H10S C13S 1_555 1_555
C14S C14H 1_555 1_555
C15S C14S 1_555 1_555
H11S C15S 1_555 1_555
C16S C11S 1_555 1_555
H12S C16S 1_555 1_555
N3U Pd1H 1_555 1_555
C17U C17H 1_555 1_555
H13U C17U 1_555 1_555
H14U C17U 1_555 1_555
C18U N3U 1_555 1_555
H15U C18U 1_555 1_555
H16U C18U 1_555 1_555
H17U C18U 1_555 1_555
C19U N3U 1_555 1_555
H18U C19U 1_555 1_555
H19U C19U 1_555 1_555
H20U C19U 1_555 1_555
N4P Pd2H 1_555 1_555
C20P C20H 1_555 1_555
H21P C20P 1_555 1_555
H22P C20P 1_555 1_555
C21P N4P 1_555 1_555
H23P C21P 1_555 1_555
H24P C21P 1_555 1_555
H25P C21P 1_555 1_555
C22P N4P 1_555 1_555
H26P C22P 1_555 1_555
H27P C22P 1_555 1_555
H28P C22P 1_555 1_555
Pd1K N1V 1_555 1_555
Pd2K N2O 1_555 1_555
N1K Pd1K 1_555 1_555
N2K Pd2K 1_555 1_555
N3K Pd1K 1_555 1_555
N4K Pd2K 1_555 1_555
N5K C3K 1_555 1_555
C1K N1K 1_555 1_555
H1K C1K 1_555 1_555
C2K C1K 1_555 1_555
H2K C2K 1_555 1_555
C3K C2K 1_555 1_555
C4K C3K 1_555 1_555
H3K C4K 1_555 1_555
C5K N1K 1_555 1_555
H4K C5K 1_555 1_555
C6K N2K 1_555 1_555
H5K C6K 1_555 1_555
C7K C6K 1_555 1_555
H6K C7K 1_555 1_555
C8K N5K 1_555 1_555
C9K C8K 1_555 1_555
H7K C9K 1_555 1_555
C10K N2K 1_555 1_555
H8K C10K 1_555 1_555
C11K N5K 1_555 1_555
C12K C11K 1_555 1_555
H9K C12K 1_555 1_555
C13K C12K 1_555 1_555
H10K C13K 1_555 1_555
C14K C13K 1_555 1_555
C15K C14K 1_555 1_555
H11K C15K 1_555 1_555
C16K C11K 1_555 1_555
H12K C16K 1_555 1_555
C17K N3K 1_555 1_555
H13K C17K 1_555 1_555
H14K C17K 1_555 1_555
C18K N3K 1_555 1_555
H15K C18K 1_555 1_555
H16K C18K 1_555 1_555
H17K C18K 1_555 1_555
C19K N3K 1_555 1_555
H18K C19K 1_555 1_555
H19K C19K 1_555 1_555
H20K C19K 1_555 1_555
C20K N4K 1_555 1_555
H21K C20K 1_555 1_555
H22K C20K 1_555 1_555
C21K N4K 1_555 1_555
H23K C21K 1_555 1_555
H24K C21K 1_555 1_555
H25K C21K 1_555 1_555
C22K N4K 1_555 1_555
H26K C22K 1_555 1_555
H27K C22K 1_555 1_555
H28K C22K 1_555 1_555
N1P Pd1E 1_555 1_555
N2P Pd2H 1_555 1_555
N5P C3P 1_555 1_555
C1P N1P 1_555 1_555
H1P C1P 1_555 1_555
C2P C1P 1_555 1_555
H2P C2P 1_555 1_555
C3P C2P 1_555 1_555
C4P C3P 1_555 1_555
H3P C4P 1_555 1_555
C5P N1P 1_555 1_555
H4P C5P 1_555 1_555
C6P N2P 1_555 1_555
H5P C6P 1_555 1_555
C7P C6P 1_555 1_555
H6P C7P 1_555 1_555
C8P N5P 1_555 1_555
C9P C8P 1_555 1_555
H7P C9P 1_555 1_555
C10P N2P 1_555 1_555
H8P C10P 1_555 1_555
C11P N5P 1_555 1_555
C12P C11P 1_555 1_555
H9P C12P 1_555 1_555
C13P C12P 1_555 1_555
H10P C13P 1_555 1_555
C14P C14K 1_555 1_555
C15P C14P 1_555 1_555
H11P C15P 1_555 1_555
C16P C11P 1_555 1_555
H12P C16P 1_555 1_555
N3V Pd1K 1_555 1_555
C17V C17K 1_555 1_555
H13V C17V 1_555 1_555
H14V C17V 1_555 1_555
C18V N3V 1_555 1_555
H15V C18V 1_555 1_555
H16V C18V 1_555 1_555
H17V C18V 1_555 1_555
C19V N3V 1_555 1_555
H18V C19V 1_555 1_555
H19V C19V 1_555 1_555
H20V C19V 1_555 1_555
N4O Pd2K 1_555 1_555
C20O C20K 1_555 1_555
H21O C20O 1_555 1_555
H22O C20O 1_555 1_555
C21O N4O 1_555 1_555
H23O C21O 1_555 1_555
H24O C21O 1_555 1_555
H25O C21O 1_555 1_555
C22O N4O 1_555 1_555
H26O C22O 1_555 1_555
H27O C22O 1_555 1_555
H28O C22O 1_555 1_555
O5P N7 1_555 1_555
C4 C5 1_555 1_555
C7 C8 1_555 1_555
C9 C10 1_555 1_555
C15 C16 1_555 1_555
C4O C5O 1_555 1_555
C7O C8O 1_555 1_555
C9O C10O 1_555 1_555
C13O C14O 1_555 1_555
C15O C16O 1_555 1_555
N3M C17M 1_555 1_555
N4S C20S 1_555 1_555
C4B C5B 1_555 1_555
C7B C8B 1_555 1_555
C9B C10B 1_555 1_555
C15B C16B 1_555 1_555
C4M C5M 1_555 1_555
C7M C8M 1_555 1_555
C9M C10M 1_555 1_555
C13M C14M 1_555 1_555
C15M C16M 1_555 1_555
N3O C17O 1_555 1_555
N4V C20V 1_555 1_555
C4E C5E 1_555 1_555
C7E C8E 1_555 1_555
C9E C10E 1_555 1_555
C15E C16E 1_555 1_555
C4V C5V 1_555 1_555
C7V C8V 1_555 1_555
C9V C10V 1_555 1_555
C13V C14V 1_555 1_555
C15V C16V 1_555 1_555
N3P C17P 1_555 1_555
N4U C20U 1_555 1_555
C4F C5F 1_555 1_555
C7F C8F 1_555 1_555
C9F C10F 1_555 1_555
C15F C16F 1_555 1_555
C4U C5U 1_555 1_555
C7U C8U 1_555 1_555
C9U C10U 1_555 1_555
C13U C14U 1_555 1_555
C15U C16U 1_555 1_555
N3S C17S 1_555 1_555
N4M C20M 1_555 1_555
C4H C5H 1_555 1_555
C7H C8H 1_555 1_555
C9H C10H 1_555 1_555
C15H C16H 1_555 1_555
C4S C5S 1_555 1_555
C7S C8S 1_555 1_555
C9S C10S 1_555 1_555
C13S C14S 1_555 1_555
C15S C16S 1_555 1_555
N3U C17U 1_555 1_555
N4P C20P 1_555 1_555
C4K C5K 1_555 1_555
C7K C8K 1_555 1_555
C9K C10K 1_555 1_555
C15K C16K 1_555 1_555
C4P C5P 1_555 1_555
C7P C8P 1_555 1_555
C9P C10P 1_555 1_555
C13P C14P 1_555 1_555
C15P C16P 1_555 1_555
N3V C17V 1_555 1_555
N4O C20O 1_555 1_555

#END
