# generated using pymatgen
data_H112Pd4C88N31O69
_symmetry_space_group_name_H-M   'P 1'
_cell_length_a   27.51900000
_cell_length_b   37.04800000
_cell_length_c   37.04800000
_cell_angle_alpha   120.00000000
_cell_angle_beta   90.00000000
_cell_angle_gamma   90.00000000
_symmetry_Int_Tables_number   1
_chemical_formula_structural   H112Pd4C88N31O69
_chemical_formula_sum   'H672 Pd24 C528 N186 O414'
_cell_volume   32710.92429280
_cell_formula_units_Z   6
loop_
 _symmetry_equiv_pos_site_id
 _symmetry_equiv_pos_as_xyz
  1  'x, y, z'
loop_
 _atom_site_type_symbol
 _atom_site_label
 _atom_site_symmetry_multiplicity
 _atom_site_fract_x
 _atom_site_fract_y
 _atom_site_fract_z
 _atom_site_occupancy
  H  H1  1  0.188500  0.678200  0.899200  1.0
  H  H2  1  0.688500  0.321800  0.100800  1.0
  H  H3  1  0.311500  0.221000  0.899200  1.0
  H  H4  1  0.811500  0.779000  0.100800  1.0
  H  H5  1  0.811500  0.899200  0.678200  1.0
  H  H6  1  0.311500  0.100800  0.321800  1.0
  H  H7  1  0.311500  0.678200  0.779000  1.0
  H  H8  1  0.811500  0.321800  0.221000  1.0
  H  H9  1  0.188500  0.221000  0.321800  1.0
  H  H10  1  0.688500  0.779000  0.678200  1.0
  H  H11  1  0.688500  0.899200  0.221000  1.0
  H  H12  1  0.188500  0.100800  0.779000  1.0
  H  H13  1  0.811500  0.321800  0.100800  1.0
  H  H14  1  0.311500  0.678200  0.899200  1.0
  H  H15  1  0.688500  0.779000  0.100800  1.0
  H  H16  1  0.188500  0.221000  0.899200  1.0
  H  H17  1  0.188500  0.100800  0.321800  1.0
  H  H18  1  0.688500  0.899200  0.678200  1.0
  H  H19  1  0.688500  0.321800  0.221000  1.0
  H  H20  1  0.188500  0.678200  0.779000  1.0
  H  H21  1  0.811500  0.779000  0.678200  1.0
  H  H22  1  0.311500  0.221000  0.321800  1.0
  H  H23  1  0.311500  0.100800  0.779000  1.0
  H  H24  1  0.811500  0.899200  0.221000  1.0
  H  H25  1  0.127300  0.628900  0.870400  1.0
  H  H26  1  0.627300  0.371100  0.129600  1.0
  H  H27  1  0.372700  0.241500  0.870400  1.0
  H  H28  1  0.872700  0.758500  0.129600  1.0
  H  H29  1  0.872700  0.870400  0.628900  1.0
  H  H30  1  0.372700  0.129600  0.371100  1.0
  H  H31  1  0.372700  0.628900  0.758500  1.0
  H  H32  1  0.872700  0.371100  0.241500  1.0
  H  H33  1  0.127300  0.241500  0.371100  1.0
  H  H34  1  0.627300  0.758500  0.628900  1.0
  H  H35  1  0.627300  0.870400  0.241500  1.0
  H  H36  1  0.127300  0.129600  0.758500  1.0
  H  H37  1  0.872700  0.371100  0.129600  1.0
  H  H38  1  0.372700  0.628900  0.870400  1.0
  H  H39  1  0.627300  0.758500  0.129600  1.0
  H  H40  1  0.127300  0.241500  0.870400  1.0
  H  H41  1  0.127300  0.129600  0.371100  1.0
  H  H42  1  0.627300  0.870400  0.628900  1.0
  H  H43  1  0.627300  0.371100  0.241500  1.0
  H  H44  1  0.127300  0.628900  0.758500  1.0
  H  H45  1  0.872700  0.758500  0.628900  1.0
  H  H46  1  0.372700  0.241500  0.371100  1.0
  H  H47  1  0.372700  0.129600  0.758500  1.0
  H  H48  1  0.872700  0.870400  0.241500  1.0
  H  H49  1  0.140900  0.605300  0.964700  1.0
  H  H50  1  0.640900  0.394700  0.035300  1.0
  H  H51  1  0.359100  0.359400  0.964700  1.0
  H  H52  1  0.859100  0.640600  0.035300  1.0
  H  H53  1  0.859100  0.964700  0.605300  1.0
  H  H54  1  0.359100  0.035300  0.394700  1.0
  H  H55  1  0.359100  0.605300  0.640600  1.0
  H  H56  1  0.859100  0.394700  0.359400  1.0
  H  H57  1  0.140900  0.359400  0.394700  1.0
  H  H58  1  0.640900  0.640600  0.605300  1.0
  H  H59  1  0.640900  0.964700  0.359400  1.0
  H  H60  1  0.140900  0.035300  0.640600  1.0
  H  H61  1  0.859100  0.394700  0.035300  1.0
  H  H62  1  0.359100  0.605300  0.964700  1.0
  H  H63  1  0.640900  0.640600  0.035300  1.0
  H  H64  1  0.140900  0.359400  0.964700  1.0
  H  H65  1  0.140900  0.035300  0.394700  1.0
  H  H66  1  0.640900  0.964700  0.605300  1.0
  H  H67  1  0.640900  0.394700  0.359400  1.0
  H  H68  1  0.140900  0.605300  0.640600  1.0
  H  H69  1  0.859100  0.640600  0.605300  1.0
  H  H70  1  0.359100  0.359400  0.394700  1.0
  H  H71  1  0.359100  0.035300  0.640600  1.0
  H  H72  1  0.859100  0.964700  0.359400  1.0
  H  H73  1  0.199500  0.657100  0.993900  1.0
  H  H74  1  0.699500  0.342900  0.006100  1.0
  H  H75  1  0.300500  0.336800  0.993900  1.0
  H  H76  1  0.800500  0.663200  0.006100  1.0
  H  H77  1  0.800500  0.993900  0.657100  1.0
  H  H78  1  0.300500  0.006100  0.342900  1.0
  H  H79  1  0.300500  0.657100  0.663200  1.0
  H  H80  1  0.800500  0.342900  0.336800  1.0
  H  H81  1  0.199500  0.336800  0.342900  1.0
  H  H82  1  0.699500  0.663200  0.657100  1.0
  H  H83  1  0.699500  0.993900  0.336800  1.0
  H  H84  1  0.199500  0.006100  0.663200  1.0
  H  H85  1  0.800500  0.342900  0.006100  1.0
  H  H86  1  0.300500  0.657100  0.993900  1.0
  H  H87  1  0.699500  0.663200  0.006100  1.0
  H  H88  1  0.199500  0.336800  0.993900  1.0
  H  H89  1  0.199500  0.006100  0.342900  1.0
  H  H90  1  0.699500  0.993900  0.657100  1.0
  H  H91  1  0.699500  0.342900  0.336800  1.0
  H  H92  1  0.199500  0.657100  0.663200  1.0
  H  H93  1  0.800500  0.663200  0.657100  1.0
  H  H94  1  0.300500  0.336800  0.342900  1.0
  H  H95  1  0.300500  0.006100  0.663200  1.0
  H  H96  1  0.800500  0.993900  0.336800  1.0
  H  H97  1  0.973500  0.529000  0.805800  1.0
  H  H98  1  0.473500  0.471000  0.194200  1.0
  H  H99  1  0.526500  0.276800  0.805800  1.0
  H  H100  1  0.026500  0.723200  0.194200  1.0
  H  H101  1  0.026500  0.805800  0.529000  1.0
  H  H102  1  0.526500  0.194200  0.471000  1.0
  H  H103  1  0.526500  0.529000  0.723200  1.0
  H  H104  1  0.026500  0.471000  0.276800  1.0
  H  H105  1  0.973500  0.276800  0.471000  1.0
  H  H106  1  0.473500  0.723200  0.529000  1.0
  H  H107  1  0.473500  0.805800  0.276800  1.0
  H  H108  1  0.973500  0.194200  0.723200  1.0
  H  H109  1  0.026500  0.471000  0.194200  1.0
  H  H110  1  0.526500  0.529000  0.805800  1.0
  H  H111  1  0.473500  0.723200  0.194200  1.0
  H  H112  1  0.973500  0.276800  0.805800  1.0
  H  H113  1  0.973500  0.194200  0.471000  1.0
  H  H114  1  0.473500  0.805800  0.529000  1.0
  H  H115  1  0.473500  0.471000  0.276800  1.0
  H  H116  1  0.973500  0.529000  0.723200  1.0
  H  H117  1  0.026500  0.723200  0.529000  1.0
  H  H118  1  0.526500  0.276800  0.471000  1.0
  H  H119  1  0.526500  0.194200  0.723200  1.0
  H  H120  1  0.026500  0.805800  0.276800  1.0
  H  H121  1  0.037900  0.524300  0.841700  1.0
  H  H122  1  0.537900  0.475700  0.158300  1.0
  H  H123  1  0.462100  0.317400  0.841700  1.0
  H  H124  1  0.962100  0.682600  0.158300  1.0
  H  H125  1  0.962100  0.841700  0.524300  1.0
  H  H126  1  0.462100  0.158300  0.475700  1.0
  H  H127  1  0.462100  0.524300  0.682600  1.0
  H  H128  1  0.962100  0.475700  0.317400  1.0
  H  H129  1  0.037900  0.317400  0.475700  1.0
  H  H130  1  0.537900  0.682600  0.524300  1.0
  H  H131  1  0.537900  0.841700  0.317400  1.0
  H  H132  1  0.037900  0.158300  0.682600  1.0
  H  H133  1  0.962100  0.475700  0.158300  1.0
  H  H134  1  0.462100  0.524300  0.841700  1.0
  H  H135  1  0.537900  0.682600  0.158300  1.0
  H  H136  1  0.037900  0.317400  0.841700  1.0
  H  H137  1  0.037900  0.158300  0.475700  1.0
  H  H138  1  0.537900  0.841700  0.524300  1.0
  H  H139  1  0.537900  0.475700  0.317400  1.0
  H  H140  1  0.037900  0.524300  0.682600  1.0
  H  H141  1  0.962100  0.682600  0.524300  1.0
  H  H142  1  0.462100  0.317400  0.475700  1.0
  H  H143  1  0.462100  0.158300  0.682600  1.0
  H  H144  1  0.962100  0.841700  0.317400  1.0
  H  H145  1  0.047600  0.649600  0.905300  1.0
  H  H146  1  0.547600  0.350400  0.094700  1.0
  H  H147  1  0.452400  0.255700  0.905300  1.0
  H  H148  1  0.952400  0.744300  0.094700  1.0
  H  H149  1  0.952400  0.905300  0.649600  1.0
  H  H150  1  0.452400  0.094700  0.350400  1.0
  H  H151  1  0.452400  0.649600  0.744300  1.0
  H  H152  1  0.952400  0.350400  0.255700  1.0
  H  H153  1  0.047600  0.255700  0.350400  1.0
  H  H154  1  0.547600  0.744300  0.649600  1.0
  H  H155  1  0.547600  0.905300  0.255700  1.0
  H  H156  1  0.047600  0.094700  0.744300  1.0
  H  H157  1  0.952400  0.350400  0.094700  1.0
  H  H158  1  0.452400  0.649600  0.905300  1.0
  H  H159  1  0.547600  0.744300  0.094700  1.0
  H  H160  1  0.047600  0.255700  0.905300  1.0
  H  H161  1  0.047600  0.094700  0.350400  1.0
  H  H162  1  0.547600  0.905300  0.649600  1.0
  H  H163  1  0.547600  0.350400  0.255700  1.0
  H  H164  1  0.047600  0.649600  0.744300  1.0
  H  H165  1  0.952400  0.744300  0.649600  1.0
  H  H166  1  0.452400  0.255700  0.350400  1.0
  H  H167  1  0.452400  0.094700  0.744300  1.0
  H  H168  1  0.952400  0.905300  0.255700  1.0
  H  H169  1  0.983800  0.654200  0.868800  1.0
  H  H170  1  0.483800  0.345800  0.131200  1.0
  H  H171  1  0.516200  0.214600  0.868800  1.0
  H  H172  1  0.016200  0.785400  0.131200  1.0
  H  H173  1  0.016200  0.868800  0.654200  1.0
  H  H174  1  0.516200  0.131200  0.345800  1.0
  H  H175  1  0.516200  0.654200  0.785400  1.0
  H  H176  1  0.016200  0.345800  0.214600  1.0
  H  H177  1  0.983800  0.214600  0.345800  1.0
  H  H178  1  0.483800  0.785400  0.654200  1.0
  H  H179  1  0.483800  0.868800  0.214600  1.0
  H  H180  1  0.983800  0.131200  0.785400  1.0
  H  H181  1  0.016200  0.345800  0.131200  1.0
  H  H182  1  0.516200  0.654200  0.868800  1.0
  H  H183  1  0.483800  0.785400  0.131200  1.0
  H  H184  1  0.983800  0.214600  0.868800  1.0
  H  H185  1  0.983800  0.131200  0.345800  1.0
  H  H186  1  0.483800  0.868800  0.654200  1.0
  H  H187  1  0.483800  0.345800  0.214600  1.0
  H  H188  1  0.983800  0.654200  0.785400  1.0
  H  H189  1  0.016200  0.785400  0.654200  1.0
  H  H190  1  0.516200  0.214600  0.345800  1.0
  H  H191  1  0.516200  0.131200  0.785400  1.0
  H  H192  1  0.016200  0.868800  0.214600  1.0
  H  H193  1  0.034700  0.556800  0.936200  1.0
  H  H194  1  0.534700  0.443200  0.063800  1.0
  H  H195  1  0.465300  0.379400  0.936200  1.0
  H  H196  1  0.965300  0.620600  0.063800  1.0
  H  H197  1  0.965300  0.936200  0.556800  1.0
  H  H198  1  0.465300  0.063800  0.443200  1.0
  H  H199  1  0.465300  0.556800  0.620600  1.0
  H  H200  1  0.965300  0.443200  0.379400  1.0
  H  H201  1  0.034700  0.379400  0.443200  1.0
  H  H202  1  0.534700  0.620600  0.556800  1.0
  H  H203  1  0.534700  0.936200  0.379400  1.0
  H  H204  1  0.034700  0.063800  0.620600  1.0
  H  H205  1  0.965300  0.443200  0.063800  1.0
  H  H206  1  0.465300  0.556800  0.936200  1.0
  H  H207  1  0.534700  0.620600  0.063800  1.0
  H  H208  1  0.034700  0.379400  0.936200  1.0
  H  H209  1  0.034700  0.063800  0.443200  1.0
  H  H210  1  0.534700  0.936200  0.556800  1.0
  H  H211  1  0.534700  0.443200  0.379400  1.0
  H  H212  1  0.034700  0.556800  0.620600  1.0
  H  H213  1  0.965300  0.620600  0.556800  1.0
  H  H214  1  0.465300  0.379400  0.443200  1.0
  H  H215  1  0.465300  0.063800  0.620600  1.0
  H  H216  1  0.965300  0.936200  0.379400  1.0
  H  H217  1  0.036100  0.495800  0.939600  1.0
  H  H218  1  0.536100  0.504200  0.060400  1.0
  H  H219  1  0.463900  0.443800  0.939600  1.0
  H  H220  1  0.963900  0.556200  0.060400  1.0
  H  H221  1  0.963900  0.939600  0.495800  1.0
  H  H222  1  0.463900  0.060400  0.504200  1.0
  H  H223  1  0.463900  0.495800  0.556200  1.0
  H  H224  1  0.963900  0.504200  0.443800  1.0
  H  H225  1  0.036100  0.443800  0.504200  1.0
  H  H226  1  0.536100  0.556200  0.495800  1.0
  H  H227  1  0.536100  0.939600  0.443800  1.0
  H  H228  1  0.036100  0.060400  0.556200  1.0
  H  H229  1  0.963900  0.504200  0.060400  1.0
  H  H230  1  0.463900  0.495800  0.939600  1.0
  H  H231  1  0.536100  0.556200  0.060400  1.0
  H  H232  1  0.036100  0.443800  0.939600  1.0
  H  H233  1  0.036100  0.060400  0.504200  1.0
  H  H234  1  0.536100  0.939600  0.495800  1.0
  H  H235  1  0.536100  0.504200  0.443800  1.0
  H  H236  1  0.036100  0.495800  0.556200  1.0
  H  H237  1  0.963900  0.556200  0.495800  1.0
  H  H238  1  0.463900  0.443800  0.504200  1.0
  H  H239  1  0.463900  0.060400  0.556200  1.0
  H  H240  1  0.963900  0.939600  0.443800  1.0
  H  H241  1  0.159600  0.466000  0.875300  1.0
  H  H242  1  0.659600  0.534000  0.124700  1.0
  H  H243  1  0.340400  0.409300  0.875300  1.0
  H  H244  1  0.840400  0.590700  0.124700  1.0
  H  H245  1  0.840400  0.875300  0.466000  1.0
  H  H246  1  0.340400  0.124700  0.534000  1.0
  H  H247  1  0.340400  0.466000  0.590700  1.0
  H  H248  1  0.840400  0.534000  0.409300  1.0
  H  H249  1  0.159600  0.409300  0.534000  1.0
  H  H250  1  0.659600  0.590700  0.466000  1.0
  H  H251  1  0.659600  0.875300  0.409300  1.0
  H  H252  1  0.159600  0.124700  0.590700  1.0
  H  H253  1  0.840400  0.534000  0.124700  1.0
  H  H254  1  0.340400  0.466000  0.875300  1.0
  H  H255  1  0.659600  0.590700  0.124700  1.0
  H  H256  1  0.159600  0.409300  0.875300  1.0
  H  H257  1  0.159600  0.124700  0.534000  1.0
  H  H258  1  0.659600  0.875300  0.466000  1.0
  H  H259  1  0.659600  0.534000  0.409300  1.0
  H  H260  1  0.159600  0.466000  0.590700  1.0
  H  H261  1  0.840400  0.590700  0.466000  1.0
  H  H262  1  0.340400  0.409300  0.534000  1.0
  H  H263  1  0.340400  0.124700  0.590700  1.0
  H  H264  1  0.840400  0.875300  0.409300  1.0
  H  H265  1  0.158100  0.527300  0.872700  1.0
  H  H266  1  0.658100  0.472700  0.127300  1.0
  H  H267  1  0.341900  0.345400  0.872700  1.0
  H  H268  1  0.841900  0.654600  0.127300  1.0
  H  H269  1  0.841900  0.872700  0.527300  1.0
  H  H270  1  0.341900  0.127300  0.472700  1.0
  H  H271  1  0.341900  0.527300  0.654600  1.0
  H  H272  1  0.841900  0.472700  0.345400  1.0
  H  H273  1  0.158100  0.345400  0.472700  1.0
  H  H274  1  0.658100  0.654600  0.527300  1.0
  H  H275  1  0.658100  0.872700  0.345400  1.0
  H  H276  1  0.158100  0.127300  0.654600  1.0
  H  H277  1  0.841900  0.472700  0.127300  1.0
  H  H278  1  0.341900  0.527300  0.872700  1.0
  H  H279  1  0.658100  0.654600  0.127300  1.0
  H  H280  1  0.158100  0.345400  0.872700  1.0
  H  H281  1  0.158100  0.127300  0.472700  1.0
  H  H282  1  0.658100  0.872700  0.527300  1.0
  H  H283  1  0.658100  0.472700  0.345400  1.0
  H  H284  1  0.158100  0.527300  0.654600  1.0
  H  H285  1  0.841900  0.654600  0.527300  1.0
  H  H286  1  0.341900  0.345400  0.472700  1.0
  H  H287  1  0.341900  0.127300  0.654600  1.0
  H  H288  1  0.841900  0.872700  0.345400  1.0
  H  H289  1  0.287400  0.821900  0.022900  1.0
  H  H290  1  0.787400  0.178100  0.977100  1.0
  H  H291  1  0.212600  0.201000  0.022900  1.0
  H  H292  1  0.712600  0.799000  0.977100  1.0
  H  H293  1  0.712600  0.022900  0.821900  1.0
  H  H294  1  0.212600  0.977100  0.178100  1.0
  H  H295  1  0.212600  0.821900  0.799000  1.0
  H  H296  1  0.712600  0.178100  0.201000  1.0
  H  H297  1  0.287400  0.201000  0.178100  1.0
  H  H298  1  0.787400  0.799000  0.821900  1.0
  H  H299  1  0.787400  0.022900  0.201000  1.0
  H  H300  1  0.287400  0.977100  0.799000  1.0
  H  H301  1  0.712600  0.178100  0.977100  1.0
  H  H302  1  0.212600  0.821900  0.022900  1.0
  H  H303  1  0.787400  0.799000  0.977100  1.0
  H  H304  1  0.287400  0.201000  0.022900  1.0
  H  H305  1  0.287400  0.977100  0.178100  1.0
  H  H306  1  0.787400  0.022900  0.821900  1.0
  H  H307  1  0.787400  0.178100  0.201000  1.0
  H  H308  1  0.287400  0.821900  0.799000  1.0
  H  H309  1  0.712600  0.799000  0.821900  1.0
  H  H310  1  0.212600  0.201000  0.178100  1.0
  H  H311  1  0.212600  0.977100  0.799000  1.0
  H  H312  1  0.712600  0.022900  0.201000  1.0
  H  H313  1  0.287400  0.811600  0.059800  1.0
  H  H314  1  0.787400  0.188400  0.940200  1.0
  H  H315  1  0.212600  0.248200  0.059800  1.0
  H  H316  1  0.712600  0.751800  0.940200  1.0
  H  H317  1  0.712600  0.059800  0.811600  1.0
  H  H318  1  0.212600  0.940200  0.188400  1.0
  H  H319  1  0.212600  0.811600  0.751800  1.0
  H  H320  1  0.712600  0.188400  0.248200  1.0
  H  H321  1  0.287400  0.248200  0.188400  1.0
  H  H322  1  0.787400  0.751800  0.811600  1.0
  H  H323  1  0.787400  0.059800  0.248200  1.0
  H  H324  1  0.287400  0.940200  0.751800  1.0
  H  H325  1  0.712600  0.188400  0.940200  1.0
  H  H326  1  0.212600  0.811600  0.059800  1.0
  H  H327  1  0.787400  0.751800  0.940200  1.0
  H  H328  1  0.287400  0.248200  0.059800  1.0
  H  H329  1  0.287400  0.940200  0.188400  1.0
  H  H330  1  0.787400  0.059800  0.811600  1.0
  H  H331  1  0.787400  0.188400  0.248200  1.0
  H  H332  1  0.287400  0.811600  0.751800  1.0
  H  H333  1  0.712600  0.751800  0.811600  1.0
  H  H334  1  0.212600  0.248200  0.188400  1.0
  H  H335  1  0.212600  0.940200  0.751800  1.0
  H  H336  1  0.712600  0.059800  0.248200  1.0
  H  H337  1  0.348800  0.742300  0.955800  1.0
  H  H338  1  0.848800  0.257700  0.044200  1.0
  H  H339  1  0.151200  0.213500  0.955800  1.0
  H  H340  1  0.651200  0.786500  0.044200  1.0
  H  H341  1  0.651200  0.955800  0.742300  1.0
  H  H342  1  0.151200  0.044200  0.257700  1.0
  H  H343  1  0.151200  0.742300  0.786500  1.0
  H  H344  1  0.651200  0.257700  0.213500  1.0
  H  H345  1  0.348800  0.213500  0.257700  1.0
  H  H346  1  0.848800  0.786500  0.742300  1.0
  H  H347  1  0.848800  0.955800  0.213500  1.0
  H  H348  1  0.348800  0.044200  0.786500  1.0
  H  H349  1  0.651200  0.257700  0.044200  1.0
  H  H350  1  0.151200  0.742300  0.955800  1.0
  H  H351  1  0.848800  0.786500  0.044200  1.0
  H  H352  1  0.348800  0.213500  0.955800  1.0
  H  H353  1  0.348800  0.044200  0.257700  1.0
  H  H354  1  0.848800  0.955800  0.742300  1.0
  H  H355  1  0.848800  0.257700  0.213500  1.0
  H  H356  1  0.348800  0.742300  0.786500  1.0
  H  H357  1  0.651200  0.786500  0.742300  1.0
  H  H358  1  0.151200  0.213500  0.257700  1.0
  H  H359  1  0.151200  0.044200  0.786500  1.0
  H  H360  1  0.651200  0.955800  0.213500  1.0
  H  H361  1  0.310900  0.775600  0.956900  1.0
  H  H362  1  0.810900  0.224400  0.043100  1.0
  H  H363  1  0.189100  0.181300  0.956900  1.0
  H  H364  1  0.689100  0.818700  0.043100  1.0
  H  H365  1  0.689100  0.956900  0.775600  1.0
  H  H366  1  0.189100  0.043100  0.224400  1.0
  H  H367  1  0.189100  0.775600  0.818700  1.0
  H  H368  1  0.689100  0.224400  0.181300  1.0
  H  H369  1  0.310900  0.181300  0.224400  1.0
  H  H370  1  0.810900  0.818700  0.775600  1.0
  H  H371  1  0.810900  0.956900  0.181300  1.0
  H  H372  1  0.310900  0.043100  0.818700  1.0
  H  H373  1  0.689100  0.224400  0.043100  1.0
  H  H374  1  0.189100  0.775600  0.956900  1.0
  H  H375  1  0.810900  0.818700  0.043100  1.0
  H  H376  1  0.310900  0.181300  0.956900  1.0
  H  H377  1  0.310900  0.043100  0.224400  1.0
  H  H378  1  0.810900  0.956900  0.775600  1.0
  H  H379  1  0.810900  0.224400  0.181300  1.0
  H  H380  1  0.310900  0.775600  0.818700  1.0
  H  H381  1  0.689100  0.818700  0.775600  1.0
  H  H382  1  0.189100  0.181300  0.224400  1.0
  H  H383  1  0.189100  0.043100  0.818700  1.0
  H  H384  1  0.689100  0.956900  0.181300  1.0
  H  H385  1  0.355500  0.790700  0.988800  1.0
  H  H386  1  0.855500  0.209300  0.011200  1.0
  H  H387  1  0.144500  0.198100  0.988800  1.0
  H  H388  1  0.644500  0.801900  0.011200  1.0
  H  H389  1  0.644500  0.988800  0.790700  1.0
  H  H390  1  0.144500  0.011200  0.209300  1.0
  H  H391  1  0.144500  0.790700  0.801900  1.0
  H  H392  1  0.644500  0.209300  0.198100  1.0
  H  H393  1  0.355500  0.198100  0.209300  1.0
  H  H394  1  0.855500  0.801900  0.790700  1.0
  H  H395  1  0.855500  0.988800  0.198100  1.0
  H  H396  1  0.355500  0.011200  0.801900  1.0
  H  H397  1  0.644500  0.209300  0.011200  1.0
  H  H398  1  0.144500  0.790700  0.988800  1.0
  H  H399  1  0.855500  0.801900  0.011200  1.0
  H  H400  1  0.355500  0.198100  0.988800  1.0
  H  H401  1  0.355500  0.011200  0.209300  1.0
  H  H402  1  0.855500  0.988800  0.790700  1.0
  H  H403  1  0.855500  0.209300  0.198100  1.0
  H  H404  1  0.355500  0.790700  0.801900  1.0
  H  H405  1  0.644500  0.801900  0.790700  1.0
  H  H406  1  0.144500  0.198100  0.209300  1.0
  H  H407  1  0.144500  0.011200  0.801900  1.0
  H  H408  1  0.644500  0.988800  0.198100  1.0
  H  H409  1  0.351400  0.733600  0.018600  1.0
  H  H410  1  0.851400  0.266400  0.981400  1.0
  H  H411  1  0.148600  0.285000  0.018600  1.0
  H  H412  1  0.648600  0.715000  0.981400  1.0
  H  H413  1  0.648600  0.018600  0.733600  1.0
  H  H414  1  0.148600  0.981400  0.266400  1.0
  H  H415  1  0.148600  0.733600  0.715000  1.0
  H  H416  1  0.648600  0.266400  0.285000  1.0
  H  H417  1  0.351400  0.285000  0.266400  1.0
  H  H418  1  0.851400  0.715000  0.733600  1.0
  H  H419  1  0.851400  0.018600  0.285000  1.0
  H  H420  1  0.351400  0.981400  0.715000  1.0
  H  H421  1  0.648600  0.266400  0.981400  1.0
  H  H422  1  0.148600  0.733600  0.018600  1.0
  H  H423  1  0.851400  0.715000  0.981400  1.0
  H  H424  1  0.351400  0.285000  0.018600  1.0
  H  H425  1  0.351400  0.981400  0.266400  1.0
  H  H426  1  0.851400  0.018600  0.733600  1.0
  H  H427  1  0.851400  0.266400  0.285000  1.0
  H  H428  1  0.351400  0.733600  0.715000  1.0
  H  H429  1  0.648600  0.715000  0.733600  1.0
  H  H430  1  0.148600  0.285000  0.266400  1.0
  H  H431  1  0.148600  0.981400  0.715000  1.0
  H  H432  1  0.648600  0.018600  0.285000  1.0
  H  H433  1  0.354500  0.783300  0.046600  1.0
  H  H434  1  0.854500  0.216700  0.953400  1.0
  H  H435  1  0.145500  0.263300  0.046600  1.0
  H  H436  1  0.645500  0.736700  0.953400  1.0
  H  H437  1  0.645500  0.046600  0.783300  1.0
  H  H438  1  0.145500  0.953400  0.216700  1.0
  H  H439  1  0.145500  0.783300  0.736700  1.0
  H  H440  1  0.645500  0.216700  0.263300  1.0
  H  H441  1  0.354500  0.263300  0.216700  1.0
  H  H442  1  0.854500  0.736700  0.783300  1.0
  H  H443  1  0.854500  0.046600  0.263300  1.0
  H  H444  1  0.354500  0.953400  0.736700  1.0
  H  H445  1  0.645500  0.216700  0.953400  1.0
  H  H446  1  0.145500  0.783300  0.046600  1.0
  H  H447  1  0.854500  0.736700  0.953400  1.0
  H  H448  1  0.354500  0.263300  0.046600  1.0
  H  H449  1  0.354500  0.953400  0.216700  1.0
  H  H450  1  0.854500  0.046600  0.783300  1.0
  H  H451  1  0.854500  0.216700  0.263300  1.0
  H  H452  1  0.354500  0.783300  0.736700  1.0
  H  H453  1  0.645500  0.736700  0.783300  1.0
  H  H454  1  0.145500  0.263300  0.216700  1.0
  H  H455  1  0.145500  0.953400  0.736700  1.0
  H  H456  1  0.645500  0.046600  0.263300  1.0
  H  H457  1  0.312900  0.758400  0.055200  1.0
  H  H458  1  0.812900  0.241600  0.944800  1.0
  H  H459  1  0.187100  0.296800  0.055200  1.0
  H  H460  1  0.687100  0.703200  0.944800  1.0
  H  H461  1  0.687100  0.055200  0.758400  1.0
  H  H462  1  0.187100  0.944800  0.241600  1.0
  H  H463  1  0.187100  0.758400  0.703200  1.0
  H  H464  1  0.687100  0.241600  0.296800  1.0
  H  H465  1  0.312900  0.296800  0.241600  1.0
  H  H466  1  0.812900  0.703200  0.758400  1.0
  H  H467  1  0.812900  0.055200  0.296800  1.0
  H  H468  1  0.312900  0.944800  0.703200  1.0
  H  H469  1  0.687100  0.241600  0.944800  1.0
  H  H470  1  0.187100  0.758400  0.055200  1.0
  H  H471  1  0.812900  0.703200  0.944800  1.0
  H  H472  1  0.312900  0.296800  0.055200  1.0
  H  H473  1  0.312900  0.944800  0.241600  1.0
  H  H474  1  0.812900  0.055200  0.758400  1.0
  H  H475  1  0.812900  0.241600  0.296800  1.0
  H  H476  1  0.312900  0.758400  0.703200  1.0
  H  H477  1  0.687100  0.703200  0.758400  1.0
  H  H478  1  0.187100  0.296800  0.241600  1.0
  H  H479  1  0.187100  0.944800  0.703200  1.0
  H  H480  1  0.687100  0.055200  0.296800  1.0
  H  H481  1  0.792900  0.592100  0.768400  1.0
  H  H482  1  0.292900  0.407900  0.231600  1.0
  H  H483  1  0.707100  0.176300  0.768400  1.0
  H  H484  1  0.207100  0.823700  0.231600  1.0
  H  H485  1  0.207100  0.768400  0.592100  1.0
  H  H486  1  0.707100  0.231600  0.407900  1.0
  H  H487  1  0.707100  0.592100  0.823700  1.0
  H  H488  1  0.207100  0.407900  0.176300  1.0
  H  H489  1  0.792900  0.176300  0.407900  1.0
  H  H490  1  0.292900  0.823700  0.592100  1.0
  H  H491  1  0.292900  0.768400  0.176300  1.0
  H  H492  1  0.792900  0.231600  0.823700  1.0
  H  H493  1  0.207100  0.407900  0.231600  1.0
  H  H494  1  0.707100  0.592100  0.768400  1.0
  H  H495  1  0.292900  0.823700  0.231600  1.0
  H  H496  1  0.792900  0.176300  0.768400  1.0
  H  H497  1  0.792900  0.231600  0.407900  1.0
  H  H498  1  0.292900  0.768400  0.592100  1.0
  H  H499  1  0.292900  0.407900  0.176300  1.0
  H  H500  1  0.792900  0.592100  0.823700  1.0
  H  H501  1  0.207100  0.823700  0.592100  1.0
  H  H502  1  0.707100  0.176300  0.407900  1.0
  H  H503  1  0.707100  0.231600  0.823700  1.0
  H  H504  1  0.207100  0.768400  0.176300  1.0
  H  H505  1  0.811700  0.639000  0.791800  1.0
  H  H506  1  0.311700  0.361000  0.208200  1.0
  H  H507  1  0.688300  0.152800  0.791800  1.0
  H  H508  1  0.188300  0.847200  0.208200  1.0
  H  H509  1  0.188300  0.791800  0.639000  1.0
  H  H510  1  0.688300  0.208200  0.361000  1.0
  H  H511  1  0.688300  0.639000  0.847200  1.0
  H  H512  1  0.188300  0.361000  0.152800  1.0
  H  H513  1  0.811700  0.152800  0.361000  1.0
  H  H514  1  0.311700  0.847200  0.639000  1.0
  H  H515  1  0.311700  0.791800  0.152800  1.0
  H  H516  1  0.811700  0.208200  0.847200  1.0
  H  H517  1  0.188300  0.361000  0.208200  1.0
  H  H518  1  0.688300  0.639000  0.791800  1.0
  H  H519  1  0.311700  0.847200  0.208200  1.0
  H  H520  1  0.811700  0.152800  0.791800  1.0
  H  H521  1  0.811700  0.208200  0.361000  1.0
  H  H522  1  0.311700  0.791800  0.639000  1.0
  H  H523  1  0.311700  0.361000  0.152800  1.0
  H  H524  1  0.811700  0.639000  0.847200  1.0
  H  H525  1  0.188300  0.847200  0.639000  1.0
  H  H526  1  0.688300  0.152800  0.361000  1.0
  H  H527  1  0.688300  0.208200  0.847200  1.0
  H  H528  1  0.188300  0.791800  0.152800  1.0
  H  H529  1  0.894400  0.638100  0.747600  1.0
  H  H530  1  0.394400  0.361900  0.252400  1.0
  H  H531  1  0.605600  0.109500  0.747600  1.0
  H  H532  1  0.105600  0.890500  0.252400  1.0
  H  H533  1  0.105600  0.747600  0.638100  1.0
  H  H534  1  0.605600  0.252400  0.361900  1.0
  H  H535  1  0.605600  0.638100  0.890500  1.0
  H  H536  1  0.105600  0.361900  0.109500  1.0
  H  H537  1  0.894400  0.109500  0.361900  1.0
  H  H538  1  0.394400  0.890500  0.638100  1.0
  H  H539  1  0.394400  0.747600  0.109500  1.0
  H  H540  1  0.894400  0.252400  0.890500  1.0
  H  H541  1  0.105600  0.361900  0.252400  1.0
  H  H542  1  0.605600  0.638100  0.747600  1.0
  H  H543  1  0.394400  0.890500  0.252400  1.0
  H  H544  1  0.894400  0.109500  0.747600  1.0
  H  H545  1  0.894400  0.252400  0.361900  1.0
  H  H546  1  0.394400  0.747600  0.638100  1.0
  H  H547  1  0.394400  0.361900  0.109500  1.0
  H  H548  1  0.894400  0.638100  0.890500  1.0
  H  H549  1  0.105600  0.890500  0.638100  1.0
  H  H550  1  0.605600  0.109500  0.361900  1.0
  H  H551  1  0.605600  0.252400  0.890500  1.0
  H  H552  1  0.105600  0.747600  0.109500  1.0
  H  H553  1  0.836400  0.641800  0.750900  1.0
  H  H554  1  0.336400  0.358200  0.249100  1.0
  H  H555  1  0.663600  0.109100  0.750900  1.0
  H  H556  1  0.163600  0.890900  0.249100  1.0
  H  H557  1  0.163600  0.750900  0.641800  1.0
  H  H558  1  0.663600  0.249100  0.358200  1.0
  H  H559  1  0.663600  0.641800  0.890900  1.0
  H  H560  1  0.163600  0.358200  0.109100  1.0
  H  H561  1  0.836400  0.109100  0.358200  1.0
  H  H562  1  0.336400  0.890900  0.641800  1.0
  H  H563  1  0.336400  0.750900  0.109100  1.0
  H  H564  1  0.836400  0.249100  0.890900  1.0
  H  H565  1  0.163600  0.358200  0.249100  1.0
  H  H566  1  0.663600  0.641800  0.750900  1.0
  H  H567  1  0.336400  0.890900  0.249100  1.0
  H  H568  1  0.836400  0.109100  0.750900  1.0
  H  H569  1  0.836400  0.249100  0.358200  1.0
  H  H570  1  0.336400  0.750900  0.641800  1.0
  H  H571  1  0.336400  0.358200  0.109100  1.0
  H  H572  1  0.836400  0.641800  0.890900  1.0
  H  H573  1  0.163600  0.890900  0.641800  1.0
  H  H574  1  0.663600  0.109100  0.358200  1.0
  H  H575  1  0.663600  0.249100  0.890900  1.0
  H  H576  1  0.163600  0.750900  0.109100  1.0
  H  H577  1  0.868600  0.659300  0.792300  1.0
  H  H578  1  0.368600  0.340700  0.207700  1.0
  H  H579  1  0.631400  0.133000  0.792300  1.0
  H  H580  1  0.131400  0.867000  0.207700  1.0
  H  H581  1  0.131400  0.792300  0.659300  1.0
  H  H582  1  0.631400  0.207700  0.340700  1.0
  H  H583  1  0.631400  0.659300  0.867000  1.0
  H  H584  1  0.131400  0.340700  0.133000  1.0
  H  H585  1  0.868600  0.133000  0.340700  1.0
  H  H586  1  0.368600  0.867000  0.659300  1.0
  H  H587  1  0.368600  0.792300  0.133000  1.0
  H  H588  1  0.868600  0.207700  0.867000  1.0
  H  H589  1  0.131400  0.340700  0.207700  1.0
  H  H590  1  0.631400  0.659300  0.792300  1.0
  H  H591  1  0.368600  0.867000  0.207700  1.0
  H  H592  1  0.868600  0.133000  0.792300  1.0
  H  H593  1  0.868600  0.207700  0.340700  1.0
  H  H594  1  0.368600  0.792300  0.659300  1.0
  H  H595  1  0.368600  0.340700  0.133000  1.0
  H  H596  1  0.868600  0.659300  0.867000  1.0
  H  H597  1  0.131400  0.867000  0.659300  1.0
  H  H598  1  0.631400  0.133000  0.340700  1.0
  H  H599  1  0.631400  0.207700  0.867000  1.0
  H  H600  1  0.131400  0.792300  0.133000  1.0
  H  H601  1  0.858200  0.535700  0.726800  1.0
  H  H602  1  0.358200  0.464300  0.273200  1.0
  H  H603  1  0.641800  0.191100  0.726800  1.0
  H  H604  1  0.141800  0.808900  0.273200  1.0
  H  H605  1  0.141800  0.726800  0.535700  1.0
  H  H606  1  0.641800  0.273200  0.464300  1.0
  H  H607  1  0.641800  0.535700  0.808900  1.0
  H  H608  1  0.141800  0.464300  0.191100  1.0
  H  H609  1  0.858200  0.191100  0.464300  1.0
  H  H610  1  0.358200  0.808900  0.535700  1.0
  H  H611  1  0.358200  0.726800  0.191100  1.0
  H  H612  1  0.858200  0.273200  0.808900  1.0
  H  H613  1  0.141800  0.464300  0.273200  1.0
  H  H614  1  0.641800  0.535700  0.726800  1.0
  H  H615  1  0.358200  0.808900  0.273200  1.0
  H  H616  1  0.858200  0.191100  0.726800  1.0
  H  H617  1  0.858200  0.273200  0.464300  1.0
  H  H618  1  0.358200  0.726800  0.535700  1.0
  H  H619  1  0.358200  0.464300  0.191100  1.0
  H  H620  1  0.858200  0.535700  0.808900  1.0
  H  H621  1  0.141800  0.808900  0.535700  1.0
  H  H622  1  0.641800  0.191100  0.464300  1.0
  H  H623  1  0.641800  0.273200  0.808900  1.0
  H  H624  1  0.141800  0.726800  0.191100  1.0
  H  H625  1  0.830000  0.559500  0.707000  1.0
  H  H626  1  0.330000  0.440500  0.293000  1.0
  H  H627  1  0.670000  0.147500  0.707000  1.0
  H  H628  1  0.170000  0.852500  0.293000  1.0
  H  H629  1  0.170000  0.707000  0.559500  1.0
  H  H630  1  0.670000  0.293000  0.440500  1.0
  H  H631  1  0.670000  0.559500  0.852500  1.0
  H  H632  1  0.170000  0.440500  0.147500  1.0
  H  H633  1  0.830000  0.147500  0.440500  1.0
  H  H634  1  0.330000  0.852500  0.559500  1.0
  H  H635  1  0.330000  0.707000  0.147500  1.0
  H  H636  1  0.830000  0.293000  0.852500  1.0
  H  H637  1  0.170000  0.440500  0.293000  1.0
  H  H638  1  0.670000  0.559500  0.707000  1.0
  H  H639  1  0.330000  0.852500  0.293000  1.0
  H  H640  1  0.830000  0.147500  0.707000  1.0
  H  H641  1  0.830000  0.293000  0.440500  1.0
  H  H642  1  0.330000  0.707000  0.559500  1.0
  H  H643  1  0.330000  0.440500  0.147500  1.0
  H  H644  1  0.830000  0.559500  0.852500  1.0
  H  H645  1  0.170000  0.852500  0.559500  1.0
  H  H646  1  0.670000  0.147500  0.440500  1.0
  H  H647  1  0.670000  0.293000  0.852500  1.0
  H  H648  1  0.170000  0.707000  0.147500  1.0
  H  H649  1  0.888000  0.556100  0.704400  1.0
  H  H650  1  0.388000  0.443900  0.295600  1.0
  H  H651  1  0.612000  0.148300  0.704400  1.0
  H  H652  1  0.112000  0.851700  0.295600  1.0
  H  H653  1  0.112000  0.704400  0.556100  1.0
  H  H654  1  0.612000  0.295600  0.443900  1.0
  H  H655  1  0.612000  0.556100  0.851700  1.0
  H  H656  1  0.112000  0.443900  0.148300  1.0
  H  H657  1  0.888000  0.148300  0.443900  1.0
  H  H658  1  0.388000  0.851700  0.556100  1.0
  H  H659  1  0.388000  0.704400  0.148300  1.0
  H  H660  1  0.888000  0.295600  0.851700  1.0
  H  H661  1  0.112000  0.443900  0.295600  1.0
  H  H662  1  0.612000  0.556100  0.704400  1.0
  H  H663  1  0.388000  0.851700  0.295600  1.0
  H  H664  1  0.888000  0.148300  0.704400  1.0
  H  H665  1  0.888000  0.295600  0.443900  1.0
  H  H666  1  0.388000  0.704400  0.556100  1.0
  H  H667  1  0.388000  0.443900  0.148300  1.0
  H  H668  1  0.888000  0.556100  0.851700  1.0
  H  H669  1  0.112000  0.851700  0.556100  1.0
  H  H670  1  0.612000  0.148300  0.443900  1.0
  H  H671  1  0.612000  0.295600  0.851700  1.0
  H  H672  1  0.112000  0.704400  0.148300  1.0
  Pd  Pd673  1  0.250000  0.718060  0.976430  1.0
  Pd  Pd674  1  0.750000  0.281940  0.023570  1.0
  Pd  Pd675  1  0.250000  0.258370  0.976430  1.0
  Pd  Pd676  1  0.750000  0.741630  0.023570  1.0
  Pd  Pd677  1  0.750000  0.976430  0.718060  1.0
  Pd  Pd678  1  0.250000  0.023570  0.281940  1.0
  Pd  Pd679  1  0.250000  0.718060  0.741630  1.0
  Pd  Pd680  1  0.750000  0.281940  0.258370  1.0
  Pd  Pd681  1  0.250000  0.258370  0.281940  1.0
  Pd  Pd682  1  0.750000  0.741630  0.718060  1.0
  Pd  Pd683  1  0.750000  0.976430  0.258370  1.0
  Pd  Pd684  1  0.250000  0.023570  0.741630  1.0
  Pd  Pd685  1  0.918030  0.595280  0.797640  1.0
  Pd  Pd686  1  0.418030  0.404720  0.202360  1.0
  Pd  Pd687  1  0.581970  0.202360  0.797640  1.0
  Pd  Pd688  1  0.081970  0.797640  0.202360  1.0
  Pd  Pd689  1  0.081970  0.797640  0.595280  1.0
  Pd  Pd690  1  0.581970  0.202360  0.404720  1.0
  Pd  Pd691  1  0.581970  0.595280  0.797640  1.0
  Pd  Pd692  1  0.081970  0.404720  0.202360  1.0
  Pd  Pd693  1  0.918030  0.202360  0.404720  1.0
  Pd  Pd694  1  0.418030  0.797640  0.595280  1.0
  Pd  Pd695  1  0.418030  0.797640  0.202360  1.0
  Pd  Pd696  1  0.918030  0.202360  0.797640  1.0
  C  C697  1  0.178200  0.664100  0.913300  1.0
  C  C698  1  0.678200  0.335900  0.086700  1.0
  C  C699  1  0.321800  0.249200  0.913300  1.0
  C  C700  1  0.821800  0.750800  0.086700  1.0
  C  C701  1  0.821800  0.913300  0.664100  1.0
  C  C702  1  0.321800  0.086700  0.335900  1.0
  C  C703  1  0.321800  0.664100  0.750800  1.0
  C  C704  1  0.821800  0.335900  0.249200  1.0
  C  C705  1  0.178200  0.249200  0.335900  1.0
  C  C706  1  0.678200  0.750800  0.664100  1.0
  C  C707  1  0.678200  0.913300  0.249200  1.0
  C  C708  1  0.178200  0.086700  0.750800  1.0
  C  C709  1  0.821800  0.335900  0.086700  1.0
  C  C710  1  0.321800  0.664100  0.913300  1.0
  C  C711  1  0.678200  0.750800  0.086700  1.0
  C  C712  1  0.178200  0.249200  0.913300  1.0
  C  C713  1  0.178200  0.086700  0.335900  1.0
  C  C714  1  0.678200  0.913300  0.664100  1.0
  C  C715  1  0.678200  0.335900  0.249200  1.0
  C  C716  1  0.178200  0.664100  0.750800  1.0
  C  C717  1  0.821800  0.750800  0.664100  1.0
  C  C718  1  0.321800  0.249200  0.335900  1.0
  C  C719  1  0.321800  0.086700  0.750800  1.0
  C  C720  1  0.821800  0.913300  0.249200  1.0
  C  C721  1  0.141900  0.634600  0.896000  1.0
  C  C722  1  0.641900  0.365400  0.104000  1.0
  C  C723  1  0.358100  0.261400  0.896000  1.0
  C  C724  1  0.858100  0.738600  0.104000  1.0
  C  C725  1  0.858100  0.896000  0.634600  1.0
  C  C726  1  0.358100  0.104000  0.365400  1.0
  C  C727  1  0.358100  0.634600  0.738600  1.0
  C  C728  1  0.858100  0.365400  0.261400  1.0
  C  C729  1  0.141900  0.261400  0.365400  1.0
  C  C730  1  0.641900  0.738600  0.634600  1.0
  C  C731  1  0.641900  0.896000  0.261400  1.0
  C  C732  1  0.141900  0.104000  0.738600  1.0
  C  C733  1  0.858100  0.365400  0.104000  1.0
  C  C734  1  0.358100  0.634600  0.896000  1.0
  C  C735  1  0.641900  0.738600  0.104000  1.0
  C  C736  1  0.141900  0.261400  0.896000  1.0
  C  C737  1  0.141900  0.104000  0.365400  1.0
  C  C738  1  0.641900  0.896000  0.634600  1.0
  C  C739  1  0.641900  0.365400  0.261400  1.0
  C  C740  1  0.141900  0.634600  0.738600  1.0
  C  C741  1  0.858100  0.738600  0.634600  1.0
  C  C742  1  0.358100  0.261400  0.365400  1.0
  C  C743  1  0.358100  0.104000  0.738600  1.0
  C  C744  1  0.858100  0.896000  0.261400  1.0
  C  C745  1  0.126400  0.612900  0.916300  1.0
  C  C746  1  0.626400  0.387100  0.083700  1.0
  C  C747  1  0.373600  0.303400  0.916300  1.0
  C  C748  1  0.873600  0.696600  0.083700  1.0
  C  C749  1  0.873600  0.916300  0.612900  1.0
  C  C750  1  0.373600  0.083700  0.387100  1.0
  C  C751  1  0.373600  0.612900  0.696600  1.0
  C  C752  1  0.873600  0.387100  0.303400  1.0
  C  C753  1  0.126400  0.303400  0.387100  1.0
  C  C754  1  0.626400  0.696600  0.612900  1.0
  C  C755  1  0.626400  0.916300  0.303400  1.0
  C  C756  1  0.126400  0.083700  0.696600  1.0
  C  C757  1  0.873600  0.387100  0.083700  1.0
  C  C758  1  0.373600  0.612900  0.916300  1.0
  C  C759  1  0.626400  0.696600  0.083700  1.0
  C  C760  1  0.126400  0.303400  0.916300  1.0
  C  C761  1  0.126400  0.083700  0.387100  1.0
  C  C762  1  0.626400  0.916300  0.612900  1.0
  C  C763  1  0.626400  0.387100  0.303400  1.0
  C  C764  1  0.126400  0.612900  0.696600  1.0
  C  C765  1  0.873600  0.696600  0.612900  1.0
  C  C766  1  0.373600  0.303400  0.387100  1.0
  C  C767  1  0.373600  0.083700  0.696600  1.0
  C  C768  1  0.873600  0.916300  0.303400  1.0
  C  C769  1  0.149100  0.620700  0.951400  1.0
  C  C770  1  0.649100  0.379300  0.048600  1.0
  C  C771  1  0.350900  0.330700  0.951400  1.0
  C  C772  1  0.850900  0.669300  0.048600  1.0
  C  C773  1  0.850900  0.951400  0.620700  1.0
  C  C774  1  0.350900  0.048600  0.379300  1.0
  C  C775  1  0.350900  0.620700  0.669300  1.0
  C  C776  1  0.850900  0.379300  0.330700  1.0
  C  C777  1  0.149100  0.330700  0.379300  1.0
  C  C778  1  0.649100  0.669300  0.620700  1.0
  C  C779  1  0.649100  0.951400  0.330700  1.0
  C  C780  1  0.149100  0.048600  0.669300  1.0
  C  C781  1  0.850900  0.379300  0.048600  1.0
  C  C782  1  0.350900  0.620700  0.951400  1.0
  C  C783  1  0.649100  0.669300  0.048600  1.0
  C  C784  1  0.149100  0.330700  0.951400  1.0
  C  C785  1  0.149100  0.048600  0.379300  1.0
  C  C786  1  0.649100  0.951400  0.620700  1.0
  C  C787  1  0.649100  0.379300  0.330700  1.0
  C  C788  1  0.149100  0.620700  0.669300  1.0
  C  C789  1  0.850900  0.669300  0.620700  1.0
  C  C790  1  0.350900  0.330700  0.379300  1.0
  C  C791  1  0.350900  0.048600  0.669300  1.0
  C  C792  1  0.850900  0.951400  0.330700  1.0
  C  C793  1  0.184700  0.651300  0.968400  1.0
  C  C794  1  0.684700  0.348700  0.031600  1.0
  C  C795  1  0.315300  0.317100  0.968400  1.0
  C  C796  1  0.815300  0.682900  0.031600  1.0
  C  C797  1  0.815300  0.968400  0.651300  1.0
  C  C798  1  0.315300  0.031600  0.348700  1.0
  C  C799  1  0.315300  0.651300  0.682900  1.0
  C  C800  1  0.815300  0.348700  0.317100  1.0
  C  C801  1  0.184700  0.317100  0.348700  1.0
  C  C802  1  0.684700  0.682900  0.651300  1.0
  C  C803  1  0.684700  0.968400  0.317100  1.0
  C  C804  1  0.184700  0.031600  0.682900  1.0
  C  C805  1  0.815300  0.348700  0.031600  1.0
  C  C806  1  0.315300  0.651300  0.968400  1.0
  C  C807  1  0.684700  0.682900  0.031600  1.0
  C  C808  1  0.184700  0.317100  0.968400  1.0
  C  C809  1  0.184700  0.031600  0.348700  1.0
  C  C810  1  0.684700  0.968400  0.651300  1.0
  C  C811  1  0.684700  0.348700  0.317100  1.0
  C  C812  1  0.184700  0.651300  0.682900  1.0
  C  C813  1  0.815300  0.682900  0.651300  1.0
  C  C814  1  0.315300  0.317100  0.348700  1.0
  C  C815  1  0.315300  0.031600  0.682900  1.0
  C  C816  1  0.815300  0.968400  0.317100  1.0
  C  C817  1  0.989100  0.553900  0.825800  1.0
  C  C818  1  0.489100  0.446100  0.174200  1.0
  C  C819  1  0.510900  0.271900  0.825800  1.0
  C  C820  1  0.010900  0.728100  0.174200  1.0
  C  C821  1  0.010900  0.825800  0.553900  1.0
  C  C822  1  0.510900  0.174200  0.446100  1.0
  C  C823  1  0.510900  0.553900  0.728100  1.0
  C  C824  1  0.010900  0.446100  0.271900  1.0
  C  C825  1  0.989100  0.271900  0.446100  1.0
  C  C826  1  0.489100  0.728100  0.553900  1.0
  C  C827  1  0.489100  0.825800  0.271900  1.0
  C  C828  1  0.989100  0.174200  0.728100  1.0
  C  C829  1  0.010900  0.446100  0.174200  1.0
  C  C830  1  0.510900  0.553900  0.825800  1.0
  C  C831  1  0.489100  0.728100  0.174200  1.0
  C  C832  1  0.989100  0.271900  0.825800  1.0
  C  C833  1  0.989100  0.174200  0.446100  1.0
  C  C834  1  0.489100  0.825800  0.553900  1.0
  C  C835  1  0.489100  0.446100  0.271900  1.0
  C  C836  1  0.989100  0.553900  0.728100  1.0
  C  C837  1  0.010900  0.728100  0.553900  1.0
  C  C838  1  0.510900  0.271900  0.446100  1.0
  C  C839  1  0.510900  0.174200  0.728100  1.0
  C  C840  1  0.010900  0.825800  0.271900  1.0
  C  C841  1  0.027600  0.550900  0.846900  1.0
  C  C842  1  0.527600  0.449100  0.153100  1.0
  C  C843  1  0.472400  0.296000  0.846900  1.0
  C  C844  1  0.972400  0.704000  0.153100  1.0
  C  C845  1  0.972400  0.846900  0.550900  1.0
  C  C846  1  0.472400  0.153100  0.449100  1.0
  C  C847  1  0.472400  0.550900  0.704000  1.0
  C  C848  1  0.972400  0.449100  0.296000  1.0
  C  C849  1  0.027600  0.296000  0.449100  1.0
  C  C850  1  0.527600  0.704000  0.550900  1.0
  C  C851  1  0.527600  0.846900  0.296000  1.0
  C  C852  1  0.027600  0.153100  0.704000  1.0
  C  C853  1  0.972400  0.449100  0.153100  1.0
  C  C854  1  0.472400  0.550900  0.846900  1.0
  C  C855  1  0.527600  0.704000  0.153100  1.0
  C  C856  1  0.027600  0.296000  0.846900  1.0
  C  C857  1  0.027600  0.153100  0.449100  1.0
  C  C858  1  0.527600  0.846900  0.550900  1.0
  C  C859  1  0.527600  0.449100  0.296000  1.0
  C  C860  1  0.027600  0.550900  0.704000  1.0
  C  C861  1  0.972400  0.704000  0.550900  1.0
  C  C862  1  0.472400  0.296000  0.449100  1.0
  C  C863  1  0.472400  0.153100  0.704000  1.0
  C  C864  1  0.972400  0.846900  0.296000  1.0
  C  C865  1  0.051800  0.585800  0.875800  1.0
  C  C866  1  0.551800  0.414200  0.124200  1.0
  C  C867  1  0.448200  0.290000  0.875800  1.0
  C  C868  1  0.948200  0.710000  0.124200  1.0
  C  C869  1  0.948200  0.875800  0.585800  1.0
  C  C870  1  0.448200  0.124200  0.414200  1.0
  C  C871  1  0.448200  0.585800  0.710000  1.0
  C  C872  1  0.948200  0.414200  0.290000  1.0
  C  C873  1  0.051800  0.290000  0.414200  1.0
  C  C874  1  0.551800  0.710000  0.585800  1.0
  C  C875  1  0.551800  0.875800  0.290000  1.0
  C  C876  1  0.051800  0.124200  0.710000  1.0
  C  C877  1  0.948200  0.414200  0.124200  1.0
  C  C878  1  0.448200  0.585800  0.875800  1.0
  C  C879  1  0.551800  0.710000  0.124200  1.0
  C  C880  1  0.051800  0.290000  0.875800  1.0
  C  C881  1  0.051800  0.124200  0.414200  1.0
  C  C882  1  0.551800  0.875800  0.585800  1.0
  C  C883  1  0.551800  0.414200  0.290000  1.0
  C  C884  1  0.051800  0.585800  0.710000  1.0
  C  C885  1  0.948200  0.710000  0.585800  1.0
  C  C886  1  0.448200  0.290000  0.414200  1.0
  C  C887  1  0.448200  0.124200  0.710000  1.0
  C  C888  1  0.948200  0.875800  0.290000  1.0
  C  C889  1  0.033000  0.624700  0.884100  1.0
  C  C890  1  0.533000  0.375300  0.115900  1.0
  C  C891  1  0.467000  0.259400  0.884100  1.0
  C  C892  1  0.967000  0.740600  0.115900  1.0
  C  C893  1  0.967000  0.884100  0.624700  1.0
  C  C894  1  0.467000  0.115900  0.375300  1.0
  C  C895  1  0.467000  0.624700  0.740600  1.0
  C  C896  1  0.967000  0.375300  0.259400  1.0
  C  C897  1  0.033000  0.259400  0.375300  1.0
  C  C898  1  0.533000  0.740600  0.624700  1.0
  C  C899  1  0.533000  0.884100  0.259400  1.0
  C  C900  1  0.033000  0.115900  0.740600  1.0
  C  C901  1  0.967000  0.375300  0.115900  1.0
  C  C902  1  0.467000  0.624700  0.884100  1.0
  C  C903  1  0.533000  0.740600  0.115900  1.0
  C  C904  1  0.033000  0.259400  0.884100  1.0
  C  C905  1  0.033000  0.115900  0.375300  1.0
  C  C906  1  0.533000  0.884100  0.624700  1.0
  C  C907  1  0.533000  0.375300  0.259400  1.0
  C  C908  1  0.033000  0.624700  0.740600  1.0
  C  C909  1  0.967000  0.740600  0.624700  1.0
  C  C910  1  0.467000  0.259400  0.375300  1.0
  C  C911  1  0.467000  0.115900  0.740600  1.0
  C  C912  1  0.967000  0.884100  0.259400  1.0
  C  C913  1  0.994900  0.627500  0.862700  1.0
  C  C914  1  0.494900  0.372500  0.137300  1.0
  C  C915  1  0.505100  0.235200  0.862700  1.0
  C  C916  1  0.005100  0.764800  0.137300  1.0
  C  C917  1  0.005100  0.862700  0.627500  1.0
  C  C918  1  0.505100  0.137300  0.372500  1.0
  C  C919  1  0.505100  0.627500  0.764800  1.0
  C  C920  1  0.005100  0.372500  0.235200  1.0
  C  C921  1  0.994900  0.235200  0.372500  1.0
  C  C922  1  0.494900  0.764800  0.627500  1.0
  C  C923  1  0.494900  0.862700  0.235200  1.0
  C  C924  1  0.994900  0.137300  0.764800  1.0
  C  C925  1  0.005100  0.372500  0.137300  1.0
  C  C926  1  0.505100  0.627500  0.862700  1.0
  C  C927  1  0.494900  0.764800  0.137300  1.0
  C  C928  1  0.994900  0.235200  0.862700  1.0
  C  C929  1  0.994900  0.137300  0.372500  1.0
  C  C930  1  0.494900  0.862700  0.627500  1.0
  C  C931  1  0.494900  0.372500  0.235200  1.0
  C  C932  1  0.994900  0.627500  0.764800  1.0
  C  C933  1  0.005100  0.764800  0.627500  1.0
  C  C934  1  0.505100  0.235200  0.372500  1.0
  C  C935  1  0.505100  0.137300  0.764800  1.0
  C  C936  1  0.005100  0.862700  0.235200  1.0
  C  C937  1  0.093400  0.544600  0.900600  1.0
  C  C938  1  0.593400  0.455400  0.099400  1.0
  C  C939  1  0.406600  0.356000  0.900600  1.0
  C  C940  1  0.906600  0.644000  0.099400  1.0
  C  C941  1  0.906600  0.900600  0.544600  1.0
  C  C942  1  0.406600  0.099400  0.455400  1.0
  C  C943  1  0.406600  0.544600  0.644000  1.0
  C  C944  1  0.906600  0.455400  0.356000  1.0
  C  C945  1  0.093400  0.356000  0.455400  1.0
  C  C946  1  0.593400  0.644000  0.544600  1.0
  C  C947  1  0.593400  0.900600  0.356000  1.0
  C  C948  1  0.093400  0.099400  0.644000  1.0
  C  C949  1  0.906600  0.455400  0.099400  1.0
  C  C950  1  0.406600  0.544600  0.900600  1.0
  C  C951  1  0.593400  0.644000  0.099400  1.0
  C  C952  1  0.093400  0.356000  0.900600  1.0
  C  C953  1  0.093400  0.099400  0.455400  1.0
  C  C954  1  0.593400  0.900600  0.544600  1.0
  C  C955  1  0.593400  0.455400  0.356000  1.0
  C  C956  1  0.093400  0.544600  0.644000  1.0
  C  C957  1  0.906600  0.644000  0.544600  1.0
  C  C958  1  0.406600  0.356000  0.455400  1.0
  C  C959  1  0.406600  0.099400  0.644000  1.0
  C  C960  1  0.906600  0.900600  0.356000  1.0
  C  C961  1  0.059800  0.537000  0.922300  1.0
  C  C962  1  0.559800  0.463000  0.077700  1.0
  C  C963  1  0.440200  0.385300  0.922300  1.0
  C  C964  1  0.940200  0.614700  0.077700  1.0
  C  C965  1  0.940200  0.922300  0.537000  1.0
  C  C966  1  0.440200  0.077700  0.463000  1.0
  C  C967  1  0.440200  0.537000  0.614700  1.0
  C  C968  1  0.940200  0.463000  0.385300  1.0
  C  C969  1  0.059800  0.385300  0.463000  1.0
  C  C970  1  0.559800  0.614700  0.537000  1.0
  C  C971  1  0.559800  0.922300  0.385300  1.0
  C  C972  1  0.059800  0.077700  0.614700  1.0
  C  C973  1  0.940200  0.463000  0.077700  1.0
  C  C974  1  0.440200  0.537000  0.922300  1.0
  C  C975  1  0.559800  0.614700  0.077700  1.0
  C  C976  1  0.059800  0.385300  0.922300  1.0
  C  C977  1  0.059800  0.077700  0.463000  1.0
  C  C978  1  0.559800  0.922300  0.537000  1.0
  C  C979  1  0.559800  0.463000  0.385300  1.0
  C  C980  1  0.059800  0.537000  0.614700  1.0
  C  C981  1  0.940200  0.614700  0.537000  1.0
  C  C982  1  0.440200  0.385300  0.463000  1.0
  C  C983  1  0.440200  0.077700  0.614700  1.0
  C  C984  1  0.940200  0.922300  0.385300  1.0
  C  C985  1  0.060700  0.500900  0.924700  1.0
  C  C986  1  0.560700  0.499100  0.075300  1.0
  C  C987  1  0.439300  0.423800  0.924700  1.0
  C  C988  1  0.939300  0.576200  0.075300  1.0
  C  C989  1  0.939300  0.924700  0.500900  1.0
  C  C990  1  0.439300  0.075300  0.499100  1.0
  C  C991  1  0.439300  0.500900  0.576200  1.0
  C  C992  1  0.939300  0.499100  0.423800  1.0
  C  C993  1  0.060700  0.423800  0.499100  1.0
  C  C994  1  0.560700  0.576200  0.500900  1.0
  C  C995  1  0.560700  0.924700  0.423800  1.0
  C  C996  1  0.060700  0.075300  0.576200  1.0
  C  C997  1  0.939300  0.499100  0.075300  1.0
  C  C998  1  0.439300  0.500900  0.924700  1.0
  C  C999  1  0.560700  0.576200  0.075300  1.0
  C  C1000  1  0.060700  0.423800  0.924700  1.0
  C  C1001  1  0.060700  0.075300  0.499100  1.0
  C  C1002  1  0.560700  0.924700  0.500900  1.0
  C  C1003  1  0.560700  0.499100  0.423800  1.0
  C  C1004  1  0.060700  0.500900  0.576200  1.0
  C  C1005  1  0.939300  0.576200  0.500900  1.0
  C  C1006  1  0.439300  0.423800  0.499100  1.0
  C  C1007  1  0.439300  0.075300  0.576200  1.0
  C  C1008  1  0.939300  0.924700  0.423800  1.0
  C  C1009  1  0.097300  0.472700  0.905500  1.0
  C  C1010  1  0.597300  0.527300  0.094500  1.0
  C  C1011  1  0.402700  0.432800  0.905500  1.0
  C  C1012  1  0.902700  0.567200  0.094500  1.0
  C  C1013  1  0.902700  0.905500  0.472700  1.0
  C  C1014  1  0.402700  0.094500  0.527300  1.0
  C  C1015  1  0.402700  0.472700  0.567200  1.0
  C  C1016  1  0.902700  0.527300  0.432800  1.0
  C  C1017  1  0.097300  0.432800  0.527300  1.0
  C  C1018  1  0.597300  0.567200  0.472700  1.0
  C  C1019  1  0.597300  0.905500  0.432800  1.0
  C  C1020  1  0.097300  0.094500  0.567200  1.0
  C  C1021  1  0.902700  0.527300  0.094500  1.0
  C  C1022  1  0.402700  0.472700  0.905500  1.0
  C  C1023  1  0.597300  0.567200  0.094500  1.0
  C  C1024  1  0.097300  0.432800  0.905500  1.0
  C  C1025  1  0.097300  0.094500  0.527300  1.0
  C  C1026  1  0.597300  0.905500  0.472700  1.0
  C  C1027  1  0.597300  0.527300  0.432800  1.0
  C  C1028  1  0.097300  0.472700  0.567200  1.0
  C  C1029  1  0.902700  0.567200  0.472700  1.0
  C  C1030  1  0.402700  0.432800  0.527300  1.0
  C  C1031  1  0.402700  0.094500  0.567200  1.0
  C  C1032  1  0.902700  0.905500  0.432800  1.0
  C  C1033  1  0.132600  0.484200  0.887200  1.0
  C  C1034  1  0.632600  0.515800  0.112800  1.0
  C  C1035  1  0.367400  0.403000  0.887200  1.0
  C  C1036  1  0.867400  0.597000  0.112800  1.0
  C  C1037  1  0.867400  0.887200  0.484200  1.0
  C  C1038  1  0.367400  0.112800  0.515800  1.0
  C  C1039  1  0.367400  0.484200  0.597000  1.0
  C  C1040  1  0.867400  0.515800  0.403000  1.0
  C  C1041  1  0.132600  0.403000  0.515800  1.0
  C  C1042  1  0.632600  0.597000  0.484200  1.0
  C  C1043  1  0.632600  0.887200  0.403000  1.0
  C  C1044  1  0.132600  0.112800  0.597000  1.0
  C  C1045  1  0.867400  0.515800  0.112800  1.0
  C  C1046  1  0.367400  0.484200  0.887200  1.0
  C  C1047  1  0.632600  0.597000  0.112800  1.0
  C  C1048  1  0.132600  0.403000  0.887200  1.0
  C  C1049  1  0.132600  0.112800  0.515800  1.0
  C  C1050  1  0.632600  0.887200  0.484200  1.0
  C  C1051  1  0.632600  0.515800  0.403000  1.0
  C  C1052  1  0.132600  0.484200  0.597000  1.0
  C  C1053  1  0.867400  0.597000  0.484200  1.0
  C  C1054  1  0.367400  0.403000  0.515800  1.0
  C  C1055  1  0.367400  0.112800  0.597000  1.0
  C  C1056  1  0.867400  0.887200  0.403000  1.0
  C  C1057  1  0.132100  0.520300  0.884900  1.0
  C  C1058  1  0.632100  0.479700  0.115100  1.0
  C  C1059  1  0.367900  0.364600  0.884900  1.0
  C  C1060  1  0.867900  0.635400  0.115100  1.0
  C  C1061  1  0.867900  0.884900  0.520300  1.0
  C  C1062  1  0.367900  0.115100  0.479700  1.0
  C  C1063  1  0.367900  0.520300  0.635400  1.0
  C  C1064  1  0.867900  0.479700  0.364600  1.0
  C  C1065  1  0.132100  0.364600  0.479700  1.0
  C  C1066  1  0.632100  0.635400  0.520300  1.0
  C  C1067  1  0.632100  0.884900  0.364600  1.0
  C  C1068  1  0.132100  0.115100  0.635400  1.0
  C  C1069  1  0.867900  0.479700  0.115100  1.0
  C  C1070  1  0.367900  0.520300  0.884900  1.0
  C  C1071  1  0.632100  0.635400  0.115100  1.0
  C  C1072  1  0.132100  0.364600  0.884900  1.0
  C  C1073  1  0.132100  0.115100  0.479700  1.0
  C  C1074  1  0.632100  0.884900  0.520300  1.0
  C  C1075  1  0.632100  0.479700  0.364600  1.0
  C  C1076  1  0.132100  0.520300  0.635400  1.0
  C  C1077  1  0.867900  0.635400  0.520300  1.0
  C  C1078  1  0.367900  0.364600  0.479700  1.0
  C  C1079  1  0.367900  0.115100  0.635400  1.0
  C  C1080  1  0.867900  0.884900  0.364600  1.0
  C  C1081  1  0.276400  0.801400  0.030800  1.0
  C  C1082  1  0.776400  0.198600  0.969200  1.0
  C  C1083  1  0.223600  0.229400  0.030800  1.0
  C  C1084  1  0.723600  0.770600  0.969200  1.0
  C  C1085  1  0.723600  0.030800  0.801400  1.0
  C  C1086  1  0.223600  0.969200  0.198600  1.0
  C  C1087  1  0.223600  0.801400  0.770600  1.0
  C  C1088  1  0.723600  0.198600  0.229400  1.0
  C  C1089  1  0.276400  0.229400  0.198600  1.0
  C  C1090  1  0.776400  0.770600  0.801400  1.0
  C  C1091  1  0.776400  0.030800  0.229400  1.0
  C  C1092  1  0.276400  0.969200  0.770600  1.0
  C  C1093  1  0.723600  0.198600  0.969200  1.0
  C  C1094  1  0.223600  0.801400  0.030800  1.0
  C  C1095  1  0.776400  0.770600  0.969200  1.0
  C  C1096  1  0.276400  0.229400  0.030800  1.0
  C  C1097  1  0.276400  0.969200  0.198600  1.0
  C  C1098  1  0.776400  0.030800  0.801400  1.0
  C  C1099  1  0.776400  0.198600  0.229400  1.0
  C  C1100  1  0.276400  0.801400  0.770600  1.0
  C  C1101  1  0.723600  0.770600  0.801400  1.0
  C  C1102  1  0.223600  0.229400  0.198600  1.0
  C  C1103  1  0.223600  0.969200  0.770600  1.0
  C  C1104  1  0.723600  0.030800  0.229400  1.0
  C  C1105  1  0.331700  0.768500  0.973900  1.0
  C  C1106  1  0.831700  0.231500  0.026100  1.0
  C  C1107  1  0.168300  0.205400  0.973900  1.0
  C  C1108  1  0.668300  0.794600  0.026100  1.0
  C  C1109  1  0.668300  0.973900  0.768500  1.0
  C  C1110  1  0.168300  0.026100  0.231500  1.0
  C  C1111  1  0.168300  0.768500  0.794600  1.0
  C  C1112  1  0.668300  0.231500  0.205400  1.0
  C  C1113  1  0.331700  0.205400  0.231500  1.0
  C  C1114  1  0.831700  0.794600  0.768500  1.0
  C  C1115  1  0.831700  0.973900  0.205400  1.0
  C  C1116  1  0.331700  0.026100  0.794600  1.0
  C  C1117  1  0.668300  0.231500  0.026100  1.0
  C  C1118  1  0.168300  0.768500  0.973900  1.0
  C  C1119  1  0.831700  0.794600  0.026100  1.0
  C  C1120  1  0.331700  0.205400  0.973900  1.0
  C  C1121  1  0.331700  0.026100  0.231500  1.0
  C  C1122  1  0.831700  0.973900  0.768500  1.0
  C  C1123  1  0.831700  0.231500  0.205400  1.0
  C  C1124  1  0.331700  0.768500  0.794600  1.0
  C  C1125  1  0.668300  0.794600  0.768500  1.0
  C  C1126  1  0.168300  0.205400  0.231500  1.0
  C  C1127  1  0.168300  0.026100  0.794600  1.0
  C  C1128  1  0.668300  0.973900  0.205400  1.0
  C  C1129  1  0.332400  0.759400  0.033600  1.0
  C  C1130  1  0.832400  0.240600  0.966400  1.0
  C  C1131  1  0.167600  0.274200  0.033600  1.0
  C  C1132  1  0.667600  0.725800  0.966400  1.0
  C  C1133  1  0.667600  0.033600  0.759400  1.0
  C  C1134  1  0.167600  0.966400  0.240600  1.0
  C  C1135  1  0.167600  0.759400  0.725800  1.0
  C  C1136  1  0.667600  0.240600  0.274200  1.0
  C  C1137  1  0.332400  0.274200  0.240600  1.0
  C  C1138  1  0.832400  0.725800  0.759400  1.0
  C  C1139  1  0.832400  0.033600  0.274200  1.0
  C  C1140  1  0.332400  0.966400  0.725800  1.0
  C  C1141  1  0.667600  0.240600  0.966400  1.0
  C  C1142  1  0.167600  0.759400  0.033600  1.0
  C  C1143  1  0.832400  0.725800  0.966400  1.0
  C  C1144  1  0.332400  0.274200  0.033600  1.0
  C  C1145  1  0.332400  0.966400  0.240600  1.0
  C  C1146  1  0.832400  0.033600  0.759400  1.0
  C  C1147  1  0.832400  0.240600  0.274200  1.0
  C  C1148  1  0.332400  0.759400  0.725800  1.0
  C  C1149  1  0.667600  0.725800  0.759400  1.0
  C  C1150  1  0.167600  0.274200  0.240600  1.0
  C  C1151  1  0.167600  0.966400  0.725800  1.0
  C  C1152  1  0.667600  0.033600  0.274200  1.0
  C  C1153  1  0.819700  0.610400  0.785600  1.0
  C  C1154  1  0.319700  0.389600  0.214400  1.0
  C  C1155  1  0.680300  0.175200  0.785600  1.0
  C  C1156  1  0.180300  0.824800  0.214400  1.0
  C  C1157  1  0.180300  0.785600  0.610400  1.0
  C  C1158  1  0.680300  0.214400  0.389600  1.0
  C  C1159  1  0.680300  0.610400  0.824800  1.0
  C  C1160  1  0.180300  0.389600  0.175200  1.0
  C  C1161  1  0.819700  0.175200  0.389600  1.0
  C  C1162  1  0.319700  0.824800  0.610400  1.0
  C  C1163  1  0.319700  0.785600  0.175200  1.0
  C  C1164  1  0.819700  0.214400  0.824800  1.0
  C  C1165  1  0.180300  0.389600  0.214400  1.0
  C  C1166  1  0.680300  0.610400  0.785600  1.0
  C  C1167  1  0.319700  0.824800  0.214400  1.0
  C  C1168  1  0.819700  0.175200  0.785600  1.0
  C  C1169  1  0.819700  0.214400  0.389600  1.0
  C  C1170  1  0.319700  0.785600  0.610400  1.0
  C  C1171  1  0.319700  0.389600  0.175200  1.0
  C  C1172  1  0.819700  0.610400  0.824800  1.0
  C  C1173  1  0.180300  0.824800  0.610400  1.0
  C  C1174  1  0.680300  0.175200  0.389600  1.0
  C  C1175  1  0.680300  0.214400  0.824800  1.0
  C  C1176  1  0.180300  0.785600  0.175200  1.0
  C  C1177  1  0.865900  0.637300  0.763000  1.0
  C  C1178  1  0.365900  0.362700  0.237000  1.0
  C  C1179  1  0.634100  0.125700  0.763000  1.0
  C  C1180  1  0.134100  0.874300  0.237000  1.0
  C  C1181  1  0.134100  0.763000  0.637300  1.0
  C  C1182  1  0.634100  0.237000  0.362700  1.0
  C  C1183  1  0.634100  0.637300  0.874300  1.0
  C  C1184  1  0.134100  0.362700  0.125700  1.0
  C  C1185  1  0.865900  0.125700  0.362700  1.0
  C  C1186  1  0.365900  0.874300  0.637300  1.0
  C  C1187  1  0.365900  0.763000  0.125700  1.0
  C  C1188  1  0.865900  0.237000  0.874300  1.0
  C  C1189  1  0.134100  0.362700  0.237000  1.0
  C  C1190  1  0.634100  0.637300  0.763000  1.0
  C  C1191  1  0.365900  0.874300  0.237000  1.0
  C  C1192  1  0.865900  0.125700  0.763000  1.0
  C  C1193  1  0.865900  0.237000  0.362700  1.0
  C  C1194  1  0.365900  0.763000  0.637300  1.0
  C  C1195  1  0.365900  0.362700  0.125700  1.0
  C  C1196  1  0.865900  0.637300  0.874300  1.0
  C  C1197  1  0.134100  0.874300  0.637300  1.0
  C  C1198  1  0.634100  0.125700  0.362700  1.0
  C  C1199  1  0.634100  0.237000  0.874300  1.0
  C  C1200  1  0.134100  0.763000  0.125700  1.0
  C  C1201  1  0.859500  0.559200  0.721700  1.0
  C  C1202  1  0.359500  0.440800  0.278300  1.0
  C  C1203  1  0.640500  0.162500  0.721700  1.0
  C  C1204  1  0.140500  0.837500  0.278300  1.0
  C  C1205  1  0.140500  0.721700  0.559200  1.0
  C  C1206  1  0.640500  0.278300  0.440800  1.0
  C  C1207  1  0.640500  0.559200  0.837500  1.0
  C  C1208  1  0.140500  0.440800  0.162500  1.0
  C  C1209  1  0.859500  0.162500  0.440800  1.0
  C  C1210  1  0.359500  0.837500  0.559200  1.0
  C  C1211  1  0.359500  0.721700  0.162500  1.0
  C  C1212  1  0.859500  0.278300  0.837500  1.0
  C  C1213  1  0.140500  0.440800  0.278300  1.0
  C  C1214  1  0.640500  0.559200  0.721700  1.0
  C  C1215  1  0.359500  0.837500  0.278300  1.0
  C  C1216  1  0.859500  0.162500  0.721700  1.0
  C  C1217  1  0.859500  0.278300  0.440800  1.0
  C  C1218  1  0.359500  0.721700  0.559200  1.0
  C  C1219  1  0.359500  0.440800  0.162500  1.0
  C  C1220  1  0.859500  0.559200  0.837500  1.0
  C  C1221  1  0.140500  0.837500  0.559200  1.0
  C  C1222  1  0.640500  0.162500  0.440800  1.0
  C  C1223  1  0.640500  0.278300  0.837500  1.0
  C  C1224  1  0.140500  0.721700  0.162500  1.0
  N  N1225  1  0.250000  0.687000  0.075700  1
  N  N1226  1  0.750000  0.313000  0.924300  1
  N  N1227  1  0.250000  0.388700  0.075700  1
  N  N1228  1  0.750000  0.611300  0.924300  1
  N  N1229  1  0.750000  0.075700  0.687000  1
  N  N1230  1  0.250000  0.924300  0.313000  1
  N  N1231  1  0.250000  0.687000  0.611300  1
  N  N1232  1  0.750000  0.313000  0.388700  1
  N  N1233  1  0.250000  0.388700  0.313000  1
  N  N1234  1  0.750000  0.611300  0.687000  1
  N  N1235  1  0.750000  0.075700  0.388700  1
  N  N1236  1  0.250000  0.924300  0.611300  1
  N  N1237  1  0.621200  0.777500  0.222500  1
  N  N1238  1  0.121200  0.222500  0.777500  1
  N  N1239  1  0.878800  0.445000  0.222500  1
  N  N1240  1  0.378800  0.555000  0.777500  1
  N  N1241  1  0.378800  0.222500  0.777500  1
  N  N1242  1  0.878800  0.777500  0.222500  1
  N  N1243  1  0.878800  0.777500  0.555000  1
  N  N1244  1  0.378800  0.222500  0.445000  1
  N  N1245  1  0.621200  0.445000  0.222500  1
  N  N1246  1  0.121200  0.555000  0.777500  1
  N  N1247  1  0.121200  0.222500  0.445000  1
  N  N1248  1  0.621200  0.777500  0.555000  1
  N  N1249  1  0.302100  0.901800  0.047500  1
  N  N1250  1  0.802100  0.098200  0.952500  1
  N  N1251  1  0.197900  0.145700  0.047500  1
  N  N1252  1  0.697900  0.854300  0.952500  1
  N  N1253  1  0.697900  0.047500  0.901800  1
  N  N1254  1  0.197900  0.952500  0.098200  1
  N  N1255  1  0.197900  0.901800  0.854300  1
  N  N1256  1  0.697900  0.098200  0.145700  1
  N  N1257  1  0.302100  0.145700  0.098200  1
  N  N1258  1  0.802100  0.854300  0.901800  1
  N  N1259  1  0.802100  0.047500  0.145700  1
  N  N1260  1  0.302100  0.952500  0.854300  1
  N  N1261  1  0.697900  0.098200  0.952500  1
  N  N1262  1  0.197900  0.901800  0.047500  1
  N  N1263  1  0.802100  0.854300  0.952500  1
  N  N1264  1  0.302100  0.145700  0.047500  1
  N  N1265  1  0.302100  0.952500  0.098200  1
  N  N1266  1  0.802100  0.047500  0.901800  1
  N  N1267  1  0.802100  0.098200  0.145700  1
  N  N1268  1  0.302100  0.901800  0.854300  1
  N  N1269  1  0.697900  0.854300  0.901800  1
  N  N1270  1  0.197900  0.145700  0.098200  1
  N  N1271  1  0.197900  0.952500  0.854300  1
  N  N1272  1  0.697900  0.047500  0.145700  1
  N  N1273  1  0.417200  0.737600  0.868800  1
  N  N1274  1  0.917200  0.262400  0.131200  1
  N  N1275  1  0.082800  0.131200  0.868800  1
  N  N1276  1  0.582800  0.868800  0.131200  1
  N  N1277  1  0.582800  0.868800  0.737600  1
  N  N1278  1  0.082800  0.131200  0.262400  1
  N  N1279  1  0.082800  0.737600  0.868800  1
  N  N1280  1  0.582800  0.262400  0.131200  1
  N  N1281  1  0.417200  0.131200  0.262400  1
  N  N1282  1  0.917200  0.868800  0.737600  1
  N  N1283  1  0.917200  0.868800  0.131200  1
  N  N1284  1  0.417200  0.131200  0.868800  1
  N  N1285  1  0.750000  0.860500  0.139500  1
  N  N1286  1  0.250000  0.139500  0.860500  1
  N  N1287  1  0.750000  0.279000  0.139500  1
  N  N1288  1  0.250000  0.721000  0.860500  1
  N  N1289  1  0.750000  0.860500  0.721000  1
  N  N1290  1  0.250000  0.139500  0.279000  1
  N  N1291  1  0.199400  0.673400  0.949800  1.0
  N  N1292  1  0.699400  0.326600  0.050200  1.0
  N  N1293  1  0.300600  0.276400  0.949800  1.0
  N  N1294  1  0.800600  0.723600  0.050200  1.0
  N  N1295  1  0.800600  0.949800  0.673400  1.0
  N  N1296  1  0.300600  0.050200  0.326600  1.0
  N  N1297  1  0.300600  0.673400  0.723600  1.0
  N  N1298  1  0.800600  0.326600  0.276400  1.0
  N  N1299  1  0.199400  0.276400  0.326600  1.0
  N  N1300  1  0.699400  0.723600  0.673400  1.0
  N  N1301  1  0.699400  0.949800  0.276400  1.0
  N  N1302  1  0.199400  0.050200  0.723600  1.0
  N  N1303  1  0.800600  0.326600  0.050200  1.0
  N  N1304  1  0.300600  0.673400  0.949800  1.0
  N  N1305  1  0.699400  0.723600  0.050200  1.0
  N  N1306  1  0.199400  0.276400  0.949800  1.0
  N  N1307  1  0.199400  0.050200  0.326600  1.0
  N  N1308  1  0.699400  0.949800  0.673400  1.0
  N  N1309  1  0.699400  0.326600  0.276400  1.0
  N  N1310  1  0.199400  0.673400  0.723600  1.0
  N  N1311  1  0.800600  0.723600  0.673400  1.0
  N  N1312  1  0.300600  0.276400  0.326600  1.0
  N  N1313  1  0.300600  0.050200  0.723600  1.0
  N  N1314  1  0.800600  0.949800  0.276400  1.0
  N  N1315  1  0.971500  0.592100  0.832000  1.0
  N  N1316  1  0.471500  0.407900  0.168000  1.0
  N  N1317  1  0.528500  0.239900  0.832000  1.0
  N  N1318  1  0.028500  0.760100  0.168000  1.0
  N  N1319  1  0.028500  0.832000  0.592100  1.0
  N  N1320  1  0.528500  0.168000  0.407900  1.0
  N  N1321  1  0.528500  0.592100  0.760100  1.0
  N  N1322  1  0.028500  0.407900  0.239900  1.0
  N  N1323  1  0.971500  0.239900  0.407900  1.0
  N  N1324  1  0.471500  0.760100  0.592100  1.0
  N  N1325  1  0.471500  0.832000  0.239900  1.0
  N  N1326  1  0.971500  0.168000  0.760100  1.0
  N  N1327  1  0.028500  0.407900  0.168000  1.0
  N  N1328  1  0.528500  0.592100  0.832000  1.0
  N  N1329  1  0.471500  0.760100  0.168000  1.0
  N  N1330  1  0.971500  0.239900  0.832000  1.0
  N  N1331  1  0.971500  0.168000  0.407900  1.0
  N  N1332  1  0.471500  0.832000  0.592100  1.0
  N  N1333  1  0.471500  0.407900  0.239900  1.0
  N  N1334  1  0.971500  0.592100  0.760100  1.0
  N  N1335  1  0.028500  0.760100  0.592100  1.0
  N  N1336  1  0.528500  0.239900  0.407900  1.0
  N  N1337  1  0.528500  0.168000  0.760100  1.0
  N  N1338  1  0.028500  0.832000  0.239900  1.0
  N  N1339  1  0.300800  0.763400  0.004800  1.0
  N  N1340  1  0.800800  0.236600  0.995200  1.0
  N  N1341  1  0.199200  0.241400  0.004800  1.0
  N  N1342  1  0.699200  0.758600  0.995200  1.0
  N  N1343  1  0.699200  0.004800  0.763400  1.0
  N  N1344  1  0.199200  0.995200  0.236600  1.0
  N  N1345  1  0.199200  0.763400  0.758600  1.0
  N  N1346  1  0.699200  0.236600  0.241400  1.0
  N  N1347  1  0.300800  0.241400  0.236600  1.0
  N  N1348  1  0.800800  0.758600  0.763400  1.0
  N  N1349  1  0.800800  0.004800  0.241400  1.0
  N  N1350  1  0.300800  0.995200  0.758600  1.0
  N  N1351  1  0.699200  0.236600  0.995200  1.0
  N  N1352  1  0.199200  0.763400  0.004800  1.0
  N  N1353  1  0.800800  0.758600  0.995200  1.0
  N  N1354  1  0.300800  0.241400  0.004800  1.0
  N  N1355  1  0.300800  0.995200  0.236600  1.0
  N  N1356  1  0.800800  0.004800  0.763400  1.0
  N  N1357  1  0.800800  0.236600  0.241400  1.0
  N  N1358  1  0.300800  0.763400  0.758600  1.0
  N  N1359  1  0.699200  0.758600  0.763400  1.0
  N  N1360  1  0.199200  0.241400  0.236600  1.0
  N  N1361  1  0.199200  0.995200  0.758600  1.0
  N  N1362  1  0.699200  0.004800  0.241400  1.0
  N  N1363  1  0.863200  0.597600  0.760700  1.0
  N  N1364  1  0.363200  0.402400  0.239300  1.0
  N  N1365  1  0.636800  0.163100  0.760700  1.0
  N  N1366  1  0.136800  0.836900  0.239300  1.0
  N  N1367  1  0.136800  0.760700  0.597600  1.0
  N  N1368  1  0.636800  0.239300  0.402400  1.0
  N  N1369  1  0.636800  0.597600  0.836900  1.0
  N  N1370  1  0.136800  0.402400  0.163100  1.0
  N  N1371  1  0.863200  0.163100  0.402400  1.0
  N  N1372  1  0.363200  0.836900  0.597600  1.0
  N  N1373  1  0.363200  0.760700  0.163100  1.0
  N  N1374  1  0.863200  0.239300  0.836900  1.0
  N  N1375  1  0.136800  0.402400  0.239300  1.0
  N  N1376  1  0.636800  0.597600  0.760700  1.0
  N  N1377  1  0.363200  0.836900  0.239300  1.0
  N  N1378  1  0.863200  0.163100  0.760700  1.0
  N  N1379  1  0.863200  0.239300  0.402400  1.0
  N  N1380  1  0.363200  0.760700  0.597600  1.0
  N  N1381  1  0.363200  0.402400  0.163100  1.0
  N  N1382  1  0.863200  0.597600  0.836900  1.0
  N  N1383  1  0.136800  0.836900  0.597600  1.0
  N  N1384  1  0.636800  0.163100  0.402400  1.0
  N  N1385  1  0.636800  0.239300  0.836900  1.0
  N  N1386  1  0.136800  0.760700  0.163100  1.0
  N  N1387  1  0.090500  0.583500  0.898900  1.0
  N  N1388  1  0.590500  0.416500  0.101100  1.0
  N  N1389  1  0.409500  0.315400  0.898900  1.0
  N  N1390  1  0.909500  0.684600  0.101100  1.0
  N  N1391  1  0.909500  0.898900  0.583500  1.0
  N  N1392  1  0.409500  0.101100  0.416500  1.0
  N  N1393  1  0.409500  0.583500  0.684600  1.0
  N  N1394  1  0.909500  0.416500  0.315400  1.0
  N  N1395  1  0.090500  0.315400  0.416500  1.0
  N  N1396  1  0.590500  0.684600  0.583500  1.0
  N  N1397  1  0.590500  0.898900  0.315400  1.0
  N  N1398  1  0.090500  0.101100  0.684600  1.0
  N  N1399  1  0.909500  0.416500  0.101100  1.0
  N  N1400  1  0.409500  0.583500  0.898900  1.0
  N  N1401  1  0.590500  0.684600  0.101100  1.0
  N  N1402  1  0.090500  0.315400  0.898900  1.0
  N  N1403  1  0.090500  0.101100  0.416500  1.0
  N  N1404  1  0.590500  0.898900  0.583500  1.0
  N  N1405  1  0.590500  0.416500  0.315400  1.0
  N  N1406  1  0.090500  0.583500  0.684600  1.0
  N  N1407  1  0.909500  0.684600  0.583500  1.0
  N  N1408  1  0.409500  0.315400  0.416500  1.0
  N  N1409  1  0.409500  0.101100  0.684600  1.0
  N  N1410  1  0.909500  0.898900  0.315400  1.0
  O  O1411  1  0.250000  0.698000  0.111000  1
  O  O1412  1  0.750000  0.302000  0.889000  1
  O  O1413  1  0.250000  0.413000  0.111000  1
  O  O1414  1  0.750000  0.587000  0.889000  1
  O  O1415  1  0.750000  0.111000  0.698000  1
  O  O1416  1  0.250000  0.889000  0.302000  1
  O  O1417  1  0.250000  0.698000  0.587000  1
  O  O1418  1  0.750000  0.302000  0.413000  1
  O  O1419  1  0.250000  0.413000  0.302000  1
  O  O1420  1  0.750000  0.587000  0.698000  1
  O  O1421  1  0.750000  0.111000  0.413000  1
  O  O1422  1  0.250000  0.889000  0.587000  1
  O  O1423  1  0.250000  0.707000  0.061100  1
  O  O1424  1  0.750000  0.293000  0.938900  1
  O  O1425  1  0.250000  0.354100  0.061100  1
  O  O1426  1  0.750000  0.645900  0.938900  1
  O  O1427  1  0.750000  0.061100  0.707000  1
  O  O1428  1  0.250000  0.938900  0.293000  1
  O  O1429  1  0.250000  0.707000  0.645900  1
  O  O1430  1  0.750000  0.293000  0.354100  1
  O  O1431  1  0.250000  0.354100  0.293000  1
  O  O1432  1  0.750000  0.645900  0.707000  1
  O  O1433  1  0.750000  0.061100  0.354100  1
  O  O1434  1  0.250000  0.938900  0.645900  1
  O  O1435  1  0.250000  0.650200  0.049100  1
  O  O1436  1  0.750000  0.349800  0.950900  1
  O  O1437  1  0.250000  0.398900  0.049100  1
  O  O1438  1  0.750000  0.601100  0.950900  1
  O  O1439  1  0.750000  0.049100  0.650200  1
  O  O1440  1  0.250000  0.950900  0.349800  1
  O  O1441  1  0.250000  0.650200  0.601100  1
  O  O1442  1  0.750000  0.349800  0.398900  1
  O  O1443  1  0.250000  0.398900  0.349800  1
  O  O1444  1  0.750000  0.601100  0.650200  1
  O  O1445  1  0.750000  0.049100  0.398900  1
  O  O1446  1  0.250000  0.950900  0.601100  1
  O  O1447  1  0.604500  0.795500  0.204500  1
  O  O1448  1  0.104500  0.204500  0.795500  1
  O  O1449  1  0.895500  0.409000  0.204500  1
  O  O1450  1  0.395500  0.591000  0.795500  1
  O  O1451  1  0.395500  0.204500  0.795500  1
  O  O1452  1  0.895500  0.795500  0.204500  1
  O  O1453  1  0.895500  0.795500  0.591000  1
  O  O1454  1  0.395500  0.204500  0.409000  1
  O  O1455  1  0.604500  0.409000  0.204500  1
  O  O1456  1  0.104500  0.591000  0.795500  1
  O  O1457  1  0.104500  0.204500  0.409000  1
  O  O1458  1  0.604500  0.795500  0.591000  1
  O  O1459  1  0.043200  0.700400  0.980600  1
  O  O1460  1  0.543200  0.299600  0.019400  1
  O  O1461  1  0.456800  0.280200  0.980600  1
  O  O1462  1  0.956800  0.719800  0.019400  1
  O  O1463  1  0.956800  0.980600  0.700400  1
  O  O1464  1  0.456800  0.019400  0.299600  1
  O  O1465  1  0.456800  0.700400  0.719800  1
  O  O1466  1  0.956800  0.299600  0.280200  1
  O  O1467  1  0.043200  0.280200  0.299600  1
  O  O1468  1  0.543200  0.719800  0.700400  1
  O  O1469  1  0.543200  0.980600  0.280200  1
  O  O1470  1  0.043200  0.019400  0.719800  1
  O  O1471  1  0.956800  0.299600  0.019400  1
  O  O1472  1  0.456800  0.700400  0.980600  1
  O  O1473  1  0.543200  0.719800  0.019400  1
  O  O1474  1  0.043200  0.280200  0.980600  1
  O  O1475  1  0.043200  0.019400  0.299600  1
  O  O1476  1  0.543200  0.980600  0.700400  1
  O  O1477  1  0.543200  0.299600  0.280200  1
  O  O1478  1  0.043200  0.700400  0.719800  1
  O  O1479  1  0.956800  0.719800  0.700400  1
  O  O1480  1  0.456800  0.280200  0.299600  1
  O  O1481  1  0.456800  0.019400  0.719800  1
  O  O1482  1  0.956800  0.980600  0.280200  1
  O  O1483  1  0.750000  0.962400  0.112500  1
  O  O1484  1  0.250000  0.037600  0.887500  1
  O  O1485  1  0.750000  0.150100  0.112500  1
  O  O1486  1  0.250000  0.849900  0.887500  1
  O  O1487  1  0.250000  0.112500  0.962400  1
  O  O1488  1  0.750000  0.887500  0.037600  1
  O  O1489  1  0.750000  0.962400  0.849900  1
  O  O1490  1  0.250000  0.037600  0.150100  1
  O  O1491  1  0.750000  0.150100  0.037600  1
  O  O1492  1  0.250000  0.849900  0.962400  1
  O  O1493  1  0.250000  0.112500  0.150100  1
  O  O1494  1  0.750000  0.887500  0.849900  1
  O  O1495  1  0.583400  0.256900  0.743000  1
  O  O1496  1  0.083400  0.743100  0.257000  1
  O  O1497  1  0.916600  0.486100  0.743000  1
  O  O1498  1  0.416600  0.513900  0.257000  1
  O  O1499  1  0.416600  0.743000  0.256900  1
  O  O1500  1  0.916600  0.257000  0.743100  1
  O  O1501  1  0.916600  0.256900  0.513900  1
  O  O1502  1  0.416600  0.743100  0.486100  1
  O  O1503  1  0.583400  0.486100  0.743100  1
  O  O1504  1  0.083400  0.513900  0.256900  1
  O  O1505  1  0.083400  0.743000  0.486100  1
  O  O1506  1  0.583400  0.257000  0.513900  1
  O  O1507  1  0.062400  0.851800  0.148200  1
  O  O1508  1  0.562400  0.148200  0.851800  1
  O  O1509  1  0.437600  0.296400  0.148200  1
  O  O1510  1  0.937600  0.703600  0.851800  1
  O  O1511  1  0.937600  0.148200  0.851800  1
  O  O1512  1  0.437600  0.851800  0.148200  1
  O  O1513  1  0.437600  0.851800  0.703600  1
  O  O1514  1  0.937600  0.148200  0.296400  1
  O  O1515  1  0.062400  0.296400  0.148200  1
  O  O1516  1  0.562400  0.703600  0.851800  1
  O  O1517  1  0.562400  0.148200  0.296400  1
  O  O1518  1  0.062400  0.851800  0.703600  1
  O  O1519  1  0.250000  0.876800  0.123200  1
  O  O1520  1  0.750000  0.123200  0.876800  1
  O  O1521  1  0.250000  0.246400  0.123200  1
  O  O1522  1  0.750000  0.753600  0.876800  1
  O  O1523  1  0.250000  0.876800  0.753600  1
  O  O1524  1  0.750000  0.123200  0.246400  1
  O  O1525  1  0.750000  0.806100  0.193900  1
  O  O1526  1  0.250000  0.193900  0.806100  1
  O  O1527  1  0.750000  0.387800  0.193900  1
  O  O1528  1  0.250000  0.612200  0.806100  1
  O  O1529  1  0.750000  0.806100  0.612200  1
  O  O1530  1  0.250000  0.193900  0.387800  1
  O  O1531  1  0.707300  0.919900  0.080100  1
  O  O1532  1  0.207300  0.080100  0.919900  1
  O  O1533  1  0.792700  0.160200  0.080100  1
  O  O1534  1  0.292700  0.839800  0.919900  1
  O  O1535  1  0.292700  0.080100  0.919900  1
  O  O1536  1  0.792700  0.919900  0.080100  1
  O  O1537  1  0.792700  0.919900  0.839800  1
  O  O1538  1  0.292700  0.080100  0.160200  1
  O  O1539  1  0.707300  0.160200  0.080100  1
  O  O1540  1  0.207300  0.839800  0.919900  1
  O  O1541  1  0.207300  0.080100  0.160200  1
  O  O1542  1  0.707300  0.919900  0.839800  1
  O  O1543  1  0.250000  0.551000  0.012000  1
  O  O1544  1  0.750000  0.449000  0.988000  1
  O  O1545  1  0.250000  0.461000  0.012000  1
  O  O1546  1  0.750000  0.539000  0.988000  1
  O  O1547  1  0.750000  0.012000  0.551000  1
  O  O1548  1  0.250000  0.988000  0.449000  1
  O  O1549  1  0.250000  0.551000  0.539000  1
  O  O1550  1  0.750000  0.449000  0.461000  1
  O  O1551  1  0.250000  0.461000  0.449000  1
  O  O1552  1  0.750000  0.539000  0.551000  1
  O  O1553  1  0.750000  0.012000  0.461000  1
  O  O1554  1  0.250000  0.988000  0.539000  1
  O  O1555  1  0.089000  0.674000  0.107000  1
  O  O1556  1  0.589000  0.326000  0.893000  1
  O  O1557  1  0.411000  0.433000  0.107000  1
  O  O1558  1  0.911000  0.567000  0.893000  1
  O  O1559  1  0.911000  0.107000  0.674000  1
  O  O1560  1  0.411000  0.893000  0.326000  1
  O  O1561  1  0.411000  0.674000  0.567000  1
  O  O1562  1  0.911000  0.326000  0.433000  1
  O  O1563  1  0.089000  0.433000  0.326000  1
  O  O1564  1  0.589000  0.567000  0.674000  1
  O  O1565  1  0.589000  0.107000  0.433000  1
  O  O1566  1  0.089000  0.893000  0.567000  1
  O  O1567  1  0.911000  0.326000  0.893000  1
  O  O1568  1  0.411000  0.674000  0.107000  1
  O  O1569  1  0.589000  0.567000  0.893000  1
  O  O1570  1  0.089000  0.433000  0.107000  1
  O  O1571  1  0.089000  0.893000  0.326000  1
  O  O1572  1  0.589000  0.107000  0.674000  1
  O  O1573  1  0.589000  0.326000  0.433000  1
  O  O1574  1  0.089000  0.674000  0.567000  1
  O  O1575  1  0.911000  0.567000  0.674000  1
  O  O1576  1  0.411000  0.433000  0.326000  1
  O  O1577  1  0.411000  0.893000  0.567000  1
  O  O1578  1  0.911000  0.107000  0.433000  1
  O  O1579  1  0.750000  0.733000  0.122000  1
  O  O1580  1  0.250000  0.267000  0.878000  1
  O  O1581  1  0.750000  0.389000  0.122000  1
  O  O1582  1  0.250000  0.611000  0.878000  1
  O  O1583  1  0.250000  0.122000  0.733000  1
  O  O1584  1  0.750000  0.878000  0.267000  1
  O  O1585  1  0.750000  0.733000  0.611000  1
  O  O1586  1  0.250000  0.267000  0.389000  1
  O  O1587  1  0.750000  0.389000  0.267000  1
  O  O1588  1  0.250000  0.611000  0.733000  1
  O  O1589  1  0.250000  0.122000  0.389000  1
  O  O1590  1  0.750000  0.878000  0.611000  1
  O  O1591  1  0.325000  0.887000  0.014000  1
  O  O1592  1  0.825000  0.113000  0.986000  1
  O  O1593  1  0.175000  0.127000  0.014000  1
  O  O1594  1  0.675000  0.873000  0.986000  1
  O  O1595  1  0.675000  0.014000  0.887000  1
  O  O1596  1  0.175000  0.986000  0.113000  1
  O  O1597  1  0.175000  0.887000  0.873000  1
  O  O1598  1  0.675000  0.113000  0.127000  1
  O  O1599  1  0.325000  0.127000  0.113000  1
  O  O1600  1  0.825000  0.873000  0.887000  1
  O  O1601  1  0.825000  0.014000  0.127000  1
  O  O1602  1  0.325000  0.986000  0.873000  1
  O  O1603  1  0.675000  0.113000  0.986000  1
  O  O1604  1  0.175000  0.887000  0.014000  1
  O  O1605  1  0.825000  0.873000  0.986000  1
  O  O1606  1  0.325000  0.127000  0.014000  1
  O  O1607  1  0.325000  0.986000  0.113000  1
  O  O1608  1  0.825000  0.014000  0.887000  1
  O  O1609  1  0.825000  0.113000  0.127000  1
  O  O1610  1  0.325000  0.887000  0.873000  1
  O  O1611  1  0.675000  0.873000  0.887000  1
  O  O1612  1  0.175000  0.127000  0.113000  1
  O  O1613  1  0.175000  0.986000  0.873000  1
  O  O1614  1  0.675000  0.014000  0.127000  1
  O  O1615  1  0.263000  0.886000  0.048000  1
  O  O1616  1  0.763000  0.114000  0.952000  1
  O  O1617  1  0.237000  0.162000  0.048000  1
  O  O1618  1  0.737000  0.838000  0.952000  1
  O  O1619  1  0.737000  0.048000  0.886000  1
  O  O1620  1  0.237000  0.952000  0.114000  1
  O  O1621  1  0.237000  0.886000  0.838000  1
  O  O1622  1  0.737000  0.114000  0.162000  1
  O  O1623  1  0.263000  0.162000  0.114000  1
  O  O1624  1  0.763000  0.838000  0.886000  1
  O  O1625  1  0.763000  0.048000  0.162000  1
  O  O1626  1  0.263000  0.952000  0.838000  1
  O  O1627  1  0.737000  0.114000  0.952000  1
  O  O1628  1  0.237000  0.886000  0.048000  1
  O  O1629  1  0.763000  0.838000  0.952000  1
  O  O1630  1  0.263000  0.162000  0.048000  1
  O  O1631  1  0.263000  0.952000  0.114000  1
  O  O1632  1  0.763000  0.048000  0.886000  1
  O  O1633  1  0.763000  0.114000  0.162000  1
  O  O1634  1  0.263000  0.886000  0.838000  1
  O  O1635  1  0.737000  0.838000  0.886000  1
  O  O1636  1  0.237000  0.162000  0.114000  1
  O  O1637  1  0.237000  0.952000  0.838000  1
  O  O1638  1  0.737000  0.048000  0.162000  1
  O  O1639  1  0.319000  0.930000  0.081000  1
  O  O1640  1  0.819000  0.070000  0.919000  1
  O  O1641  1  0.181000  0.151000  0.081000  1
  O  O1642  1  0.681000  0.849000  0.919000  1
  O  O1643  1  0.681000  0.081000  0.930000  1
  O  O1644  1  0.181000  0.919000  0.070000  1
  O  O1645  1  0.181000  0.930000  0.849000  1
  O  O1646  1  0.681000  0.070000  0.151000  1
  O  O1647  1  0.319000  0.151000  0.070000  1
  O  O1648  1  0.819000  0.849000  0.930000  1
  O  O1649  1  0.819000  0.081000  0.151000  1
  O  O1650  1  0.319000  0.919000  0.849000  1
  O  O1651  1  0.681000  0.070000  0.919000  1
  O  O1652  1  0.181000  0.930000  0.081000  1
  O  O1653  1  0.819000  0.849000  0.919000  1
  O  O1654  1  0.319000  0.151000  0.081000  1
  O  O1655  1  0.319000  0.919000  0.070000  1
  O  O1656  1  0.819000  0.081000  0.930000  1
  O  O1657  1  0.819000  0.070000  0.151000  1
  O  O1658  1  0.319000  0.930000  0.849000  1
  O  O1659  1  0.681000  0.849000  0.930000  1
  O  O1660  1  0.181000  0.151000  0.070000  1
  O  O1661  1  0.181000  0.919000  0.849000  1
  O  O1662  1  0.681000  0.081000  0.151000  1
  O  O1663  1  0.429700  0.725100  0.883900  1
  O  O1664  1  0.929700  0.274900  0.116100  1
  O  O1665  1  0.070300  0.158800  0.883900  1
  O  O1666  1  0.570300  0.841200  0.116100  1
  O  O1667  1  0.570300  0.883900  0.725100  1
  O  O1668  1  0.070300  0.116100  0.274900  1
  O  O1669  1  0.070300  0.725100  0.841200  1
  O  O1670  1  0.570300  0.274900  0.158800  1
  O  O1671  1  0.429700  0.158800  0.274900  1
  O  O1672  1  0.929700  0.841200  0.725100  1
  O  O1673  1  0.929700  0.883900  0.158800  1
  O  O1674  1  0.429700  0.116100  0.841200  1
  O  O1675  1  0.570300  0.274900  0.116100  1
  O  O1676  1  0.070300  0.725100  0.883900  1
  O  O1677  1  0.929700  0.841200  0.116100  1
  O  O1678  1  0.429700  0.158800  0.883900  1
  O  O1679  1  0.429700  0.116100  0.274900  1
  O  O1680  1  0.929700  0.883900  0.725100  1
  O  O1681  1  0.929700  0.274900  0.158800  1
  O  O1682  1  0.429700  0.725100  0.841200  1
  O  O1683  1  0.570300  0.841200  0.725100  1
  O  O1684  1  0.070300  0.158800  0.274900  1
  O  O1685  1  0.070300  0.116100  0.841200  1
  O  O1686  1  0.570300  0.883900  0.158800  1
  O  O1687  1  0.404000  0.776700  0.877600  1
  O  O1688  1  0.904000  0.223300  0.122400  1
  O  O1689  1  0.096000  0.100900  0.877600  1
  O  O1690  1  0.596000  0.899100  0.122400  1
  O  O1691  1  0.596000  0.877600  0.776700  1
  O  O1692  1  0.096000  0.122400  0.223300  1
  O  O1693  1  0.096000  0.776700  0.899100  1
  O  O1694  1  0.596000  0.223300  0.100900  1
  O  O1695  1  0.404000  0.100900  0.223300  1
  O  O1696  1  0.904000  0.899100  0.776700  1
  O  O1697  1  0.904000  0.877600  0.100900  1
  O  O1698  1  0.404000  0.122400  0.899100  1
  O  O1699  1  0.596000  0.223300  0.122400  1
  O  O1700  1  0.096000  0.776700  0.877600  1
  O  O1701  1  0.904000  0.899100  0.122400  1
  O  O1702  1  0.404000  0.100900  0.877600  1
  O  O1703  1  0.404000  0.122400  0.223300  1
  O  O1704  1  0.904000  0.877600  0.776700  1
  O  O1705  1  0.904000  0.223300  0.100900  1
  O  O1706  1  0.404000  0.776700  0.899100  1
  O  O1707  1  0.596000  0.899100  0.776700  1
  O  O1708  1  0.096000  0.100900  0.223300  1
  O  O1709  1  0.096000  0.122400  0.899100  1
  O  O1710  1  0.596000  0.877600  0.100900  1
  O  O1711  1  0.428900  0.721800  0.824600  1
  O  O1712  1  0.928900  0.278200  0.175400  1
  O  O1713  1  0.071100  0.102800  0.824600  1
  O  O1714  1  0.571100  0.897200  0.175400  1
  O  O1715  1  0.571100  0.824600  0.721800  1
  O  O1716  1  0.071100  0.175400  0.278200  1
  O  O1717  1  0.071100  0.721800  0.897200  1
  O  O1718  1  0.571100  0.278200  0.102800  1
  O  O1719  1  0.428900  0.102800  0.278200  1
  O  O1720  1  0.928900  0.897200  0.721800  1
  O  O1721  1  0.928900  0.824600  0.102800  1
  O  O1722  1  0.428900  0.175400  0.897200  1
  O  O1723  1  0.571100  0.278200  0.175400  1
  O  O1724  1  0.071100  0.721800  0.824600  1
  O  O1725  1  0.928900  0.897200  0.175400  1
  O  O1726  1  0.428900  0.102800  0.824600  1
  O  O1727  1  0.428900  0.175400  0.278200  1
  O  O1728  1  0.928900  0.824600  0.721800  1
  O  O1729  1  0.928900  0.278200  0.102800  1
  O  O1730  1  0.428900  0.721800  0.897200  1
  O  O1731  1  0.571100  0.897200  0.721800  1
  O  O1732  1  0.071100  0.102800  0.278200  1
  O  O1733  1  0.071100  0.175400  0.897200  1
  O  O1734  1  0.571100  0.824600  0.102800  1
  O  O1735  1  0.700900  0.856400  0.143500  1
  O  O1736  1  0.200900  0.143600  0.856500  1
  O  O1737  1  0.799100  0.287100  0.143500  1
  O  O1738  1  0.299100  0.712900  0.856500  1
  O  O1739  1  0.299100  0.143500  0.856400  1
  O  O1740  1  0.799100  0.856500  0.143600  1
  O  O1741  1  0.799100  0.856400  0.712900  1
  O  O1742  1  0.299100  0.143600  0.287100  1
  O  O1743  1  0.700900  0.287100  0.143600  1
  O  O1744  1  0.200900  0.712900  0.856400  1
  O  O1745  1  0.200900  0.143500  0.287100  1
  O  O1746  1  0.700900  0.856500  0.712900  1
  O  O1747  1  0.761600  0.895000  0.167500  1
  O  O1748  1  0.261600  0.105000  0.832500  1
  O  O1749  1  0.738400  0.272500  0.167500  1
  O  O1750  1  0.238400  0.727500  0.832500  1
  O  O1751  1  0.238400  0.167500  0.895000  1
  O  O1752  1  0.738400  0.832500  0.105000  1
  O  O1753  1  0.738400  0.895000  0.727500  1
  O  O1754  1  0.238400  0.105000  0.272500  1
  O  O1755  1  0.761600  0.272500  0.105000  1
  O  O1756  1  0.261600  0.727500  0.895000  1
  O  O1757  1  0.261600  0.167500  0.272500  1
  O  O1758  1  0.761600  0.832500  0.727500  1
  O  O1759  1  0.238400  0.105000  0.832500  1
  O  O1760  1  0.738400  0.895000  0.167500  1
  O  O1761  1  0.261600  0.727500  0.832500  1
  O  O1762  1  0.761600  0.272500  0.167500  1
  O  O1763  1  0.761600  0.832500  0.105000  1
  O  O1764  1  0.261600  0.167500  0.895000  1
  O  O1765  1  0.261600  0.105000  0.272500  1
  O  O1766  1  0.761600  0.895000  0.727500  1
  O  O1767  1  0.238400  0.727500  0.895000  1
  O  O1768  1  0.738400  0.272500  0.105000  1
  O  O1769  1  0.738400  0.832500  0.727500  1
  O  O1770  1  0.238400  0.167500  0.272500  1
  O  O1771  1  0.250000  0.853100  0.146800  1
  O  O1772  1  0.750000  0.146900  0.853200  1
  O  O1773  1  0.250000  0.293700  0.146800  1
  O  O1774  1  0.750000  0.706300  0.853200  1
  O  O1775  1  0.250000  0.853100  0.706300  1
  O  O1776  1  0.750000  0.146900  0.293700  1
  O  O1777  1  0.095000  0.512000  0.999000  1
  O  O1778  1  0.595000  0.488000  0.001000  1
  O  O1779  1  0.405000  0.487000  0.999000  1
  O  O1780  1  0.905000  0.513000  0.001000  1
  O  O1781  1  0.905000  0.999000  0.512000  1
  O  O1782  1  0.405000  0.001000  0.488000  1
  O  O1783  1  0.405000  0.512000  0.513000  1
  O  O1784  1  0.905000  0.488000  0.487000  1
  O  O1785  1  0.095000  0.487000  0.488000  1
  O  O1786  1  0.595000  0.513000  0.512000  1
  O  O1787  1  0.595000  0.999000  0.487000  1
  O  O1788  1  0.095000  0.001000  0.513000  1
  O  O1789  1  0.905000  0.488000  0.001000  1
  O  O1790  1  0.405000  0.512000  0.999000  1
  O  O1791  1  0.595000  0.513000  0.001000  1
  O  O1792  1  0.095000  0.487000  0.999000  1
  O  O1793  1  0.095000  0.001000  0.488000  1
  O  O1794  1  0.595000  0.999000  0.512000  1
  O  O1795  1  0.595000  0.488000  0.487000  1
  O  O1796  1  0.095000  0.512000  0.513000  1
  O  O1797  1  0.905000  0.513000  0.512000  1
  O  O1798  1  0.405000  0.487000  0.488000  1
  O  O1799  1  0.405000  0.001000  0.513000  1
  O  O1800  1  0.905000  0.999000  0.487000  1
  O  O1801  1  0.632600  0.743000  0.200700  1.0
  O  O1802  1  0.132600  0.257000  0.799300  1.0
  O  O1803  1  0.867400  0.457700  0.200700  1.0
  O  O1804  1  0.367400  0.542300  0.799300  1.0
  O  O1805  1  0.367400  0.200700  0.743000  1.0
  O  O1806  1  0.867400  0.799300  0.257000  1.0
  O  O1807  1  0.867400  0.743000  0.542300  1.0
  O  O1808  1  0.367400  0.257000  0.457700  1.0
  O  O1809  1  0.632600  0.457700  0.257000  1.0
  O  O1810  1  0.132600  0.542300  0.743000  1.0
  O  O1811  1  0.132600  0.200700  0.457700  1.0
  O  O1812  1  0.632600  0.799300  0.542300  1.0
  O  O1813  1  0.367400  0.257000  0.799300  1.0
  O  O1814  1  0.867400  0.743000  0.200700  1.0
  O  O1815  1  0.132600  0.542300  0.799300  1.0
  O  O1816  1  0.632600  0.457700  0.200700  1.0
  O  O1817  1  0.632600  0.799300  0.257000  1.0
  O  O1818  1  0.132600  0.200700  0.743000  1.0
  O  O1819  1  0.132600  0.257000  0.457700  1.0
  O  O1820  1  0.632600  0.743000  0.542300  1.0
  O  O1821  1  0.367400  0.542300  0.743000  1.0
  O  O1822  1  0.867400  0.457700  0.257000  1.0
  O  O1823  1  0.867400  0.799300  0.542300  1.0
  O  O1824  1  0.367400  0.200700  0.457700  1.0
