# generated using pymatgen
data_B11H248Pd4C272S8N24ClF44
_symmetry_space_group_name_H-M   'P 1'
_cell_length_a   34.85000000
_cell_length_b   37.24300000
_cell_length_c   51.62900000
_cell_angle_alpha   109.94000000
_cell_angle_beta   90.00000000
_cell_angle_gamma   90.00000000
_symmetry_Int_Tables_number   1
_chemical_formula_structural   B11H248Pd4C272S8N24ClF44
_chemical_formula_sum   'B88 H1984 Pd32 C2176 S64 N192 Cl8 F352'
_cell_volume   62992.99108836
_cell_formula_units_Z   8
loop_
 _symmetry_equiv_pos_site_id
 _symmetry_equiv_pos_as_xyz
  1  'x, y, z'
loop_
 _atom_site_type_symbol
 _atom_site_label
 _atom_site_symmetry_multiplicity
 _atom_site_fract_x
 _atom_site_fract_y
 _atom_site_fract_z
 _atom_site_occupancy
  B  B1  1  0.742400  0.850800  0.468100  1
  B  B2  1  0.742400  0.149200  0.031900  1
  B  B3  1  0.242400  0.350800  0.468100  1
  B  B4  1  0.242400  0.649200  0.031900  1
  B  B5  1  0.257600  0.149200  0.531900  1
  B  B6  1  0.257600  0.850800  0.968100  1
  B  B7  1  0.757600  0.649200  0.531900  1
  B  B8  1  0.757600  0.350800  0.968100  1
  B  B9  1  0.476800  0.668500  0.186700  1
  B  B10  1  0.476800  0.331500  0.313300  1
  B  B11  1  0.976800  0.168500  0.186700  1
  B  B12  1  0.976800  0.831500  0.313300  1
  B  B13  1  0.523200  0.331500  0.813300  1
  B  B14  1  0.523200  0.668500  0.686700  1
  B  B15  1  0.023200  0.831500  0.813300  1
  B  B16  1  0.023200  0.168500  0.686700  1
  B  B17  1  0.612600  0.578100  0.891500  1
  B  B18  1  0.612600  0.421900  0.608500  1
  B  B19  1  0.112600  0.078100  0.891500  1
  B  B20  1  0.112600  0.921900  0.608500  1
  B  B21  1  0.387400  0.421900  0.108500  1
  B  B22  1  0.387400  0.578100  0.391500  1
  B  B23  1  0.887400  0.921900  0.108500  1
  B  B24  1  0.887400  0.078100  0.391500  1
  B  B25  1  0.776800  0.852000  0.465000  1
  B  B26  1  0.776800  0.148000  0.035000  1
  B  B27  1  0.276800  0.352000  0.465000  1
  B  B28  1  0.276800  0.648000  0.035000  1
  B  B29  1  0.223200  0.148000  0.535000  1
  B  B30  1  0.223200  0.852000  0.965000  1
  B  B31  1  0.723200  0.648000  0.535000  1
  B  B32  1  0.723200  0.352000  0.965000  1
  B  B33  1  0.703100  0.769600  0.283400  1
  B  B34  1  0.703100  0.230400  0.216600  1
  B  B35  1  0.203100  0.269600  0.283400  1
  B  B36  1  0.203100  0.730400  0.216600  1
  B  B37  1  0.296900  0.230400  0.716600  1
  B  B38  1  0.296900  0.769600  0.783400  1
  B  B39  1  0.796900  0.730400  0.716600  1
  B  B40  1  0.796900  0.269600  0.783400  1
  B  B41  1  0.700600  0.664400  0.096300  1
  B  B42  1  0.700600  0.335600  0.403700  1
  B  B43  1  0.200600  0.164400  0.096300  1
  B  B44  1  0.200600  0.835600  0.403700  1
  B  B45  1  0.299400  0.335600  0.903700  1
  B  B46  1  0.299400  0.664400  0.596300  1
  B  B47  1  0.799400  0.835600  0.903700  1
  B  B48  1  0.799400  0.164400  0.596300  1
  B  B49  1  0.724100  0.674700  0.094800  1
  B  B50  1  0.724100  0.325300  0.405200  1
  B  B51  1  0.224100  0.174700  0.094800  1
  B  B52  1  0.224100  0.825300  0.405200  1
  B  B53  1  0.275900  0.325300  0.905200  1
  B  B54  1  0.275900  0.674700  0.594800  1
  B  B55  1  0.775900  0.825300  0.905200  1
  B  B56  1  0.775900  0.174700  0.594800  1
  B  B57  1  0.713500  0.963200  0.085700  1
  B  B58  1  0.713500  0.036800  0.414300  1
  B  B59  1  0.213500  0.463200  0.085700  1
  B  B60  1  0.213500  0.536800  0.414300  1
  B  B61  1  0.286500  0.036800  0.914300  1
  B  B62  1  0.286500  0.963200  0.585700  1
  B  B63  1  0.786500  0.536800  0.914300  1
  B  B64  1  0.786500  0.463200  0.585700  1
  B  B65  1  0.713900  0.964300  0.092100  1
  B  B66  1  0.713900  0.035700  0.407900  1
  B  B67  1  0.213900  0.464300  0.092100  1
  B  B68  1  0.213900  0.535700  0.407900  1
  B  B69  1  0.286100  0.035700  0.907900  1
  B  B70  1  0.286100  0.964300  0.592100  1
  B  B71  1  0.786100  0.535700  0.907900  1
  B  B72  1  0.786100  0.464300  0.592100  1
  B  B73  1  0.737000  0.938600  0.659800  1
  B  B74  1  0.737000  0.061400  0.840200  1
  B  B75  1  0.237000  0.438600  0.659800  1
  B  B76  1  0.237000  0.561400  0.840200  1
  B  B77  1  0.263000  0.061400  0.340200  1
  B  B78  1  0.263000  0.938600  0.159800  1
  B  B79  1  0.763000  0.561400  0.340200  1
  B  B80  1  0.763000  0.438600  0.159800  1
  B  B81  1  0.750400  0.921700  0.656500  1
  B  B82  1  0.750400  0.078300  0.843500  1
  B  B83  1  0.250400  0.421700  0.656500  1
  B  B84  1  0.250400  0.578300  0.843500  1
  B  B85  1  0.249600  0.078300  0.343500  1
  B  B86  1  0.249600  0.921700  0.156500  1
  B  B87  1  0.749600  0.578300  0.343500  1
  B  B88  1  0.749600  0.421700  0.156500  1
  H  H89  1  0.691100  0.953300  0.392200  1
  H  H90  1  0.691100  0.046700  0.107800  1
  H  H91  1  0.191100  0.453300  0.392200  1
  H  H92  1  0.191100  0.546700  0.107800  1
  H  H93  1  0.308900  0.046700  0.607800  1
  H  H94  1  0.308900  0.953300  0.892200  1
  H  H95  1  0.808900  0.546700  0.607800  1
  H  H96  1  0.808900  0.453300  0.892200  1
  H  H97  1  0.703200  0.961300  0.350200  1
  H  H98  1  0.703200  0.038700  0.149800  1
  H  H99  1  0.203200  0.461300  0.350200  1
  H  H100  1  0.203200  0.538700  0.149800  1
  H  H101  1  0.296800  0.038700  0.649800  1
  H  H102  1  0.296800  0.961300  0.850200  1
  H  H103  1  0.796800  0.538700  0.649800  1
  H  H104  1  0.796800  0.461300  0.850200  1
  H  H105  1  0.738800  0.851700  0.320400  1
  H  H106  1  0.738800  0.148300  0.179600  1
  H  H107  1  0.238800  0.351700  0.320400  1
  H  H108  1  0.238800  0.648300  0.179600  1
  H  H109  1  0.261200  0.148300  0.679600  1
  H  H110  1  0.261200  0.851700  0.820400  1
  H  H111  1  0.761200  0.648300  0.679600  1
  H  H112  1  0.761200  0.351700  0.820400  1
  H  H113  1  0.687800  0.915900  0.420000  1
  H  H114  1  0.687800  0.084100  0.080000  1
  H  H115  1  0.187800  0.415900  0.420000  1
  H  H116  1  0.187800  0.584100  0.080000  1
  H  H117  1  0.312200  0.084100  0.580000  1
  H  H118  1  0.312200  0.915900  0.920000  1
  H  H119  1  0.812200  0.584100  0.580000  1
  H  H120  1  0.812200  0.415900  0.920000  1
  H  H121  1  0.679200  0.871600  0.404100  1
  H  H122  1  0.679200  0.128400  0.095900  1
  H  H123  1  0.179200  0.371600  0.404100  1
  H  H124  1  0.179200  0.628400  0.095900  1
  H  H125  1  0.320800  0.128400  0.595900  1
  H  H126  1  0.320800  0.871600  0.904100  1
  H  H127  1  0.820800  0.628400  0.595900  1
  H  H128  1  0.820800  0.371600  0.904100  1
  H  H129  1  0.721700  0.885200  0.414600  1
  H  H130  1  0.721700  0.114800  0.085400  1
  H  H131  1  0.221700  0.385200  0.414600  1
  H  H132  1  0.221700  0.614800  0.085400  1
  H  H133  1  0.278300  0.114800  0.585400  1
  H  H134  1  0.278300  0.885200  0.914600  1
  H  H135  1  0.778300  0.614800  0.585400  1
  H  H136  1  0.778300  0.385200  0.914600  1
  H  H137  1  0.701800  0.961400  0.263300  1
  H  H138  1  0.701800  0.038600  0.236700  1
  H  H139  1  0.201800  0.461400  0.263300  1
  H  H140  1  0.201800  0.538600  0.236700  1
  H  H141  1  0.298200  0.038600  0.736700  1
  H  H142  1  0.298200  0.961400  0.763300  1
  H  H143  1  0.798200  0.538600  0.736700  1
  H  H144  1  0.798200  0.461400  0.763300  1
  H  H145  1  0.707400  0.968800  0.221000  1
  H  H146  1  0.707400  0.031200  0.279000  1
  H  H147  1  0.207400  0.468800  0.221000  1
  H  H148  1  0.207400  0.531200  0.279000  1
  H  H149  1  0.292600  0.031200  0.779000  1
  H  H150  1  0.292600  0.968800  0.721000  1
  H  H151  1  0.792600  0.531200  0.779000  1
  H  H152  1  0.792600  0.468800  0.721000  1
  H  H153  1  0.725300  0.921800  0.131100  1
  H  H154  1  0.725300  0.078200  0.368900  1
  H  H155  1  0.225300  0.421800  0.131100  1
  H  H156  1  0.225300  0.578200  0.368900  1
  H  H157  1  0.274700  0.078200  0.868900  1
  H  H158  1  0.274700  0.921800  0.631100  1
  H  H159  1  0.774700  0.578200  0.868900  1
  H  H160  1  0.774700  0.421800  0.631100  1
  H  H161  1  0.730600  0.867700  0.091900  1
  H  H162  1  0.730600  0.132300  0.408100  1
  H  H163  1  0.230600  0.367700  0.091900  1
  H  H164  1  0.230600  0.632300  0.408100  1
  H  H165  1  0.269400  0.132300  0.908100  1
  H  H166  1  0.269400  0.867700  0.591900  1
  H  H167  1  0.769400  0.632300  0.908100  1
  H  H168  1  0.769400  0.367700  0.591900  1
  H  H169  1  0.793300  0.814200  0.133600  1
  H  H170  1  0.793300  0.185800  0.366400  1
  H  H171  1  0.293300  0.314200  0.133600  1
  H  H172  1  0.293300  0.685800  0.366400  1
  H  H173  1  0.206700  0.185800  0.866400  1
  H  H174  1  0.206700  0.814200  0.633600  1
  H  H175  1  0.706700  0.685800  0.866400  1
  H  H176  1  0.706700  0.314200  0.633600  1
  H  H177  1  0.777200  0.873300  0.239600  1
  H  H178  1  0.777200  0.126700  0.260400  1
  H  H179  1  0.277200  0.373300  0.239600  1
  H  H180  1  0.277200  0.626700  0.260400  1
  H  H181  1  0.222800  0.126700  0.760400  1
  H  H182  1  0.222800  0.873300  0.739600  1
  H  H183  1  0.722800  0.626700  0.760400  1
  H  H184  1  0.722800  0.373300  0.739600  1
  H  H185  1  0.808900  0.753700  0.022700  1
  H  H186  1  0.808900  0.246300  0.477300  1
  H  H187  1  0.308900  0.253700  0.022700  1
  H  H188  1  0.308900  0.746300  0.477300  1
  H  H189  1  0.191100  0.246300  0.977300  1
  H  H190  1  0.191100  0.753700  0.522700  1
  H  H191  1  0.691100  0.746300  0.977300  1
  H  H192  1  0.691100  0.253700  0.522700  1
  H  H193  1  0.805700  0.700900  0.982500  1
  H  H194  1  0.805700  0.299100  0.517500  1
  H  H195  1  0.305700  0.200900  0.982500  1
  H  H196  1  0.305700  0.799100  0.517500  1
  H  H197  1  0.194300  0.299100  0.017500  1
  H  H198  1  0.194300  0.700900  0.482500  1
  H  H199  1  0.694300  0.799100  0.017500  1
  H  H200  1  0.694300  0.200900  0.482500  1
  H  H201  1  0.780400  0.644800  0.955100  1
  H  H202  1  0.780400  0.355200  0.544900  1
  H  H203  1  0.280400  0.144800  0.955100  1
  H  H204  1  0.280400  0.855200  0.544900  1
  H  H205  1  0.219600  0.355200  0.044900  1
  H  H206  1  0.219600  0.644800  0.455100  1
  H  H207  1  0.719600  0.855200  0.044900  1
  H  H208  1  0.719600  0.144800  0.455100  1
  H  H209  1  0.760300  0.619600  0.971000  1
  H  H210  1  0.760300  0.380400  0.529000  1
  H  H211  1  0.260300  0.119600  0.971000  1
  H  H212  1  0.260300  0.880400  0.529000  1
  H  H213  1  0.239700  0.380400  0.029000  1
  H  H214  1  0.239700  0.619600  0.471000  1
  H  H215  1  0.739700  0.880400  0.029000  1
  H  H216  1  0.739700  0.119600  0.471000  1
  H  H217  1  0.734600  0.642700  0.956300  1
  H  H218  1  0.734600  0.357300  0.543700  1
  H  H219  1  0.234600  0.142700  0.956300  1
  H  H220  1  0.234600  0.857300  0.543700  1
  H  H221  1  0.265400  0.357300  0.043700  1
  H  H222  1  0.265400  0.642700  0.456300  1
  H  H223  1  0.765400  0.857300  0.043700  1
  H  H224  1  0.765400  0.142700  0.456300  1
  H  H225  1  0.713300  0.715700  0.048300  1
  H  H226  1  0.713300  0.284300  0.451700  1
  H  H227  1  0.213300  0.215700  0.048300  1
  H  H228  1  0.213300  0.784300  0.451700  1
  H  H229  1  0.286700  0.284300  0.951700  1
  H  H230  1  0.286700  0.715700  0.548300  1
  H  H231  1  0.786700  0.784300  0.951700  1
  H  H232  1  0.786700  0.215700  0.548300  1
  H  H233  1  0.719000  0.968400  0.168100  1
  H  H234  1  0.719000  0.031600  0.331900  1
  H  H235  1  0.219000  0.468400  0.168100  1
  H  H236  1  0.219000  0.531600  0.331900  1
  H  H237  1  0.281000  0.031600  0.831900  1
  H  H238  1  0.281000  0.968400  0.668100  1
  H  H239  1  0.781000  0.531600  0.831900  1
  H  H240  1  0.781000  0.468400  0.668100  1
  H  H241  1  0.740200  0.989600  0.196700  1
  H  H242  1  0.740200  0.010400  0.303300  1
  H  H243  1  0.240200  0.489600  0.196700  1
  H  H244  1  0.240200  0.510400  0.303300  1
  H  H245  1  0.259800  0.010400  0.803300  1
  H  H246  1  0.259800  0.989600  0.696700  1
  H  H247  1  0.759800  0.510400  0.803300  1
  H  H248  1  0.759800  0.489600  0.696700  1
  H  H249  1  0.765900  0.009200  0.162700  1
  H  H250  1  0.765900  0.990800  0.337300  1
  H  H251  1  0.265900  0.509200  0.162700  1
  H  H252  1  0.265900  0.490800  0.337300  1
  H  H253  1  0.234100  0.990800  0.837300  1
  H  H254  1  0.234100  0.009200  0.662700  1
  H  H255  1  0.734100  0.490800  0.837300  1
  H  H256  1  0.734100  0.509200  0.662700  1
  H  H257  1  0.775500  0.965900  0.144400  1
  H  H258  1  0.775500  0.034100  0.355600  1
  H  H259  1  0.275500  0.465900  0.144400  1
  H  H260  1  0.275500  0.534100  0.355600  1
  H  H261  1  0.224500  0.034100  0.855600  1
  H  H262  1  0.224500  0.965900  0.644400  1
  H  H263  1  0.724500  0.534100  0.855600  1
  H  H264  1  0.724500  0.465900  0.644400  1
  H  H265  1  0.817700  0.961900  0.179400  1
  H  H266  1  0.817700  0.038100  0.320600  1
  H  H267  1  0.317700  0.461900  0.179400  1
  H  H268  1  0.317700  0.538100  0.320600  1
  H  H269  1  0.182300  0.038100  0.820600  1
  H  H270  1  0.182300  0.961900  0.679400  1
  H  H271  1  0.682300  0.538100  0.820600  1
  H  H272  1  0.682300  0.461900  0.679400  1
  H  H273  1  0.831400  0.992700  0.166200  1
  H  H274  1  0.831400  0.007300  0.333800  1
  H  H275  1  0.331400  0.492700  0.166200  1
  H  H276  1  0.331400  0.507300  0.333800  1
  H  H277  1  0.168600  0.007300  0.833800  1
  H  H278  1  0.168600  0.992700  0.666200  1
  H  H279  1  0.668600  0.507300  0.833800  1
  H  H280  1  0.668600  0.492700  0.666200  1
  H  H281  1  0.798500  0.007500  0.218300  1
  H  H282  1  0.798500  0.992500  0.281700  1
  H  H283  1  0.298500  0.507500  0.218300  1
  H  H284  1  0.298500  0.492500  0.281700  1
  H  H285  1  0.201500  0.992500  0.781700  1
  H  H286  1  0.201500  0.007500  0.718300  1
  H  H287  1  0.701500  0.492500  0.781700  1
  H  H288  1  0.701500  0.507500  0.718300  1
  H  H289  1  0.803900  0.040200  0.205000  1
  H  H290  1  0.803900  0.959800  0.295000  1
  H  H291  1  0.303900  0.540200  0.205000  1
  H  H292  1  0.303900  0.459800  0.295000  1
  H  H293  1  0.196100  0.959800  0.795000  1
  H  H294  1  0.196100  0.040200  0.705000  1
  H  H295  1  0.696100  0.459800  0.795000  1
  H  H296  1  0.696100  0.540200  0.705000  1
  H  H297  1  0.870900  0.031100  0.203900  1
  H  H298  1  0.870900  0.968900  0.296100  1
  H  H299  1  0.370900  0.531100  0.203900  1
  H  H300  1  0.370900  0.468900  0.296100  1
  H  H301  1  0.129100  0.968900  0.796100  1
  H  H302  1  0.129100  0.031100  0.703900  1
  H  H303  1  0.629100  0.468900  0.796100  1
  H  H304  1  0.629100  0.531100  0.703900  1
  H  H305  1  0.865600  0.998000  0.216900  1
  H  H306  1  0.865600  0.002000  0.283100  1
  H  H307  1  0.365600  0.498000  0.216900  1
  H  H308  1  0.365600  0.502000  0.283100  1
  H  H309  1  0.134400  0.002000  0.783100  1
  H  H310  1  0.134400  0.998000  0.716900  1
  H  H311  1  0.634400  0.502000  0.783100  1
  H  H312  1  0.634400  0.498000  0.716900  1
  H  H313  1  0.881900  0.057800  0.253500  1
  H  H314  1  0.881900  0.942200  0.246500  1
  H  H315  1  0.381900  0.557800  0.253500  1
  H  H316  1  0.381900  0.442200  0.246500  1
  H  H317  1  0.118100  0.942200  0.746500  1
  H  H318  1  0.118100  0.057800  0.753500  1
  H  H319  1  0.618100  0.442200  0.746500  1
  H  H320  1  0.618100  0.557800  0.753500  1
  H  H321  1  0.845100  0.077900  0.246000  1
  H  H322  1  0.845100  0.922100  0.254000  1
  H  H323  1  0.345100  0.577900  0.246000  1
  H  H324  1  0.345100  0.422100  0.254000  1
  H  H325  1  0.154900  0.922100  0.754000  1
  H  H326  1  0.154900  0.077900  0.746000  1
  H  H327  1  0.654900  0.422100  0.754000  1
  H  H328  1  0.654900  0.577900  0.746000  1
  H  H329  1  0.839800  0.044900  0.259100  1
  H  H330  1  0.839800  0.955100  0.240900  1
  H  H331  1  0.339800  0.544900  0.259100  1
  H  H332  1  0.339800  0.455100  0.240900  1
  H  H333  1  0.160200  0.955100  0.740900  1
  H  H334  1  0.160200  0.044900  0.759100  1
  H  H335  1  0.660200  0.455100  0.740900  1
  H  H336  1  0.660200  0.544900  0.759100  1
  H  H337  1  0.871100  0.865100  0.374200  1
  H  H338  1  0.871100  0.134900  0.125800  1
  H  H339  1  0.371100  0.365100  0.374200  1
  H  H340  1  0.371100  0.634900  0.125800  1
  H  H341  1  0.128900  0.134900  0.625800  1
  H  H342  1  0.128900  0.865100  0.874200  1
  H  H343  1  0.628900  0.634900  0.625800  1
  H  H344  1  0.628900  0.365100  0.874200  1
  H  H345  1  0.892800  0.824000  0.332000  1
  H  H346  1  0.892800  0.176000  0.168000  1
  H  H347  1  0.392800  0.324000  0.332000  1
  H  H348  1  0.392800  0.676000  0.168000  1
  H  H349  1  0.107200  0.176000  0.668000  1
  H  H350  1  0.107200  0.824000  0.832000  1
  H  H351  1  0.607200  0.676000  0.668000  1
  H  H352  1  0.607200  0.324000  0.832000  1
  H  H353  1  0.785300  0.781000  0.316300  1
  H  H354  1  0.785300  0.219000  0.183700  1
  H  H355  1  0.285300  0.281000  0.316300  1
  H  H356  1  0.285300  0.719000  0.183700  1
  H  H357  1  0.214700  0.219000  0.683700  1
  H  H358  1  0.214700  0.781000  0.816300  1
  H  H359  1  0.714700  0.719000  0.683700  1
  H  H360  1  0.714700  0.281000  0.816300  1
  H  H361  1  0.822300  0.891400  0.405900  1
  H  H362  1  0.822300  0.108600  0.094100  1
  H  H363  1  0.322300  0.391400  0.405900  1
  H  H364  1  0.322300  0.608600  0.094100  1
  H  H365  1  0.177700  0.108600  0.594100  1
  H  H366  1  0.177700  0.891400  0.905900  1
  H  H367  1  0.677700  0.608600  0.594100  1
  H  H368  1  0.677700  0.391400  0.905900  1
  H  H369  1  0.781500  0.891200  0.391700  1
  H  H370  1  0.781500  0.108800  0.108300  1
  H  H371  1  0.281500  0.391200  0.391700  1
  H  H372  1  0.281500  0.608800  0.108300  1
  H  H373  1  0.218500  0.108800  0.608300  1
  H  H374  1  0.218500  0.891200  0.891700  1
  H  H375  1  0.718500  0.608800  0.608300  1
  H  H376  1  0.718500  0.391200  0.891700  1
  H  H377  1  0.790000  0.861600  0.407300  1
  H  H378  1  0.790000  0.138400  0.092700  1
  H  H379  1  0.290000  0.361600  0.407300  1
  H  H380  1  0.290000  0.638400  0.092700  1
  H  H381  1  0.210000  0.138400  0.592700  1
  H  H382  1  0.210000  0.861600  0.907300  1
  H  H383  1  0.710000  0.638400  0.592700  1
  H  H384  1  0.710000  0.361600  0.907300  1
  H  H385  1  0.922300  0.773600  0.246600  1
  H  H386  1  0.922300  0.226400  0.253400  1
  H  H387  1  0.422300  0.273600  0.246600  1
  H  H388  1  0.422300  0.726400  0.253400  1
  H  H389  1  0.077700  0.226400  0.753400  1
  H  H390  1  0.077700  0.773600  0.746600  1
  H  H391  1  0.577700  0.726400  0.753400  1
  H  H392  1  0.577700  0.273600  0.746600  1
  H  H393  1  0.949900  0.741900  0.204000  1
  H  H394  1  0.949900  0.258100  0.296000  1
  H  H395  1  0.449900  0.241900  0.204000  1
  H  H396  1  0.449900  0.758100  0.296000  1
  H  H397  1  0.050100  0.258100  0.796000  1
  H  H398  1  0.050100  0.741900  0.704000  1
  H  H399  1  0.550100  0.758100  0.796000  1
  H  H400  1  0.550100  0.241900  0.704000  1
  H  H401  1  0.938200  0.673400  0.116100  1
  H  H402  1  0.938200  0.326600  0.383900  1
  H  H403  1  0.438200  0.173400  0.116100  1
  H  H404  1  0.438200  0.826600  0.383900  1
  H  H405  1  0.061800  0.326600  0.883900  1
  H  H406  1  0.061800  0.673400  0.616100  1
  H  H407  1  0.561800  0.826600  0.883900  1
  H  H408  1  0.561800  0.173400  0.616100  1
  H  H409  1  0.899100  0.644800  0.078600  1
  H  H410  1  0.899100  0.355200  0.421400  1
  H  H411  1  0.399100  0.144800  0.078600  1
  H  H412  1  0.399100  0.855200  0.421400  1
  H  H413  1  0.100900  0.355200  0.921400  1
  H  H414  1  0.100900  0.644800  0.578600  1
  H  H415  1  0.600900  0.855200  0.921400  1
  H  H416  1  0.600900  0.144800  0.578600  1
  H  H417  1  0.823100  0.617300  0.128300  1
  H  H418  1  0.823100  0.382700  0.371700  1
  H  H419  1  0.323100  0.117300  0.128300  1
  H  H420  1  0.323100  0.882700  0.371700  1
  H  H421  1  0.176900  0.382700  0.871700  1
  H  H422  1  0.176900  0.617300  0.628300  1
  H  H423  1  0.676900  0.882700  0.871700  1
  H  H424  1  0.676900  0.117300  0.628300  1
  H  H425  1  0.840300  0.691600  0.231300  1
  H  H426  1  0.840300  0.308400  0.268700  1
  H  H427  1  0.340300  0.191600  0.231300  1
  H  H428  1  0.340300  0.808400  0.268700  1
  H  H429  1  0.159700  0.308400  0.768700  1
  H  H430  1  0.159700  0.691600  0.731300  1
  H  H431  1  0.659700  0.808400  0.768700  1
  H  H432  1  0.659700  0.191600  0.731300  1
  H  H433  1  0.810400  0.535100  0.012000  1
  H  H434  1  0.810400  0.464900  0.488000  1
  H  H435  1  0.310400  0.035100  0.012000  1
  H  H436  1  0.310400  0.964900  0.488000  1
  H  H437  1  0.189600  0.464900  0.988000  1
  H  H438  1  0.189600  0.535100  0.512000  1
  H  H439  1  0.689600  0.964900  0.988000  1
  H  H440  1  0.689600  0.035100  0.512000  1
  H  H441  1  0.768900  0.521100  0.974500  1
  H  H442  1  0.768900  0.478900  0.525500  1
  H  H443  1  0.268900  0.021100  0.974500  1
  H  H444  1  0.268900  0.978900  0.525500  1
  H  H445  1  0.231100  0.478900  0.025500  1
  H  H446  1  0.231100  0.521100  0.474500  1
  H  H447  1  0.731100  0.978900  0.025500  1
  H  H448  1  0.731100  0.021100  0.474500  1
  H  H449  1  0.714200  0.534600  0.952100  1
  H  H450  1  0.714200  0.465400  0.547900  1
  H  H451  1  0.214200  0.034600  0.952100  1
  H  H452  1  0.214200  0.965400  0.547900  1
  H  H453  1  0.285800  0.465400  0.047900  1
  H  H454  1  0.285800  0.534600  0.452100  1
  H  H455  1  0.785800  0.965400  0.047900  1
  H  H456  1  0.785800  0.034600  0.452100  1
  H  H457  1  0.682000  0.558800  0.972800  1
  H  H458  1  0.682000  0.441200  0.527200  1
  H  H459  1  0.182000  0.058800  0.972800  1
  H  H460  1  0.182000  0.941200  0.527200  1
  H  H461  1  0.318000  0.441200  0.027200  1
  H  H462  1  0.318000  0.558800  0.472800  1
  H  H463  1  0.818000  0.941200  0.027200  1
  H  H464  1  0.818000  0.058800  0.472800  1
  H  H465  1  0.709100  0.579100  0.956900  1
  H  H466  1  0.709100  0.420900  0.543100  1
  H  H467  1  0.209100  0.079100  0.956900  1
  H  H468  1  0.209100  0.920900  0.543100  1
  H  H469  1  0.290900  0.420900  0.043100  1
  H  H470  1  0.290900  0.579100  0.456900  1
  H  H471  1  0.790900  0.920900  0.043100  1
  H  H472  1  0.790900  0.079100  0.456900  1
  H  H473  1  0.754100  0.635000  0.045400  1
  H  H474  1  0.754100  0.365000  0.454600  1
  H  H475  1  0.254100  0.135000  0.045400  1
  H  H476  1  0.254100  0.865000  0.454600  1
  H  H477  1  0.245900  0.365000  0.954600  1
  H  H478  1  0.245900  0.635000  0.545400  1
  H  H479  1  0.745900  0.865000  0.954600  1
  H  H480  1  0.745900  0.135000  0.545400  1
  H  H481  1  0.983600  0.696000  0.180700  1
  H  H482  1  0.983600  0.304000  0.319300  1
  H  H483  1  0.483600  0.196000  0.180700  1
  H  H484  1  0.483600  0.804000  0.319300  1
  H  H485  1  0.016400  0.304000  0.819300  1
  H  H486  1  0.016400  0.696000  0.680700  1
  H  H487  1  0.516400  0.804000  0.819300  1
  H  H488  1  0.516400  0.196000  0.680700  1
  H  H489  1  0.972800  0.701400  0.152200  1
  H  H490  1  0.972800  0.298600  0.347800  1
  H  H491  1  0.472800  0.201400  0.152200  1
  H  H492  1  0.472800  0.798600  0.347800  1
  H  H493  1  0.027200  0.298600  0.847800  1
  H  H494  1  0.027200  0.701400  0.652200  1
  H  H495  1  0.527200  0.798600  0.847800  1
  H  H496  1  0.527200  0.201400  0.652200  1
  H  H497  1  0.983100  0.638200  0.128000  1
  H  H498  1  0.983100  0.361800  0.372000  1
  H  H499  1  0.483100  0.138200  0.128000  1
  H  H500  1  0.483100  0.861800  0.372000  1
  H  H501  1  0.016900  0.361800  0.872000  1
  H  H502  1  0.016900  0.638200  0.628000  1
  H  H503  1  0.516900  0.861800  0.872000  1
  H  H504  1  0.516900  0.138200  0.628000  1
  H  H505  1  0.019900  0.654200  0.146700  1
  H  H506  1  0.019900  0.345800  0.353300  1
  H  H507  1  0.519900  0.154200  0.146700  1
  H  H508  1  0.519900  0.845800  0.353300  1
  H  H509  1  0.980100  0.345800  0.853300  1
  H  H510  1  0.980100  0.654200  0.646700  1
  H  H511  1  0.480100  0.845800  0.853300  1
  H  H512  1  0.480100  0.154200  0.646700  1
  H  H513  1  0.002800  0.593100  0.145400  1
  H  H514  1  0.002800  0.406900  0.354600  1
  H  H515  1  0.502800  0.093100  0.145400  1
  H  H516  1  0.502800  0.906900  0.354600  1
  H  H517  1  0.997200  0.406900  0.854600  1
  H  H518  1  0.997200  0.593100  0.645400  1
  H  H519  1  0.497200  0.906900  0.854600  1
  H  H520  1  0.497200  0.093100  0.645400  1
  H  H521  1  0.962600  0.609300  0.159300  1
  H  H522  1  0.962600  0.390700  0.340700  1
  H  H523  1  0.462600  0.109300  0.159300  1
  H  H524  1  0.462600  0.890700  0.340700  1
  H  H525  1  0.037400  0.390700  0.840700  1
  H  H526  1  0.037400  0.609300  0.659300  1
  H  H527  1  0.537400  0.890700  0.840700  1
  H  H528  1  0.537400  0.109300  0.659300  1
  H  H529  1  0.992300  0.644900  0.199700  1
  H  H530  1  0.992300  0.355100  0.300300  1
  H  H531  1  0.492300  0.144900  0.199700  1
  H  H532  1  0.492300  0.855100  0.300300  1
  H  H533  1  0.007700  0.355100  0.800300  1
  H  H534  1  0.007700  0.644900  0.699700  1
  H  H535  1  0.507700  0.855100  0.800300  1
  H  H536  1  0.507700  0.144900  0.699700  1
  H  H537  1  0.033700  0.634300  0.185900  1
  H  H538  1  0.033700  0.365700  0.314100  1
  H  H539  1  0.533700  0.134300  0.185900  1
  H  H540  1  0.533700  0.865700  0.314100  1
  H  H541  1  0.966300  0.365700  0.814100  1
  H  H542  1  0.966300  0.634300  0.685900  1
  H  H543  1  0.466300  0.865700  0.814100  1
  H  H544  1  0.466300  0.134300  0.685900  1
  H  H545  1  0.025200  0.571000  0.183900  1
  H  H546  1  0.025200  0.429000  0.316100  1
  H  H547  1  0.525200  0.071000  0.183900  1
  H  H548  1  0.525200  0.929000  0.316100  1
  H  H549  1  0.974800  0.429000  0.816100  1
  H  H550  1  0.974800  0.571000  0.683900  1
  H  H551  1  0.474800  0.929000  0.816100  1
  H  H552  1  0.474800  0.071000  0.683900  1
  H  H553  1  0.983900  0.581700  0.197800  1
  H  H554  1  0.983900  0.418300  0.302200  1
  H  H555  1  0.483900  0.081700  0.197800  1
  H  H556  1  0.483900  0.918300  0.302200  1
  H  H557  1  0.016100  0.418300  0.802200  1
  H  H558  1  0.016100  0.581700  0.697800  1
  H  H559  1  0.516100  0.918300  0.802200  1
  H  H560  1  0.516100  0.081700  0.697800  1
  H  H561  1  0.029200  0.579000  0.231600  1
  H  H562  1  0.029200  0.421000  0.268400  1
  H  H563  1  0.529200  0.079000  0.231600  1
  H  H564  1  0.529200  0.921000  0.268400  1
  H  H565  1  0.970800  0.421000  0.768400  1
  H  H566  1  0.970800  0.579000  0.731600  1
  H  H567  1  0.470800  0.921000  0.768400  1
  H  H568  1  0.470800  0.079000  0.731600  1
  H  H569  1  0.054900  0.611000  0.225800  1
  H  H570  1  0.054900  0.389000  0.274200  1
  H  H571  1  0.554900  0.111000  0.225800  1
  H  H572  1  0.554900  0.889000  0.274200  1
  H  H573  1  0.945100  0.389000  0.774200  1
  H  H574  1  0.945100  0.611000  0.725800  1
  H  H575  1  0.445100  0.889000  0.774200  1
  H  H576  1  0.445100  0.111000  0.725800  1
  H  H577  1  0.013500  0.621800  0.239700  1
  H  H578  1  0.013500  0.378200  0.260300  1
  H  H579  1  0.513500  0.121800  0.239700  1
  H  H580  1  0.513500  0.878200  0.260300  1
  H  H581  1  0.986500  0.378200  0.760300  1
  H  H582  1  0.986500  0.621800  0.739700  1
  H  H583  1  0.486500  0.878200  0.760300  1
  H  H584  1  0.486500  0.121800  0.739700  1
  H  H585  1  0.795500  0.707200  0.385300  1
  H  H586  1  0.795500  0.292800  0.114700  1
  H  H587  1  0.295500  0.207200  0.385300  1
  H  H588  1  0.295500  0.792800  0.114700  1
  H  H589  1  0.204500  0.292800  0.614700  1
  H  H590  1  0.204500  0.707200  0.885300  1
  H  H591  1  0.704500  0.792800  0.614700  1
  H  H592  1  0.704500  0.207200  0.885300  1
  H  H593  1  0.767700  0.658600  0.348700  1
  H  H594  1  0.767700  0.341400  0.151300  1
  H  H595  1  0.267700  0.158600  0.348700  1
  H  H596  1  0.267700  0.841400  0.151300  1
  H  H597  1  0.232300  0.341400  0.651300  1
  H  H598  1  0.232300  0.658600  0.848700  1
  H  H599  1  0.732300  0.841400  0.651300  1
  H  H600  1  0.732300  0.158600  0.848700  1
  H  H601  1  0.715600  0.739400  0.325600  1
  H  H602  1  0.715600  0.260600  0.174400  1
  H  H603  1  0.215600  0.239400  0.325600  1
  H  H604  1  0.215600  0.760600  0.174400  1
  H  H605  1  0.284400  0.260600  0.674400  1
  H  H606  1  0.284400  0.739400  0.825600  1
  H  H607  1  0.784400  0.760600  0.674400  1
  H  H608  1  0.784400  0.239400  0.825600  1
  H  H609  1  0.804700  0.772200  0.410800  1
  H  H610  1  0.804700  0.227800  0.089200  1
  H  H611  1  0.304700  0.272200  0.410800  1
  H  H612  1  0.304700  0.727800  0.089200  1
  H  H613  1  0.195300  0.227800  0.589200  1
  H  H614  1  0.195300  0.772200  0.910800  1
  H  H615  1  0.695300  0.727800  0.589200  1
  H  H616  1  0.695300  0.272200  0.910800  1
  H  H617  1  0.803900  0.799000  0.392300  1
  H  H618  1  0.803900  0.201000  0.107700  1
  H  H619  1  0.303900  0.299000  0.392300  1
  H  H620  1  0.303900  0.701000  0.107700  1
  H  H621  1  0.196100  0.201000  0.607700  1
  H  H622  1  0.196100  0.799000  0.892300  1
  H  H623  1  0.696100  0.701000  0.607700  1
  H  H624  1  0.696100  0.299000  0.892300  1
  H  H625  1  0.768100  0.798500  0.411600  1
  H  H626  1  0.768100  0.201500  0.088400  1
  H  H627  1  0.268100  0.298500  0.411600  1
  H  H628  1  0.268100  0.701500  0.088400  1
  H  H629  1  0.231900  0.201500  0.588400  1
  H  H630  1  0.231900  0.798500  0.911600  1
  H  H631  1  0.731900  0.701500  0.588400  1
  H  H632  1  0.731900  0.298500  0.911600  1
  H  H633  1  0.729200  0.568800  0.271400  1
  H  H634  1  0.729200  0.431200  0.228600  1
  H  H635  1  0.229200  0.068800  0.271400  1
  H  H636  1  0.229200  0.931200  0.228600  1
  H  H637  1  0.270800  0.431200  0.728600  1
  H  H638  1  0.270800  0.568800  0.771400  1
  H  H639  1  0.770800  0.931200  0.728600  1
  H  H640  1  0.770800  0.068800  0.771400  1
  H  H641  1  0.711900  0.521400  0.229800  1
  H  H642  1  0.711900  0.478600  0.270200  1
  H  H643  1  0.211900  0.021400  0.229800  1
  H  H644  1  0.211900  0.978600  0.270200  1
  H  H645  1  0.288100  0.478600  0.770200  1
  H  H646  1  0.288100  0.521400  0.729800  1
  H  H647  1  0.788100  0.978600  0.770200  1
  H  H648  1  0.788100  0.021400  0.729800  1
  H  H649  1  0.684100  0.488900  0.142100  1
  H  H650  1  0.684100  0.511100  0.357900  1
  H  H651  1  0.184100  0.988900  0.142100  1
  H  H652  1  0.184100  0.011100  0.357900  1
  H  H653  1  0.315900  0.511100  0.857900  1
  H  H654  1  0.315900  0.488900  0.642100  1
  H  H655  1  0.815900  0.011100  0.857900  1
  H  H656  1  0.815900  0.988900  0.642100  1
  H  H657  1  0.674300  0.505200  0.103000  1
  H  H658  1  0.674300  0.494800  0.397000  1
  H  H659  1  0.174300  0.005200  0.103000  1
  H  H660  1  0.174300  0.994800  0.397000  1
  H  H661  1  0.325700  0.494800  0.897000  1
  H  H662  1  0.325700  0.505200  0.603000  1
  H  H663  1  0.825700  0.994800  0.897000  1
  H  H664  1  0.825700  0.005200  0.603000  1
  H  H665  1  0.623600  0.604200  0.149300  1
  H  H666  1  0.623600  0.395800  0.350700  1
  H  H667  1  0.123600  0.104200  0.149300  1
  H  H668  1  0.123600  0.895800  0.350700  1
  H  H669  1  0.376400  0.395800  0.850700  1
  H  H670  1  0.376400  0.604200  0.649300  1
  H  H671  1  0.876400  0.895800  0.850700  1
  H  H672  1  0.876400  0.104200  0.649300  1
  H  H673  1  0.661700  0.644300  0.251900  1
  H  H674  1  0.661700  0.355700  0.248100  1
  H  H675  1  0.161700  0.144300  0.251900  1
  H  H676  1  0.161700  0.855700  0.248100  1
  H  H677  1  0.338300  0.355700  0.748100  1
  H  H678  1  0.338300  0.644300  0.751900  1
  H  H679  1  0.838300  0.855700  0.748100  1
  H  H680  1  0.838300  0.144300  0.751900  1
  H  H681  1  0.581500  0.544000  0.038500  1
  H  H682  1  0.581500  0.456000  0.461500  1
  H  H683  1  0.081500  0.044000  0.038500  1
  H  H684  1  0.081500  0.956000  0.461500  1
  H  H685  1  0.418500  0.456000  0.961500  1
  H  H686  1  0.418500  0.544000  0.538500  1
  H  H687  1  0.918500  0.956000  0.961500  1
  H  H688  1  0.918500  0.044000  0.538500  1
  H  H689  1  0.573600  0.554500  0.996900  1
  H  H690  1  0.573600  0.445500  0.503100  1
  H  H691  1  0.073600  0.054500  0.996900  1
  H  H692  1  0.073600  0.945500  0.503100  1
  H  H693  1  0.426400  0.445500  0.003100  1
  H  H694  1  0.426400  0.554500  0.496900  1
  H  H695  1  0.926400  0.945500  0.003100  1
  H  H696  1  0.926400  0.054500  0.496900  1
  H  H697  1  0.593000  0.583100  0.965200  1
  H  H698  1  0.593000  0.416900  0.534800  1
  H  H699  1  0.093000  0.083100  0.965200  1
  H  H700  1  0.093000  0.916900  0.534800  1
  H  H701  1  0.407000  0.416900  0.034800  1
  H  H702  1  0.407000  0.583100  0.465200  1
  H  H703  1  0.907000  0.916900  0.034800  1
  H  H704  1  0.907000  0.083100  0.465200  1
  H  H705  1  0.611500  0.624600  0.979500  1
  H  H706  1  0.611500  0.375400  0.520500  1
  H  H707  1  0.111500  0.124600  0.979500  1
  H  H708  1  0.111500  0.875400  0.520500  1
  H  H709  1  0.388500  0.375400  0.020500  1
  H  H710  1  0.388500  0.624600  0.479500  1
  H  H711  1  0.888500  0.875400  0.020500  1
  H  H712  1  0.888500  0.124600  0.479500  1
  H  H713  1  0.638300  0.589100  0.963500  1
  H  H714  1  0.638300  0.410900  0.536500  1
  H  H715  1  0.138300  0.089100  0.963500  1
  H  H716  1  0.138300  0.910900  0.536500  1
  H  H717  1  0.361700  0.410900  0.036500  1
  H  H718  1  0.361700  0.589100  0.463500  1
  H  H719  1  0.861700  0.910900  0.036500  1
  H  H720  1  0.861700  0.089100  0.463500  1
  H  H721  1  0.674900  0.610800  0.053600  1
  H  H722  1  0.674900  0.389200  0.446400  1
  H  H723  1  0.174900  0.110800  0.053600  1
  H  H724  1  0.174900  0.889200  0.446400  1
  H  H725  1  0.325100  0.389200  0.946400  1
  H  H726  1  0.325100  0.610800  0.553600  1
  H  H727  1  0.825100  0.889200  0.946400  1
  H  H728  1  0.825100  0.110800  0.553600  1
  H  H729  1  0.689600  0.477800  0.195300  1
  H  H730  1  0.689600  0.522200  0.304700  1
  H  H731  1  0.189600  0.977800  0.195300  1
  H  H732  1  0.189600  0.022200  0.304700  1
  H  H733  1  0.310400  0.522200  0.804700  1
  H  H734  1  0.310400  0.477800  0.695300  1
  H  H735  1  0.810400  0.022200  0.804700  1
  H  H736  1  0.810400  0.977800  0.695300  1
  H  H737  1  0.661500  0.468700  0.169200  1
  H  H738  1  0.661500  0.531300  0.330800  1
  H  H739  1  0.161500  0.968700  0.169200  1
  H  H740  1  0.161500  0.031300  0.330800  1
  H  H741  1  0.338500  0.531300  0.830800  1
  H  H742  1  0.338500  0.468700  0.669200  1
  H  H743  1  0.838500  0.031300  0.830800  1
  H  H744  1  0.838500  0.968700  0.669200  1
  H  H745  1  0.639000  0.486200  0.225600  1
  H  H746  1  0.639000  0.513800  0.274400  1
  H  H747  1  0.139000  0.986200  0.225600  1
  H  H748  1  0.139000  0.013800  0.274400  1
  H  H749  1  0.361000  0.513800  0.774400  1
  H  H750  1  0.361000  0.486200  0.725600  1
  H  H751  1  0.861000  0.013800  0.774400  1
  H  H752  1  0.861000  0.986200  0.725600  1
  H  H753  1  0.608700  0.490000  0.203400  1
  H  H754  1  0.608700  0.510000  0.296600  1
  H  H755  1  0.108700  0.990000  0.203400  1
  H  H756  1  0.108700  0.010000  0.296600  1
  H  H757  1  0.391300  0.510000  0.796600  1
  H  H758  1  0.391300  0.490000  0.703400  1
  H  H759  1  0.891300  0.010000  0.796600  1
  H  H760  1  0.891300  0.990000  0.703400  1
  H  H761  1  0.646300  0.419100  0.197200  1
  H  H762  1  0.646300  0.580900  0.302800  1
  H  H763  1  0.146300  0.919100  0.197200  1
  H  H764  1  0.146300  0.080900  0.302800  1
  H  H765  1  0.353700  0.580900  0.802800  1
  H  H766  1  0.353700  0.419100  0.697200  1
  H  H767  1  0.853700  0.080900  0.802800  1
  H  H768  1  0.853700  0.919100  0.697200  1
  H  H769  1  0.609800  0.424800  0.179700  1
  H  H770  1  0.609800  0.575200  0.320300  1
  H  H771  1  0.109800  0.924800  0.179700  1
  H  H772  1  0.109800  0.075200  0.320300  1
  H  H773  1  0.390200  0.575200  0.820300  1
  H  H774  1  0.390200  0.424800  0.679700  1
  H  H775  1  0.890200  0.075200  0.820300  1
  H  H776  1  0.890200  0.924800  0.679700  1
  H  H777  1  0.611300  0.445700  0.238700  1
  H  H778  1  0.611300  0.554300  0.261300  1
  H  H779  1  0.111300  0.945700  0.238700  1
  H  H780  1  0.111300  0.054300  0.261300  1
  H  H781  1  0.388700  0.554300  0.761300  1
  H  H782  1  0.388700  0.445700  0.738700  1
  H  H783  1  0.888700  0.054300  0.761300  1
  H  H784  1  0.888700  0.945700  0.738700  1
  H  H785  1  0.575600  0.453600  0.222200  1
  H  H786  1  0.575600  0.546400  0.277800  1
  H  H787  1  0.075600  0.953600  0.222200  1
  H  H788  1  0.075600  0.046400  0.277800  1
  H  H789  1  0.424400  0.546400  0.777800  1
  H  H790  1  0.424400  0.453600  0.722200  1
  H  H791  1  0.924400  0.046400  0.777800  1
  H  H792  1  0.924400  0.953600  0.722200  1
  H  H793  1  0.598400  0.381600  0.222700  1
  H  H794  1  0.598400  0.618400  0.277300  1
  H  H795  1  0.098400  0.881600  0.222700  1
  H  H796  1  0.098400  0.118400  0.277300  1
  H  H797  1  0.401600  0.618400  0.777300  1
  H  H798  1  0.401600  0.381600  0.722700  1
  H  H799  1  0.901600  0.118400  0.777300  1
  H  H800  1  0.901600  0.881600  0.722700  1
  H  H801  1  0.563600  0.388300  0.204600  1
  H  H802  1  0.563600  0.611700  0.295400  1
  H  H803  1  0.063600  0.888300  0.204600  1
  H  H804  1  0.063600  0.111700  0.295400  1
  H  H805  1  0.436400  0.611700  0.795400  1
  H  H806  1  0.436400  0.388300  0.704600  1
  H  H807  1  0.936400  0.111700  0.795400  1
  H  H808  1  0.936400  0.888300  0.704600  1
  H  H809  1  0.539100  0.382400  0.246200  1
  H  H810  1  0.539100  0.617600  0.253800  1
  H  H811  1  0.039100  0.882400  0.246200  1
  H  H812  1  0.039100  0.117600  0.253800  1
  H  H813  1  0.460900  0.617600  0.753800  1
  H  H814  1  0.460900  0.382400  0.746200  1
  H  H815  1  0.960900  0.117600  0.753800  1
  H  H816  1  0.960900  0.882400  0.746200  1
  H  H817  1  0.564800  0.417800  0.264100  1
  H  H818  1  0.564800  0.582200  0.235900  1
  H  H819  1  0.064800  0.917800  0.264100  1
  H  H820  1  0.064800  0.082200  0.235900  1
  H  H821  1  0.435200  0.582200  0.735900  1
  H  H822  1  0.435200  0.417800  0.764100  1
  H  H823  1  0.935200  0.082200  0.735900  1
  H  H824  1  0.935200  0.917800  0.764100  1
  H  H825  1  0.530100  0.424400  0.246000  1
  H  H826  1  0.530100  0.575600  0.254000  1
  H  H827  1  0.030100  0.924400  0.246000  1
  H  H828  1  0.030100  0.075600  0.254000  1
  H  H829  1  0.469900  0.575600  0.754000  1
  H  H830  1  0.469900  0.424400  0.746000  1
  H  H831  1  0.969900  0.075600  0.754000  1
  H  H832  1  0.969900  0.924400  0.746000  1
  H  H833  1  0.609400  0.783600  0.399500  1
  H  H834  1  0.609400  0.216400  0.100500  1
  H  H835  1  0.109400  0.283600  0.399500  1
  H  H836  1  0.109400  0.716400  0.100500  1
  H  H837  1  0.390600  0.216400  0.600500  1
  H  H838  1  0.390600  0.783600  0.899500  1
  H  H839  1  0.890600  0.716400  0.600500  1
  H  H840  1  0.890600  0.283600  0.899500  1
  H  H841  1  0.572300  0.783000  0.361100  1
  H  H842  1  0.572300  0.217000  0.138900  1
  H  H843  1  0.072300  0.283000  0.361100  1
  H  H844  1  0.072300  0.717000  0.138900  1
  H  H845  1  0.427700  0.217000  0.638900  1
  H  H846  1  0.427700  0.783000  0.861100  1
  H  H847  1  0.927700  0.717000  0.638900  1
  H  H848  1  0.927700  0.283000  0.861100  1
  H  H849  1  0.668100  0.810300  0.328300  1
  H  H850  1  0.668100  0.189700  0.171700  1
  H  H851  1  0.168100  0.310300  0.328300  1
  H  H852  1  0.168100  0.689700  0.171700  1
  H  H853  1  0.331900  0.189700  0.671700  1
  H  H854  1  0.331900  0.810300  0.828300  1
  H  H855  1  0.831900  0.689700  0.671700  1
  H  H856  1  0.831900  0.310300  0.828300  1
  H  H857  1  0.669400  0.790300  0.422500  1
  H  H858  1  0.669400  0.209700  0.077500  1
  H  H859  1  0.169400  0.290300  0.422500  1
  H  H860  1  0.169400  0.709700  0.077500  1
  H  H861  1  0.330600  0.209700  0.577500  1
  H  H862  1  0.330600  0.790300  0.922500  1
  H  H863  1  0.830600  0.709700  0.577500  1
  H  H864  1  0.830600  0.290300  0.922500  1
  H  H865  1  0.705100  0.777000  0.402000  1
  H  H866  1  0.705100  0.223000  0.098000  1
  H  H867  1  0.205100  0.277000  0.402000  1
  H  H868  1  0.205100  0.723000  0.098000  1
  H  H869  1  0.294900  0.223000  0.598000  1
  H  H870  1  0.294900  0.777000  0.902000  1
  H  H871  1  0.794900  0.723000  0.598000  1
  H  H872  1  0.794900  0.277000  0.902000  1
  H  H873  1  0.697000  0.821600  0.417300  1
  H  H874  1  0.697000  0.178400  0.082700  1
  H  H875  1  0.197000  0.321600  0.417300  1
  H  H876  1  0.197000  0.678400  0.082700  1
  H  H877  1  0.303000  0.178400  0.582700  1
  H  H878  1  0.303000  0.821600  0.917300  1
  H  H879  1  0.803000  0.678400  0.582700  1
  H  H880  1  0.803000  0.321600  0.917300  1
  H  H881  1  0.514400  0.758700  0.278000  1
  H  H882  1  0.514400  0.241300  0.222000  1
  H  H883  1  0.014400  0.258700  0.278000  1
  H  H884  1  0.014400  0.741300  0.222000  1
  H  H885  1  0.485600  0.241300  0.722000  1
  H  H886  1  0.485600  0.758700  0.778000  1
  H  H887  1  0.985600  0.741300  0.722000  1
  H  H888  1  0.985600  0.258700  0.778000  1
  H  H889  1  0.479700  0.755000  0.239000  1
  H  H890  1  0.479700  0.245000  0.261000  1
  H  H891  1  0.979700  0.255000  0.239000  1
  H  H892  1  0.979700  0.745000  0.261000  1
  H  H893  1  0.520300  0.245000  0.761000  1
  H  H894  1  0.520300  0.755000  0.739000  1
  H  H895  1  0.020300  0.745000  0.761000  1
  H  H896  1  0.020300  0.255000  0.739000  1
  H  H897  1  0.472500  0.737500  0.151100  1
  H  H898  1  0.472500  0.262500  0.348900  1
  H  H899  1  0.972500  0.237500  0.151100  1
  H  H900  1  0.972500  0.762500  0.348900  1
  H  H901  1  0.527500  0.262500  0.848900  1
  H  H902  1  0.527500  0.737500  0.651100  1
  H  H903  1  0.027500  0.762500  0.848900  1
  H  H904  1  0.027500  0.237500  0.651100  1
  H  H905  1  0.503800  0.722700  0.108500  1
  H  H906  1  0.503800  0.277300  0.391500  1
  H  H907  1  0.003800  0.222700  0.108500  1
  H  H908  1  0.003800  0.777300  0.391500  1
  H  H909  1  0.496200  0.277300  0.891500  1
  H  H910  1  0.496200  0.722700  0.608500  1
  H  H911  1  0.996200  0.777300  0.891500  1
  H  H912  1  0.996200  0.222700  0.608500  1
  H  H913  1  0.594800  0.787000  0.146600  1
  H  H914  1  0.594800  0.213000  0.353400  1
  H  H915  1  0.094800  0.287000  0.146600  1
  H  H916  1  0.094800  0.713000  0.353400  1
  H  H917  1  0.405200  0.213000  0.853400  1
  H  H918  1  0.405200  0.787000  0.646600  1
  H  H919  1  0.905200  0.713000  0.853400  1
  H  H920  1  0.905200  0.287000  0.646600  1
  H  H921  1  0.599000  0.814100  0.253000  1
  H  H922  1  0.599000  0.185900  0.247000  1
  H  H923  1  0.099000  0.314100  0.253000  1
  H  H924  1  0.099000  0.685900  0.247000  1
  H  H925  1  0.401000  0.185900  0.747000  1
  H  H926  1  0.401000  0.814100  0.753000  1
  H  H927  1  0.901000  0.685900  0.747000  1
  H  H928  1  0.901000  0.314100  0.753000  1
  H  H929  1  0.571500  0.754600  0.031400  1
  H  H930  1  0.571500  0.245400  0.468600  1
  H  H931  1  0.071500  0.254600  0.031400  1
  H  H932  1  0.071500  0.745400  0.468600  1
  H  H933  1  0.428500  0.245400  0.968600  1
  H  H934  1  0.428500  0.754600  0.531400  1
  H  H935  1  0.928500  0.745400  0.968600  1
  H  H936  1  0.928500  0.254600  0.531400  1
  H  H937  1  0.599700  0.730900  0.987900  1
  H  H938  1  0.599700  0.269100  0.512100  1
  H  H939  1  0.099700  0.230900  0.987900  1
  H  H940  1  0.099700  0.769100  0.512100  1
  H  H941  1  0.400300  0.269100  0.012100  1
  H  H942  1  0.400300  0.730900  0.487900  1
  H  H943  1  0.900300  0.769100  0.012100  1
  H  H944  1  0.900300  0.230900  0.487900  1
  H  H945  1  0.643500  0.692200  0.956800  1
  H  H946  1  0.643500  0.307800  0.543200  1
  H  H947  1  0.143500  0.192200  0.956800  1
  H  H948  1  0.143500  0.807800  0.543200  1
  H  H949  1  0.356500  0.307800  0.043200  1
  H  H950  1  0.356500  0.692200  0.456800  1
  H  H951  1  0.856500  0.807800  0.043200  1
  H  H952  1  0.856500  0.192200  0.456800  1
  H  H953  1  0.682600  0.685200  0.970600  1
  H  H954  1  0.682600  0.314800  0.529400  1
  H  H955  1  0.182600  0.185200  0.970600  1
  H  H956  1  0.182600  0.814800  0.529400  1
  H  H957  1  0.317400  0.314800  0.029400  1
  H  H958  1  0.317400  0.685200  0.470600  1
  H  H959  1  0.817400  0.814800  0.029400  1
  H  H960  1  0.817400  0.185200  0.470600  1
  H  H961  1  0.651100  0.652000  0.960900  1
  H  H962  1  0.651100  0.348000  0.539100  1
  H  H963  1  0.151100  0.152000  0.960900  1
  H  H964  1  0.151100  0.848000  0.539100  1
  H  H965  1  0.348900  0.348000  0.039100  1
  H  H966  1  0.348900  0.652000  0.460900  1
  H  H967  1  0.848900  0.848000  0.039100  1
  H  H968  1  0.848900  0.152000  0.460900  1
  H  H969  1  0.640000  0.683400  0.054600  1
  H  H970  1  0.640000  0.316600  0.445400  1
  H  H971  1  0.140000  0.183400  0.054600  1
  H  H972  1  0.140000  0.816600  0.445400  1
  H  H973  1  0.360000  0.316600  0.945400  1
  H  H974  1  0.360000  0.683400  0.554600  1
  H  H975  1  0.860000  0.816600  0.945400  1
  H  H976  1  0.860000  0.183400  0.554600  1
  H  H977  1  0.442700  0.780800  0.182100  1
  H  H978  1  0.442700  0.219200  0.317900  1
  H  H979  1  0.942700  0.280800  0.182100  1
  H  H980  1  0.942700  0.719200  0.317900  1
  H  H981  1  0.557300  0.219200  0.817900  1
  H  H982  1  0.557300  0.780800  0.682100  1
  H  H983  1  0.057300  0.719200  0.817900  1
  H  H984  1  0.057300  0.280800  0.682100  1
  H  H985  1  0.444200  0.756000  0.202100  1
  H  H986  1  0.444200  0.244000  0.297900  1
  H  H987  1  0.944200  0.256000  0.202100  1
  H  H988  1  0.944200  0.744000  0.297900  1
  H  H989  1  0.555800  0.244000  0.797900  1
  H  H990  1  0.555800  0.756000  0.702100  1
  H  H991  1  0.055800  0.744000  0.797900  1
  H  H992  1  0.055800  0.256000  0.702100  1
  H  H993  1  0.407400  0.807800  0.223400  1
  H  H994  1  0.407400  0.192200  0.276600  1
  H  H995  1  0.907400  0.307800  0.223400  1
  H  H996  1  0.907400  0.692200  0.276600  1
  H  H997  1  0.592600  0.192200  0.776600  1
  H  H998  1  0.592600  0.807800  0.723400  1
  H  H999  1  0.092600  0.692200  0.776600  1
  H  H1000  1  0.092600  0.307800  0.723400  1
  H  H1001  1  0.446500  0.813100  0.240300  1
  H  H1002  1  0.446500  0.186900  0.259700  1
  H  H1003  1  0.946500  0.313100  0.240300  1
  H  H1004  1  0.946500  0.686900  0.259700  1
  H  H1005  1  0.553500  0.186900  0.759700  1
  H  H1006  1  0.553500  0.813100  0.740300  1
  H  H1007  1  0.053500  0.686900  0.759700  1
  H  H1008  1  0.053500  0.313100  0.740300  1
  H  H1009  1  0.428500  0.850700  0.203200  1
  H  H1010  1  0.428500  0.149300  0.296800  1
  H  H1011  1  0.928500  0.350700  0.203200  1
  H  H1012  1  0.928500  0.649300  0.296800  1
  H  H1013  1  0.571500  0.149300  0.796800  1
  H  H1014  1  0.571500  0.850700  0.703200  1
  H  H1015  1  0.071500  0.649300  0.796800  1
  H  H1016  1  0.071500  0.350700  0.703200  1
  H  H1017  1  0.467600  0.856100  0.220300  1
  H  H1018  1  0.467600  0.143900  0.279700  1
  H  H1019  1  0.967600  0.356100  0.220300  1
  H  H1020  1  0.967600  0.643900  0.279700  1
  H  H1021  1  0.532400  0.143900  0.779700  1
  H  H1022  1  0.532400  0.856100  0.720300  1
  H  H1023  1  0.032400  0.643900  0.779700  1
  H  H1024  1  0.032400  0.356100  0.720300  1
  H  H1025  1  0.393300  0.878200  0.244900  1
  H  H1026  1  0.393300  0.121800  0.255100  1
  H  H1027  1  0.893300  0.378200  0.244900  1
  H  H1028  1  0.893300  0.621800  0.255100  1
  H  H1029  1  0.606700  0.121800  0.755100  1
  H  H1030  1  0.606700  0.878200  0.744900  1
  H  H1031  1  0.106700  0.621800  0.755100  1
  H  H1032  1  0.106700  0.378200  0.744900  1
  H  H1033  1  0.432000  0.882800  0.262400  1
  H  H1034  1  0.432000  0.117200  0.237600  1
  H  H1035  1  0.932000  0.382800  0.262400  1
  H  H1036  1  0.932000  0.617200  0.237600  1
  H  H1037  1  0.568000  0.117200  0.737600  1
  H  H1038  1  0.568000  0.882800  0.762400  1
  H  H1039  1  0.068000  0.617200  0.737600  1
  H  H1040  1  0.068000  0.382800  0.762400  1
  H  H1041  1  0.415000  0.922500  0.225500  1
  H  H1042  1  0.415000  0.077500  0.274500  1
  H  H1043  1  0.915000  0.422500  0.225500  1
  H  H1044  1  0.915000  0.577500  0.274500  1
  H  H1045  1  0.585000  0.077500  0.774500  1
  H  H1046  1  0.585000  0.922500  0.725500  1
  H  H1047  1  0.085000  0.577500  0.774500  1
  H  H1048  1  0.085000  0.422500  0.725500  1
  H  H1049  1  0.455100  0.925800  0.241000  1
  H  H1050  1  0.455100  0.074200  0.259000  1
  H  H1051  1  0.955100  0.425800  0.241000  1
  H  H1052  1  0.955100  0.574200  0.259000  1
  H  H1053  1  0.544900  0.074200  0.759000  1
  H  H1054  1  0.544900  0.925800  0.741000  1
  H  H1055  1  0.044900  0.574200  0.759000  1
  H  H1056  1  0.044900  0.425800  0.741000  1
  H  H1057  1  0.417300  0.979900  0.263300  1
  H  H1058  1  0.417300  0.020100  0.236700  1
  H  H1059  1  0.917300  0.479900  0.263300  1
  H  H1060  1  0.917300  0.520100  0.236700  1
  H  H1061  1  0.582700  0.020100  0.736700  1
  H  H1062  1  0.582700  0.979900  0.763300  1
  H  H1063  1  0.082700  0.520100  0.736700  1
  H  H1064  1  0.082700  0.479900  0.763300  1
  H  H1065  1  0.384000  0.953400  0.268300  1
  H  H1066  1  0.384000  0.046600  0.231700  1
  H  H1067  1  0.884000  0.453400  0.268300  1
  H  H1068  1  0.884000  0.546600  0.231700  1
  H  H1069  1  0.616000  0.046600  0.731700  1
  H  H1070  1  0.616000  0.953400  0.768300  1
  H  H1071  1  0.116000  0.546600  0.731700  1
  H  H1072  1  0.116000  0.453400  0.768300  1
  H  H1073  1  0.424300  0.956700  0.283900  1
  H  H1074  1  0.424300  0.043300  0.216100  1
  H  H1075  1  0.924300  0.456700  0.283900  1
  H  H1076  1  0.924300  0.543300  0.216100  1
  H  H1077  1  0.575700  0.043300  0.716100  1
  H  H1078  1  0.575700  0.956700  0.783900  1
  H  H1079  1  0.075700  0.543300  0.716100  1
  H  H1080  1  0.075700  0.456700  0.783900  1
  H  H1081  1  0.749600  0.770700  0.568700  1
  H  H1082  1  0.749600  0.229300  0.931300  1
  H  H1083  1  0.249600  0.270700  0.568700  1
  H  H1084  1  0.249600  0.729300  0.931300  1
  H  H1085  1  0.250400  0.229300  0.431300  1
  H  H1086  1  0.250400  0.770700  0.068700  1
  H  H1087  1  0.750400  0.729300  0.431300  1
  H  H1088  1  0.750400  0.270700  0.068700  1
  H  H1089  1  0.713000  0.739500  0.529600  1
  H  H1090  1  0.713000  0.260500  0.970400  1
  H  H1091  1  0.213000  0.239500  0.529600  1
  H  H1092  1  0.213000  0.760500  0.970400  1
  H  H1093  1  0.287000  0.260500  0.470400  1
  H  H1094  1  0.287000  0.739500  0.029600  1
  H  H1095  1  0.787000  0.760500  0.470400  1
  H  H1096  1  0.787000  0.239500  0.029600  1
  H  H1097  1  0.711800  0.838800  0.513800  1
  H  H1098  1  0.711800  0.161200  0.986200  1
  H  H1099  1  0.211800  0.338800  0.513800  1
  H  H1100  1  0.211800  0.661200  0.986200  1
  H  H1101  1  0.288200  0.161200  0.486200  1
  H  H1102  1  0.288200  0.838800  0.013800  1
  H  H1103  1  0.788200  0.661200  0.486200  1
  H  H1104  1  0.788200  0.338800  0.013800  1
  H  H1105  1  0.777700  0.825500  0.599600  1
  H  H1106  1  0.777700  0.174500  0.900400  1
  H  H1107  1  0.277700  0.325500  0.599600  1
  H  H1108  1  0.277700  0.674500  0.900400  1
  H  H1109  1  0.222300  0.174500  0.400400  1
  H  H1110  1  0.222300  0.825500  0.099600  1
  H  H1111  1  0.722300  0.674500  0.400400  1
  H  H1112  1  0.722300  0.325500  0.099600  1
  H  H1113  1  0.796000  0.853100  0.585000  1
  H  H1114  1  0.796000  0.146900  0.915000  1
  H  H1115  1  0.296000  0.353100  0.585000  1
  H  H1116  1  0.296000  0.646900  0.915000  1
  H  H1117  1  0.204000  0.146900  0.415000  1
  H  H1118  1  0.204000  0.853100  0.085000  1
  H  H1119  1  0.704000  0.646900  0.415000  1
  H  H1120  1  0.704000  0.353100  0.085000  1
  H  H1121  1  0.756300  0.864400  0.601400  1
  H  H1122  1  0.756300  0.135600  0.898600  1
  H  H1123  1  0.256300  0.364400  0.601400  1
  H  H1124  1  0.256300  0.635600  0.898600  1
  H  H1125  1  0.243700  0.135600  0.398600  1
  H  H1126  1  0.243700  0.864400  0.101400  1
  H  H1127  1  0.743700  0.635600  0.398600  1
  H  H1128  1  0.743700  0.364400  0.101400  1
  H  H1129  1  0.586500  0.748700  0.474800  1
  H  H1130  1  0.586500  0.251300  0.025200  1
  H  H1131  1  0.086500  0.248700  0.474800  1
  H  H1132  1  0.086500  0.751300  0.025200  1
  H  H1133  1  0.413500  0.251300  0.525200  1
  H  H1134  1  0.413500  0.748700  0.974800  1
  H  H1135  1  0.913500  0.751300  0.525200  1
  H  H1136  1  0.913500  0.248700  0.974800  1
  H  H1137  1  0.545100  0.721400  0.437900  1
  H  H1138  1  0.545100  0.278600  0.062100  1
  H  H1139  1  0.045100  0.221400  0.437900  1
  H  H1140  1  0.045100  0.778600  0.062100  1
  H  H1141  1  0.454900  0.278600  0.562100  1
  H  H1142  1  0.454900  0.721400  0.937900  1
  H  H1143  1  0.954900  0.778600  0.562100  1
  H  H1144  1  0.954900  0.221400  0.937900  1
  H  H1145  1  0.516300  0.696000  0.349700  1
  H  H1146  1  0.516300  0.304000  0.150300  1
  H  H1147  1  0.016300  0.196000  0.349700  1
  H  H1148  1  0.016300  0.804000  0.150300  1
  H  H1149  1  0.483700  0.304000  0.650300  1
  H  H1150  1  0.483700  0.696000  0.849700  1
  H  H1151  1  0.983700  0.804000  0.650300  1
  H  H1152  1  0.983700  0.196000  0.849700  1
  H  H1153  1  0.532200  0.700500  0.306900  1
  H  H1154  1  0.532200  0.299500  0.193100  1
  H  H1155  1  0.032200  0.200500  0.306900  1
  H  H1156  1  0.032200  0.799500  0.193100  1
  H  H1157  1  0.467800  0.299500  0.693100  1
  H  H1158  1  0.467800  0.700500  0.806900  1
  H  H1159  1  0.967800  0.799500  0.693100  1
  H  H1160  1  0.967800  0.200500  0.806900  1
  H  H1161  1  0.644400  0.688900  0.321200  1
  H  H1162  1  0.644400  0.311100  0.178800  1
  H  H1163  1  0.144400  0.188900  0.321200  1
  H  H1164  1  0.144400  0.811100  0.178800  1
  H  H1165  1  0.355600  0.311100  0.678800  1
  H  H1166  1  0.355600  0.688900  0.821200  1
  H  H1167  1  0.855600  0.811100  0.678800  1
  H  H1168  1  0.855600  0.188900  0.821200  1
  H  H1169  1  0.677800  0.721200  0.423000  1
  H  H1170  1  0.677800  0.278800  0.077000  1
  H  H1171  1  0.177800  0.221200  0.423000  1
  H  H1172  1  0.177800  0.778800  0.077000  1
  H  H1173  1  0.322200  0.278800  0.577000  1
  H  H1174  1  0.322200  0.721200  0.923000  1
  H  H1175  1  0.822200  0.778800  0.577000  1
  H  H1176  1  0.822200  0.221200  0.923000  1
  H  H1177  1  0.561100  0.694800  0.219100  1
  H  H1178  1  0.561100  0.305200  0.280900  1
  H  H1179  1  0.061100  0.194800  0.219100  1
  H  H1180  1  0.061100  0.805200  0.280900  1
  H  H1181  1  0.438900  0.305200  0.780900  1
  H  H1182  1  0.438900  0.694800  0.719100  1
  H  H1183  1  0.938900  0.805200  0.780900  1
  H  H1184  1  0.938900  0.194800  0.719100  1
  H  H1185  1  0.575900  0.706900  0.178900  1
  H  H1186  1  0.575900  0.293100  0.321100  1
  H  H1187  1  0.075900  0.206900  0.178900  1
  H  H1188  1  0.075900  0.793100  0.321100  1
  H  H1189  1  0.424100  0.293100  0.821100  1
  H  H1190  1  0.424100  0.706900  0.678900  1
  H  H1191  1  0.924100  0.793100  0.821100  1
  H  H1192  1  0.924100  0.206900  0.678900  1
  H  H1193  1  0.619600  0.722600  0.150300  1
  H  H1194  1  0.619600  0.277400  0.349700  1
  H  H1195  1  0.119600  0.222600  0.150300  1
  H  H1196  1  0.119600  0.777400  0.349700  1
  H  H1197  1  0.380400  0.277400  0.849700  1
  H  H1198  1  0.380400  0.722600  0.650300  1
  H  H1199  1  0.880400  0.777400  0.849700  1
  H  H1200  1  0.880400  0.222600  0.650300  1
  H  H1201  1  0.651800  0.752300  0.166700  1
  H  H1202  1  0.651800  0.247700  0.333300  1
  H  H1203  1  0.151800  0.252300  0.166700  1
  H  H1204  1  0.151800  0.747700  0.333300  1
  H  H1205  1  0.348200  0.247700  0.833300  1
  H  H1206  1  0.348200  0.752300  0.666700  1
  H  H1207  1  0.848200  0.747700  0.833300  1
  H  H1208  1  0.848200  0.252300  0.666700  1
  H  H1209  1  0.662500  0.708200  0.151900  1
  H  H1210  1  0.662500  0.291800  0.348100  1
  H  H1211  1  0.162500  0.208200  0.151900  1
  H  H1212  1  0.162500  0.791800  0.348100  1
  H  H1213  1  0.337500  0.291800  0.848100  1
  H  H1214  1  0.337500  0.708200  0.651900  1
  H  H1215  1  0.837500  0.791800  0.848100  1
  H  H1216  1  0.837500  0.208200  0.651900  1
  H  H1217  1  0.670900  0.717300  0.243300  1
  H  H1218  1  0.670900  0.282700  0.256700  1
  H  H1219  1  0.170900  0.217300  0.243300  1
  H  H1220  1  0.170900  0.782700  0.256700  1
  H  H1221  1  0.329100  0.282700  0.756700  1
  H  H1222  1  0.329100  0.717300  0.743300  1
  H  H1223  1  0.829100  0.782700  0.756700  1
  H  H1224  1  0.829100  0.217300  0.743300  1
  H  H1225  1  0.504400  0.689000  0.387500  1
  H  H1226  1  0.504400  0.311000  0.112500  1
  H  H1227  1  0.004400  0.189000  0.387500  1
  H  H1228  1  0.004400  0.811000  0.112500  1
  H  H1229  1  0.495600  0.311000  0.612500  1
  H  H1230  1  0.495600  0.689000  0.887500  1
  H  H1231  1  0.995600  0.811000  0.612500  1
  H  H1232  1  0.995600  0.189000  0.887500  1
  H  H1233  1  0.521300  0.671900  0.409700  1
  H  H1234  1  0.521300  0.328100  0.090300  1
  H  H1235  1  0.021300  0.171900  0.409700  1
  H  H1236  1  0.021300  0.828100  0.090300  1
  H  H1237  1  0.478700  0.328100  0.590300  1
  H  H1238  1  0.478700  0.671900  0.909700  1
  H  H1239  1  0.978700  0.828100  0.590300  1
  H  H1240  1  0.978700  0.171900  0.909700  1
  H  H1241  1  0.488700  0.624600  0.372200  1
  H  H1242  1  0.488700  0.375400  0.127800  1
  H  H1243  1  0.988700  0.124600  0.372200  1
  H  H1244  1  0.988700  0.875400  0.127800  1
  H  H1245  1  0.511300  0.375400  0.627800  1
  H  H1246  1  0.511300  0.624600  0.872200  1
  H  H1247  1  0.011300  0.875400  0.627800  1
  H  H1248  1  0.011300  0.124600  0.872200  1
  H  H1249  1  0.520600  0.630100  0.351600  1
  H  H1250  1  0.520600  0.369900  0.148400  1
  H  H1251  1  0.020600  0.130100  0.351600  1
  H  H1252  1  0.020600  0.869900  0.148400  1
  H  H1253  1  0.479400  0.369900  0.648400  1
  H  H1254  1  0.479400  0.630100  0.851600  1
  H  H1255  1  0.979400  0.869900  0.648400  1
  H  H1256  1  0.979400  0.130100  0.851600  1
  H  H1257  1  0.537100  0.603100  0.395800  1
  H  H1258  1  0.537100  0.396900  0.104200  1
  H  H1259  1  0.037100  0.103100  0.395800  1
  H  H1260  1  0.037100  0.896900  0.104200  1
  H  H1261  1  0.462900  0.396900  0.604200  1
  H  H1262  1  0.462900  0.603100  0.895800  1
  H  H1263  1  0.962900  0.896900  0.604200  1
  H  H1264  1  0.962900  0.103100  0.895800  1
  H  H1265  1  0.567900  0.607000  0.374100  1
  H  H1266  1  0.567900  0.393000  0.125900  1
  H  H1267  1  0.067900  0.107000  0.374100  1
  H  H1268  1  0.067900  0.893000  0.125900  1
  H  H1269  1  0.432100  0.393000  0.625900  1
  H  H1270  1  0.432100  0.607000  0.874100  1
  H  H1271  1  0.932100  0.893000  0.625900  1
  H  H1272  1  0.932100  0.107000  0.874100  1
  H  H1273  1  0.507500  0.552700  0.362000  1
  H  H1274  1  0.507500  0.447300  0.138000  1
  H  H1275  1  0.007500  0.052700  0.362000  1
  H  H1276  1  0.007500  0.947300  0.138000  1
  H  H1277  1  0.492500  0.447300  0.638000  1
  H  H1278  1  0.492500  0.552700  0.862000  1
  H  H1279  1  0.992500  0.947300  0.638000  1
  H  H1280  1  0.992500  0.052700  0.862000  1
  H  H1281  1  0.535800  0.557500  0.339200  1
  H  H1282  1  0.535800  0.442500  0.160800  1
  H  H1283  1  0.035800  0.057500  0.339200  1
  H  H1284  1  0.035800  0.942500  0.160800  1
  H  H1285  1  0.464200  0.442500  0.660800  1
  H  H1286  1  0.464200  0.557500  0.839200  1
  H  H1287  1  0.964200  0.942500  0.660800  1
  H  H1288  1  0.964200  0.057500  0.839200  1
  H  H1289  1  0.558600  0.530000  0.382000  1
  H  H1290  1  0.558600  0.470000  0.118000  1
  H  H1291  1  0.058600  0.030000  0.382000  1
  H  H1292  1  0.058600  0.970000  0.118000  1
  H  H1293  1  0.441400  0.470000  0.618000  1
  H  H1294  1  0.441400  0.530000  0.882000  1
  H  H1295  1  0.941400  0.970000  0.618000  1
  H  H1296  1  0.941400  0.030000  0.882000  1
  H  H1297  1  0.587100  0.534800  0.359000  1
  H  H1298  1  0.587100  0.465200  0.141000  1
  H  H1299  1  0.087100  0.034800  0.359000  1
  H  H1300  1  0.087100  0.965200  0.141000  1
  H  H1301  1  0.412900  0.465200  0.641000  1
  H  H1302  1  0.412900  0.534800  0.859000  1
  H  H1303  1  0.912900  0.965200  0.641000  1
  H  H1304  1  0.912900  0.034800  0.859000  1
  H  H1305  1  0.565500  0.468600  0.345000  1
  H  H1306  1  0.565500  0.531400  0.155000  1
  H  H1307  1  0.065500  0.968600  0.345000  1
  H  H1308  1  0.065500  0.031400  0.155000  1
  H  H1309  1  0.434500  0.531400  0.655000  1
  H  H1310  1  0.434500  0.468600  0.845000  1
  H  H1311  1  0.934500  0.031400  0.655000  1
  H  H1312  1  0.934500  0.968600  0.845000  1
  H  H1313  1  0.521800  0.482300  0.346100  1
  H  H1314  1  0.521800  0.517700  0.153900  1
  H  H1315  1  0.021800  0.982300  0.346100  1
  H  H1316  1  0.021800  0.017700  0.153900  1
  H  H1317  1  0.478200  0.517700  0.653900  1
  H  H1318  1  0.478200  0.482300  0.846100  1
  H  H1319  1  0.978200  0.017700  0.653900  1
  H  H1320  1  0.978200  0.982300  0.846100  1
  H  H1321  1  0.550300  0.487100  0.323100  1
  H  H1322  1  0.550300  0.512900  0.176900  1
  H  H1323  1  0.050300  0.987100  0.323100  1
  H  H1324  1  0.050300  0.012900  0.176900  1
  H  H1325  1  0.449700  0.512900  0.676900  1
  H  H1326  1  0.449700  0.487100  0.823100  1
  H  H1327  1  0.949700  0.012900  0.676900  1
  H  H1328  1  0.949700  0.987100  0.823100  1
  H  H1329  1  0.895800  0.885400  0.576600  1
  H  H1330  1  0.895800  0.114600  0.923400  1
  H  H1331  1  0.395800  0.385400  0.576600  1
  H  H1332  1  0.395800  0.614600  0.923400  1
  H  H1333  1  0.104200  0.114600  0.423400  1
  H  H1334  1  0.104200  0.885400  0.076600  1
  H  H1335  1  0.604200  0.614600  0.423400  1
  H  H1336  1  0.604200  0.385400  0.076600  1
  H  H1337  1  0.910700  0.838900  0.534700  1
  H  H1338  1  0.910700  0.161100  0.965300  1
  H  H1339  1  0.410700  0.338900  0.534700  1
  H  H1340  1  0.410700  0.661100  0.965300  1
  H  H1341  1  0.089300  0.161100  0.465300  1
  H  H1342  1  0.089300  0.838900  0.034700  1
  H  H1343  1  0.589300  0.661100  0.465300  1
  H  H1344  1  0.589300  0.338900  0.034700  1
  H  H1345  1  0.801100  0.843000  0.510900  1
  H  H1346  1  0.801100  0.157000  0.989100  1
  H  H1347  1  0.301100  0.343000  0.510900  1
  H  H1348  1  0.301100  0.657000  0.989100  1
  H  H1349  1  0.198900  0.157000  0.489100  1
  H  H1350  1  0.198900  0.843000  0.010900  1
  H  H1351  1  0.698900  0.657000  0.489100  1
  H  H1352  1  0.698900  0.343000  0.010900  1
  H  H1353  1  0.852000  0.927100  0.607100  1
  H  H1354  1  0.852000  0.072900  0.892900  1
  H  H1355  1  0.352000  0.427100  0.607100  1
  H  H1356  1  0.352000  0.572900  0.892900  1
  H  H1357  1  0.148000  0.072900  0.392900  1
  H  H1358  1  0.148000  0.927100  0.107100  1
  H  H1359  1  0.648000  0.572900  0.392900  1
  H  H1360  1  0.648000  0.427100  0.107100  1
  H  H1361  1  0.821200  0.944500  0.591700  1
  H  H1362  1  0.821200  0.055500  0.908300  1
  H  H1363  1  0.321200  0.444500  0.591700  1
  H  H1364  1  0.321200  0.555500  0.908300  1
  H  H1365  1  0.178800  0.055500  0.408300  1
  H  H1366  1  0.178800  0.944500  0.091700  1
  H  H1367  1  0.678800  0.555500  0.408300  1
  H  H1368  1  0.678800  0.444500  0.091700  1
  H  H1369  1  0.808600  0.912100  0.603900  1
  H  H1370  1  0.808600  0.087900  0.896100  1
  H  H1371  1  0.308600  0.412100  0.603900  1
  H  H1372  1  0.308600  0.587900  0.896100  1
  H  H1373  1  0.191400  0.087900  0.396100  1
  H  H1374  1  0.191400  0.912100  0.103900  1
  H  H1375  1  0.691400  0.587900  0.396100  1
  H  H1376  1  0.691400  0.412100  0.103900  1
  H  H1377  1  0.883800  0.709100  0.462000  1
  H  H1378  1  0.883800  0.290900  0.038000  1
  H  H1379  1  0.383800  0.209100  0.462000  1
  H  H1380  1  0.383800  0.790900  0.038000  1
  H  H1381  1  0.116200  0.290900  0.538000  1
  H  H1382  1  0.116200  0.709100  0.962000  1
  H  H1383  1  0.616200  0.790900  0.538000  1
  H  H1384  1  0.616200  0.209100  0.962000  1
  H  H1385  1  0.889600  0.658200  0.421100  1
  H  H1386  1  0.889600  0.341800  0.078900  1
  H  H1387  1  0.389600  0.158200  0.421100  1
  H  H1388  1  0.389600  0.841800  0.078900  1
  H  H1389  1  0.110400  0.341800  0.578900  1
  H  H1390  1  0.110400  0.658200  0.921100  1
  H  H1391  1  0.610400  0.841800  0.578900  1
  H  H1392  1  0.610400  0.158200  0.921100  1
  H  H1393  1  0.859000  0.603300  0.333100  1
  H  H1394  1  0.859000  0.396700  0.166900  1
  H  H1395  1  0.359000  0.103300  0.333100  1
  H  H1396  1  0.359000  0.896700  0.166900  1
  H  H1397  1  0.141000  0.396700  0.666900  1
  H  H1398  1  0.141000  0.603300  0.833100  1
  H  H1399  1  0.641000  0.896700  0.666900  1
  H  H1400  1  0.641000  0.103300  0.833100  1
  H  H1401  1  0.825400  0.603200  0.294500  1
  H  H1402  1  0.825400  0.396800  0.205500  1
  H  H1403  1  0.325400  0.103200  0.294500  1
  H  H1404  1  0.325400  0.896800  0.205500  1
  H  H1405  1  0.174600  0.396800  0.705500  1
  H  H1406  1  0.174600  0.603200  0.794500  1
  H  H1407  1  0.674600  0.896800  0.705500  1
  H  H1408  1  0.674600  0.103200  0.794500  1
  H  H1409  1  0.840200  0.718200  0.316600  1
  H  H1410  1  0.840200  0.281800  0.183400  1
  H  H1411  1  0.340200  0.218200  0.316600  1
  H  H1412  1  0.340200  0.781800  0.183400  1
  H  H1413  1  0.159800  0.281800  0.683400  1
  H  H1414  1  0.159800  0.718200  0.816600  1
  H  H1415  1  0.659800  0.781800  0.683400  1
  H  H1416  1  0.659800  0.218200  0.816600  1
  H  H1417  1  0.872400  0.782100  0.420100  1
  H  H1418  1  0.872400  0.217900  0.079900  1
  H  H1419  1  0.372400  0.282100  0.420100  1
  H  H1420  1  0.372400  0.717900  0.079900  1
  H  H1421  1  0.127600  0.217900  0.579900  1
  H  H1422  1  0.127600  0.782100  0.920100  1
  H  H1423  1  0.627600  0.717900  0.579900  1
  H  H1424  1  0.627600  0.282100  0.920100  1
  H  H1425  1  0.768500  0.596700  0.216400  1
  H  H1426  1  0.768500  0.403300  0.283600  1
  H  H1427  1  0.268500  0.096700  0.216400  1
  H  H1428  1  0.268500  0.903300  0.283600  1
  H  H1429  1  0.231500  0.403300  0.783600  1
  H  H1430  1  0.231500  0.596700  0.716400  1
  H  H1431  1  0.731500  0.903300  0.783600  1
  H  H1432  1  0.731500  0.096700  0.716400  1
  H  H1433  1  0.734800  0.593700  0.177000  1
  H  H1434  1  0.734800  0.406300  0.323000  1
  H  H1435  1  0.234800  0.093700  0.177000  1
  H  H1436  1  0.234800  0.906300  0.323000  1
  H  H1437  1  0.265200  0.406300  0.823000  1
  H  H1438  1  0.265200  0.593700  0.677000  1
  H  H1439  1  0.765200  0.906300  0.823000  1
  H  H1440  1  0.765200  0.093700  0.677000  1
  H  H1441  1  0.700200  0.621600  0.150600  1
  H  H1442  1  0.700200  0.378400  0.349400  1
  H  H1443  1  0.200200  0.121600  0.150600  1
  H  H1444  1  0.200200  0.878400  0.349400  1
  H  H1445  1  0.299800  0.378400  0.849400  1
  H  H1446  1  0.299800  0.621600  0.650600  1
  H  H1447  1  0.799800  0.878400  0.849400  1
  H  H1448  1  0.799800  0.121600  0.650600  1
  H  H1449  1  0.677500  0.659500  0.168100  1
  H  H1450  1  0.677500  0.340500  0.331900  1
  H  H1451  1  0.177500  0.159500  0.168100  1
  H  H1452  1  0.177500  0.840500  0.331900  1
  H  H1453  1  0.322500  0.340500  0.831900  1
  H  H1454  1  0.322500  0.659500  0.668100  1
  H  H1455  1  0.822500  0.840500  0.831900  1
  H  H1456  1  0.822500  0.159500  0.668100  1
  H  H1457  1  0.715900  0.662500  0.151900  1
  H  H1458  1  0.715900  0.337500  0.348100  1
  H  H1459  1  0.215900  0.162500  0.151900  1
  H  H1460  1  0.215900  0.837500  0.348100  1
  H  H1461  1  0.284100  0.337500  0.848100  1
  H  H1462  1  0.284100  0.662500  0.651900  1
  H  H1463  1  0.784100  0.837500  0.848100  1
  H  H1464  1  0.784100  0.162500  0.651900  1
  H  H1465  1  0.761300  0.711100  0.241300  1
  H  H1466  1  0.761300  0.288900  0.258700  1
  H  H1467  1  0.261300  0.211100  0.241300  1
  H  H1468  1  0.261300  0.788900  0.258700  1
  H  H1469  1  0.238700  0.288900  0.758700  1
  H  H1470  1  0.238700  0.711100  0.741300  1
  H  H1471  1  0.738700  0.788900  0.758700  1
  H  H1472  1  0.738700  0.211100  0.741300  1
  H  H1473  1  0.893700  0.604100  0.368300  1
  H  H1474  1  0.893700  0.395900  0.131700  1
  H  H1475  1  0.393700  0.104100  0.368300  1
  H  H1476  1  0.393700  0.895900  0.131700  1
  H  H1477  1  0.106300  0.395900  0.631700  1
  H  H1478  1  0.106300  0.604100  0.868300  1
  H  H1479  1  0.606300  0.895900  0.631700  1
  H  H1480  1  0.606300  0.104100  0.868300  1
  H  H1481  1  0.926200  0.629500  0.388100  1
  H  H1482  1  0.926200  0.370500  0.111900  1
  H  H1483  1  0.426200  0.129500  0.388100  1
  H  H1484  1  0.426200  0.870500  0.111900  1
  H  H1485  1  0.073800  0.370500  0.611900  1
  H  H1486  1  0.073800  0.629500  0.888100  1
  H  H1487  1  0.573800  0.870500  0.611900  1
  H  H1488  1  0.573800  0.129500  0.888100  1
  H  H1489  1  0.953500  0.586600  0.346200  1
  H  H1490  1  0.953500  0.413400  0.153800  1
  H  H1491  1  0.453500  0.086600  0.346200  1
  H  H1492  1  0.453500  0.913400  0.153800  1
  H  H1493  1  0.046500  0.413400  0.653800  1
  H  H1494  1  0.046500  0.586600  0.846200  1
  H  H1495  1  0.546500  0.913400  0.653800  1
  H  H1496  1  0.546500  0.086600  0.846200  1
  H  H1497  1  0.929100  0.607600  0.329000  1
  H  H1498  1  0.929100  0.392400  0.171000  1
  H  H1499  1  0.429100  0.107600  0.329000  1
  H  H1500  1  0.429100  0.892400  0.171000  1
  H  H1501  1  0.070900  0.392400  0.671000  1
  H  H1502  1  0.070900  0.607600  0.829000  1
  H  H1503  1  0.570900  0.892400  0.671000  1
  H  H1504  1  0.570900  0.107600  0.829000  1
  H  H1505  1  0.980800  0.640200  0.335400  1
  H  H1506  1  0.980800  0.359800  0.164600  1
  H  H1507  1  0.480800  0.140200  0.335400  1
  H  H1508  1  0.480800  0.859800  0.164600  1
  H  H1509  1  0.019200  0.359800  0.664600  1
  H  H1510  1  0.019200  0.640200  0.835400  1
  H  H1511  1  0.519200  0.859800  0.664600  1
  H  H1512  1  0.519200  0.140200  0.835400  1
  H  H1513  1  0.954600  0.665600  0.359500  1
  H  H1514  1  0.954600  0.334400  0.140500  1
  H  H1515  1  0.454600  0.165600  0.359500  1
  H  H1516  1  0.454600  0.834400  0.140500  1
  H  H1517  1  0.045400  0.334400  0.640500  1
  H  H1518  1  0.045400  0.665600  0.859500  1
  H  H1519  1  0.545400  0.834400  0.640500  1
  H  H1520  1  0.545400  0.165600  0.859500  1
  H  H1521  1  0.994700  0.672100  0.389100  1
  H  H1522  1  0.994700  0.327900  0.110900  1
  H  H1523  1  0.494700  0.172100  0.389100  1
  H  H1524  1  0.494700  0.827900  0.110900  1
  H  H1525  1  0.005300  0.327900  0.610900  1
  H  H1526  1  0.005300  0.672100  0.889100  1
  H  H1527  1  0.505300  0.827900  0.610900  1
  H  H1528  1  0.505300  0.172100  0.889100  1
  H  H1529  1  0.021300  0.666600  0.363200  1
  H  H1530  1  0.021300  0.333400  0.136800  1
  H  H1531  1  0.521300  0.166600  0.363200  1
  H  H1532  1  0.521300  0.833400  0.136800  1
  H  H1533  1  0.978700  0.333400  0.636800  1
  H  H1534  1  0.978700  0.666600  0.863200  1
  H  H1535  1  0.478700  0.833400  0.636800  1
  H  H1536  1  0.478700  0.166600  0.863200  1
  H  H1537  1  0.038700  0.606700  0.363800  1
  H  H1538  1  0.038700  0.393300  0.136200  1
  H  H1539  1  0.538700  0.106700  0.363800  1
  H  H1540  1  0.538700  0.893300  0.136200  1
  H  H1541  1  0.961300  0.393300  0.636200  1
  H  H1542  1  0.961300  0.606700  0.863800  1
  H  H1543  1  0.461300  0.893300  0.636200  1
  H  H1544  1  0.461300  0.106700  0.863800  1
  H  H1545  1  0.013400  0.614400  0.390900  1
  H  H1546  1  0.013400  0.385600  0.109100  1
  H  H1547  1  0.513400  0.114400  0.390900  1
  H  H1548  1  0.513400  0.885600  0.109100  1
  H  H1549  1  0.986600  0.385600  0.609100  1
  H  H1550  1  0.986600  0.614400  0.890900  1
  H  H1551  1  0.486600  0.885600  0.609100  1
  H  H1552  1  0.486600  0.114400  0.890900  1
  H  H1553  1  0.079200  0.625500  0.403100  1
  H  H1554  1  0.079200  0.374500  0.096900  1
  H  H1555  1  0.579200  0.125500  0.403100  1
  H  H1556  1  0.579200  0.874500  0.096900  1
  H  H1557  1  0.920800  0.374500  0.596900  1
  H  H1558  1  0.920800  0.625500  0.903100  1
  H  H1559  1  0.420800  0.874500  0.596900  1
  H  H1560  1  0.420800  0.125500  0.903100  1
  H  H1561  1  0.081600  0.657100  0.388600  1
  H  H1562  1  0.081600  0.342900  0.111400  1
  H  H1563  1  0.581600  0.157100  0.388600  1
  H  H1564  1  0.581600  0.842900  0.111400  1
  H  H1565  1  0.918400  0.342900  0.611400  1
  H  H1566  1  0.918400  0.657100  0.888600  1
  H  H1567  1  0.418400  0.842900  0.611400  1
  H  H1568  1  0.418400  0.157100  0.888600  1
  H  H1569  1  0.056300  0.664800  0.415800  1
  H  H1570  1  0.056300  0.335200  0.084200  1
  H  H1571  1  0.556300  0.164800  0.415800  1
  H  H1572  1  0.556300  0.835200  0.084200  1
  H  H1573  1  0.943700  0.335200  0.584200  1
  H  H1574  1  0.943700  0.664800  0.915800  1
  H  H1575  1  0.443700  0.835200  0.584200  1
  H  H1576  1  0.443700  0.164800  0.915800  1
  H  H1577  1  0.617100  0.917200  0.579000  1
  H  H1578  1  0.617100  0.082800  0.921000  1
  H  H1579  1  0.117100  0.417200  0.579000  1
  H  H1580  1  0.117100  0.582800  0.921000  1
  H  H1581  1  0.382900  0.082800  0.421000  1
  H  H1582  1  0.382900  0.917200  0.079000  1
  H  H1583  1  0.882900  0.582800  0.421000  1
  H  H1584  1  0.882900  0.417200  0.079000  1
  H  H1585  1  0.597700  0.933400  0.540800  1
  H  H1586  1  0.597700  0.066600  0.959200  1
  H  H1587  1  0.097700  0.433400  0.540800  1
  H  H1588  1  0.097700  0.566600  0.959200  1
  H  H1589  1  0.402300  0.066600  0.459200  1
  H  H1590  1  0.402300  0.933400  0.040800  1
  H  H1591  1  0.902300  0.566600  0.459200  1
  H  H1592  1  0.902300  0.433400  0.040800  1
  H  H1593  1  0.708700  0.922100  0.516500  1
  H  H1594  1  0.708700  0.077900  0.983500  1
  H  H1595  1  0.208700  0.422100  0.516500  1
  H  H1596  1  0.208700  0.577900  0.983500  1
  H  H1597  1  0.291300  0.077900  0.483500  1
  H  H1598  1  0.291300  0.922100  0.016500  1
  H  H1599  1  0.791300  0.577900  0.483500  1
  H  H1600  1  0.791300  0.422100  0.016500  1
  H  H1601  1  0.662400  0.899700  0.605000  1
  H  H1602  1  0.662400  0.100300  0.895000  1
  H  H1603  1  0.162400  0.399700  0.605000  1
  H  H1604  1  0.162400  0.600300  0.895000  1
  H  H1605  1  0.337600  0.100300  0.395000  1
  H  H1606  1  0.337600  0.899700  0.105000  1
  H  H1607  1  0.837600  0.600300  0.395000  1
  H  H1608  1  0.837600  0.399700  0.105000  1
  H  H1609  1  0.696200  0.873500  0.587400  1
  H  H1610  1  0.696200  0.126500  0.912600  1
  H  H1611  1  0.196200  0.373500  0.587400  1
  H  H1612  1  0.196200  0.626500  0.912600  1
  H  H1613  1  0.303800  0.126500  0.412600  1
  H  H1614  1  0.303800  0.873500  0.087400  1
  H  H1615  1  0.803800  0.626500  0.412600  1
  H  H1616  1  0.803800  0.373500  0.087400  1
  H  H1617  1  0.704100  0.917600  0.604600  1
  H  H1618  1  0.704100  0.082400  0.895400  1
  H  H1619  1  0.204100  0.417600  0.604600  1
  H  H1620  1  0.204100  0.582400  0.895400  1
  H  H1621  1  0.295900  0.082400  0.395400  1
  H  H1622  1  0.295900  0.917600  0.104600  1
  H  H1623  1  0.795900  0.582400  0.395400  1
  H  H1624  1  0.795900  0.417600  0.104600  1
  H  H1625  1  0.634800  0.014300  0.473900  1
  H  H1626  1  0.634800  0.985700  0.026100  1
  H  H1627  1  0.134800  0.514300  0.473900  1
  H  H1628  1  0.134800  0.485700  0.026100  1
  H  H1629  1  0.365200  0.985700  0.526100  1
  H  H1630  1  0.365200  0.014300  0.973900  1
  H  H1631  1  0.865200  0.485700  0.526100  1
  H  H1632  1  0.865200  0.514300  0.973900  1
  H  H1633  1  0.617300  0.030200  0.435900  1
  H  H1634  1  0.617300  0.969800  0.064100  1
  H  H1635  1  0.117300  0.530200  0.435900  1
  H  H1636  1  0.117300  0.469800  0.064100  1
  H  H1637  1  0.382700  0.969800  0.564100  1
  H  H1638  1  0.382700  0.030200  0.935900  1
  H  H1639  1  0.882700  0.469800  0.564100  1
  H  H1640  1  0.882700  0.530200  0.935900  1
  H  H1641  1  0.617300  0.002700  0.345200  1
  H  H1642  1  0.617300  0.997300  0.154800  1
  H  H1643  1  0.117300  0.502700  0.345200  1
  H  H1644  1  0.117300  0.497300  0.154800  1
  H  H1645  1  0.382700  0.997300  0.654800  1
  H  H1646  1  0.382700  0.002700  0.845200  1
  H  H1647  1  0.882700  0.497300  0.654800  1
  H  H1648  1  0.882700  0.502700  0.845200  1
  H  H1649  1  0.632600  0.961900  0.301500  1
  H  H1650  1  0.632600  0.038100  0.198500  1
  H  H1651  1  0.132600  0.461900  0.301500  1
  H  H1652  1  0.132600  0.538100  0.198500  1
  H  H1653  1  0.367400  0.038100  0.698500  1
  H  H1654  1  0.367400  0.961900  0.801500  1
  H  H1655  1  0.867400  0.538100  0.698500  1
  H  H1656  1  0.867400  0.461900  0.801500  1
  H  H1657  1  0.615400  0.870500  0.325900  1
  H  H1658  1  0.615400  0.129500  0.174100  1
  H  H1659  1  0.115400  0.370500  0.325900  1
  H  H1660  1  0.115400  0.629500  0.174100  1
  H  H1661  1  0.384600  0.129500  0.674100  1
  H  H1662  1  0.384600  0.870500  0.825900  1
  H  H1663  1  0.884600  0.629500  0.674100  1
  H  H1664  1  0.884600  0.370500  0.825900  1
  H  H1665  1  0.611100  0.903400  0.432000  1
  H  H1666  1  0.611100  0.096600  0.068000  1
  H  H1667  1  0.111100  0.403400  0.432000  1
  H  H1668  1  0.111100  0.596600  0.068000  1
  H  H1669  1  0.388900  0.096600  0.568000  1
  H  H1670  1  0.388900  0.903400  0.932000  1
  H  H1671  1  0.888900  0.596600  0.568000  1
  H  H1672  1  0.888900  0.403400  0.932000  1
  H  H1673  1  0.660500  0.886800  0.215000  1
  H  H1674  1  0.660500  0.113200  0.285000  1
  H  H1675  1  0.160500  0.386800  0.215000  1
  H  H1676  1  0.160500  0.613200  0.285000  1
  H  H1677  1  0.339500  0.113200  0.785000  1
  H  H1678  1  0.339500  0.886800  0.715000  1
  H  H1679  1  0.839500  0.613200  0.785000  1
  H  H1680  1  0.839500  0.386800  0.715000  1
  H  H1681  1  0.691600  0.850900  0.175000  1
  H  H1682  1  0.691600  0.149100  0.325000  1
  H  H1683  1  0.191600  0.350900  0.175000  1
  H  H1684  1  0.191600  0.649100  0.325000  1
  H  H1685  1  0.308400  0.149100  0.825000  1
  H  H1686  1  0.308400  0.850900  0.675000  1
  H  H1687  1  0.808400  0.649100  0.825000  1
  H  H1688  1  0.808400  0.350900  0.675000  1
  H  H1689  1  0.725800  0.795600  0.147300  1
  H  H1690  1  0.725800  0.204400  0.352700  1
  H  H1691  1  0.225800  0.295600  0.147300  1
  H  H1692  1  0.225800  0.704400  0.352700  1
  H  H1693  1  0.274200  0.204400  0.852700  1
  H  H1694  1  0.274200  0.795600  0.647300  1
  H  H1695  1  0.774200  0.704400  0.852700  1
  H  H1696  1  0.774200  0.295600  0.647300  1
  H  H1697  1  0.751100  0.777200  0.165400  1
  H  H1698  1  0.751100  0.222800  0.334600  1
  H  H1699  1  0.251100  0.277200  0.165400  1
  H  H1700  1  0.251100  0.722800  0.334600  1
  H  H1701  1  0.248900  0.222800  0.834600  1
  H  H1702  1  0.248900  0.777200  0.665400  1
  H  H1703  1  0.748900  0.722800  0.834600  1
  H  H1704  1  0.748900  0.277200  0.665400  1
  H  H1705  1  0.712100  0.756900  0.151500  1
  H  H1706  1  0.712100  0.243100  0.348500  1
  H  H1707  1  0.212100  0.256900  0.151500  1
  H  H1708  1  0.212100  0.743100  0.348500  1
  H  H1709  1  0.287900  0.243100  0.848500  1
  H  H1710  1  0.287900  0.756900  0.651500  1
  H  H1711  1  0.787900  0.743100  0.848500  1
  H  H1712  1  0.787900  0.256900  0.651500  1
  H  H1713  1  0.678700  0.800200  0.244000  1
  H  H1714  1  0.678700  0.199800  0.256000  1
  H  H1715  1  0.178700  0.300200  0.244000  1
  H  H1716  1  0.178700  0.699800  0.256000  1
  H  H1717  1  0.321300  0.199800  0.756000  1
  H  H1718  1  0.321300  0.800200  0.744000  1
  H  H1719  1  0.821300  0.699800  0.756000  1
  H  H1720  1  0.821300  0.300200  0.744000  1
  H  H1721  1  0.587100  0.031100  0.374200  1
  H  H1722  1  0.587100  0.968900  0.125800  1
  H  H1723  1  0.087100  0.531100  0.374200  1
  H  H1724  1  0.087100  0.468900  0.125800  1
  H  H1725  1  0.412900  0.968900  0.625800  1
  H  H1726  1  0.412900  0.031100  0.874200  1
  H  H1727  1  0.912900  0.468900  0.625800  1
  H  H1728  1  0.912900  0.531100  0.874200  1
  H  H1729  1  0.602200  0.043200  0.405400  1
  H  H1730  1  0.602200  0.956800  0.094600  1
  H  H1731  1  0.102200  0.543200  0.405400  1
  H  H1732  1  0.102200  0.456800  0.094600  1
  H  H1733  1  0.397800  0.956800  0.594600  1
  H  H1734  1  0.397800  0.043200  0.905400  1
  H  H1735  1  0.897800  0.456800  0.594600  1
  H  H1736  1  0.897800  0.543200  0.905400  1
  H  H1737  1  0.538200  0.061200  0.409700  1
  H  H1738  1  0.538200  0.938800  0.090300  1
  H  H1739  1  0.038200  0.561200  0.409700  1
  H  H1740  1  0.038200  0.438800  0.090300  1
  H  H1741  1  0.461800  0.938800  0.590300  1
  H  H1742  1  0.461800  0.061200  0.909700  1
  H  H1743  1  0.961800  0.438800  0.590300  1
  H  H1744  1  0.961800  0.561200  0.909700  1
  H  H1745  1  0.538700  0.022300  0.416700  1
  H  H1746  1  0.538700  0.977700  0.083300  1
  H  H1747  1  0.038700  0.522300  0.416700  1
  H  H1748  1  0.038700  0.477700  0.083300  1
  H  H1749  1  0.461300  0.977700  0.583300  1
  H  H1750  1  0.461300  0.022300  0.916700  1
  H  H1751  1  0.961300  0.477700  0.583300  1
  H  H1752  1  0.961300  0.522300  0.916700  1
  H  H1753  1  0.507700  0.034000  0.369900  1
  H  H1754  1  0.507700  0.966000  0.130100  1
  H  H1755  1  0.007700  0.534000  0.369900  1
  H  H1756  1  0.007700  0.466000  0.130100  1
  H  H1757  1  0.492300  0.966000  0.630100  1
  H  H1758  1  0.492300  0.034000  0.869900  1
  H  H1759  1  0.992300  0.466000  0.630100  1
  H  H1760  1  0.992300  0.534000  0.869900  1
  H  H1761  1  0.531800  0.995100  0.362800  1
  H  H1762  1  0.531800  0.004900  0.137200  1
  H  H1763  1  0.031800  0.495100  0.362800  1
  H  H1764  1  0.031800  0.504900  0.137200  1
  H  H1765  1  0.468200  0.004900  0.637200  1
  H  H1766  1  0.468200  0.995100  0.862800  1
  H  H1767  1  0.968200  0.504900  0.637200  1
  H  H1768  1  0.968200  0.495100  0.862800  1
  H  H1769  1  0.493100  0.973900  0.391300  1
  H  H1770  1  0.493100  0.026100  0.108700  1
  H  H1771  1  0.993100  0.473900  0.391300  1
  H  H1772  1  0.993100  0.526100  0.108700  1
  H  H1773  1  0.506900  0.026100  0.608700  1
  H  H1774  1  0.506900  0.973900  0.891300  1
  H  H1775  1  0.006900  0.526100  0.608700  1
  H  H1776  1  0.006900  0.473900  0.891300  1
  H  H1777  1  0.472300  0.014400  0.403400  1
  H  H1778  1  0.472300  0.985600  0.096600  1
  H  H1779  1  0.972300  0.514400  0.403400  1
  H  H1780  1  0.972300  0.485600  0.096600  1
  H  H1781  1  0.527700  0.985600  0.596600  1
  H  H1782  1  0.527700  0.014400  0.903400  1
  H  H1783  1  0.027700  0.485600  0.596600  1
  H  H1784  1  0.027700  0.514400  0.903400  1
  H  H1785  1  0.463400  0.962500  0.349300  1
  H  H1786  1  0.463400  0.037500  0.150700  1
  H  H1787  1  0.963400  0.462500  0.349300  1
  H  H1788  1  0.963400  0.537500  0.150700  1
  H  H1789  1  0.536600  0.037500  0.650700  1
  H  H1790  1  0.536600  0.962500  0.849300  1
  H  H1791  1  0.036600  0.537500  0.650700  1
  H  H1792  1  0.036600  0.462500  0.849300  1
  H  H1793  1  0.443800  0.003500  0.360300  1
  H  H1794  1  0.443800  0.996500  0.139700  1
  H  H1795  1  0.943800  0.503500  0.360300  1
  H  H1796  1  0.943800  0.496500  0.139700  1
  H  H1797  1  0.556200  0.996500  0.639700  1
  H  H1798  1  0.556200  0.003500  0.860300  1
  H  H1799  1  0.056200  0.496500  0.639700  1
  H  H1800  1  0.056200  0.503500  0.860300  1
  H  H1801  1  0.397000  0.955800  0.357200  1
  H  H1802  1  0.397000  0.044200  0.142800  1
  H  H1803  1  0.897000  0.455800  0.357200  1
  H  H1804  1  0.897000  0.544200  0.142800  1
  H  H1805  1  0.603000  0.044200  0.642800  1
  H  H1806  1  0.603000  0.955800  0.857200  1
  H  H1807  1  0.103000  0.544200  0.642800  1
  H  H1808  1  0.103000  0.455800  0.857200  1
  H  H1809  1  0.421200  0.940800  0.377800  1
  H  H1810  1  0.421200  0.059200  0.122200  1
  H  H1811  1  0.921200  0.440800  0.377800  1
  H  H1812  1  0.921200  0.559200  0.122200  1
  H  H1813  1  0.578800  0.059200  0.622200  1
  H  H1814  1  0.578800  0.940800  0.877800  1
  H  H1815  1  0.078800  0.559200  0.622200  1
  H  H1816  1  0.078800  0.440800  0.877800  1
  H  H1817  1  0.401500  0.982000  0.388900  1
  H  H1818  1  0.401500  0.018000  0.111100  1
  H  H1819  1  0.901500  0.482000  0.388900  1
  H  H1820  1  0.901500  0.518000  0.111100  1
  H  H1821  1  0.598500  0.018000  0.611100  1
  H  H1822  1  0.598500  0.982000  0.888900  1
  H  H1823  1  0.098500  0.518000  0.611100  1
  H  H1824  1  0.098500  0.482000  0.888900  1
  H  H1825  1  0.757500  0.041000  0.580100  1
  H  H1826  1  0.757500  0.959000  0.919900  1
  H  H1827  1  0.257500  0.541000  0.580100  1
  H  H1828  1  0.257500  0.459000  0.919900  1
  H  H1829  1  0.242500  0.959000  0.419900  1
  H  H1830  1  0.242500  0.041000  0.080100  1
  H  H1831  1  0.742500  0.459000  0.419900  1
  H  H1832  1  0.742500  0.541000  0.080100  1
  H  H1833  1  0.787300  0.041500  0.540300  1
  H  H1834  1  0.787300  0.958500  0.959700  1
  H  H1835  1  0.287300  0.541500  0.540300  1
  H  H1836  1  0.287300  0.458500  0.959700  1
  H  H1837  1  0.212700  0.958500  0.459700  1
  H  H1838  1  0.212700  0.041500  0.040300  1
  H  H1839  1  0.712700  0.458500  0.459700  1
  H  H1840  1  0.712700  0.541500  0.040300  1
  H  H1841  1  0.795500  0.927100  0.516300  1
  H  H1842  1  0.795500  0.072900  0.983700  1
  H  H1843  1  0.295500  0.427100  0.516300  1
  H  H1844  1  0.295500  0.572900  0.983700  1
  H  H1845  1  0.204500  0.072900  0.483700  1
  H  H1846  1  0.204500  0.927100  0.016300  1
  H  H1847  1  0.704500  0.572900  0.483700  1
  H  H1848  1  0.704500  0.427100  0.016300  1
  H  H1849  1  0.733600  0.007900  0.608900  1
  H  H1850  1  0.733600  0.992100  0.891100  1
  H  H1851  1  0.233600  0.507900  0.608900  1
  H  H1852  1  0.233600  0.492100  0.891100  1
  H  H1853  1  0.266400  0.992100  0.391100  1
  H  H1854  1  0.266400  0.007900  0.108900  1
  H  H1855  1  0.766400  0.492100  0.391100  1
  H  H1856  1  0.766400  0.507900  0.108900  1
  H  H1857  1  0.716600  0.966700  0.591800  1
  H  H1858  1  0.716600  0.033300  0.908200  1
  H  H1859  1  0.216600  0.466700  0.591800  1
  H  H1860  1  0.216600  0.533300  0.908200  1
  H  H1861  1  0.283400  0.033300  0.408200  1
  H  H1862  1  0.283400  0.966700  0.091800  1
  H  H1863  1  0.783400  0.533300  0.408200  1
  H  H1864  1  0.783400  0.466700  0.091800  1
  H  H1865  1  0.757600  0.970200  0.606400  1
  H  H1866  1  0.757600  0.029800  0.893600  1
  H  H1867  1  0.257600  0.470200  0.606400  1
  H  H1868  1  0.257600  0.529800  0.893600  1
  H  H1869  1  0.242400  0.029800  0.393600  1
  H  H1870  1  0.242400  0.970200  0.106400  1
  H  H1871  1  0.742400  0.529800  0.393600  1
  H  H1872  1  0.742400  0.470200  0.106400  1
  H  H1873  1  0.901000  0.983200  0.466000  1
  H  H1874  1  0.901000  0.016800  0.034000  1
  H  H1875  1  0.401000  0.483200  0.466000  1
  H  H1876  1  0.401000  0.516800  0.034000  1
  H  H1877  1  0.099000  0.016800  0.534000  1
  H  H1878  1  0.099000  0.983200  0.966000  1
  H  H1879  1  0.599000  0.516800  0.534000  1
  H  H1880  1  0.599000  0.483200  0.966000  1
  H  H1881  1  0.932200  0.975100  0.424500  1
  H  H1882  1  0.932200  0.024900  0.075500  1
  H  H1883  1  0.432200  0.475100  0.424500  1
  H  H1884  1  0.432200  0.524900  0.075500  1
  H  H1885  1  0.067800  0.024900  0.575500  1
  H  H1886  1  0.067800  0.975100  0.924500  1
  H  H1887  1  0.567800  0.524900  0.575500  1
  H  H1888  1  0.567800  0.475100  0.924500  1
  H  H1889  1  0.935800  0.915200  0.331000  1
  H  H1890  1  0.935800  0.084800  0.169000  1
  H  H1891  1  0.435800  0.415200  0.331000  1
  H  H1892  1  0.435800  0.584800  0.169000  1
  H  H1893  1  0.064200  0.084800  0.669000  1
  H  H1894  1  0.064200  0.915200  0.831000  1
  H  H1895  1  0.564200  0.584800  0.669000  1
  H  H1896  1  0.564200  0.415200  0.831000  1
  H  H1897  1  0.908700  0.874000  0.290600  1
  H  H1898  1  0.908700  0.126000  0.209400  1
  H  H1899  1  0.408700  0.374000  0.290600  1
  H  H1900  1  0.408700  0.626000  0.209400  1
  H  H1901  1  0.091300  0.126000  0.709400  1
  H  H1902  1  0.091300  0.874000  0.790600  1
  H  H1903  1  0.591300  0.626000  0.709400  1
  H  H1904  1  0.591300  0.374000  0.790600  1
  H  H1905  1  0.802700  0.903200  0.322600  1
  H  H1906  1  0.802700  0.096800  0.177400  1
  H  H1907  1  0.302700  0.403200  0.322600  1
  H  H1908  1  0.302700  0.596800  0.177400  1
  H  H1909  1  0.197300  0.096800  0.677400  1
  H  H1910  1  0.197300  0.903200  0.822600  1
  H  H1911  1  0.697300  0.596800  0.677400  1
  H  H1912  1  0.697300  0.403200  0.822600  1
  H  H1913  1  0.798200  0.966400  0.427700  1
  H  H1914  1  0.798200  0.033600  0.072300  1
  H  H1915  1  0.298200  0.466400  0.427700  1
  H  H1916  1  0.298200  0.533600  0.072300  1
  H  H1917  1  0.201800  0.033600  0.572300  1
  H  H1918  1  0.201800  0.966400  0.927700  1
  H  H1919  1  0.701800  0.533600  0.572300  1
  H  H1920  1  0.701800  0.466400  0.927700  1
  H  H1921  1  0.867100  0.801700  0.211200  1
  H  H1922  1  0.867100  0.198300  0.288800  1
  H  H1923  1  0.367100  0.301700  0.211200  1
  H  H1924  1  0.367100  0.698300  0.288800  1
  H  H1925  1  0.132900  0.198300  0.788800  1
  H  H1926  1  0.132900  0.801700  0.711200  1
  H  H1927  1  0.632900  0.698300  0.788800  1
  H  H1928  1  0.632900  0.301700  0.711200  1
  H  H1929  1  0.851400  0.749900  0.172500  1
  H  H1930  1  0.851400  0.250100  0.327500  1
  H  H1931  1  0.351400  0.249900  0.172500  1
  H  H1932  1  0.351400  0.750100  0.327500  1
  H  H1933  1  0.148600  0.250100  0.827500  1
  H  H1934  1  0.148600  0.749900  0.672500  1
  H  H1935  1  0.648600  0.750100  0.827500  1
  H  H1936  1  0.648600  0.249900  0.672500  1
  H  H1937  1  0.810200  0.701000  0.148100  1
  H  H1938  1  0.810200  0.299000  0.351900  1
  H  H1939  1  0.310200  0.201000  0.148100  1
  H  H1940  1  0.310200  0.799000  0.351900  1
  H  H1941  1  0.189800  0.299000  0.851900  1
  H  H1942  1  0.189800  0.701000  0.648100  1
  H  H1943  1  0.689800  0.799000  0.851900  1
  H  H1944  1  0.689800  0.201000  0.648100  1
  H  H1945  1  0.783400  0.685100  0.166900  1
  H  H1946  1  0.783400  0.314900  0.333100  1
  H  H1947  1  0.283400  0.185100  0.166900  1
  H  H1948  1  0.283400  0.814900  0.333100  1
  H  H1949  1  0.216600  0.314900  0.833100  1
  H  H1950  1  0.216600  0.685100  0.666900  1
  H  H1951  1  0.716600  0.814900  0.833100  1
  H  H1952  1  0.716600  0.185100  0.666900  1
  H  H1953  1  0.765600  0.712000  0.151600  1
  H  H1954  1  0.765600  0.288000  0.348400  1
  H  H1955  1  0.265600  0.212000  0.151600  1
  H  H1956  1  0.265600  0.788000  0.348400  1
  H  H1957  1  0.234400  0.288000  0.848400  1
  H  H1958  1  0.234400  0.712000  0.651600  1
  H  H1959  1  0.734400  0.788000  0.848400  1
  H  H1960  1  0.734400  0.212000  0.651600  1
  H  H1961  1  0.763200  0.792900  0.242800  1
  H  H1962  1  0.763200  0.207100  0.257200  1
  H  H1963  1  0.263200  0.292900  0.242800  1
  H  H1964  1  0.263200  0.707100  0.257200  1
  H  H1965  1  0.236800  0.207100  0.757200  1
  H  H1966  1  0.236800  0.792900  0.742800  1
  H  H1967  1  0.736800  0.707100  0.757200  1
  H  H1968  1  0.736800  0.292900  0.742800  1
  H  H1969  1  0.949800  0.990100  0.391200  1
  H  H1970  1  0.949800  0.009900  0.108800  1
  H  H1971  1  0.449800  0.490100  0.391200  1
  H  H1972  1  0.449800  0.509900  0.108800  1
  H  H1973  1  0.050200  0.009900  0.608800  1
  H  H1974  1  0.050200  0.990100  0.891200  1
  H  H1975  1  0.550200  0.509900  0.608800  1
  H  H1976  1  0.550200  0.490100  0.891200  1
  H  H1977  1  0.951700  0.969600  0.358400  1
  H  H1978  1  0.951700  0.030400  0.141600  1
  H  H1979  1  0.451700  0.469600  0.358400  1
  H  H1980  1  0.451700  0.530400  0.141600  1
  H  H1981  1  0.048300  0.030400  0.641600  1
  H  H1982  1  0.048300  0.969600  0.858400  1
  H  H1983  1  0.548300  0.530400  0.641600  1
  H  H1984  1  0.548300  0.469600  0.858400  1
  H  H1985  1  0.951600  0.923500  0.393300  1
  H  H1986  1  0.951600  0.076500  0.106700  1
  H  H1987  1  0.451600  0.423500  0.393300  1
  H  H1988  1  0.451600  0.576500  0.106700  1
  H  H1989  1  0.048400  0.076500  0.606700  1
  H  H1990  1  0.048400  0.923500  0.893300  1
  H  H1991  1  0.548400  0.576500  0.606700  1
  H  H1992  1  0.548400  0.423500  0.893300  1
  H  H1993  1  0.965700  0.910400  0.362100  1
  H  H1994  1  0.965700  0.089600  0.137900  1
  H  H1995  1  0.465700  0.410400  0.362100  1
  H  H1996  1  0.465700  0.589600  0.137900  1
  H  H1997  1  0.034300  0.089600  0.637900  1
  H  H1998  1  0.034300  0.910400  0.862100  1
  H  H1999  1  0.534300  0.589600  0.637900  1
  H  H2000  1  0.534300  0.410400  0.862100  1
  H  H2001  1  0.016800  0.953000  0.377000  1
  H  H2002  1  0.016800  0.047000  0.123000  1
  H  H2003  1  0.516800  0.453000  0.377000  1
  H  H2004  1  0.516800  0.547000  0.123000  1
  H  H2005  1  0.983200  0.047000  0.623000  1
  H  H2006  1  0.983200  0.953000  0.877000  1
  H  H2007  1  0.483200  0.547000  0.623000  1
  H  H2008  1  0.483200  0.453000  0.877000  1
  H  H2009  1  0.003600  0.960000  0.407600  1
  H  H2010  1  0.003600  0.040000  0.092400  1
  H  H2011  1  0.503600  0.460000  0.407600  1
  H  H2012  1  0.503600  0.540000  0.092400  1
  H  H2013  1  0.996400  0.040000  0.592400  1
  H  H2014  1  0.996400  0.960000  0.907600  1
  H  H2015  1  0.496400  0.540000  0.592400  1
  H  H2016  1  0.496400  0.460000  0.907600  1
  H  H2017  1  0.039800  0.920700  0.411900  1
  H  H2018  1  0.039800  0.079300  0.088100  1
  H  H2019  1  0.539800  0.420700  0.411900  1
  H  H2020  1  0.539800  0.579300  0.088100  1
  H  H2021  1  0.960200  0.079300  0.588100  1
  H  H2022  1  0.960200  0.920700  0.911900  1
  H  H2023  1  0.460200  0.579300  0.588100  1
  H  H2024  1  0.460200  0.420700  0.911900  1
  H  H2025  1  0.059300  0.922000  0.384500  1
  H  H2026  1  0.059300  0.078000  0.115500  1
  H  H2027  1  0.559300  0.422000  0.384500  1
  H  H2028  1  0.559300  0.578000  0.115500  1
  H  H2029  1  0.940700  0.078000  0.615500  1
  H  H2030  1  0.940700  0.922000  0.884500  1
  H  H2031  1  0.440700  0.578000  0.615500  1
  H  H2032  1  0.440700  0.422000  0.884500  1
  H  H2033  1  0.029800  0.864100  0.360300  1
  H  H2034  1  0.029800  0.135900  0.139700  1
  H  H2035  1  0.529800  0.364100  0.360300  1
  H  H2036  1  0.529800  0.635900  0.139700  1
  H  H2037  1  0.970200  0.135900  0.639700  1
  H  H2038  1  0.970200  0.864100  0.860300  1
  H  H2039  1  0.470200  0.635900  0.639700  1
  H  H2040  1  0.470200  0.364100  0.860300  1
  H  H2041  1  0.013400  0.862700  0.388900  1
  H  H2042  1  0.013400  0.137300  0.111100  1
  H  H2043  1  0.513400  0.362700  0.388900  1
  H  H2044  1  0.513400  0.637300  0.111100  1
  H  H2045  1  0.986600  0.137300  0.611100  1
  H  H2046  1  0.986600  0.862700  0.888900  1
  H  H2047  1  0.486600  0.637300  0.611100  1
  H  H2048  1  0.486600  0.362700  0.888900  1
  H  H2049  1  0.070200  0.825300  0.376900  1
  H  H2050  1  0.070200  0.174700  0.123100  1
  H  H2051  1  0.570200  0.325300  0.376900  1
  H  H2052  1  0.570200  0.674700  0.123100  1
  H  H2053  1  0.929800  0.174700  0.623100  1
  H  H2054  1  0.929800  0.825300  0.876900  1
  H  H2055  1  0.429800  0.674700  0.623100  1
  H  H2056  1  0.429800  0.325300  0.876900  1
  H  H2057  1  0.093900  0.861700  0.376200  1
  H  H2058  1  0.093900  0.138300  0.123800  1
  H  H2059  1  0.593900  0.361700  0.376200  1
  H  H2060  1  0.593900  0.638300  0.123800  1
  H  H2061  1  0.906100  0.138300  0.623800  1
  H  H2062  1  0.906100  0.861700  0.876200  1
  H  H2063  1  0.406100  0.638300  0.623800  1
  H  H2064  1  0.406100  0.361700  0.876200  1
  H  H2065  1  0.077500  0.860300  0.404800  1
  H  H2066  1  0.077500  0.139700  0.095200  1
  H  H2067  1  0.577500  0.360300  0.404800  1
  H  H2068  1  0.577500  0.639700  0.095200  1
  H  H2069  1  0.922500  0.139700  0.595200  1
  H  H2070  1  0.922500  0.860300  0.904800  1
  H  H2071  1  0.422500  0.639700  0.595200  1
  H  H2072  1  0.422500  0.360300  0.904800  1
  Pd  Pd2073  1  0.734540  0.815200  0.361070  1
  Pd  Pd2074  1  0.734540  0.184800  0.138930  1
  Pd  Pd2075  1  0.234540  0.315200  0.361070  1
  Pd  Pd2076  1  0.234540  0.684800  0.138930  1
  Pd  Pd2077  1  0.265460  0.184800  0.638930  1
  Pd  Pd2078  1  0.265460  0.815200  0.861070  1
  Pd  Pd2079  1  0.765460  0.684800  0.638930  1
  Pd  Pd2080  1  0.765460  0.315200  0.861070  1
  Pd  Pd2081  1  0.690130  0.641690  0.011710  1
  Pd  Pd2082  1  0.690130  0.358310  0.488290  1
  Pd  Pd2083  1  0.190130  0.141690  0.011710  1
  Pd  Pd2084  1  0.190130  0.858310  0.488290  1
  Pd  Pd2085  1  0.309870  0.358310  0.988290  1
  Pd  Pd2086  1  0.309870  0.641690  0.511710  1
  Pd  Pd2087  1  0.809870  0.858310  0.988290  1
  Pd  Pd2088  1  0.809870  0.141690  0.511710  1
  Pd  Pd2089  1  0.716280  0.736590  0.204250  1
  Pd  Pd2090  1  0.716280  0.263410  0.295750  1
  Pd  Pd2091  1  0.216280  0.236590  0.204250  1
  Pd  Pd2092  1  0.216280  0.763410  0.295750  1
  Pd  Pd2093  1  0.283720  0.263410  0.795750  1
  Pd  Pd2094  1  0.283720  0.736590  0.704250  1
  Pd  Pd2095  1  0.783720  0.763410  0.795750  1
  Pd  Pd2096  1  0.783720  0.236590  0.704250  1
  Pd  Pd2097  1  0.756130  0.896910  0.552200  1
  Pd  Pd2098  1  0.756130  0.103090  0.947800  1
  Pd  Pd2099  1  0.256130  0.396910  0.552200  1
  Pd  Pd2100  1  0.256130  0.603090  0.947800  1
  Pd  Pd2101  1  0.243870  0.103090  0.447800  1
  Pd  Pd2102  1  0.243870  0.896910  0.052200  1
  Pd  Pd2103  1  0.743870  0.603090  0.447800  1
  Pd  Pd2104  1  0.743870  0.396910  0.052200  1
  C  C2105  1  0.706900  0.897200  0.380290  1
  C  C2106  1  0.706900  0.102800  0.119710  1
  C  C2107  1  0.206900  0.397200  0.380290  1
  C  C2108  1  0.206900  0.602800  0.119710  1
  C  C2109  1  0.293100  0.102800  0.619710  1
  C  C2110  1  0.293100  0.897200  0.880290  1
  C  C2111  1  0.793100  0.602800  0.619710  1
  C  C2112  1  0.793100  0.397200  0.880290  1
  C  C2113  1  0.700500  0.932460  0.377130  1
  C  C2114  1  0.700500  0.067540  0.122870  1
  C  C2115  1  0.200500  0.432460  0.377130  1
  C  C2116  1  0.200500  0.567540  0.122870  1
  C  C2117  1  0.299500  0.067540  0.622870  1
  C  C2118  1  0.299500  0.932460  0.877130  1
  C  C2119  1  0.799500  0.567540  0.622870  1
  C  C2120  1  0.799500  0.432460  0.877130  1
  C  C2121  1  0.707610  0.937340  0.352390  1
  C  C2122  1  0.707610  0.062660  0.147610  1
  C  C2123  1  0.207610  0.437340  0.352390  1
  C  C2124  1  0.207610  0.562660  0.147610  1
  C  C2125  1  0.292390  0.062660  0.647610  1
  C  C2126  1  0.292390  0.937340  0.852390  1
  C  C2127  1  0.792390  0.562660  0.647610  1
  C  C2128  1  0.792390  0.437340  0.852390  1
  C  C2129  1  0.721450  0.906430  0.330460  1
  C  C2130  1  0.721450  0.093570  0.169540  1
  C  C2131  1  0.221450  0.406430  0.330460  1
  C  C2132  1  0.221450  0.593570  0.169540  1
  C  C2133  1  0.278550  0.093570  0.669540  1
  C  C2134  1  0.278550  0.906430  0.830460  1
  C  C2135  1  0.778550  0.593570  0.669540  1
  C  C2136  1  0.778550  0.406430  0.830460  1
  C  C2137  1  0.728510  0.872580  0.335060  1
  C  C2138  1  0.728510  0.127420  0.164940  1
  C  C2139  1  0.228510  0.372580  0.335060  1
  C  C2140  1  0.228510  0.627420  0.164940  1
  C  C2141  1  0.271490  0.127420  0.664940  1
  C  C2142  1  0.271490  0.872580  0.835060  1
  C  C2143  1  0.771490  0.627420  0.664940  1
  C  C2144  1  0.771490  0.372580  0.835060  1
  C  C2145  1  0.698100  0.892000  0.407040  1
  C  C2146  1  0.698100  0.108000  0.092960  1
  C  C2147  1  0.198100  0.392000  0.407040  1
  C  C2148  1  0.198100  0.608000  0.092960  1
  C  C2149  1  0.301900  0.108000  0.592960  1
  C  C2150  1  0.301900  0.892000  0.907040  1
  C  C2151  1  0.801900  0.608000  0.592960  1
  C  C2152  1  0.801900  0.392000  0.907040  1
  C  C2153  1  0.729200  0.909640  0.304000  1
  C  C2154  1  0.729200  0.090360  0.196000  1
  C  C2155  1  0.229200  0.409640  0.304000  1
  C  C2156  1  0.229200  0.590360  0.196000  1
  C  C2157  1  0.270800  0.090360  0.696000  1
  C  C2158  1  0.270800  0.909640  0.804000  1
  C  C2159  1  0.770800  0.590360  0.696000  1
  C  C2160  1  0.770800  0.409640  0.804000  1
  C  C2161  1  0.734900  0.912730  0.282160  1
  C  C2162  1  0.734900  0.087270  0.217840  1
  C  C2163  1  0.234900  0.412730  0.282160  1
  C  C2164  1  0.234900  0.587270  0.217840  1
  C  C2165  1  0.265100  0.087270  0.717840  1
  C  C2166  1  0.265100  0.912730  0.782160  1
  C  C2167  1  0.765100  0.587270  0.717840  1
  C  C2168  1  0.765100  0.412730  0.782160  1
  C  C2169  1  0.739340  0.917070  0.255800  1
  C  C2170  1  0.739340  0.082930  0.244200  1
  C  C2171  1  0.239340  0.417070  0.255800  1
  C  C2172  1  0.239340  0.582930  0.244200  1
  C  C2173  1  0.260660  0.082930  0.744200  1
  C  C2174  1  0.260660  0.917070  0.755800  1
  C  C2175  1  0.760660  0.582930  0.744200  1
  C  C2176  1  0.760660  0.417070  0.755800  1
  C  C2177  1  0.718700  0.945330  0.249840  1
  C  C2178  1  0.718700  0.054670  0.250160  1
  C  C2179  1  0.218700  0.445330  0.249840  1
  C  C2180  1  0.218700  0.554670  0.250160  1
  C  C2181  1  0.281300  0.054670  0.750160  1
  C  C2182  1  0.281300  0.945330  0.749840  1
  C  C2183  1  0.781300  0.554670  0.750160  1
  C  C2184  1  0.781300  0.445330  0.749840  1
  C  C2185  1  0.722500  0.950190  0.225080  1
  C  C2186  1  0.722500  0.049810  0.274920  1
  C  C2187  1  0.222500  0.450190  0.225080  1
  C  C2188  1  0.222500  0.549810  0.274920  1
  C  C2189  1  0.277500  0.049810  0.774920  1
  C  C2190  1  0.277500  0.950190  0.725080  1
  C  C2191  1  0.777500  0.549810  0.774920  1
  C  C2192  1  0.777500  0.450190  0.725080  1
  C  C2193  1  0.748800  0.927800  0.205400  1
  C  C2194  1  0.748800  0.072200  0.294600  1
  C  C2195  1  0.248800  0.427800  0.205400  1
  C  C2196  1  0.248800  0.572200  0.294600  1
  C  C2197  1  0.251200  0.072200  0.794600  1
  C  C2198  1  0.251200  0.927800  0.705400  1
  C  C2199  1  0.751200  0.572200  0.794600  1
  C  C2200  1  0.751200  0.427800  0.705400  1
  C  C2201  1  0.757500  0.901320  0.155810  1
  C  C2202  1  0.757500  0.098680  0.344190  1
  C  C2203  1  0.257500  0.401320  0.155810  1
  C  C2204  1  0.257500  0.598680  0.344190  1
  C  C2205  1  0.242500  0.098680  0.844190  1
  C  C2206  1  0.242500  0.901320  0.655810  1
  C  C2207  1  0.742500  0.598680  0.844190  1
  C  C2208  1  0.742500  0.401320  0.655810  1
  C  C2209  1  0.739500  0.900400  0.131730  1
  C  C2210  1  0.739500  0.099600  0.368270  1
  C  C2211  1  0.239500  0.400400  0.131730  1
  C  C2212  1  0.239500  0.599600  0.368270  1
  C  C2213  1  0.260500  0.099600  0.868270  1
  C  C2214  1  0.260500  0.900400  0.631730  1
  C  C2215  1  0.760500  0.599600  0.868270  1
  C  C2216  1  0.760500  0.400400  0.631730  1
  C  C2217  1  0.742300  0.867800  0.108500  1
  C  C2218  1  0.742300  0.132200  0.391500  1
  C  C2219  1  0.242300  0.367800  0.108500  1
  C  C2220  1  0.242300  0.632200  0.391500  1
  C  C2221  1  0.257700  0.132200  0.891500  1
  C  C2222  1  0.257700  0.867800  0.608500  1
  C  C2223  1  0.757700  0.632200  0.891500  1
  C  C2224  1  0.757700  0.367800  0.608500  1
  C  C2225  1  0.761400  0.835500  0.108790  1
  C  C2226  1  0.761400  0.164500  0.391210  1
  C  C2227  1  0.261400  0.335500  0.108790  1
  C  C2228  1  0.261400  0.664500  0.391210  1
  C  C2229  1  0.238600  0.164500  0.891210  1
  C  C2230  1  0.238600  0.835500  0.608790  1
  C  C2231  1  0.738600  0.664500  0.891210  1
  C  C2232  1  0.738600  0.335500  0.608790  1
  C  C2233  1  0.779800  0.836010  0.132930  1
  C  C2234  1  0.779800  0.163990  0.367070  1
  C  C2235  1  0.279800  0.336010  0.132930  1
  C  C2236  1  0.279800  0.663990  0.367070  1
  C  C2237  1  0.220200  0.163990  0.867070  1
  C  C2238  1  0.220200  0.836010  0.632930  1
  C  C2239  1  0.720200  0.663990  0.867070  1
  C  C2240  1  0.720200  0.336010  0.632930  1
  C  C2241  1  0.777900  0.869150  0.156290  1
  C  C2242  1  0.777900  0.130850  0.343710  1
  C  C2243  1  0.277900  0.369150  0.156290  1
  C  C2244  1  0.277900  0.630850  0.343710  1
  C  C2245  1  0.222100  0.130850  0.843710  1
  C  C2246  1  0.222100  0.869150  0.656290  1
  C  C2247  1  0.722100  0.630850  0.843710  1
  C  C2248  1  0.722100  0.369150  0.656290  1
  C  C2249  1  0.769100  0.899200  0.211070  1
  C  C2250  1  0.769100  0.100800  0.288930  1
  C  C2251  1  0.269100  0.399200  0.211070  1
  C  C2252  1  0.269100  0.600800  0.288930  1
  C  C2253  1  0.230900  0.100800  0.788930  1
  C  C2254  1  0.230900  0.899200  0.711070  1
  C  C2255  1  0.730900  0.600800  0.788930  1
  C  C2256  1  0.730900  0.399200  0.711070  1
  C  C2257  1  0.764000  0.893380  0.236020  1
  C  C2258  1  0.764000  0.106620  0.263980  1
  C  C2259  1  0.264000  0.393380  0.236020  1
  C  C2260  1  0.264000  0.606620  0.263980  1
  C  C2261  1  0.236000  0.106620  0.763980  1
  C  C2262  1  0.236000  0.893380  0.736020  1
  C  C2263  1  0.736000  0.606620  0.763980  1
  C  C2264  1  0.736000  0.393380  0.736020  1
  C  C2265  1  0.762000  0.801300  0.084830  1
  C  C2266  1  0.762000  0.198700  0.415170  1
  C  C2267  1  0.262000  0.301300  0.084830  1
  C  C2268  1  0.262000  0.698700  0.415170  1
  C  C2269  1  0.238000  0.198700  0.915170  1
  C  C2270  1  0.238000  0.801300  0.584830  1
  C  C2271  1  0.738000  0.698700  0.915170  1
  C  C2272  1  0.738000  0.301300  0.584830  1
  C  C2273  1  0.761200  0.773400  0.064970  1
  C  C2274  1  0.761200  0.226600  0.435030  1
  C  C2275  1  0.261200  0.273400  0.064970  1
  C  C2276  1  0.261200  0.726600  0.435030  1
  C  C2277  1  0.238800  0.226600  0.935030  1
  C  C2278  1  0.238800  0.773400  0.564970  1
  C  C2279  1  0.738800  0.726600  0.935030  1
  C  C2280  1  0.738800  0.273400  0.564970  1
  C  C2281  1  0.760800  0.740300  0.040010  1
  C  C2282  1  0.760800  0.259700  0.459990  1
  C  C2283  1  0.260800  0.240300  0.040010  1
  C  C2284  1  0.260800  0.759700  0.459990  1
  C  C2285  1  0.239200  0.259700  0.959990  1
  C  C2286  1  0.239200  0.740300  0.540010  1
  C  C2287  1  0.739200  0.759700  0.959990  1
  C  C2288  1  0.739200  0.240300  0.540010  1
  C  C2289  1  0.788800  0.735600  0.020070  1
  C  C2290  1  0.788800  0.264400  0.479930  1
  C  C2291  1  0.288800  0.235600  0.020070  1
  C  C2292  1  0.288800  0.764400  0.479930  1
  C  C2293  1  0.211200  0.264400  0.979930  1
  C  C2294  1  0.211200  0.735600  0.520070  1
  C  C2295  1  0.711200  0.764400  0.979930  1
  C  C2296  1  0.711200  0.235600  0.520070  1
  C  C2297  1  0.786900  0.704200  0.996510  1
  C  C2298  1  0.786900  0.295800  0.503490  1
  C  C2299  1  0.286900  0.204200  0.996510  1
  C  C2300  1  0.286900  0.795800  0.503490  1
  C  C2301  1  0.213100  0.295800  0.003490  1
  C  C2302  1  0.213100  0.704200  0.496510  1
  C  C2303  1  0.713100  0.795800  0.003490  1
  C  C2304  1  0.713100  0.204200  0.496510  1
  C  C2305  1  0.758300  0.677100  0.992650  1
  C  C2306  1  0.758300  0.322900  0.507350  1
  C  C2307  1  0.258300  0.177100  0.992650  1
  C  C2308  1  0.258300  0.822900  0.507350  1
  C  C2309  1  0.241700  0.322900  0.007350  1
  C  C2310  1  0.241700  0.677100  0.492650  1
  C  C2311  1  0.741700  0.822900  0.007350  1
  C  C2312  1  0.741700  0.177100  0.492650  1
  C  C2313  1  0.758400  0.643100  0.966500  1
  C  C2314  1  0.758400  0.356900  0.533500  1
  C  C2315  1  0.258400  0.143100  0.966500  1
  C  C2316  1  0.258400  0.856900  0.533500  1
  C  C2317  1  0.241600  0.356900  0.033500  1
  C  C2318  1  0.241600  0.643100  0.466500  1
  C  C2319  1  0.741600  0.856900  0.033500  1
  C  C2320  1  0.741600  0.143100  0.466500  1
  C  C2321  1  0.732700  0.712660  0.034800  1
  C  C2322  1  0.732700  0.287340  0.465200  1
  C  C2323  1  0.232700  0.212660  0.034800  1
  C  C2324  1  0.232700  0.787340  0.465200  1
  C  C2325  1  0.267300  0.287340  0.965200  1
  C  C2326  1  0.267300  0.712660  0.534800  1
  C  C2327  1  0.767300  0.787340  0.965200  1
  C  C2328  1  0.767300  0.212660  0.534800  1
  C  C2329  1  0.743600  0.970700  0.178020  1
  C  C2330  1  0.743600  0.029300  0.321980  1
  C  C2331  1  0.243600  0.470700  0.178020  1
  C  C2332  1  0.243600  0.529300  0.321980  1
  C  C2333  1  0.256400  0.029300  0.821980  1
  C  C2334  1  0.256400  0.970700  0.678020  1
  C  C2335  1  0.756400  0.529300  0.821980  1
  C  C2336  1  0.756400  0.470700  0.678020  1
  C  C2337  1  0.773200  0.984000  0.163510  1
  C  C2338  1  0.773200  0.016000  0.336490  1
  C  C2339  1  0.273200  0.484000  0.163510  1
  C  C2340  1  0.273200  0.516000  0.336490  1
  C  C2341  1  0.226800  0.016000  0.836490  1
  C  C2342  1  0.226800  0.984000  0.663510  1
  C  C2343  1  0.726800  0.516000  0.836490  1
  C  C2344  1  0.726800  0.484000  0.663510  1
  C  C2345  1  0.811500  0.987100  0.178000  1
  C  C2346  1  0.811500  0.012900  0.322000  1
  C  C2347  1  0.311500  0.487100  0.178000  1
  C  C2348  1  0.311500  0.512900  0.322000  1
  C  C2349  1  0.188500  0.012900  0.822000  1
  C  C2350  1  0.188500  0.987100  0.678000  1
  C  C2351  1  0.688500  0.512900  0.822000  1
  C  C2352  1  0.688500  0.487100  0.678000  1
  C  C2353  1  0.814400  0.015700  0.205500  1
  C  C2354  1  0.814400  0.984300  0.294500  1
  C  C2355  1  0.314400  0.515700  0.205500  1
  C  C2356  1  0.314400  0.484300  0.294500  1
  C  C2357  1  0.185600  0.984300  0.794500  1
  C  C2358  1  0.185600  0.015700  0.705500  1
  C  C2359  1  0.685600  0.484300  0.794500  1
  C  C2360  1  0.685600  0.515700  0.705500  1
  C  C2361  1  0.854800  0.022300  0.216300  1
  C  C2362  1  0.854800  0.977700  0.283700  1
  C  C2363  1  0.354800  0.522300  0.216300  1
  C  C2364  1  0.354800  0.477700  0.283700  1
  C  C2365  1  0.145200  0.977700  0.783700  1
  C  C2366  1  0.145200  0.022300  0.716300  1
  C  C2367  1  0.645200  0.477700  0.783700  1
  C  C2368  1  0.645200  0.522300  0.716300  1
  C  C2369  1  0.855500  0.053800  0.246700  1
  C  C2370  1  0.855500  0.946200  0.253300  1
  C  C2371  1  0.355500  0.553800  0.246700  1
  C  C2372  1  0.355500  0.446200  0.253300  1
  C  C2373  1  0.144500  0.946200  0.753300  1
  C  C2374  1  0.144500  0.053800  0.746700  1
  C  C2375  1  0.644500  0.446200  0.753300  1
  C  C2376  1  0.644500  0.553800  0.746700  1
  C  C2377  1  0.816000  0.847060  0.369710  1
  C  C2378  1  0.816000  0.152940  0.130290  1
  C  C2379  1  0.316000  0.347060  0.369710  1
  C  C2380  1  0.316000  0.652940  0.130290  1
  C  C2381  1  0.184000  0.152940  0.630290  1
  C  C2382  1  0.184000  0.847060  0.869710  1
  C  C2383  1  0.684000  0.652940  0.630290  1
  C  C2384  1  0.684000  0.347060  0.869710  1
  C  C2385  1  0.853800  0.847700  0.362060  1
  C  C2386  1  0.853800  0.152300  0.137940  1
  C  C2387  1  0.353800  0.347700  0.362060  1
  C  C2388  1  0.353800  0.652300  0.137940  1
  C  C2389  1  0.146200  0.152300  0.637940  1
  C  C2390  1  0.146200  0.847700  0.862060  1
  C  C2391  1  0.646200  0.652300  0.637940  1
  C  C2392  1  0.646200  0.347700  0.862060  1
  C  C2393  1  0.866700  0.823490  0.337060  1
  C  C2394  1  0.866700  0.176510  0.162940  1
  C  C2395  1  0.366700  0.323490  0.337060  1
  C  C2396  1  0.366700  0.676510  0.162940  1
  C  C2397  1  0.133300  0.176510  0.662940  1
  C  C2398  1  0.133300  0.823490  0.837060  1
  C  C2399  1  0.633300  0.676510  0.662940  1
  C  C2400  1  0.633300  0.323490  0.837060  1
  C  C2401  1  0.841050  0.798290  0.319210  1
  C  C2402  1  0.841050  0.201710  0.180790  1
  C  C2403  1  0.341050  0.298290  0.319210  1
  C  C2404  1  0.341050  0.701710  0.180790  1
  C  C2405  1  0.158950  0.201710  0.680790  1
  C  C2406  1  0.158950  0.798290  0.819210  1
  C  C2407  1  0.658950  0.701710  0.680790  1
  C  C2408  1  0.658950  0.298290  0.819210  1
  C  C2409  1  0.803160  0.798240  0.328040  1
  C  C2410  1  0.803160  0.201760  0.171960  1
  C  C2411  1  0.303160  0.298240  0.328040  1
  C  C2412  1  0.303160  0.701760  0.171960  1
  C  C2413  1  0.196840  0.201760  0.671960  1
  C  C2414  1  0.196840  0.798240  0.828040  1
  C  C2415  1  0.696840  0.701760  0.671960  1
  C  C2416  1  0.696840  0.298240  0.828040  1
  C  C2417  1  0.801200  0.875300  0.395940  1
  C  C2418  1  0.801200  0.124700  0.104060  1
  C  C2419  1  0.301200  0.375300  0.395940  1
  C  C2420  1  0.301200  0.624700  0.104060  1
  C  C2421  1  0.198800  0.124700  0.604060  1
  C  C2422  1  0.198800  0.875300  0.895940  1
  C  C2423  1  0.698800  0.624700  0.604060  1
  C  C2424  1  0.698800  0.375300  0.895940  1
  C  C2425  1  0.852700  0.773700  0.292270  1
  C  C2426  1  0.852700  0.226300  0.207730  1
  C  C2427  1  0.352700  0.273700  0.292270  1
  C  C2428  1  0.352700  0.726300  0.207730  1
  C  C2429  1  0.147300  0.226300  0.707730  1
  C  C2430  1  0.147300  0.773700  0.792270  1
  C  C2431  1  0.647300  0.726300  0.707730  1
  C  C2432  1  0.647300  0.273700  0.792270  1
  C  C2433  1  0.863400  0.754900  0.269980  1
  C  C2434  1  0.863400  0.245100  0.230020  1
  C  C2435  1  0.363400  0.254900  0.269980  1
  C  C2436  1  0.363400  0.745100  0.230020  1
  C  C2437  1  0.136600  0.245100  0.730020  1
  C  C2438  1  0.136600  0.754900  0.769980  1
  C  C2439  1  0.636600  0.745100  0.730020  1
  C  C2440  1  0.636600  0.254900  0.769980  1
  C  C2441  1  0.879500  0.735000  0.243330  1
  C  C2442  1  0.879500  0.265000  0.256670  1
  C  C2443  1  0.379500  0.235000  0.243330  1
  C  C2444  1  0.379500  0.765000  0.256670  1
  C  C2445  1  0.120500  0.265000  0.756670  1
  C  C2446  1  0.120500  0.735000  0.743330  1
  C  C2447  1  0.620500  0.765000  0.756670  1
  C  C2448  1  0.620500  0.235000  0.743330  1
  C  C2449  1  0.911600  0.750200  0.234920  1
  C  C2450  1  0.911600  0.249800  0.265080  1
  C  C2451  1  0.411600  0.250200  0.234920  1
  C  C2452  1  0.411600  0.749800  0.265080  1
  C  C2453  1  0.088400  0.249800  0.765080  1
  C  C2454  1  0.088400  0.750200  0.734920  1
  C  C2455  1  0.588400  0.749800  0.765080  1
  C  C2456  1  0.588400  0.250200  0.734920  1
  C  C2457  1  0.928100  0.731300  0.209680  1
  C  C2458  1  0.928100  0.268700  0.290320  1
  C  C2459  1  0.428100  0.231300  0.209680  1
  C  C2460  1  0.428100  0.768700  0.290320  1
  C  C2461  1  0.071900  0.268700  0.790320  1
  C  C2462  1  0.071900  0.731300  0.709680  1
  C  C2463  1  0.571900  0.768700  0.790320  1
  C  C2464  1  0.571900  0.231300  0.709680  1
  C  C2465  1  0.913330  0.697000  0.192560  1
  C  C2466  1  0.913330  0.303000  0.307440  1
  C  C2467  1  0.413330  0.197000  0.192560  1
  C  C2468  1  0.413330  0.803000  0.307440  1
  C  C2469  1  0.086670  0.303000  0.807440  1
  C  C2470  1  0.086670  0.697000  0.692560  1
  C  C2471  1  0.586670  0.803000  0.807440  1
  C  C2472  1  0.586670  0.197000  0.692560  1
  C  C2473  1  0.906300  0.660400  0.144430  1
  C  C2474  1  0.906300  0.339600  0.355570  1
  C  C2475  1  0.406300  0.160400  0.144430  1
  C  C2476  1  0.406300  0.839600  0.355570  1
  C  C2477  1  0.093700  0.339600  0.855570  1
  C  C2478  1  0.093700  0.660400  0.644430  1
  C  C2479  1  0.593700  0.839600  0.855570  1
  C  C2480  1  0.593700  0.160400  0.644430  1
  C  C2481  1  0.915300  0.661100  0.118570  1
  C  C2482  1  0.915300  0.338900  0.381430  1
  C  C2483  1  0.415300  0.161100  0.118570  1
  C  C2484  1  0.415300  0.838900  0.381430  1
  C  C2485  1  0.084700  0.338900  0.881430  1
  C  C2486  1  0.084700  0.661100  0.618570  1
  C  C2487  1  0.584700  0.838900  0.881430  1
  C  C2488  1  0.584700  0.161100  0.618570  1
  C  C2489  1  0.891800  0.644400  0.096300  1
  C  C2490  1  0.891800  0.355600  0.403700  1
  C  C2491  1  0.391800  0.144400  0.096300  1
  C  C2492  1  0.391800  0.855600  0.403700  1
  C  C2493  1  0.108200  0.355600  0.903700  1
  C  C2494  1  0.108200  0.644400  0.596300  1
  C  C2495  1  0.608200  0.855600  0.903700  1
  C  C2496  1  0.608200  0.144400  0.596300  1
  C  C2497  1  0.857600  0.627200  0.099270  1
  C  C2498  1  0.857600  0.372800  0.400730  1
  C  C2499  1  0.357600  0.127200  0.099270  1
  C  C2500  1  0.357600  0.872800  0.400730  1
  C  C2501  1  0.142400  0.372800  0.900730  1
  C  C2502  1  0.142400  0.627200  0.599270  1
  C  C2503  1  0.642400  0.872800  0.900730  1
  C  C2504  1  0.642400  0.127200  0.599270  1
  C  C2505  1  0.847100  0.627600  0.125470  1
  C  C2506  1  0.847100  0.372400  0.374530  1
  C  C2507  1  0.347100  0.127600  0.125470  1
  C  C2508  1  0.347100  0.872400  0.374530  1
  C  C2509  1  0.152900  0.372400  0.874530  1
  C  C2510  1  0.152900  0.627600  0.625470  1
  C  C2511  1  0.652900  0.872400  0.874530  1
  C  C2512  1  0.652900  0.127600  0.625470  1
  C  C2513  1  0.872200  0.643300  0.147440  1
  C  C2514  1  0.872200  0.356700  0.352560  1
  C  C2515  1  0.372200  0.143300  0.147440  1
  C  C2516  1  0.372200  0.856700  0.352560  1
  C  C2517  1  0.127800  0.356700  0.852560  1
  C  C2518  1  0.127800  0.643300  0.647440  1
  C  C2519  1  0.627800  0.856700  0.852560  1
  C  C2520  1  0.627800  0.143300  0.647440  1
  C  C2521  1  0.880280  0.682260  0.200780  1
  C  C2522  1  0.880280  0.317740  0.299220  1
  C  C2523  1  0.380280  0.182260  0.200780  1
  C  C2524  1  0.380280  0.817740  0.299220  1
  C  C2525  1  0.119720  0.317740  0.799220  1
  C  C2526  1  0.119720  0.682260  0.700780  1
  C  C2527  1  0.619720  0.817740  0.799220  1
  C  C2528  1  0.619720  0.182260  0.700780  1
  C  C2529  1  0.863000  0.701300  0.225980  1
  C  C2530  1  0.863000  0.298700  0.274020  1
  C  C2531  1  0.363000  0.201300  0.225980  1
  C  C2532  1  0.363000  0.798700  0.274020  1
  C  C2533  1  0.137000  0.298700  0.774020  1
  C  C2534  1  0.137000  0.701300  0.725980  1
  C  C2535  1  0.637000  0.798700  0.774020  1
  C  C2536  1  0.637000  0.201300  0.725980  1
  C  C2537  1  0.832300  0.611300  0.076080  1
  C  C2538  1  0.832300  0.388700  0.423920  1
  C  C2539  1  0.332300  0.111300  0.076080  1
  C  C2540  1  0.332300  0.888700  0.423920  1
  C  C2541  1  0.167700  0.388700  0.923920  1
  C  C2542  1  0.167700  0.611300  0.576080  1
  C  C2543  1  0.667700  0.888700  0.923920  1
  C  C2544  1  0.667700  0.111300  0.576080  1
  C  C2545  1  0.812200  0.599700  0.056430  1
  C  C2546  1  0.812200  0.400300  0.443570  1
  C  C2547  1  0.312200  0.099700  0.056430  1
  C  C2548  1  0.312200  0.900300  0.443570  1
  C  C2549  1  0.187800  0.400300  0.943570  1
  C  C2550  1  0.187800  0.599700  0.556430  1
  C  C2551  1  0.687800  0.900300  0.943570  1
  C  C2552  1  0.687800  0.099700  0.556430  1
  C  C2553  1  0.786900  0.587700  0.032850  1
  C  C2554  1  0.786900  0.412300  0.467150  1
  C  C2555  1  0.286900  0.087700  0.032850  1
  C  C2556  1  0.286900  0.912300  0.467150  1
  C  C2557  1  0.213100  0.412300  0.967150  1
  C  C2558  1  0.213100  0.587700  0.532850  1
  C  C2559  1  0.713100  0.912300  0.967150  1
  C  C2560  1  0.713100  0.087700  0.532850  1
  C  C2561  1  0.790900  0.552600  0.011420  1
  C  C2562  1  0.790900  0.447400  0.488580  1
  C  C2563  1  0.290900  0.052600  0.011420  1
  C  C2564  1  0.290900  0.947400  0.488580  1
  C  C2565  1  0.209100  0.447400  0.988580  1
  C  C2566  1  0.209100  0.552600  0.511420  1
  C  C2567  1  0.709100  0.947400  0.988580  1
  C  C2568  1  0.709100  0.052600  0.511420  1
  C  C2569  1  0.765900  0.544300  0.989500  1
  C  C2570  1  0.765900  0.455700  0.510500  1
  C  C2571  1  0.265900  0.044300  0.989500  1
  C  C2572  1  0.265900  0.955700  0.510500  1
  C  C2573  1  0.234100  0.455700  0.010500  1
  C  C2574  1  0.234100  0.544300  0.489500  1
  C  C2575  1  0.734100  0.955700  0.010500  1
  C  C2576  1  0.734100  0.044300  0.489500  1
  C  C2577  1  0.736300  0.569100  0.988920  1
  C  C2578  1  0.736300  0.430900  0.511080  1
  C  C2579  1  0.236300  0.069100  0.988920  1
  C  C2580  1  0.236300  0.930900  0.511080  1
  C  C2581  1  0.263700  0.430900  0.011080  1
  C  C2582  1  0.263700  0.569100  0.488920  1
  C  C2583  1  0.763700  0.930900  0.011080  1
  C  C2584  1  0.763700  0.069100  0.488920  1
  C  C2585  1  0.707900  0.559600  0.965640  1
  C  C2586  1  0.707900  0.440400  0.534360  1
  C  C2587  1  0.207900  0.059600  0.965640  1
  C  C2588  1  0.207900  0.940400  0.534360  1
  C  C2589  1  0.292100  0.440400  0.034360  1
  C  C2590  1  0.292100  0.559600  0.465640  1
  C  C2591  1  0.792100  0.940400  0.034360  1
  C  C2592  1  0.792100  0.059600  0.465640  1
  C  C2593  1  0.757100  0.611300  0.030940  1
  C  C2594  1  0.757100  0.388700  0.469060  1
  C  C2595  1  0.257100  0.111300  0.030940  1
  C  C2596  1  0.257100  0.888700  0.469060  1
  C  C2597  1  0.242900  0.388700  0.969060  1
  C  C2598  1  0.242900  0.611300  0.530940  1
  C  C2599  1  0.742900  0.888700  0.969060  1
  C  C2600  1  0.742900  0.111300  0.530940  1
  C  C2601  1  0.971000  0.683600  0.162630  1
  C  C2602  1  0.971000  0.316400  0.337370  1
  C  C2603  1  0.471000  0.183600  0.162630  1
  C  C2604  1  0.471000  0.816400  0.337370  1
  C  C2605  1  0.029000  0.316400  0.837370  1
  C  C2606  1  0.029000  0.683600  0.662630  1
  C  C2607  1  0.529000  0.816400  0.837370  1
  C  C2608  1  0.529000  0.183600  0.662630  1
  C  C2609  1  0.992500  0.647600  0.147300  1
  C  C2610  1  0.992500  0.352400  0.352700  1
  C  C2611  1  0.492500  0.147600  0.147300  1
  C  C2612  1  0.492500  0.852400  0.352700  1
  C  C2613  1  0.007500  0.352400  0.852700  1
  C  C2614  1  0.007500  0.647600  0.647300  1
  C  C2615  1  0.507500  0.852400  0.852700  1
  C  C2616  1  0.507500  0.147600  0.647300  1
  C  C2617  1  0.989900  0.615800  0.158400  1
  C  C2618  1  0.989900  0.384200  0.341600  1
  C  C2619  1  0.489900  0.115800  0.158400  1
  C  C2620  1  0.489900  0.884200  0.341600  1
  C  C2621  1  0.010100  0.384200  0.841600  1
  C  C2622  1  0.010100  0.615800  0.658400  1
  C  C2623  1  0.510100  0.884200  0.841600  1
  C  C2624  1  0.510100  0.115800  0.658400  1
  C  C2625  1  0.007400  0.624300  0.186400  1
  C  C2626  1  0.007400  0.375700  0.313600  1
  C  C2627  1  0.507400  0.124300  0.186400  1
  C  C2628  1  0.507400  0.875700  0.313600  1
  C  C2629  1  0.992600  0.375700  0.813600  1
  C  C2630  1  0.992600  0.624300  0.686400  1
  C  C2631  1  0.492600  0.875700  0.813600  1
  C  C2632  1  0.492600  0.124300  0.686400  1
  C  C2633  1  0.010100  0.591700  0.197100  1
  C  C2634  1  0.010100  0.408300  0.302900  1
  C  C2635  1  0.510100  0.091700  0.197100  1
  C  C2636  1  0.510100  0.908300  0.302900  1
  C  C2637  1  0.989900  0.408300  0.802900  1
  C  C2638  1  0.989900  0.591700  0.697100  1
  C  C2639  1  0.489900  0.908300  0.802900  1
  C  C2640  1  0.489900  0.091700  0.697100  1
  C  C2641  1  0.028600  0.601800  0.226300  1
  C  C2642  1  0.028600  0.398200  0.273700  1
  C  C2643  1  0.528600  0.101800  0.226300  1
  C  C2644  1  0.528600  0.898200  0.273700  1
  C  C2645  1  0.971400  0.398200  0.773700  1
  C  C2646  1  0.971400  0.601800  0.726300  1
  C  C2647  1  0.471400  0.898200  0.773700  1
  C  C2648  1  0.471400  0.101800  0.726300  1
  C  C2649  1  0.770590  0.751350  0.376780  1
  C  C2650  1  0.770590  0.248650  0.123220  1
  C  C2651  1  0.270590  0.251350  0.376780  1
  C  C2652  1  0.270590  0.748650  0.123220  1
  C  C2653  1  0.229410  0.248650  0.623220  1
  C  C2654  1  0.229410  0.751350  0.876780  1
  C  C2655  1  0.729410  0.748650  0.623220  1
  C  C2656  1  0.729410  0.251350  0.876780  1
  C  C2657  1  0.778600  0.713420  0.372940  1
  C  C2658  1  0.778600  0.286580  0.127060  1
  C  C2659  1  0.278600  0.213420  0.372940  1
  C  C2660  1  0.278600  0.786580  0.127060  1
  C  C2661  1  0.221400  0.286580  0.627060  1
  C  C2662  1  0.221400  0.713420  0.872940  1
  C  C2663  1  0.721400  0.786580  0.627060  1
  C  C2664  1  0.721400  0.213420  0.872940  1
  C  C2665  1  0.762400  0.684610  0.351300  1
  C  C2666  1  0.762400  0.315390  0.148700  1
  C  C2667  1  0.262400  0.184610  0.351300  1
  C  C2668  1  0.262400  0.815390  0.148700  1
  C  C2669  1  0.237600  0.315390  0.648700  1
  C  C2670  1  0.237600  0.684610  0.851300  1
  C  C2671  1  0.737600  0.815390  0.648700  1
  C  C2672  1  0.737600  0.184610  0.851300  1
  C  C2673  1  0.738050  0.694220  0.333333  1
  C  C2674  1  0.738050  0.305780  0.166667  1
  C  C2675  1  0.238050  0.194220  0.333333  1
  C  C2676  1  0.238050  0.805780  0.166667  1
  C  C2677  1  0.261950  0.305780  0.666667  1
  C  C2678  1  0.261950  0.694220  0.833333  1
  C  C2679  1  0.761950  0.805780  0.666667  1
  C  C2680  1  0.761950  0.194220  0.833333  1
  C  C2681  1  0.731700  0.732650  0.338100  1
  C  C2682  1  0.731700  0.267350  0.161900  1
  C  C2683  1  0.231700  0.232650  0.338100  1
  C  C2684  1  0.231700  0.767350  0.161900  1
  C  C2685  1  0.268300  0.267350  0.661900  1
  C  C2686  1  0.268300  0.732650  0.838100  1
  C  C2687  1  0.768300  0.767350  0.661900  1
  C  C2688  1  0.768300  0.232650  0.838100  1
  C  C2689  1  0.788300  0.782970  0.399880  1
  C  C2690  1  0.788300  0.217030  0.100120  1
  C  C2691  1  0.288300  0.282970  0.399880  1
  C  C2692  1  0.288300  0.717030  0.100120  1
  C  C2693  1  0.211700  0.217030  0.600120  1
  C  C2694  1  0.211700  0.782970  0.899880  1
  C  C2695  1  0.711700  0.717030  0.600120  1
  C  C2696  1  0.711700  0.282970  0.899880  1
  C  C2697  1  0.721300  0.665540  0.309950  1
  C  C2698  1  0.721300  0.334460  0.190050  1
  C  C2699  1  0.221300  0.165540  0.309950  1
  C  C2700  1  0.221300  0.834460  0.190050  1
  C  C2701  1  0.278700  0.334460  0.690050  1
  C  C2702  1  0.278700  0.665540  0.809950  1
  C  C2703  1  0.778700  0.834460  0.690050  1
  C  C2704  1  0.778700  0.165540  0.809950  1
  C  C2705  1  0.709400  0.641200  0.290040  1
  C  C2706  1  0.709400  0.358800  0.209960  1
  C  C2707  1  0.209400  0.141200  0.290040  1
  C  C2708  1  0.209400  0.858800  0.209960  1
  C  C2709  1  0.290600  0.358800  0.709960  1
  C  C2710  1  0.290600  0.641200  0.790040  1
  C  C2711  1  0.790600  0.858800  0.709960  1
  C  C2712  1  0.790600  0.141200  0.790040  1
  C  C2713  1  0.697300  0.611250  0.265340  1
  C  C2714  1  0.697300  0.388750  0.234660  1
  C  C2715  1  0.197300  0.111250  0.265340  1
  C  C2716  1  0.197300  0.888750  0.234660  1
  C  C2717  1  0.302700  0.388750  0.734660  1
  C  C2718  1  0.302700  0.611250  0.765340  1
  C  C2719  1  0.802700  0.888750  0.734660  1
  C  C2720  1  0.802700  0.111250  0.765340  1
  C  C2721  1  0.711900  0.574580  0.259080  1
  C  C2722  1  0.711900  0.425420  0.240920  1
  C  C2723  1  0.211900  0.074580  0.259080  1
  C  C2724  1  0.211900  0.925420  0.240920  1
  C  C2725  1  0.288100  0.425420  0.740920  1
  C  C2726  1  0.288100  0.574580  0.759080  1
  C  C2727  1  0.788100  0.925420  0.740920  1
  C  C2728  1  0.788100  0.074580  0.759080  1
  C  C2729  1  0.701000  0.546300  0.234550  1
  C  C2730  1  0.701000  0.453700  0.265450  1
  C  C2731  1  0.201000  0.046300  0.234550  1
  C  C2732  1  0.201000  0.953700  0.265450  1
  C  C2733  1  0.299000  0.453700  0.765450  1
  C  C2734  1  0.299000  0.546300  0.734550  1
  C  C2735  1  0.799000  0.953700  0.765450  1
  C  C2736  1  0.799000  0.046300  0.734550  1
  C  C2737  1  0.674600  0.553890  0.217050  1
  C  C2738  1  0.674600  0.446110  0.282950  1
  C  C2739  1  0.174600  0.053890  0.217050  1
  C  C2740  1  0.174600  0.946110  0.282950  1
  C  C2741  1  0.325400  0.446110  0.782950  1
  C  C2742  1  0.325400  0.553890  0.717050  1
  C  C2743  1  0.825400  0.946110  0.782950  1
  C  C2744  1  0.825400  0.053890  0.717050  1
  C  C2745  1  0.658100  0.535860  0.169040  1
  C  C2746  1  0.658100  0.464140  0.330960  1
  C  C2747  1  0.158100  0.035860  0.169040  1
  C  C2748  1  0.158100  0.964140  0.330960  1
  C  C2749  1  0.341900  0.464140  0.830960  1
  C  C2750  1  0.341900  0.535860  0.669040  1
  C  C2751  1  0.841900  0.964140  0.830960  1
  C  C2752  1  0.841900  0.035860  0.669040  1
  C  C2753  1  0.671200  0.512000  0.143580  1
  C  C2754  1  0.671200  0.488000  0.356420  1
  C  C2755  1  0.171200  0.012000  0.143580  1
  C  C2756  1  0.171200  0.988000  0.356420  1
  C  C2757  1  0.328800  0.488000  0.856420  1
  C  C2758  1  0.328800  0.512000  0.643580  1
  C  C2759  1  0.828800  0.988000  0.856420  1
  C  C2760  1  0.828800  0.012000  0.643580  1
  C  C2761  1  0.665500  0.521800  0.120370  1
  C  C2762  1  0.665500  0.478200  0.379630  1
  C  C2763  1  0.165500  0.021800  0.120370  1
  C  C2764  1  0.165500  0.978200  0.379630  1
  C  C2765  1  0.334500  0.478200  0.879630  1
  C  C2766  1  0.334500  0.521800  0.620370  1
  C  C2767  1  0.834500  0.978200  0.879630  1
  C  C2768  1  0.834500  0.021800  0.620370  1
  C  C2769  1  0.647200  0.555500  0.121940  1
  C  C2770  1  0.647200  0.444500  0.378060  1
  C  C2771  1  0.147200  0.055500  0.121940  1
  C  C2772  1  0.147200  0.944500  0.378060  1
  C  C2773  1  0.352800  0.444500  0.878060  1
  C  C2774  1  0.352800  0.555500  0.621940  1
  C  C2775  1  0.852800  0.944500  0.878060  1
  C  C2776  1  0.852800  0.055500  0.621940  1
  C  C2777  1  0.635200  0.580400  0.147640  1
  C  C2778  1  0.635200  0.419600  0.352360  1
  C  C2779  1  0.135200  0.080400  0.147640  1
  C  C2780  1  0.135200  0.919600  0.352360  1
  C  C2781  1  0.364800  0.419600  0.852360  1
  C  C2782  1  0.364800  0.580400  0.647640  1
  C  C2783  1  0.864800  0.919600  0.852360  1
  C  C2784  1  0.864800  0.080400  0.647640  1
  C  C2785  1  0.640600  0.569910  0.170530  1
  C  C2786  1  0.640600  0.430090  0.329470  1
  C  C2787  1  0.140600  0.069910  0.170530  1
  C  C2788  1  0.140600  0.930090  0.329470  1
  C  C2789  1  0.359400  0.430090  0.829470  1
  C  C2790  1  0.359400  0.569910  0.670530  1
  C  C2791  1  0.859400  0.930090  0.829470  1
  C  C2792  1  0.859400  0.069910  0.670530  1
  C  C2793  1  0.659400  0.590510  0.223800  1
  C  C2794  1  0.659400  0.409490  0.276200  1
  C  C2795  1  0.159400  0.090510  0.223800  1
  C  C2796  1  0.159400  0.909490  0.276200  1
  C  C2797  1  0.340600  0.409490  0.776200  1
  C  C2798  1  0.340600  0.590510  0.723800  1
  C  C2799  1  0.840600  0.909490  0.776200  1
  C  C2800  1  0.840600  0.090510  0.723800  1
  C  C2801  1  0.671400  0.619120  0.247670  1
  C  C2802  1  0.671400  0.380880  0.252330  1
  C  C2803  1  0.171400  0.119120  0.247670  1
  C  C2804  1  0.171400  0.880880  0.252330  1
  C  C2805  1  0.328600  0.380880  0.752330  1
  C  C2806  1  0.328600  0.619120  0.747670  1
  C  C2807  1  0.828600  0.880880  0.752330  1
  C  C2808  1  0.828600  0.119120  0.747670  1
  C  C2809  1  0.639800  0.563800  0.097250  1
  C  C2810  1  0.639800  0.436200  0.402750  1
  C  C2811  1  0.139800  0.063800  0.097250  1
  C  C2812  1  0.139800  0.936200  0.402750  1
  C  C2813  1  0.360200  0.436200  0.902750  1
  C  C2814  1  0.360200  0.563800  0.597250  1
  C  C2815  1  0.860200  0.936200  0.902750  1
  C  C2816  1  0.860200  0.063800  0.597250  1
  C  C2817  1  0.635000  0.569800  0.076320  1
  C  C2818  1  0.635000  0.430200  0.423680  1
  C  C2819  1  0.135000  0.069800  0.076320  1
  C  C2820  1  0.135000  0.930200  0.423680  1
  C  C2821  1  0.365000  0.430200  0.923680  1
  C  C2822  1  0.365000  0.569800  0.576320  1
  C  C2823  1  0.865000  0.930200  0.923680  1
  C  C2824  1  0.865000  0.069800  0.576320  1
  C  C2825  1  0.629500  0.576000  0.050570  1
  C  C2826  1  0.629500  0.424000  0.449430  1
  C  C2827  1  0.129500  0.076000  0.050570  1
  C  C2828  1  0.129500  0.924000  0.449430  1
  C  C2829  1  0.370500  0.424000  0.949430  1
  C  C2830  1  0.370500  0.576000  0.550570  1
  C  C2831  1  0.870500  0.924000  0.949430  1
  C  C2832  1  0.870500  0.076000  0.550570  1
  C  C2833  1  0.599300  0.559700  0.033330  1
  C  C2834  1  0.599300  0.440300  0.466670  1
  C  C2835  1  0.099300  0.059700  0.033330  1
  C  C2836  1  0.099300  0.940300  0.466670  1
  C  C2837  1  0.400700  0.440300  0.966670  1
  C  C2838  1  0.400700  0.559700  0.533330  1
  C  C2839  1  0.900700  0.940300  0.966670  1
  C  C2840  1  0.900700  0.059700  0.533330  1
  C  C2841  1  0.594500  0.565700  0.008680  1
  C  C2842  1  0.594500  0.434300  0.491320  1
  C  C2843  1  0.094500  0.065700  0.008680  1
  C  C2844  1  0.094500  0.934300  0.491320  1
  C  C2845  1  0.405500  0.434300  0.991320  1
  C  C2846  1  0.405500  0.565700  0.508680  1
  C  C2847  1  0.905500  0.934300  0.991320  1
  C  C2848  1  0.905500  0.065700  0.508680  1
  C  C2849  1  0.621000  0.588600  0.001190  1
  C  C2850  1  0.621000  0.411400  0.498810  1
  C  C2851  1  0.121000  0.088600  0.001190  1
  C  C2852  1  0.121000  0.911400  0.498810  1
  C  C2853  1  0.379000  0.411400  0.998810  1
  C  C2854  1  0.379000  0.588600  0.501190  1
  C  C2855  1  0.879000  0.911400  0.998810  1
  C  C2856  1  0.879000  0.088600  0.501190  1
  C  C2857  1  0.615500  0.597100  0.975070  1
  C  C2858  1  0.615500  0.402900  0.524930  1
  C  C2859  1  0.115500  0.097100  0.975070  1
  C  C2860  1  0.115500  0.902900  0.524930  1
  C  C2861  1  0.384500  0.402900  0.024930  1
  C  C2862  1  0.384500  0.597100  0.475070  1
  C  C2863  1  0.884500  0.902900  0.024930  1
  C  C2864  1  0.884500  0.097100  0.475070  1
  C  C2865  1  0.654100  0.598800  0.041940  1
  C  C2866  1  0.654100  0.401200  0.458060  1
  C  C2867  1  0.154100  0.098800  0.041940  1
  C  C2868  1  0.154100  0.901200  0.458060  1
  C  C2869  1  0.345900  0.401200  0.958060  1
  C  C2870  1  0.345900  0.598800  0.541940  1
  C  C2871  1  0.845900  0.901200  0.958060  1
  C  C2872  1  0.845900  0.098800  0.541940  1
  C  C2873  1  0.664600  0.484200  0.188900  1
  C  C2874  1  0.664600  0.515800  0.311100  1
  C  C2875  1  0.164600  0.984200  0.188900  1
  C  C2876  1  0.164600  0.015800  0.311100  1
  C  C2877  1  0.335400  0.515800  0.811100  1
  C  C2878  1  0.335400  0.484200  0.688900  1
  C  C2879  1  0.835400  0.015800  0.811100  1
  C  C2880  1  0.835400  0.984200  0.688900  1
  C  C2881  1  0.632000  0.476200  0.205800  1
  C  C2882  1  0.632000  0.523800  0.294200  1
  C  C2883  1  0.132000  0.976200  0.205800  1
  C  C2884  1  0.132000  0.023800  0.294200  1
  C  C2885  1  0.368000  0.523800  0.794200  1
  C  C2886  1  0.368000  0.476200  0.705800  1
  C  C2887  1  0.868000  0.023800  0.794200  1
  C  C2888  1  0.868000  0.976200  0.705800  1
  C  C2889  1  0.623000  0.434500  0.197700  1
  C  C2890  1  0.623000  0.565500  0.302300  1
  C  C2891  1  0.123000  0.934500  0.197700  1
  C  C2892  1  0.123000  0.065500  0.302300  1
  C  C2893  1  0.377000  0.565500  0.802300  1
  C  C2894  1  0.377000  0.434500  0.697700  1
  C  C2895  1  0.877000  0.065500  0.802300  1
  C  C2896  1  0.877000  0.934500  0.697700  1
  C  C2897  1  0.596400  0.435100  0.221400  1
  C  C2898  1  0.596400  0.564900  0.278600  1
  C  C2899  1  0.096400  0.935100  0.221400  1
  C  C2900  1  0.096400  0.064900  0.278600  1
  C  C2901  1  0.403600  0.564900  0.778600  1
  C  C2902  1  0.403600  0.435100  0.721400  1
  C  C2903  1  0.903600  0.064900  0.778600  1
  C  C2904  1  0.903600  0.935100  0.721400  1
  C  C2905  1  0.578200  0.399900  0.221900  1
  C  C2906  1  0.578200  0.600100  0.278100  1
  C  C2907  1  0.078200  0.899900  0.221900  1
  C  C2908  1  0.078200  0.100100  0.278100  1
  C  C2909  1  0.421800  0.600100  0.778100  1
  C  C2910  1  0.421800  0.399900  0.721900  1
  C  C2911  1  0.921800  0.100100  0.778100  1
  C  C2912  1  0.921800  0.899900  0.721900  1
  C  C2913  1  0.550500  0.406800  0.246900  1
  C  C2914  1  0.550500  0.593200  0.253100  1
  C  C2915  1  0.050500  0.906800  0.246900  1
  C  C2916  1  0.050500  0.093200  0.253100  1
  C  C2917  1  0.449500  0.593200  0.753100  1
  C  C2918  1  0.449500  0.406800  0.746900  1
  C  C2919  1  0.949500  0.093200  0.753100  1
  C  C2920  1  0.949500  0.906800  0.746900  1
  C  C2921  1  0.660200  0.796900  0.385330  1
  C  C2922  1  0.660200  0.203100  0.114670  1
  C  C2923  1  0.160200  0.296900  0.385330  1
  C  C2924  1  0.160200  0.703100  0.114670  1
  C  C2925  1  0.339800  0.203100  0.614670  1
  C  C2926  1  0.339800  0.796900  0.885330  1
  C  C2927  1  0.839800  0.703100  0.614670  1
  C  C2928  1  0.839800  0.296900  0.885330  1
  C  C2929  1  0.621100  0.788900  0.384570  1
  C  C2930  1  0.621100  0.211100  0.115430  1
  C  C2931  1  0.121100  0.288900  0.384570  1
  C  C2932  1  0.121100  0.711100  0.115430  1
  C  C2933  1  0.378900  0.211100  0.615430  1
  C  C2934  1  0.378900  0.788900  0.884570  1
  C  C2935  1  0.878900  0.711100  0.615430  1
  C  C2936  1  0.878900  0.288900  0.884570  1
  C  C2937  1  0.599000  0.788500  0.361770  1
  C  C2938  1  0.599000  0.211500  0.138230  1
  C  C2939  1  0.099000  0.288500  0.361770  1
  C  C2940  1  0.099000  0.711500  0.138230  1
  C  C2941  1  0.401000  0.211500  0.638230  1
  C  C2942  1  0.401000  0.788500  0.861770  1
  C  C2943  1  0.901000  0.711500  0.638230  1
  C  C2944  1  0.901000  0.288500  0.861770  1
  C  C2945  1  0.616900  0.796150  0.340390  1
  C  C2946  1  0.616900  0.203850  0.159610  1
  C  C2947  1  0.116900  0.296150  0.340390  1
  C  C2948  1  0.116900  0.703850  0.159610  1
  C  C2949  1  0.383100  0.203850  0.659610  1
  C  C2950  1  0.383100  0.796150  0.840390  1
  C  C2951  1  0.883100  0.703850  0.659610  1
  C  C2952  1  0.883100  0.296150  0.840390  1
  C  C2953  1  0.655890  0.804520  0.342820  1
  C  C2954  1  0.655890  0.195480  0.157180  1
  C  C2955  1  0.155890  0.304520  0.342820  1
  C  C2956  1  0.155890  0.695480  0.157180  1
  C  C2957  1  0.344110  0.195480  0.657180  1
  C  C2958  1  0.344110  0.804520  0.842820  1
  C  C2959  1  0.844110  0.695480  0.657180  1
  C  C2960  1  0.844110  0.304520  0.842820  1
  C  C2961  1  0.685100  0.796400  0.408820  1
  C  C2962  1  0.685100  0.203600  0.091180  1
  C  C2963  1  0.185100  0.296400  0.408820  1
  C  C2964  1  0.185100  0.703600  0.091180  1
  C  C2965  1  0.314900  0.203600  0.591180  1
  C  C2966  1  0.314900  0.796400  0.908820  1
  C  C2967  1  0.814900  0.703600  0.591180  1
  C  C2968  1  0.814900  0.296400  0.908820  1
  C  C2969  1  0.596500  0.794800  0.315820  1
  C  C2970  1  0.596500  0.205200  0.184180  1
  C  C2971  1  0.096500  0.294800  0.315820  1
  C  C2972  1  0.096500  0.705200  0.184180  1
  C  C2973  1  0.403500  0.205200  0.684180  1
  C  C2974  1  0.403500  0.794800  0.815820  1
  C  C2975  1  0.903500  0.705200  0.684180  1
  C  C2976  1  0.903500  0.294800  0.815820  1
  C  C2977  1  0.580600  0.791700  0.294690  1
  C  C2978  1  0.580600  0.208300  0.205310  1
  C  C2979  1  0.080600  0.291700  0.294690  1
  C  C2980  1  0.080600  0.708300  0.205310  1
  C  C2981  1  0.419400  0.208300  0.705310  1
  C  C2982  1  0.419400  0.791700  0.794690  1
  C  C2983  1  0.919400  0.708300  0.705310  1
  C  C2984  1  0.919400  0.291700  0.794690  1
  C  C2985  1  0.560030  0.788000  0.269790  1
  C  C2986  1  0.560030  0.212000  0.230210  1
  C  C2987  1  0.060030  0.288000  0.269790  1
  C  C2988  1  0.060030  0.712000  0.230210  1
  C  C2989  1  0.439970  0.212000  0.730210  1
  C  C2990  1  0.439970  0.788000  0.769790  1
  C  C2991  1  0.939970  0.712000  0.730210  1
  C  C2992  1  0.939970  0.288000  0.769790  1
  C  C2993  1  0.524300  0.769600  0.265210  1
  C  C2994  1  0.524300  0.230400  0.234790  1
  C  C2995  1  0.024300  0.269600  0.265210  1
  C  C2996  1  0.024300  0.730400  0.234790  1
  C  C2997  1  0.475700  0.230400  0.734790  1
  C  C2998  1  0.475700  0.769600  0.765210  1
  C  C2999  1  0.975700  0.730400  0.734790  1
  C  C3000  1  0.975700  0.269600  0.765210  1
  C  C3001  1  0.503900  0.767500  0.241960  1
  C  C3002  1  0.503900  0.232500  0.258040  1
  C  C3003  1  0.003900  0.267500  0.241960  1
  C  C3004  1  0.003900  0.732500  0.258040  1
  C  C3005  1  0.496100  0.232500  0.758040  1
  C  C3006  1  0.496100  0.767500  0.741960  1
  C  C3007  1  0.996100  0.732500  0.758040  1
  C  C3008  1  0.996100  0.267500  0.741960  1
  C  C3009  1  0.517150  0.782800  0.222740  1
  C  C3010  1  0.517150  0.217200  0.277260  1
  C  C3011  1  0.017150  0.282800  0.222740  1
  C  C3012  1  0.017150  0.717200  0.277260  1
  C  C3013  1  0.482850  0.217200  0.777260  1
  C  C3014  1  0.482850  0.782800  0.722740  1
  C  C3015  1  0.982850  0.717200  0.777260  1
  C  C3016  1  0.982850  0.282800  0.722740  1
  C  C3017  1  0.513900  0.772700  0.174060  1
  C  C3018  1  0.513900  0.227300  0.325940  1
  C  C3019  1  0.013900  0.272700  0.174060  1
  C  C3020  1  0.013900  0.727300  0.325940  1
  C  C3021  1  0.486100  0.227300  0.825940  1
  C  C3022  1  0.486100  0.772700  0.674060  1
  C  C3023  1  0.986100  0.727300  0.825940  1
  C  C3024  1  0.986100  0.272700  0.674060  1
  C  C3025  1  0.497000  0.748100  0.150180  1
  C  C3026  1  0.497000  0.251900  0.349820  1
  C  C3027  1  0.997000  0.248100  0.150180  1
  C  C3028  1  0.997000  0.751900  0.349820  1
  C  C3029  1  0.503000  0.251900  0.849820  1
  C  C3030  1  0.503000  0.748100  0.650180  1
  C  C3031  1  0.003000  0.751900  0.849820  1
  C  C3032  1  0.003000  0.248100  0.650180  1
  C  C3033  1  0.515800  0.738900  0.124760  1
  C  C3034  1  0.515800  0.261100  0.375240  1
  C  C3035  1  0.015800  0.238900  0.124760  1
  C  C3036  1  0.015800  0.761100  0.375240  1
  C  C3037  1  0.484200  0.261100  0.875240  1
  C  C3038  1  0.484200  0.738900  0.624760  1
  C  C3039  1  0.984200  0.761100  0.875240  1
  C  C3040  1  0.984200  0.238900  0.624760  1
  C  C3041  1  0.552100  0.753700  0.123520  1
  C  C3042  1  0.552100  0.246300  0.376480  1
  C  C3043  1  0.052100  0.253700  0.123520  1
  C  C3044  1  0.052100  0.746300  0.376480  1
  C  C3045  1  0.447900  0.246300  0.876480  1
  C  C3046  1  0.447900  0.753700  0.623520  1
  C  C3047  1  0.947900  0.746300  0.876480  1
  C  C3048  1  0.947900  0.253700  0.623520  1
  C  C3049  1  0.569700  0.777600  0.147450  1
  C  C3050  1  0.569700  0.222400  0.352550  1
  C  C3051  1  0.069700  0.277600  0.147450  1
  C  C3052  1  0.069700  0.722400  0.352550  1
  C  C3053  1  0.430300  0.222400  0.852550  1
  C  C3054  1  0.430300  0.777600  0.647450  1
  C  C3055  1  0.930300  0.722400  0.852550  1
  C  C3056  1  0.930300  0.277600  0.647450  1
  C  C3057  1  0.550600  0.787600  0.172660  1
  C  C3058  1  0.550600  0.212400  0.327340  1
  C  C3059  1  0.050600  0.287600  0.172660  1
  C  C3060  1  0.050600  0.712400  0.327340  1
  C  C3061  1  0.449400  0.212400  0.827340  1
  C  C3062  1  0.449400  0.787600  0.672660  1
  C  C3063  1  0.949400  0.712400  0.827340  1
  C  C3064  1  0.949400  0.287600  0.672660  1
  C  C3065  1  0.553680  0.799200  0.226760  1
  C  C3066  1  0.553680  0.200800  0.273240  1
  C  C3067  1  0.053680  0.299200  0.226760  1
  C  C3068  1  0.053680  0.700800  0.273240  1
  C  C3069  1  0.446320  0.200800  0.773240  1
  C  C3070  1  0.446320  0.799200  0.726760  1
  C  C3071  1  0.946320  0.700800  0.773240  1
  C  C3072  1  0.946320  0.299200  0.726760  1
  C  C3073  1  0.574500  0.802200  0.250240  1
  C  C3074  1  0.574500  0.197800  0.249760  1
  C  C3075  1  0.074500  0.302200  0.250240  1
  C  C3076  1  0.074500  0.697800  0.249760  1
  C  C3077  1  0.425500  0.197800  0.749760  1
  C  C3078  1  0.425500  0.802200  0.750240  1
  C  C3079  1  0.925500  0.697800  0.749760  1
  C  C3080  1  0.925500  0.302200  0.750240  1
  C  C3081  1  0.571200  0.743800  0.097350  1
  C  C3082  1  0.571200  0.256200  0.402650  1
  C  C3083  1  0.071200  0.243800  0.097350  1
  C  C3084  1  0.071200  0.756200  0.402650  1
  C  C3085  1  0.428800  0.256200  0.902650  1
  C  C3086  1  0.428800  0.743800  0.597350  1
  C  C3087  1  0.928800  0.756200  0.902650  1
  C  C3088  1  0.928800  0.243800  0.597350  1
  C  C3089  1  0.585900  0.734600  0.075140  1
  C  C3090  1  0.585900  0.265400  0.424860  1
  C  C3091  1  0.085900  0.234600  0.075140  1
  C  C3092  1  0.085900  0.765400  0.424860  1
  C  C3093  1  0.414100  0.265400  0.924860  1
  C  C3094  1  0.414100  0.734600  0.575140  1
  C  C3095  1  0.914100  0.765400  0.924860  1
  C  C3096  1  0.914100  0.234600  0.575140  1
  C  C3097  1  0.603400  0.721800  0.048370  1
  C  C3098  1  0.603400  0.278200  0.451630  1
  C  C3099  1  0.103400  0.221800  0.048370  1
  C  C3100  1  0.103400  0.778200  0.451630  1
  C  C3101  1  0.396600  0.278200  0.951630  1
  C  C3102  1  0.396600  0.721800  0.548370  1
  C  C3103  1  0.896600  0.778200  0.951630  1
  C  C3104  1  0.896600  0.221800  0.548370  1
  C  C3105  1  0.591100  0.735800  0.027730  1
  C  C3106  1  0.591100  0.264200  0.472270  1
  C  C3107  1  0.091100  0.235800  0.027730  1
  C  C3108  1  0.091100  0.764200  0.472270  1
  C  C3109  1  0.408900  0.264200  0.972270  1
  C  C3110  1  0.408900  0.735800  0.527730  1
  C  C3111  1  0.908900  0.764200  0.972270  1
  C  C3112  1  0.908900  0.235800  0.527730  1
  C  C3113  1  0.607900  0.721800  0.002060  1
  C  C3114  1  0.607900  0.278200  0.497940  1
  C  C3115  1  0.107900  0.221800  0.002060  1
  C  C3116  1  0.107900  0.778200  0.497940  1
  C  C3117  1  0.392100  0.278200  0.997940  1
  C  C3118  1  0.392100  0.721800  0.502060  1
  C  C3119  1  0.892100  0.778200  0.997940  1
  C  C3120  1  0.892100  0.221800  0.502060  1
  C  C3121  1  0.636700  0.694500  0.996720  1
  C  C3122  1  0.636700  0.305500  0.503280  1
  C  C3123  1  0.136700  0.194500  0.996720  1
  C  C3124  1  0.136700  0.805500  0.503280  1
  C  C3125  1  0.363300  0.305500  0.003280  1
  C  C3126  1  0.363300  0.694500  0.496720  1
  C  C3127  1  0.863300  0.805500  0.003280  1
  C  C3128  1  0.863300  0.194500  0.496720  1
  C  C3129  1  0.655100  0.679700  0.968840  1
  C  C3130  1  0.655100  0.320300  0.531160  1
  C  C3131  1  0.155100  0.179700  0.968840  1
  C  C3132  1  0.155100  0.820300  0.531160  1
  C  C3133  1  0.344900  0.320300  0.031160  1
  C  C3134  1  0.344900  0.679700  0.468840  1
  C  C3135  1  0.844900  0.820300  0.031160  1
  C  C3136  1  0.844900  0.179700  0.468840  1
  C  C3137  1  0.632000  0.693800  0.041070  1
  C  C3138  1  0.632000  0.306200  0.458930  1
  C  C3139  1  0.132000  0.193800  0.041070  1
  C  C3140  1  0.132000  0.806200  0.458930  1
  C  C3141  1  0.368000  0.306200  0.958930  1
  C  C3142  1  0.368000  0.693800  0.541070  1
  C  C3143  1  0.868000  0.806200  0.958930  1
  C  C3144  1  0.868000  0.193800  0.541070  1
  C  C3145  1  0.452500  0.780400  0.200030  1
  C  C3146  1  0.452500  0.219600  0.299970  1
  C  C3147  1  0.952500  0.280400  0.200030  1
  C  C3148  1  0.952500  0.719600  0.299970  1
  C  C3149  1  0.547500  0.219600  0.799970  1
  C  C3150  1  0.547500  0.780400  0.700030  1
  C  C3151  1  0.047500  0.719600  0.799970  1
  C  C3152  1  0.047500  0.280400  0.700030  1
  C  C3153  1  0.435200  0.812800  0.222700  1
  C  C3154  1  0.435200  0.187200  0.277300  1
  C  C3155  1  0.935200  0.312800  0.222700  1
  C  C3156  1  0.935200  0.687200  0.277300  1
  C  C3157  1  0.564800  0.187200  0.777300  1
  C  C3158  1  0.564800  0.812800  0.722700  1
  C  C3159  1  0.064800  0.687200  0.777300  1
  C  C3160  1  0.064800  0.312800  0.722700  1
  C  C3161  1  0.439800  0.850700  0.220800  1
  C  C3162  1  0.439800  0.149300  0.279200  1
  C  C3163  1  0.939800  0.350700  0.220800  1
  C  C3164  1  0.939800  0.649300  0.279200  1
  C  C3165  1  0.560200  0.149300  0.779200  1
  C  C3166  1  0.560200  0.850700  0.720800  1
  C  C3167  1  0.060200  0.649300  0.779200  1
  C  C3168  1  0.060200  0.350700  0.720800  1
  C  C3169  1  0.421200  0.883100  0.244700  1
  C  C3170  1  0.421200  0.116900  0.255300  1
  C  C3171  1  0.921200  0.383100  0.244700  1
  C  C3172  1  0.921200  0.616900  0.255300  1
  C  C3173  1  0.578800  0.116900  0.755300  1
  C  C3174  1  0.578800  0.883100  0.744700  1
  C  C3175  1  0.078800  0.616900  0.755300  1
  C  C3176  1  0.078800  0.383100  0.744700  1
  C  C3177  1  0.427200  0.922100  0.242700  1
  C  C3178  1  0.427200  0.077900  0.257300  1
  C  C3179  1  0.927200  0.422100  0.242700  1
  C  C3180  1  0.927200  0.577900  0.257300  1
  C  C3181  1  0.572800  0.077900  0.757300  1
  C  C3182  1  0.572800  0.922100  0.742700  1
  C  C3183  1  0.072800  0.577900  0.757300  1
  C  C3184  1  0.072800  0.422100  0.742700  1
  C  C3185  1  0.411800  0.956100  0.266700  1
  C  C3186  1  0.411800  0.043900  0.233300  1
  C  C3187  1  0.911800  0.456100  0.266700  1
  C  C3188  1  0.911800  0.543900  0.233300  1
  C  C3189  1  0.588200  0.043900  0.733300  1
  C  C3190  1  0.588200  0.956100  0.766700  1
  C  C3191  1  0.088200  0.543900  0.733300  1
  C  C3192  1  0.088200  0.456100  0.766700  1
  C  C3193  1  0.750500  0.822500  0.563970  1
  C  C3194  1  0.750500  0.177500  0.936030  1
  C  C3195  1  0.250500  0.322500  0.563970  1
  C  C3196  1  0.250500  0.677500  0.936030  1
  C  C3197  1  0.249500  0.177500  0.436030  1
  C  C3198  1  0.249500  0.822500  0.063970  1
  C  C3199  1  0.749500  0.677500  0.436030  1
  C  C3200  1  0.749500  0.322500  0.063970  1
  C  C3201  1  0.741100  0.784400  0.557230  1
  C  C3202  1  0.741100  0.215600  0.942770  1
  C  C3203  1  0.241100  0.284400  0.557230  1
  C  C3204  1  0.241100  0.715600  0.942770  1
  C  C3205  1  0.258900  0.215600  0.442770  1
  C  C3206  1  0.258900  0.784400  0.057230  1
  C  C3207  1  0.758900  0.715600  0.442770  1
  C  C3208  1  0.758900  0.284400  0.057230  1
  C  C3209  1  0.719500  0.765700  0.534140  1
  C  C3210  1  0.719500  0.234300  0.965860  1
  C  C3211  1  0.219500  0.265700  0.534140  1
  C  C3212  1  0.219500  0.734300  0.965860  1
  C  C3213  1  0.280500  0.234300  0.465860  1
  C  C3214  1  0.280500  0.765700  0.034140  1
  C  C3215  1  0.780500  0.734300  0.465860  1
  C  C3216  1  0.780500  0.265700  0.034140  1
  C  C3217  1  0.707200  0.786700  0.517420  1
  C  C3218  1  0.707200  0.213300  0.982580  1
  C  C3219  1  0.207200  0.286700  0.517420  1
  C  C3220  1  0.207200  0.713300  0.982580  1
  C  C3221  1  0.292800  0.213300  0.482580  1
  C  C3222  1  0.292800  0.786700  0.017420  1
  C  C3223  1  0.792800  0.713300  0.482580  1
  C  C3224  1  0.792800  0.286700  0.017420  1
  C  C3225  1  0.719100  0.824500  0.525160  1
  C  C3226  1  0.719100  0.175500  0.974840  1
  C  C3227  1  0.219100  0.324500  0.525160  1
  C  C3228  1  0.219100  0.675500  0.974840  1
  C  C3229  1  0.280900  0.175500  0.474840  1
  C  C3230  1  0.280900  0.824500  0.025160  1
  C  C3231  1  0.780900  0.675500  0.474840  1
  C  C3232  1  0.780900  0.324500  0.025160  1
  C  C3233  1  0.772000  0.843100  0.589690  1
  C  C3234  1  0.772000  0.156900  0.910310  1
  C  C3235  1  0.272000  0.343100  0.589690  1
  C  C3236  1  0.272000  0.656900  0.910310  1
  C  C3237  1  0.228000  0.156900  0.410310  1
  C  C3238  1  0.228000  0.843100  0.089690  1
  C  C3239  1  0.728000  0.656900  0.410310  1
  C  C3240  1  0.728000  0.343100  0.089690  1
  C  C3241  1  0.683100  0.769600  0.493840  1
  C  C3242  1  0.683100  0.230400  0.006160  1
  C  C3243  1  0.183100  0.269600  0.493840  1
  C  C3244  1  0.183100  0.730400  0.006160  1
  C  C3245  1  0.316900  0.230400  0.506160  1
  C  C3246  1  0.316900  0.769600  0.993840  1
  C  C3247  1  0.816900  0.730400  0.506160  1
  C  C3248  1  0.816900  0.269600  0.993840  1
  C  C3249  1  0.661400  0.755400  0.475300  1
  C  C3250  1  0.661400  0.244600  0.024700  1
  C  C3251  1  0.161400  0.255400  0.475300  1
  C  C3252  1  0.161400  0.744600  0.024700  1
  C  C3253  1  0.338600  0.244600  0.524700  1
  C  C3254  1  0.338600  0.755400  0.975300  1
  C  C3255  1  0.838600  0.744600  0.524700  1
  C  C3256  1  0.838600  0.255400  0.975300  1
  C  C3257  1  0.635700  0.737600  0.452890  1
  C  C3258  1  0.635700  0.262400  0.047110  1
  C  C3259  1  0.135700  0.237600  0.452890  1
  C  C3260  1  0.135700  0.762400  0.047110  1
  C  C3261  1  0.364300  0.262400  0.547110  1
  C  C3262  1  0.364300  0.737600  0.952890  1
  C  C3263  1  0.864300  0.762400  0.547110  1
  C  C3264  1  0.864300  0.237600  0.952890  1
  C  C3265  1  0.596700  0.737200  0.456760  1
  C  C3266  1  0.596700  0.262800  0.043240  1
  C  C3267  1  0.096700  0.237200  0.456760  1
  C  C3268  1  0.096700  0.762800  0.043240  1
  C  C3269  1  0.403300  0.262800  0.543240  1
  C  C3270  1  0.403300  0.737200  0.956760  1
  C  C3271  1  0.903300  0.762800  0.543240  1
  C  C3272  1  0.903300  0.237200  0.956760  1
  C  C3273  1  0.572100  0.720400  0.434980  1
  C  C3274  1  0.572100  0.279600  0.065020  1
  C  C3275  1  0.072100  0.220400  0.434980  1
  C  C3276  1  0.072100  0.779600  0.065020  1
  C  C3277  1  0.427900  0.279600  0.565020  1
  C  C3278  1  0.427900  0.720400  0.934980  1
  C  C3279  1  0.927900  0.779600  0.565020  1
  C  C3280  1  0.927900  0.220400  0.934980  1
  C  C3281  1  0.586900  0.701900  0.408690  1
  C  C3282  1  0.586900  0.298100  0.091310  1
  C  C3283  1  0.086900  0.201900  0.408690  1
  C  C3284  1  0.086900  0.798100  0.091310  1
  C  C3285  1  0.413100  0.298100  0.591310  1
  C  C3286  1  0.413100  0.701900  0.908690  1
  C  C3287  1  0.913100  0.798100  0.591310  1
  C  C3288  1  0.913100  0.201900  0.908690  1
  C  C3289  1  0.571170  0.688000  0.360640  1
  C  C3290  1  0.571170  0.312000  0.139360  1
  C  C3291  1  0.071170  0.188000  0.360640  1
  C  C3292  1  0.071170  0.812000  0.139360  1
  C  C3293  1  0.428830  0.312000  0.639360  1
  C  C3294  1  0.428830  0.688000  0.860640  1
  C  C3295  1  0.928830  0.812000  0.639360  1
  C  C3296  1  0.928830  0.188000  0.860640  1
  C  C3297  1  0.542300  0.693900  0.343850  1
  C  C3298  1  0.542300  0.306100  0.156150  1
  C  C3299  1  0.042300  0.193900  0.343850  1
  C  C3300  1  0.042300  0.806100  0.156150  1
  C  C3301  1  0.457700  0.306100  0.656150  1
  C  C3302  1  0.457700  0.693900  0.843850  1
  C  C3303  1  0.957700  0.806100  0.656150  1
  C  C3304  1  0.957700  0.193900  0.843850  1
  C  C3305  1  0.552000  0.696800  0.318400  1
  C  C3306  1  0.552000  0.303200  0.181600  1
  C  C3307  1  0.052000  0.196800  0.318400  1
  C  C3308  1  0.052000  0.803200  0.181600  1
  C  C3309  1  0.448000  0.303200  0.681600  1
  C  C3310  1  0.448000  0.696800  0.818400  1
  C  C3311  1  0.948000  0.803200  0.681600  1
  C  C3312  1  0.948000  0.196800  0.818400  1
  C  C3313  1  0.589500  0.694500  0.309640  1
  C  C3314  1  0.589500  0.305500  0.190360  1
  C  C3315  1  0.089500  0.194500  0.309640  1
  C  C3316  1  0.089500  0.805500  0.190360  1
  C  C3317  1  0.410500  0.305500  0.690360  1
  C  C3318  1  0.410500  0.694500  0.809640  1
  C  C3319  1  0.910500  0.805500  0.690360  1
  C  C3320  1  0.910500  0.194500  0.809640  1
  C  C3321  1  0.618400  0.689500  0.326730  1
  C  C3322  1  0.618400  0.310500  0.173270  1
  C  C3323  1  0.118400  0.189500  0.326730  1
  C  C3324  1  0.118400  0.810500  0.173270  1
  C  C3325  1  0.381600  0.310500  0.673270  1
  C  C3326  1  0.381600  0.689500  0.826730  1
  C  C3327  1  0.881600  0.810500  0.673270  1
  C  C3328  1  0.881600  0.189500  0.826730  1
  C  C3329  1  0.609220  0.685500  0.351920  1
  C  C3330  1  0.609220  0.314500  0.148080  1
  C  C3331  1  0.109220  0.185500  0.351920  1
  C  C3332  1  0.109220  0.814500  0.148080  1
  C  C3333  1  0.390780  0.314500  0.648080  1
  C  C3334  1  0.390780  0.685500  0.851920  1
  C  C3335  1  0.890780  0.814500  0.648080  1
  C  C3336  1  0.890780  0.185500  0.851920  1
  C  C3337  1  0.626210  0.701800  0.404830  1
  C  C3338  1  0.626210  0.298200  0.095170  1
  C  C3339  1  0.126210  0.201800  0.404830  1
  C  C3340  1  0.126210  0.798200  0.095170  1
  C  C3341  1  0.373790  0.298200  0.595170  1
  C  C3342  1  0.373790  0.701800  0.904830  1
  C  C3343  1  0.873790  0.798200  0.595170  1
  C  C3344  1  0.873790  0.201800  0.904830  1
  C  C3345  1  0.651000  0.720300  0.426260  1
  C  C3346  1  0.651000  0.279700  0.073740  1
  C  C3347  1  0.151000  0.220300  0.426260  1
  C  C3348  1  0.151000  0.779700  0.073740  1
  C  C3349  1  0.349000  0.279700  0.573740  1
  C  C3350  1  0.349000  0.720300  0.926260  1
  C  C3351  1  0.849000  0.779700  0.573740  1
  C  C3352  1  0.849000  0.220300  0.926260  1
  C  C3353  1  0.599100  0.697100  0.283280  1
  C  C3354  1  0.599100  0.302900  0.216720  1
  C  C3355  1  0.099100  0.197100  0.283280  1
  C  C3356  1  0.099100  0.802900  0.216720  1
  C  C3357  1  0.400900  0.302900  0.716720  1
  C  C3358  1  0.400900  0.697100  0.783280  1
  C  C3359  1  0.900900  0.802900  0.716720  1
  C  C3360  1  0.900900  0.197100  0.783280  1
  C  C3361  1  0.606000  0.700300  0.261680  1
  C  C3362  1  0.606000  0.299700  0.238320  1
  C  C3363  1  0.106000  0.200300  0.261680  1
  C  C3364  1  0.106000  0.799700  0.238320  1
  C  C3365  1  0.394000  0.299700  0.738320  1
  C  C3366  1  0.394000  0.700300  0.761680  1
  C  C3367  1  0.894000  0.799700  0.738320  1
  C  C3368  1  0.894000  0.200300  0.761680  1
  C  C3369  1  0.614530  0.705130  0.235820  1
  C  C3370  1  0.614530  0.294870  0.264180  1
  C  C3371  1  0.114530  0.205130  0.235820  1
  C  C3372  1  0.114530  0.794870  0.264180  1
  C  C3373  1  0.385470  0.294870  0.764180  1
  C  C3374  1  0.385470  0.705130  0.735820  1
  C  C3375  1  0.885470  0.794870  0.764180  1
  C  C3376  1  0.885470  0.205130  0.735820  1
  C  C3377  1  0.586500  0.701800  0.216120  1
  C  C3378  1  0.586500  0.298200  0.283880  1
  C  C3379  1  0.086500  0.201800  0.216120  1
  C  C3380  1  0.086500  0.798200  0.283880  1
  C  C3381  1  0.413500  0.298200  0.783880  1
  C  C3382  1  0.413500  0.701800  0.716120  1
  C  C3383  1  0.913500  0.798200  0.783880  1
  C  C3384  1  0.913500  0.201800  0.716120  1
  C  C3385  1  0.595300  0.708700  0.192270  1
  C  C3386  1  0.595300  0.291300  0.307730  1
  C  C3387  1  0.095300  0.208700  0.192270  1
  C  C3388  1  0.095300  0.791300  0.307730  1
  C  C3389  1  0.404700  0.291300  0.807730  1
  C  C3390  1  0.404700  0.708700  0.692270  1
  C  C3391  1  0.904700  0.791300  0.807730  1
  C  C3392  1  0.904700  0.208700  0.692270  1
  C  C3393  1  0.632400  0.718300  0.187760  1
  C  C3394  1  0.632400  0.281700  0.312240  1
  C  C3395  1  0.132400  0.218300  0.187760  1
  C  C3396  1  0.132400  0.781700  0.312240  1
  C  C3397  1  0.367600  0.281700  0.812240  1
  C  C3398  1  0.367600  0.718300  0.687760  1
  C  C3399  1  0.867600  0.781700  0.812240  1
  C  C3400  1  0.867600  0.218300  0.687760  1
  C  C3401  1  0.642500  0.726000  0.161920  1
  C  C3402  1  0.642500  0.274000  0.338080  1
  C  C3403  1  0.142500  0.226000  0.161920  1
  C  C3404  1  0.142500  0.774000  0.338080  1
  C  C3405  1  0.357500  0.274000  0.838080  1
  C  C3406  1  0.357500  0.726000  0.661920  1
  C  C3407  1  0.857500  0.774000  0.838080  1
  C  C3408  1  0.857500  0.226000  0.661920  1
  C  C3409  1  0.651300  0.714990  0.230120  1
  C  C3410  1  0.651300  0.285010  0.269880  1
  C  C3411  1  0.151300  0.214990  0.230120  1
  C  C3412  1  0.151300  0.785010  0.269880  1
  C  C3413  1  0.348700  0.285010  0.769880  1
  C  C3414  1  0.348700  0.714990  0.730120  1
  C  C3415  1  0.848700  0.785010  0.769880  1
  C  C3416  1  0.848700  0.214990  0.730120  1
  C  C3417  1  0.523800  0.671300  0.390500  1
  C  C3418  1  0.523800  0.328700  0.109500  1
  C  C3419  1  0.023800  0.171300  0.390500  1
  C  C3420  1  0.023800  0.828700  0.109500  1
  C  C3421  1  0.476200  0.328700  0.609500  1
  C  C3422  1  0.476200  0.671300  0.890500  1
  C  C3423  1  0.976200  0.828700  0.609500  1
  C  C3424  1  0.976200  0.171300  0.890500  1
  C  C3425  1  0.516000  0.630900  0.370800  1
  C  C3426  1  0.516000  0.369100  0.129200  1
  C  C3427  1  0.016000  0.130900  0.370800  1
  C  C3428  1  0.016000  0.869100  0.129200  1
  C  C3429  1  0.484000  0.369100  0.629200  1
  C  C3430  1  0.484000  0.630900  0.870800  1
  C  C3431  1  0.984000  0.869100  0.629200  1
  C  C3432  1  0.984000  0.130900  0.870800  1
  C  C3433  1  0.540800  0.600800  0.376300  1
  C  C3434  1  0.540800  0.399200  0.123700  1
  C  C3435  1  0.040800  0.100800  0.376300  1
  C  C3436  1  0.040800  0.899200  0.123700  1
  C  C3437  1  0.459200  0.399200  0.623700  1
  C  C3438  1  0.459200  0.600800  0.876300  1
  C  C3439  1  0.959200  0.899200  0.623700  1
  C  C3440  1  0.959200  0.100800  0.876300  1
  C  C3441  1  0.534100  0.559400  0.358700  1
  C  C3442  1  0.534100  0.440600  0.141300  1
  C  C3443  1  0.034100  0.059400  0.358700  1
  C  C3444  1  0.034100  0.940600  0.141300  1
  C  C3445  1  0.465900  0.440600  0.641300  1
  C  C3446  1  0.465900  0.559400  0.858700  1
  C  C3447  1  0.965900  0.940600  0.641300  1
  C  C3448  1  0.965900  0.059400  0.858700  1
  C  C3449  1  0.560200  0.529300  0.362700  1
  C  C3450  1  0.560200  0.470700  0.137300  1
  C  C3451  1  0.060200  0.029300  0.362700  1
  C  C3452  1  0.060200  0.970700  0.137300  1
  C  C3453  1  0.439800  0.470700  0.637300  1
  C  C3454  1  0.439800  0.529300  0.862700  1
  C  C3455  1  0.939800  0.970700  0.637300  1
  C  C3456  1  0.939800  0.029300  0.862700  1
  C  C3457  1  0.548300  0.487800  0.342200  1
  C  C3458  1  0.548300  0.512200  0.157800  1
  C  C3459  1  0.048300  0.987800  0.342200  1
  C  C3460  1  0.048300  0.012200  0.157800  1
  C  C3461  1  0.451700  0.512200  0.657800  1
  C  C3462  1  0.451700  0.487800  0.842200  1
  C  C3463  1  0.951700  0.012200  0.657800  1
  C  C3464  1  0.951700  0.987800  0.842200  1
  C  C3465  1  0.839700  0.891000  0.568040  1
  C  C3466  1  0.839700  0.109000  0.931960  1
  C  C3467  1  0.339700  0.391000  0.568040  1
  C  C3468  1  0.339700  0.609000  0.931960  1
  C  C3469  1  0.160300  0.109000  0.431960  1
  C  C3470  1  0.160300  0.891000  0.068040  1
  C  C3471  1  0.660300  0.609000  0.431960  1
  C  C3472  1  0.660300  0.391000  0.068040  1
  C  C3473  1  0.876500  0.876400  0.562870  1
  C  C3474  1  0.876500  0.123600  0.937130  1
  C  C3475  1  0.376500  0.376400  0.562870  1
  C  C3476  1  0.376500  0.623600  0.937130  1
  C  C3477  1  0.123500  0.123600  0.437130  1
  C  C3478  1  0.123500  0.876400  0.062870  1
  C  C3479  1  0.623500  0.623600  0.437130  1
  C  C3480  1  0.623500  0.376400  0.062870  1
  C  C3481  1  0.885400  0.849000  0.538200  1
  C  C3482  1  0.885400  0.151000  0.961800  1
  C  C3483  1  0.385400  0.349000  0.538200  1
  C  C3484  1  0.385400  0.651000  0.961800  1
  C  C3485  1  0.114600  0.151000  0.461800  1
  C  C3486  1  0.114600  0.849000  0.038200  1
  C  C3487  1  0.614600  0.651000  0.461800  1
  C  C3488  1  0.614600  0.349000  0.038200  1
  C  C3489  1  0.856800  0.836030  0.518150  1
  C  C3490  1  0.856800  0.163970  0.981850  1
  C  C3491  1  0.356800  0.336030  0.518150  1
  C  C3492  1  0.356800  0.663970  0.981850  1
  C  C3493  1  0.143200  0.163970  0.481850  1
  C  C3494  1  0.143200  0.836030  0.018150  1
  C  C3495  1  0.643200  0.663970  0.481850  1
  C  C3496  1  0.643200  0.336030  0.018150  1
  C  C3497  1  0.820800  0.851770  0.524290  1
  C  C3498  1  0.820800  0.148230  0.975710  1
  C  C3499  1  0.320800  0.351770  0.524290  1
  C  C3500  1  0.320800  0.648230  0.975710  1
  C  C3501  1  0.179200  0.148230  0.475710  1
  C  C3502  1  0.179200  0.851770  0.024290  1
  C  C3503  1  0.679200  0.648230  0.475710  1
  C  C3504  1  0.679200  0.351770  0.024290  1
  C  C3505  1  0.829500  0.921300  0.595050  1
  C  C3506  1  0.829500  0.078700  0.904950  1
  C  C3507  1  0.329500  0.421300  0.595050  1
  C  C3508  1  0.329500  0.578700  0.904950  1
  C  C3509  1  0.170500  0.078700  0.404950  1
  C  C3510  1  0.170500  0.921300  0.095050  1
  C  C3511  1  0.670500  0.578700  0.404950  1
  C  C3512  1  0.670500  0.421300  0.095050  1
  C  C3513  1  0.864300  0.806700  0.492160  1
  C  C3514  1  0.864300  0.193300  0.007840  1
  C  C3515  1  0.364300  0.306700  0.492160  1
  C  C3516  1  0.364300  0.693300  0.007840  1
  C  C3517  1  0.135700  0.193300  0.507840  1
  C  C3518  1  0.135700  0.806700  0.992160  1
  C  C3519  1  0.635700  0.693300  0.507840  1
  C  C3520  1  0.635700  0.306700  0.992160  1
  C  C3521  1  0.869900  0.781700  0.471080  1
  C  C3522  1  0.869900  0.218300  0.028920  1
  C  C3523  1  0.369900  0.281700  0.471080  1
  C  C3524  1  0.369900  0.718300  0.028920  1
  C  C3525  1  0.130100  0.218300  0.528920  1
  C  C3526  1  0.130100  0.781700  0.971080  1
  C  C3527  1  0.630100  0.718300  0.528920  1
  C  C3528  1  0.630100  0.281700  0.971080  1
  C  C3529  1  0.876200  0.750270  0.445370  1
  C  C3530  1  0.876200  0.249730  0.054630  1
  C  C3531  1  0.376200  0.250270  0.445370  1
  C  C3532  1  0.376200  0.749730  0.054630  1
  C  C3533  1  0.123800  0.249730  0.554630  1
  C  C3534  1  0.123800  0.750270  0.945370  1
  C  C3535  1  0.623800  0.749730  0.554630  1
  C  C3536  1  0.623800  0.250270  0.945370  1
  C  C3537  1  0.882400  0.713700  0.445050  1
  C  C3538  1  0.882400  0.286300  0.054950  1
  C  C3539  1  0.382400  0.213700  0.445050  1
  C  C3540  1  0.382400  0.786300  0.054950  1
  C  C3541  1  0.117600  0.286300  0.554950  1
  C  C3542  1  0.117600  0.713700  0.945050  1
  C  C3543  1  0.617600  0.786300  0.554950  1
  C  C3544  1  0.617600  0.213700  0.945050  1
  C  C3545  1  0.886700  0.683400  0.420730  1
  C  C3546  1  0.886700  0.316600  0.079270  1
  C  C3547  1  0.386700  0.183400  0.420730  1
  C  C3548  1  0.386700  0.816600  0.079270  1
  C  C3549  1  0.113300  0.316600  0.579270  1
  C  C3550  1  0.113300  0.683400  0.920730  1
  C  C3551  1  0.613300  0.816600  0.579270  1
  C  C3552  1  0.613300  0.183400  0.920730  1
  C  C3553  1  0.886900  0.689890  0.395790  1
  C  C3554  1  0.886900  0.310110  0.104210  1
  C  C3555  1  0.386900  0.189890  0.395790  1
  C  C3556  1  0.386900  0.810110  0.104210  1
  C  C3557  1  0.113100  0.310110  0.604210  1
  C  C3558  1  0.113100  0.689890  0.895790  1
  C  C3559  1  0.613100  0.810110  0.604210  1
  C  C3560  1  0.613100  0.189890  0.895790  1
  C  C3561  1  0.871800  0.660060  0.347350  1
  C  C3562  1  0.871800  0.339940  0.152650  1
  C  C3563  1  0.371800  0.160060  0.347350  1
  C  C3564  1  0.371800  0.839940  0.152650  1
  C  C3565  1  0.128200  0.339940  0.652650  1
  C  C3566  1  0.128200  0.660060  0.847350  1
  C  C3567  1  0.628200  0.839940  0.652650  1
  C  C3568  1  0.628200  0.160060  0.847350  1
  C  C3569  1  0.855900  0.626500  0.329460  1
  C  C3570  1  0.855900  0.373500  0.170540  1
  C  C3571  1  0.355900  0.126500  0.329460  1
  C  C3572  1  0.355900  0.873500  0.170540  1
  C  C3573  1  0.144100  0.373500  0.670540  1
  C  C3574  1  0.144100  0.626500  0.829460  1
  C  C3575  1  0.644100  0.873500  0.670540  1
  C  C3576  1  0.644100  0.126500  0.829460  1
  C  C3577  1  0.835700  0.626400  0.306690  1
  C  C3578  1  0.835700  0.373600  0.193310  1
  C  C3579  1  0.335700  0.126400  0.306690  1
  C  C3580  1  0.335700  0.873600  0.193310  1
  C  C3581  1  0.164300  0.373600  0.693310  1
  C  C3582  1  0.164300  0.626400  0.806690  1
  C  C3583  1  0.664300  0.873600  0.693310  1
  C  C3584  1  0.664300  0.126400  0.806690  1
  C  C3585  1  0.830400  0.660550  0.301410  1
  C  C3586  1  0.830400  0.339450  0.198590  1
  C  C3587  1  0.330400  0.160550  0.301410  1
  C  C3588  1  0.330400  0.839450  0.198590  1
  C  C3589  1  0.169600  0.339450  0.698590  1
  C  C3590  1  0.169600  0.660550  0.801410  1
  C  C3591  1  0.669600  0.839450  0.698590  1
  C  C3592  1  0.669600  0.160550  0.801410  1
  C  C3593  1  0.844790  0.694770  0.319680  1
  C  C3594  1  0.844790  0.305230  0.180320  1
  C  C3595  1  0.344790  0.194770  0.319680  1
  C  C3596  1  0.344790  0.805230  0.180320  1
  C  C3597  1  0.155210  0.305230  0.680320  1
  C  C3598  1  0.155210  0.694770  0.819680  1
  C  C3599  1  0.655210  0.805230  0.680320  1
  C  C3600  1  0.655210  0.194770  0.819680  1
  C  C3601  1  0.865800  0.694210  0.342330  1
  C  C3602  1  0.865800  0.305790  0.157670  1
  C  C3603  1  0.365800  0.194210  0.342330  1
  C  C3604  1  0.365800  0.805790  0.157670  1
  C  C3605  1  0.134200  0.305790  0.657670  1
  C  C3606  1  0.134200  0.694210  0.842330  1
  C  C3607  1  0.634200  0.805790  0.657670  1
  C  C3608  1  0.634200  0.194210  0.842330  1
  C  C3609  1  0.881900  0.727180  0.395810  1
  C  C3610  1  0.881900  0.272820  0.104190  1
  C  C3611  1  0.381900  0.227180  0.395810  1
  C  C3612  1  0.381900  0.772820  0.104190  1
  C  C3613  1  0.118100  0.272820  0.604190  1
  C  C3614  1  0.118100  0.727180  0.895810  1
  C  C3615  1  0.618100  0.772820  0.604190  1
  C  C3616  1  0.618100  0.227180  0.895810  1
  C  C3617  1  0.876300  0.756900  0.420330  1
  C  C3618  1  0.876300  0.243100  0.079670  1
  C  C3619  1  0.376300  0.256900  0.420330  1
  C  C3620  1  0.376300  0.743100  0.079670  1
  C  C3621  1  0.123700  0.243100  0.579670  1
  C  C3622  1  0.123700  0.756900  0.920330  1
  C  C3623  1  0.623700  0.743100  0.579670  1
  C  C3624  1  0.623700  0.256900  0.920330  1
  C  C3625  1  0.808900  0.659700  0.277310  1
  C  C3626  1  0.808900  0.340300  0.222690  1
  C  C3627  1  0.308900  0.159700  0.277310  1
  C  C3628  1  0.308900  0.840300  0.222690  1
  C  C3629  1  0.191100  0.340300  0.722690  1
  C  C3630  1  0.191100  0.659700  0.777310  1
  C  C3631  1  0.691100  0.840300  0.722690  1
  C  C3632  1  0.691100  0.159700  0.777310  1
  C  C3633  1  0.790700  0.657700  0.257620  1
  C  C3634  1  0.790700  0.342300  0.242380  1
  C  C3635  1  0.290700  0.157700  0.257620  1
  C  C3636  1  0.290700  0.842300  0.242380  1
  C  C3637  1  0.209300  0.342300  0.742380  1
  C  C3638  1  0.209300  0.657700  0.757620  1
  C  C3639  1  0.709300  0.842300  0.742380  1
  C  C3640  1  0.709300  0.157700  0.757620  1
  C  C3641  1  0.768550  0.654780  0.233580  1
  C  C3642  1  0.768550  0.345220  0.266420  1
  C  C3643  1  0.268550  0.154780  0.233580  1
  C  C3644  1  0.268550  0.845220  0.266420  1
  C  C3645  1  0.231450  0.345220  0.766420  1
  C  C3646  1  0.231450  0.654780  0.733580  1
  C  C3647  1  0.731450  0.845220  0.766420  1
  C  C3648  1  0.731450  0.154780  0.733580  1
  C  C3649  1  0.760100  0.619600  0.213860  1
  C  C3650  1  0.760100  0.380400  0.286140  1
  C  C3651  1  0.260100  0.119600  0.213860  1
  C  C3652  1  0.260100  0.880400  0.286140  1
  C  C3653  1  0.239900  0.380400  0.786140  1
  C  C3654  1  0.239900  0.619600  0.713860  1
  C  C3655  1  0.739900  0.880400  0.786140  1
  C  C3656  1  0.739900  0.119600  0.713860  1
  C  C3657  1  0.739700  0.617800  0.190720  1
  C  C3658  1  0.739700  0.382200  0.309280  1
  C  C3659  1  0.239700  0.117800  0.190720  1
  C  C3660  1  0.239700  0.882200  0.309280  1
  C  C3661  1  0.260300  0.382200  0.809280  1
  C  C3662  1  0.260300  0.617800  0.690720  1
  C  C3663  1  0.760300  0.882200  0.809280  1
  C  C3664  1  0.760300  0.117800  0.690720  1
  C  C3665  1  0.726300  0.650900  0.187200  1
  C  C3666  1  0.726300  0.349100  0.312800  1
  C  C3667  1  0.226300  0.150900  0.187200  1
  C  C3668  1  0.226300  0.849100  0.312800  1
  C  C3669  1  0.273700  0.349100  0.812800  1
  C  C3670  1  0.273700  0.650900  0.687200  1
  C  C3671  1  0.773700  0.849100  0.812800  1
  C  C3672  1  0.773700  0.150900  0.687200  1
  C  C3673  1  0.703000  0.648400  0.162300  1
  C  C3674  1  0.703000  0.351600  0.337700  1
  C  C3675  1  0.203000  0.148400  0.162300  1
  C  C3676  1  0.203000  0.851600  0.337700  1
  C  C3677  1  0.297000  0.351600  0.837700  1
  C  C3678  1  0.297000  0.648400  0.662300  1
  C  C3679  1  0.797000  0.851600  0.837700  1
  C  C3680  1  0.797000  0.148400  0.662300  1
  C  C3681  1  0.755120  0.686660  0.228420  1
  C  C3682  1  0.755120  0.313340  0.271580  1
  C  C3683  1  0.255120  0.186660  0.228420  1
  C  C3684  1  0.255120  0.813340  0.271580  1
  C  C3685  1  0.244880  0.313340  0.771580  1
  C  C3686  1  0.244880  0.686660  0.728420  1
  C  C3687  1  0.744880  0.813340  0.771580  1
  C  C3688  1  0.744880  0.186660  0.728420  1
  C  C3689  1  0.912800  0.624500  0.370290  1
  C  C3690  1  0.912800  0.375500  0.129710  1
  C  C3691  1  0.412800  0.124500  0.370290  1
  C  C3692  1  0.412800  0.875500  0.129710  1
  C  C3693  1  0.087200  0.375500  0.629710  1
  C  C3694  1  0.087200  0.624500  0.870290  1
  C  C3695  1  0.587200  0.875500  0.629710  1
  C  C3696  1  0.587200  0.124500  0.870290  1
  C  C3697  1  0.941600  0.611100  0.347000  1
  C  C3698  1  0.941600  0.388900  0.153000  1
  C  C3699  1  0.441600  0.111100  0.347000  1
  C  C3700  1  0.441600  0.888900  0.153000  1
  C  C3701  1  0.058400  0.388900  0.653000  1
  C  C3702  1  0.058400  0.611100  0.847000  1
  C  C3703  1  0.558400  0.888900  0.653000  1
  C  C3704  1  0.558400  0.111100  0.847000  1
  C  C3705  1  0.970400  0.642100  0.353700  1
  C  C3706  1  0.970400  0.357900  0.146300  1
  C  C3707  1  0.470400  0.142100  0.353700  1
  C  C3708  1  0.470400  0.857900  0.146300  1
  C  C3709  1  0.029600  0.357900  0.646300  1
  C  C3710  1  0.029600  0.642100  0.853700  1
  C  C3711  1  0.529600  0.857900  0.646300  1
  C  C3712  1  0.529600  0.142100  0.853700  1
  C  C3713  1  0.004100  0.652800  0.371800  1
  C  C3714  1  0.004100  0.347200  0.128200  1
  C  C3715  1  0.504100  0.152800  0.371800  1
  C  C3716  1  0.504100  0.847200  0.128200  1
  C  C3717  1  0.995900  0.347200  0.628200  1
  C  C3718  1  0.995900  0.652800  0.871800  1
  C  C3719  1  0.495900  0.847200  0.628200  1
  C  C3720  1  0.495900  0.152800  0.871800  1
  C  C3721  1  0.029300  0.627000  0.380600  1
  C  C3722  1  0.029300  0.373000  0.119400  1
  C  C3723  1  0.529300  0.127000  0.380600  1
  C  C3724  1  0.529300  0.873000  0.119400  1
  C  C3725  1  0.970700  0.373000  0.619400  1
  C  C3726  1  0.970700  0.627000  0.880600  1
  C  C3727  1  0.470700  0.873000  0.619400  1
  C  C3728  1  0.470700  0.127000  0.880600  1
  C  C3729  1  0.064900  0.645300  0.398700  1
  C  C3730  1  0.064900  0.354700  0.101300  1
  C  C3731  1  0.564900  0.145300  0.398700  1
  C  C3732  1  0.564900  0.854700  0.101300  1
  C  C3733  1  0.935100  0.354700  0.601300  1
  C  C3734  1  0.935100  0.645300  0.898700  1
  C  C3735  1  0.435100  0.854700  0.601300  1
  C  C3736  1  0.435100  0.145300  0.898700  1
  C  C3737  1  0.673600  0.909700  0.569270  1
  C  C3738  1  0.673600  0.090300  0.930730  1
  C  C3739  1  0.173600  0.409700  0.569270  1
  C  C3740  1  0.173600  0.590300  0.930730  1
  C  C3741  1  0.326400  0.090300  0.430730  1
  C  C3742  1  0.326400  0.909700  0.069270  1
  C  C3743  1  0.826400  0.590300  0.430730  1
  C  C3744  1  0.826400  0.409700  0.069270  1
  C  C3745  1  0.635600  0.918100  0.565760  1
  C  C3746  1  0.635600  0.081900  0.934240  1
  C  C3747  1  0.135600  0.418100  0.565760  1
  C  C3748  1  0.135600  0.581900  0.934240  1
  C  C3749  1  0.364400  0.081900  0.434240  1
  C  C3750  1  0.364400  0.918100  0.065760  1
  C  C3751  1  0.864400  0.581900  0.434240  1
  C  C3752  1  0.864400  0.418100  0.065760  1
  C  C3753  1  0.623800  0.928000  0.543230  1
  C  C3754  1  0.623800  0.072000  0.956770  1
  C  C3755  1  0.123800  0.428000  0.543230  1
  C  C3756  1  0.123800  0.572000  0.956770  1
  C  C3757  1  0.376200  0.072000  0.456770  1
  C  C3758  1  0.376200  0.928000  0.043230  1
  C  C3759  1  0.876200  0.572000  0.456770  1
  C  C3760  1  0.876200  0.428000  0.043230  1
  C  C3761  1  0.651800  0.929700  0.524310  1
  C  C3762  1  0.651800  0.070300  0.975690  1
  C  C3763  1  0.151800  0.429700  0.524310  1
  C  C3764  1  0.151800  0.570300  0.975690  1
  C  C3765  1  0.348200  0.070300  0.475690  1
  C  C3766  1  0.348200  0.929700  0.024310  1
  C  C3767  1  0.848200  0.570300  0.475690  1
  C  C3768  1  0.848200  0.429700  0.024310  1
  C  C3769  1  0.689400  0.921000  0.529160  1
  C  C3770  1  0.689400  0.079000  0.970840  1
  C  C3771  1  0.189400  0.421000  0.529160  1
  C  C3772  1  0.189400  0.579000  0.970840  1
  C  C3773  1  0.310600  0.079000  0.470840  1
  C  C3774  1  0.310600  0.921000  0.029160  1
  C  C3775  1  0.810600  0.579000  0.470840  1
  C  C3776  1  0.810600  0.421000  0.029160  1
  C  C3777  1  0.685100  0.899200  0.593690  1
  C  C3778  1  0.685100  0.100800  0.906310  1
  C  C3779  1  0.185100  0.399200  0.593690  1
  C  C3780  1  0.185100  0.600800  0.906310  1
  C  C3781  1  0.314900  0.100800  0.406310  1
  C  C3782  1  0.314900  0.899200  0.093690  1
  C  C3783  1  0.814900  0.600800  0.406310  1
  C  C3784  1  0.814900  0.399200  0.093690  1
  C  C3785  1  0.642700  0.940400  0.500860  1
  C  C3786  1  0.642700  0.059600  0.999140  1
  C  C3787  1  0.142700  0.440400  0.500860  1
  C  C3788  1  0.142700  0.559600  0.999140  1
  C  C3789  1  0.357300  0.059600  0.499140  1
  C  C3790  1  0.357300  0.940400  0.000860  1
  C  C3791  1  0.857300  0.559600  0.499140  1
  C  C3792  1  0.857300  0.440400  0.000860  1
  C  C3793  1  0.633300  0.948000  0.481130  1
  C  C3794  1  0.633300  0.052000  0.018870  1
  C  C3795  1  0.133300  0.448000  0.481130  1
  C  C3796  1  0.133300  0.552000  0.018870  1
  C  C3797  1  0.366700  0.052000  0.518870  1
  C  C3798  1  0.366700  0.948000  0.981130  1
  C  C3799  1  0.866700  0.552000  0.518870  1
  C  C3800  1  0.866700  0.448000  0.981130  1
  C  C3801  1  0.623700  0.957500  0.457110  1
  C  C3802  1  0.623700  0.042500  0.042890  1
  C  C3803  1  0.123700  0.457500  0.457110  1
  C  C3804  1  0.123700  0.542500  0.042890  1
  C  C3805  1  0.376300  0.042500  0.542890  1
  C  C3806  1  0.376300  0.957500  0.957110  1
  C  C3807  1  0.876300  0.542500  0.542890  1
  C  C3808  1  0.876300  0.457500  0.957110  1
  C  C3809  1  0.626000  0.994900  0.457680  1
  C  C3810  1  0.626000  0.005100  0.042320  1
  C  C3811  1  0.126000  0.494900  0.457680  1
  C  C3812  1  0.126000  0.505100  0.042320  1
  C  C3813  1  0.374000  0.005100  0.542320  1
  C  C3814  1  0.374000  0.994900  0.957680  1
  C  C3815  1  0.874000  0.505100  0.542320  1
  C  C3816  1  0.874000  0.494900  0.957680  1
  C  C3817  1  0.615900  0.004300  0.435050  1
  C  C3818  1  0.615900  0.995700  0.064950  1
  C  C3819  1  0.115900  0.504300  0.435050  1
  C  C3820  1  0.115900  0.495700  0.064950  1
  C  C3821  1  0.384100  0.995700  0.564950  1
  C  C3822  1  0.384100  0.004300  0.935050  1
  C  C3823  1  0.884100  0.495700  0.564950  1
  C  C3824  1  0.884100  0.504300  0.935050  1
  C  C3825  1  0.603400  0.976200  0.410710  1
  C  C3826  1  0.603400  0.023800  0.089290  1
  C  C3827  1  0.103400  0.476200  0.410710  1
  C  C3828  1  0.103400  0.523800  0.089290  1
  C  C3829  1  0.396600  0.023800  0.589290  1
  C  C3830  1  0.396600  0.976200  0.910710  1
  C  C3831  1  0.896600  0.523800  0.589290  1
  C  C3832  1  0.896600  0.476200  0.910710  1
  C  C3833  1  0.603700  0.961400  0.361340  1
  C  C3834  1  0.603700  0.038600  0.138660  1
  C  C3835  1  0.103700  0.461400  0.361340  1
  C  C3836  1  0.103700  0.538600  0.138660  1
  C  C3837  1  0.396300  0.038600  0.638660  1
  C  C3838  1  0.396300  0.961400  0.861340  1
  C  C3839  1  0.896300  0.538600  0.638660  1
  C  C3840  1  0.896300  0.461400  0.861340  1
  C  C3841  1  0.615800  0.975800  0.341140  1
  C  C3842  1  0.615800  0.024200  0.158860  1
  C  C3843  1  0.115800  0.475800  0.341140  1
  C  C3844  1  0.115800  0.524200  0.158860  1
  C  C3845  1  0.384200  0.024200  0.658860  1
  C  C3846  1  0.384200  0.975800  0.841140  1
  C  C3847  1  0.884200  0.524200  0.658860  1
  C  C3848  1  0.884200  0.475800  0.841140  1
  C  C3849  1  0.625700  0.951600  0.315380  1
  C  C3850  1  0.625700  0.048400  0.184620  1
  C  C3851  1  0.125700  0.451600  0.315380  1
  C  C3852  1  0.125700  0.548400  0.184620  1
  C  C3853  1  0.374300  0.048400  0.684620  1
  C  C3854  1  0.374300  0.951600  0.815380  1
  C  C3855  1  0.874300  0.548400  0.684620  1
  C  C3856  1  0.874300  0.451600  0.815380  1
  C  C3857  1  0.625700  0.912000  0.309160  1
  C  C3858  1  0.625700  0.088000  0.190840  1
  C  C3859  1  0.125700  0.412000  0.309160  1
  C  C3860  1  0.125700  0.588000  0.190840  1
  C  C3861  1  0.374300  0.088000  0.690840  1
  C  C3862  1  0.374300  0.912000  0.809160  1
  C  C3863  1  0.874300  0.588000  0.690840  1
  C  C3864  1  0.874300  0.412000  0.809160  1
  C  C3865  1  0.614800  0.897300  0.329520  1
  C  C3866  1  0.614800  0.102700  0.170480  1
  C  C3867  1  0.114800  0.397300  0.329520  1
  C  C3868  1  0.114800  0.602700  0.170480  1
  C  C3869  1  0.385200  0.102700  0.670480  1
  C  C3870  1  0.385200  0.897300  0.829520  1
  C  C3871  1  0.885200  0.602700  0.670480  1
  C  C3872  1  0.885200  0.397300  0.829520  1
  C  C3873  1  0.603000  0.921690  0.355050  1
  C  C3874  1  0.603000  0.078310  0.144950  1
  C  C3875  1  0.103000  0.421690  0.355050  1
  C  C3876  1  0.103000  0.578310  0.144950  1
  C  C3877  1  0.397000  0.078310  0.644950  1
  C  C3878  1  0.397000  0.921690  0.855050  1
  C  C3879  1  0.897000  0.578310  0.644950  1
  C  C3880  1  0.897000  0.421690  0.855050  1
  C  C3881  1  0.602000  0.938350  0.409910  1
  C  C3882  1  0.602000  0.061650  0.090090  1
  C  C3883  1  0.102000  0.438350  0.409910  1
  C  C3884  1  0.102000  0.561650  0.090090  1
  C  C3885  1  0.398000  0.061650  0.590090  1
  C  C3886  1  0.398000  0.938350  0.909910  1
  C  C3887  1  0.898000  0.561650  0.590090  1
  C  C3888  1  0.898000  0.438350  0.909910  1
  C  C3889  1  0.612100  0.929200  0.432830  1
  C  C3890  1  0.612100  0.070800  0.067170  1
  C  C3891  1  0.112100  0.429200  0.432830  1
  C  C3892  1  0.112100  0.570800  0.067170  1
  C  C3893  1  0.387900  0.070800  0.567170  1
  C  C3894  1  0.387900  0.929200  0.932830  1
  C  C3895  1  0.887900  0.570800  0.567170  1
  C  C3896  1  0.887900  0.429200  0.932830  1
  C  C3897  1  0.638900  0.887500  0.282830  1
  C  C3898  1  0.638900  0.112500  0.217170  1
  C  C3899  1  0.138900  0.387500  0.282830  1
  C  C3900  1  0.138900  0.612500  0.217170  1
  C  C3901  1  0.361100  0.112500  0.717170  1
  C  C3902  1  0.361100  0.887500  0.782830  1
  C  C3903  1  0.861100  0.612500  0.717170  1
  C  C3904  1  0.861100  0.387500  0.782830  1
  C  C3905  1  0.650600  0.869000  0.260480  1
  C  C3906  1  0.650600  0.131000  0.239520  1
  C  C3907  1  0.150600  0.369000  0.260480  1
  C  C3908  1  0.150600  0.631000  0.239520  1
  C  C3909  1  0.349400  0.131000  0.739520  1
  C  C3910  1  0.349400  0.869000  0.760480  1
  C  C3911  1  0.849400  0.631000  0.739520  1
  C  C3912  1  0.849400  0.369000  0.760480  1
  C  C3913  1  0.667400  0.847790  0.234480  1
  C  C3914  1  0.667400  0.152210  0.265520  1
  C  C3915  1  0.167400  0.347790  0.234480  1
  C  C3916  1  0.167400  0.652210  0.265520  1
  C  C3917  1  0.332600  0.152210  0.765520  1
  C  C3918  1  0.332600  0.847790  0.734480  1
  C  C3919  1  0.832600  0.652210  0.765520  1
  C  C3920  1  0.832600  0.347790  0.734480  1
  C  C3921  1  0.670600  0.862400  0.213190  1
  C  C3922  1  0.670600  0.137600  0.286810  1
  C  C3923  1  0.170600  0.362400  0.213190  1
  C  C3924  1  0.170600  0.637600  0.286810  1
  C  C3925  1  0.329400  0.137600  0.786810  1
  C  C3926  1  0.329400  0.862400  0.713190  1
  C  C3927  1  0.829400  0.637600  0.786810  1
  C  C3928  1  0.829400  0.362400  0.713190  1
  C  C3929  1  0.688700  0.840700  0.189430  1
  C  C3930  1  0.688700  0.159300  0.310570  1
  C  C3931  1  0.188700  0.340700  0.189430  1
  C  C3932  1  0.188700  0.659300  0.310570  1
  C  C3933  1  0.311300  0.159300  0.810570  1
  C  C3934  1  0.311300  0.840700  0.689430  1
  C  C3935  1  0.811300  0.659300  0.810570  1
  C  C3936  1  0.811300  0.340700  0.689430  1
  C  C3937  1  0.703000  0.804500  0.185680  1
  C  C3938  1  0.703000  0.195500  0.314320  1
  C  C3939  1  0.203000  0.304500  0.185680  1
  C  C3940  1  0.203000  0.695500  0.314320  1
  C  C3941  1  0.297000  0.195500  0.814320  1
  C  C3942  1  0.297000  0.804500  0.685680  1
  C  C3943  1  0.797000  0.695500  0.814320  1
  C  C3944  1  0.797000  0.304500  0.685680  1
  C  C3945  1  0.724900  0.781500  0.160240  1
  C  C3946  1  0.724900  0.218500  0.339760  1
  C  C3947  1  0.224900  0.281500  0.160240  1
  C  C3948  1  0.224900  0.718500  0.339760  1
  C  C3949  1  0.275100  0.218500  0.839760  1
  C  C3950  1  0.275100  0.781500  0.660240  1
  C  C3951  1  0.775100  0.718500  0.839760  1
  C  C3952  1  0.775100  0.281500  0.660240  1
  C  C3953  1  0.681400  0.810900  0.229860  1
  C  C3954  1  0.681400  0.189100  0.270140  1
  C  C3955  1  0.181400  0.310900  0.229860  1
  C  C3956  1  0.181400  0.689100  0.270140  1
  C  C3957  1  0.318600  0.189100  0.770140  1
  C  C3958  1  0.318600  0.810900  0.729860  1
  C  C3959  1  0.818600  0.689100  0.770140  1
  C  C3960  1  0.818600  0.310900  0.729860  1
  C  C3961  1  0.584500  0.026000  0.391700  1
  C  C3962  1  0.584500  0.974000  0.108300  1
  C  C3963  1  0.084500  0.526000  0.391700  1
  C  C3964  1  0.084500  0.474000  0.108300  1
  C  C3965  1  0.415500  0.974000  0.608300  1
  C  C3966  1  0.415500  0.026000  0.891700  1
  C  C3967  1  0.915500  0.474000  0.608300  1
  C  C3968  1  0.915500  0.526000  0.891700  1
  C  C3969  1  0.543300  0.033400  0.402100  1
  C  C3970  1  0.543300  0.966600  0.097900  1
  C  C3971  1  0.043300  0.533400  0.402100  1
  C  C3972  1  0.043300  0.466600  0.097900  1
  C  C3973  1  0.456700  0.966600  0.597900  1
  C  C3974  1  0.456700  0.033400  0.902100  1
  C  C3975  1  0.956700  0.466600  0.597900  1
  C  C3976  1  0.956700  0.533400  0.902100  1
  C  C3977  1  0.517200  0.014600  0.377500  1
  C  C3978  1  0.517200  0.985400  0.122500  1
  C  C3979  1  0.017200  0.514600  0.377500  1
  C  C3980  1  0.017200  0.485400  0.122500  1
  C  C3981  1  0.482800  0.985400  0.622500  1
  C  C3982  1  0.482800  0.014600  0.877500  1
  C  C3983  1  0.982800  0.485400  0.622500  1
  C  C3984  1  0.982800  0.514600  0.877500  1
  C  C3985  1  0.483400  0.995800  0.386500  1
  C  C3986  1  0.483400  0.004200  0.113500  1
  C  C3987  1  0.983400  0.495800  0.386500  1
  C  C3988  1  0.983400  0.504200  0.113500  1
  C  C3989  1  0.516600  0.004200  0.613500  1
  C  C3990  1  0.516600  0.995800  0.886500  1
  C  C3991  1  0.016600  0.504200  0.613500  1
  C  C3992  1  0.016600  0.495800  0.886500  1
  C  C3993  1  0.451900  0.981700  0.365800  1
  C  C3994  1  0.451900  0.018300  0.134200  1
  C  C3995  1  0.951900  0.481700  0.365800  1
  C  C3996  1  0.951900  0.518300  0.134200  1
  C  C3997  1  0.548100  0.018300  0.634200  1
  C  C3998  1  0.548100  0.981700  0.865800  1
  C  C3999  1  0.048100  0.518300  0.634200  1
  C  C4000  1  0.048100  0.481700  0.865800  1
  C  C4001  1  0.414300  0.963300  0.373100  1
  C  C4002  1  0.414300  0.036700  0.126900  1
  C  C4003  1  0.914300  0.463300  0.373100  1
  C  C4004  1  0.914300  0.536700  0.126900  1
  C  C4005  1  0.585700  0.036700  0.626900  1
  C  C4006  1  0.585700  0.963300  0.873100  1
  C  C4007  1  0.085700  0.536700  0.626900  1
  C  C4008  1  0.085700  0.463300  0.873100  1
  C  C4009  1  0.759000  0.983800  0.571470  1
  C  C4010  1  0.759000  0.016200  0.928530  1
  C  C4011  1  0.259000  0.483800  0.571470  1
  C  C4012  1  0.259000  0.516200  0.928530  1
  C  C4013  1  0.241000  0.016200  0.428530  1
  C  C4014  1  0.241000  0.983800  0.071470  1
  C  C4015  1  0.741000  0.516200  0.428530  1
  C  C4016  1  0.741000  0.483800  0.071470  1
  C  C4017  1  0.765400  0.017600  0.566800  1
  C  C4018  1  0.765400  0.982400  0.933200  1
  C  C4019  1  0.265400  0.517600  0.566800  1
  C  C4020  1  0.265400  0.482400  0.933200  1
  C  C4021  1  0.234600  0.982400  0.433200  1
  C  C4022  1  0.234600  0.017600  0.066800  1
  C  C4023  1  0.734600  0.482400  0.433200  1
  C  C4024  1  0.734600  0.517600  0.066800  1
  C  C4025  1  0.783200  0.017900  0.543170  1
  C  C4026  1  0.783200  0.982100  0.956830  1
  C  C4027  1  0.283200  0.517900  0.543170  1
  C  C4028  1  0.283200  0.482100  0.956830  1
  C  C4029  1  0.216800  0.982100  0.456830  1
  C  C4030  1  0.216800  0.017900  0.043170  1
  C  C4031  1  0.716800  0.482100  0.456830  1
  C  C4032  1  0.716800  0.517900  0.043170  1
  C  C4033  1  0.795000  0.984300  0.523660  1
  C  C4034  1  0.795000  0.015700  0.976340  1
  C  C4035  1  0.295000  0.484300  0.523660  1
  C  C4036  1  0.295000  0.515700  0.976340  1
  C  C4037  1  0.205000  0.015700  0.476340  1
  C  C4038  1  0.205000  0.984300  0.023660  1
  C  C4039  1  0.705000  0.515700  0.476340  1
  C  C4040  1  0.705000  0.484300  0.023660  1
  C  C4041  1  0.787600  0.950800  0.529370  1
  C  C4042  1  0.787600  0.049200  0.970630  1
  C  C4043  1  0.287600  0.450800  0.529370  1
  C  C4044  1  0.287600  0.549200  0.970630  1
  C  C4045  1  0.212400  0.049200  0.470630  1
  C  C4046  1  0.212400  0.950800  0.029370  1
  C  C4047  1  0.712400  0.549200  0.470630  1
  C  C4048  1  0.712400  0.450800  0.029370  1
  C  C4049  1  0.740100  0.982000  0.596790  1
  C  C4050  1  0.740100  0.018000  0.903210  1
  C  C4051  1  0.240100  0.482000  0.596790  1
  C  C4052  1  0.240100  0.518000  0.903210  1
  C  C4053  1  0.259900  0.018000  0.403210  1
  C  C4054  1  0.259900  0.982000  0.096790  1
  C  C4055  1  0.759900  0.518000  0.403210  1
  C  C4056  1  0.759900  0.482000  0.096790  1
  C  C4057  1  0.812700  0.982900  0.498280  1
  C  C4058  1  0.812700  0.017100  0.001720  1
  C  C4059  1  0.312700  0.482900  0.498280  1
  C  C4060  1  0.312700  0.517100  0.001720  1
  C  C4061  1  0.187300  0.017100  0.501720  1
  C  C4062  1  0.187300  0.982900  0.998280  1
  C  C4063  1  0.687300  0.517100  0.501720  1
  C  C4064  1  0.687300  0.482900  0.998280  1
  C  C4065  1  0.827800  0.979500  0.476970  1
  C  C4066  1  0.827800  0.020500  0.023030  1
  C  C4067  1  0.327800  0.479500  0.476970  1
  C  C4068  1  0.327800  0.520500  0.023030  1
  C  C4069  1  0.172200  0.020500  0.523030  1
  C  C4070  1  0.172200  0.979500  0.976970  1
  C  C4071  1  0.672200  0.520500  0.523030  1
  C  C4072  1  0.672200  0.479500  0.976970  1
  C  C4073  1  0.846800  0.975900  0.451380  1
  C  C4074  1  0.846800  0.024100  0.048620  1
  C  C4075  1  0.346800  0.475900  0.451380  1
  C  C4076  1  0.346800  0.524100  0.048620  1
  C  C4077  1  0.153200  0.024100  0.548620  1
  C  C4078  1  0.153200  0.975900  0.951380  1
  C  C4079  1  0.653200  0.524100  0.548620  1
  C  C4080  1  0.653200  0.475900  0.951380  1
  C  C4081  1  0.886200  0.978200  0.449730  1
  C  C4082  1  0.886200  0.021800  0.050270  1
  C  C4083  1  0.386200  0.478200  0.449730  1
  C  C4084  1  0.386200  0.521800  0.050270  1
  C  C4085  1  0.113800  0.021800  0.550270  1
  C  C4086  1  0.113800  0.978200  0.949730  1
  C  C4087  1  0.613800  0.521800  0.550270  1
  C  C4088  1  0.613800  0.478200  0.949730  1
  C  C4089  1  0.905000  0.973400  0.424950  1
  C  C4090  1  0.905000  0.026600  0.075050  1
  C  C4091  1  0.405000  0.473400  0.424950  1
  C  C4092  1  0.405000  0.526600  0.075050  1
  C  C4093  1  0.095000  0.026600  0.575050  1
  C  C4094  1  0.095000  0.973400  0.924950  1
  C  C4095  1  0.595000  0.526600  0.575050  1
  C  C4096  1  0.595000  0.473400  0.924950  1
  C  C4097  1  0.883420  0.966000  0.400720  1
  C  C4098  1  0.883420  0.034000  0.099280  1
  C  C4099  1  0.383420  0.466000  0.400720  1
  C  C4100  1  0.383420  0.534000  0.099280  1
  C  C4101  1  0.116580  0.034000  0.599280  1
  C  C4102  1  0.116580  0.966000  0.900720  1
  C  C4103  1  0.616580  0.534000  0.599280  1
  C  C4104  1  0.616580  0.466000  0.900720  1
  C  C4105  1  0.885560  0.935060  0.350650  1
  C  C4106  1  0.885560  0.064940  0.149350  1
  C  C4107  1  0.385560  0.435060  0.350650  1
  C  C4108  1  0.385560  0.564940  0.149350  1
  C  C4109  1  0.114440  0.064940  0.649350  1
  C  C4110  1  0.114440  0.935060  0.850650  1
  C  C4111  1  0.614440  0.564940  0.649350  1
  C  C4112  1  0.614440  0.435060  0.850650  1
  C  C4113  1  0.908600  0.913200  0.329260  1
  C  C4114  1  0.908600  0.086800  0.170740  1
  C  C4115  1  0.408600  0.413200  0.329260  1
  C  C4116  1  0.408600  0.586800  0.170740  1
  C  C4117  1  0.091400  0.086800  0.670740  1
  C  C4118  1  0.091400  0.913200  0.829260  1
  C  C4119  1  0.591400  0.586800  0.670740  1
  C  C4120  1  0.591400  0.413200  0.829260  1
  C  C4121  1  0.892430  0.888500  0.305210  1
  C  C4122  1  0.892430  0.111500  0.194790  1
  C  C4123  1  0.392430  0.388500  0.305210  1
  C  C4124  1  0.392430  0.611500  0.194790  1
  C  C4125  1  0.107570  0.111500  0.694790  1
  C  C4126  1  0.107570  0.888500  0.805210  1
  C  C4127  1  0.607570  0.611500  0.694790  1
  C  C4128  1  0.607570  0.388500  0.805210  1
  C  C4129  1  0.852750  0.884590  0.302050  1
  C  C4130  1  0.852750  0.115410  0.197950  1
  C  C4131  1  0.352750  0.384590  0.302050  1
  C  C4132  1  0.352750  0.615410  0.197950  1
  C  C4133  1  0.147250  0.115410  0.697950  1
  C  C4134  1  0.147250  0.884590  0.802050  1
  C  C4135  1  0.647250  0.615410  0.697950  1
  C  C4136  1  0.647250  0.384590  0.802050  1
  C  C4137  1  0.829830  0.906010  0.323930  1
  C  C4138  1  0.829830  0.093990  0.176070  1
  C  C4139  1  0.329830  0.406010  0.323930  1
  C  C4140  1  0.329830  0.593990  0.176070  1
  C  C4141  1  0.170170  0.093990  0.676070  1
  C  C4142  1  0.170170  0.906010  0.823930  1
  C  C4143  1  0.670170  0.593990  0.676070  1
  C  C4144  1  0.670170  0.406010  0.823930  1
  C  C4145  1  0.845860  0.931340  0.347570  1
  C  C4146  1  0.845860  0.068660  0.152430  1
  C  C4147  1  0.345860  0.431340  0.347570  1
  C  C4148  1  0.345860  0.568660  0.152430  1
  C  C4149  1  0.154140  0.068660  0.652430  1
  C  C4150  1  0.154140  0.931340  0.847570  1
  C  C4151  1  0.654140  0.568660  0.652430  1
  C  C4152  1  0.654140  0.431340  0.847570  1
  C  C4153  1  0.843530  0.964500  0.402440  1
  C  C4154  1  0.843530  0.035500  0.097560  1
  C  C4155  1  0.343530  0.464500  0.402440  1
  C  C4156  1  0.343530  0.535500  0.097560  1
  C  C4157  1  0.156470  0.035500  0.597560  1
  C  C4158  1  0.156470  0.964500  0.902440  1
  C  C4159  1  0.656470  0.535500  0.597560  1
  C  C4160  1  0.656470  0.464500  0.902440  1
  C  C4161  1  0.825300  0.968570  0.427140  1
  C  C4162  1  0.825300  0.031430  0.072860  1
  C  C4163  1  0.325300  0.468570  0.427140  1
  C  C4164  1  0.325300  0.531430  0.072860  1
  C  C4165  1  0.174700  0.031430  0.572860  1
  C  C4166  1  0.174700  0.968570  0.927140  1
  C  C4167  1  0.674700  0.531430  0.572860  1
  C  C4168  1  0.674700  0.468570  0.927140  1
  C  C4169  1  0.837100  0.857240  0.277470  1
  C  C4170  1  0.837100  0.142760  0.222530  1
  C  C4171  1  0.337100  0.357240  0.277470  1
  C  C4172  1  0.337100  0.642760  0.222530  1
  C  C4173  1  0.162900  0.142760  0.722530  1
  C  C4174  1  0.162900  0.857240  0.777470  1
  C  C4175  1  0.662900  0.642760  0.722530  1
  C  C4176  1  0.662900  0.357240  0.777470  1
  C  C4177  1  0.827200  0.832890  0.256820  1
  C  C4178  1  0.827200  0.167110  0.243180  1
  C  C4179  1  0.327200  0.332890  0.256820  1
  C  C4180  1  0.327200  0.667110  0.243180  1
  C  C4181  1  0.172800  0.167110  0.743180  1
  C  C4182  1  0.172800  0.832890  0.756820  1
  C  C4183  1  0.672800  0.667110  0.743180  1
  C  C4184  1  0.672800  0.332890  0.756820  1
  C  C4185  1  0.817130  0.802180  0.231840  1
  C  C4186  1  0.817130  0.197820  0.268160  1
  C  C4187  1  0.317130  0.302180  0.231840  1
  C  C4188  1  0.317130  0.697820  0.268160  1
  C  C4189  1  0.182870  0.197820  0.768160  1
  C  C4190  1  0.182870  0.802180  0.731840  1
  C  C4191  1  0.682870  0.697820  0.768160  1
  C  C4192  1  0.682870  0.302180  0.731840  1
  C  C4193  1  0.843000  0.789420  0.210170  1
  C  C4194  1  0.843000  0.210580  0.289830  1
  C  C4195  1  0.343000  0.289420  0.210170  1
  C  C4196  1  0.343000  0.710580  0.289830  1
  C  C4197  1  0.157000  0.210580  0.789830  1
  C  C4198  1  0.157000  0.789420  0.710170  1
  C  C4199  1  0.657000  0.710580  0.789830  1
  C  C4200  1  0.657000  0.289420  0.710170  1
  C  C4201  1  0.833600  0.759100  0.187250  1
  C  C4202  1  0.833600  0.240900  0.312750  1
  C  C4203  1  0.333600  0.259100  0.187250  1
  C  C4204  1  0.333600  0.740900  0.312750  1
  C  C4205  1  0.166400  0.240900  0.812750  1
  C  C4206  1  0.166400  0.759100  0.687250  1
  C  C4207  1  0.666400  0.740900  0.812750  1
  C  C4208  1  0.666400  0.259100  0.687250  1
  C  C4209  1  0.797700  0.741650  0.185570  1
  C  C4210  1  0.797700  0.258350  0.314430  1
  C  C4211  1  0.297700  0.241650  0.185570  1
  C  C4212  1  0.297700  0.758350  0.314430  1
  C  C4213  1  0.202300  0.258350  0.814430  1
  C  C4214  1  0.202300  0.741650  0.685570  1
  C  C4215  1  0.702300  0.758350  0.814430  1
  C  C4216  1  0.702300  0.241650  0.685570  1
  C  C4217  1  0.788400  0.706900  0.160860  1
  C  C4218  1  0.788400  0.293100  0.339140  1
  C  C4219  1  0.288400  0.206900  0.160860  1
  C  C4220  1  0.288400  0.793100  0.339140  1
  C  C4221  1  0.211600  0.293100  0.839140  1
  C  C4222  1  0.211600  0.706900  0.660860  1
  C  C4223  1  0.711600  0.793100  0.839140  1
  C  C4224  1  0.711600  0.206900  0.660860  1
  C  C4225  1  0.781650  0.784170  0.228450  1
  C  C4226  1  0.781650  0.215830  0.271550  1
  C  C4227  1  0.281650  0.284170  0.228450  1
  C  C4228  1  0.281650  0.715830  0.271550  1
  C  C4229  1  0.218350  0.215830  0.771550  1
  C  C4230  1  0.218350  0.784170  0.728450  1
  C  C4231  1  0.718350  0.715830  0.771550  1
  C  C4232  1  0.718350  0.284170  0.728450  1
  C  C4233  1  0.943600  0.966300  0.375900  1
  C  C4234  1  0.943600  0.033700  0.124100  1
  C  C4235  1  0.443600  0.466300  0.375900  1
  C  C4236  1  0.443600  0.533700  0.124100  1
  C  C4237  1  0.056400  0.033700  0.624100  1
  C  C4238  1  0.056400  0.966300  0.875900  1
  C  C4239  1  0.556400  0.533700  0.624100  1
  C  C4240  1  0.556400  0.466300  0.875900  1
  C  C4241  1  0.965800  0.931900  0.379800  1
  C  C4242  1  0.965800  0.068100  0.120200  1
  C  C4243  1  0.465800  0.431900  0.379800  1
  C  C4244  1  0.465800  0.568100  0.120200  1
  C  C4245  1  0.034200  0.068100  0.620200  1
  C  C4246  1  0.034200  0.931900  0.879800  1
  C  C4247  1  0.534200  0.568100  0.620200  1
  C  C4248  1  0.534200  0.431900  0.879800  1
  C  C4249  1  0.005600  0.940100  0.389200  1
  C  C4250  1  0.005600  0.059900  0.110800  1
  C  C4251  1  0.505600  0.440100  0.389200  1
  C  C4252  1  0.505600  0.559900  0.110800  1
  C  C4253  1  0.994400  0.059900  0.610800  1
  C  C4254  1  0.994400  0.940100  0.889200  1
  C  C4255  1  0.494400  0.559900  0.610800  1
  C  C4256  1  0.494400  0.440100  0.889200  1
  C  C4257  1  0.035700  0.914200  0.391900  1
  C  C4258  1  0.035700  0.085800  0.108100  1
  C  C4259  1  0.535700  0.414200  0.391900  1
  C  C4260  1  0.535700  0.585800  0.108100  1
  C  C4261  1  0.964300  0.085800  0.608100  1
  C  C4262  1  0.964300  0.914200  0.891900  1
  C  C4263  1  0.464300  0.585800  0.608100  1
  C  C4264  1  0.464300  0.414200  0.891900  1
  C  C4265  1  0.034900  0.872100  0.380400  1
  C  C4266  1  0.034900  0.127900  0.119600  1
  C  C4267  1  0.534900  0.372100  0.380400  1
  C  C4268  1  0.534900  0.627900  0.119600  1
  C  C4269  1  0.965100  0.127900  0.619600  1
  C  C4270  1  0.965100  0.872100  0.880400  1
  C  C4271  1  0.465100  0.627900  0.619600  1
  C  C4272  1  0.465100  0.372100  0.880400  1
  C  C4273  1  0.072600  0.853100  0.385000  1
  C  C4274  1  0.072600  0.146900  0.115000  1
  C  C4275  1  0.572600  0.353100  0.385000  1
  C  C4276  1  0.572600  0.646900  0.115000  1
  C  C4277  1  0.927400  0.146900  0.615000  1
  C  C4278  1  0.927400  0.853100  0.885000  1
  C  C4279  1  0.427400  0.646900  0.615000  1
  C  C4280  1  0.427400  0.353100  0.885000  1
  S  S4281  1  0.802320  0.870870  0.186510  1
  S  S4282  1  0.802320  0.129130  0.313490  1
  S  S4283  1  0.302320  0.370870  0.186510  1
  S  S4284  1  0.302320  0.629130  0.313490  1
  S  S4285  1  0.197680  0.129130  0.813490  1
  S  S4286  1  0.197680  0.870870  0.686510  1
  S  S4287  1  0.697680  0.629130  0.813490  1
  S  S4288  1  0.697680  0.370870  0.686510  1
  S  S4289  1  0.861090  0.638450  0.179520  1
  S  S4290  1  0.861090  0.361550  0.320480  1
  S  S4291  1  0.361090  0.138450  0.179520  1
  S  S4292  1  0.361090  0.861550  0.320480  1
  S  S4293  1  0.138910  0.361550  0.820480  1
  S  S4294  1  0.138910  0.638450  0.679520  1
  S  S4295  1  0.638910  0.861550  0.820480  1
  S  S4296  1  0.638910  0.138450  0.679520  1
  S  S4297  1  0.623570  0.599730  0.203240  1
  S  S4298  1  0.623570  0.400270  0.296760  1
  S  S4299  1  0.123570  0.099730  0.203240  1
  S  S4300  1  0.123570  0.900270  0.296760  1
  S  S4301  1  0.376430  0.400270  0.796760  1
  S  S4302  1  0.376430  0.599730  0.703240  1
  S  S4303  1  0.876430  0.900270  0.796760  1
  S  S4304  1  0.876430  0.099730  0.703240  1
  S  S4305  1  0.571060  0.819750  0.202730  1
  S  S4306  1  0.571060  0.180250  0.297270  1
  S  S4307  1  0.071060  0.319750  0.202730  1
  S  S4308  1  0.071060  0.680250  0.297270  1
  S  S4309  1  0.428940  0.180250  0.797270  1
  S  S4310  1  0.428940  0.819750  0.702730  1
  S  S4311  1  0.928940  0.680250  0.797270  1
  S  S4312  1  0.928940  0.319750  0.702730  1
  S  S4313  1  0.645540  0.676140  0.372210  1
  S  S4314  1  0.645540  0.323860  0.127790  1
  S  S4315  1  0.145540  0.176140  0.372210  1
  S  S4316  1  0.145540  0.823860  0.127790  1
  S  S4317  1  0.354460  0.323860  0.627790  1
  S  S4318  1  0.354460  0.676140  0.872210  1
  S  S4319  1  0.854460  0.823860  0.627790  1
  S  S4320  1  0.854460  0.176140  0.872210  1
  S  S4321  1  0.885640  0.737100  0.364860  1
  S  S4322  1  0.885640  0.262900  0.135140  1
  S  S4323  1  0.385640  0.237100  0.364860  1
  S  S4324  1  0.385640  0.762900  0.135140  1
  S  S4325  1  0.114360  0.262900  0.635140  1
  S  S4326  1  0.114360  0.737100  0.864860  1
  S  S4327  1  0.614360  0.762900  0.635140  1
  S  S4328  1  0.614360  0.237100  0.864860  1
  S  S4329  1  0.586140  0.902460  0.379850  1
  S  S4330  1  0.586140  0.097540  0.120150  1
  S  S4331  1  0.086140  0.402460  0.379850  1
  S  S4332  1  0.086140  0.597540  0.120150  1
  S  S4333  1  0.413860  0.097540  0.620150  1
  S  S4334  1  0.413860  0.902460  0.879850  1
  S  S4335  1  0.913860  0.597540  0.620150  1
  S  S4336  1  0.913860  0.402460  0.879850  1
  S  S4337  1  0.814980  0.960830  0.373370  1
  S  S4338  1  0.814980  0.039170  0.126630  1
  S  S4339  1  0.314980  0.460830  0.373370  1
  S  S4340  1  0.314980  0.539170  0.126630  1
  S  S4341  1  0.185020  0.039170  0.626630  1
  S  S4342  1  0.185020  0.960830  0.873370  1
  S  S4343  1  0.685020  0.539170  0.626630  1
  S  S4344  1  0.685020  0.460830  0.873370  1
  N  N4345  1  0.721480  0.867930  0.359370  1
  N  N4346  1  0.721480  0.132070  0.140630  1
  N  N4347  1  0.221480  0.367930  0.359370  1
  N  N4348  1  0.221480  0.632070  0.140630  1
  N  N4349  1  0.278520  0.132070  0.640630  1
  N  N4350  1  0.278520  0.867930  0.859370  1
  N  N4351  1  0.778520  0.632070  0.640630  1
  N  N4352  1  0.778520  0.367930  0.859370  1
  N  N4353  1  0.753900  0.933540  0.180120  1
  N  N4354  1  0.753900  0.066460  0.319880  1
  N  N4355  1  0.253900  0.433540  0.180120  1
  N  N4356  1  0.253900  0.566460  0.319880  1
  N  N4357  1  0.246100  0.066460  0.819880  1
  N  N4358  1  0.246100  0.933540  0.680120  1
  N  N4359  1  0.746100  0.566460  0.819880  1
  N  N4360  1  0.746100  0.433540  0.680120  1
  N  N4361  1  0.731100  0.681490  0.011720  1
  N  N4362  1  0.731100  0.318510  0.488280  1
  N  N4363  1  0.231100  0.181490  0.011720  1
  N  N4364  1  0.231100  0.818510  0.488280  1
  N  N4365  1  0.268900  0.318510  0.988280  1
  N  N4366  1  0.268900  0.681490  0.511720  1
  N  N4367  1  0.768900  0.818510  0.988280  1
  N  N4368  1  0.768900  0.181490  0.511720  1
  N  N4369  1  0.791190  0.822000  0.352850  1
  N  N4370  1  0.791190  0.178000  0.147150  1
  N  N4371  1  0.291190  0.322000  0.352850  1
  N  N4372  1  0.291190  0.678000  0.147150  1
  N  N4373  1  0.208810  0.178000  0.647150  1
  N  N4374  1  0.208810  0.822000  0.852850  1
  N  N4375  1  0.708810  0.678000  0.647150  1
  N  N4376  1  0.708810  0.322000  0.852850  1
  N  N4377  1  0.930510  0.677200  0.167200  1
  N  N4378  1  0.930510  0.322800  0.332800  1
  N  N4379  1  0.430510  0.177200  0.167200  1
  N  N4380  1  0.430510  0.822800  0.332800  1
  N  N4381  1  0.069490  0.322800  0.832800  1
  N  N4382  1  0.069490  0.677200  0.667200  1
  N  N4383  1  0.569490  0.822800  0.832800  1
  N  N4384  1  0.569490  0.177200  0.667200  1
  N  N4385  1  0.732300  0.602620  0.009820  1
  N  N4386  1  0.732300  0.397380  0.490180  1
  N  N4387  1  0.232300  0.102620  0.009820  1
  N  N4388  1  0.232300  0.897380  0.490180  1
  N  N4389  1  0.267700  0.397380  0.990180  1
  N  N4390  1  0.267700  0.602620  0.509820  1
  N  N4391  1  0.767700  0.897380  0.990180  1
  N  N4392  1  0.767700  0.102620  0.509820  1
  N  N4393  1  0.746850  0.760760  0.359270  1
  N  N4394  1  0.746850  0.239240  0.140730  1
  N  N4395  1  0.246850  0.260760  0.359270  1
  N  N4396  1  0.246850  0.739240  0.140730  1
  N  N4397  1  0.253150  0.239240  0.640730  1
  N  N4398  1  0.253150  0.760760  0.859270  1
  N  N4399  1  0.753150  0.739240  0.640730  1
  N  N4400  1  0.753150  0.260760  0.859270  1
  N  N4401  1  0.663000  0.525530  0.192620  1
  N  N4402  1  0.663000  0.474470  0.307380  1
  N  N4403  1  0.163000  0.025530  0.192620  1
  N  N4404  1  0.163000  0.974470  0.307380  1
  N  N4405  1  0.337000  0.474470  0.807380  1
  N  N4406  1  0.337000  0.525530  0.692620  1
  N  N4407  1  0.837000  0.974470  0.807380  1
  N  N4408  1  0.837000  0.025530  0.692620  1
  N  N4409  1  0.650200  0.604770  0.018060  1
  N  N4410  1  0.650200  0.395230  0.481940  1
  N  N4411  1  0.150200  0.104770  0.018060  1
  N  N4412  1  0.150200  0.895230  0.481940  1
  N  N4413  1  0.349800  0.395230  0.981940  1
  N  N4414  1  0.349800  0.604770  0.518060  1
  N  N4415  1  0.849800  0.895230  0.981940  1
  N  N4416  1  0.849800  0.104770  0.518060  1
  N  N4417  1  0.677150  0.804890  0.364510  1
  N  N4418  1  0.677150  0.195110  0.135490  1
  N  N4419  1  0.177150  0.304890  0.364510  1
  N  N4420  1  0.177150  0.695110  0.135490  1
  N  N4421  1  0.322850  0.195110  0.635490  1
  N  N4422  1  0.322850  0.804890  0.864510  1
  N  N4423  1  0.822850  0.695110  0.635490  1
  N  N4424  1  0.822850  0.304890  0.864510  1
  N  N4425  1  0.495340  0.781700  0.199750  1
  N  N4426  1  0.495340  0.218300  0.300250  1
  N  N4427  1  0.995340  0.281700  0.199750  1
  N  N4428  1  0.995340  0.718300  0.300250  1
  N  N4429  1  0.504660  0.218300  0.800250  1
  N  N4430  1  0.504660  0.781700  0.699750  1
  N  N4431  1  0.004660  0.718300  0.800250  1
  N  N4432  1  0.004660  0.281700  0.699750  1
  N  N4433  1  0.648800  0.680800  0.016480  1
  N  N4434  1  0.648800  0.319200  0.483520  1
  N  N4435  1  0.148800  0.180800  0.016480  1
  N  N4436  1  0.148800  0.819200  0.483520  1
  N  N4437  1  0.351200  0.319200  0.983520  1
  N  N4438  1  0.351200  0.680800  0.516480  1
  N  N4439  1  0.851200  0.819200  0.983520  1
  N  N4440  1  0.851200  0.180800  0.516480  1
  N  N4441  1  0.740000  0.841930  0.547440  1
  N  N4442  1  0.740000  0.158070  0.952560  1
  N  N4443  1  0.240000  0.341930  0.547440  1
  N  N4444  1  0.240000  0.658070  0.952560  1
  N  N4445  1  0.260000  0.158070  0.452560  1
  N  N4446  1  0.260000  0.841930  0.047440  1
  N  N4447  1  0.760000  0.658070  0.452560  1
  N  N4448  1  0.760000  0.341930  0.047440  1
  N  N4449  1  0.562530  0.684400  0.386310  1
  N  N4450  1  0.562530  0.315600  0.113690  1
  N  N4451  1  0.062530  0.184400  0.386310  1
  N  N4452  1  0.062530  0.815600  0.113690  1
  N  N4453  1  0.437470  0.315600  0.613690  1
  N  N4454  1  0.437470  0.684400  0.886310  1
  N  N4455  1  0.937470  0.815600  0.613690  1
  N  N4456  1  0.937470  0.184400  0.886310  1
  N  N4457  1  0.660130  0.721420  0.206870  1
  N  N4458  1  0.660130  0.278580  0.293130  1
  N  N4459  1  0.160130  0.221420  0.206870  1
  N  N4460  1  0.160130  0.778580  0.293130  1
  N  N4461  1  0.339870  0.278580  0.793130  1
  N  N4462  1  0.339870  0.721420  0.706870  1
  N  N4463  1  0.839870  0.778580  0.793130  1
  N  N4464  1  0.839870  0.221420  0.706870  1
  N  N4465  1  0.812400  0.879150  0.548520  1
  N  N4466  1  0.812400  0.120850  0.951480  1
  N  N4467  1  0.312400  0.379150  0.548520  1
  N  N4468  1  0.312400  0.620850  0.951480  1
  N  N4469  1  0.187600  0.120850  0.451480  1
  N  N4470  1  0.187600  0.879150  0.048520  1
  N  N4471  1  0.687600  0.620850  0.451480  1
  N  N4472  1  0.687600  0.379150  0.048520  1
  N  N4473  1  0.892900  0.659630  0.370430  1
  N  N4474  1  0.892900  0.340370  0.129570  1
  N  N4475  1  0.392900  0.159630  0.370430  1
  N  N4476  1  0.392900  0.840370  0.129570  1
  N  N4477  1  0.107100  0.340370  0.629570  1
  N  N4478  1  0.107100  0.659630  0.870430  1
  N  N4479  1  0.607100  0.840370  0.629570  1
  N  N4480  1  0.607100  0.159630  0.870430  1
  N  N4481  1  0.734070  0.685210  0.206480  1
  N  N4482  1  0.734070  0.314790  0.293520  1
  N  N4483  1  0.234070  0.185210  0.206480  1
  N  N4484  1  0.234070  0.814790  0.293520  1
  N  N4485  1  0.265930  0.314790  0.793520  1
  N  N4486  1  0.265930  0.685210  0.706480  1
  N  N4487  1  0.765930  0.814790  0.793520  1
  N  N4488  1  0.765930  0.185210  0.706480  1
  N  N4489  1  0.699600  0.911000  0.550910  1
  N  N4490  1  0.699600  0.089000  0.949090  1
  N  N4491  1  0.199600  0.411000  0.550910  1
  N  N4492  1  0.199600  0.589000  0.949090  1
  N  N4493  1  0.300400  0.089000  0.449090  1
  N  N4494  1  0.300400  0.911000  0.050910  1
  N  N4495  1  0.800400  0.589000  0.449090  1
  N  N4496  1  0.800400  0.411000  0.050910  1
  N  N4497  1  0.593900  0.985600  0.387440  1
  N  N4498  1  0.593900  0.014400  0.112560  1
  N  N4499  1  0.093900  0.485600  0.387440  1
  N  N4500  1  0.093900  0.514400  0.112560  1
  N  N4501  1  0.406100  0.014400  0.612560  1
  N  N4502  1  0.406100  0.985600  0.887440  1
  N  N4503  1  0.906100  0.514400  0.612560  1
  N  N4504  1  0.906100  0.485600  0.887440  1
  N  N4505  1  0.698670  0.789820  0.206010  1
  N  N4506  1  0.698670  0.210180  0.293990  1
  N  N4507  1  0.198670  0.289820  0.206010  1
  N  N4508  1  0.198670  0.710180  0.293990  1
  N  N4509  1  0.301330  0.210180  0.793990  1
  N  N4510  1  0.301330  0.789820  0.706010  1
  N  N4511  1  0.801330  0.710180  0.793990  1
  N  N4512  1  0.801330  0.289820  0.706010  1
  N  N4513  1  0.770200  0.950580  0.552030  1
  N  N4514  1  0.770200  0.049420  0.947970  1
  N  N4515  1  0.270200  0.450580  0.552030  1
  N  N4516  1  0.270200  0.549420  0.947970  1
  N  N4517  1  0.229800  0.049420  0.447970  1
  N  N4518  1  0.229800  0.950580  0.052030  1
  N  N4519  1  0.729800  0.549420  0.447970  1
  N  N4520  1  0.729800  0.450580  0.052030  1
  N  N4521  1  0.901720  0.958800  0.375270  1
  N  N4522  1  0.901720  0.041200  0.124730  1
  N  N4523  1  0.401720  0.458800  0.375270  1
  N  N4524  1  0.401720  0.541200  0.124730  1
  N  N4525  1  0.098280  0.041200  0.624730  1
  N  N4526  1  0.098280  0.958800  0.875270  1
  N  N4527  1  0.598280  0.541200  0.624730  1
  N  N4528  1  0.598280  0.458800  0.875270  1
  N  N4529  1  0.772350  0.754980  0.205710  1
  N  N4530  1  0.772350  0.245020  0.294290  1
  N  N4531  1  0.272350  0.254980  0.205710  1
  N  N4532  1  0.272350  0.745020  0.294290  1
  N  N4533  1  0.227650  0.245020  0.794290  1
  N  N4534  1  0.227650  0.754980  0.705710  1
  N  N4535  1  0.727650  0.745020  0.794290  1
  N  N4536  1  0.727650  0.254980  0.705710  1
  Cl  Cl4537  1  0.720130  0.774690  0.282910  1
  Cl  Cl4538  1  0.720130  0.225310  0.217090  1
  Cl  Cl4539  1  0.220130  0.274690  0.282910  1
  Cl  Cl4540  1  0.220130  0.725310  0.217090  1
  Cl  Cl4541  1  0.279870  0.225310  0.717090  1
  Cl  Cl4542  1  0.279870  0.774690  0.782910  1
  Cl  Cl4543  1  0.779870  0.725310  0.717090  1
  Cl  Cl4544  1  0.779870  0.274690  0.782910  1
  F  F4545  1  0.751000  0.861700  0.446200  1
  F  F4546  1  0.751000  0.138300  0.053800  1
  F  F4547  1  0.251000  0.361700  0.446200  1
  F  F4548  1  0.251000  0.638300  0.053800  1
  F  F4549  1  0.249000  0.138300  0.553800  1
  F  F4550  1  0.249000  0.861700  0.946200  1
  F  F4551  1  0.749000  0.638300  0.553800  1
  F  F4552  1  0.749000  0.361700  0.946200  1
  F  F4553  1  0.701600  0.853800  0.470720  1
  F  F4554  1  0.701600  0.146200  0.029280  1
  F  F4555  1  0.201600  0.353800  0.470720  1
  F  F4556  1  0.201600  0.646200  0.029280  1
  F  F4557  1  0.298400  0.146200  0.529280  1
  F  F4558  1  0.298400  0.853800  0.970720  1
  F  F4559  1  0.798400  0.646200  0.529280  1
  F  F4560  1  0.798400  0.353800  0.970720  1
  F  F4561  1  0.752200  0.814400  0.464100  1
  F  F4562  1  0.752200  0.185600  0.035900  1
  F  F4563  1  0.252200  0.314400  0.464100  1
  F  F4564  1  0.252200  0.685600  0.035900  1
  F  F4565  1  0.247800  0.185600  0.535900  1
  F  F4566  1  0.247800  0.814400  0.964100  1
  F  F4567  1  0.747800  0.685600  0.535900  1
  F  F4568  1  0.747800  0.314400  0.964100  1
  F  F4569  1  0.755300  0.875700  0.492560  1
  F  F4570  1  0.755300  0.124300  0.007440  1
  F  F4571  1  0.255300  0.375700  0.492560  1
  F  F4572  1  0.255300  0.624300  0.007440  1
  F  F4573  1  0.244700  0.124300  0.507440  1
  F  F4574  1  0.244700  0.875700  0.992560  1
  F  F4575  1  0.744700  0.624300  0.507440  1
  F  F4576  1  0.744700  0.375700  0.992560  1
  F  F4577  1  0.456900  0.663300  0.162770  1
  F  F4578  1  0.456900  0.336700  0.337230  1
  F  F4579  1  0.956900  0.163300  0.162770  1
  F  F4580  1  0.956900  0.836700  0.337230  1
  F  F4581  1  0.543100  0.336700  0.837230  1
  F  F4582  1  0.543100  0.663300  0.662770  1
  F  F4583  1  0.043100  0.836700  0.837230  1
  F  F4584  1  0.043100  0.163300  0.662770  1
  F  F4585  1  0.488600  0.633900  0.187600  1
  F  F4586  1  0.488600  0.366100  0.312400  1
  F  F4587  1  0.988600  0.133900  0.187600  1
  F  F4588  1  0.988600  0.866100  0.312400  1
  F  F4589  1  0.511400  0.366100  0.812400  1
  F  F4590  1  0.511400  0.633900  0.687600  1
  F  F4591  1  0.011400  0.866100  0.812400  1
  F  F4592  1  0.011400  0.133900  0.687600  1
  F  F4593  1  0.451900  0.685700  0.208630  1
  F  F4594  1  0.451900  0.314300  0.291370  1
  F  F4595  1  0.951900  0.185700  0.208630  1
  F  F4596  1  0.951900  0.814300  0.291370  1
  F  F4597  1  0.548100  0.314300  0.791370  1
  F  F4598  1  0.548100  0.685700  0.708630  1
  F  F4599  1  0.048100  0.814300  0.791370  1
  F  F4600  1  0.048100  0.185700  0.708630  1
  F  F4601  1  0.507200  0.691700  0.187010  1
  F  F4602  1  0.507200  0.308300  0.312990  1
  F  F4603  1  0.007200  0.191700  0.187010  1
  F  F4604  1  0.007200  0.808300  0.312990  1
  F  F4605  1  0.492800  0.308300  0.812990  1
  F  F4606  1  0.492800  0.691700  0.687010  1
  F  F4607  1  0.992800  0.808300  0.812990  1
  F  F4608  1  0.992800  0.191700  0.687010  1
  F  F4609  1  0.648900  0.572000  0.901300  1
  F  F4610  1  0.648900  0.428000  0.598700  1
  F  F4611  1  0.148900  0.072000  0.901300  1
  F  F4612  1  0.148900  0.928000  0.598700  1
  F  F4613  1  0.351100  0.428000  0.098700  1
  F  F4614  1  0.351100  0.572000  0.401300  1
  F  F4615  1  0.851100  0.928000  0.098700  1
  F  F4616  1  0.851100  0.072000  0.401300  1
  F  F4617  1  0.595400  0.608100  0.912200  1
  F  F4618  1  0.595400  0.391900  0.587800  1
  F  F4619  1  0.095400  0.108100  0.912200  1
  F  F4620  1  0.095400  0.891900  0.587800  1
  F  F4621  1  0.404600  0.391900  0.087800  1
  F  F4622  1  0.404600  0.608100  0.412200  1
  F  F4623  1  0.904600  0.891900  0.087800  1
  F  F4624  1  0.904600  0.108100  0.412200  1
  F  F4625  1  0.587900  0.545900  0.885800  1
  F  F4626  1  0.587900  0.454100  0.614200  1
  F  F4627  1  0.087900  0.045900  0.885800  1
  F  F4628  1  0.087900  0.954100  0.614200  1
  F  F4629  1  0.412100  0.454100  0.114200  1
  F  F4630  1  0.412100  0.545900  0.385800  1
  F  F4631  1  0.912100  0.954100  0.114200  1
  F  F4632  1  0.912100  0.045900  0.385800  1
  F  F4633  1  0.613300  0.589100  0.867400  1
  F  F4634  1  0.613300  0.410900  0.632600  1
  F  F4635  1  0.113300  0.089100  0.867400  1
  F  F4636  1  0.113300  0.910900  0.632600  1
  F  F4637  1  0.386700  0.410900  0.132600  1
  F  F4638  1  0.386700  0.589100  0.367400  1
  F  F4639  1  0.886700  0.910900  0.132600  1
  F  F4640  1  0.886700  0.089100  0.367400  1
  F  F4641  1  0.758500  0.877500  0.488200  1
  F  F4642  1  0.758500  0.122500  0.011800  1
  F  F4643  1  0.258500  0.377500  0.488200  1
  F  F4644  1  0.258500  0.622500  0.011800  1
  F  F4645  1  0.241500  0.122500  0.511800  1
  F  F4646  1  0.241500  0.877500  0.988200  1
  F  F4647  1  0.741500  0.622500  0.511800  1
  F  F4648  1  0.741500  0.377500  0.988200  1
  F  F4649  1  0.770600  0.816100  0.465600  1
  F  F4650  1  0.770600  0.183900  0.034400  1
  F  F4651  1  0.270600  0.316100  0.465600  1
  F  F4652  1  0.270600  0.683900  0.034400  1
  F  F4653  1  0.229400  0.183900  0.534400  1
  F  F4654  1  0.229400  0.816100  0.965600  1
  F  F4655  1  0.729400  0.683900  0.534400  1
  F  F4656  1  0.729400  0.316100  0.965600  1
  F  F4657  1  0.755900  0.854000  0.442500  1
  F  F4658  1  0.755900  0.146000  0.057500  1
  F  F4659  1  0.255900  0.354000  0.442500  1
  F  F4660  1  0.255900  0.646000  0.057500  1
  F  F4661  1  0.244100  0.146000  0.557500  1
  F  F4662  1  0.244100  0.854000  0.942500  1
  F  F4663  1  0.744100  0.646000  0.557500  1
  F  F4664  1  0.744100  0.354000  0.942500  1
  F  F4665  1  0.814400  0.863700  0.463100  1
  F  F4666  1  0.814400  0.136300  0.036900  1
  F  F4667  1  0.314400  0.363700  0.463100  1
  F  F4668  1  0.314400  0.636300  0.036900  1
  F  F4669  1  0.185600  0.136300  0.536900  1
  F  F4670  1  0.185600  0.863700  0.963100  1
  F  F4671  1  0.685600  0.636300  0.536900  1
  F  F4672  1  0.685600  0.363700  0.963100  1
  F  F4673  1  0.725700  0.787900  0.305490  1
  F  F4674  1  0.725700  0.212100  0.194510  1
  F  F4675  1  0.225700  0.287900  0.305490  1
  F  F4676  1  0.225700  0.712100  0.194510  1
  F  F4677  1  0.274300  0.212100  0.694510  1
  F  F4678  1  0.274300  0.787900  0.805490  1
  F  F4679  1  0.774300  0.712100  0.694510  1
  F  F4680  1  0.774300  0.287900  0.805490  1
  F  F4681  1  0.720400  0.760500  0.258530  1
  F  F4682  1  0.720400  0.239500  0.241470  1
  F  F4683  1  0.220400  0.260500  0.258530  1
  F  F4684  1  0.220400  0.739500  0.241470  1
  F  F4685  1  0.279600  0.239500  0.741470  1
  F  F4686  1  0.279600  0.760500  0.758530  1
  F  F4687  1  0.779600  0.739500  0.741470  1
  F  F4688  1  0.779600  0.260500  0.758530  1
  F  F4689  1  0.672700  0.794800  0.283000  1
  F  F4690  1  0.672700  0.205200  0.217000  1
  F  F4691  1  0.172700  0.294800  0.283000  1
  F  F4692  1  0.172700  0.705200  0.217000  1
  F  F4693  1  0.327300  0.205200  0.717000  1
  F  F4694  1  0.327300  0.794800  0.783000  1
  F  F4695  1  0.827300  0.705200  0.717000  1
  F  F4696  1  0.827300  0.294800  0.783000  1
  F  F4697  1  0.688600  0.737300  0.287430  1
  F  F4698  1  0.688600  0.262700  0.212570  1
  F  F4699  1  0.188600  0.237300  0.287430  1
  F  F4700  1  0.188600  0.762700  0.212570  1
  F  F4701  1  0.311400  0.262700  0.712570  1
  F  F4702  1  0.311400  0.737300  0.787430  1
  F  F4703  1  0.811400  0.762700  0.712570  1
  F  F4704  1  0.811400  0.237300  0.787430  1
  F  F4705  1  0.718000  0.690800  0.118400  1
  F  F4706  1  0.718000  0.309200  0.381600  1
  F  F4707  1  0.218000  0.190800  0.118400  1
  F  F4708  1  0.218000  0.809200  0.381600  1
  F  F4709  1  0.282000  0.309200  0.881600  1
  F  F4710  1  0.282000  0.690800  0.618400  1
  F  F4711  1  0.782000  0.809200  0.881600  1
  F  F4712  1  0.782000  0.190800  0.618400  1
  F  F4713  1  0.662600  0.664000  0.103520  1
  F  F4714  1  0.662600  0.336000  0.396480  1
  F  F4715  1  0.162600  0.164000  0.103520  1
  F  F4716  1  0.162600  0.836000  0.396480  1
  F  F4717  1  0.337400  0.336000  0.896480  1
  F  F4718  1  0.337400  0.664000  0.603520  1
  F  F4719  1  0.837400  0.836000  0.896480  1
  F  F4720  1  0.837400  0.164000  0.603520  1
  F  F4721  1  0.718700  0.627300  0.089600  1
  F  F4722  1  0.718700  0.372700  0.410400  1
  F  F4723  1  0.218700  0.127300  0.089600  1
  F  F4724  1  0.218700  0.872700  0.410400  1
  F  F4725  1  0.281300  0.372700  0.910400  1
  F  F4726  1  0.281300  0.627300  0.589600  1
  F  F4727  1  0.781300  0.872700  0.910400  1
  F  F4728  1  0.781300  0.127300  0.589600  1
  F  F4729  1  0.702600  0.674000  0.072700  1
  F  F4730  1  0.702600  0.326000  0.427300  1
  F  F4731  1  0.202600  0.174000  0.072700  1
  F  F4732  1  0.202600  0.826000  0.427300  1
  F  F4733  1  0.297400  0.326000  0.927300  1
  F  F4734  1  0.297400  0.674000  0.572700  1
  F  F4735  1  0.797400  0.826000  0.927300  1
  F  F4736  1  0.797400  0.174000  0.572700  1
  F  F4737  1  0.759500  0.686600  0.089300  1
  F  F4738  1  0.759500  0.313400  0.410700  1
  F  F4739  1  0.259500  0.186600  0.089300  1
  F  F4740  1  0.259500  0.813400  0.410700  1
  F  F4741  1  0.240500  0.313400  0.910700  1
  F  F4742  1  0.240500  0.686600  0.589300  1
  F  F4743  1  0.740500  0.813400  0.910700  1
  F  F4744  1  0.740500  0.186600  0.589300  1
  F  F4745  1  0.699200  0.673000  0.073400  1
  F  F4746  1  0.699200  0.327000  0.426600  1
  F  F4747  1  0.199200  0.173000  0.073400  1
  F  F4748  1  0.199200  0.827000  0.426600  1
  F  F4749  1  0.300800  0.327000  0.926600  1
  F  F4750  1  0.300800  0.673000  0.573400  1
  F  F4751  1  0.800800  0.827000  0.926600  1
  F  F4752  1  0.800800  0.173000  0.573400  1
  F  F4753  1  0.730700  0.638200  0.096800  1
  F  F4754  1  0.730700  0.361800  0.403200  1
  F  F4755  1  0.230700  0.138200  0.096800  1
  F  F4756  1  0.230700  0.861800  0.403200  1
  F  F4757  1  0.269300  0.361800  0.903200  1
  F  F4758  1  0.269300  0.638200  0.596800  1
  F  F4759  1  0.769300  0.861800  0.903200  1
  F  F4760  1  0.769300  0.138200  0.596800  1
  F  F4761  1  0.709200  0.700100  0.118800  1
  F  F4762  1  0.709200  0.299900  0.381200  1
  F  F4763  1  0.209200  0.200100  0.118800  1
  F  F4764  1  0.209200  0.799900  0.381200  1
  F  F4765  1  0.290800  0.299900  0.881200  1
  F  F4766  1  0.290800  0.700100  0.618800  1
  F  F4767  1  0.790800  0.799900  0.881200  1
  F  F4768  1  0.790800  0.200100  0.618800  1
  F  F4769  1  0.724300  0.992400  0.076700  1
  F  F4770  1  0.724300  0.007600  0.423300  1
  F  F4771  1  0.224300  0.492400  0.076700  1
  F  F4772  1  0.224300  0.507600  0.423300  1
  F  F4773  1  0.275700  0.007600  0.923300  1
  F  F4774  1  0.275700  0.992400  0.576700  1
  F  F4775  1  0.775700  0.507600  0.923300  1
  F  F4776  1  0.775700  0.492400  0.576700  1
  F  F4777  1  0.692700  0.936300  0.065300  1
  F  F4778  1  0.692700  0.063700  0.434700  1
  F  F4779  1  0.192700  0.436300  0.065300  1
  F  F4780  1  0.192700  0.563700  0.434700  1
  F  F4781  1  0.307300  0.063700  0.934700  1
  F  F4782  1  0.307300  0.936300  0.565300  1
  F  F4783  1  0.807300  0.563700  0.934700  1
  F  F4784  1  0.807300  0.436300  0.565300  1
  F  F4785  1  0.693500  0.975500  0.109700  1
  F  F4786  1  0.693500  0.024500  0.390300  1
  F  F4787  1  0.193500  0.475500  0.109700  1
  F  F4788  1  0.193500  0.524500  0.390300  1
  F  F4789  1  0.306500  0.024500  0.890300  1
  F  F4790  1  0.306500  0.975500  0.609700  1
  F  F4791  1  0.806500  0.524500  0.890300  1
  F  F4792  1  0.806500  0.475500  0.609700  1
  F  F4793  1  0.745000  0.940800  0.087700  1
  F  F4794  1  0.745000  0.059200  0.412300  1
  F  F4795  1  0.245000  0.440800  0.087700  1
  F  F4796  1  0.245000  0.559200  0.412300  1
  F  F4797  1  0.255000  0.059200  0.912300  1
  F  F4798  1  0.255000  0.940800  0.587700  1
  F  F4799  1  0.755000  0.559200  0.912300  1
  F  F4800  1  0.755000  0.440800  0.587700  1
  F  F4801  1  0.699500  0.983000  0.075600  1
  F  F4802  1  0.699500  0.017000  0.424400  1
  F  F4803  1  0.199500  0.483000  0.075600  1
  F  F4804  1  0.199500  0.517000  0.424400  1
  F  F4805  1  0.300500  0.017000  0.924400  1
  F  F4806  1  0.300500  0.983000  0.575600  1
  F  F4807  1  0.800500  0.517000  0.924400  1
  F  F4808  1  0.800500  0.483000  0.575600  1
  F  F4809  1  0.751600  0.973900  0.101200  1
  F  F4810  1  0.751600  0.026100  0.398800  1
  F  F4811  1  0.251600  0.473900  0.101200  1
  F  F4812  1  0.251600  0.526100  0.398800  1
  F  F4813  1  0.248400  0.026100  0.898800  1
  F  F4814  1  0.248400  0.973900  0.601200  1
  F  F4815  1  0.748400  0.526100  0.898800  1
  F  F4816  1  0.748400  0.473900  0.601200  1
  F  F4817  1  0.694700  0.972200  0.116700  1
  F  F4818  1  0.694700  0.027800  0.383300  1
  F  F4819  1  0.194700  0.472200  0.116700  1
  F  F4820  1  0.194700  0.527800  0.383300  1
  F  F4821  1  0.305300  0.027800  0.883300  1
  F  F4822  1  0.305300  0.972200  0.616700  1
  F  F4823  1  0.805300  0.527800  0.883300  1
  F  F4824  1  0.805300  0.472200  0.616700  1
  F  F4825  1  0.716700  0.925600  0.077800  1
  F  F4826  1  0.716700  0.074400  0.422200  1
  F  F4827  1  0.216700  0.425600  0.077800  1
  F  F4828  1  0.216700  0.574400  0.422200  1
  F  F4829  1  0.283300  0.074400  0.922200  1
  F  F4830  1  0.283300  0.925600  0.577800  1
  F  F4831  1  0.783300  0.574400  0.922200  1
  F  F4832  1  0.783300  0.425600  0.577800  1
  F  F4833  1  0.752300  0.947000  0.685700  1
  F  F4834  1  0.752300  0.053000  0.814300  1
  F  F4835  1  0.252300  0.447000  0.685700  1
  F  F4836  1  0.252300  0.553000  0.814300  1
  F  F4837  1  0.247700  0.053000  0.314300  1
  F  F4838  1  0.247700  0.947000  0.185700  1
  F  F4839  1  0.747700  0.553000  0.314300  1
  F  F4840  1  0.747700  0.447000  0.185700  1
  F  F4841  1  0.700800  0.954000  0.657100  1
  F  F4842  1  0.700800  0.046000  0.842900  1
  F  F4843  1  0.200800  0.454000  0.657100  1
  F  F4844  1  0.200800  0.546000  0.842900  1
  F  F4845  1  0.299200  0.046000  0.342900  1
  F  F4846  1  0.299200  0.954000  0.157100  1
  F  F4847  1  0.799200  0.546000  0.342900  1
  F  F4848  1  0.799200  0.454000  0.157100  1
  F  F4849  1  0.721500  0.901800  0.652300  1
  F  F4850  1  0.721500  0.098200  0.847700  1
  F  F4851  1  0.221500  0.401800  0.652300  1
  F  F4852  1  0.221500  0.598200  0.847700  1
  F  F4853  1  0.278500  0.098200  0.347700  1
  F  F4854  1  0.278500  0.901800  0.152300  1
  F  F4855  1  0.778500  0.598200  0.347700  1
  F  F4856  1  0.778500  0.401800  0.152300  1
  F  F4857  1  0.766300  0.934600  0.640600  1
  F  F4858  1  0.766300  0.065400  0.859400  1
  F  F4859  1  0.266300  0.434600  0.640600  1
  F  F4860  1  0.266300  0.565400  0.859400  1
  F  F4861  1  0.233700  0.065400  0.359400  1
  F  F4862  1  0.233700  0.934600  0.140600  1
  F  F4863  1  0.733700  0.565400  0.359400  1
  F  F4864  1  0.733700  0.434600  0.140600  1
  F  F4865  1  0.783600  0.900000  0.654600  1
  F  F4866  1  0.783600  0.100000  0.845400  1
  F  F4867  1  0.283600  0.400000  0.654600  1
  F  F4868  1  0.283600  0.600000  0.845400  1
  F  F4869  1  0.216400  0.100000  0.345400  1
  F  F4870  1  0.216400  0.900000  0.154600  1
  F  F4871  1  0.716400  0.600000  0.345400  1
  F  F4872  1  0.716400  0.400000  0.154600  1
  F  F4873  1  0.741400  0.933900  0.684200  1
  F  F4874  1  0.741400  0.066100  0.815800  1
  F  F4875  1  0.241400  0.433900  0.684200  1
  F  F4876  1  0.241400  0.566100  0.815800  1
  F  F4877  1  0.258600  0.066100  0.315800  1
  F  F4878  1  0.258600  0.933900  0.184200  1
  F  F4879  1  0.758600  0.566100  0.315800  1
  F  F4880  1  0.758600  0.433900  0.184200  1
  F  F4881  1  0.720200  0.896400  0.642200  1
  F  F4882  1  0.720200  0.103600  0.857800  1
  F  F4883  1  0.220200  0.396400  0.642200  1
  F  F4884  1  0.220200  0.603600  0.857800  1
  F  F4885  1  0.279800  0.103600  0.357800  1
  F  F4886  1  0.279800  0.896400  0.142200  1
  F  F4887  1  0.779800  0.603600  0.357800  1
  F  F4888  1  0.779800  0.396400  0.142200  1
  F  F4889  1  0.752000  0.949300  0.644400  1
  F  F4890  1  0.752000  0.050700  0.855600  1
  F  F4891  1  0.252000  0.449300  0.644400  1
  F  F4892  1  0.252000  0.550700  0.855600  1
  F  F4893  1  0.248000  0.050700  0.355600  1
  F  F4894  1  0.248000  0.949300  0.144400  1
  F  F4895  1  0.748000  0.550700  0.355600  1
  F  F4896  1  0.748000  0.449300  0.144400  1
