
#######################################################################
#
#                 Cambridge Crystallographic Data Centre
#                                CCDC 
#
#######################################################################
#
# If this CIF has been generated from an entry in the Cambridge 
# Structural Database, then it will include bibliographic, chemical, 
# crystal, experimental, refinement or atomic coordinate data resulting 
# from the CCDC's data processing and validation procedures.
#
#######################################################################

data_JIFTUQ
_chemical_formula_moiety         
'C136 H124 N12 Pd2 S4 4+,3.7(B1 F4 1-),0.3(Cl1 1-)'
_chemical_name_systematic        
'tetrakis(\m-10-hexyl-3,7-bis[(6-methylpyridin-3-yl)ethynyl]-10H-phenothiazine)-di-palladium tetrafluoroborate chloride unknown solvate'
_symmetry_cell_setting           monoclinic
_symmetry_space_group_name_H-M   'C 2/c'
_symmetry_Int_Tables_number      15
_space_group_name_Hall           '-C 2yn'
loop_
_symmetry_equiv_pos_site_id
_symmetry_equiv_pos_as_xyz
1 x,y,z
2 -x,y,1/2-z
3 1/2+x,1/2+y,z
4 1/2-x,1/2+y,1/2-z
5 -x,-y,-z
6 x,-y,1/2+z
7 1/2-x,1/2-y,-z
8 1/2+x,1/2-y,1/2+z
_cell_length_a                   37.243(7)
_cell_length_b                   34.850(7)
_cell_length_c                   51.629(10)
_cell_angle_alpha                90
_cell_angle_beta                 109.94(3)
_cell_angle_gamma                90
_cell_volume                     62993
_exptl_crystal_colour            yellow
_exptl_crystal_description       plate
_cell_formula_units_Z            16
_chemical_properties_physical    ', Air-sensitive'
_exptl_crystal_recrystallization_method acetonitrile
loop_
_atom_site_label
_atom_site_type_symbol
_atom_site_fract_x
_atom_site_fract_y
_atom_site_fract_z
Pd1 Pd 0.18480(2) 0.26546(2) 0.63893(2)
Pd2 Pd 0.35831(2) 0.30987(2) 0.98829(2)
N1 N 0.13207(14) 0.27852(16) 0.64063(9)
C1 C 0.10280(18) 0.2931(2) 0.61971(11)
C2 C 0.06754(18) 0.2995(2) 0.62287(12)
H1 H 0.0467 0.3089 0.6078
C3 C 0.06266(18) 0.29239(19) 0.64761(12)
H2 H 0.0387 0.2968 0.6498
C4 C 0.09357(17) 0.27855(18) 0.66954(11)
C5 C 0.12742(17) 0.27149(19) 0.66494(11)
H3 H 0.1483 0.2612 0.6796
C6 C 0.1080(2) 0.3019(3) 0.59296(13)
H4 H 0.0841 0.3122 0.5800
H5 H 0.1284 0.3208 0.5959
H6 H 0.1148 0.2783 0.5854
C7 C 0.09036(18) 0.2708(2) 0.69600(11)
C8 C 0.08727(18) 0.2651(2) 0.71784(11)
C9 C 0.08293(17) 0.26066(19) 0.74420(11)
C10 C 0.05467(18) 0.2813(2) 0.75016(12)
H7 H 0.0386 0.2982 0.7367
C11 C 0.04981(19) 0.2775(2) 0.77492(12)
H8 H 0.0312 0.2926 0.7790
C12 C 0.07220(17) 0.2512(2) 0.79460(12)
N2 N 0.06646(15) 0.2461(2) 0.81988(10)
C13 C 0.09868(17) 0.2425(2) 0.84419(12)
C14 C 0.0996(2) 0.2605(3) 0.86827(13)
H9 H 0.0782 0.2747 0.8689
C15 C 0.1322(2) 0.2577(3) 0.89150(15)
H10 H 0.1323 0.2694 0.9081
C16 C 0.16450(19) 0.2386(3) 0.89121(12)
C17 C 0.16399(19) 0.2202(3) 0.86707(12)
H11 H 0.1858 0.2067 0.8664
C18 C 0.13085(18) 0.2221(2) 0.84371(12)
S1 S 0.12913(7) 0.19768(8) 0.81349(4)
C19 C 0.10080(16) 0.2309(2) 0.78893(11)
C20 C 0.10662(18) 0.2360(2) 0.76398(11)
H12 H 0.1267 0.2228 0.7604
C21 C 0.1987(2) 0.2380(3) 0.91517(14)
C22 C 0.2266(2) 0.2388(3) 0.93503(14)
C23 C 0.2597(2) 0.2392(3) 0.95999(13)
C24 C 0.2644(3) 0.2112(3) 0.97993(17)
H13 H 0.2463 0.1911 0.9773
C25 C 0.2958(2) 0.2131(3) 1.00349(17)
H14 H 0.2991 0.1943 1.0175
C26 C 0.3229(2) 0.2417(3) 1.00735(13)
C27 C 0.3569(2) 0.2416(3) 1.03350(14)
H15 H 0.3552 0.2196 1.0449
H16 H 0.3804 0.2397 1.0290
H17 H 0.3573 0.2654 1.0437
N3 N 0.31851(16) 0.2689(2) 0.98828(10)
C28 C 0.28734(19) 0.2673(3) 0.96520(13)
H18 H 0.2843 0.2867 0.9517
C29 C 0.0293(2) 0.2564(3) 0.82198(16)
H19 H 0.0316 0.2810 0.8319
H20 H 0.0104 0.2598 0.8033
C30 C 0.0160(3) 0.2268(3) 0.83649(19)
H21 H -0.0092 0.2341 0.8373
H22 H 0.0341 0.2245 0.8556
C31 C 0.0129(3) 0.1885(3) 0.8220(2)
H23 H 0.0381 0.1823 0.8206
H24 H 0.0073 0.1686 0.8338
C32 C -0.0157(3) 0.1856(3) 0.7945(2)
H25 H -0.0075 0.2015 0.7817
H26 H -0.0402 0.1961 0.7950
C33 C -0.0223(3) 0.1452(3) 0.7837(2)
H27 H -0.0311 0.1291 0.7961
H28 H 0.0020 0.1344 0.7831
C34 C -0.0538(4) 0.1445(4) 0.7533(2)
H29 H -0.0578 0.1181 0.7465
H30 H -0.0779 0.1549 0.7540
H31 H -0.0449 0.1602 0.7409
N4 N 0.17800(14) 0.20881(15) 0.64715(10)
C35 C 0.15294(17) 0.1840(2) 0.63029(11)
C36 C 0.15230(19) 0.1462(2) 0.63794(13)
H32 H 0.1349 0.1289 0.6258
C37 C 0.17651(19) 0.1333(2) 0.66294(13)
H33 H 0.1760 0.1072 0.6680
C38 C 0.20171(18) 0.15895(19) 0.68079(11)
C39 C 0.20176(18) 0.19684(19) 0.67196(12)
H34 H 0.2190 0.2147 0.6837
C40 C 0.1247(2) 0.1988(2) 0.60406(12)
H35 H 0.1086 0.1777 0.5941
H36 H 0.1088 0.2185 0.6083
H37 H 0.1384 0.2100 0.5927
C41 C 0.2263(2) 0.1473(2) 0.70773(12)
C42 C 0.2451(2) 0.1366(2) 0.73002(12)
C43 C 0.2650(2) 0.1205(2) 0.75667(11)
C44 C 0.2498(2) 0.0884(2) 0.76508(13)
H38 H 0.2264 0.0777 0.7534
C45 C 0.2687(2) 0.0719(2) 0.79032(13)
H39 H 0.2581 0.0501 0.7960
C46 C 0.3030(2) 0.08667(19) 0.80744(13)
N5 N 0.3228(2) 0.06949(17) 0.83280(12)
C47 C 0.3396(2) 0.0937(2) 0.85557(13)
C48 C 0.3389(3) 0.0847(2) 0.88143(14)
H40 H 0.3266 0.0618 0.8839
C49 C 0.3556(3) 0.1082(2) 0.90370(15)
H41 H 0.3552 0.1009 0.9214
C50 C 0.3728(3) 0.1424(2) 0.90073(13)
C51 C 0.3724(3) 0.1529(2) 0.87453(13)
H42 H 0.3827 0.1769 0.8717
C52 C 0.3567(2) 0.1278(2) 0.85256(12)
S2 S 0.36155(9) 0.13891(8) 0.82048(5)
C53 C 0.31774(19) 0.11972(19) 0.79922(12)
C54 C 0.2987(2) 0.1370(2) 0.77402(12)
H43 H 0.3084 0.1597 0.7687
C55 C 0.3887(3) 0.1677(2) 0.92392(14)
C56 C 0.4003(3) 0.1878(2) 0.94357(14)
C57 C 0.4123(2) 0.2131(2) 0.96715(12)
C58 C 0.4474(2) 0.2091(3) 0.98858(14)
H44 H 0.4649 0.1896 0.9880
C59 C 0.4557(2) 0.2341(3) 1.01050(15)
H45 H 0.4789 0.2311 1.0255
C60 C 0.4309(2) 0.2637(2) 1.01108(13)
C61 C 0.4404(2) 0.2921(3) 1.03436(15)
H46 H 0.4654 0.2858 1.0479
H47 H 0.4412 0.3180 1.0272
H48 H 0.4209 0.2909 1.0431
N6 N 0.39738(17) 0.2677(2) 0.99018(10)
C62 C 0.3887(2) 0.2429(2) 0.96906(13)
H49 H 0.3650 0.2459 0.9546
C63 C 0.3164(3) 0.0290(2) 0.83737(19)
H50 H 0.3040 0.0164 0.8193
H51 H 0.2986 0.0272 0.8478
C64 C 0.3524(3) 0.0075(3) 0.8527(2)
H52 H 0.3618 0.0169 0.8720
H53 H 0.3458 -0.0199 0.8533
C65 C 0.3842(3) 0.0101(3) 0.8416(2)
H54 H 0.4069 -0.0028 0.8546
H55 H 0.3907 0.0374 0.8407
C66 C 0.3757(3) -0.0074(3) 0.8136(2)
H56 H 0.3551 0.0077 0.8003
H57 H 0.3657 -0.0337 0.8141
C67 C 0.4083(3) -0.0101(4) 0.8029(2)
H58 H 0.4290 -0.0252 0.8161
H59 H 0.4183 0.0161 0.8022
C68 C 0.3982(4) -0.0286(4) 0.7737(2)
H60 H 0.4210 -0.0292 0.7684
H61 H 0.3890 -0.0549 0.7742
H62 H 0.3782 -0.0135 0.7603
N7 N 0.23924(15) 0.25315(16) 0.64073(10)
C69 C 0.24865(18) 0.22941(19) 0.62322(11)
C70 C 0.28658(18) 0.2214(2) 0.62706(12)
H63 H 0.2928 0.2045 0.6147
C71 C 0.31539(19) 0.2376(2) 0.64870(12)
H64 H 0.3414 0.2323 0.6513
C72 C 0.30578(16) 0.26195(19) 0.66666(11)
C73 C 0.26735(17) 0.2683(2) 0.66190(12)
H65 H 0.2606 0.2844 0.6744
C74 C 0.21703(19) 0.2117(2) 0.60012(12)
H66 H 0.2278 0.1953 0.5892
H67 H 0.2010 0.1961 0.6077
H68 H 0.2015 0.2319 0.5884
C75 C 0.33446(18) 0.2787(2) 0.69005(12)
C76 C 0.35880(18) 0.2906(2) 0.70996(12)
C77 C 0.38875(17) 0.3027(2) 0.73466(11)
C78 C 0.42542(18) 0.2881(2) 0.74092(13)
H69 H 0.4312 0.2708 0.7286
C79 C 0.4537(2) 0.2990(2) 0.76545(13)
H70 H 0.4786 0.2881 0.7702
C80 C 0.44611(17) 0.3254(2) 0.78295(13)
N8 N 0.47447(17) 0.3370(2) 0.80738(11)
C81 C 0.46414(19) 0.3419(2) 0.83096(12)
C82 C 0.4880(2) 0.3288(3) 0.85642(13)
H71 H 0.5111 0.3159 0.8579
C83 C 0.4782(2) 0.3345(3) 0.87963(15)
H72 H 0.4948 0.3257 0.8970
C84 C 0.4445(2) 0.3528(3) 0.87806(12)
C85 C 0.4196(2) 0.3648(2) 0.85236(12)
H73 H 0.3958 0.3764 0.8507
C86 C 0.43009(19) 0.3594(2) 0.82947(12)
S3 S 0.40027(8) 0.37643(8) 0.79676(5)
C87 C 0.40949(18) 0.3406(2) 0.77620(12)
C88 C 0.38088(18) 0.3286(2) 0.75233(12)
H74 H 0.3557 0.3383 0.7481
C89 C 0.4362(2) 0.3602(3) 0.90275(14)
C90 C 0.4302(2) 0.3650(3) 0.92368(14)
C91 C 0.4240(2) 0.3705(3) 0.94943(13)
C92 C 0.4403(3) 0.4007(3) 0.96667(16)
H75 H 0.4560 0.4185 0.9615
C93 C 0.4343(3) 0.4055(3) 0.99132(16)
H76 H 0.4455 0.4264 1.0031
C94 C 0.4114(2) 0.3790(3) 0.99881(15)
C95 C 0.4029(3) 0.3845(3) 1.02493(16)
H77 H 0.4169 0.4070 1.0348
H78 H 0.3754 0.3885 1.0205
H79 H 0.4109 0.3617 1.0365
N9 N 0.39523(19) 0.3498(2) 0.98194(12)
C96 C 0.4012(2) 0.3459(3) 0.95806(14)
H80 H 0.3892 0.3251 0.9464
C97 C 0.5158(2) 0.3354(4) 0.8111(2)
H81 H 0.5222 0.3104 0.8047
H82 H 0.5313 0.3385 0.8308
C98 C 0.5238(4) 0.3680(5) 0.7942(3)
H83 H 0.5138 0.3610 0.7744
H84 H 0.5100 0.3913 0.7966
C99 C 0.5655(4) 0.3770(5) 0.8023(3)
H85 H 0.5809 0.3537 0.8028
H86 H 0.5752 0.3902 0.8203
C100 C 0.5649(5) 0.4036(5) 0.7786(3)
H87 H 0.5543 0.3887 0.7613
H88 H 0.5464 0.4244 0.7778
C101 C 0.6001(5) 0.4218(6) 0.7781(4)
H89 H 0.6184 0.4016 0.7773
H90 H 0.6117 0.4364 0.7954
C102 C 0.5932(7) 0.4495(7) 0.7531(4)
H91 H 0.6176 0.4609 0.7538
H92 H 0.5822 0.4352 0.7359
H93 H 0.5756 0.4699 0.7540
N10 N 0.19511(16) 0.32285(16) 0.63549(11)
C103 C 0.2031(2) 0.3398(2) 0.61467(13)
C104 C 0.2111(2) 0.3789(2) 0.61543(15)
H94 H 0.2164 0.3906 0.6005
C105 C 0.2115(2) 0.4010(2) 0.63823(15)
H95 H 0.2170 0.4277 0.6389
C106 C 0.20385(19) 0.3831(2) 0.65961(13)
C107 C 0.19548(19) 0.34411(19) 0.65718(13)
H96 H 0.1897 0.3319 0.6717
C108 C 0.2036(3) 0.3149(2) 0.59118(14)
H97 H 0.2097 0.3306 0.5775
H98 H 0.2230 0.2949 0.5980
H99 H 0.1784 0.3030 0.5827
C109 C 0.2052(2) 0.4035(2) 0.68418(14)
C110 C 0.2083(2) 0.4194(2) 0.70531(14)
C111 C 0.2120(2) 0.43997(19) 0.73021(13)
C112 C 0.2304(2) 0.4757(2) 0.73479(15)
H100 H 0.2413 0.4856 0.7220
C113 C 0.2325(2) 0.4961(2) 0.75804(15)
H101 H 0.2450 0.5203 0.7610
C114 C 0.2172(2) 0.48285(18) 0.77726(15)
N11 N 0.2183(2) 0.50466(17) 0.80025(13)
C115 C 0.2273(2) 0.4861(2) 0.82594(15)
C116 C 0.2519(3) 0.5030(2) 0.84982(15)
H102 H 0.2625 0.5275 0.8489
C117 C 0.2611(3) 0.4842(3) 0.87524(17)
H103 H 0.2773 0.4962 0.8915
C118 C 0.2463(3) 0.4479(2) 0.87648(14)
C119 C 0.2224(3) 0.4303(2) 0.85255(15)
H104 H 0.2130 0.4052 0.8534
C120 C 0.2124(2) 0.4494(2) 0.82734(14)
S4 S 0.18025(9) 0.42894(7) 0.79727(5)
C121 C 0.2008(2) 0.44632(19) 0.77324(14)
C122 C 0.1978(2) 0.4255(2) 0.74976(14)
H105 H 0.1859 0.4010 0.7470
C123 C 0.2562(3) 0.4288(3) 0.90265(16)
C124 C 0.2654(3) 0.4141(3) 0.92486(16)
C125 C 0.2782(3) 0.3966(3) 0.95163(15)
C126 C 0.2642(3) 0.4089(3) 0.97227(18)
H106 H 0.2454 0.4285 0.9686
C127 C 0.2782(3) 0.3921(3) 0.99794(18)
H107 H 0.2691 0.4003 1.0121
C128 C 0.3055(3) 0.3633(3) 1.00328(14)
C129 C 0.3203(3) 0.3449(3) 1.03116(14)
H108 H 0.3078 0.3565 1.0432
H109 H 0.3148 0.3174 1.0294
H110 H 0.3480 0.3489 1.0391
N12 N 0.3192(2) 0.3512(2) 0.98352(11)
C130 C 0.3062(3) 0.3680(3) 0.95893(15)
H111 H 0.3166 0.3600 0.9454
C131 C 0.2196(3) 0.5475(2) 0.79997(19)
H112 H 0.2192 0.5573 0.8179
H113 H 0.2440 0.5558 0.7979
C132 C 0.1872(3) 0.5648(3) 0.7773(2)
H114 H 0.1922 0.5926 0.7766
H115 H 0.1869 0.5535 0.7597
C133 C 0.1493(3) 0.5602(4) 0.7792(3)
H116 H 0.1493 0.5715 0.7968
H117 H 0.1439 0.5324 0.7797
C134 C 0.1169(4) 0.5788(4) 0.7553(3)
H118 H 0.1218 0.6067 0.7551
H119 H 0.1172 0.5680 0.7376
C135 C 0.0779(4) 0.5728(5) 0.7573(4)
H120 H 0.0775 0.5850 0.7745
H121 H 0.0742 0.5449 0.7590
C136 C 0.0439(6) 0.5882(7) 0.7333(5)
H122 H 0.0201 0.5827 0.7367
H123 H 0.0466 0.6160 0.7317
H124 H 0.0433 0.5757 0.7161
Pd3 Pd 0.26341(2) 0.28372(2) 0.79575(2)
Pd4 Pd 0.10309(2) 0.24387(3) 0.44780(2)
N13 N 0.15807(17) 0.2600(2) 0.45256(10)
C137 C 0.1775(2) 0.2495(2) 0.43603(12)
C138 C 0.2156(2) 0.2589(2) 0.44277(13)
H125 H 0.2293 0.2504 0.4313
C139 C 0.2343(2) 0.2805(2) 0.46586(12)
H126 H 0.2605 0.2870 0.4704
C140 C 0.2133(2) 0.2928(2) 0.48258(12)
C141 C 0.1755(2) 0.2809(2) 0.47484(12)
H127 H 0.1612 0.2882 0.4862
C142 C 0.1569(2) 0.2280(3) 0.41031(12)
H128 H 0.1745 0.2223 0.4004
H129 H 0.1469 0.2040 0.4150
H130 H 0.1356 0.2437 0.3986
C143 C 0.2304(2) 0.3169(2) 0.50616(13)
C144 C 0.2446(2) 0.3386(2) 0.52470(13)
C145 C 0.2624(2) 0.3643(2) 0.54711(12)
C146 C 0.2628(2) 0.4033(2) 0.54324(15)
H131 H 0.2513 0.4135 0.5252
C147 C 0.2796(2) 0.4279(2) 0.56502(13)
H132 H 0.2786 0.4549 0.5621
C148 C 0.2981(2) 0.4131(2) 0.59131(13)
N14 N 0.3156(2) 0.43747(19) 0.61369(12)
C149 C 0.3120(2) 0.42883(19) 0.63936(13)
C150 C 0.3061(3) 0.4577(2) 0.65615(14)
H133 H 0.3040 0.4837 0.6503
C151 C 0.3032(2) 0.4480(2) 0.68160(14)
H134 H 0.2995 0.4678 0.6931
C152 C 0.3055(2) 0.4105(2) 0.69036(12)
C153 C 0.3105(2) 0.3816(2) 0.67327(12)
H135 H 0.3111 0.3556 0.6788
C154 C 0.3145(2) 0.39078(18) 0.64808(12)
S5 S 0.32386(7) 0.35446(7) 0.62779(4)
C155 C 0.2982(2) 0.37379(19) 0.59517(11)
C156 C 0.2797(2) 0.3490(2) 0.57374(11)
H136 H 0.2788 0.3222 0.5770
C157 C 0.3029(2) 0.4009(2) 0.71672(12)
C158 C 0.2997(2) 0.3940(2) 0.73832(11)
C159 C 0.29487(19) 0.38547(19) 0.76418(11)
C160 C 0.2982(2) 0.4135(2) 0.78388(12)
H137 H 0.3052 0.4389 0.7809
C161 C 0.2913(2) 0.4047(2) 0.80773(12)
H138 H 0.2931 0.4241 0.8211
C162 C 0.2817(2) 0.3676(2) 0.81224(12)
C163 C 0.2740(3) 0.3575(2) 0.83808(14)
H139 H 0.2774 0.3804 0.8497
H140 H 0.2477 0.3482 0.8333
H141 H 0.2918 0.3375 0.8481
N15 N 0.27858(17) 0.33987(16) 0.79313(10)
C164 C 0.28501(19) 0.3487(2) 0.76988(12)
H142 H 0.2827 0.3291 0.7567
C165 C 0.3287(3) 0.4762(2) 0.6095(2)
H143 H 0.3110 0.4956 0.6125
H144 H 0.3281 0.4787 0.5903
C166 C 0.3691(3) 0.4840(3) 0.6292(3)
H145 H 0.3754 0.5113 0.6278
H146 H 0.3699 0.4794 0.6484
C167 C 0.3992(4) 0.4592(4) 0.6237(3)
H147 H 0.3969 0.4629 0.6042
H148 H 0.3930 0.4321 0.6259
C168 C 0.4406(4) 0.4659(5) 0.6413(4)
H149 H 0.4473 0.4925 0.6380
H150 H 0.4425 0.4642 0.6608
C169 C 0.4707(5) 0.4398(5) 0.6373(4)
H151 H 0.4700 0.4414 0.6180
H152 H 0.4652 0.4129 0.6410
C170 C 0.5122(5) 0.4517(7) 0.6578(5)
H153 H 0.5314 0.4345 0.6550
H154 H 0.5177 0.4782 0.6539
H155 H 0.5129 0.4497 0.6769
N16 N 0.12085(16) 0.1876(2) 0.45148(10)
C171 C 0.1090(2) 0.1603(3) 0.43196(12)
C172 C 0.1236(2) 0.1235(3) 0.43713(13)
H156 H 0.1146 0.1042 0.4234
C173 C 0.1510(2) 0.1146(2) 0.46180(13)
H157 H 0.1611 0.0893 0.4653
C174 C 0.16397(18) 0.1432(2) 0.48185(11)
C175 C 0.14823(19) 0.1792(2) 0.47571(12)
H158 H 0.1570 0.1989 0.4891
C176 C 0.0787(2) 0.1705(3) 0.40495(12)
H159 H 0.0729 0.1480 0.3929
H160 H 0.0555 0.1788 0.4083
H161 H 0.0879 0.1914 0.3961
C177 C 0.1933(2) 0.1357(3) 0.50784(12)
C178 C 0.2183(2) 0.1301(3) 0.52892(12)
C179 C 0.24973(19) 0.1238(2) 0.55463(11)
C180 C 0.2863(2) 0.1176(3) 0.55495(14)
H162 H 0.2909 0.1162 0.5380
C181 C 0.3166(2) 0.1133(3) 0.57927(12)
H163 H 0.3418 0.1104 0.5789
C182 C 0.31011(18) 0.1131(2) 0.60421(12)
N17 N 0.34037(17) 0.1071(2) 0.62957(11)
C183 C 0.33994(18) 0.1282(2) 0.65265(12)
C184 C 0.3735(2) 0.1441(2) 0.67054(13)
H164 H 0.3967 0.1410 0.6669
C185 C 0.3736(2) 0.1643(2) 0.69331(13)
H165 H 0.3968 0.1746 0.7055
C186 C 0.33945(18) 0.16960(19) 0.69859(11)
C187 C 0.30523(18) 0.15521(19) 0.68032(11)
H166 H 0.2818 0.1598 0.6834
C188 C 0.30579(17) 0.1342(2) 0.65767(11)
S6 S 0.26290(7) 0.11436(7) 0.63514(4)
C189 C 0.27282(18) 0.1181(2) 0.60419(11)
C190 C 0.2431(2) 0.1237(2) 0.57967(11)
H167 H 0.2179 0.1276 0.5799
C191 C 0.3403(2) 0.1911(2) 0.72269(12)
C192 C 0.3423(2) 0.2093(2) 0.74238(12)
C193 C 0.34522(19) 0.23145(18) 0.76642(12)
C194 C 0.3804(2) 0.2399(2) 0.78614(13)
H168 H 0.4033 0.2315 0.7836
C195 C 0.3822(2) 0.2603(2) 0.80928(14)
H169 H 0.4063 0.2652 0.8230
C196 C 0.3491(2) 0.2737(2) 0.81280(13)
C197 C 0.3516(2) 0.2970(3) 0.83770(14)
H170 H 0.3784 0.2998 0.8494
H171 H 0.3405 0.3225 0.8319
H172 H 0.3375 0.2841 0.8481
N18 N 0.31479(16) 0.26593(17) 0.79352(11)
C198 C 0.31334(19) 0.24488(19) 0.77158(13)
H173 H 0.2889 0.2387 0.7587
C199 C 0.3755(3) 0.0872(3) 0.62971(19)
H174 H 0.3959 0.1063 0.6317
H175 H 0.3705 0.0738 0.6119
C200 C 0.3889(4) 0.0584(4) 0.6530(3)
H176 H 0.4134 0.0465 0.6538
H177 H 0.3924 0.0709 0.6710
C201 C 0.3579(5) 0.0296(4) 0.6463(4)
H178 H 0.3598 0.0192 0.6646
H179 H 0.3344 0.0454 0.6405
C202 C 0.3472(6) -0.0041(5) 0.6282(4)
H180 H 0.3279 0.0053 0.6109
H181 H 0.3334 -0.0213 0.6368
C203 C 0.3730(6) -0.0293(7) 0.6194(5)
H182 H 0.3933 -0.0387 0.6362
H183 H 0.3856 -0.0134 0.6091
C204 C 0.3547(9) -0.0649(7) 0.6013(5)
H184 H 0.3745 -0.0792 0.5969
H185 H 0.3429 -0.0816 0.6114
H186 H 0.3352 -0.0563 0.5842
N19 N 0.0890(2) 0.3004(2) 0.44909(13)
C205 C 0.0903(3) 0.3264(3) 0.43073(16)
C206 C 0.0819(3) 0.3644(3) 0.43424(18)
H187 H 0.0828 0.3829 0.4210
C207 C 0.0720(3) 0.3762(3) 0.45677(19)
H188 H 0.0666 0.4023 0.4592
C208 C 0.0703(3) 0.3482(3) 0.47569(16)
C209 C 0.0790(2) 0.3106(3) 0.47084(15)
H189 H 0.0779 0.2913 0.4835
C210 C 0.1008(3) 0.3149(3) 0.40631(16)
H190 H 0.1003 0.3376 0.3950
H191 H 0.1265 0.3038 0.4126
H192 H 0.0824 0.2959 0.3954
C211 C 0.0596(3) 0.3573(3) 0.49914(17)
C212 C 0.0520(3) 0.3667(3) 0.51887(17)
C213 C 0.0425(2) 0.3763(3) 0.54289(15)
C214 C 0.0051(3) 0.3740(3) 0.54232(18)
H193 H -0.0143 0.3652 0.5261
C215 C -0.0043(2) 0.3841(3) 0.56495(16)
H194 H -0.0302 0.3827 0.5641
C216 C 0.0238(2) 0.3966(3) 0.58929(15)
N20 N 0.0144(2) 0.4061(2) 0.61256(13)
C217 C 0.03860(19) 0.3963(2) 0.63866(15)
C218 C 0.0242(2) 0.3842(3) 0.65886(15)
H195 H -0.0027 0.3827 0.6548
C219 C 0.0484(2) 0.3743(3) 0.68462(16)
H196 H 0.0381 0.3674 0.6985
C220 C 0.0880(2) 0.3743(2) 0.69084(13)
C221 C 0.1027(2) 0.3852(2) 0.67048(13)
H197 H 0.1295 0.3846 0.6741
C222 C 0.07831(19) 0.3970(2) 0.64495(13)
S7 S 0.09754(8) 0.41386(8) 0.62015(5)
C223 C 0.06165(19) 0.3980(2) 0.59009(13)
C224 C 0.0708(2) 0.3879(3) 0.56717(14)
H198 H 0.0966 0.3889 0.5680
C225 C 0.1125(2) 0.3611(2) 0.71717(13)
C226 C 0.1310(2) 0.3494(2) 0.73952(13)
C227 C 0.15221(19) 0.3326(2) 0.76552(13)
C228 C 0.1376(2) 0.3294(2) 0.78681(15)
H199 H 0.1132 0.3395 0.7850
C229 C 0.1593(2) 0.3113(2) 0.81057(15)
H200 H 0.1491 0.3084 0.8250
C230 C 0.1955(2) 0.2970(2) 0.81432(13)
C231 C 0.2185(3) 0.2751(3) 0.83976(15)
H201 H 0.2044 0.2742 0.8527
H202 H 0.2228 0.2489 0.8346
H203 H 0.2431 0.2879 0.8485
N21 N 0.21018(17) 0.30133(17) 0.79399(12)
C232 C 0.1891(2) 0.3186(2) 0.77014(14)
H204 H 0.1998 0.3213 0.7560
C233 C -0.0260(3) 0.4155(4) 0.6083(2)
H205 H -0.0311 0.4129 0.6258
H206 H -0.0432 0.3978 0.5946
C234 C -0.0334(5) 0.4567(4) 0.5979(4)
H207 H -0.0612 0.4618 0.5903
H208 H -0.0223 0.4613 0.5833
C235 C -0.0146(6) 0.4828(5) 0.6225(4)
H209 H -0.0340 0.4923 0.6301
H210 H 0.0049 0.4682 0.6372
C236 C 0.0042(6) 0.5166(6) 0.6135(5)
H211 H 0.0261 0.5069 0.6087
H212 H -0.0144 0.5277 0.5966
C237 C 0.0183(7) 0.5481(6) 0.6342(5)
H213 H 0.0375 0.5366 0.6507
H214 H -0.0035 0.5562 0.6397
C238 C 0.0367(8) 0.5857(7) 0.6269(6)
H215 H 0.0442 0.6030 0.6428
H216 H 0.0592 0.5788 0.6222
H217 H 0.0180 0.5985 0.6111
N22 N 0.04942(17) 0.2298(2) 0.44797(11)
C239 C 0.0162(2) 0.2410(3) 0.42853(13)
C240 C -0.0176(2) 0.2346(3) 0.43320(14)
H218 H -0.0410 0.2425 0.4199
C241 C -0.0179(2) 0.2168(3) 0.45683(13)
H219 H -0.0415 0.2127 0.4597
C242 C 0.0157(2) 0.2050(2) 0.47634(12)
C243 C 0.0492(2) 0.2124(3) 0.47063(13)
H220 H 0.0729 0.2045 0.4837
C244 C 0.0180(3) 0.2599(3) 0.40321(15)
H221 H -0.0079 0.2664 0.3911
H222 H 0.0333 0.2834 0.4082
H223 H 0.0298 0.2424 0.3936
C245 C 0.0171(2) 0.1873(3) 0.50172(13)
C246 C 0.0205(2) 0.1722(3) 0.52303(13)
C247 C 0.0241(2) 0.1532(2) 0.54862(12)
C248 C 0.0218(2) 0.1138(2) 0.55027(15)
H224 H 0.0168 0.0990 0.5340
C249 C 0.0266(2) 0.0950(2) 0.57505(13)
H225 H 0.0249 0.0678 0.5755
C250 C 0.0340(2) 0.11658(19) 0.59928(13)
N23 N 0.0412(2) 0.09828(18) 0.62473(12)
C251 C 0.06494(19) 0.11444(17) 0.64935(12)
C252 C 0.0868(2) 0.0914(2) 0.67074(13)
H226 H 0.0848 0.0642 0.6690
C253 C 0.1115(2) 0.10757(19) 0.69479(13)
H227 H 0.1260 0.0913 0.7094
C254 C 0.11541(17) 0.14725(19) 0.69795(11)
C255 C 0.09399(17) 0.17017(18) 0.67607(11)
H228 H 0.0968 0.1973 0.6774
C256 C 0.06866(17) 0.15414(17) 0.65243(11)
S8 S 0.03917(6) 0.18502(6) 0.62663(4)
C257 C 0.03550(19) 0.15647(19) 0.59756(11)
C258 C 0.03143(19) 0.1747(2) 0.57286(12)
H229 H 0.0336 0.2018 0.5723
C259 C 0.14276(17) 0.1629(2) 0.72253(12)
C260 C 0.16711(18) 0.1728(2) 0.74318(12)
C261 C 0.19782(17) 0.18287(19) 0.76816(11)
C262 C 0.21058(19) 0.1570(2) 0.78983(13)
H230 H 0.1983 0.1329 0.7888
C263 C 0.2409(2) 0.1664(2) 0.81275(13)
H231 H 0.2501 0.1486 0.8275
C264 C 0.25835(19) 0.2023(2) 0.81443(13)
C265 C 0.2931(2) 0.2116(2) 0.83914(14)
H232 H 0.2990 0.1898 0.8519
H233 H 0.3149 0.2166 0.8331
H234 H 0.2880 0.2344 0.8484
N24 N 0.24502(16) 0.22765(16) 0.79429(11)
C266 C 0.21583(18) 0.21835(19) 0.77155(13)
H235 H 0.2071 0.2368 0.7572
C267 C 0.0337(3) 0.0564(2) 0.6241(2)
H236 H 0.0099 0.0502 0.6088
H237 H 0.0304 0.0483 0.6416
C268 C 0.0681(4) 0.0342(4) 0.6202(3)
H238 H 0.0765 0.0484 0.6067
H239 H 0.0896 0.0343 0.6379
C269 C 0.0599(5) -0.0056(4) 0.6108(4)
H240 H 0.0470 -0.0168 0.6230
H241 H 0.0400 -0.0036 0.5924
C270 C 0.0858(5) -0.0357(5) 0.6081(4)
H242 H 0.0793 -0.0398 0.5881
H243 H 0.0780 -0.0593 0.6155
C271 C 0.1279(5) -0.0349(5) 0.6196(5)
H244 H 0.1359 -0.0298 0.6397
H245 H 0.1373 -0.0134 0.6111
C272 C 0.1469(5) -0.0726(5) 0.6150(4)
H246 H 0.1747 -0.0702 0.6231
H247 H 0.1383 -0.0939 0.6238
H248 H 0.1397 -0.0775 0.5952
F1 F 0.1383(4) 0.2490(4) 0.5538(2)
B1 B 0.1492(4) 0.2576(5) 0.5319(2)
F2 F 0.1462(2) 0.2984(3) 0.52928(14)
F3 F 0.1856(3) 0.2478(3) 0.5359(2)
F4 F 0.1243(4) 0.2447(4) 0.50744(19)
Cl1 Cl 0.22531(9) 0.27987(9) 0.71709(7)
F37 F 0.3367(3) 0.5431(2) 0.83723(18)
B10 B 0.3315(5) 0.5232(5) 0.8133(4)
F38 F 0.3661(3) 0.5114(3) 0.8124(2)
F39 F 0.3143(3) 0.5481(3) 0.79137(19)
F40 F 0.3083(3) 0.4928(2) 0.81299(16)
F41 F 0.4280(9) 0.3511(7) 1.0987(5)
B11 B 0.4219(8) 0.3874(8) 1.1085(6)
F42 F 0.3919(8) 0.4046(8) 1.0878(5)
F43 F 0.4541(7) 0.4121(8) 1.1142(6)
F44 F 0.4109(9) 0.3867(8) 1.1326(5)
loop_
_geom_bond_atom_site_label_1
_geom_bond_atom_site_label_2
_geom_bond_site_symmetry_1
_geom_bond_site_symmetry_2
Pd1 N1 1_555 1_555
Pd2 N3 1_555 1_555
N1 C1 1_555 1_555
C1 C2 1_555 1_555
C2 H1 1_555 1_555
C3 C2 1_555 1_555
H2 C3 1_555 1_555
C4 C3 1_555 1_555
C5 N1 1_555 1_555
H3 C5 1_555 1_555
C6 C1 1_555 1_555
H4 C6 1_555 1_555
H5 C6 1_555 1_555
H6 C6 1_555 1_555
C7 C4 1_555 1_555
C8 C7 1_555 1_555
C9 C8 1_555 1_555
C10 C9 1_555 1_555
H7 C10 1_555 1_555
C11 C10 1_555 1_555
H8 C11 1_555 1_555
C12 C11 1_555 1_555
N2 C12 1_555 1_555
C13 N2 1_555 1_555
C14 C13 1_555 1_555
H9 C14 1_555 1_555
C15 C14 1_555 1_555
H10 C15 1_555 1_555
C16 C15 1_555 1_555
C17 C16 1_555 1_555
H11 C17 1_555 1_555
C18 C13 1_555 1_555
S1 C18 1_555 1_555
C19 C12 1_555 1_555
C20 C9 1_555 1_555
H12 C20 1_555 1_555
C21 C16 1_555 1_555
C22 C21 1_555 1_555
C23 C22 1_555 1_555
C24 C23 1_555 1_555
H13 C24 1_555 1_555
C25 C24 1_555 1_555
H14 C25 1_555 1_555
C26 C25 1_555 1_555
C27 C26 1_555 1_555
H15 C27 1_555 1_555
H16 C27 1_555 1_555
H17 C27 1_555 1_555
N3 C26 1_555 1_555
C28 C23 1_555 1_555
H18 C28 1_555 1_555
C29 N2 1_555 1_555
H19 C29 1_555 1_555
H20 C29 1_555 1_555
C30 C29 1_555 1_555
H21 C30 1_555 1_555
H22 C30 1_555 1_555
C31 C30 1_555 1_555
H23 C31 1_555 1_555
H24 C31 1_555 1_555
C32 C31 1_555 1_555
H25 C32 1_555 1_555
H26 C32 1_555 1_555
C33 C32 1_555 1_555
H27 C33 1_555 1_555
H28 C33 1_555 1_555
C34 C33 1_555 1_555
H29 C34 1_555 1_555
H30 C34 1_555 1_555
H31 C34 1_555 1_555
N4 Pd1 1_555 1_555
C35 N4 1_555 1_555
C36 C35 1_555 1_555
H32 C36 1_555 1_555
C37 C36 1_555 1_555
H33 C37 1_555 1_555
C38 C37 1_555 1_555
C39 N4 1_555 1_555
H34 C39 1_555 1_555
C40 C35 1_555 1_555
H35 C40 1_555 1_555
H36 C40 1_555 1_555
H37 C40 1_555 1_555
C41 C38 1_555 1_555
C42 C41 1_555 1_555
C43 C42 1_555 1_555
C44 C43 1_555 1_555
H38 C44 1_555 1_555
C45 C44 1_555 1_555
H39 C45 1_555 1_555
C46 C45 1_555 1_555
N5 C46 1_555 1_555
C47 N5 1_555 1_555
C48 C47 1_555 1_555
H40 C48 1_555 1_555
C49 C48 1_555 1_555
H41 C49 1_555 1_555
C50 C49 1_555 1_555
C51 C50 1_555 1_555
H42 C51 1_555 1_555
C52 C47 1_555 1_555
S2 C52 1_555 1_555
C53 C46 1_555 1_555
C54 C43 1_555 1_555
H43 C54 1_555 1_555
C55 C50 1_555 1_555
C56 C55 1_555 1_555
C57 C56 1_555 1_555
C58 C57 1_555 1_555
H44 C58 1_555 1_555
C59 C58 1_555 1_555
H45 C59 1_555 1_555
C60 C59 1_555 1_555
C61 C60 1_555 1_555
H46 C61 1_555 1_555
H47 C61 1_555 1_555
H48 C61 1_555 1_555
N6 Pd2 1_555 1_555
C62 C57 1_555 1_555
H49 C62 1_555 1_555
C63 N5 1_555 1_555
H50 C63 1_555 1_555
H51 C63 1_555 1_555
C64 C63 1_555 1_555
H52 C64 1_555 1_555
H53 C64 1_555 1_555
C65 C64 1_555 1_555
H54 C65 1_555 1_555
H55 C65 1_555 1_555
C66 C65 1_555 1_555
H56 C66 1_555 1_555
H57 C66 1_555 1_555
C67 C66 1_555 1_555
H58 C67 1_555 1_555
H59 C67 1_555 1_555
C68 C67 1_555 1_555
H60 C68 1_555 1_555
H61 C68 1_555 1_555
H62 C68 1_555 1_555
N7 Pd1 1_555 1_555
C69 N7 1_555 1_555
C70 C69 1_555 1_555
H63 C70 1_555 1_555
C71 C70 1_555 1_555
H64 C71 1_555 1_555
C72 C71 1_555 1_555
C73 N7 1_555 1_555
H65 C73 1_555 1_555
C74 C69 1_555 1_555
H66 C74 1_555 1_555
H67 C74 1_555 1_555
H68 C74 1_555 1_555
C75 C72 1_555 1_555
C76 C75 1_555 1_555
C77 C76 1_555 1_555
C78 C77 1_555 1_555
H69 C78 1_555 1_555
C79 C78 1_555 1_555
H70 C79 1_555 1_555
C80 C79 1_555 1_555
N8 C80 1_555 1_555
C81 N8 1_555 1_555
C82 C81 1_555 1_555
H71 C82 1_555 1_555
C83 C82 1_555 1_555
H72 C83 1_555 1_555
C84 C83 1_555 1_555
C85 C84 1_555 1_555
H73 C85 1_555 1_555
C86 C81 1_555 1_555
S3 C86 1_555 1_555
C87 C80 1_555 1_555
C88 C77 1_555 1_555
H74 C88 1_555 1_555
C89 C84 1_555 1_555
C90 C89 1_555 1_555
C91 C90 1_555 1_555
C92 C91 1_555 1_555
H75 C92 1_555 1_555
C93 C92 1_555 1_555
H76 C93 1_555 1_555
C94 C93 1_555 1_555
C95 C94 1_555 1_555
H77 C95 1_555 1_555
H78 C95 1_555 1_555
H79 C95 1_555 1_555
N9 Pd2 1_555 1_555
C96 C91 1_555 1_555
H80 C96 1_555 1_555
C97 N8 1_555 1_555
H81 C97 1_555 1_555
H82 C97 1_555 1_555
C98 C97 1_555 1_555
H83 C98 1_555 1_555
H84 C98 1_555 1_555
C99 C98 1_555 1_555
H85 C99 1_555 1_555
H86 C99 1_555 1_555
C100 C99 1_555 1_555
H87 C100 1_555 1_555
H88 C100 1_555 1_555
C101 C100 1_555 1_555
H89 C101 1_555 1_555
H90 C101 1_555 1_555
C102 C101 1_555 1_555
H91 C102 1_555 1_555
H92 C102 1_555 1_555
H93 C102 1_555 1_555
N10 Pd1 1_555 1_555
C103 N10 1_555 1_555
C104 C103 1_555 1_555
H94 C104 1_555 1_555
C105 C104 1_555 1_555
H95 C105 1_555 1_555
C106 C105 1_555 1_555
C107 N10 1_555 1_555
H96 C107 1_555 1_555
C108 C103 1_555 1_555
H97 C108 1_555 1_555
H98 C108 1_555 1_555
H99 C108 1_555 1_555
C109 C106 1_555 1_555
C110 C109 1_555 1_555
C111 C110 1_555 1_555
C112 C111 1_555 1_555
H100 C112 1_555 1_555
C113 C112 1_555 1_555
H101 C113 1_555 1_555
C114 C113 1_555 1_555
N11 C114 1_555 1_555
C115 N11 1_555 1_555
C116 C115 1_555 1_555
H102 C116 1_555 1_555
C117 C116 1_555 1_555
H103 C117 1_555 1_555
C118 C117 1_555 1_555
C119 C118 1_555 1_555
H104 C119 1_555 1_555
C120 C115 1_555 1_555
S4 C120 1_555 1_555
C121 C114 1_555 1_555
C122 C111 1_555 1_555
H105 C122 1_555 1_555
C123 C118 1_555 1_555
C124 C123 1_555 1_555
C125 C124 1_555 1_555
C126 C125 1_555 1_555
H106 C126 1_555 1_555
C127 C126 1_555 1_555
H107 C127 1_555 1_555
C128 C127 1_555 1_555
C129 C128 1_555 1_555
H108 C129 1_555 1_555
H109 C129 1_555 1_555
H110 C129 1_555 1_555
N12 Pd2 1_555 1_555
C130 C125 1_555 1_555
H111 C130 1_555 1_555
C131 N11 1_555 1_555
H112 C131 1_555 1_555
H113 C131 1_555 1_555
C132 C131 1_555 1_555
H114 C132 1_555 1_555
H115 C132 1_555 1_555
C133 C132 1_555 1_555
H116 C133 1_555 1_555
H117 C133 1_555 1_555
C134 C133 1_555 1_555
H118 C134 1_555 1_555
H119 C134 1_555 1_555
C135 C134 1_555 1_555
H120 C135 1_555 1_555
H121 C135 1_555 1_555
C136 C135 1_555 1_555
H122 C136 1_555 1_555
H123 C136 1_555 1_555
H124 C136 1_555 1_555
Pd3 N15 1_555 1_555
Pd4 N13 1_555 1_555
N13 C137 1_555 1_555
C137 C138 1_555 1_555
C138 H125 1_555 1_555
C139 C138 1_555 1_555
H126 C139 1_555 1_555
C140 C139 1_555 1_555
C141 N13 1_555 1_555
H127 C141 1_555 1_555
C142 C137 1_555 1_555
H128 C142 1_555 1_555
H129 C142 1_555 1_555
H130 C142 1_555 1_555
C143 C140 1_555 1_555
C144 C143 1_555 1_555
C145 C144 1_555 1_555
C146 C145 1_555 1_555
H131 C146 1_555 1_555
C147 C146 1_555 1_555
H132 C147 1_555 1_555
C148 C147 1_555 1_555
N14 C148 1_555 1_555
C149 N14 1_555 1_555
C150 C149 1_555 1_555
H133 C150 1_555 1_555
C151 C150 1_555 1_555
H134 C151 1_555 1_555
C152 C151 1_555 1_555
C153 C152 1_555 1_555
H135 C153 1_555 1_555
C154 C149 1_555 1_555
S5 C154 1_555 1_555
C155 C148 1_555 1_555
C156 C145 1_555 1_555
H136 C156 1_555 1_555
C157 C152 1_555 1_555
C158 C157 1_555 1_555
C159 C158 1_555 1_555
C160 C159 1_555 1_555
H137 C160 1_555 1_555
C161 C160 1_555 1_555
H138 C161 1_555 1_555
C162 C161 1_555 1_555
C163 C162 1_555 1_555
H139 C163 1_555 1_555
H140 C163 1_555 1_555
H141 C163 1_555 1_555
N15 C162 1_555 1_555
C164 C159 1_555 1_555
H142 C164 1_555 1_555
C165 N14 1_555 1_555
H143 C165 1_555 1_555
H144 C165 1_555 1_555
C166 C165 1_555 1_555
H145 C166 1_555 1_555
H146 C166 1_555 1_555
C167 C166 1_555 1_555
H147 C167 1_555 1_555
H148 C167 1_555 1_555
C168 C167 1_555 1_555
H149 C168 1_555 1_555
H150 C168 1_555 1_555
C169 C168 1_555 1_555
H151 C169 1_555 1_555
H152 C169 1_555 1_555
C170 C169 1_555 1_555
H153 C170 1_555 1_555
H154 C170 1_555 1_555
H155 C170 1_555 1_555
N16 Pd4 1_555 1_555
C171 N16 1_555 1_555
C172 C171 1_555 1_555
H156 C172 1_555 1_555
C173 C172 1_555 1_555
H157 C173 1_555 1_555
C174 C173 1_555 1_555
C175 N16 1_555 1_555
H158 C175 1_555 1_555
C176 C171 1_555 1_555
H159 C176 1_555 1_555
H160 C176 1_555 1_555
H161 C176 1_555 1_555
C177 C174 1_555 1_555
C178 C177 1_555 1_555
C179 C178 1_555 1_555
C180 C179 1_555 1_555
H162 C180 1_555 1_555
C181 C180 1_555 1_555
H163 C181 1_555 1_555
C182 C181 1_555 1_555
N17 C182 1_555 1_555
C183 N17 1_555 1_555
C184 C183 1_555 1_555
H164 C184 1_555 1_555
C185 C184 1_555 1_555
H165 C185 1_555 1_555
C186 C185 1_555 1_555
C187 C186 1_555 1_555
H166 C187 1_555 1_555
C188 C183 1_555 1_555
S6 C188 1_555 1_555
C189 C182 1_555 1_555
C190 C179 1_555 1_555
H167 C190 1_555 1_555
C191 C186 1_555 1_555
C192 C191 1_555 1_555
C193 C192 1_555 1_555
C194 C193 1_555 1_555
H168 C194 1_555 1_555
C195 C194 1_555 1_555
H169 C195 1_555 1_555
C196 C195 1_555 1_555
C197 C196 1_555 1_555
H170 C197 1_555 1_555
H171 C197 1_555 1_555
H172 C197 1_555 1_555
N18 Pd3 1_555 1_555
C198 C193 1_555 1_555
H173 C198 1_555 1_555
C199 N17 1_555 1_555
H174 C199 1_555 1_555
H175 C199 1_555 1_555
C200 C199 1_555 1_555
H176 C200 1_555 1_555
H177 C200 1_555 1_555
C201 C200 1_555 1_555
H178 C201 1_555 1_555
H179 C201 1_555 1_555
C202 C201 1_555 1_555
H180 C202 1_555 1_555
H181 C202 1_555 1_555
C203 C202 1_555 1_555
H182 C203 1_555 1_555
H183 C203 1_555 1_555
C204 C203 1_555 1_555
H184 C204 1_555 1_555
H185 C204 1_555 1_555
H186 C204 1_555 1_555
N19 Pd4 1_555 1_555
C205 N19 1_555 1_555
C206 C205 1_555 1_555
H187 C206 1_555 1_555
C207 C206 1_555 1_555
H188 C207 1_555 1_555
C208 C207 1_555 1_555
C209 N19 1_555 1_555
H189 C209 1_555 1_555
C210 C205 1_555 1_555
H190 C210 1_555 1_555
H191 C210 1_555 1_555
H192 C210 1_555 1_555
C211 C208 1_555 1_555
C212 C211 1_555 1_555
C213 C212 1_555 1_555
C214 C213 1_555 1_555
H193 C214 1_555 1_555
C215 C214 1_555 1_555
H194 C215 1_555 1_555
C216 C215 1_555 1_555
N20 C216 1_555 1_555
C217 N20 1_555 1_555
C218 C217 1_555 1_555
H195 C218 1_555 1_555
C219 C218 1_555 1_555
H196 C219 1_555 1_555
C220 C219 1_555 1_555
C221 C220 1_555 1_555
H197 C221 1_555 1_555
C222 C217 1_555 1_555
S7 C222 1_555 1_555
C223 C216 1_555 1_555
C224 C213 1_555 1_555
H198 C224 1_555 1_555
C225 C220 1_555 1_555
C226 C225 1_555 1_555
C227 C226 1_555 1_555
C228 C227 1_555 1_555
H199 C228 1_555 1_555
C229 C228 1_555 1_555
H200 C229 1_555 1_555
C230 C229 1_555 1_555
C231 C230 1_555 1_555
H201 C231 1_555 1_555
H202 C231 1_555 1_555
H203 C231 1_555 1_555
N21 Pd3 1_555 1_555
C232 C227 1_555 1_555
H204 C232 1_555 1_555
C233 N20 1_555 1_555
H205 C233 1_555 1_555
H206 C233 1_555 1_555
C234 C233 1_555 1_555
H207 C234 1_555 1_555
H208 C234 1_555 1_555
C235 C234 1_555 1_555
H209 C235 1_555 1_555
H210 C235 1_555 1_555
C236 C235 1_555 1_555
H211 C236 1_555 1_555
H212 C236 1_555 1_555
C237 C236 1_555 1_555
H213 C237 1_555 1_555
H214 C237 1_555 1_555
C238 C237 1_555 1_555
H215 C238 1_555 1_555
H216 C238 1_555 1_555
H217 C238 1_555 1_555
N22 Pd4 1_555 1_555
C239 N22 1_555 1_555
C240 C239 1_555 1_555
H218 C240 1_555 1_555
C241 C240 1_555 1_555
H219 C241 1_555 1_555
C242 C241 1_555 1_555
C243 N22 1_555 1_555
H220 C243 1_555 1_555
C244 C239 1_555 1_555
H221 C244 1_555 1_555
H222 C244 1_555 1_555
H223 C244 1_555 1_555
C245 C242 1_555 1_555
C246 C245 1_555 1_555
C247 C246 1_555 1_555
C248 C247 1_555 1_555
H224 C248 1_555 1_555
C249 C248 1_555 1_555
H225 C249 1_555 1_555
C250 C249 1_555 1_555
N23 C250 1_555 1_555
C251 N23 1_555 1_555
C252 C251 1_555 1_555
H226 C252 1_555 1_555
C253 C252 1_555 1_555
H227 C253 1_555 1_555
C254 C253 1_555 1_555
C255 C254 1_555 1_555
H228 C255 1_555 1_555
C256 C251 1_555 1_555
S8 C256 1_555 1_555
C257 C250 1_555 1_555
C258 C247 1_555 1_555
H229 C258 1_555 1_555
C259 C254 1_555 1_555
C260 C259 1_555 1_555
C261 C260 1_555 1_555
C262 C261 1_555 1_555
H230 C262 1_555 1_555
C263 C262 1_555 1_555
H231 C263 1_555 1_555
C264 C263 1_555 1_555
C265 C264 1_555 1_555
H232 C265 1_555 1_555
H233 C265 1_555 1_555
H234 C265 1_555 1_555
N24 Pd3 1_555 1_555
C266 C261 1_555 1_555
H235 C266 1_555 1_555
C267 N23 1_555 1_555
H236 C267 1_555 1_555
H237 C267 1_555 1_555
C268 C267 1_555 1_555
H238 C268 1_555 1_555
H239 C268 1_555 1_555
C269 C268 1_555 1_555
H240 C269 1_555 1_555
H241 C269 1_555 1_555
C270 C269 1_555 1_555
H242 C270 1_555 1_555
H243 C270 1_555 1_555
C271 C270 1_555 1_555
H244 C271 1_555 1_555
H245 C271 1_555 1_555
C272 C271 1_555 1_555
H246 C272 1_555 1_555
H247 C272 1_555 1_555
H248 C272 1_555 1_555
F1 B1 1_555 1_555
B1 F2 1_555 1_555
F3 B1 1_555 1_555
F4 B1 1_555 1_555
F37 B10 1_555 1_555
B10 F38 1_555 1_555
F39 B10 1_555 1_555
F40 B10 1_555 1_555
F41 B11 1_555 1_555
B11 F42 1_555 1_555
F43 B11 1_555 1_555
F44 B11 1_555 1_555
C4 C5 1_555 1_555
C17 C18 1_555 1_555
S1 C19 1_555 1_555
C19 C20 1_555 1_555
N3 C28 1_555 1_555
C38 C39 1_555 1_555
C51 C52 1_555 1_555
S2 C53 1_555 1_555
C53 C54 1_555 1_555
C60 N6 1_555 1_555
N6 C62 1_555 1_555
C72 C73 1_555 1_555
C85 C86 1_555 1_555
S3 C87 1_555 1_555
C87 C88 1_555 1_555
C94 N9 1_555 1_555
N9 C96 1_555 1_555
C106 C107 1_555 1_555
C119 C120 1_555 1_555
S4 C121 1_555 1_555
C121 C122 1_555 1_555
C128 N12 1_555 1_555
N12 C130 1_555 1_555
C140 C141 1_555 1_555
C153 C154 1_555 1_555
S5 C155 1_555 1_555
C155 C156 1_555 1_555
N15 C164 1_555 1_555
C174 C175 1_555 1_555
C187 C188 1_555 1_555
S6 C189 1_555 1_555
C189 C190 1_555 1_555
C196 N18 1_555 1_555
N18 C198 1_555 1_555
C208 C209 1_555 1_555
C221 C222 1_555 1_555
S7 C223 1_555 1_555
C223 C224 1_555 1_555
C230 N21 1_555 1_555
N21 C232 1_555 1_555
C242 C243 1_555 1_555
C255 C256 1_555 1_555
S8 C257 1_555 1_555
C257 C258 1_555 1_555
C264 N24 1_555 1_555
N24 C266 1_555 1_555

#END
