# generated using pymatgen
data_H508Ru12C404S50N79O247
_symmetry_space_group_name_H-M   'P 1'
_cell_length_a   35.80000000
_cell_length_b   37.57600000
_cell_length_c   44.41300000
_cell_angle_alpha   90.00000000
_cell_angle_beta   90.00000000
_cell_angle_gamma   90.00000000
_symmetry_Int_Tables_number   1
_chemical_formula_structural   H508Ru12C404S50N79O247
_chemical_formula_sum   'H2032 Ru48 C1616 S200 N316 O988'
_cell_volume   59745.29139040
_cell_formula_units_Z   4
loop_
 _symmetry_equiv_pos_site_id
 _symmetry_equiv_pos_as_xyz
  1  'x, y, z'
loop_
 _atom_site_type_symbol
 _atom_site_label
 _atom_site_symmetry_multiplicity
 _atom_site_fract_x
 _atom_site_fract_y
 _atom_site_fract_z
 _atom_site_occupancy
  H  H1  1  0.189300  0.119500  0.100800  1
  H  H2  1  0.189300  0.880500  0.899200  1
  H  H3  1  0.689300  0.119500  0.899200  1
  H  H4  1  0.689300  0.880500  0.100800  1
  H  H5  1  0.189300  0.619500  0.600800  1
  H  H6  1  0.189300  0.380500  0.399200  1
  H  H7  1  0.689300  0.619500  0.399200  1
  H  H8  1  0.689300  0.380500  0.600800  1
  H  H9  1  0.241800  0.085300  0.094700  1
  H  H10  1  0.241800  0.914700  0.905300  1
  H  H11  1  0.741800  0.085300  0.905300  1
  H  H12  1  0.741800  0.914700  0.094700  1
  H  H13  1  0.241800  0.585300  0.594700  1
  H  H14  1  0.241800  0.414700  0.405300  1
  H  H15  1  0.741800  0.585300  0.405300  1
  H  H16  1  0.741800  0.414700  0.594700  1
  H  H17  1  0.176200  0.003200  0.071100  1
  H  H18  1  0.176200  0.996800  0.928900  1
  H  H19  1  0.676200  0.003200  0.928900  1
  H  H20  1  0.676200  0.996800  0.071100  1
  H  H21  1  0.176200  0.503200  0.571100  1
  H  H22  1  0.176200  0.496800  0.428900  1
  H  H23  1  0.676200  0.503200  0.428900  1
  H  H24  1  0.676200  0.496800  0.571100  1
  H  H25  1  0.124700  0.041300  0.076600  1
  H  H26  1  0.124700  0.958700  0.923400  1
  H  H27  1  0.624700  0.041300  0.923400  1
  H  H28  1  0.624700  0.958700  0.076600  1
  H  H29  1  0.124700  0.541300  0.576600  1
  H  H30  1  0.124700  0.458700  0.423400  1
  H  H31  1  0.624700  0.541300  0.423400  1
  H  H32  1  0.624700  0.458700  0.576600  1
  H  H33  1  0.435100  0.005200  0.077300  1
  H  H34  1  0.435100  0.994800  0.922700  1
  H  H35  1  0.935100  0.005200  0.922700  1
  H  H36  1  0.935100  0.994800  0.077300  1
  H  H37  1  0.435100  0.505200  0.577300  1
  H  H38  1  0.435100  0.494800  0.422700  1
  H  H39  1  0.935100  0.505200  0.422700  1
  H  H40  1  0.935100  0.494800  0.577300  1
  H  H41  1  0.377500  0.979800  0.073800  1
  H  H42  1  0.377500  0.020200  0.926200  1
  H  H43  1  0.877500  0.979800  0.926200  1
  H  H44  1  0.877500  0.020200  0.073800  1
  H  H45  1  0.377500  0.479800  0.573800  1
  H  H46  1  0.377500  0.520200  0.426200  1
  H  H47  1  0.877500  0.479800  0.426200  1
  H  H48  1  0.877500  0.520200  0.573800  1
  H  H49  1  0.332700  0.076700  0.082400  1
  H  H50  1  0.332700  0.923300  0.917600  1
  H  H51  1  0.832700  0.076700  0.917600  1
  H  H52  1  0.832700  0.923300  0.082400  1
  H  H53  1  0.332700  0.576700  0.582400  1
  H  H54  1  0.332700  0.423300  0.417600  1
  H  H55  1  0.832700  0.576700  0.417600  1
  H  H56  1  0.832700  0.423300  0.582400  1
  H  H57  1  0.392000  0.099800  0.085400  1
  H  H58  1  0.392000  0.900200  0.914600  1
  H  H59  1  0.892000  0.099800  0.914600  1
  H  H60  1  0.892000  0.900200  0.085400  1
  H  H61  1  0.392000  0.599800  0.585400  1
  H  H62  1  0.392000  0.400200  0.414600  1
  H  H63  1  0.892000  0.599800  0.414600  1
  H  H64  1  0.892000  0.400200  0.585400  1
  H  H65  1  0.201800  0.864100  0.067200  1
  H  H66  1  0.201800  0.135900  0.932800  1
  H  H67  1  0.701800  0.864100  0.932800  1
  H  H68  1  0.701800  0.135900  0.067200  1
  H  H69  1  0.201800  0.364100  0.567200  1
  H  H70  1  0.201800  0.635900  0.432800  1
  H  H71  1  0.701800  0.364100  0.432800  1
  H  H72  1  0.701800  0.635900  0.567200  1
  H  H73  1  0.209700  0.923900  0.069000  1
  H  H74  1  0.209700  0.076100  0.931000  1
  H  H75  1  0.709700  0.923900  0.931000  1
  H  H76  1  0.709700  0.076100  0.069000  1
  H  H77  1  0.209700  0.423900  0.569000  1
  H  H78  1  0.209700  0.576100  0.431000  1
  H  H79  1  0.709700  0.423900  0.431000  1
  H  H80  1  0.709700  0.576100  0.569000  1
  H  H81  1  0.320700  0.909900  0.061900  1
  H  H82  1  0.320700  0.090100  0.938100  1
  H  H83  1  0.820700  0.909900  0.938100  1
  H  H84  1  0.820700  0.090100  0.061900  1
  H  H85  1  0.320700  0.409900  0.561900  1
  H  H86  1  0.320700  0.590100  0.438100  1
  H  H87  1  0.820700  0.409900  0.438100  1
  H  H88  1  0.820700  0.590100  0.561900  1
  H  H89  1  0.309800  0.849800  0.059900  1
  H  H90  1  0.309800  0.150200  0.940100  1
  H  H91  1  0.809800  0.849800  0.940100  1
  H  H92  1  0.809800  0.150200  0.059900  1
  H  H93  1  0.309800  0.349800  0.559900  1
  H  H94  1  0.309800  0.650200  0.440100  1
  H  H95  1  0.809800  0.349800  0.440100  1
  H  H96  1  0.809800  0.650200  0.559900  1
  H  H97  1  0.086700  0.060300  0.146900  1
  H  H98  1  0.086700  0.939700  0.853100  1
  H  H99  1  0.586700  0.060300  0.853100  1
  H  H100  1  0.586700  0.939700  0.146900  1
  H  H101  1  0.086700  0.560300  0.646900  1
  H  H102  1  0.086700  0.439700  0.353100  1
  H  H103  1  0.586700  0.560300  0.353100  1
  H  H104  1  0.586700  0.439700  0.646900  1
  H  H105  1  0.104400  0.040800  0.194000  1
  H  H106  1  0.104400  0.959200  0.806000  1
  H  H107  1  0.604400  0.040800  0.806000  1
  H  H108  1  0.604400  0.959200  0.194000  1
  H  H109  1  0.104400  0.540800  0.694000  1
  H  H110  1  0.104400  0.459200  0.306000  1
  H  H111  1  0.604400  0.540800  0.306000  1
  H  H112  1  0.604400  0.459200  0.694000  1
  H  H113  1  0.172100  0.125100  0.199500  1
  H  H114  1  0.172100  0.874900  0.800500  1
  H  H115  1  0.672100  0.125100  0.800500  1
  H  H116  1  0.672100  0.874900  0.199500  1
  H  H117  1  0.172100  0.625100  0.699500  1
  H  H118  1  0.172100  0.374900  0.300500  1
  H  H119  1  0.672100  0.625100  0.300500  1
  H  H120  1  0.672100  0.374900  0.699500  1
  H  H121  1  0.152000  0.142500  0.152400  1
  H  H122  1  0.152000  0.857500  0.847600  1
  H  H123  1  0.652000  0.142500  0.847600  1
  H  H124  1  0.652000  0.857500  0.152400  1
  H  H125  1  0.152000  0.642500  0.652400  1
  H  H126  1  0.152000  0.357500  0.347600  1
  H  H127  1  0.652000  0.642500  0.347600  1
  H  H128  1  0.652000  0.357500  0.652400  1
  H  H129  1  0.127600  0.948000  0.342300  1
  H  H130  1  0.127600  0.052000  0.657700  1
  H  H131  1  0.627600  0.948000  0.657700  1
  H  H132  1  0.627600  0.052000  0.342300  1
  H  H133  1  0.127600  0.448000  0.842300  1
  H  H134  1  0.127600  0.552000  0.157700  1
  H  H135  1  0.627600  0.448000  0.157700  1
  H  H136  1  0.627600  0.552000  0.842300  1
  H  H137  1  0.153800  0.998900  0.325300  1
  H  H138  1  0.153800  0.001100  0.674700  1
  H  H139  1  0.653800  0.998900  0.674700  1
  H  H140  1  0.653800  0.001100  0.325300  1
  H  H141  1  0.153800  0.498900  0.825300  1
  H  H142  1  0.153800  0.501100  0.174700  1
  H  H143  1  0.653800  0.498900  0.174700  1
  H  H144  1  0.653800  0.501100  0.825300  1
  H  H145  1  0.102600  0.981500  0.246500  1
  H  H146  1  0.102600  0.018500  0.753500  1
  H  H147  1  0.602600  0.981500  0.753500  1
  H  H148  1  0.602600  0.018500  0.246500  1
  H  H149  1  0.102600  0.481500  0.746500  1
  H  H150  1  0.102600  0.518500  0.253500  1
  H  H151  1  0.602600  0.481500  0.253500  1
  H  H152  1  0.602600  0.518500  0.746500  1
  H  H153  1  0.075900  0.932100  0.266100  1
  H  H154  1  0.075900  0.067900  0.733900  1
  H  H155  1  0.575900  0.932100  0.733900  1
  H  H156  1  0.575900  0.067900  0.266100  1
  H  H157  1  0.075900  0.432100  0.766100  1
  H  H158  1  0.075900  0.567900  0.233900  1
  H  H159  1  0.575900  0.432100  0.233900  1
  H  H160  1  0.575900  0.567900  0.766100  1
  H  H161  1  0.262500  0.169200  0.289600  1
  H  H162  1  0.262500  0.830800  0.710400  1
  H  H163  1  0.762500  0.169200  0.710400  1
  H  H164  1  0.762500  0.830800  0.289600  1
  H  H165  1  0.262500  0.669200  0.789600  1
  H  H166  1  0.262500  0.330800  0.210400  1
  H  H167  1  0.762500  0.669200  0.210400  1
  H  H168  1  0.762500  0.330800  0.789600  1
  H  H169  1  0.221800  0.137000  0.261700  1
  H  H170  1  0.221800  0.863000  0.738300  1
  H  H171  1  0.721800  0.137000  0.738300  1
  H  H172  1  0.721800  0.863000  0.261700  1
  H  H173  1  0.221800  0.637000  0.761700  1
  H  H174  1  0.221800  0.363000  0.238300  1
  H  H175  1  0.721800  0.637000  0.238300  1
  H  H176  1  0.721800  0.363000  0.761700  1
  H  H177  1  0.214300  0.067800  0.329900  1
  H  H178  1  0.214300  0.932200  0.670100  1
  H  H179  1  0.714300  0.067800  0.670100  1
  H  H180  1  0.714300  0.932200  0.329900  1
  H  H181  1  0.214300  0.567800  0.829900  1
  H  H182  1  0.214300  0.432200  0.170100  1
  H  H183  1  0.714300  0.567800  0.170100  1
  H  H184  1  0.714300  0.432200  0.829900  1
  H  H185  1  0.257300  0.102100  0.355300  1
  H  H186  1  0.257300  0.897900  0.644700  1
  H  H187  1  0.757300  0.102100  0.644700  1
  H  H188  1  0.757300  0.897900  0.355300  1
  H  H189  1  0.257300  0.602100  0.855300  1
  H  H190  1  0.257300  0.397900  0.144700  1
  H  H191  1  0.757300  0.602100  0.144700  1
  H  H192  1  0.757300  0.397900  0.855300  1
  H  H193  1  0.467800  0.891300  0.259000  1
  H  H194  1  0.467800  0.108700  0.741000  1
  H  H195  1  0.967800  0.891300  0.741000  1
  H  H196  1  0.967800  0.108700  0.259000  1
  H  H197  1  0.467800  0.391300  0.759000  1
  H  H198  1  0.467800  0.608700  0.241000  1
  H  H199  1  0.967800  0.391300  0.241000  1
  H  H200  1  0.967800  0.608700  0.759000  1
  H  H201  1  0.459700  0.946300  0.239000  1
  H  H202  1  0.459700  0.053700  0.761000  1
  H  H203  1  0.959700  0.946300  0.761000  1
  H  H204  1  0.959700  0.053700  0.239000  1
  H  H205  1  0.459700  0.446300  0.739000  1
  H  H206  1  0.459700  0.553700  0.261000  1
  H  H207  1  0.959700  0.446300  0.261000  1
  H  H208  1  0.959700  0.553700  0.739000  1
  H  H209  1  0.411700  0.977400  0.316600  1
  H  H210  1  0.411700  0.022600  0.683400  1
  H  H211  1  0.911700  0.977400  0.683400  1
  H  H212  1  0.911700  0.022600  0.316600  1
  H  H213  1  0.411700  0.477400  0.816600  1
  H  H214  1  0.411700  0.522600  0.183400  1
  H  H215  1  0.911700  0.477400  0.183400  1
  H  H216  1  0.911700  0.522600  0.816600  1
  H  H217  1  0.422400  0.922100  0.335100  1
  H  H218  1  0.422400  0.077900  0.664900  1
  H  H219  1  0.922400  0.922100  0.664900  1
  H  H220  1  0.922400  0.077900  0.335100  1
  H  H221  1  0.422400  0.422100  0.835100  1
  H  H222  1  0.422400  0.577900  0.164900  1
  H  H223  1  0.922400  0.422100  0.164900  1
  H  H224  1  0.922400  0.577900  0.835100  1
  H  H225  1  0.442300  0.115000  0.143600  1
  H  H226  1  0.442300  0.885000  0.856400  1
  H  H227  1  0.942300  0.115000  0.856400  1
  H  H228  1  0.942300  0.885000  0.143600  1
  H  H229  1  0.442300  0.615000  0.643600  1
  H  H230  1  0.442300  0.385000  0.356400  1
  H  H231  1  0.942300  0.615000  0.356400  1
  H  H232  1  0.942300  0.385000  0.643600  1
  H  H233  1  0.425100  0.103400  0.191500  1
  H  H234  1  0.425100  0.896600  0.808500  1
  H  H235  1  0.925100  0.103400  0.808500  1
  H  H236  1  0.925100  0.896600  0.191500  1
  H  H237  1  0.425100  0.603400  0.691500  1
  H  H238  1  0.425100  0.396600  0.308500  1
  H  H239  1  0.925100  0.603400  0.308500  1
  H  H240  1  0.925100  0.396600  0.691500  1
  H  H241  1  0.465700  0.004500  0.183400  1
  H  H242  1  0.465700  0.995500  0.816600  1
  H  H243  1  0.965700  0.004500  0.816600  1
  H  H244  1  0.965700  0.995500  0.183400  1
  H  H245  1  0.465700  0.504500  0.683400  1
  H  H246  1  0.465700  0.495500  0.316600  1
  H  H247  1  0.965700  0.504500  0.316600  1
  H  H248  1  0.965700  0.495500  0.683400  1
  H  H249  1  0.482200  0.018300  0.134900  1
  H  H250  1  0.482200  0.981700  0.865100  1
  H  H251  1  0.982200  0.018300  0.865100  1
  H  H252  1  0.982200  0.981700  0.134900  1
  H  H253  1  0.482200  0.518300  0.634900  1
  H  H254  1  0.482200  0.481700  0.365100  1
  H  H255  1  0.982200  0.518300  0.365100  1
  H  H256  1  0.982200  0.481700  0.634900  1
  H  H257  1  0.341700  0.094300  0.349900  1
  H  H258  1  0.341700  0.905700  0.650100  1
  H  H259  1  0.841700  0.094300  0.650100  1
  H  H260  1  0.841700  0.905700  0.349900  1
  H  H261  1  0.341700  0.594300  0.849900  1
  H  H262  1  0.341700  0.405700  0.150100  1
  H  H263  1  0.841700  0.594300  0.150100  1
  H  H264  1  0.841700  0.405700  0.849900  1
  H  H265  1  0.378300  0.055500  0.324400  1
  H  H266  1  0.378300  0.944500  0.675600  1
  H  H267  1  0.878300  0.055500  0.675600  1
  H  H268  1  0.878300  0.944500  0.324400  1
  H  H269  1  0.378300  0.555500  0.824400  1
  H  H270  1  0.378300  0.444500  0.175600  1
  H  H271  1  0.878300  0.555500  0.175600  1
  H  H272  1  0.878300  0.444500  0.824400  1
  H  H273  1  0.386300  0.128700  0.258500  1
  H  H274  1  0.386300  0.871300  0.741500  1
  H  H275  1  0.886300  0.128700  0.741500  1
  H  H276  1  0.886300  0.871300  0.258500  1
  H  H277  1  0.386300  0.628700  0.758500  1
  H  H278  1  0.386300  0.371300  0.241500  1
  H  H279  1  0.886300  0.628700  0.241500  1
  H  H280  1  0.886300  0.371300  0.758500  1
  H  H281  1  0.351100  0.165100  0.287900  1
  H  H282  1  0.351100  0.834900  0.712100  1
  H  H283  1  0.851100  0.165100  0.712100  1
  H  H284  1  0.851100  0.834900  0.287900  1
  H  H285  1  0.351100  0.665100  0.787900  1
  H  H286  1  0.351100  0.334900  0.212100  1
  H  H287  1  0.851100  0.665100  0.212100  1
  H  H288  1  0.851100  0.334900  0.787900  1
  H  H289  1  0.363200  0.843600  0.330400  1
  H  H290  1  0.363200  0.156400  0.669600  1
  H  H291  1  0.863200  0.843600  0.669600  1
  H  H292  1  0.863200  0.156400  0.330400  1
  H  H293  1  0.363200  0.343600  0.830400  1
  H  H294  1  0.363200  0.656400  0.169600  1
  H  H295  1  0.863200  0.343600  0.169600  1
  H  H296  1  0.863200  0.656400  0.830400  1
  H  H297  1  0.307300  0.842100  0.306600  1
  H  H298  1  0.307300  0.157900  0.693400  1
  H  H299  1  0.807300  0.842100  0.693400  1
  H  H300  1  0.807300  0.157900  0.306600  1
  H  H301  1  0.307300  0.342100  0.806600  1
  H  H302  1  0.307300  0.657900  0.193400  1
  H  H303  1  0.807300  0.342100  0.193400  1
  H  H304  1  0.807300  0.657900  0.806600  1
  H  H305  1  0.360000  0.833500  0.228600  1
  H  H306  1  0.360000  0.166500  0.771400  1
  H  H307  1  0.860000  0.833500  0.771400  1
  H  H308  1  0.860000  0.166500  0.228600  1
  H  H309  1  0.360000  0.333500  0.728600  1
  H  H310  1  0.360000  0.666500  0.271400  1
  H  H311  1  0.860000  0.333500  0.271400  1
  H  H312  1  0.860000  0.666500  0.728600  1
  H  H313  1  0.416700  0.838700  0.253600  1
  H  H314  1  0.416700  0.161300  0.746400  1
  H  H315  1  0.916700  0.838700  0.746400  1
  H  H316  1  0.916700  0.161300  0.253600  1
  H  H317  1  0.416700  0.338700  0.753600  1
  H  H318  1  0.416700  0.661300  0.246400  1
  H  H319  1  0.916700  0.338700  0.246400  1
  H  H320  1  0.916700  0.661300  0.753600  1
  H  H321  1  0.104100  0.850100  0.261800  1
  H  H322  1  0.104100  0.149900  0.738200  1
  H  H323  1  0.604100  0.850100  0.738200  1
  H  H324  1  0.604100  0.149900  0.261800  1
  H  H325  1  0.104100  0.350100  0.761800  1
  H  H326  1  0.104100  0.649900  0.238200  1
  H  H327  1  0.604100  0.350100  0.238200  1
  H  H328  1  0.604100  0.649900  0.761800  1
  H  H329  1  0.156700  0.836000  0.235100  1
  H  H330  1  0.156700  0.164000  0.764900  1
  H  H331  1  0.656700  0.836000  0.764900  1
  H  H332  1  0.656700  0.164000  0.235100  1
  H  H333  1  0.156700  0.336000  0.735100  1
  H  H334  1  0.156700  0.664000  0.264900  1
  H  H335  1  0.656700  0.336000  0.264900  1
  H  H336  1  0.656700  0.664000  0.735100  1
  H  H337  1  0.216300  0.863000  0.308000  1
  H  H338  1  0.216300  0.137000  0.692000  1
  H  H339  1  0.716300  0.863000  0.692000  1
  H  H340  1  0.716300  0.137000  0.308000  1
  H  H341  1  0.216300  0.363000  0.808000  1
  H  H342  1  0.216300  0.637000  0.192000  1
  H  H343  1  0.716300  0.363000  0.192000  1
  H  H344  1  0.716300  0.637000  0.808000  1
  H  H345  1  0.161800  0.874800  0.332000  1
  H  H346  1  0.161800  0.125200  0.668000  1
  H  H347  1  0.661800  0.874800  0.668000  1
  H  H348  1  0.661800  0.125200  0.332000  1
  H  H349  1  0.161800  0.374800  0.832000  1
  H  H350  1  0.161800  0.625200  0.168000  1
  H  H351  1  0.661800  0.374800  0.168000  1
  H  H352  1  0.661800  0.625200  0.832000  1
  H  H353  1  0.303200  0.802300  0.116300  1
  H  H354  1  0.303200  0.197700  0.883700  1
  H  H355  1  0.803200  0.802300  0.883700  1
  H  H356  1  0.803200  0.197700  0.116300  1
  H  H357  1  0.303200  0.302300  0.616300  1
  H  H358  1  0.303200  0.697700  0.383700  1
  H  H359  1  0.803200  0.302300  0.383700  1
  H  H360  1  0.803200  0.697700  0.616300  1
  H  H361  1  0.309000  0.814000  0.166700  1
  H  H362  1  0.309000  0.186000  0.833300  1
  H  H363  1  0.809000  0.814000  0.833300  1
  H  H364  1  0.809000  0.186000  0.166700  1
  H  H365  1  0.309000  0.314000  0.666700  1
  H  H366  1  0.309000  0.686000  0.333300  1
  H  H367  1  0.809000  0.314000  0.333300  1
  H  H368  1  0.809000  0.686000  0.666700  1
  H  H369  1  0.197900  0.818900  0.171000  1
  H  H370  1  0.197900  0.181100  0.829000  1
  H  H371  1  0.697900  0.818900  0.829000  1
  H  H372  1  0.697900  0.181100  0.171000  1
  H  H373  1  0.197900  0.318900  0.671000  1
  H  H374  1  0.197900  0.681100  0.329000  1
  H  H375  1  0.697900  0.318900  0.329000  1
  H  H376  1  0.697900  0.681100  0.671000  1
  H  H377  1  0.194500  0.806500  0.120900  1
  H  H378  1  0.194500  0.193500  0.879100  1
  H  H379  1  0.694500  0.806500  0.879100  1
  H  H380  1  0.694500  0.193500  0.120900  1
  H  H381  1  0.194500  0.306500  0.620900  1
  H  H382  1  0.194500  0.693500  0.379100  1
  H  H383  1  0.694500  0.306500  0.379100  1
  H  H384  1  0.694500  0.693500  0.620900  1
  H  H385  1  0.999500  0.097100  0.095600  1
  H  H386  1  0.999500  0.902900  0.904400  1
  H  H387  1  0.499500  0.097100  0.904400  1
  H  H388  1  0.499500  0.902900  0.095600  1
  H  H389  1  0.999500  0.597100  0.595600  1
  H  H390  1  0.999500  0.402900  0.404400  1
  H  H391  1  0.499500  0.597100  0.404400  1
  H  H392  1  0.499500  0.402900  0.595600  1
  H  H393  1  0.004800  0.071300  0.123000  1
  H  H394  1  0.004800  0.928700  0.877000  1
  H  H395  1  0.504800  0.071300  0.877000  1
  H  H396  1  0.504800  0.928700  0.123000  1
  H  H397  1  0.004800  0.571300  0.623000  1
  H  H398  1  0.004800  0.428700  0.377000  1
  H  H399  1  0.504800  0.571300  0.377000  1
  H  H400  1  0.504800  0.428700  0.623000  1
  H  H401  1  0.039300  0.114000  0.149400  1
  H  H402  1  0.039300  0.886000  0.850600  1
  H  H403  1  0.539300  0.114000  0.850600  1
  H  H404  1  0.539300  0.886000  0.149400  1
  H  H405  1  0.039300  0.614000  0.649400  1
  H  H406  1  0.039300  0.386000  0.350600  1
  H  H407  1  0.539300  0.614000  0.350600  1
  H  H408  1  0.539300  0.386000  0.649400  1
  H  H409  1  0.003100  0.133500  0.137900  1
  H  H410  1  0.003100  0.866500  0.862100  1
  H  H411  1  0.503100  0.133500  0.862100  1
  H  H412  1  0.503100  0.866500  0.137900  1
  H  H413  1  0.003100  0.633500  0.637900  1
  H  H414  1  0.003100  0.366500  0.362100  1
  H  H415  1  0.503100  0.633500  0.362100  1
  H  H416  1  0.503100  0.366500  0.637900  1
  H  H417  1  0.056100  0.199400  0.143100  1
  H  H418  1  0.056100  0.800600  0.856900  1
  H  H419  1  0.556100  0.199400  0.856900  1
  H  H420  1  0.556100  0.800600  0.143100  1
  H  H421  1  0.056100  0.699400  0.643100  1
  H  H422  1  0.056100  0.300600  0.356900  1
  H  H423  1  0.556100  0.699400  0.356900  1
  H  H424  1  0.556100  0.300600  0.643100  1
  H  H425  1  0.086000  0.170700  0.152700  1
  H  H426  1  0.086000  0.829300  0.847300  1
  H  H427  1  0.586000  0.170700  0.847300  1
  H  H428  1  0.586000  0.829300  0.152700  1
  H  H429  1  0.086000  0.670700  0.652700  1
  H  H430  1  0.086000  0.329300  0.347300  1
  H  H431  1  0.586000  0.670700  0.347300  1
  H  H432  1  0.586000  0.329300  0.652700  1
  H  H433  1  0.117100  0.217600  0.131400  1
  H  H434  1  0.117100  0.782400  0.868600  1
  H  H435  1  0.617100  0.217600  0.868600  1
  H  H436  1  0.617100  0.782400  0.131400  1
  H  H437  1  0.117100  0.717600  0.631400  1
  H  H438  1  0.117100  0.282400  0.368600  1
  H  H439  1  0.617100  0.717600  0.368600  1
  H  H440  1  0.617100  0.282400  0.631400  1
  H  H441  1  0.091300  0.216000  0.102900  1
  H  H442  1  0.091300  0.784000  0.897100  1
  H  H443  1  0.591300  0.216000  0.897100  1
  H  H444  1  0.591300  0.784000  0.102900  1
  H  H445  1  0.091300  0.716000  0.602900  1
  H  H446  1  0.091300  0.284000  0.397100  1
  H  H447  1  0.591300  0.716000  0.397100  1
  H  H448  1  0.591300  0.284000  0.602900  1
  H  H449  1  0.136200  0.210700  0.059300  1
  H  H450  1  0.136200  0.789300  0.940700  1
  H  H451  1  0.636200  0.210700  0.940700  1
  H  H452  1  0.636200  0.789300  0.059300  1
  H  H453  1  0.136200  0.710700  0.559300  1
  H  H454  1  0.136200  0.289300  0.440700  1
  H  H455  1  0.636200  0.710700  0.440700  1
  H  H456  1  0.636200  0.289300  0.559300  1
  H  H457  1  0.156500  0.175600  0.049600  1
  H  H458  1  0.156500  0.824400  0.950400  1
  H  H459  1  0.656500  0.175600  0.950400  1
  H  H460  1  0.656500  0.824400  0.049600  1
  H  H461  1  0.156500  0.675600  0.549600  1
  H  H462  1  0.156500  0.324400  0.450400  1
  H  H463  1  0.656500  0.675600  0.450400  1
  H  H464  1  0.656500  0.324400  0.549600  1
  H  H465  1  0.099900  0.179100  0.023500  1
  H  H466  1  0.099900  0.820900  0.976500  1
  H  H467  1  0.599900  0.179100  0.976500  1
  H  H468  1  0.599900  0.820900  0.023500  1
  H  H469  1  0.099900  0.679100  0.523500  1
  H  H470  1  0.099900  0.320900  0.476500  1
  H  H471  1  0.599900  0.679100  0.476500  1
  H  H472  1  0.599900  0.320900  0.523500  1
  H  H473  1  0.077700  0.183000  0.054000  1
  H  H474  1  0.077700  0.817000  0.946000  1
  H  H475  1  0.577700  0.183000  0.946000  1
  H  H476  1  0.577700  0.817000  0.054000  1
  H  H477  1  0.077700  0.683000  0.554000  1
  H  H478  1  0.077700  0.317000  0.446000  1
  H  H479  1  0.577700  0.683000  0.446000  1
  H  H480  1  0.577700  0.317000  0.554000  1
  H  H481  1  0.033600  0.127800  0.050200  1
  H  H482  1  0.033600  0.872200  0.949800  1
  H  H483  1  0.533600  0.127800  0.949800  1
  H  H484  1  0.533600  0.872200  0.050200  1
  H  H485  1  0.033600  0.627800  0.550200  1
  H  H486  1  0.033600  0.372200  0.449800  1
  H  H487  1  0.533600  0.627800  0.449800  1
  H  H488  1  0.533600  0.372200  0.550200  1
  H  H489  1  0.046300  0.111700  0.019100  1
  H  H490  1  0.046300  0.888300  0.980900  1
  H  H491  1  0.546300  0.111700  0.980900  1
  H  H492  1  0.546300  0.888300  0.019100  1
  H  H493  1  0.046300  0.611700  0.519100  1
  H  H494  1  0.046300  0.388300  0.480900  1
  H  H495  1  0.546300  0.611700  0.480900  1
  H  H496  1  0.546300  0.388300  0.519100  1
  H  H497  1  0.062300  0.059000  0.041400  1
  H  H498  1  0.062300  0.941000  0.958600  1
  H  H499  1  0.562300  0.059000  0.958600  1
  H  H500  1  0.562300  0.941000  0.041400  1
  H  H501  1  0.062300  0.559000  0.541400  1
  H  H502  1  0.062300  0.441000  0.458600  1
  H  H503  1  0.562300  0.559000  0.458600  1
  H  H504  1  0.562300  0.441000  0.541400  1
  H  H505  1  0.020900  0.067600  0.050300  1
  H  H506  1  0.020900  0.932400  0.949700  1
  H  H507  1  0.520900  0.067600  0.949700  1
  H  H508  1  0.520900  0.932400  0.050300  1
  H  H509  1  0.020900  0.567600  0.550300  1
  H  H510  1  0.020900  0.432400  0.449700  1
  H  H511  1  0.520900  0.567600  0.449700  1
  H  H512  1  0.520900  0.432400  0.550300  1
  H  H513  1  0.512300  0.173400  0.088000  1
  H  H514  1  0.512300  0.826600  0.912000  1
  H  H515  1  0.012300  0.173400  0.912000  1
  H  H516  1  0.012300  0.826600  0.088000  1
  H  H517  1  0.512300  0.673400  0.588000  1
  H  H518  1  0.512300  0.326600  0.412000  1
  H  H519  1  0.012300  0.673400  0.412000  1
  H  H520  1  0.012300  0.326600  0.588000  1
  H  H521  1  0.492000  0.177100  0.119100  1
  H  H522  1  0.492000  0.822900  0.880900  1
  H  H523  1  0.992000  0.177100  0.880900  1
  H  H524  1  0.992000  0.822900  0.119100  1
  H  H525  1  0.492000  0.677100  0.619100  1
  H  H526  1  0.492000  0.322900  0.380900  1
  H  H527  1  0.992000  0.677100  0.380900  1
  H  H528  1  0.992000  0.322900  0.619100  1
  H  H529  1  0.518000  0.125700  0.136800  1
  H  H530  1  0.518000  0.874300  0.863200  1
  H  H531  1  0.018000  0.125700  0.863200  1
  H  H532  1  0.018000  0.874300  0.136800  1
  H  H533  1  0.518000  0.625700  0.636800  1
  H  H534  1  0.518000  0.374300  0.363200  1
  H  H535  1  0.018000  0.625700  0.363200  1
  H  H536  1  0.018000  0.374300  0.636800  1
  H  H537  1  0.551100  0.146500  0.121600  1
  H  H538  1  0.551100  0.853500  0.878400  1
  H  H539  1  0.051100  0.146500  0.878400  1
  H  H540  1  0.051100  0.853500  0.121600  1
  H  H541  1  0.551100  0.646500  0.621600  1
  H  H542  1  0.551100  0.353500  0.378400  1
  H  H543  1  0.051100  0.646500  0.378400  1
  H  H544  1  0.051100  0.353500  0.621600  1
  H  H545  1  0.583300  0.069900  0.116100  1
  H  H546  1  0.583300  0.930100  0.883900  1
  H  H547  1  0.083300  0.069900  0.883900  1
  H  H548  1  0.083300  0.930100  0.116100  1
  H  H549  1  0.583300  0.569900  0.616100  1
  H  H550  1  0.583300  0.430100  0.383900  1
  H  H551  1  0.083300  0.569900  0.383900  1
  H  H552  1  0.083300  0.430100  0.616100  1
  H  H553  1  0.545200  0.059700  0.131700  1
  H  H554  1  0.545200  0.940300  0.868300  1
  H  H555  1  0.045200  0.059700  0.868300  1
  H  H556  1  0.045200  0.940300  0.131700  1
  H  H557  1  0.545200  0.559700  0.631700  1
  H  H558  1  0.545200  0.440300  0.368300  1
  H  H559  1  0.045200  0.559700  0.368300  1
  H  H560  1  0.045200  0.440300  0.631700  1
  H  H561  1  0.563600  0.010700  0.104000  1
  H  H562  1  0.563600  0.989300  0.896000  1
  H  H563  1  0.063600  0.010700  0.896000  1
  H  H564  1  0.063600  0.989300  0.104000  1
  H  H565  1  0.563600  0.510700  0.604000  1
  H  H566  1  0.563600  0.489300  0.396000  1
  H  H567  1  0.063600  0.510700  0.396000  1
  H  H568  1  0.063600  0.489300  0.604000  1
  H  H569  1  0.570600  0.034200  0.075400  1
  H  H570  1  0.570600  0.965800  0.924600  1
  H  H571  1  0.070600  0.034200  0.924600  1
  H  H572  1  0.070600  0.965800  0.075400  1
  H  H573  1  0.570600  0.534200  0.575400  1
  H  H574  1  0.570600  0.465800  0.424600  1
  H  H575  1  0.070600  0.534200  0.424600  1
  H  H576  1  0.070600  0.465800  0.575400  1
  H  H577  1  0.534100  0.006400  0.034100  1
  H  H578  1  0.534100  0.993600  0.965900  1
  H  H579  1  0.034100  0.006400  0.965900  1
  H  H580  1  0.034100  0.993600  0.034100  1
  H  H581  1  0.534100  0.506400  0.534100  1
  H  H582  1  0.534100  0.493600  0.465900  1
  H  H583  1  0.034100  0.506400  0.465900  1
  H  H584  1  0.034100  0.493600  0.534100  1
  H  H585  1  0.490700  0.009400  0.030100  1
  H  H586  1  0.490700  0.990600  0.969900  1
  H  H587  1  0.990700  0.009400  0.969900  1
  H  H588  1  0.990700  0.990600  0.030100  1
  H  H589  1  0.490700  0.509400  0.530100  1
  H  H590  1  0.490700  0.490600  0.469900  1
  H  H591  1  0.990700  0.509400  0.469900  1
  H  H592  1  0.990700  0.490600  0.530100  1
  H  H593  1  0.518400  0.054700  0.003100  1
  H  H594  1  0.518400  0.945300  0.996900  1
  H  H595  1  0.018400  0.054700  0.996900  1
  H  H596  1  0.018400  0.945300  0.003100  1
  H  H597  1  0.518400  0.554700  0.503100  1
  H  H598  1  0.518400  0.445300  0.496900  1
  H  H599  1  0.018400  0.554700  0.496900  1
  H  H600  1  0.018400  0.445300  0.503100  1
  H  H601  1  0.539800  0.068000  0.031900  1
  H  H602  1  0.539800  0.932000  0.968100  1
  H  H603  1  0.039800  0.068000  0.968100  1
  H  H604  1  0.039800  0.932000  0.031900  1
  H  H605  1  0.539800  0.568000  0.531900  1
  H  H606  1  0.539800  0.432000  0.468100  1
  H  H607  1  0.039800  0.568000  0.468100  1
  H  H608  1  0.039800  0.432000  0.531900  1
  H  H609  1  0.514700  0.133100  0.036500  1
  H  H610  1  0.514700  0.866900  0.963500  1
  H  H611  1  0.014700  0.133100  0.963500  1
  H  H612  1  0.014700  0.866900  0.036500  1
  H  H613  1  0.514700  0.633100  0.536500  1
  H  H614  1  0.514700  0.366900  0.463500  1
  H  H615  1  0.014700  0.633100  0.463500  1
  H  H616  1  0.014700  0.366900  0.536500  1
  H  H617  1  0.487600  0.134800  0.008600  1
  H  H618  1  0.487600  0.865200  0.991400  1
  H  H619  1  0.987600  0.134800  0.991400  1
  H  H620  1  0.987600  0.865200  0.008600  1
  H  H621  1  0.487600  0.634800  0.508600  1
  H  H622  1  0.487600  0.365200  0.491400  1
  H  H623  1  0.987600  0.634800  0.491400  1
  H  H624  1  0.987600  0.365200  0.508600  1
  H  H625  1  0.436800  0.148900  0.039200  1
  H  H626  1  0.436800  0.851100  0.960800  1
  H  H627  1  0.936800  0.148900  0.960800  1
  H  H628  1  0.936800  0.851100  0.039200  1
  H  H629  1  0.436800  0.648900  0.539200  1
  H  H630  1  0.436800  0.351100  0.460800  1
  H  H631  1  0.936800  0.648900  0.460800  1
  H  H632  1  0.936800  0.351100  0.539200  1
  H  H633  1  0.468600  0.175700  0.047500  1
  H  H634  1  0.468600  0.824300  0.952500  1
  H  H635  1  0.968600  0.175700  0.952500  1
  H  H636  1  0.968600  0.824300  0.047500  1
  H  H637  1  0.468600  0.675700  0.547500  1
  H  H638  1  0.468600  0.324300  0.452500  1
  H  H639  1  0.968600  0.675700  0.452500  1
  H  H640  1  0.968600  0.324300  0.547500  1
  H  H641  1  0.146200  0.783900  0.018900  1
  H  H642  1  0.146200  0.216100  0.981100  1
  H  H643  1  0.646200  0.783900  0.981100  1
  H  H644  1  0.646200  0.216100  0.018900  1
  H  H645  1  0.146200  0.283900  0.518900  1
  H  H646  1  0.146200  0.716100  0.481100  1
  H  H647  1  0.646200  0.283900  0.481100  1
  H  H648  1  0.646200  0.716100  0.518900  1
  H  H649  1  0.166800  0.820400  0.016100  1
  H  H650  1  0.166800  0.179600  0.983900  1
  H  H651  1  0.666800  0.820400  0.983900  1
  H  H652  1  0.666800  0.179600  0.016100  1
  H  H653  1  0.166800  0.320400  0.516100  1
  H  H654  1  0.166800  0.679600  0.483900  1
  H  H655  1  0.666800  0.320400  0.483900  1
  H  H656  1  0.666800  0.679600  0.516100  1
  H  H657  1  0.193800  0.784200  0.982100  1
  H  H658  1  0.193800  0.215800  0.017900  1
  H  H659  1  0.693800  0.784200  0.017900  1
  H  H660  1  0.693800  0.215800  0.982100  1
  H  H661  1  0.193800  0.284200  0.482100  1
  H  H662  1  0.193800  0.715800  0.517900  1
  H  H663  1  0.693800  0.284200  0.517900  1
  H  H664  1  0.693800  0.715800  0.482100  1
  H  H665  1  0.198600  0.753500  0.005900  1
  H  H666  1  0.198600  0.246500  0.994100  1
  H  H667  1  0.698600  0.753500  0.994100  1
  H  H668  1  0.698600  0.246500  0.005900  1
  H  H669  1  0.198600  0.253500  0.505900  1
  H  H670  1  0.198600  0.746500  0.494100  1
  H  H671  1  0.698600  0.253500  0.494100  1
  H  H672  1  0.698600  0.746500  0.505900  1
  H  H673  1  0.277200  0.776600  0.980500  1
  H  H674  1  0.277200  0.223400  0.019500  1
  H  H675  1  0.777200  0.776600  0.019500  1
  H  H676  1  0.777200  0.223400  0.980500  1
  H  H677  1  0.277200  0.276600  0.480500  1
  H  H678  1  0.277200  0.723400  0.519500  1
  H  H679  1  0.777200  0.276600  0.519500  1
  H  H680  1  0.777200  0.723400  0.480500  1
  H  H681  1  0.267600  0.748100  0.005100  1
  H  H682  1  0.267600  0.251900  0.994900  1
  H  H683  1  0.767600  0.748100  0.994900  1
  H  H684  1  0.767600  0.251900  0.005100  1
  H  H685  1  0.267600  0.248100  0.505100  1
  H  H686  1  0.267600  0.751900  0.494900  1
  H  H687  1  0.767600  0.248100  0.494900  1
  H  H688  1  0.767600  0.751900  0.505100  1
  H  H689  1  0.323600  0.803500  0.012500  1
  H  H690  1  0.323600  0.196500  0.987500  1
  H  H691  1  0.823600  0.803500  0.987500  1
  H  H692  1  0.823600  0.196500  0.012500  1
  H  H693  1  0.323600  0.303500  0.512500  1
  H  H694  1  0.323600  0.696500  0.487500  1
  H  H695  1  0.823600  0.303500  0.487500  1
  H  H696  1  0.823600  0.696500  0.512500  1
  H  H697  1  0.332600  0.762600  0.011600  1
  H  H698  1  0.332600  0.237400  0.988400  1
  H  H699  1  0.832600  0.762600  0.988400  1
  H  H700  1  0.832600  0.237400  0.011600  1
  H  H701  1  0.332600  0.262600  0.511600  1
  H  H702  1  0.332600  0.737400  0.488400  1
  H  H703  1  0.832600  0.262600  0.488400  1
  H  H704  1  0.832600  0.737400  0.511600  1
  H  H705  1  0.327900  0.718500  0.052000  1
  H  H706  1  0.327900  0.281500  0.948000  1
  H  H707  1  0.827900  0.718500  0.948000  1
  H  H708  1  0.827900  0.281500  0.052000  1
  H  H709  1  0.327900  0.218500  0.552000  1
  H  H710  1  0.327900  0.781500  0.448000  1
  H  H711  1  0.827900  0.218500  0.448000  1
  H  H712  1  0.827900  0.781500  0.552000  1
  H  H713  1  0.315100  0.724100  0.085300  1
  H  H714  1  0.315100  0.275900  0.914700  1
  H  H715  1  0.815100  0.724100  0.914700  1
  H  H716  1  0.815100  0.275900  0.085300  1
  H  H717  1  0.315100  0.224100  0.585300  1
  H  H718  1  0.315100  0.775900  0.414700  1
  H  H719  1  0.815100  0.224100  0.414700  1
  H  H720  1  0.815100  0.775900  0.585300  1
  H  H721  1  0.275100  0.686400  0.065400  1
  H  H722  1  0.275100  0.313600  0.934600  1
  H  H723  1  0.775100  0.686400  0.934600  1
  H  H724  1  0.775100  0.313600  0.065400  1
  H  H725  1  0.275100  0.186400  0.565400  1
  H  H726  1  0.275100  0.813600  0.434600  1
  H  H727  1  0.775100  0.186400  0.434600  1
  H  H728  1  0.775100  0.813600  0.565400  1
  H  H729  1  0.269700  0.710100  0.036500  1
  H  H730  1  0.269700  0.289900  0.963500  1
  H  H731  1  0.769700  0.710100  0.963500  1
  H  H732  1  0.769700  0.289900  0.036500  1
  H  H733  1  0.269700  0.210100  0.536500  1
  H  H734  1  0.269700  0.789900  0.463500  1
  H  H735  1  0.769700  0.210100  0.463500  1
  H  H736  1  0.769700  0.789900  0.536500  1
  H  H737  1  0.191100  0.698400  0.066100  1
  H  H738  1  0.191100  0.301600  0.933900  1
  H  H739  1  0.691100  0.698400  0.933900  1
  H  H740  1  0.691100  0.301600  0.066100  1
  H  H741  1  0.191100  0.198400  0.566100  1
  H  H742  1  0.191100  0.801600  0.433900  1
  H  H743  1  0.691100  0.198400  0.433900  1
  H  H744  1  0.691100  0.801600  0.566100  1
  H  H745  1  0.200400  0.723200  0.038400  1
  H  H746  1  0.200400  0.276800  0.961600  1
  H  H747  1  0.700400  0.723200  0.961600  1
  H  H748  1  0.700400  0.276800  0.038400  1
  H  H749  1  0.200400  0.223200  0.538400  1
  H  H750  1  0.200400  0.776800  0.461600  1
  H  H751  1  0.700400  0.223200  0.461600  1
  H  H752  1  0.700400  0.776800  0.538400  1
  H  H753  1  0.160500  0.748400  0.092600  1
  H  H754  1  0.160500  0.251600  0.907400  1
  H  H755  1  0.660500  0.748400  0.907400  1
  H  H756  1  0.660500  0.251600  0.092600  1
  H  H757  1  0.160500  0.248400  0.592600  1
  H  H758  1  0.160500  0.751600  0.407400  1
  H  H759  1  0.660500  0.248400  0.407400  1
  H  H760  1  0.660500  0.751600  0.592600  1
  H  H761  1  0.141400  0.745500  0.060900  1
  H  H762  1  0.141400  0.254500  0.939100  1
  H  H763  1  0.641400  0.745500  0.939100  1
  H  H764  1  0.641400  0.254500  0.060900  1
  H  H765  1  0.141400  0.245500  0.560900  1
  H  H766  1  0.141400  0.754500  0.439100  1
  H  H767  1  0.641400  0.245500  0.439100  1
  H  H768  1  0.641400  0.754500  0.560900  1
  H  H769  1  0.998600  0.824100  0.276000  1
  H  H770  1  0.998600  0.175900  0.724000  1
  H  H771  1  0.498600  0.824100  0.724000  1
  H  H772  1  0.498600  0.175900  0.276000  1
  H  H773  1  0.998600  0.324100  0.776000  1
  H  H774  1  0.998600  0.675900  0.224000  1
  H  H775  1  0.498600  0.324100  0.224000  1
  H  H776  1  0.498600  0.675900  0.776000  1
  H  H777  1  0.040200  0.811600  0.274300  1
  H  H778  1  0.040200  0.188400  0.725700  1
  H  H779  1  0.540200  0.811600  0.725700  1
  H  H780  1  0.540200  0.188400  0.274300  1
  H  H781  1  0.040200  0.311600  0.774300  1
  H  H782  1  0.040200  0.688400  0.225700  1
  H  H783  1  0.540200  0.311600  0.225700  1
  H  H784  1  0.540200  0.688400  0.774300  1
  H  H785  1  0.016000  0.789400  0.317300  1
  H  H786  1  0.016000  0.210600  0.682700  1
  H  H787  1  0.516000  0.789400  0.682700  1
  H  H788  1  0.516000  0.210600  0.317300  1
  H  H789  1  0.016000  0.289400  0.817300  1
  H  H790  1  0.016000  0.710600  0.182700  1
  H  H791  1  0.516000  0.289400  0.182700  1
  H  H792  1  0.516000  0.710600  0.817300  1
  H  H793  1  0.001300  0.827200  0.327100  1
  H  H794  1  0.001300  0.172800  0.672900  1
  H  H795  1  0.501300  0.827200  0.672900  1
  H  H796  1  0.501300  0.172800  0.327100  1
  H  H797  1  0.001300  0.327200  0.827100  1
  H  H798  1  0.001300  0.672800  0.172900  1
  H  H799  1  0.501300  0.327200  0.172900  1
  H  H800  1  0.501300  0.672800  0.827100  1
  H  H801  1  0.039400  0.840400  0.379900  1
  H  H802  1  0.039400  0.159600  0.620100  1
  H  H803  1  0.539400  0.840400  0.620100  1
  H  H804  1  0.539400  0.159600  0.379900  1
  H  H805  1  0.039400  0.340400  0.879900  1
  H  H806  1  0.039400  0.659600  0.120100  1
  H  H807  1  0.539400  0.340400  0.120100  1
  H  H808  1  0.539400  0.659600  0.879900  1
  H  H809  1  0.060000  0.803600  0.383100  1
  H  H810  1  0.060000  0.196400  0.616900  1
  H  H811  1  0.560000  0.803600  0.616900  1
  H  H812  1  0.560000  0.196400  0.383100  1
  H  H813  1  0.060000  0.303600  0.883100  1
  H  H814  1  0.060000  0.696400  0.116900  1
  H  H815  1  0.560000  0.303600  0.116900  1
  H  H816  1  0.560000  0.696400  0.883100  1
  H  H817  1  0.116200  0.830000  0.383300  1
  H  H818  1  0.116200  0.170000  0.616700  1
  H  H819  1  0.616200  0.830000  0.616700  1
  H  H820  1  0.616200  0.170000  0.383300  1
  H  H821  1  0.116200  0.330000  0.883300  1
  H  H822  1  0.116200  0.670000  0.116700  1
  H  H823  1  0.616200  0.330000  0.116700  1
  H  H824  1  0.616200  0.670000  0.883300  1
  H  H825  1  0.091600  0.848500  0.407800  1
  H  H826  1  0.091600  0.151500  0.592200  1
  H  H827  1  0.591600  0.848500  0.592200  1
  H  H828  1  0.591600  0.151500  0.407800  1
  H  H829  1  0.091600  0.348500  0.907800  1
  H  H830  1  0.091600  0.651500  0.092200  1
  H  H831  1  0.591600  0.348500  0.092200  1
  H  H832  1  0.591600  0.651500  0.907800  1
  H  H833  1  0.057900  0.902200  0.406400  1
  H  H834  1  0.057900  0.097800  0.593600  1
  H  H835  1  0.557900  0.902200  0.593600  1
  H  H836  1  0.557900  0.097800  0.406400  1
  H  H837  1  0.057900  0.402200  0.906400  1
  H  H838  1  0.057900  0.597800  0.093600  1
  H  H839  1  0.557900  0.402200  0.093600  1
  H  H840  1  0.557900  0.597800  0.906400  1
  H  H841  1  0.085200  0.934800  0.403200  1
  H  H842  1  0.085200  0.065200  0.596800  1
  H  H843  1  0.585200  0.934800  0.596800  1
  H  H844  1  0.585200  0.065200  0.403200  1
  H  H845  1  0.085200  0.434800  0.903200  1
  H  H846  1  0.085200  0.565200  0.096800  1
  H  H847  1  0.585200  0.434800  0.096800  1
  H  H848  1  0.585200  0.565200  0.903200  1
  H  H849  1  0.057400  0.952800  0.359000  1
  H  H850  1  0.057400  0.047200  0.641000  1
  H  H851  1  0.557400  0.952800  0.641000  1
  H  H852  1  0.557400  0.047200  0.359000  1
  H  H853  1  0.057400  0.452800  0.859000  1
  H  H854  1  0.057400  0.547200  0.141000  1
  H  H855  1  0.557400  0.452800  0.141000  1
  H  H856  1  0.557400  0.547200  0.859000  1
  H  H857  1  0.024300  0.945600  0.381400  1
  H  H858  1  0.024300  0.054400  0.618600  1
  H  H859  1  0.524300  0.945600  0.618600  1
  H  H860  1  0.524300  0.054400  0.381400  1
  H  H861  1  0.024300  0.445600  0.881400  1
  H  H862  1  0.024300  0.554400  0.118600  1
  H  H863  1  0.524300  0.445600  0.118600  1
  H  H864  1  0.524300  0.554400  0.881400  1
  H  H865  1  0.976500  0.929900  0.321100  1
  H  H866  1  0.976500  0.070100  0.678900  1
  H  H867  1  0.476500  0.929900  0.678900  1
  H  H868  1  0.476500  0.070100  0.321100  1
  H  H869  1  0.976500  0.429900  0.821100  1
  H  H870  1  0.976500  0.570100  0.178900  1
  H  H871  1  0.476500  0.429900  0.178900  1
  H  H872  1  0.476500  0.570100  0.821100  1
  H  H873  1  0.014500  0.943000  0.307500  1
  H  H874  1  0.014500  0.057000  0.692500  1
  H  H875  1  0.514500  0.943000  0.692500  1
  H  H876  1  0.514500  0.057000  0.307500  1
  H  H877  1  0.014500  0.443000  0.807500  1
  H  H878  1  0.014500  0.557000  0.192500  1
  H  H879  1  0.514500  0.443000  0.192500  1
  H  H880  1  0.514500  0.557000  0.807500  1
  H  H881  1  0.988400  0.912500  0.272600  1
  H  H882  1  0.988400  0.087500  0.727400  1
  H  H883  1  0.488400  0.912500  0.727400  1
  H  H884  1  0.488400  0.087500  0.272600  1
  H  H885  1  0.988400  0.412500  0.772600  1
  H  H886  1  0.988400  0.587500  0.227400  1
  H  H887  1  0.488400  0.412500  0.227400  1
  H  H888  1  0.488400  0.587500  0.772600  1
  H  H889  1  0.976600  0.882300  0.294900  1
  H  H890  1  0.976600  0.117700  0.705100  1
  H  H891  1  0.476600  0.882300  0.705100  1
  H  H892  1  0.476600  0.117700  0.294900  1
  H  H893  1  0.976600  0.382300  0.794900  1
  H  H894  1  0.976600  0.617700  0.205100  1
  H  H895  1  0.476600  0.382300  0.205100  1
  H  H896  1  0.476600  0.617700  0.794900  1
  H  H897  1  0.278100  0.264300  0.338100  1
  H  H898  1  0.278100  0.735700  0.661900  1
  H  H899  1  0.778100  0.264300  0.661900  1
  H  H900  1  0.778100  0.735700  0.338100  1
  H  H901  1  0.278100  0.764300  0.838100  1
  H  H902  1  0.278100  0.235700  0.161900  1
  H  H903  1  0.778100  0.764300  0.161900  1
  H  H904  1  0.778100  0.235700  0.838100  1
  H  H905  1  0.255600  0.253300  0.309200  1
  H  H906  1  0.255600  0.746700  0.690800  1
  H  H907  1  0.755600  0.253300  0.690800  1
  H  H908  1  0.755600  0.746700  0.309200  1
  H  H909  1  0.255600  0.753300  0.809200  1
  H  H910  1  0.255600  0.246700  0.190800  1
  H  H911  1  0.755600  0.753300  0.190800  1
  H  H912  1  0.755600  0.246700  0.809200  1
  H  H913  1  0.227800  0.204000  0.335200  1
  H  H914  1  0.227800  0.796000  0.664800  1
  H  H915  1  0.727800  0.204000  0.664800  1
  H  H916  1  0.727800  0.796000  0.335200  1
  H  H917  1  0.227800  0.704000  0.835200  1
  H  H918  1  0.227800  0.296000  0.164800  1
  H  H919  1  0.727800  0.704000  0.164800  1
  H  H920  1  0.727800  0.296000  0.835200  1
  H  H921  1  0.221800  0.237600  0.355900  1
  H  H922  1  0.221800  0.762400  0.644100  1
  H  H923  1  0.721800  0.237600  0.644100  1
  H  H924  1  0.721800  0.762400  0.355900  1
  H  H925  1  0.221800  0.737600  0.855900  1
  H  H926  1  0.221800  0.262400  0.144100  1
  H  H927  1  0.721800  0.737600  0.144100  1
  H  H928  1  0.721800  0.262400  0.855900  1
  H  H929  1  0.224600  0.183900  0.407600  1
  H  H930  1  0.224600  0.816100  0.592400  1
  H  H931  1  0.724600  0.183900  0.592400  1
  H  H932  1  0.724600  0.816100  0.407600  1
  H  H933  1  0.224600  0.683900  0.907600  1
  H  H934  1  0.224600  0.316100  0.092400  1
  H  H935  1  0.724600  0.683900  0.092400  1
  H  H936  1  0.724600  0.316100  0.907600  1
  H  H937  1  0.229100  0.156500  0.381200  1
  H  H938  1  0.229100  0.843500  0.618800  1
  H  H939  1  0.729100  0.156500  0.618800  1
  H  H940  1  0.729100  0.843500  0.381200  1
  H  H941  1  0.229100  0.656500  0.881200  1
  H  H942  1  0.229100  0.343500  0.118800  1
  H  H943  1  0.729100  0.656500  0.118800  1
  H  H944  1  0.729100  0.343500  0.881200  1
  H  H945  1  0.253300  0.130200  0.422600  1
  H  H946  1  0.253300  0.869800  0.577400  1
  H  H947  1  0.753300  0.130200  0.577400  1
  H  H948  1  0.753300  0.869800  0.422600  1
  H  H949  1  0.253300  0.630200  0.922600  1
  H  H950  1  0.253300  0.369800  0.077400  1
  H  H951  1  0.753300  0.630200  0.077400  1
  H  H952  1  0.753300  0.369800  0.922600  1
  H  H953  1  0.277200  0.164000  0.430400  1
  H  H954  1  0.277200  0.836000  0.569600  1
  H  H955  1  0.777200  0.164000  0.569600  1
  H  H956  1  0.777200  0.836000  0.430400  1
  H  H957  1  0.277200  0.664000  0.930400  1
  H  H958  1  0.277200  0.336000  0.069600  1
  H  H959  1  0.777200  0.664000  0.069600  1
  H  H960  1  0.777200  0.336000  0.930400  1
  H  H961  1  0.342400  0.144400  0.434700  1
  H  H962  1  0.342400  0.855600  0.565300  1
  H  H963  1  0.842400  0.144400  0.565300  1
  H  H964  1  0.842400  0.855600  0.434700  1
  H  H965  1  0.342400  0.644400  0.934700  1
  H  H966  1  0.342400  0.355600  0.065300  1
  H  H967  1  0.842400  0.644400  0.065300  1
  H  H968  1  0.842400  0.355600  0.934700  1
  H  H969  1  0.369100  0.133400  0.408400  1
  H  H970  1  0.369100  0.866600  0.591600  1
  H  H971  1  0.869100  0.133400  0.591600  1
  H  H972  1  0.869100  0.866600  0.408400  1
  H  H973  1  0.369100  0.633400  0.908400  1
  H  H974  1  0.369100  0.366600  0.091600  1
  H  H975  1  0.869100  0.633400  0.091600  1
  H  H976  1  0.869100  0.366600  0.908400  1
  H  H977  1  0.378800  0.191900  0.417900  1
  H  H978  1  0.378800  0.808100  0.582100  1
  H  H979  1  0.878800  0.191900  0.582100  1
  H  H980  1  0.878800  0.808100  0.417900  1
  H  H981  1  0.378800  0.691900  0.917900  1
  H  H982  1  0.378800  0.308100  0.082100  1
  H  H983  1  0.878800  0.691900  0.082100  1
  H  H984  1  0.878800  0.308100  0.917900  1
  H  H985  1  0.335800  0.200100  0.415500  1
  H  H986  1  0.335800  0.799900  0.584500  1
  H  H987  1  0.835800  0.200100  0.584500  1
  H  H988  1  0.835800  0.799900  0.415500  1
  H  H989  1  0.335800  0.700100  0.915500  1
  H  H990  1  0.335800  0.299900  0.084500  1
  H  H991  1  0.835800  0.700100  0.084500  1
  H  H992  1  0.835800  0.299900  0.915500  1
  H  H993  1  0.335300  0.249100  0.372600  1
  H  H994  1  0.335300  0.750900  0.627400  1
  H  H995  1  0.835300  0.249100  0.627400  1
  H  H996  1  0.835300  0.750900  0.372600  1
  H  H997  1  0.335300  0.749100  0.872600  1
  H  H998  1  0.335300  0.250900  0.127400  1
  H  H999  1  0.835300  0.749100  0.127400  1
  H  H1000  1  0.835300  0.250900  0.872600  1
  H  H1001  1  0.378500  0.252000  0.366200  1
  H  H1002  1  0.378500  0.748000  0.633800  1
  H  H1003  1  0.878500  0.252000  0.633800  1
  H  H1004  1  0.878500  0.748000  0.366200  1
  H  H1005  1  0.378500  0.752000  0.866200  1
  H  H1006  1  0.378500  0.248000  0.133800  1
  H  H1007  1  0.878500  0.752000  0.133800  1
  H  H1008  1  0.878500  0.248000  0.866200  1
  H  H1009  1  0.370100  0.235300  0.317100  1
  H  H1010  1  0.370100  0.764700  0.682900  1
  H  H1011  1  0.870100  0.235300  0.682900  1
  H  H1012  1  0.870100  0.764700  0.317100  1
  H  H1013  1  0.370100  0.735300  0.817100  1
  H  H1014  1  0.370100  0.264700  0.182900  1
  H  H1015  1  0.870100  0.735300  0.182900  1
  H  H1016  1  0.870100  0.264700  0.817100  1
  H  H1017  1  0.343500  0.267500  0.323500  1
  H  H1018  1  0.343500  0.732500  0.676500  1
  H  H1019  1  0.843500  0.267500  0.676500  1
  H  H1020  1  0.843500  0.732500  0.323500  1
  H  H1021  1  0.343500  0.767500  0.823500  1
  H  H1022  1  0.343500  0.232500  0.176500  1
  H  H1023  1  0.843500  0.767500  0.176500  1
  H  H1024  1  0.843500  0.232500  0.823500  1
  H  H1025  1  0.422300  0.824700  0.405900  1
  H  H1026  1  0.422300  0.175300  0.594100  1
  H  H1027  1  0.922300  0.824700  0.594100  1
  H  H1028  1  0.922300  0.175300  0.405900  1
  H  H1029  1  0.422300  0.324700  0.905900  1
  H  H1030  1  0.422300  0.675300  0.094100  1
  H  H1031  1  0.922300  0.324700  0.094100  1
  H  H1032  1  0.922300  0.675300  0.905900  1
  H  H1033  1  0.394800  0.811300  0.380900  1
  H  H1034  1  0.394800  0.188700  0.619100  1
  H  H1035  1  0.894800  0.811300  0.619100  1
  H  H1036  1  0.894800  0.188700  0.380900  1
  H  H1037  1  0.394800  0.311300  0.880900  1
  H  H1038  1  0.394800  0.688700  0.119100  1
  H  H1039  1  0.894800  0.311300  0.119100  1
  H  H1040  1  0.894800  0.688700  0.880900  1
  H  H1041  1  0.443600  0.771000  0.384200  1
  H  H1042  1  0.443600  0.229000  0.615800  1
  H  H1043  1  0.943600  0.771000  0.615800  1
  H  H1044  1  0.943600  0.229000  0.384200  1
  H  H1045  1  0.443600  0.271000  0.884200  1
  H  H1046  1  0.443600  0.729000  0.115800  1
  H  H1047  1  0.943600  0.271000  0.115800  1
  H  H1048  1  0.943600  0.729000  0.884200  1
  H  H1049  1  0.473100  0.801600  0.379300  1
  H  H1050  1  0.473100  0.198400  0.620700  1
  H  H1051  1  0.973100  0.801600  0.620700  1
  H  H1052  1  0.973100  0.198400  0.379300  1
  H  H1053  1  0.473100  0.301600  0.879300  1
  H  H1054  1  0.473100  0.698400  0.120700  1
  H  H1055  1  0.973100  0.301600  0.120700  1
  H  H1056  1  0.973100  0.698400  0.879300  1
  H  H1057  1  0.506300  0.777800  0.330600  1
  H  H1058  1  0.506300  0.222200  0.669400  1
  H  H1059  1  0.006300  0.777800  0.669400  1
  H  H1060  1  0.006300  0.222200  0.330600  1
  H  H1061  1  0.506300  0.277800  0.830600  1
  H  H1062  1  0.506300  0.722200  0.169400  1
  H  H1063  1  0.006300  0.277800  0.169400  1
  H  H1064  1  0.006300  0.722200  0.830600  1
  H  H1065  1  0.483300  0.742700  0.324600  1
  H  H1066  1  0.483300  0.257300  0.675400  1
  H  H1067  1  0.983300  0.742700  0.675400  1
  H  H1068  1  0.983300  0.257300  0.324600  1
  H  H1069  1  0.483300  0.242700  0.824600  1
  H  H1070  1  0.483300  0.757300  0.175400  1
  H  H1071  1  0.983300  0.242700  0.175400  1
  H  H1072  1  0.983300  0.757300  0.824600  1
  H  H1073  1  0.463200  0.764700  0.277200  1
  H  H1074  1  0.463200  0.235300  0.722800  1
  H  H1075  1  0.963200  0.764700  0.722800  1
  H  H1076  1  0.963200  0.235300  0.277200  1
  H  H1077  1  0.463200  0.264700  0.777200  1
  H  H1078  1  0.463200  0.735300  0.222800  1
  H  H1079  1  0.963200  0.264700  0.222800  1
  H  H1080  1  0.963200  0.735300  0.777200  1
  H  H1081  1  0.507000  0.765300  0.277700  1
  H  H1082  1  0.507000  0.234700  0.722300  1
  H  H1083  1  0.007000  0.765300  0.722300  1
  H  H1084  1  0.007000  0.234700  0.277700  1
  H  H1085  1  0.507000  0.265300  0.777700  1
  H  H1086  1  0.507000  0.734700  0.222300  1
  H  H1087  1  0.007000  0.265300  0.222300  1
  H  H1088  1  0.007000  0.734700  0.777700  1
  H  H1089  1  0.544300  0.815300  0.298700  1
  H  H1090  1  0.544300  0.184700  0.701300  1
  H  H1091  1  0.044300  0.815300  0.701300  1
  H  H1092  1  0.044300  0.184700  0.298700  1
  H  H1093  1  0.544300  0.315300  0.798700  1
  H  H1094  1  0.544300  0.684700  0.201300  1
  H  H1095  1  0.044300  0.315300  0.201300  1
  H  H1096  1  0.044300  0.684700  0.798700  1
  H  H1097  1  0.547100  0.841300  0.271100  1
  H  H1098  1  0.547100  0.158700  0.728900  1
  H  H1099  1  0.047100  0.841300  0.728900  1
  H  H1100  1  0.047100  0.158700  0.271100  1
  H  H1101  1  0.547100  0.341300  0.771100  1
  H  H1102  1  0.547100  0.658700  0.228900  1
  H  H1103  1  0.047100  0.341300  0.228900  1
  H  H1104  1  0.047100  0.658700  0.771100  1
  H  H1105  1  0.522200  0.887700  0.300200  1
  H  H1106  1  0.522200  0.112300  0.699800  1
  H  H1107  1  0.022200  0.887700  0.699800  1
  H  H1108  1  0.022200  0.112300  0.300200  1
  H  H1109  1  0.522200  0.387700  0.800200  1
  H  H1110  1  0.522200  0.612300  0.199800  1
  H  H1111  1  0.022200  0.387700  0.199800  1
  H  H1112  1  0.022200  0.612300  0.800200  1
  H  H1113  1  0.557600  0.872200  0.316900  1
  H  H1114  1  0.557600  0.127800  0.683100  1
  H  H1115  1  0.057600  0.872200  0.683100  1
  H  H1116  1  0.057600  0.127800  0.316900  1
  H  H1117  1  0.557600  0.372200  0.816900  1
  H  H1118  1  0.557600  0.627800  0.183100  1
  H  H1119  1  0.057600  0.372200  0.183100  1
  H  H1120  1  0.057600  0.627800  0.816900  1
  H  H1121  1  0.516600  0.898700  0.375100  1
  H  H1122  1  0.516600  0.101300  0.624900  1
  H  H1123  1  0.016600  0.898700  0.624900  1
  H  H1124  1  0.016600  0.101300  0.375100  1
  H  H1125  1  0.516600  0.398700  0.875100  1
  H  H1126  1  0.516600  0.601300  0.124900  1
  H  H1127  1  0.016600  0.398700  0.124900  1
  H  H1128  1  0.016600  0.601300  0.875100  1
  H  H1129  1  0.489400  0.912700  0.349900  1
  H  H1130  1  0.489400  0.087300  0.650100  1
  H  H1131  1  0.989400  0.912700  0.650100  1
  H  H1132  1  0.989400  0.087300  0.349900  1
  H  H1133  1  0.489400  0.412700  0.849900  1
  H  H1134  1  0.489400  0.587300  0.150100  1
  H  H1135  1  0.989400  0.412700  0.150100  1
  H  H1136  1  0.989400  0.587300  0.849900  1
  H  H1137  1  0.453000  0.910400  0.391100  1
  H  H1138  1  0.453000  0.089600  0.608900  1
  H  H1139  1  0.953000  0.910400  0.608900  1
  H  H1140  1  0.953000  0.089600  0.391100  1
  H  H1141  1  0.453000  0.410400  0.891100  1
  H  H1142  1  0.453000  0.589600  0.108900  1
  H  H1143  1  0.953000  0.410400  0.108900  1
  H  H1144  1  0.953000  0.589600  0.891100  1
  H  H1145  1  0.469900  0.873800  0.401500  1
  H  H1146  1  0.469900  0.126200  0.598500  1
  H  H1147  1  0.969900  0.873800  0.598500  1
  H  H1148  1  0.969900  0.126200  0.401500  1
  H  H1149  1  0.469900  0.373800  0.901500  1
  H  H1150  1  0.469900  0.626200  0.098500  1
  H  H1151  1  0.969900  0.373800  0.098500  1
  H  H1152  1  0.969900  0.626200  0.901500  1
  H  H1153  1  0.361300  0.865000  0.140900  1
  H  H1154  1  0.361300  0.135000  0.859100  1
  H  H1155  1  0.861300  0.865000  0.859100  1
  H  H1156  1  0.861300  0.135000  0.140900  1
  H  H1157  1  0.361300  0.365000  0.640900  1
  H  H1158  1  0.361300  0.635000  0.359100  1
  H  H1159  1  0.861300  0.365000  0.359100  1
  H  H1160  1  0.861300  0.635000  0.640900  1
  H  H1161  1  0.364700  0.894600  0.116100  1
  H  H1162  1  0.364700  0.105400  0.883900  1
  H  H1163  1  0.864700  0.894600  0.883900  1
  H  H1164  1  0.864700  0.105400  0.116100  1
  H  H1165  1  0.364700  0.394600  0.616100  1
  H  H1166  1  0.364700  0.605400  0.383900  1
  H  H1167  1  0.864700  0.394600  0.383900  1
  H  H1168  1  0.864700  0.605400  0.616100  1
  H  H1169  1  0.425200  0.903200  0.190600  1
  H  H1170  1  0.425200  0.096800  0.809400  1
  H  H1171  1  0.925200  0.903200  0.809400  1
  H  H1172  1  0.925200  0.096800  0.190600  1
  H  H1173  1  0.425200  0.403200  0.690600  1
  H  H1174  1  0.425200  0.596800  0.309400  1
  H  H1175  1  0.925200  0.403200  0.309400  1
  H  H1176  1  0.925200  0.596800  0.690600  1
  H  H1177  1  0.397300  0.871200  0.187300  1
  H  H1178  1  0.397300  0.128800  0.812700  1
  H  H1179  1  0.897300  0.871200  0.812700  1
  H  H1180  1  0.897300  0.128800  0.187300  1
  H  H1181  1  0.397300  0.371200  0.687300  1
  H  H1182  1  0.397300  0.628800  0.312700  1
  H  H1183  1  0.897300  0.371200  0.312700  1
  H  H1184  1  0.897300  0.628800  0.687300  1
  H  H1185  1  0.429000  0.949400  0.151600  1
  H  H1186  1  0.429000  0.050600  0.848400  1
  H  H1187  1  0.929000  0.949400  0.848400  1
  H  H1188  1  0.929000  0.050600  0.151600  1
  H  H1189  1  0.429000  0.449400  0.651600  1
  H  H1190  1  0.429000  0.550600  0.348400  1
  H  H1191  1  0.929000  0.449400  0.348400  1
  H  H1192  1  0.929000  0.550600  0.651600  1
  H  H1193  1  0.406300  0.944500  0.121600  1
  H  H1194  1  0.406300  0.055500  0.878400  1
  H  H1195  1  0.906300  0.944500  0.878400  1
  H  H1196  1  0.906300  0.055500  0.121600  1
  H  H1197  1  0.406300  0.444500  0.621600  1
  H  H1198  1  0.406300  0.555500  0.378400  1
  H  H1199  1  0.906300  0.444500  0.378400  1
  H  H1200  1  0.906300  0.555500  0.621600  1
  H  H1201  1  0.307900  0.902000  0.143800  1
  H  H1202  1  0.307900  0.098000  0.856200  1
  H  H1203  1  0.807900  0.902000  0.856200  1
  H  H1204  1  0.807900  0.098000  0.143800  1
  H  H1205  1  0.307900  0.402000  0.643800  1
  H  H1206  1  0.307900  0.598000  0.356200  1
  H  H1207  1  0.807900  0.402000  0.356200  1
  H  H1208  1  0.807900  0.598000  0.643800  1
  H  H1209  1  0.314100  0.917700  0.195300  1
  H  H1210  1  0.314100  0.082300  0.804700  1
  H  H1211  1  0.814100  0.917700  0.804700  1
  H  H1212  1  0.814100  0.082300  0.195300  1
  H  H1213  1  0.314100  0.417700  0.695300  1
  H  H1214  1  0.314100  0.582300  0.304700  1
  H  H1215  1  0.814100  0.417700  0.304700  1
  H  H1216  1  0.814100  0.582300  0.695300  1
  H  H1217  1  0.331800  0.879900  0.190300  1
  H  H1218  1  0.331800  0.120100  0.809700  1
  H  H1219  1  0.831800  0.879900  0.809700  1
  H  H1220  1  0.831800  0.120100  0.190300  1
  H  H1221  1  0.331800  0.379900  0.690300  1
  H  H1222  1  0.331800  0.620100  0.309700  1
  H  H1223  1  0.831800  0.379900  0.309700  1
  H  H1224  1  0.831800  0.620100  0.690300  1
  H  H1225  1  0.371200  0.914400  0.219300  1
  H  H1226  1  0.371200  0.085600  0.780700  1
  H  H1227  1  0.871200  0.914400  0.780700  1
  H  H1228  1  0.871200  0.085600  0.219300  1
  H  H1229  1  0.371200  0.414400  0.719300  1
  H  H1230  1  0.371200  0.585600  0.280700  1
  H  H1231  1  0.871200  0.414400  0.280700  1
  H  H1232  1  0.871200  0.585600  0.719300  1
  H  H1233  1  0.400300  0.965300  0.198400  1
  H  H1234  1  0.400300  0.034700  0.801600  1
  H  H1235  1  0.900300  0.965300  0.801600  1
  H  H1236  1  0.900300  0.034700  0.198400  1
  H  H1237  1  0.400300  0.465300  0.698400  1
  H  H1238  1  0.400300  0.534700  0.301600  1
  H  H1239  1  0.900300  0.465300  0.301600  1
  H  H1240  1  0.900300  0.534700  0.698400  1
  H  H1241  1  0.356900  0.971600  0.200600  1
  H  H1242  1  0.356900  0.028400  0.799400  1
  H  H1243  1  0.856900  0.971600  0.799400  1
  H  H1244  1  0.856900  0.028400  0.200600  1
  H  H1245  1  0.356900  0.471600  0.700600  1
  H  H1246  1  0.356900  0.528400  0.299400  1
  H  H1247  1  0.856900  0.471600  0.299400  1
  H  H1248  1  0.856900  0.528400  0.700600  1
  H  H1249  1  0.378000  0.987600  0.151000  1
  H  H1250  1  0.378000  0.012400  0.849000  1
  H  H1251  1  0.878000  0.987600  0.849000  1
  H  H1252  1  0.878000  0.012400  0.151000  1
  H  H1253  1  0.378000  0.487600  0.651000  1
  H  H1254  1  0.378000  0.512400  0.349000  1
  H  H1255  1  0.878000  0.487600  0.349000  1
  H  H1256  1  0.878000  0.512400  0.651000  1
  H  H1257  1  0.337500  0.954700  0.123000  1
  H  H1258  1  0.337500  0.045300  0.877000  1
  H  H1259  1  0.837500  0.954700  0.877000  1
  H  H1260  1  0.837500  0.045300  0.123000  1
  H  H1261  1  0.337500  0.454700  0.623000  1
  H  H1262  1  0.337500  0.545300  0.377000  1
  H  H1263  1  0.837500  0.454700  0.377000  1
  H  H1264  1  0.837500  0.545300  0.623000  1
  H  H1265  1  0.318800  0.965000  0.153800  1
  H  H1266  1  0.318800  0.035000  0.846200  1
  H  H1267  1  0.818800  0.965000  0.846200  1
  H  H1268  1  0.818800  0.035000  0.153800  1
  H  H1269  1  0.318800  0.465000  0.653800  1
  H  H1270  1  0.318800  0.535000  0.346200  1
  H  H1271  1  0.818800  0.465000  0.346200  1
  H  H1272  1  0.818800  0.535000  0.653800  1
  H  H1273  1  0.278800  0.111700  0.139700  1
  H  H1274  1  0.278800  0.888300  0.860300  1
  H  H1275  1  0.778800  0.111700  0.860300  1
  H  H1276  1  0.778800  0.888300  0.139700  1
  H  H1277  1  0.278800  0.611700  0.639700  1
  H  H1278  1  0.278800  0.388300  0.360300  1
  H  H1279  1  0.778800  0.611700  0.360300  1
  H  H1280  1  0.778800  0.388300  0.639700  1
  H  H1281  1  0.245100  0.111400  0.162400  1
  H  H1282  1  0.245100  0.888600  0.837600  1
  H  H1283  1  0.745100  0.111400  0.837600  1
  H  H1284  1  0.745100  0.888600  0.162400  1
  H  H1285  1  0.245100  0.611400  0.662400  1
  H  H1286  1  0.245100  0.388600  0.337600  1
  H  H1287  1  0.745100  0.611400  0.337600  1
  H  H1288  1  0.745100  0.388600  0.662400  1
  H  H1289  1  0.348600  0.119700  0.190900  1
  H  H1290  1  0.348600  0.880300  0.809100  1
  H  H1291  1  0.848600  0.119700  0.809100  1
  H  H1292  1  0.848600  0.880300  0.190900  1
  H  H1293  1  0.348600  0.619700  0.690900  1
  H  H1294  1  0.348600  0.380300  0.309100  1
  H  H1295  1  0.848600  0.619700  0.309100  1
  H  H1296  1  0.848600  0.380300  0.690900  1
  H  H1297  1  0.339200  0.107400  0.158000  1
  H  H1298  1  0.339200  0.892600  0.842000  1
  H  H1299  1  0.839200  0.107400  0.842000  1
  H  H1300  1  0.839200  0.892600  0.158000  1
  H  H1301  1  0.339200  0.607400  0.658000  1
  H  H1302  1  0.339200  0.392600  0.342000  1
  H  H1303  1  0.839200  0.607400  0.342000  1
  H  H1304  1  0.839200  0.392600  0.658000  1
  H  H1305  1  0.248800  0.120000  0.209700  1
  H  H1306  1  0.248800  0.880000  0.790300  1
  H  H1307  1  0.748800  0.120000  0.790300  1
  H  H1308  1  0.748800  0.880000  0.209700  1
  H  H1309  1  0.248800  0.620000  0.709700  1
  H  H1310  1  0.248800  0.380000  0.290300  1
  H  H1311  1  0.748800  0.620000  0.290300  1
  H  H1312  1  0.748800  0.380000  0.709700  1
  H  H1313  1  0.286800  0.124300  0.227200  1
  H  H1314  1  0.286800  0.875700  0.772800  1
  H  H1315  1  0.786800  0.124300  0.772800  1
  H  H1316  1  0.786800  0.875700  0.227200  1
  H  H1317  1  0.286800  0.624300  0.727200  1
  H  H1318  1  0.286800  0.375700  0.272800  1
  H  H1319  1  0.786800  0.624300  0.272800  1
  H  H1320  1  0.786800  0.375700  0.727200  1
  H  H1321  1  0.262400  0.045300  0.146400  1
  H  H1322  1  0.262400  0.954700  0.853600  1
  H  H1323  1  0.762400  0.045300  0.853600  1
  H  H1324  1  0.762400  0.954700  0.146400  1
  H  H1325  1  0.262400  0.545300  0.646400  1
  H  H1326  1  0.262400  0.454700  0.353600  1
  H  H1327  1  0.762400  0.545300  0.353600  1
  H  H1328  1  0.762400  0.454700  0.646400  1
  H  H1329  1  0.322100  0.028100  0.158600  1
  H  H1330  1  0.322100  0.971900  0.841400  1
  H  H1331  1  0.822100  0.028100  0.841400  1
  H  H1332  1  0.822100  0.971900  0.158600  1
  H  H1333  1  0.322100  0.528100  0.658600  1
  H  H1334  1  0.322100  0.471900  0.341400  1
  H  H1335  1  0.822100  0.528100  0.341400  1
  H  H1336  1  0.822100  0.471900  0.658600  1
  H  H1337  1  0.327800  0.067200  0.147400  1
  H  H1338  1  0.327800  0.932800  0.852600  1
  H  H1339  1  0.827800  0.067200  0.852600  1
  H  H1340  1  0.827800  0.932800  0.147400  1
  H  H1341  1  0.327800  0.567200  0.647400  1
  H  H1342  1  0.327800  0.432800  0.352600  1
  H  H1343  1  0.827800  0.567200  0.352600  1
  H  H1344  1  0.827800  0.432800  0.647400  1
  H  H1345  1  0.359700  0.052300  0.191900  1
  H  H1346  1  0.359700  0.947700  0.808100  1
  H  H1347  1  0.859700  0.052300  0.808100  1
  H  H1348  1  0.859700  0.947700  0.191900  1
  H  H1349  1  0.359700  0.552300  0.691900  1
  H  H1350  1  0.359700  0.447700  0.308100  1
  H  H1351  1  0.859700  0.552300  0.308100  1
  H  H1352  1  0.859700  0.447700  0.691900  1
  H  H1353  1  0.326100  0.076800  0.230800  1
  H  H1354  1  0.326100  0.923200  0.769200  1
  H  H1355  1  0.826100  0.076800  0.769200  1
  H  H1356  1  0.826100  0.923200  0.230800  1
  H  H1357  1  0.326100  0.576800  0.730800  1
  H  H1358  1  0.326100  0.423200  0.269200  1
  H  H1359  1  0.826100  0.576800  0.269200  1
  H  H1360  1  0.826100  0.423200  0.730800  1
  H  H1361  1  0.316600  0.036800  0.225300  1
  H  H1362  1  0.316600  0.963200  0.774700  1
  H  H1363  1  0.816600  0.036800  0.774700  1
  H  H1364  1  0.816600  0.963200  0.225300  1
  H  H1365  1  0.316600  0.536800  0.725300  1
  H  H1366  1  0.316600  0.463200  0.274700  1
  H  H1367  1  0.816600  0.536800  0.274700  1
  H  H1368  1  0.816600  0.463200  0.725300  1
  H  H1369  1  0.265000  0.062700  0.234400  1
  H  H1370  1  0.265000  0.937300  0.765600  1
  H  H1371  1  0.765000  0.062700  0.765600  1
  H  H1372  1  0.765000  0.937300  0.234400  1
  H  H1373  1  0.265000  0.562700  0.734400  1
  H  H1374  1  0.265000  0.437300  0.265600  1
  H  H1375  1  0.765000  0.562700  0.265600  1
  H  H1376  1  0.765000  0.437300  0.734400  1
  H  H1377  1  0.231600  0.063800  0.191400  1
  H  H1378  1  0.231600  0.936200  0.808600  1
  H  H1379  1  0.731600  0.063800  0.808600  1
  H  H1380  1  0.731600  0.936200  0.191400  1
  H  H1381  1  0.231600  0.563800  0.691400  1
  H  H1382  1  0.231600  0.436200  0.308600  1
  H  H1383  1  0.731600  0.563800  0.308600  1
  H  H1384  1  0.731600  0.436200  0.691400  1
  H  H1385  1  0.253500  0.028000  0.196100  1
  H  H1386  1  0.253500  0.972000  0.803900  1
  H  H1387  1  0.753500  0.028000  0.803900  1
  H  H1388  1  0.753500  0.972000  0.196100  1
  H  H1389  1  0.253500  0.528000  0.696100  1
  H  H1390  1  0.253500  0.472000  0.303900  1
  H  H1391  1  0.753500  0.528000  0.303900  1
  H  H1392  1  0.753500  0.472000  0.696100  1
  H  H1393  1  0.159700  0.893700  0.202500  1
  H  H1394  1  0.159700  0.106300  0.797500  1
  H  H1395  1  0.659700  0.893700  0.797500  1
  H  H1396  1  0.659700  0.106300  0.202500  1
  H  H1397  1  0.159700  0.393700  0.702500  1
  H  H1398  1  0.159700  0.606300  0.297500  1
  H  H1399  1  0.659700  0.393700  0.297500  1
  H  H1400  1  0.659700  0.606300  0.702500  1
  H  H1401  1  0.139200  0.929400  0.210500  1
  H  H1402  1  0.139200  0.070600  0.789500  1
  H  H1403  1  0.639200  0.929400  0.789500  1
  H  H1404  1  0.639200  0.070600  0.210500  1
  H  H1405  1  0.139200  0.429400  0.710500  1
  H  H1406  1  0.139200  0.570600  0.289500  1
  H  H1407  1  0.639200  0.429400  0.289500  1
  H  H1408  1  0.639200  0.570600  0.710500  1
  H  H1409  1  0.169600  0.911100  0.126300  1
  H  H1410  1  0.169600  0.088900  0.873700  1
  H  H1411  1  0.669600  0.911100  0.873700  1
  H  H1412  1  0.669600  0.088900  0.126300  1
  H  H1413  1  0.169600  0.411100  0.626300  1
  H  H1414  1  0.169600  0.588900  0.373700  1
  H  H1415  1  0.669600  0.411100  0.373700  1
  H  H1416  1  0.669600  0.588900  0.626300  1
  H  H1417  1  0.180300  0.883800  0.151500  1
  H  H1418  1  0.180300  0.116200  0.848500  1
  H  H1419  1  0.680300  0.883800  0.848500  1
  H  H1420  1  0.680300  0.116200  0.151500  1
  H  H1421  1  0.180300  0.383800  0.651500  1
  H  H1422  1  0.180300  0.616200  0.348500  1
  H  H1423  1  0.680300  0.383800  0.348500  1
  H  H1424  1  0.680300  0.616200  0.651500  1
  H  H1425  1  0.135600  0.967200  0.140300  1
  H  H1426  1  0.135600  0.032800  0.859700  1
  H  H1427  1  0.635600  0.967200  0.859700  1
  H  H1428  1  0.635600  0.032800  0.140300  1
  H  H1429  1  0.135600  0.467200  0.640300  1
  H  H1430  1  0.135600  0.532800  0.359700  1
  H  H1431  1  0.635600  0.467200  0.359700  1
  H  H1432  1  0.635600  0.532800  0.640300  1
  H  H1433  1  0.124400  0.972600  0.174200  1
  H  H1434  1  0.124400  0.027400  0.825800  1
  H  H1435  1  0.624400  0.972600  0.825800  1
  H  H1436  1  0.624400  0.027400  0.174200  1
  H  H1437  1  0.124400  0.472600  0.674200  1
  H  H1438  1  0.124400  0.527400  0.325800  1
  H  H1439  1  0.624400  0.472600  0.325800  1
  H  H1440  1  0.624400  0.527400  0.674200  1
  H  H1441  1  0.203100  0.932400  0.226100  1
  H  H1442  1  0.203100  0.067600  0.773900  1
  H  H1443  1  0.703100  0.932400  0.773900  1
  H  H1444  1  0.703100  0.067600  0.226100  1
  H  H1445  1  0.203100  0.432400  0.726100  1
  H  H1446  1  0.203100  0.567600  0.273900  1
  H  H1447  1  0.703100  0.432400  0.273900  1
  H  H1448  1  0.703100  0.567600  0.726100  1
  H  H1449  1  0.249000  0.933000  0.187300  1
  H  H1450  1  0.249000  0.067000  0.812700  1
  H  H1451  1  0.749000  0.933000  0.812700  1
  H  H1452  1  0.749000  0.067000  0.187300  1
  H  H1453  1  0.249000  0.433000  0.687300  1
  H  H1454  1  0.249000  0.567000  0.312700  1
  H  H1455  1  0.749000  0.433000  0.312700  1
  H  H1456  1  0.749000  0.567000  0.687300  1
  H  H1457  1  0.228100  0.896200  0.186600  1
  H  H1458  1  0.228100  0.103800  0.813400  1
  H  H1459  1  0.728100  0.896200  0.813400  1
  H  H1460  1  0.728100  0.103800  0.186600  1
  H  H1461  1  0.228100  0.396200  0.686600  1
  H  H1462  1  0.228100  0.603800  0.313400  1
  H  H1463  1  0.728100  0.396200  0.313400  1
  H  H1464  1  0.728100  0.603800  0.686600  1
  H  H1465  1  0.233200  0.917800  0.138300  1
  H  H1466  1  0.233200  0.082200  0.861700  1
  H  H1467  1  0.733200  0.917800  0.861700  1
  H  H1468  1  0.733200  0.082200  0.138300  1
  H  H1469  1  0.233200  0.417800  0.638300  1
  H  H1470  1  0.233200  0.582200  0.361700  1
  H  H1471  1  0.733200  0.417800  0.361700  1
  H  H1472  1  0.733200  0.582200  0.638300  1
  H  H1473  1  0.202300  0.970700  0.124300  1
  H  H1474  1  0.202300  0.029300  0.875700  1
  H  H1475  1  0.702300  0.970700  0.875700  1
  H  H1476  1  0.702300  0.029300  0.124300  1
  H  H1477  1  0.202300  0.470700  0.624300  1
  H  H1478  1  0.202300  0.529300  0.375700  1
  H  H1479  1  0.702300  0.470700  0.375700  1
  H  H1480  1  0.702300  0.529300  0.624300  1
  H  H1481  1  0.233600  0.979400  0.148000  1
  H  H1482  1  0.233600  0.020600  0.852000  1
  H  H1483  1  0.733600  0.979400  0.852000  1
  H  H1484  1  0.733600  0.020600  0.148000  1
  H  H1485  1  0.233600  0.479400  0.648000  1
  H  H1486  1  0.233600  0.520600  0.352000  1
  H  H1487  1  0.733600  0.479400  0.352000  1
  H  H1488  1  0.733600  0.520600  0.648000  1
  H  H1489  1  0.177000  0.007900  0.162700  1
  H  H1490  1  0.177000  0.992100  0.837300  1
  H  H1491  1  0.677000  0.007900  0.837300  1
  H  H1492  1  0.677000  0.992100  0.162700  1
  H  H1493  1  0.177000  0.507900  0.662700  1
  H  H1494  1  0.177000  0.492100  0.337300  1
  H  H1495  1  0.677000  0.507900  0.337300  1
  H  H1496  1  0.677000  0.492100  0.662700  1
  H  H1497  1  0.172500  0.987400  0.210600  1
  H  H1498  1  0.172500  0.012600  0.789400  1
  H  H1499  1  0.672500  0.987400  0.789400  1
  H  H1500  1  0.672500  0.012600  0.210600  1
  H  H1501  1  0.172500  0.487400  0.710600  1
  H  H1502  1  0.172500  0.512600  0.289400  1
  H  H1503  1  0.672500  0.487400  0.289400  1
  H  H1504  1  0.672500  0.512600  0.710600  1
  H  H1505  1  0.214600  0.989300  0.201100  1
  H  H1506  1  0.214600  0.010700  0.798900  1
  H  H1507  1  0.714600  0.989300  0.798900  1
  H  H1508  1  0.714600  0.010700  0.201100  1
  H  H1509  1  0.214600  0.489300  0.701100  1
  H  H1510  1  0.214600  0.510700  0.298900  1
  H  H1511  1  0.714600  0.489300  0.298900  1
  H  H1512  1  0.714600  0.510700  0.701100  1
  H  H1513  1  0.238200  0.976300  0.329500  1
  H  H1514  1  0.238200  0.023700  0.670500  1
  H  H1515  1  0.738200  0.976300  0.670500  1
  H  H1516  1  0.738200  0.023700  0.329500  1
  H  H1517  1  0.238200  0.476300  0.829500  1
  H  H1518  1  0.238200  0.523700  0.170500  1
  H  H1519  1  0.738200  0.476300  0.170500  1
  H  H1520  1  0.738200  0.523700  0.829500  1
  H  H1521  1  0.240200  0.936000  0.320400  1
  H  H1522  1  0.240200  0.064000  0.679600  1
  H  H1523  1  0.740200  0.936000  0.679600  1
  H  H1524  1  0.740200  0.064000  0.320400  1
  H  H1525  1  0.240200  0.436000  0.820400  1
  H  H1526  1  0.240200  0.564000  0.179600  1
  H  H1527  1  0.740200  0.436000  0.179600  1
  H  H1528  1  0.740200  0.564000  0.820400  1
  H  H1529  1  0.331400  0.993700  0.322600  1
  H  H1530  1  0.331400  0.006300  0.677400  1
  H  H1531  1  0.831400  0.993700  0.677400  1
  H  H1532  1  0.831400  0.006300  0.322600  1
  H  H1533  1  0.331400  0.493700  0.822600  1
  H  H1534  1  0.331400  0.506300  0.177400  1
  H  H1535  1  0.831400  0.493700  0.177400  1
  H  H1536  1  0.831400  0.506300  0.822600  1
  H  H1537  1  0.292200  0.011200  0.328300  1
  H  H1538  1  0.292200  0.988800  0.671700  1
  H  H1539  1  0.792200  0.011200  0.671700  1
  H  H1540  1  0.792200  0.988800  0.328300  1
  H  H1541  1  0.292200  0.511200  0.828300  1
  H  H1542  1  0.292200  0.488800  0.171700  1
  H  H1543  1  0.792200  0.511200  0.171700  1
  H  H1544  1  0.792200  0.488800  0.828300  1
  H  H1545  1  0.333600  0.927200  0.309100  1
  H  H1546  1  0.333600  0.072800  0.690900  1
  H  H1547  1  0.833600  0.927200  0.690900  1
  H  H1548  1  0.833600  0.072800  0.309100  1
  H  H1549  1  0.333600  0.427200  0.809100  1
  H  H1550  1  0.333600  0.572800  0.190900  1
  H  H1551  1  0.833600  0.427200  0.190900  1
  H  H1552  1  0.833600  0.572800  0.809100  1
  H  H1553  1  0.295300  0.906700  0.309700  1
  H  H1554  1  0.295300  0.093300  0.690300  1
  H  H1555  1  0.795300  0.906700  0.690300  1
  H  H1556  1  0.795300  0.093300  0.309700  1
  H  H1557  1  0.295300  0.406700  0.809700  1
  H  H1558  1  0.295300  0.593300  0.190300  1
  H  H1559  1  0.795300  0.406700  0.190300  1
  H  H1560  1  0.795300  0.593300  0.809700  1
  H  H1561  1  0.215600  0.970400  0.279900  1
  H  H1562  1  0.215600  0.029600  0.720100  1
  H  H1563  1  0.715600  0.970400  0.720100  1
  H  H1564  1  0.715600  0.029600  0.279900  1
  H  H1565  1  0.215600  0.470400  0.779900  1
  H  H1566  1  0.215600  0.529600  0.220100  1
  H  H1567  1  0.715600  0.470400  0.220100  1
  H  H1568  1  0.715600  0.529600  0.779900  1
  H  H1569  1  0.257900  0.010200  0.256000  1
  H  H1570  1  0.257900  0.989800  0.744000  1
  H  H1571  1  0.757900  0.010200  0.744000  1
  H  H1572  1  0.757900  0.989800  0.256000  1
  H  H1573  1  0.257900  0.510200  0.756000  1
  H  H1574  1  0.257900  0.489800  0.244000  1
  H  H1575  1  0.757900  0.510200  0.244000  1
  H  H1576  1  0.757900  0.489800  0.756000  1
  H  H1577  1  0.250800  0.023000  0.289100  1
  H  H1578  1  0.250800  0.977000  0.710900  1
  H  H1579  1  0.750800  0.023000  0.710900  1
  H  H1580  1  0.750800  0.977000  0.289100  1
  H  H1581  1  0.250800  0.523000  0.789100  1
  H  H1582  1  0.250800  0.477000  0.210900  1
  H  H1583  1  0.750800  0.523000  0.210900  1
  H  H1584  1  0.750800  0.477000  0.789100  1
  H  H1585  1  0.314100  0.025100  0.279000  1
  H  H1586  1  0.314100  0.974900  0.721000  1
  H  H1587  1  0.814100  0.025100  0.721000  1
  H  H1588  1  0.814100  0.974900  0.279000  1
  H  H1589  1  0.314100  0.525100  0.779000  1
  H  H1590  1  0.314100  0.474900  0.221000  1
  H  H1591  1  0.814100  0.525100  0.221000  1
  H  H1592  1  0.814100  0.474900  0.779000  1
  H  H1593  1  0.347500  0.971000  0.271700  1
  H  H1594  1  0.347500  0.029000  0.728300  1
  H  H1595  1  0.847500  0.971000  0.728300  1
  H  H1596  1  0.847500  0.029000  0.271700  1
  H  H1597  1  0.347500  0.471000  0.771700  1
  H  H1598  1  0.347500  0.529000  0.228300  1
  H  H1599  1  0.847500  0.471000  0.228300  1
  H  H1600  1  0.847500  0.529000  0.771700  1
  H  H1601  1  0.320600  0.977800  0.244300  1
  H  H1602  1  0.320600  0.022200  0.755700  1
  H  H1603  1  0.820600  0.977800  0.755700  1
  H  H1604  1  0.820600  0.022200  0.244300  1
  H  H1605  1  0.320600  0.477800  0.744300  1
  H  H1606  1  0.320600  0.522200  0.255700  1
  H  H1607  1  0.820600  0.477800  0.255700  1
  H  H1608  1  0.820600  0.522200  0.744300  1
  H  H1609  1  0.313300  0.918500  0.260100  1
  H  H1610  1  0.313300  0.081500  0.739900  1
  H  H1611  1  0.813300  0.918500  0.739900  1
  H  H1612  1  0.813300  0.081500  0.260100  1
  H  H1613  1  0.313300  0.418500  0.760100  1
  H  H1614  1  0.313300  0.581500  0.239900  1
  H  H1615  1  0.813300  0.418500  0.239900  1
  H  H1616  1  0.813300  0.581500  0.760100  1
  H  H1617  1  0.250600  0.916700  0.267700  1
  H  H1618  1  0.250600  0.083300  0.732300  1
  H  H1619  1  0.750600  0.916700  0.732300  1
  H  H1620  1  0.750600  0.083300  0.267700  1
  H  H1621  1  0.250600  0.416700  0.767700  1
  H  H1622  1  0.250600  0.583300  0.232300  1
  H  H1623  1  0.750600  0.416700  0.232300  1
  H  H1624  1  0.750600  0.583300  0.767700  1
  H  H1625  1  0.260000  0.945300  0.243000  1
  H  H1626  1  0.260000  0.054700  0.757000  1
  H  H1627  1  0.760000  0.945300  0.757000  1
  H  H1628  1  0.760000  0.054700  0.243000  1
  H  H1629  1  0.260000  0.445300  0.743000  1
  H  H1630  1  0.260000  0.554700  0.257000  1
  H  H1631  1  0.760000  0.445300  0.257000  1
  H  H1632  1  0.760000  0.554700  0.743000  1
  H  H1633  1  0.549700  0.824100  0.272500  1
  H  H1634  1  0.549700  0.175900  0.727500  1
  H  H1635  1  0.049700  0.824100  0.727500  1
  H  H1636  1  0.049700  0.175900  0.272500  1
  H  H1637  1  0.549700  0.324100  0.772500  1
  H  H1638  1  0.549700  0.675900  0.227500  1
  H  H1639  1  0.049700  0.324100  0.227500  1
  H  H1640  1  0.049700  0.675900  0.772500  1
  H  H1641  1  0.534700  0.863200  0.273700  1
  H  H1642  1  0.534700  0.136800  0.726300  1
  H  H1643  1  0.034700  0.863200  0.726300  1
  H  H1644  1  0.034700  0.136800  0.273700  1
  H  H1645  1  0.534700  0.363200  0.773700  1
  H  H1646  1  0.534700  0.636800  0.226300  1
  H  H1647  1  0.034700  0.363200  0.226300  1
  H  H1648  1  0.034700  0.636800  0.773700  1
  H  H1649  1  0.568600  0.855100  0.317100  1
  H  H1650  1  0.568600  0.144900  0.682900  1
  H  H1651  1  0.068600  0.855100  0.682900  1
  H  H1652  1  0.068600  0.144900  0.317100  1
  H  H1653  1  0.568600  0.355100  0.817100  1
  H  H1654  1  0.568600  0.644900  0.182900  1
  H  H1655  1  0.068600  0.355100  0.182900  1
  H  H1656  1  0.068600  0.644900  0.817100  1
  H  H1657  1  0.547200  0.819500  0.324600  1
  H  H1658  1  0.547200  0.180500  0.675400  1
  H  H1659  1  0.047200  0.819500  0.675400  1
  H  H1660  1  0.047200  0.180500  0.324600  1
  H  H1661  1  0.547200  0.319500  0.824600  1
  H  H1662  1  0.547200  0.680500  0.175400  1
  H  H1663  1  0.047200  0.319500  0.175400  1
  H  H1664  1  0.047200  0.680500  0.824600  1
  H  H1665  1  0.501400  0.830500  0.375600  1
  H  H1666  1  0.501400  0.169500  0.624400  1
  H  H1667  1  0.001400  0.830500  0.624400  1
  H  H1668  1  0.001400  0.169500  0.375600  1
  H  H1669  1  0.501400  0.330500  0.875600  1
  H  H1670  1  0.501400  0.669500  0.124400  1
  H  H1671  1  0.001400  0.330500  0.124400  1
  H  H1672  1  0.001400  0.669500  0.875600  1
  H  H1673  1  0.525700  0.864100  0.384500  1
  H  H1674  1  0.525700  0.135900  0.615500  1
  H  H1675  1  0.025700  0.864100  0.615500  1
  H  H1676  1  0.025700  0.135900  0.384500  1
  H  H1677  1  0.525700  0.364100  0.884500  1
  H  H1678  1  0.525700  0.635900  0.115500  1
  H  H1679  1  0.025700  0.364100  0.115500  1
  H  H1680  1  0.025700  0.635900  0.884500  1
  H  H1681  1  0.473300  0.900800  0.378200  1
  H  H1682  1  0.473300  0.099200  0.621800  1
  H  H1683  1  0.973300  0.900800  0.621800  1
  H  H1684  1  0.973300  0.099200  0.378200  1
  H  H1685  1  0.473300  0.400800  0.878200  1
  H  H1686  1  0.473300  0.599200  0.121800  1
  H  H1687  1  0.973300  0.400800  0.121800  1
  H  H1688  1  0.973300  0.599200  0.878200  1
  H  H1689  1  0.466200  0.873200  0.403700  1
  H  H1690  1  0.466200  0.126800  0.596300  1
  H  H1691  1  0.966200  0.873200  0.596300  1
  H  H1692  1  0.966200  0.126800  0.403700  1
  H  H1693  1  0.466200  0.373200  0.903700  1
  H  H1694  1  0.466200  0.626800  0.096300  1
  H  H1695  1  0.966200  0.373200  0.096300  1
  H  H1696  1  0.966200  0.626800  0.903700  1
  H  H1697  1  0.148400  0.911000  0.126200  1
  H  H1698  1  0.148400  0.089000  0.873800  1
  H  H1699  1  0.648400  0.911000  0.873800  1
  H  H1700  1  0.648400  0.089000  0.126200  1
  H  H1701  1  0.148400  0.411000  0.626200  1
  H  H1702  1  0.148400  0.589000  0.373800  1
  H  H1703  1  0.648400  0.411000  0.373800  1
  H  H1704  1  0.648400  0.589000  0.626200  1
  H  H1705  1  0.190700  0.901200  0.130300  1
  H  H1706  1  0.190700  0.098800  0.869700  1
  H  H1707  1  0.690700  0.901200  0.869700  1
  H  H1708  1  0.690700  0.098800  0.130300  1
  H  H1709  1  0.190700  0.401200  0.630300  1
  H  H1710  1  0.190700  0.598800  0.369700  1
  H  H1711  1  0.690700  0.401200  0.369700  1
  H  H1712  1  0.690700  0.598800  0.630300  1
  H  H1713  1  0.130800  0.923200  0.202500  1
  H  H1714  1  0.130800  0.076800  0.797500  1
  H  H1715  1  0.630800  0.923200  0.797500  1
  H  H1716  1  0.630800  0.076800  0.202500  1
  H  H1717  1  0.130800  0.423200  0.702500  1
  H  H1718  1  0.130800  0.576800  0.297500  1
  H  H1719  1  0.630800  0.423200  0.297500  1
  H  H1720  1  0.630800  0.576800  0.702500  1
  H  H1721  1  0.112700  0.927900  0.170600  1
  H  H1722  1  0.112700  0.072100  0.829400  1
  H  H1723  1  0.612700  0.927900  0.829400  1
  H  H1724  1  0.612700  0.072100  0.170600  1
  H  H1725  1  0.112700  0.427900  0.670600  1
  H  H1726  1  0.112700  0.572100  0.329400  1
  H  H1727  1  0.612700  0.427900  0.329400  1
  H  H1728  1  0.612700  0.572100  0.670600  1
  H  H1729  1  0.196000  0.905700  0.208100  1
  H  H1730  1  0.196000  0.094300  0.791900  1
  H  H1731  1  0.696000  0.905700  0.791900  1
  H  H1732  1  0.696000  0.094300  0.208100  1
  H  H1733  1  0.196000  0.405700  0.708100  1
  H  H1734  1  0.196000  0.594300  0.291900  1
  H  H1735  1  0.696000  0.405700  0.291900  1
  H  H1736  1  0.696000  0.594300  0.708100  1
  H  H1737  1  0.219000  0.895100  0.179300  1
  H  H1738  1  0.219000  0.104900  0.820700  1
  H  H1739  1  0.719000  0.895100  0.820700  1
  H  H1740  1  0.719000  0.104900  0.179300  1
  H  H1741  1  0.219000  0.395100  0.679300  1
  H  H1742  1  0.219000  0.604900  0.320700  1
  H  H1743  1  0.719000  0.395100  0.320700  1
  H  H1744  1  0.719000  0.604900  0.679300  1
  H  H1745  1  0.184400  0.961300  0.112700  1
  H  H1746  1  0.184400  0.038700  0.887300  1
  H  H1747  1  0.684400  0.961300  0.887300  1
  H  H1748  1  0.684400  0.038700  0.112700  1
  H  H1749  1  0.184400  0.461300  0.612700  1
  H  H1750  1  0.184400  0.538700  0.387300  1
  H  H1751  1  0.684400  0.461300  0.387300  1
  H  H1752  1  0.684400  0.538700  0.612700  1
  H  H1753  1  0.159500  0.002900  0.147600  1
  H  H1754  1  0.159500  0.997100  0.852400  1
  H  H1755  1  0.659500  0.002900  0.852400  1
  H  H1756  1  0.659500  0.997100  0.147600  1
  H  H1757  1  0.159500  0.502900  0.647600  1
  H  H1758  1  0.159500  0.497100  0.352400  1
  H  H1759  1  0.659500  0.502900  0.352400  1
  H  H1760  1  0.659500  0.497100  0.647600  1
  H  H1761  1  0.128400  0.975200  0.139300  1
  H  H1762  1  0.128400  0.024800  0.860700  1
  H  H1763  1  0.628400  0.975200  0.860700  1
  H  H1764  1  0.628400  0.024800  0.139300  1
  H  H1765  1  0.128400  0.475200  0.639300  1
  H  H1766  1  0.128400  0.524800  0.360700  1
  H  H1767  1  0.628400  0.475200  0.360700  1
  H  H1768  1  0.628400  0.524800  0.639300  1
  H  H1769  1  0.128200  0.984100  0.190800  1
  H  H1770  1  0.128200  0.015900  0.809200  1
  H  H1771  1  0.628200  0.984100  0.809200  1
  H  H1772  1  0.628200  0.015900  0.190800  1
  H  H1773  1  0.128200  0.484100  0.690800  1
  H  H1774  1  0.128200  0.515900  0.309200  1
  H  H1775  1  0.628200  0.484100  0.309200  1
  H  H1776  1  0.628200  0.515900  0.690800  1
  H  H1777  1  0.182000  0.970900  0.218900  1
  H  H1778  1  0.182000  0.029100  0.781100  1
  H  H1779  1  0.682000  0.970900  0.781100  1
  H  H1780  1  0.682000  0.029100  0.218900  1
  H  H1781  1  0.182000  0.470900  0.718900  1
  H  H1782  1  0.182000  0.529100  0.281100  1
  H  H1783  1  0.682000  0.470900  0.281100  1
  H  H1784  1  0.682000  0.529100  0.718900  1
  H  H1785  1  0.192800  0.999500  0.194500  1
  H  H1786  1  0.192800  0.000500  0.805500  1
  H  H1787  1  0.692800  0.999500  0.805500  1
  H  H1788  1  0.692800  0.000500  0.194500  1
  H  H1789  1  0.192800  0.499500  0.694500  1
  H  H1790  1  0.192800  0.500500  0.305500  1
  H  H1791  1  0.692800  0.499500  0.305500  1
  H  H1792  1  0.692800  0.500500  0.694500  1
  H  H1793  1  0.236700  0.951900  0.194500  1
  H  H1794  1  0.236700  0.048100  0.805500  1
  H  H1795  1  0.736700  0.951900  0.805500  1
  H  H1796  1  0.736700  0.048100  0.194500  1
  H  H1797  1  0.236700  0.451900  0.694500  1
  H  H1798  1  0.236700  0.548100  0.305500  1
  H  H1799  1  0.736700  0.451900  0.305500  1
  H  H1800  1  0.736700  0.548100  0.694500  1
  H  H1801  1  0.237800  0.942700  0.143700  1
  H  H1802  1  0.237800  0.057300  0.856300  1
  H  H1803  1  0.737800  0.942700  0.856300  1
  H  H1804  1  0.737800  0.057300  0.143700  1
  H  H1805  1  0.237800  0.442700  0.643700  1
  H  H1806  1  0.237800  0.557300  0.356300  1
  H  H1807  1  0.737800  0.442700  0.356300  1
  H  H1808  1  0.737800  0.557300  0.643700  1
  H  H1809  1  0.228300  0.982600  0.150900  1
  H  H1810  1  0.228300  0.017400  0.849100  1
  H  H1811  1  0.728300  0.982600  0.849100  1
  H  H1812  1  0.728300  0.017400  0.150900  1
  H  H1813  1  0.228300  0.482600  0.650900  1
  H  H1814  1  0.228300  0.517400  0.349100  1
  H  H1815  1  0.728300  0.482600  0.349100  1
  H  H1816  1  0.728300  0.517400  0.650900  1
  H  H1817  1  0.295200  0.009900  0.332800  1
  H  H1818  1  0.295200  0.990100  0.667200  1
  H  H1819  1  0.795200  0.009900  0.667200  1
  H  H1820  1  0.795200  0.990100  0.332800  1
  H  H1821  1  0.295200  0.509900  0.832800  1
  H  H1822  1  0.295200  0.490100  0.167200  1
  H  H1823  1  0.795200  0.509900  0.167200  1
  H  H1824  1  0.795200  0.490100  0.832800  1
  H  H1825  1  0.251900  0.007500  0.327400  1
  H  H1826  1  0.251900  0.992500  0.672600  1
  H  H1827  1  0.751900  0.007500  0.672600  1
  H  H1828  1  0.751900  0.992500  0.327400  1
  H  H1829  1  0.251900  0.507500  0.827400  1
  H  H1830  1  0.251900  0.492500  0.172600  1
  H  H1831  1  0.751900  0.507500  0.172600  1
  H  H1832  1  0.751900  0.492500  0.827400  1
  H  H1833  1  0.309500  0.918000  0.323500  1
  H  H1834  1  0.309500  0.082000  0.676500  1
  H  H1835  1  0.809500  0.918000  0.676500  1
  H  H1836  1  0.809500  0.082000  0.323500  1
  H  H1837  1  0.309500  0.418000  0.823500  1
  H  H1838  1  0.309500  0.582000  0.176500  1
  H  H1839  1  0.809500  0.418000  0.176500  1
  H  H1840  1  0.809500  0.582000  0.823500  1
  H  H1841  1  0.331700  0.953500  0.328700  1
  H  H1842  1  0.331700  0.046500  0.671300  1
  H  H1843  1  0.831700  0.953500  0.671300  1
  H  H1844  1  0.831700  0.046500  0.328700  1
  H  H1845  1  0.331700  0.453500  0.828700  1
  H  H1846  1  0.331700  0.546500  0.171300  1
  H  H1847  1  0.831700  0.453500  0.171300  1
  H  H1848  1  0.831700  0.546500  0.828700  1
  H  H1849  1  0.243900  0.917400  0.315900  1
  H  H1850  1  0.243900  0.082600  0.684100  1
  H  H1851  1  0.743900  0.917400  0.684100  1
  H  H1852  1  0.743900  0.082600  0.315900  1
  H  H1853  1  0.243900  0.417400  0.815900  1
  H  H1854  1  0.243900  0.582600  0.184100  1
  H  H1855  1  0.743900  0.417400  0.184100  1
  H  H1856  1  0.743900  0.582600  0.815900  1
  H  H1857  1  0.220900  0.952900  0.318600  1
  H  H1858  1  0.220900  0.047100  0.681400  1
  H  H1859  1  0.720900  0.952900  0.681400  1
  H  H1860  1  0.720900  0.047100  0.318600  1
  H  H1861  1  0.220900  0.452900  0.818600  1
  H  H1862  1  0.220900  0.547100  0.181400  1
  H  H1863  1  0.720900  0.452900  0.181400  1
  H  H1864  1  0.720900  0.547100  0.818600  1
  H  H1865  1  0.283200  0.030700  0.283500  1
  H  H1866  1  0.283200  0.969300  0.716500  1
  H  H1867  1  0.783200  0.030700  0.716500  1
  H  H1868  1  0.783200  0.969300  0.283500  1
  H  H1869  1  0.283200  0.530700  0.783500  1
  H  H1870  1  0.283200  0.469300  0.216500  1
  H  H1871  1  0.783200  0.530700  0.216500  1
  H  H1872  1  0.783200  0.469300  0.783500  1
  H  H1873  1  0.321300  0.989300  0.257400  1
  H  H1874  1  0.321300  0.010700  0.742600  1
  H  H1875  1  0.821300  0.989300  0.742600  1
  H  H1876  1  0.821300  0.010700  0.257400  1
  H  H1877  1  0.321300  0.489300  0.757400  1
  H  H1878  1  0.321300  0.510700  0.242600  1
  H  H1879  1  0.821300  0.489300  0.242600  1
  H  H1880  1  0.821300  0.510700  0.757400  1
  H  H1881  1  0.338200  0.995600  0.289500  1
  H  H1882  1  0.338200  0.004400  0.710500  1
  H  H1883  1  0.838200  0.995600  0.710500  1
  H  H1884  1  0.838200  0.004400  0.289500  1
  H  H1885  1  0.338200  0.495600  0.789500  1
  H  H1886  1  0.338200  0.504400  0.210500  1
  H  H1887  1  0.838200  0.495600  0.210500  1
  H  H1888  1  0.838200  0.504400  0.789500  1
  H  H1889  1  0.339800  0.935900  0.278400  1
  H  H1890  1  0.339800  0.064100  0.721600  1
  H  H1891  1  0.839800  0.935900  0.721600  1
  H  H1892  1  0.839800  0.064100  0.278400  1
  H  H1893  1  0.339800  0.435900  0.778400  1
  H  H1894  1  0.339800  0.564100  0.221600  1
  H  H1895  1  0.839800  0.435900  0.221600  1
  H  H1896  1  0.839800  0.564100  0.778400  1
  H  H1897  1  0.283000  0.905100  0.270400  1
  H  H1898  1  0.283000  0.094900  0.729600  1
  H  H1899  1  0.783000  0.905100  0.729600  1
  H  H1900  1  0.783000  0.094900  0.270400  1
  H  H1901  1  0.283000  0.405100  0.770400  1
  H  H1902  1  0.283000  0.594900  0.229600  1
  H  H1903  1  0.783000  0.405100  0.229600  1
  H  H1904  1  0.783000  0.594900  0.770400  1
  H  H1905  1  0.287100  0.934900  0.245600  1
  H  H1906  1  0.287100  0.065100  0.754400  1
  H  H1907  1  0.787100  0.934900  0.754400  1
  H  H1908  1  0.787100  0.065100  0.245600  1
  H  H1909  1  0.287100  0.434900  0.745600  1
  H  H1910  1  0.287100  0.565100  0.254400  1
  H  H1911  1  0.787100  0.434900  0.254400  1
  H  H1912  1  0.787100  0.565100  0.745600  1
  H  H1913  1  0.226900  0.937600  0.268600  1
  H  H1914  1  0.226900  0.062400  0.731400  1
  H  H1915  1  0.726900  0.937600  0.731400  1
  H  H1916  1  0.726900  0.062400  0.268600  1
  H  H1917  1  0.226900  0.437600  0.768600  1
  H  H1918  1  0.226900  0.562400  0.231400  1
  H  H1919  1  0.726900  0.437600  0.231400  1
  H  H1920  1  0.726900  0.562400  0.768600  1
  H  H1921  1  0.224800  0.996900  0.278000  1
  H  H1922  1  0.224800  0.003100  0.722000  1
  H  H1923  1  0.724800  0.996900  0.722000  1
  H  H1924  1  0.724800  0.003100  0.278000  1
  H  H1925  1  0.224800  0.496900  0.778000  1
  H  H1926  1  0.224800  0.503100  0.222000  1
  H  H1927  1  0.724800  0.496900  0.222000  1
  H  H1928  1  0.724800  0.503100  0.778000  1
  H  H1929  1  0.250400  0.989600  0.250000  1
  H  H1930  1  0.250400  0.010400  0.750000  1
  H  H1931  1  0.750400  0.989600  0.750000  1
  H  H1932  1  0.750400  0.010400  0.250000  1
  H  H1933  1  0.250400  0.489600  0.750000  1
  H  H1934  1  0.250400  0.510400  0.250000  1
  H  H1935  1  0.750400  0.489600  0.250000  1
  H  H1936  1  0.750400  0.510400  0.750000  1
  H  H1937  1  0.238000  0.140600  0.033900  1.0
  H  H1938  1  0.238000  0.859400  0.966100  1.0
  H  H1939  1  0.738000  0.140600  0.966100  1.0
  H  H1940  1  0.738000  0.859400  0.033900  1.0
  H  H1941  1  0.238000  0.640600  0.533900  1.0
  H  H1942  1  0.238000  0.359400  0.466100  1.0
  H  H1943  1  0.738000  0.640600  0.466100  1.0
  H  H1944  1  0.738000  0.359400  0.533900  1.0
  H  H1945  1  0.274000  0.092400  0.024300  1.0
  H  H1946  1  0.274000  0.907600  0.975700  1.0
  H  H1947  1  0.774000  0.092400  0.975700  1.0
  H  H1948  1  0.774000  0.907600  0.024300  1.0
  H  H1949  1  0.274000  0.592400  0.524300  1.0
  H  H1950  1  0.274000  0.407600  0.475700  1.0
  H  H1951  1  0.774000  0.592400  0.475700  1.0
  H  H1952  1  0.774000  0.407600  0.524300  1.0
  H  H1953  1  0.180500  0.046100  0.994000  1.0
  H  H1954  1  0.180500  0.953900  0.006000  1.0
  H  H1955  1  0.680500  0.046100  0.006000  1.0
  H  H1956  1  0.680500  0.953900  0.994000  1.0
  H  H1957  1  0.180500  0.546100  0.494000  1.0
  H  H1958  1  0.180500  0.453900  0.506000  1.0
  H  H1959  1  0.680500  0.546100  0.506000  1.0
  H  H1960  1  0.680500  0.453900  0.494000  1.0
  H  H1961  1  0.150200  0.097500  0.001900  1.0
  H  H1962  1  0.150200  0.902500  0.998100  1.0
  H  H1963  1  0.650200  0.097500  0.998100  1.0
  H  H1964  1  0.650200  0.902500  0.001900  1.0
  H  H1965  1  0.150200  0.597500  0.501900  1.0
  H  H1966  1  0.150200  0.402500  0.498100  1.0
  H  H1967  1  0.650200  0.597500  0.498100  1.0
  H  H1968  1  0.650200  0.402500  0.501900  1.0
  H  H1969  1  0.418800  0.051100  0.997800  1.0
  H  H1970  1  0.418800  0.948900  0.002200  1.0
  H  H1971  1  0.918800  0.051100  0.002200  1.0
  H  H1972  1  0.918800  0.948900  0.997800  1.0
  H  H1973  1  0.418800  0.551100  0.497800  1.0
  H  H1974  1  0.418800  0.448900  0.502200  1.0
  H  H1975  1  0.918800  0.551100  0.502200  1.0
  H  H1976  1  0.918800  0.448900  0.497800  1.0
  H  H1977  1  0.355600  0.052700  0.997100  1.0
  H  H1978  1  0.355600  0.947300  0.002900  1.0
  H  H1979  1  0.855600  0.052700  0.002900  1.0
  H  H1980  1  0.855600  0.947300  0.997100  1.0
  H  H1981  1  0.355600  0.552700  0.497100  1.0
  H  H1982  1  0.355600  0.447300  0.502900  1.0
  H  H1983  1  0.855600  0.552700  0.502900  1.0
  H  H1984  1  0.855600  0.447300  0.497100  1.0
  H  H1985  1  0.119300  0.758000  0.333800  1.0
  H  H1986  1  0.119300  0.242000  0.666200  1.0
  H  H1987  1  0.619300  0.758000  0.666200  1.0
  H  H1988  1  0.619300  0.242000  0.333800  1.0
  H  H1989  1  0.119300  0.258000  0.833800  1.0
  H  H1990  1  0.119300  0.742000  0.166200  1.0
  H  H1991  1  0.619300  0.258000  0.166200  1.0
  H  H1992  1  0.619300  0.742000  0.833800  1.0
  H  H1993  1  0.151500  0.744700  0.289900  1.0
  H  H1994  1  0.151500  0.255300  0.710100  1.0
  H  H1995  1  0.651500  0.744700  0.710100  1.0
  H  H1996  1  0.651500  0.255300  0.289900  1.0
  H  H1997  1  0.151500  0.244700  0.789900  1.0
  H  H1998  1  0.151500  0.755300  0.210100  1.0
  H  H1999  1  0.651500  0.244700  0.210100  1.0
  H  H2000  1  0.651500  0.755300  0.789900  1.0
  H  H2001  1  0.244700  0.787200  0.325100  1.0
  H  H2002  1  0.244700  0.212800  0.674900  1.0
  H  H2003  1  0.744700  0.787200  0.674900  1.0
  H  H2004  1  0.744700  0.212800  0.325100  1.0
  H  H2005  1  0.244700  0.287200  0.825100  1.0
  H  H2006  1  0.244700  0.712800  0.174900  1.0
  H  H2007  1  0.744700  0.287200  0.174900  1.0
  H  H2008  1  0.744700  0.712800  0.825100  1.0
  H  H2009  1  0.212600  0.800400  0.369000  1.0
  H  H2010  1  0.212600  0.199600  0.631000  1.0
  H  H2011  1  0.712600  0.800400  0.631000  1.0
  H  H2012  1  0.712600  0.199600  0.369000  1.0
  H  H2013  1  0.212600  0.300400  0.869000  1.0
  H  H2014  1  0.212600  0.699600  0.131000  1.0
  H  H2015  1  0.712600  0.300400  0.131000  1.0
  H  H2016  1  0.712600  0.699600  0.869000  1.0
  H  H2017  1  0.392100  0.747600  0.294400  1.0
  H  H2018  1  0.392100  0.252400  0.705600  1.0
  H  H2019  1  0.892100  0.747600  0.705600  1.0
  H  H2020  1  0.892100  0.252400  0.294400  1.0
  H  H2021  1  0.392100  0.247600  0.794400  1.0
  H  H2022  1  0.392100  0.752400  0.205600  1.0
  H  H2023  1  0.892100  0.247600  0.205600  1.0
  H  H2024  1  0.892100  0.752400  0.794400  1.0
  H  H2025  1  0.328400  0.748500  0.295900  1.0
  H  H2026  1  0.328400  0.251500  0.704100  1.0
  H  H2027  1  0.828400  0.748500  0.704100  1.0
  H  H2028  1  0.828400  0.251500  0.295900  1.0
  H  H2029  1  0.328400  0.248500  0.795900  1.0
  H  H2030  1  0.328400  0.751500  0.204100  1.0
  H  H2031  1  0.828400  0.248500  0.204100  1.0
  H  H2032  1  0.828400  0.751500  0.795900  1.0
  Ru  Ru2033  1  0.104704  0.115973  0.099125  1
  Ru  Ru2034  1  0.104704  0.884027  0.900875  1
  Ru  Ru2035  1  0.604704  0.115973  0.900875  1
  Ru  Ru2036  1  0.604704  0.884027  0.099125  1
  Ru  Ru2037  1  0.104704  0.615973  0.599125  1
  Ru  Ru2038  1  0.104704  0.384027  0.400875  1
  Ru  Ru2039  1  0.604704  0.615973  0.400875  1
  Ru  Ru2040  1  0.604704  0.384027  0.599125  1
  Ru  Ru2041  1  0.474563  0.076448  0.087060  1
  Ru  Ru2042  1  0.474563  0.923552  0.912940  1
  Ru  Ru2043  1  0.974563  0.076448  0.912940  1
  Ru  Ru2044  1  0.974563  0.923552  0.087060  1
  Ru  Ru2045  1  0.474563  0.576448  0.587060  1
  Ru  Ru2046  1  0.474563  0.423552  0.412940  1
  Ru  Ru2047  1  0.974563  0.576448  0.412940  1
  Ru  Ru2048  1  0.974563  0.423552  0.587060  1
  Ru  Ru2049  1  0.245450  0.794140  0.066000  1
  Ru  Ru2050  1  0.245450  0.205860  0.934000  1
  Ru  Ru2051  1  0.745450  0.794140  0.934000  1
  Ru  Ru2052  1  0.745450  0.205860  0.066000  1
  Ru  Ru2053  1  0.245450  0.294140  0.566000  1
  Ru  Ru2054  1  0.245450  0.705860  0.434000  1
  Ru  Ru2055  1  0.745450  0.294140  0.434000  1
  Ru  Ru2056  1  0.745450  0.705860  0.566000  1
  Ru  Ru2057  1  0.079060  0.883220  0.321400  1
  Ru  Ru2058  1  0.079060  0.116780  0.678600  1
  Ru  Ru2059  1  0.579060  0.883220  0.678600  1
  Ru  Ru2060  1  0.579060  0.116780  0.321400  1
  Ru  Ru2061  1  0.079060  0.383220  0.821400  1
  Ru  Ru2062  1  0.079060  0.616780  0.178600  1
  Ru  Ru2063  1  0.579060  0.383220  0.178600  1
  Ru  Ru2064  1  0.579060  0.616780  0.821400  1
  Ru  Ru2065  1  0.308050  0.167799  0.347812  1
  Ru  Ru2066  1  0.308050  0.832201  0.652188  1
  Ru  Ru2067  1  0.808050  0.167799  0.652188  1
  Ru  Ru2068  1  0.808050  0.832201  0.347812  1
  Ru  Ru2069  1  0.308050  0.667799  0.847812  1
  Ru  Ru2070  1  0.308050  0.332201  0.152188  1
  Ru  Ru2071  1  0.808050  0.667799  0.152188  1
  Ru  Ru2072  1  0.808050  0.332201  0.847812  1
  Ru  Ru2073  1  0.447680  0.847450  0.316932  1
  Ru  Ru2074  1  0.447680  0.152550  0.683068  1
  Ru  Ru2075  1  0.947680  0.847450  0.683068  1
  Ru  Ru2076  1  0.947680  0.152550  0.316932  1
  Ru  Ru2077  1  0.447680  0.347450  0.816932  1
  Ru  Ru2078  1  0.447680  0.652550  0.183068  1
  Ru  Ru2079  1  0.947680  0.347450  0.183068  1
  Ru  Ru2080  1  0.947680  0.652550  0.816932  1
  C  C2081  1  0.186700  0.095910  0.094700  1
  C  C2082  1  0.186700  0.904090  0.905300  1
  C  C2083  1  0.686700  0.095910  0.905300  1
  C  C2084  1  0.686700  0.904090  0.094700  1
  C  C2085  1  0.186700  0.595910  0.594700  1
  C  C2086  1  0.186700  0.404090  0.405300  1
  C  C2087  1  0.686700  0.595910  0.405300  1
  C  C2088  1  0.686700  0.404090  0.594700  1
  C  C2089  1  0.218300  0.075700  0.091140  1
  C  C2090  1  0.218300  0.924300  0.908860  1
  C  C2091  1  0.718300  0.075700  0.908860  1
  C  C2092  1  0.718300  0.924300  0.091140  1
  C  C2093  1  0.218300  0.575700  0.591140  1
  C  C2094  1  0.218300  0.424300  0.408860  1
  C  C2095  1  0.718300  0.575700  0.408860  1
  C  C2096  1  0.718300  0.424300  0.591140  1
  C  C2097  1  0.214410  0.040280  0.082060  1
  C  C2098  1  0.214410  0.959720  0.917940  1
  C  C2099  1  0.714410  0.040280  0.917940  1
  C  C2100  1  0.714410  0.959720  0.082060  1
  C  C2101  1  0.214410  0.540280  0.582060  1
  C  C2102  1  0.214410  0.459720  0.417940  1
  C  C2103  1  0.714410  0.540280  0.417940  1
  C  C2104  1  0.714410  0.459720  0.582060  1
  C  C2105  1  0.179500  0.026800  0.076920  1
  C  C2106  1  0.179500  0.973200  0.923080  1
  C  C2107  1  0.679500  0.026800  0.923080  1
  C  C2108  1  0.679500  0.973200  0.076920  1
  C  C2109  1  0.179500  0.526800  0.576920  1
  C  C2110  1  0.179500  0.473200  0.423080  1
  C  C2111  1  0.679500  0.526800  0.423080  1
  C  C2112  1  0.679500  0.473200  0.576920  1
  C  C2113  1  0.148500  0.049980  0.080710  1
  C  C2114  1  0.148500  0.950020  0.919290  1
  C  C2115  1  0.648500  0.049980  0.919290  1
  C  C2116  1  0.648500  0.950020  0.080710  1
  C  C2117  1  0.148500  0.549980  0.580710  1
  C  C2118  1  0.148500  0.450020  0.419290  1
  C  C2119  1  0.648500  0.549980  0.419290  1
  C  C2120  1  0.648500  0.450020  0.580710  1
  C  C2121  1  0.414200  0.019800  0.078410  1
  C  C2122  1  0.414200  0.980200  0.921590  1
  C  C2123  1  0.914200  0.019800  0.921590  1
  C  C2124  1  0.914200  0.980200  0.078410  1
  C  C2125  1  0.414200  0.519800  0.578410  1
  C  C2126  1  0.414200  0.480200  0.421590  1
  C  C2127  1  0.914200  0.519800  0.421590  1
  C  C2128  1  0.914200  0.480200  0.578410  1
  C  C2129  1  0.379800  0.004300  0.076310  1
  C  C2130  1  0.379800  0.995700  0.923690  1
  C  C2131  1  0.879800  0.004300  0.923690  1
  C  C2132  1  0.879800  0.995700  0.076310  1
  C  C2133  1  0.379800  0.504300  0.576310  1
  C  C2134  1  0.379800  0.495700  0.423690  1
  C  C2135  1  0.879800  0.504300  0.423690  1
  C  C2136  1  0.879800  0.495700  0.576310  1
  C  C2137  1  0.347980  0.025800  0.078030  1
  C  C2138  1  0.347980  0.974200  0.921970  1
  C  C2139  1  0.847980  0.025800  0.921970  1
  C  C2140  1  0.847980  0.974200  0.078030  1
  C  C2141  1  0.347980  0.525800  0.578030  1
  C  C2142  1  0.347980  0.474200  0.421970  1
  C  C2143  1  0.847980  0.525800  0.421970  1
  C  C2144  1  0.847980  0.474200  0.578030  1
  C  C2145  1  0.353200  0.061600  0.081350  1
  C  C2146  1  0.353200  0.938400  0.918650  1
  C  C2147  1  0.853200  0.061600  0.918650  1
  C  C2148  1  0.853200  0.938400  0.081350  1
  C  C2149  1  0.353200  0.561600  0.581350  1
  C  C2150  1  0.353200  0.438400  0.418650  1
  C  C2151  1  0.853200  0.561600  0.418650  1
  C  C2152  1  0.853200  0.438400  0.581350  1
  C  C2153  1  0.389000  0.075400  0.083230  1
  C  C2154  1  0.389000  0.924600  0.916770  1
  C  C2155  1  0.889000  0.075400  0.916770  1
  C  C2156  1  0.889000  0.924600  0.083230  1
  C  C2157  1  0.389000  0.575400  0.583230  1
  C  C2158  1  0.389000  0.424600  0.416770  1
  C  C2159  1  0.889000  0.575400  0.416770  1
  C  C2160  1  0.889000  0.424600  0.583230  1
  C  C2161  1  0.225900  0.873300  0.066300  1
  C  C2162  1  0.225900  0.126700  0.933700  1
  C  C2163  1  0.725900  0.873300  0.933700  1
  C  C2164  1  0.725900  0.126700  0.066300  1
  C  C2165  1  0.225900  0.373300  0.566300  1
  C  C2166  1  0.225900  0.626700  0.433700  1
  C  C2167  1  0.725900  0.373300  0.433700  1
  C  C2168  1  0.725900  0.626700  0.566300  1
  C  C2169  1  0.230500  0.909200  0.067720  1
  C  C2170  1  0.230500  0.090800  0.932280  1
  C  C2171  1  0.730500  0.909200  0.932280  1
  C  C2172  1  0.730500  0.090800  0.067720  1
  C  C2173  1  0.230500  0.409200  0.567720  1
  C  C2174  1  0.230500  0.590800  0.432280  1
  C  C2175  1  0.730500  0.409200  0.432280  1
  C  C2176  1  0.730500  0.590800  0.567720  1
  C  C2177  1  0.266400  0.924200  0.067190  1
  C  C2178  1  0.266400  0.075800  0.932810  1
  C  C2179  1  0.766400  0.924200  0.932810  1
  C  C2180  1  0.766400  0.075800  0.067190  1
  C  C2181  1  0.266400  0.424200  0.567190  1
  C  C2182  1  0.266400  0.575800  0.432810  1
  C  C2183  1  0.766400  0.424200  0.432810  1
  C  C2184  1  0.766400  0.575800  0.567190  1
  C  C2185  1  0.296400  0.901100  0.063500  1
  C  C2186  1  0.296400  0.098900  0.936500  1
  C  C2187  1  0.796400  0.901100  0.936500  1
  C  C2188  1  0.796400  0.098900  0.063500  1
  C  C2189  1  0.296400  0.401100  0.563500  1
  C  C2190  1  0.296400  0.598900  0.436500  1
  C  C2191  1  0.796400  0.401100  0.436500  1
  C  C2192  1  0.796400  0.598900  0.563500  1
  C  C2193  1  0.289500  0.865100  0.062100  1
  C  C2194  1  0.289500  0.134900  0.937900  1
  C  C2195  1  0.789500  0.865100  0.937900  1
  C  C2196  1  0.789500  0.134900  0.062100  1
  C  C2197  1  0.289500  0.365100  0.562100  1
  C  C2198  1  0.289500  0.634900  0.437900  1
  C  C2199  1  0.789500  0.365100  0.437900  1
  C  C2200  1  0.789500  0.634900  0.562100  1
  C  C2201  1  0.247100  0.017300  0.078230  1
  C  C2202  1  0.247100  0.982700  0.921770  1
  C  C2203  1  0.747100  0.017300  0.921770  1
  C  C2204  1  0.747100  0.982700  0.078230  1
  C  C2205  1  0.247100  0.517300  0.578230  1
  C  C2206  1  0.247100  0.482700  0.421770  1
  C  C2207  1  0.747100  0.517300  0.421770  1
  C  C2208  1  0.747100  0.482700  0.578230  1
  C  C2209  1  0.310140  0.010500  0.076410  1
  C  C2210  1  0.310140  0.989500  0.923590  1
  C  C2211  1  0.810140  0.010500  0.923590  1
  C  C2212  1  0.810140  0.989500  0.076410  1
  C  C2213  1  0.310140  0.510500  0.576410  1
  C  C2214  1  0.310140  0.489500  0.423590  1
  C  C2215  1  0.810140  0.510500  0.423590  1
  C  C2216  1  0.810140  0.489500  0.576410  1
  C  C2217  1  0.272100  0.962800  0.071020  1
  C  C2218  1  0.272100  0.037200  0.928980  1
  C  C2219  1  0.772100  0.962800  0.928980  1
  C  C2220  1  0.772100  0.037200  0.071020  1
  C  C2221  1  0.272100  0.462800  0.571020  1
  C  C2222  1  0.272100  0.537200  0.428980  1
  C  C2223  1  0.772100  0.462800  0.428980  1
  C  C2224  1  0.772100  0.537200  0.571020  1
  C  C2225  1  0.104200  0.073500  0.157660  1
  C  C2226  1  0.104200  0.926500  0.842340  1
  C  C2227  1  0.604200  0.073500  0.842340  1
  C  C2228  1  0.604200  0.926500  0.157660  1
  C  C2229  1  0.104200  0.573500  0.657660  1
  C  C2230  1  0.104200  0.426500  0.342340  1
  C  C2231  1  0.604200  0.573500  0.342340  1
  C  C2232  1  0.604200  0.426500  0.657660  1
  C  C2233  1  0.114800  0.061400  0.186090  1
  C  C2234  1  0.114800  0.938600  0.813910  1
  C  C2235  1  0.614800  0.061400  0.813910  1
  C  C2236  1  0.614800  0.938600  0.186090  1
  C  C2237  1  0.114800  0.561400  0.686090  1
  C  C2238  1  0.114800  0.438600  0.313910  1
  C  C2239  1  0.614800  0.561400  0.313910  1
  C  C2240  1  0.614800  0.438600  0.686090  1
  C  C2241  1  0.141200  0.080800  0.202440  1
  C  C2242  1  0.141200  0.919200  0.797560  1
  C  C2243  1  0.641200  0.080800  0.797560  1
  C  C2244  1  0.641200  0.919200  0.202440  1
  C  C2245  1  0.141200  0.580800  0.702440  1
  C  C2246  1  0.141200  0.419200  0.297560  1
  C  C2247  1  0.641200  0.580800  0.297560  1
  C  C2248  1  0.641200  0.419200  0.702440  1
  C  C2249  1  0.154600  0.111300  0.189270  1
  C  C2250  1  0.154600  0.888700  0.810730  1
  C  C2251  1  0.654600  0.111300  0.810730  1
  C  C2252  1  0.654600  0.888700  0.189270  1
  C  C2253  1  0.154600  0.611300  0.689270  1
  C  C2254  1  0.154600  0.388700  0.310730  1
  C  C2255  1  0.654600  0.611300  0.310730  1
  C  C2256  1  0.654600  0.388700  0.689270  1
  C  C2257  1  0.142400  0.121700  0.160710  1
  C  C2258  1  0.142400  0.878300  0.839290  1
  C  C2259  1  0.642400  0.121700  0.839290  1
  C  C2260  1  0.642400  0.878300  0.160710  1
  C  C2261  1  0.142400  0.621700  0.660710  1
  C  C2262  1  0.142400  0.378300  0.339290  1
  C  C2263  1  0.642400  0.621700  0.339290  1
  C  C2264  1  0.642400  0.378300  0.660710  1
  C  C2265  1  0.122200  0.955100  0.322800  1
  C  C2266  1  0.122200  0.044900  0.677200  1
  C  C2267  1  0.622200  0.955100  0.677200  1
  C  C2268  1  0.622200  0.044900  0.322800  1
  C  C2269  1  0.122200  0.455100  0.822800  1
  C  C2270  1  0.122200  0.544900  0.177200  1
  C  C2271  1  0.622200  0.455100  0.177200  1
  C  C2272  1  0.622200  0.544900  0.822800  1
  C  C2273  1  0.138600  0.985500  0.312700  1
  C  C2274  1  0.138600  0.014500  0.687300  1
  C  C2275  1  0.638600  0.985500  0.687300  1
  C  C2276  1  0.638600  0.014500  0.312700  1
  C  C2277  1  0.138600  0.485500  0.812700  1
  C  C2278  1  0.138600  0.514500  0.187300  1
  C  C2279  1  0.638600  0.485500  0.187300  1
  C  C2280  1  0.638600  0.514500  0.812700  1
  C  C2281  1  0.131800  0.996100  0.282730  1
  C  C2282  1  0.131800  0.003900  0.717270  1
  C  C2283  1  0.631800  0.996100  0.717270  1
  C  C2284  1  0.631800  0.003900  0.282730  1
  C  C2285  1  0.131800  0.496100  0.782730  1
  C  C2286  1  0.131800  0.503900  0.217270  1
  C  C2287  1  0.631800  0.496100  0.217270  1
  C  C2288  1  0.631800  0.503900  0.782730  1
  C  C2289  1  0.108000  0.975200  0.266270  1
  C  C2290  1  0.108000  0.024800  0.733730  1
  C  C2291  1  0.608000  0.975200  0.733730  1
  C  C2292  1  0.608000  0.024800  0.266270  1
  C  C2293  1  0.108000  0.475200  0.766270  1
  C  C2294  1  0.108000  0.524800  0.233730  1
  C  C2295  1  0.608000  0.475200  0.233730  1
  C  C2296  1  0.608000  0.524800  0.766270  1
  C  C2297  1  0.092000  0.945400  0.278100  1
  C  C2298  1  0.092000  0.054600  0.721900  1
  C  C2299  1  0.592000  0.945400  0.721900  1
  C  C2300  1  0.592000  0.054600  0.278100  1
  C  C2301  1  0.092000  0.445400  0.778100  1
  C  C2302  1  0.092000  0.554600  0.221900  1
  C  C2303  1  0.592000  0.445400  0.221900  1
  C  C2304  1  0.592000  0.554600  0.778100  1
  C  C2305  1  0.253100  0.148200  0.297760  1
  C  C2306  1  0.253100  0.851800  0.702240  1
  C  C2307  1  0.753100  0.148200  0.702240  1
  C  C2308  1  0.753100  0.851800  0.297760  1
  C  C2309  1  0.253100  0.648200  0.797760  1
  C  C2310  1  0.253100  0.351800  0.202240  1
  C  C2311  1  0.753100  0.648200  0.202240  1
  C  C2312  1  0.753100  0.351800  0.797760  1
  C  C2313  1  0.228500  0.129000  0.280760  1
  C  C2314  1  0.228500  0.871000  0.719240  1
  C  C2315  1  0.728500  0.129000  0.719240  1
  C  C2316  1  0.728500  0.871000  0.280760  1
  C  C2317  1  0.228500  0.629000  0.780760  1
  C  C2318  1  0.228500  0.371000  0.219240  1
  C  C2319  1  0.728500  0.629000  0.219240  1
  C  C2320  1  0.728500  0.371000  0.780760  1
  C  C2321  1  0.213800  0.098000  0.291860  1
  C  C2322  1  0.213800  0.902000  0.708140  1
  C  C2323  1  0.713800  0.098000  0.708140  1
  C  C2324  1  0.713800  0.902000  0.291860  1
  C  C2325  1  0.213800  0.598000  0.791860  1
  C  C2326  1  0.213800  0.402000  0.208140  1
  C  C2327  1  0.713800  0.598000  0.208140  1
  C  C2328  1  0.713800  0.402000  0.791860  1
  C  C2329  1  0.224300  0.088000  0.320900  1
  C  C2330  1  0.224300  0.912000  0.679100  1
  C  C2331  1  0.724300  0.088000  0.679100  1
  C  C2332  1  0.724300  0.912000  0.320900  1
  C  C2333  1  0.224300  0.588000  0.820900  1
  C  C2334  1  0.224300  0.412000  0.179100  1
  C  C2335  1  0.724300  0.588000  0.179100  1
  C  C2336  1  0.724300  0.412000  0.820900  1
  C  C2337  1  0.249900  0.109200  0.336150  1
  C  C2338  1  0.249900  0.890800  0.663850  1
  C  C2339  1  0.749900  0.109200  0.663850  1
  C  C2340  1  0.749900  0.890800  0.336150  1
  C  C2341  1  0.249900  0.609200  0.836150  1
  C  C2342  1  0.249900  0.390800  0.163850  1
  C  C2343  1  0.749900  0.609200  0.163850  1
  C  C2344  1  0.749900  0.390800  0.836150  1
  C  C2345  1  0.152800  0.068500  0.232910  1
  C  C2346  1  0.152800  0.931500  0.767090  1
  C  C2347  1  0.652800  0.068500  0.767090  1
  C  C2348  1  0.652800  0.931500  0.232910  1
  C  C2349  1  0.152800  0.568500  0.732910  1
  C  C2350  1  0.152800  0.431500  0.267090  1
  C  C2351  1  0.652800  0.568500  0.267090  1
  C  C2352  1  0.652800  0.431500  0.732910  1
  C  C2353  1  0.148600  0.028700  0.270460  1
  C  C2354  1  0.148600  0.971300  0.729540  1
  C  C2355  1  0.648600  0.028700  0.729540  1
  C  C2356  1  0.648600  0.971300  0.270460  1
  C  C2357  1  0.148600  0.528700  0.770460  1
  C  C2358  1  0.148600  0.471300  0.229540  1
  C  C2359  1  0.648600  0.528700  0.229540  1
  C  C2360  1  0.648600  0.471300  0.770460  1
  C  C2361  1  0.187100  0.076000  0.274540  1
  C  C2362  1  0.187100  0.924000  0.725460  1
  C  C2363  1  0.687100  0.076000  0.725460  1
  C  C2364  1  0.687100  0.924000  0.274540  1
  C  C2365  1  0.187100  0.576000  0.774540  1
  C  C2366  1  0.187100  0.424000  0.225460  1
  C  C2367  1  0.687100  0.576000  0.225460  1
  C  C2368  1  0.687100  0.424000  0.774540  1
  C  C2369  1  0.456300  0.908700  0.270700  1
  C  C2370  1  0.456300  0.091300  0.729300  1
  C  C2371  1  0.956300  0.908700  0.729300  1
  C  C2372  1  0.956300  0.091300  0.270700  1
  C  C2373  1  0.456300  0.408700  0.770700  1
  C  C2374  1  0.456300  0.591300  0.229300  1
  C  C2375  1  0.956300  0.408700  0.229300  1
  C  C2376  1  0.956300  0.591300  0.770700  1
  C  C2377  1  0.451400  0.941900  0.258530  1
  C  C2378  1  0.451400  0.058100  0.741470  1
  C  C2379  1  0.951400  0.941900  0.741470  1
  C  C2380  1  0.951400  0.058100  0.258530  1
  C  C2381  1  0.451400  0.441900  0.758530  1
  C  C2382  1  0.451400  0.558100  0.241470  1
  C  C2383  1  0.951400  0.441900  0.241470  1
  C  C2384  1  0.951400  0.558100  0.758530  1
  C  C2385  1  0.434700  0.968300  0.274090  1
  C  C2386  1  0.434700  0.031700  0.725910  1
  C  C2387  1  0.934700  0.968300  0.725910  1
  C  C2388  1  0.934700  0.031700  0.274090  1
  C  C2389  1  0.434700  0.468300  0.774090  1
  C  C2390  1  0.434700  0.531700  0.225910  1
  C  C2391  1  0.934700  0.468300  0.225910  1
  C  C2392  1  0.934700  0.531700  0.774090  1
  C  C2393  1  0.423200  0.960200  0.304700  1
  C  C2394  1  0.423200  0.039800  0.695300  1
  C  C2395  1  0.923200  0.960200  0.695300  1
  C  C2396  1  0.923200  0.039800  0.304700  1
  C  C2397  1  0.423200  0.460200  0.804700  1
  C  C2398  1  0.423200  0.539800  0.195300  1
  C  C2399  1  0.923200  0.460200  0.195300  1
  C  C2400  1  0.923200  0.539800  0.804700  1
  C  C2401  1  0.429400  0.927000  0.315300  1
  C  C2402  1  0.429400  0.073000  0.684700  1
  C  C2403  1  0.929400  0.927000  0.684700  1
  C  C2404  1  0.929400  0.073000  0.315300  1
  C  C2405  1  0.429400  0.427000  0.815300  1
  C  C2406  1  0.429400  0.573000  0.184700  1
  C  C2407  1  0.929400  0.427000  0.184700  1
  C  C2408  1  0.929400  0.573000  0.815300  1
  C  C2409  1  0.447300  0.092700  0.151680  1
  C  C2410  1  0.447300  0.907300  0.848320  1
  C  C2411  1  0.947300  0.092700  0.848320  1
  C  C2412  1  0.947300  0.907300  0.151680  1
  C  C2413  1  0.447300  0.592700  0.651680  1
  C  C2414  1  0.447300  0.407300  0.348320  1
  C  C2415  1  0.947300  0.592700  0.348320  1
  C  C2416  1  0.947300  0.407300  0.651680  1
  C  C2417  1  0.436900  0.085800  0.180290  1
  C  C2418  1  0.436900  0.914200  0.819710  1
  C  C2419  1  0.936900  0.085800  0.819710  1
  C  C2420  1  0.936900  0.914200  0.180290  1
  C  C2421  1  0.436900  0.585800  0.680290  1
  C  C2422  1  0.436900  0.414200  0.319710  1
  C  C2423  1  0.936900  0.585800  0.319710  1
  C  C2424  1  0.936900  0.414200  0.680290  1
  C  C2425  1  0.443600  0.052500  0.193260  1
  C  C2426  1  0.443600  0.947500  0.806740  1
  C  C2427  1  0.943600  0.052500  0.806740  1
  C  C2428  1  0.943600  0.947500  0.193260  1
  C  C2429  1  0.443600  0.552500  0.693260  1
  C  C2430  1  0.443600  0.447500  0.306740  1
  C  C2431  1  0.943600  0.552500  0.306740  1
  C  C2432  1  0.943600  0.447500  0.693260  1
  C  C2433  1  0.460900  0.027100  0.175730  1
  C  C2434  1  0.460900  0.972900  0.824270  1
  C  C2435  1  0.960900  0.027100  0.824270  1
  C  C2436  1  0.960900  0.972900  0.175730  1
  C  C2437  1  0.460900  0.527100  0.675730  1
  C  C2438  1  0.460900  0.472900  0.324270  1
  C  C2439  1  0.960900  0.527100  0.324270  1
  C  C2440  1  0.960900  0.472900  0.675730  1
  C  C2441  1  0.470800  0.035710  0.146640  1
  C  C2442  1  0.470800  0.964290  0.853360  1
  C  C2443  1  0.970800  0.035710  0.853360  1
  C  C2444  1  0.970800  0.964290  0.146640  1
  C  C2445  1  0.470800  0.535710  0.646640  1
  C  C2446  1  0.470800  0.464290  0.353360  1
  C  C2447  1  0.970800  0.535710  0.353360  1
  C  C2448  1  0.970800  0.464290  0.646640  1
  C  C2449  1  0.351100  0.101300  0.331300  1
  C  C2450  1  0.351100  0.898700  0.668700  1
  C  C2451  1  0.851100  0.101300  0.668700  1
  C  C2452  1  0.851100  0.898700  0.331300  1
  C  C2453  1  0.351100  0.601300  0.831300  1
  C  C2454  1  0.351100  0.398700  0.168700  1
  C  C2455  1  0.851100  0.601300  0.168700  1
  C  C2456  1  0.851100  0.398700  0.831300  1
  C  C2457  1  0.372200  0.077400  0.315900  1
  C  C2458  1  0.372200  0.922600  0.684100  1
  C  C2459  1  0.872200  0.077400  0.684100  1
  C  C2460  1  0.872200  0.922600  0.315900  1
  C  C2461  1  0.372200  0.577400  0.815900  1
  C  C2462  1  0.372200  0.422600  0.184100  1
  C  C2463  1  0.872200  0.577400  0.184100  1
  C  C2464  1  0.872200  0.422600  0.815900  1
  C  C2465  1  0.384600  0.086400  0.286760  1
  C  C2466  1  0.384600  0.913600  0.713240  1
  C  C2467  1  0.884600  0.086400  0.713240  1
  C  C2468  1  0.884600  0.913600  0.286760  1
  C  C2469  1  0.384600  0.586400  0.786760  1
  C  C2470  1  0.384600  0.413600  0.213240  1
  C  C2471  1  0.884600  0.586400  0.213240  1
  C  C2472  1  0.884600  0.413600  0.786760  1
  C  C2473  1  0.377200  0.120700  0.276930  1
  C  C2474  1  0.377200  0.879300  0.723070  1
  C  C2475  1  0.877200  0.120700  0.723070  1
  C  C2476  1  0.877200  0.879300  0.276930  1
  C  C2477  1  0.377200  0.620700  0.776930  1
  C  C2478  1  0.377200  0.379300  0.223070  1
  C  C2479  1  0.877200  0.620700  0.223070  1
  C  C2480  1  0.877200  0.379300  0.776930  1
  C  C2481  1  0.356400  0.142400  0.295000  1
  C  C2482  1  0.356400  0.857600  0.705000  1
  C  C2483  1  0.856400  0.142400  0.705000  1
  C  C2484  1  0.856400  0.857600  0.295000  1
  C  C2485  1  0.356400  0.642400  0.795000  1
  C  C2486  1  0.356400  0.357600  0.205000  1
  C  C2487  1  0.856400  0.642400  0.205000  1
  C  C2488  1  0.856400  0.357600  0.795000  1
  C  C2489  1  0.428000  0.004900  0.262570  1
  C  C2490  1  0.428000  0.995100  0.737430  1
  C  C2491  1  0.928000  0.004900  0.737430  1
  C  C2492  1  0.928000  0.995100  0.262570  1
  C  C2493  1  0.428000  0.504900  0.762570  1
  C  C2494  1  0.428000  0.495100  0.237430  1
  C  C2495  1  0.928000  0.504900  0.237430  1
  C  C2496  1  0.928000  0.495100  0.762570  1
  C  C2497  1  0.432800  0.044000  0.224530  1
  C  C2498  1  0.432800  0.956000  0.775470  1
  C  C2499  1  0.932800  0.044000  0.775470  1
  C  C2500  1  0.932800  0.956000  0.224530  1
  C  C2501  1  0.432800  0.544000  0.724530  1
  C  C2502  1  0.432800  0.456000  0.275470  1
  C  C2503  1  0.932800  0.544000  0.275470  1
  C  C2504  1  0.932800  0.456000  0.724530  1
  C  C2505  1  0.405600  0.060900  0.268530  1
  C  C2506  1  0.405600  0.939100  0.731470  1
  C  C2507  1  0.905600  0.060900  0.731470  1
  C  C2508  1  0.905600  0.939100  0.268530  1
  C  C2509  1  0.405600  0.560900  0.768530  1
  C  C2510  1  0.405600  0.439100  0.231470  1
  C  C2511  1  0.905600  0.560900  0.231470  1
  C  C2512  1  0.905600  0.439100  0.768530  1
  C  C2513  1  0.362800  0.842100  0.309500  1
  C  C2514  1  0.362800  0.157900  0.690500  1
  C  C2515  1  0.862800  0.842100  0.690500  1
  C  C2516  1  0.862800  0.157900  0.309500  1
  C  C2517  1  0.362800  0.342100  0.809500  1
  C  C2518  1  0.362800  0.657900  0.190500  1
  C  C2519  1  0.862800  0.342100  0.190500  1
  C  C2520  1  0.862800  0.657900  0.809500  1
  C  C2521  1  0.329100  0.841100  0.295300  1
  C  C2522  1  0.329100  0.158900  0.704700  1
  C  C2523  1  0.829100  0.841100  0.704700  1
  C  C2524  1  0.829100  0.158900  0.295300  1
  C  C2525  1  0.329100  0.341100  0.795300  1
  C  C2526  1  0.329100  0.658900  0.204700  1
  C  C2527  1  0.829100  0.341100  0.204700  1
  C  C2528  1  0.829100  0.658900  0.795300  1
  C  C2529  1  0.327000  0.838600  0.264500  1
  C  C2530  1  0.327000  0.161400  0.735500  1
  C  C2531  1  0.827000  0.838600  0.735500  1
  C  C2532  1  0.827000  0.161400  0.264500  1
  C  C2533  1  0.327000  0.338600  0.764500  1
  C  C2534  1  0.327000  0.661400  0.235500  1
  C  C2535  1  0.827000  0.338600  0.235500  1
  C  C2536  1  0.827000  0.661400  0.764500  1
  C  C2537  1  0.360200  0.836500  0.249400  1
  C  C2538  1  0.360200  0.163500  0.750600  1
  C  C2539  1  0.860200  0.836500  0.750600  1
  C  C2540  1  0.860200  0.163500  0.249400  1
  C  C2541  1  0.360200  0.336500  0.749400  1
  C  C2542  1  0.360200  0.663500  0.250600  1
  C  C2543  1  0.860200  0.336500  0.250600  1
  C  C2544  1  0.860200  0.663500  0.749400  1
  C  C2545  1  0.394500  0.838800  0.264500  1
  C  C2546  1  0.394500  0.161200  0.735500  1
  C  C2547  1  0.894500  0.838800  0.735500  1
  C  C2548  1  0.894500  0.161200  0.264500  1
  C  C2549  1  0.394500  0.338800  0.764500  1
  C  C2550  1  0.394500  0.661200  0.235500  1
  C  C2551  1  0.894500  0.338800  0.235500  1
  C  C2552  1  0.894500  0.661200  0.764500  1
  C  C2553  1  0.127100  0.852800  0.271200  1
  C  C2554  1  0.127100  0.147200  0.728800  1
  C  C2555  1  0.627100  0.852800  0.728800  1
  C  C2556  1  0.627100  0.147200  0.271200  1
  C  C2557  1  0.127100  0.352800  0.771200  1
  C  C2558  1  0.127100  0.647200  0.228800  1
  C  C2559  1  0.627100  0.352800  0.228800  1
  C  C2560  1  0.627100  0.647200  0.771200  1
  C  C2561  1  0.158800  0.844200  0.254800  1
  C  C2562  1  0.158800  0.155800  0.745200  1
  C  C2563  1  0.658800  0.844200  0.745200  1
  C  C2564  1  0.658800  0.155800  0.254800  1
  C  C2565  1  0.158800  0.344200  0.754800  1
  C  C2566  1  0.158800  0.655800  0.245200  1
  C  C2567  1  0.658800  0.344200  0.245200  1
  C  C2568  1  0.658800  0.655800  0.754800  1
  C  C2569  1  0.192400  0.847700  0.267500  1
  C  C2570  1  0.192400  0.152300  0.732500  1
  C  C2571  1  0.692400  0.847700  0.732500  1
  C  C2572  1  0.692400  0.152300  0.267500  1
  C  C2573  1  0.192400  0.347700  0.767500  1
  C  C2574  1  0.192400  0.652300  0.232500  1
  C  C2575  1  0.692400  0.347700  0.232500  1
  C  C2576  1  0.692400  0.652300  0.767500  1
  C  C2577  1  0.193700  0.860100  0.298100  1
  C  C2578  1  0.193700  0.139900  0.701900  1
  C  C2579  1  0.693700  0.860100  0.701900  1
  C  C2580  1  0.693700  0.139900  0.298100  1
  C  C2581  1  0.193700  0.360100  0.798100  1
  C  C2582  1  0.193700  0.639900  0.201900  1
  C  C2583  1  0.693700  0.360100  0.201900  1
  C  C2584  1  0.693700  0.639900  0.798100  1
  C  C2585  1  0.160700  0.867400  0.312000  1
  C  C2586  1  0.160700  0.132600  0.688000  1
  C  C2587  1  0.660700  0.867400  0.688000  1
  C  C2588  1  0.660700  0.132600  0.312000  1
  C  C2589  1  0.160700  0.367400  0.812000  1
  C  C2590  1  0.160700  0.632600  0.188000  1
  C  C2591  1  0.660700  0.367400  0.188000  1
  C  C2592  1  0.660700  0.632600  0.812000  1
  C  C2593  1  0.281600  0.804900  0.127600  1
  C  C2594  1  0.281600  0.195100  0.872400  1
  C  C2595  1  0.781600  0.804900  0.872400  1
  C  C2596  1  0.781600  0.195100  0.127600  1
  C  C2597  1  0.281600  0.304900  0.627600  1
  C  C2598  1  0.281600  0.695100  0.372400  1
  C  C2599  1  0.781600  0.304900  0.372400  1
  C  C2600  1  0.781600  0.695100  0.627600  1
  C  C2601  1  0.285400  0.812600  0.158000  1
  C  C2602  1  0.285400  0.187400  0.842000  1
  C  C2603  1  0.785400  0.812600  0.842000  1
  C  C2604  1  0.785400  0.187400  0.158000  1
  C  C2605  1  0.285400  0.312600  0.658000  1
  C  C2606  1  0.285400  0.687400  0.342000  1
  C  C2607  1  0.785400  0.312600  0.342000  1
  C  C2608  1  0.785400  0.687400  0.658000  1
  C  C2609  1  0.254500  0.818000  0.174900  1
  C  C2610  1  0.254500  0.182000  0.825100  1
  C  C2611  1  0.754500  0.818000  0.825100  1
  C  C2612  1  0.754500  0.182000  0.174900  1
  C  C2613  1  0.254500  0.318000  0.674900  1
  C  C2614  1  0.254500  0.682000  0.325100  1
  C  C2615  1  0.754500  0.318000  0.325100  1
  C  C2616  1  0.754500  0.682000  0.674900  1
  C  C2617  1  0.219800  0.815300  0.160200  1
  C  C2618  1  0.219800  0.184700  0.839800  1
  C  C2619  1  0.719800  0.815300  0.839800  1
  C  C2620  1  0.719800  0.184700  0.160200  1
  C  C2621  1  0.219800  0.315300  0.660200  1
  C  C2622  1  0.219800  0.684700  0.339800  1
  C  C2623  1  0.719800  0.315300  0.339800  1
  C  C2624  1  0.719800  0.684700  0.660200  1
  C  C2625  1  0.217900  0.807400  0.130100  1
  C  C2626  1  0.217900  0.192600  0.869900  1
  C  C2627  1  0.717900  0.807400  0.869900  1
  C  C2628  1  0.717900  0.192600  0.130100  1
  C  C2629  1  0.217900  0.307400  0.630100  1
  C  C2630  1  0.217900  0.692600  0.369900  1
  C  C2631  1  0.717900  0.307400  0.369900  1
  C  C2632  1  0.717900  0.692600  0.630100  1
  C  C2633  1  0.291100  0.836300  0.249400  1
  C  C2634  1  0.291100  0.163700  0.750600  1
  C  C2635  1  0.791100  0.836300  0.750600  1
  C  C2636  1  0.791100  0.163700  0.249400  1
  C  C2637  1  0.291100  0.336300  0.749400  1
  C  C2638  1  0.291100  0.663700  0.250600  1
  C  C2639  1  0.791100  0.336300  0.250600  1
  C  C2640  1  0.791100  0.663700  0.749400  1
  C  C2641  1  0.227200  0.840000  0.250700  1
  C  C2642  1  0.227200  0.160000  0.749300  1
  C  C2643  1  0.727200  0.840000  0.749300  1
  C  C2644  1  0.727200  0.160000  0.250700  1
  C  C2645  1  0.227200  0.340000  0.750700  1
  C  C2646  1  0.227200  0.660000  0.249300  1
  C  C2647  1  0.727200  0.340000  0.249300  1
  C  C2648  1  0.727200  0.660000  0.750700  1
  C  C2649  1  0.256000  0.826700  0.207000  1
  C  C2650  1  0.256000  0.173300  0.793000  1
  C  C2651  1  0.756000  0.826700  0.793000  1
  C  C2652  1  0.756000  0.173300  0.207000  1
  C  C2653  1  0.256000  0.326700  0.707000  1
  C  C2654  1  0.256000  0.673300  0.293000  1
  C  C2655  1  0.756000  0.326700  0.293000  1
  C  C2656  1  0.756000  0.673300  0.707000  1
  C  C2657  1  0.016800  0.089700  0.111100  1
  C  C2658  1  0.016800  0.910300  0.888900  1
  C  C2659  1  0.516800  0.089700  0.888900  1
  C  C2660  1  0.516800  0.910300  0.111100  1
  C  C2661  1  0.016800  0.589700  0.611100  1
  C  C2662  1  0.016800  0.410300  0.388900  1
  C  C2663  1  0.516800  0.589700  0.388900  1
  C  C2664  1  0.516800  0.410300  0.611100  1
  C  C2665  1  0.025900  0.121700  0.131600  1
  C  C2666  1  0.025900  0.878300  0.868400  1
  C  C2667  1  0.525900  0.121700  0.868400  1
  C  C2668  1  0.525900  0.878300  0.131600  1
  C  C2669  1  0.025900  0.621700  0.631600  1
  C  C2670  1  0.025900  0.378300  0.368400  1
  C  C2671  1  0.525900  0.621700  0.368400  1
  C  C2672  1  0.525900  0.378300  0.631600  1
  C  C2673  1  0.074800  0.182900  0.135700  1
  C  C2674  1  0.074800  0.817100  0.864300  1
  C  C2675  1  0.574800  0.182900  0.864300  1
  C  C2676  1  0.574800  0.817100  0.135700  1
  C  C2677  1  0.074800  0.682900  0.635700  1
  C  C2678  1  0.074800  0.317100  0.364300  1
  C  C2679  1  0.574800  0.682900  0.364300  1
  C  C2680  1  0.574800  0.317100  0.635700  1
  C  C2681  1  0.103400  0.201700  0.118200  1
  C  C2682  1  0.103400  0.798300  0.881800  1
  C  C2683  1  0.603400  0.201700  0.881800  1
  C  C2684  1  0.603400  0.798300  0.118200  1
  C  C2685  1  0.103400  0.701700  0.618200  1
  C  C2686  1  0.103400  0.298300  0.381800  1
  C  C2687  1  0.603400  0.701700  0.381800  1
  C  C2688  1  0.603400  0.298300  0.618200  1
  C  C2689  1  0.135000  0.185000  0.060200  1
  C  C2690  1  0.135000  0.815000  0.939800  1
  C  C2691  1  0.635000  0.185000  0.939800  1
  C  C2692  1  0.635000  0.815000  0.060200  1
  C  C2693  1  0.135000  0.685000  0.560200  1
  C  C2694  1  0.135000  0.315000  0.439800  1
  C  C2695  1  0.635000  0.685000  0.439800  1
  C  C2696  1  0.635000  0.315000  0.560200  1
  C  C2697  1  0.099600  0.172400  0.044600  1
  C  C2698  1  0.099600  0.827600  0.955400  1
  C  C2699  1  0.599600  0.172400  0.955400  1
  C  C2700  1  0.599600  0.827600  0.044600  1
  C  C2701  1  0.099600  0.672400  0.544600  1
  C  C2702  1  0.099600  0.327600  0.455400  1
  C  C2703  1  0.599600  0.672400  0.455400  1
  C  C2704  1  0.599600  0.327600  0.544600  1
  C  C2705  1  0.051000  0.111600  0.040600  1
  C  C2706  1  0.051000  0.888400  0.959400  1
  C  C2707  1  0.551000  0.111600  0.959400  1
  C  C2708  1  0.551000  0.888400  0.040600  1
  C  C2709  1  0.051000  0.611600  0.540600  1
  C  C2710  1  0.051000  0.388400  0.459400  1
  C  C2711  1  0.551000  0.611600  0.459400  1
  C  C2712  1  0.551000  0.388400  0.540600  1
  C  C2713  1  0.046600  0.075100  0.052940  1
  C  C2714  1  0.046600  0.924900  0.947060  1
  C  C2715  1  0.546600  0.075100  0.947060  1
  C  C2716  1  0.546600  0.924900  0.052940  1
  C  C2717  1  0.046600  0.575100  0.552940  1
  C  C2718  1  0.046600  0.424900  0.447060  1
  C  C2719  1  0.546600  0.575100  0.447060  1
  C  C2720  1  0.546600  0.424900  0.552940  1
  C  C2721  1  0.500000  0.160200  0.103900  1
  C  C2722  1  0.500000  0.839800  0.896100  1
  C  C2723  1  0.000000  0.160200  0.896100  1
  C  C2724  1  1.000000  0.839800  0.103900  1
  C  C2725  1  0.500000  0.660200  0.603900  1
  C  C2726  1  0.500000  0.339800  0.396100  1
  C  C2727  1  0.000000  0.660200  0.396100  1
  C  C2728  1  0.000000  0.339800  0.603900  1
  C  C2729  1  0.527500  0.134600  0.117800  1
  C  C2730  1  0.527500  0.865400  0.882200  1
  C  C2731  1  0.027500  0.134600  0.882200  1
  C  C2732  1  0.027500  0.865400  0.117800  1
  C  C2733  1  0.527500  0.634600  0.617800  1
  C  C2734  1  0.527500  0.365400  0.382200  1
  C  C2735  1  0.027500  0.634600  0.382200  1
  C  C2736  1  0.027500  0.365400  0.617800  1
  C  C2737  1  0.557300  0.063700  0.112500  1
  C  C2738  1  0.557300  0.936300  0.887500  1
  C  C2739  1  0.057300  0.063700  0.887500  1
  C  C2740  1  0.057300  0.936300  0.112500  1
  C  C2741  1  0.557300  0.563700  0.612500  1
  C  C2742  1  0.557300  0.436300  0.387500  1
  C  C2743  1  0.057300  0.563700  0.387500  1
  C  C2744  1  0.057300  0.436300  0.612500  1
  C  C2745  1  0.554510  0.031100  0.092810  1
  C  C2746  1  0.554510  0.968900  0.907190  1
  C  C2747  1  0.054510  0.031100  0.907190  1
  C  C2748  1  0.054510  0.968900  0.092810  1
  C  C2749  1  0.554510  0.531100  0.592810  1
  C  C2750  1  0.554510  0.468900  0.407190  1
  C  C2751  1  0.054510  0.531100  0.407190  1
  C  C2752  1  0.054510  0.468900  0.592810  1
  C  C2753  1  0.512400  0.020800  0.038920  1
  C  C2754  1  0.512400  0.979200  0.961080  1
  C  C2755  1  0.012400  0.020800  0.961080  1
  C  C2756  1  0.012400  0.979200  0.038920  1
  C  C2757  1  0.512400  0.520800  0.538920  1
  C  C2758  1  0.512400  0.479200  0.461080  1
  C  C2759  1  0.012400  0.520800  0.461080  1
  C  C2760  1  0.012400  0.479200  0.538920  1
  C  C2761  1  0.517100  0.056700  0.024800  1
  C  C2762  1  0.517100  0.943300  0.975200  1
  C  C2763  1  0.017100  0.056700  0.975200  1
  C  C2764  1  0.017100  0.943300  0.024800  1
  C  C2765  1  0.517100  0.556700  0.524800  1
  C  C2766  1  0.517100  0.443300  0.475200  1
  C  C2767  1  0.017100  0.556700  0.475200  1
  C  C2768  1  0.017100  0.443300  0.524800  1
  C  C2769  1  0.489300  0.128700  0.029770  1
  C  C2770  1  0.489300  0.871300  0.970230  1
  C  C2771  1  0.989300  0.128700  0.970230  1
  C  C2772  1  0.989300  0.871300  0.029770  1
  C  C2773  1  0.489300  0.628700  0.529770  1
  C  C2774  1  0.489300  0.371300  0.470230  1
  C  C2775  1  0.989300  0.628700  0.470230  1
  C  C2776  1  0.989300  0.371300  0.529770  1
  C  C2777  1  0.461300  0.150900  0.048400  1
  C  C2778  1  0.461300  0.849100  0.951600  1
  C  C2779  1  0.961300  0.150900  0.951600  1
  C  C2780  1  0.961300  0.849100  0.048400  1
  C  C2781  1  0.461300  0.650900  0.548400  1
  C  C2782  1  0.461300  0.349100  0.451600  1
  C  C2783  1  0.961300  0.650900  0.451600  1
  C  C2784  1  0.961300  0.349100  0.548400  1
  C  C2785  1  0.169800  0.795900  0.022500  1
  C  C2786  1  0.169800  0.204100  0.977500  1
  C  C2787  1  0.669800  0.795900  0.977500  1
  C  C2788  1  0.669800  0.204100  0.022500  1
  C  C2789  1  0.169800  0.295900  0.522500  1
  C  C2790  1  0.169800  0.704100  0.477500  1
  C  C2791  1  0.669800  0.295900  0.477500  1
  C  C2792  1  0.669800  0.704100  0.522500  1
  C  C2793  1  0.198600  0.779100  0.003200  1
  C  C2794  1  0.198600  0.220900  0.996800  1
  C  C2795  1  0.698600  0.779100  0.996800  1
  C  C2796  1  0.698600  0.220900  0.003200  1
  C  C2797  1  0.198600  0.279100  0.503200  1
  C  C2798  1  0.198600  0.720900  0.496800  1
  C  C2799  1  0.698600  0.279100  0.496800  1
  C  C2800  1  0.698600  0.720900  0.503200  1
  C  C2801  1  0.274600  0.772800  0.002000  1
  C  C2802  1  0.274600  0.227200  0.998000  1
  C  C2803  1  0.774600  0.772800  0.998000  1
  C  C2804  1  0.774600  0.227200  0.002000  1
  C  C2805  1  0.274600  0.272800  0.502000  1
  C  C2806  1  0.274600  0.727200  0.498000  1
  C  C2807  1  0.774600  0.272800  0.498000  1
  C  C2808  1  0.774600  0.727200  0.502000  1
  C  C2809  1  0.314500  0.780100  0.018100  1
  C  C2810  1  0.314500  0.219900  0.981900  1
  C  C2811  1  0.814500  0.780100  0.981900  1
  C  C2812  1  0.814500  0.219900  0.018100  1
  C  C2813  1  0.314500  0.280100  0.518100  1
  C  C2814  1  0.314500  0.719900  0.481900  1
  C  C2815  1  0.814500  0.280100  0.481900  1
  C  C2816  1  0.814500  0.719900  0.518100  1
  C  C2817  1  0.308500  0.728800  0.064500  1
  C  C2818  1  0.308500  0.271200  0.935500  1
  C  C2819  1  0.808500  0.728800  0.935500  1
  C  C2820  1  0.808500  0.271200  0.064500  1
  C  C2821  1  0.308500  0.228800  0.564500  1
  C  C2822  1  0.308500  0.771200  0.435500  1
  C  C2823  1  0.808500  0.228800  0.435500  1
  C  C2824  1  0.808500  0.771200  0.564500  1
  C  C2825  1  0.274100  0.710700  0.058000  1
  C  C2826  1  0.274100  0.289300  0.942000  1
  C  C2827  1  0.774100  0.710700  0.942000  1
  C  C2828  1  0.774100  0.289300  0.058000  1
  C  C2829  1  0.274100  0.210700  0.558000  1
  C  C2830  1  0.274100  0.789300  0.442000  1
  C  C2831  1  0.774100  0.210700  0.442000  1
  C  C2832  1  0.774100  0.789300  0.558000  1
  C  C2833  1  0.197600  0.722500  0.060200  1
  C  C2834  1  0.197600  0.277500  0.939800  1
  C  C2835  1  0.697600  0.722500  0.939800  1
  C  C2836  1  0.697600  0.277500  0.060200  1
  C  C2837  1  0.197600  0.222500  0.560200  1
  C  C2838  1  0.197600  0.777500  0.439800  1
  C  C2839  1  0.697600  0.222500  0.439800  1
  C  C2840  1  0.697600  0.777500  0.560200  1
  C  C2841  1  0.164700  0.750900  0.071200  1
  C  C2842  1  0.164700  0.249100  0.928800  1
  C  C2843  1  0.664700  0.750900  0.928800  1
  C  C2844  1  0.664700  0.249100  0.071200  1
  C  C2845  1  0.164700  0.250900  0.571200  1
  C  C2846  1  0.164700  0.749100  0.428800  1
  C  C2847  1  0.664700  0.250900  0.428800  1
  C  C2848  1  0.664700  0.749100  0.571200  1
  C  C2849  1  0.023100  0.826900  0.285100  1
  C  C2850  1  0.023100  0.173100  0.714900  1
  C  C2851  1  0.523100  0.826900  0.714900  1
  C  C2852  1  0.523100  0.173100  0.285100  1
  C  C2853  1  0.023100  0.326900  0.785100  1
  C  C2854  1  0.023100  0.673100  0.214900  1
  C  C2855  1  0.523100  0.326900  0.214900  1
  C  C2856  1  0.523100  0.673100  0.785100  1
  C  C2857  1  0.021000  0.814800  0.316400  1
  C  C2858  1  0.021000  0.185200  0.683600  1
  C  C2859  1  0.521000  0.814800  0.683600  1
  C  C2860  1  0.521000  0.185200  0.316400  1
  C  C2861  1  0.021000  0.314800  0.816400  1
  C  C2862  1  0.021000  0.685200  0.183600  1
  C  C2863  1  0.521000  0.314800  0.183600  1
  C  C2864  1  0.521000  0.685200  0.816400  1
  C  C2865  1  0.061800  0.827300  0.374600  1
  C  C2866  1  0.061800  0.172700  0.625400  1
  C  C2867  1  0.561800  0.827300  0.625400  1
  C  C2868  1  0.561800  0.172700  0.374600  1
  C  C2869  1  0.061800  0.327300  0.874600  1
  C  C2870  1  0.061800  0.672700  0.125400  1
  C  C2871  1  0.561800  0.327300  0.125400  1
  C  C2872  1  0.561800  0.672700  0.874600  1
  C  C2873  1  0.094800  0.845400  0.386300  1
  C  C2874  1  0.094800  0.154600  0.613700  1
  C  C2875  1  0.594800  0.845400  0.613700  1
  C  C2876  1  0.594800  0.154600  0.386300  1
  C  C2877  1  0.094800  0.345400  0.886300  1
  C  C2878  1  0.094800  0.654600  0.113700  1
  C  C2879  1  0.594800  0.345400  0.113700  1
  C  C2880  1  0.594800  0.654600  0.886300  1
  C  C2881  1  0.071600  0.916800  0.392100  1
  C  C2882  1  0.071600  0.083200  0.607900  1
  C  C2883  1  0.571600  0.916800  0.607900  1
  C  C2884  1  0.571600  0.083200  0.392100  1
  C  C2885  1  0.071600  0.416800  0.892100  1
  C  C2886  1  0.071600  0.583200  0.107900  1
  C  C2887  1  0.571600  0.416800  0.107900  1
  C  C2888  1  0.571600  0.583200  0.892100  1
  C  C2889  1  0.044500  0.934400  0.370300  1
  C  C2890  1  0.044500  0.065600  0.629700  1
  C  C2891  1  0.544500  0.934400  0.629700  1
  C  C2892  1  0.544500  0.065600  0.370300  1
  C  C2893  1  0.044500  0.434400  0.870300  1
  C  C2894  1  0.044500  0.565600  0.129700  1
  C  C2895  1  0.544500  0.434400  0.129700  1
  C  C2896  1  0.544500  0.565600  0.870300  1
  C  C2897  1  0.000800  0.922200  0.314100  1
  C  C2898  1  0.000800  0.077800  0.685900  1
  C  C2899  1  0.500800  0.922200  0.685900  1
  C  C2900  1  0.500800  0.077800  0.314100  1
  C  C2901  1  0.000800  0.422200  0.814100  1
  C  C2902  1  0.000800  0.577800  0.185900  1
  C  C2903  1  0.500800  0.422200  0.185900  1
  C  C2904  1  0.500800  0.577800  0.814100  1
  C  C2905  1  0.996400  0.899000  0.290100  1
  C  C2906  1  0.996400  0.101000  0.709900  1
  C  C2907  1  0.496400  0.899000  0.709900  1
  C  C2908  1  0.496400  0.101000  0.290100  1
  C  C2909  1  0.996400  0.399000  0.790100  1
  C  C2910  1  0.996400  0.601000  0.209900  1
  C  C2911  1  0.496400  0.399000  0.209900  1
  C  C2912  1  0.496400  0.601000  0.790100  1
  C  C2913  1  0.268800  0.244200  0.326700  1
  C  C2914  1  0.268800  0.755800  0.673300  1
  C  C2915  1  0.768800  0.244200  0.673300  1
  C  C2916  1  0.768800  0.755800  0.326700  1
  C  C2917  1  0.268800  0.744200  0.826700  1
  C  C2918  1  0.268800  0.255800  0.173300  1
  C  C2919  1  0.768800  0.744200  0.173300  1
  C  C2920  1  0.768800  0.255800  0.826700  1
  C  C2921  1  0.240400  0.222000  0.347100  1
  C  C2922  1  0.240400  0.778000  0.652900  1
  C  C2923  1  0.740400  0.222000  0.652900  1
  C  C2924  1  0.740400  0.778000  0.347100  1
  C  C2925  1  0.240400  0.722000  0.847100  1
  C  C2926  1  0.240400  0.278000  0.152900  1
  C  C2927  1  0.740400  0.722000  0.152900  1
  C  C2928  1  0.740400  0.278000  0.847100  1
  C  C2929  1  0.242700  0.171800  0.395000  1
  C  C2930  1  0.242700  0.828200  0.605000  1
  C  C2931  1  0.742700  0.171800  0.605000  1
  C  C2932  1  0.742700  0.828200  0.395000  1
  C  C2933  1  0.242700  0.671800  0.895000  1
  C  C2934  1  0.242700  0.328200  0.105000  1
  C  C2935  1  0.742700  0.671800  0.105000  1
  C  C2936  1  0.742700  0.328200  0.895000  1
  C  C2937  1  0.267500  0.149700  0.414000  1
  C  C2938  1  0.267500  0.850300  0.586000  1
  C  C2939  1  0.767500  0.149700  0.586000  1
  C  C2940  1  0.767500  0.850300  0.414000  1
  C  C2941  1  0.267500  0.649700  0.914000  1
  C  C2942  1  0.267500  0.350300  0.086000  1
  C  C2943  1  0.767500  0.649700  0.086000  1
  C  C2944  1  0.767500  0.350300  0.914000  1
  C  C2945  1  0.347400  0.147600  0.413400  1
  C  C2946  1  0.347400  0.852400  0.586600  1
  C  C2947  1  0.847400  0.147600  0.586600  1
  C  C2948  1  0.847400  0.852400  0.413400  1
  C  C2949  1  0.347400  0.647600  0.913400  1
  C  C2950  1  0.347400  0.352400  0.086600  1
  C  C2951  1  0.847400  0.647600  0.086600  1
  C  C2952  1  0.847400  0.352400  0.913400  1
  C  C2953  1  0.355900  0.185300  0.407700  1
  C  C2954  1  0.355900  0.814700  0.592300  1
  C  C2955  1  0.855900  0.185300  0.592300  1
  C  C2956  1  0.855900  0.814700  0.407700  1
  C  C2957  1  0.355900  0.685300  0.907700  1
  C  C2958  1  0.355900  0.314700  0.092300  1
  C  C2959  1  0.855900  0.685300  0.092300  1
  C  C2960  1  0.855900  0.314700  0.907700  1
  C  C2961  1  0.355800  0.239400  0.360900  1
  C  C2962  1  0.355800  0.760600  0.639100  1
  C  C2963  1  0.855800  0.239400  0.639100  1
  C  C2964  1  0.855800  0.760600  0.360900  1
  C  C2965  1  0.355800  0.739400  0.860900  1
  C  C2966  1  0.355800  0.260600  0.139100  1
  C  C2967  1  0.855800  0.739400  0.139100  1
  C  C2968  1  0.855800  0.260600  0.860900  1
  C  C2969  1  0.348000  0.242600  0.328000  1
  C  C2970  1  0.348000  0.757400  0.672000  1
  C  C2971  1  0.848000  0.242600  0.672000  1
  C  C2972  1  0.848000  0.757400  0.328000  1
  C  C2973  1  0.348000  0.742600  0.828000  1
  C  C2974  1  0.348000  0.257400  0.172000  1
  C  C2975  1  0.848000  0.742600  0.172000  1
  C  C2976  1  0.848000  0.257400  0.828000  1
  C  C2977  1  0.419600  0.820800  0.384400  1
  C  C2978  1  0.419600  0.179200  0.615600  1
  C  C2979  1  0.919600  0.820800  0.615600  1
  C  C2980  1  0.919600  0.179200  0.384400  1
  C  C2981  1  0.419600  0.320800  0.884400  1
  C  C2982  1  0.419600  0.679200  0.115600  1
  C  C2983  1  0.919600  0.320800  0.115600  1
  C  C2984  1  0.919600  0.679200  0.884400  1
  C  C2985  1  0.448000  0.793700  0.374500  1
  C  C2986  1  0.448000  0.206300  0.625500  1
  C  C2987  1  0.948000  0.793700  0.625500  1
  C  C2988  1  0.948000  0.206300  0.374500  1
  C  C2989  1  0.448000  0.293700  0.874500  1
  C  C2990  1  0.448000  0.706300  0.125500  1
  C  C2991  1  0.948000  0.293700  0.125500  1
  C  C2992  1  0.948000  0.706300  0.874500  1
  C  C2993  1  0.484300  0.768100  0.320900  1
  C  C2994  1  0.484300  0.231900  0.679100  1
  C  C2995  1  0.984300  0.768100  0.679100  1
  C  C2996  1  0.984300  0.231900  0.320900  1
  C  C2997  1  0.484300  0.268100  0.820900  1
  C  C2998  1  0.484300  0.731900  0.179100  1
  C  C2999  1  0.984300  0.268100  0.179100  1
  C  C3000  1  0.984300  0.731900  0.820900  1
  C  C3001  1  0.484800  0.775900  0.286400  1
  C  C3002  1  0.484800  0.224100  0.713600  1
  C  C3003  1  0.984800  0.775900  0.713600  1
  C  C3004  1  0.984800  0.224100  0.286400  1
  C  C3005  1  0.484800  0.275900  0.786400  1
  C  C3006  1  0.484800  0.724100  0.213600  1
  C  C3007  1  0.984800  0.275900  0.213600  1
  C  C3008  1  0.984800  0.724100  0.786400  1
  C  C3009  1  0.532600  0.835500  0.288900  1
  C  C3010  1  0.532600  0.164500  0.711100  1
  C  C3011  1  0.032600  0.835500  0.711100  1
  C  C3012  1  0.032600  0.164500  0.288900  1
  C  C3013  1  0.532600  0.335500  0.788900  1
  C  C3014  1  0.532600  0.664500  0.211100  1
  C  C3015  1  0.032600  0.335500  0.211100  1
  C  C3016  1  0.032600  0.664500  0.788900  1
  C  C3017  1  0.532500  0.866800  0.310000  1
  C  C3018  1  0.532500  0.133200  0.690000  1
  C  C3019  1  0.032500  0.866800  0.690000  1
  C  C3020  1  0.032500  0.133200  0.310000  1
  C  C3021  1  0.532500  0.366800  0.810000  1
  C  C3022  1  0.532500  0.633200  0.190000  1
  C  C3023  1  0.032500  0.366800  0.190000  1
  C  C3024  1  0.032500  0.633200  0.810000  1
  C  C3025  1  0.494500  0.892900  0.363400  1
  C  C3026  1  0.494500  0.107100  0.636600  1
  C  C3027  1  0.994500  0.892900  0.636600  1
  C  C3028  1  0.994500  0.107100  0.363400  1
  C  C3029  1  0.494500  0.392900  0.863400  1
  C  C3030  1  0.494500  0.607100  0.136600  1
  C  C3031  1  0.994500  0.392900  0.136600  1
  C  C3032  1  0.994500  0.607100  0.863400  1
  C  C3033  1  0.462000  0.887500  0.384100  1
  C  C3034  1  0.462000  0.112500  0.615900  1
  C  C3035  1  0.962000  0.887500  0.615900  1
  C  C3036  1  0.962000  0.112500  0.384100  1
  C  C3037  1  0.462000  0.387500  0.884100  1
  C  C3038  1  0.462000  0.612500  0.115900  1
  C  C3039  1  0.962000  0.387500  0.115900  1
  C  C3040  1  0.962000  0.612500  0.884100  1
  C  C3041  1  0.400300  0.901400  0.150300  1
  C  C3042  1  0.400300  0.098600  0.849700  1
  C  C3043  1  0.900300  0.901400  0.849700  1
  C  C3044  1  0.900300  0.098600  0.150300  1
  C  C3045  1  0.400300  0.401400  0.650300  1
  C  C3046  1  0.400300  0.598600  0.349700  1
  C  C3047  1  0.900300  0.401400  0.349700  1
  C  C3048  1  0.900300  0.598600  0.650300  1
  C  C3049  1  0.364600  0.890300  0.137600  1
  C  C3050  1  0.364600  0.109700  0.862400  1
  C  C3051  1  0.864600  0.890300  0.862400  1
  C  C3052  1  0.864600  0.109700  0.137600  1
  C  C3053  1  0.364600  0.390300  0.637600  1
  C  C3054  1  0.364600  0.609700  0.362400  1
  C  C3055  1  0.864600  0.390300  0.362400  1
  C  C3056  1  0.864600  0.609700  0.637600  1
  C  C3057  1  0.401000  0.896200  0.182700  1
  C  C3058  1  0.401000  0.103800  0.817300  1
  C  C3059  1  0.901000  0.896200  0.817300  1
  C  C3060  1  0.901000  0.103800  0.182700  1
  C  C3061  1  0.401000  0.396200  0.682700  1
  C  C3062  1  0.401000  0.603800  0.317300  1
  C  C3063  1  0.901000  0.396200  0.317300  1
  C  C3064  1  0.901000  0.603800  0.682700  1
  C  C3065  1  0.405400  0.941200  0.143200  1
  C  C3066  1  0.405400  0.058800  0.856800  1
  C  C3067  1  0.905400  0.941200  0.856800  1
  C  C3068  1  0.905400  0.058800  0.143200  1
  C  C3069  1  0.405400  0.441200  0.643200  1
  C  C3070  1  0.405400  0.558800  0.356800  1
  C  C3071  1  0.905400  0.441200  0.356800  1
  C  C3072  1  0.905400  0.558800  0.643200  1
  C  C3073  1  0.331900  0.910300  0.151700  1
  C  C3074  1  0.331900  0.089700  0.848300  1
  C  C3075  1  0.831900  0.910300  0.848300  1
  C  C3076  1  0.831900  0.089700  0.151700  1
  C  C3077  1  0.331900  0.410300  0.651700  1
  C  C3078  1  0.331900  0.589700  0.348300  1
  C  C3079  1  0.831900  0.410300  0.348300  1
  C  C3080  1  0.831900  0.589700  0.651700  1
  C  C3081  1  0.334400  0.905000  0.185600  1
  C  C3082  1  0.334400  0.095000  0.814400  1
  C  C3083  1  0.834400  0.905000  0.814400  1
  C  C3084  1  0.834400  0.095000  0.185600  1
  C  C3085  1  0.334400  0.405000  0.685600  1
  C  C3086  1  0.334400  0.595000  0.314400  1
  C  C3087  1  0.834400  0.405000  0.314400  1
  C  C3088  1  0.834400  0.595000  0.685600  1
  C  C3089  1  0.370500  0.918200  0.197400  1
  C  C3090  1  0.370500  0.081800  0.802600  1
  C  C3091  1  0.870500  0.918200  0.802600  1
  C  C3092  1  0.870500  0.081800  0.197400  1
  C  C3093  1  0.370500  0.418200  0.697400  1
  C  C3094  1  0.370500  0.581800  0.302600  1
  C  C3095  1  0.870500  0.418200  0.302600  1
  C  C3096  1  0.870500  0.581800  0.697400  1
  C  C3097  1  0.376200  0.957600  0.190900  1
  C  C3098  1  0.376200  0.042400  0.809100  1
  C  C3099  1  0.876200  0.957600  0.809100  1
  C  C3100  1  0.876200  0.042400  0.190900  1
  C  C3101  1  0.376200  0.457600  0.690900  1
  C  C3102  1  0.376200  0.542400  0.309100  1
  C  C3103  1  0.876200  0.457600  0.309100  1
  C  C3104  1  0.876200  0.542400  0.690900  1
  C  C3105  1  0.374300  0.962500  0.156000  1
  C  C3106  1  0.374300  0.037500  0.844000  1
  C  C3107  1  0.874300  0.962500  0.844000  1
  C  C3108  1  0.874300  0.037500  0.156000  1
  C  C3109  1  0.374300  0.462500  0.656000  1
  C  C3110  1  0.374300  0.537500  0.344000  1
  C  C3111  1  0.874300  0.462500  0.344000  1
  C  C3112  1  0.874300  0.537500  0.656000  1
  C  C3113  1  0.338500  0.951000  0.144600  1
  C  C3114  1  0.338500  0.049000  0.855400  1
  C  C3115  1  0.838500  0.951000  0.855400  1
  C  C3116  1  0.838500  0.049000  0.144600  1
  C  C3117  1  0.338500  0.451000  0.644600  1
  C  C3118  1  0.338500  0.549000  0.355400  1
  C  C3119  1  0.838500  0.451000  0.355400  1
  C  C3120  1  0.838500  0.549000  0.644600  1
  C  C3121  1  0.293800  0.120200  0.181900  1
  C  C3122  1  0.293800  0.879800  0.818100  1
  C  C3123  1  0.793800  0.120200  0.818100  1
  C  C3124  1  0.793800  0.879800  0.181900  1
  C  C3125  1  0.293800  0.620200  0.681900  1
  C  C3126  1  0.293800  0.379800  0.318100  1
  C  C3127  1  0.793800  0.620200  0.318100  1
  C  C3128  1  0.793800  0.379800  0.681900  1
  C  C3129  1  0.270900  0.104200  0.159500  1
  C  C3130  1  0.270900  0.895800  0.840500  1
  C  C3131  1  0.770900  0.104200  0.840500  1
  C  C3132  1  0.770900  0.895800  0.159500  1
  C  C3133  1  0.270900  0.604200  0.659500  1
  C  C3134  1  0.270900  0.395800  0.340500  1
  C  C3135  1  0.770900  0.604200  0.340500  1
  C  C3136  1  0.770900  0.395800  0.659500  1
  C  C3137  1  0.331400  0.105600  0.178800  1
  C  C3138  1  0.331400  0.894400  0.821200  1
  C  C3139  1  0.831400  0.105600  0.821200  1
  C  C3140  1  0.831400  0.894400  0.178800  1
  C  C3141  1  0.331400  0.605600  0.678800  1
  C  C3142  1  0.331400  0.394400  0.321200  1
  C  C3143  1  0.831400  0.605600  0.321200  1
  C  C3144  1  0.831400  0.394400  0.678800  1
  C  C3145  1  0.274600  0.112200  0.210600  1
  C  C3146  1  0.274600  0.887800  0.789400  1
  C  C3147  1  0.774600  0.112200  0.789400  1
  C  C3148  1  0.774600  0.887800  0.210600  1
  C  C3149  1  0.274600  0.612200  0.710600  1
  C  C3150  1  0.274600  0.387800  0.289400  1
  C  C3151  1  0.774600  0.612200  0.289400  1
  C  C3152  1  0.774600  0.387800  0.710600  1
  C  C3153  1  0.274800  0.058100  0.162800  1
  C  C3154  1  0.274800  0.941900  0.837200  1
  C  C3155  1  0.774800  0.058100  0.837200  1
  C  C3156  1  0.774800  0.941900  0.162800  1
  C  C3157  1  0.274800  0.558100  0.662800  1
  C  C3158  1  0.274800  0.441900  0.337200  1
  C  C3159  1  0.774800  0.558100  0.337200  1
  C  C3160  1  0.774800  0.441900  0.662800  1
  C  C3161  1  0.316800  0.052800  0.163200  1
  C  C3162  1  0.316800  0.947200  0.836800  1
  C  C3163  1  0.816800  0.052800  0.836800  1
  C  C3164  1  0.816800  0.947200  0.163200  1
  C  C3165  1  0.316800  0.552800  0.663200  1
  C  C3166  1  0.316800  0.447200  0.336800  1
  C  C3167  1  0.816800  0.552800  0.336800  1
  C  C3168  1  0.816800  0.447200  0.663200  1
  C  C3169  1  0.334100  0.061300  0.190200  1
  C  C3170  1  0.334100  0.938700  0.809800  1
  C  C3171  1  0.834100  0.061300  0.809800  1
  C  C3172  1  0.834100  0.938700  0.190200  1
  C  C3173  1  0.334100  0.561300  0.690200  1
  C  C3174  1  0.334100  0.438700  0.309800  1
  C  C3175  1  0.834100  0.561300  0.309800  1
  C  C3176  1  0.834100  0.438700  0.690200  1
  C  C3177  1  0.314300  0.060500  0.216800  1
  C  C3178  1  0.314300  0.939500  0.783200  1
  C  C3179  1  0.814300  0.060500  0.783200  1
  C  C3180  1  0.814300  0.939500  0.216800  1
  C  C3181  1  0.314300  0.560500  0.716800  1
  C  C3182  1  0.314300  0.439500  0.283200  1
  C  C3183  1  0.814300  0.560500  0.283200  1
  C  C3184  1  0.814300  0.439500  0.716800  1
  C  C3185  1  0.276800  0.068800  0.215200  1
  C  C3186  1  0.276800  0.931200  0.784800  1
  C  C3187  1  0.776800  0.068800  0.784800  1
  C  C3188  1  0.776800  0.931200  0.215200  1
  C  C3189  1  0.276800  0.568800  0.715200  1
  C  C3190  1  0.276800  0.431200  0.284800  1
  C  C3191  1  0.776800  0.568800  0.284800  1
  C  C3192  1  0.776800  0.431200  0.715200  1
  C  C3193  1  0.256300  0.053200  0.192100  1
  C  C3194  1  0.256300  0.946800  0.807900  1
  C  C3195  1  0.756300  0.053200  0.807900  1
  C  C3196  1  0.756300  0.946800  0.192100  1
  C  C3197  1  0.256300  0.553200  0.692100  1
  C  C3198  1  0.256300  0.446800  0.307900  1
  C  C3199  1  0.756300  0.553200  0.307900  1
  C  C3200  1  0.756300  0.446800  0.692100  1
  C  C3201  1  0.148500  0.923600  0.166500  1
  C  C3202  1  0.148500  0.076400  0.833500  1
  C  C3203  1  0.648500  0.923600  0.833500  1
  C  C3204  1  0.648500  0.076400  0.166500  1
  C  C3205  1  0.148500  0.423600  0.666500  1
  C  C3206  1  0.148500  0.576400  0.333500  1
  C  C3207  1  0.648500  0.423600  0.333500  1
  C  C3208  1  0.648500  0.576400  0.666500  1
  C  C3209  1  0.158400  0.918900  0.198000  1
  C  C3210  1  0.158400  0.081100  0.802000  1
  C  C3211  1  0.658400  0.918900  0.802000  1
  C  C3212  1  0.658400  0.081100  0.198000  1
  C  C3213  1  0.158400  0.418900  0.698000  1
  C  C3214  1  0.158400  0.581100  0.302000  1
  C  C3215  1  0.658400  0.418900  0.302000  1
  C  C3216  1  0.658400  0.581100  0.698000  1
  C  C3217  1  0.177200  0.908900  0.147100  1
  C  C3218  1  0.177200  0.091100  0.852900  1
  C  C3219  1  0.677200  0.908900  0.852900  1
  C  C3220  1  0.677200  0.091100  0.147100  1
  C  C3221  1  0.177200  0.408900  0.647100  1
  C  C3222  1  0.177200  0.591100  0.352900  1
  C  C3223  1  0.677200  0.408900  0.352900  1
  C  C3224  1  0.677200  0.591100  0.647100  1
  C  C3225  1  0.143600  0.963200  0.160900  1
  C  C3226  1  0.143600  0.036800  0.839100  1
  C  C3227  1  0.643600  0.963200  0.839100  1
  C  C3228  1  0.643600  0.036800  0.160900  1
  C  C3229  1  0.143600  0.463200  0.660900  1
  C  C3230  1  0.143600  0.536800  0.339100  1
  C  C3231  1  0.643600  0.463200  0.339100  1
  C  C3232  1  0.643600  0.536800  0.660900  1
  C  C3233  1  0.195800  0.936100  0.205100  1
  C  C3234  1  0.195800  0.063900  0.794900  1
  C  C3235  1  0.695800  0.936100  0.794900  1
  C  C3236  1  0.695800  0.063900  0.205100  1
  C  C3237  1  0.195800  0.436100  0.705100  1
  C  C3238  1  0.195800  0.563900  0.294900  1
  C  C3239  1  0.695800  0.436100  0.294900  1
  C  C3240  1  0.695800  0.563900  0.705100  1
  C  C3241  1  0.225100  0.921600  0.183300  1
  C  C3242  1  0.225100  0.078400  0.816700  1
  C  C3243  1  0.725100  0.921600  0.816700  1
  C  C3244  1  0.725100  0.078400  0.183300  1
  C  C3245  1  0.225100  0.421600  0.683300  1
  C  C3246  1  0.225100  0.578400  0.316700  1
  C  C3247  1  0.725100  0.421600  0.316700  1
  C  C3248  1  0.725100  0.578400  0.683300  1
  C  C3249  1  0.214300  0.928000  0.151700  1
  C  C3250  1  0.214300  0.072000  0.848300  1
  C  C3251  1  0.714300  0.928000  0.848300  1
  C  C3252  1  0.714300  0.072000  0.151700  1
  C  C3253  1  0.214300  0.428000  0.651700  1
  C  C3254  1  0.214300  0.572000  0.348300  1
  C  C3255  1  0.714300  0.428000  0.348300  1
  C  C3256  1  0.714300  0.572000  0.651700  1
  C  C3257  1  0.210000  0.967300  0.145000  1
  C  C3258  1  0.210000  0.032700  0.855000  1
  C  C3259  1  0.710000  0.967300  0.855000  1
  C  C3260  1  0.710000  0.032700  0.145000  1
  C  C3261  1  0.210000  0.467300  0.645000  1
  C  C3262  1  0.210000  0.532700  0.355000  1
  C  C3263  1  0.710000  0.467300  0.355000  1
  C  C3264  1  0.710000  0.532700  0.645000  1
  C  C3265  1  0.180200  0.982400  0.166500  1
  C  C3266  1  0.180200  0.017600  0.833500  1
  C  C3267  1  0.680200  0.982400  0.833500  1
  C  C3268  1  0.680200  0.017600  0.166500  1
  C  C3269  1  0.180200  0.482400  0.666500  1
  C  C3270  1  0.180200  0.517600  0.333500  1
  C  C3271  1  0.680200  0.482400  0.333500  1
  C  C3272  1  0.680200  0.517600  0.666500  1
  C  C3273  1  0.191200  0.977200  0.197500  1
  C  C3274  1  0.191200  0.022800  0.802500  1
  C  C3275  1  0.691200  0.977200  0.802500  1
  C  C3276  1  0.691200  0.022800  0.197500  1
  C  C3277  1  0.191200  0.477200  0.697500  1
  C  C3278  1  0.191200  0.522800  0.302500  1
  C  C3279  1  0.691200  0.477200  0.302500  1
  C  C3280  1  0.691200  0.522800  0.697500  1
  C  C3281  1  0.290000  0.958900  0.323500  1
  C  C3282  1  0.290000  0.041100  0.676500  1
  C  C3283  1  0.790000  0.958900  0.676500  1
  C  C3284  1  0.790000  0.041100  0.323500  1
  C  C3285  1  0.290000  0.458900  0.823500  1
  C  C3286  1  0.290000  0.541100  0.176500  1
  C  C3287  1  0.790000  0.458900  0.176500  1
  C  C3288  1  0.790000  0.541100  0.823500  1
  C  C3289  1  0.250600  0.959400  0.316400  1
  C  C3290  1  0.250600  0.040600  0.683600  1
  C  C3291  1  0.750600  0.959400  0.683600  1
  C  C3292  1  0.750600  0.040600  0.316400  1
  C  C3293  1  0.250600  0.459400  0.816400  1
  C  C3294  1  0.250600  0.540600  0.183600  1
  C  C3295  1  0.750600  0.459400  0.183600  1
  C  C3296  1  0.750600  0.540600  0.816400  1
  C  C3297  1  0.305300  0.993200  0.316700  1
  C  C3298  1  0.305300  0.006800  0.683300  1
  C  C3299  1  0.805300  0.993200  0.683300  1
  C  C3300  1  0.805300  0.006800  0.316700  1
  C  C3301  1  0.305300  0.493200  0.816700  1
  C  C3302  1  0.305300  0.506800  0.183300  1
  C  C3303  1  0.805300  0.493200  0.183300  1
  C  C3304  1  0.805300  0.506800  0.816700  1
  C  C3305  1  0.307100  0.929200  0.304800  1
  C  C3306  1  0.307100  0.070800  0.695200  1
  C  C3307  1  0.807100  0.929200  0.695200  1
  C  C3308  1  0.807100  0.070800  0.304800  1
  C  C3309  1  0.307100  0.429200  0.804800  1
  C  C3310  1  0.307100  0.570800  0.195200  1
  C  C3311  1  0.807100  0.429200  0.195200  1
  C  C3312  1  0.807100  0.570800  0.804800  1
  C  C3313  1  0.242400  0.969300  0.284000  1
  C  C3314  1  0.242400  0.030700  0.716000  1
  C  C3315  1  0.742400  0.969300  0.716000  1
  C  C3316  1  0.742400  0.030700  0.284000  1
  C  C3317  1  0.242400  0.469300  0.784000  1
  C  C3318  1  0.242400  0.530700  0.216000  1
  C  C3319  1  0.742400  0.469300  0.216000  1
  C  C3320  1  0.742400  0.530700  0.784000  1
  C  C3321  1  0.261700  0.004200  0.277000  1
  C  C3322  1  0.261700  0.995800  0.723000  1
  C  C3323  1  0.761700  0.004200  0.723000  1
  C  C3324  1  0.761700  0.995800  0.277000  1
  C  C3325  1  0.261700  0.504200  0.777000  1
  C  C3326  1  0.261700  0.495800  0.223000  1
  C  C3327  1  0.761700  0.504200  0.223000  1
  C  C3328  1  0.761700  0.495800  0.777000  1
  C  C3329  1  0.302200  0.002100  0.283200  1
  C  C3330  1  0.302200  0.997900  0.716800  1
  C  C3331  1  0.802200  0.002100  0.716800  1
  C  C3332  1  0.802200  0.997900  0.283200  1
  C  C3333  1  0.302200  0.502100  0.783200  1
  C  C3334  1  0.302200  0.497900  0.216800  1
  C  C3335  1  0.802200  0.502100  0.216800  1
  C  C3336  1  0.802200  0.497900  0.783200  1
  C  C3337  1  0.321500  0.972600  0.265700  1
  C  C3338  1  0.321500  0.027400  0.734300  1
  C  C3339  1  0.821500  0.972600  0.734300  1
  C  C3340  1  0.821500  0.027400  0.265700  1
  C  C3341  1  0.321500  0.472600  0.765700  1
  C  C3342  1  0.321500  0.527400  0.234300  1
  C  C3343  1  0.821500  0.472600  0.234300  1
  C  C3344  1  0.821500  0.527400  0.765700  1
  C  C3345  1  0.301600  0.937400  0.272100  1
  C  C3346  1  0.301600  0.062600  0.727900  1
  C  C3347  1  0.801600  0.937400  0.727900  1
  C  C3348  1  0.801600  0.062600  0.272100  1
  C  C3349  1  0.301600  0.437400  0.772100  1
  C  C3350  1  0.301600  0.562600  0.227900  1
  C  C3351  1  0.801600  0.437400  0.227900  1
  C  C3352  1  0.801600  0.562600  0.772100  1
  C  C3353  1  0.262500  0.939500  0.264200  1
  C  C3354  1  0.262500  0.060500  0.735800  1
  C  C3355  1  0.762500  0.939500  0.735800  1
  C  C3356  1  0.762500  0.060500  0.264200  1
  C  C3357  1  0.262500  0.439500  0.764200  1
  C  C3358  1  0.262500  0.560500  0.235800  1
  C  C3359  1  0.762500  0.439500  0.235800  1
  C  C3360  1  0.762500  0.560500  0.764200  1
  C  C3361  1  0.348300  0.000000  0.000000  1
  C  C3362  1  0.848300  0.000000  0.000000  1
  C  C3363  1  0.348300  0.500000  0.500000  1
  C  C3364  1  0.848300  0.500000  0.500000  1
  C  C3365  1  0.306300  0.000000  0.000000  1
  C  C3366  1  0.806300  0.000000  0.000000  1
  C  C3367  1  0.306300  0.500000  0.500000  1
  C  C3368  1  0.806300  0.500000  0.500000  1
  C  C3369  1  0.319300  0.750000  0.250000  1
  C  C3370  1  0.319300  0.250000  0.750000  1
  C  C3371  1  0.819300  0.750000  0.750000  1
  C  C3372  1  0.819300  0.250000  0.250000  1
  C  C3373  1  0.273200  0.750000  0.250000  1
  C  C3374  1  0.273200  0.250000  0.750000  1
  C  C3375  1  0.773200  0.750000  0.750000  1
  C  C3376  1  0.773200  0.250000  0.250000  1
  C  C3377  1  0.532600  0.839900  0.283000  1
  C  C3378  1  0.532600  0.160100  0.717000  1
  C  C3379  1  0.032600  0.839900  0.717000  1
  C  C3380  1  0.032600  0.160100  0.283000  1
  C  C3381  1  0.532600  0.339900  0.783000  1
  C  C3382  1  0.532600  0.660100  0.217000  1
  C  C3383  1  0.032600  0.339900  0.217000  1
  C  C3384  1  0.032600  0.660100  0.783000  1
  C  C3385  1  0.544900  0.842800  0.315500  1
  C  C3386  1  0.544900  0.157200  0.684500  1
  C  C3387  1  0.044900  0.842800  0.684500  1
  C  C3388  1  0.044900  0.157200  0.315500  1
  C  C3389  1  0.544900  0.342800  0.815500  1
  C  C3390  1  0.544900  0.657200  0.184500  1
  C  C3391  1  0.044900  0.342800  0.184500  1
  C  C3392  1  0.044900  0.657200  0.815500  1
  C  C3393  1  0.504100  0.856000  0.373100  1
  C  C3394  1  0.504100  0.144000  0.626900  1
  C  C3395  1  0.004100  0.856000  0.626900  1
  C  C3396  1  0.004100  0.144000  0.373100  1
  C  C3397  1  0.504100  0.356000  0.873100  1
  C  C3398  1  0.504100  0.644000  0.126900  1
  C  C3399  1  0.004100  0.356000  0.126900  1
  C  C3400  1  0.004100  0.644000  0.873100  1
  C  C3401  1  0.469000  0.875700  0.382100  1
  C  C3402  1  0.469000  0.124300  0.617900  1
  C  C3403  1  0.969000  0.875700  0.617900  1
  C  C3404  1  0.969000  0.124300  0.382100  1
  C  C3405  1  0.469000  0.375700  0.882100  1
  C  C3406  1  0.469000  0.624300  0.117900  1
  C  C3407  1  0.969000  0.375700  0.117900  1
  C  C3408  1  0.969000  0.624300  0.882100  1
  C  C3409  1  0.163700  0.907300  0.169200  1
  C  C3410  1  0.163700  0.092700  0.830800  1
  C  C3411  1  0.663700  0.907300  0.830800  1
  C  C3412  1  0.663700  0.092700  0.169200  1
  C  C3413  1  0.163700  0.407300  0.669200  1
  C  C3414  1  0.163700  0.592700  0.330800  1
  C  C3415  1  0.663700  0.407300  0.330800  1
  C  C3416  1  0.663700  0.592700  0.669200  1
  C  C3417  1  0.170700  0.916100  0.137900  1
  C  C3418  1  0.170700  0.083900  0.862100  1
  C  C3419  1  0.670700  0.916100  0.862100  1
  C  C3420  1  0.670700  0.083900  0.137900  1
  C  C3421  1  0.170700  0.416100  0.637900  1
  C  C3422  1  0.170700  0.583900  0.362100  1
  C  C3423  1  0.670700  0.416100  0.362100  1
  C  C3424  1  0.670700  0.583900  0.637900  1
  C  C3425  1  0.135700  0.930400  0.182000  1
  C  C3426  1  0.135700  0.069600  0.818000  1
  C  C3427  1  0.635700  0.930400  0.818000  1
  C  C3428  1  0.635700  0.069600  0.182000  1
  C  C3429  1  0.135700  0.430400  0.682000  1
  C  C3430  1  0.135700  0.569600  0.318000  1
  C  C3431  1  0.635700  0.430400  0.318000  1
  C  C3432  1  0.635700  0.569600  0.682000  1
  C  C3433  1  0.200200  0.911200  0.187100  1
  C  C3434  1  0.200200  0.088800  0.812900  1
  C  C3435  1  0.700200  0.911200  0.812900  1
  C  C3436  1  0.700200  0.088800  0.187100  1
  C  C3437  1  0.200200  0.411200  0.687100  1
  C  C3438  1  0.200200  0.588800  0.312900  1
  C  C3439  1  0.700200  0.411200  0.312900  1
  C  C3440  1  0.700200  0.588800  0.687100  1
  C  C3441  1  0.181200  0.954900  0.133900  1
  C  C3442  1  0.181200  0.045100  0.866100  1
  C  C3443  1  0.681200  0.954900  0.866100  1
  C  C3444  1  0.681200  0.045100  0.133900  1
  C  C3445  1  0.181200  0.454900  0.633900  1
  C  C3446  1  0.181200  0.545100  0.366100  1
  C  C3447  1  0.681200  0.454900  0.366100  1
  C  C3448  1  0.681200  0.545100  0.633900  1
  C  C3449  1  0.152200  0.978100  0.149400  1
  C  C3450  1  0.152200  0.021900  0.850600  1
  C  C3451  1  0.652200  0.978100  0.850600  1
  C  C3452  1  0.652200  0.021900  0.149400  1
  C  C3453  1  0.152200  0.478100  0.649400  1
  C  C3454  1  0.152200  0.521900  0.350600  1
  C  C3455  1  0.652200  0.478100  0.350600  1
  C  C3456  1  0.652200  0.521900  0.649400  1
  C  C3457  1  0.147600  0.969200  0.181800  1
  C  C3458  1  0.147600  0.030800  0.818200  1
  C  C3459  1  0.647600  0.969200  0.818200  1
  C  C3460  1  0.647600  0.030800  0.181800  1
  C  C3461  1  0.147600  0.469200  0.681800  1
  C  C3462  1  0.147600  0.530800  0.318200  1
  C  C3463  1  0.647600  0.469200  0.318200  1
  C  C3464  1  0.647600  0.530800  0.681800  1
  C  C3465  1  0.184500  0.975200  0.197400  1
  C  C3466  1  0.184500  0.024800  0.802600  1
  C  C3467  1  0.684500  0.975200  0.802600  1
  C  C3468  1  0.684500  0.024800  0.197400  1
  C  C3469  1  0.184500  0.475200  0.697400  1
  C  C3470  1  0.184500  0.524800  0.302600  1
  C  C3471  1  0.684500  0.475200  0.302600  1
  C  C3472  1  0.684500  0.524800  0.697400  1
  C  C3473  1  0.213000  0.949200  0.183700  1
  C  C3474  1  0.213000  0.050800  0.816300  1
  C  C3475  1  0.713000  0.949200  0.816300  1
  C  C3476  1  0.713000  0.050800  0.183700  1
  C  C3477  1  0.213000  0.449200  0.683700  1
  C  C3478  1  0.213000  0.550800  0.316300  1
  C  C3479  1  0.713000  0.449200  0.316300  1
  C  C3480  1  0.713000  0.550800  0.683700  1
  C  C3481  1  0.219100  0.958400  0.152300  1
  C  C3482  1  0.219100  0.041600  0.847700  1
  C  C3483  1  0.719100  0.958400  0.847700  1
  C  C3484  1  0.719100  0.041600  0.152300  1
  C  C3485  1  0.219100  0.458400  0.652300  1
  C  C3486  1  0.219100  0.541600  0.347700  1
  C  C3487  1  0.719100  0.458400  0.347700  1
  C  C3488  1  0.719100  0.541600  0.652300  1
  C  C3489  1  0.277000  0.960200  0.327700  1
  C  C3490  1  0.277000  0.039800  0.672300  1
  C  C3491  1  0.777000  0.960200  0.672300  1
  C  C3492  1  0.777000  0.039800  0.327700  1
  C  C3493  1  0.277000  0.460200  0.827700  1
  C  C3494  1  0.277000  0.539800  0.172300  1
  C  C3495  1  0.777000  0.460200  0.172300  1
  C  C3496  1  0.777000  0.539800  0.827700  1
  C  C3497  1  0.275900  0.997900  0.321200  1
  C  C3498  1  0.275900  0.002100  0.678800  1
  C  C3499  1  0.775900  0.997900  0.678800  1
  C  C3500  1  0.775900  0.002100  0.321200  1
  C  C3501  1  0.275900  0.497900  0.821200  1
  C  C3502  1  0.275900  0.502100  0.178800  1
  C  C3503  1  0.775900  0.497900  0.178800  1
  C  C3504  1  0.775900  0.502100  0.821200  1
  C  C3505  1  0.310600  0.943100  0.318200  1
  C  C3506  1  0.310600  0.056900  0.681800  1
  C  C3507  1  0.810600  0.943100  0.681800  1
  C  C3508  1  0.810600  0.056900  0.318200  1
  C  C3509  1  0.310600  0.443100  0.818200  1
  C  C3510  1  0.310600  0.556900  0.181800  1
  C  C3511  1  0.810600  0.443100  0.181800  1
  C  C3512  1  0.810600  0.556900  0.818200  1
  C  C3513  1  0.244200  0.942700  0.311600  1
  C  C3514  1  0.244200  0.057300  0.688400  1
  C  C3515  1  0.744200  0.942700  0.688400  1
  C  C3516  1  0.744200  0.057300  0.311600  1
  C  C3517  1  0.244200  0.442700  0.811600  1
  C  C3518  1  0.244200  0.557300  0.188400  1
  C  C3519  1  0.744200  0.442700  0.188400  1
  C  C3520  1  0.744200  0.557300  0.811600  1
  C  C3521  1  0.281900  0.005200  0.288000  1
  C  C3522  1  0.281900  0.994800  0.712000  1
  C  C3523  1  0.781900  0.005200  0.712000  1
  C  C3524  1  0.781900  0.994800  0.288000  1
  C  C3525  1  0.281900  0.505200  0.788000  1
  C  C3526  1  0.281900  0.494800  0.212000  1
  C  C3527  1  0.781900  0.505200  0.212000  1
  C  C3528  1  0.781900  0.494800  0.788000  1
  C  C3529  1  0.317200  0.985400  0.278700  1
  C  C3530  1  0.317200  0.014600  0.721300  1
  C  C3531  1  0.817200  0.985400  0.721300  1
  C  C3532  1  0.817200  0.014600  0.278700  1
  C  C3533  1  0.317200  0.485400  0.778700  1
  C  C3534  1  0.317200  0.514600  0.221300  1
  C  C3535  1  0.817200  0.485400  0.221300  1
  C  C3536  1  0.817200  0.514600  0.778700  1
  C  C3537  1  0.316200  0.946900  0.284400  1
  C  C3538  1  0.316200  0.053100  0.715600  1
  C  C3539  1  0.816200  0.946900  0.715600  1
  C  C3540  1  0.816200  0.053100  0.284400  1
  C  C3541  1  0.316200  0.446900  0.784400  1
  C  C3542  1  0.316200  0.553100  0.215600  1
  C  C3543  1  0.816200  0.446900  0.215600  1
  C  C3544  1  0.816200  0.553100  0.784400  1
  C  C3545  1  0.284100  0.930600  0.267000  1
  C  C3546  1  0.284100  0.069400  0.733000  1
  C  C3547  1  0.784100  0.930600  0.733000  1
  C  C3548  1  0.784100  0.069400  0.267000  1
  C  C3549  1  0.284100  0.430600  0.767000  1
  C  C3550  1  0.284100  0.569400  0.233000  1
  C  C3551  1  0.784100  0.430600  0.233000  1
  C  C3552  1  0.784100  0.569400  0.767000  1
  C  C3553  1  0.248300  0.948600  0.278700  1
  C  C3554  1  0.248300  0.051400  0.721300  1
  C  C3555  1  0.748300  0.948600  0.721300  1
  C  C3556  1  0.748300  0.051400  0.278700  1
  C  C3557  1  0.248300  0.448600  0.778700  1
  C  C3558  1  0.248300  0.551400  0.221300  1
  C  C3559  1  0.748300  0.448600  0.221300  1
  C  C3560  1  0.748300  0.551400  0.778700  1
  C  C3561  1  0.248200  0.986300  0.271500  1
  C  C3562  1  0.248200  0.013700  0.728500  1
  C  C3563  1  0.748200  0.986300  0.728500  1
  C  C3564  1  0.748200  0.013700  0.271500  1
  C  C3565  1  0.248200  0.486300  0.771500  1
  C  C3566  1  0.248200  0.513700  0.228500  1
  C  C3567  1  0.748200  0.486300  0.228500  1
  C  C3568  1  0.748200  0.513700  0.771500  1
  C  C3569  1  0.226400  0.121400  0.024500  1.0
  C  C3570  1  0.226400  0.878600  0.975500  1.0
  C  C3571  1  0.726400  0.121400  0.975500  1.0
  C  C3572  1  0.726400  0.878600  0.024500  1.0
  C  C3573  1  0.226400  0.621400  0.524500  1.0
  C  C3574  1  0.226400  0.378600  0.475500  1.0
  C  C3575  1  0.726400  0.621400  0.475500  1.0
  C  C3576  1  0.726400  0.378600  0.524500  1.0
  C  C3577  1  0.248600  0.092300  0.019900  1.0
  C  C3578  1  0.248600  0.907700  0.980100  1.0
  C  C3579  1  0.748600  0.092300  0.980100  1.0
  C  C3580  1  0.748600  0.907700  0.019900  1.0
  C  C3581  1  0.248600  0.592300  0.519900  1.0
  C  C3582  1  0.248600  0.407700  0.480100  1.0
  C  C3583  1  0.748600  0.592300  0.480100  1.0
  C  C3584  1  0.748600  0.407700  0.519900  1.0
  C  C3585  1  0.230900  0.062500  0.008300  1.0
  C  C3586  1  0.230900  0.937500  0.991700  1.0
  C  C3587  1  0.730900  0.062500  0.991700  1.0
  C  C3588  1  0.730900  0.937500  0.008300  1.0
  C  C3589  1  0.230900  0.562500  0.508300  1.0
  C  C3590  1  0.230900  0.437500  0.491700  1.0
  C  C3591  1  0.730900  0.562500  0.491700  1.0
  C  C3592  1  0.730900  0.437500  0.508300  1.0
  C  C3593  1  0.193500  0.065500  0.001800  1.0
  C  C3594  1  0.193500  0.934500  0.998200  1.0
  C  C3595  1  0.693500  0.065500  0.998200  1.0
  C  C3596  1  0.693500  0.934500  0.001800  1.0
  C  C3597  1  0.193500  0.565500  0.501800  1.0
  C  C3598  1  0.193500  0.434500  0.498200  1.0
  C  C3599  1  0.693500  0.565500  0.498200  1.0
  C  C3600  1  0.693500  0.434500  0.501800  1.0
  C  C3601  1  0.175500  0.096500  0.006600  1.0
  C  C3602  1  0.175500  0.903500  0.993400  1.0
  C  C3603  1  0.675500  0.096500  0.993400  1.0
  C  C3604  1  0.675500  0.903500  0.006600  1.0
  C  C3605  1  0.175500  0.596500  0.506600  1.0
  C  C3606  1  0.175500  0.403500  0.493400  1.0
  C  C3607  1  0.675500  0.596500  0.493400  1.0
  C  C3608  1  0.675500  0.403500  0.506600  1.0
  C  C3609  1  0.405800  0.029700  0.998600  1.0
  C  C3610  1  0.405800  0.970300  0.001400  1.0
  C  C3611  1  0.905800  0.029700  0.001400  1.0
  C  C3612  1  0.905800  0.970300  0.998600  1.0
  C  C3613  1  0.405800  0.529700  0.498600  1.0
  C  C3614  1  0.405800  0.470300  0.501400  1.0
  C  C3615  1  0.905800  0.529700  0.501400  1.0
  C  C3616  1  0.905800  0.470300  0.498600  1.0
  C  C3617  1  0.368000  0.031000  0.998400  1.0
  C  C3618  1  0.368000  0.969000  0.001600  1.0
  C  C3619  1  0.868000  0.031000  0.001600  1.0
  C  C3620  1  0.868000  0.969000  0.998400  1.0
  C  C3621  1  0.368000  0.531000  0.498400  1.0
  C  C3622  1  0.368000  0.469000  0.501600  1.0
  C  C3623  1  0.868000  0.531000  0.501600  1.0
  C  C3624  1  0.868000  0.469000  0.498400  1.0
  C  C3625  1  0.251400  0.029900  0.003900  1.0
  C  C3626  1  0.251400  0.970100  0.996100  1.0
  C  C3627  1  0.751400  0.029900  0.996100  1.0
  C  C3628  1  0.751400  0.970100  0.003900  1.0
  C  C3629  1  0.251400  0.529900  0.503900  1.0
  C  C3630  1  0.251400  0.470100  0.496100  1.0
  C  C3631  1  0.751400  0.529900  0.496100  1.0
  C  C3632  1  0.751400  0.470100  0.503900  1.0
  C  C3633  1  0.144400  0.763800  0.332100  1.0
  C  C3634  1  0.144400  0.236200  0.667900  1.0
  C  C3635  1  0.644400  0.763800  0.667900  1.0
  C  C3636  1  0.644400  0.236200  0.332100  1.0
  C  C3637  1  0.144400  0.263800  0.832100  1.0
  C  C3638  1  0.144400  0.736200  0.167900  1.0
  C  C3639  1  0.644400  0.263800  0.167900  1.0
  C  C3640  1  0.644400  0.736200  0.832100  1.0
  C  C3641  1  0.163700  0.755900  0.305800  1.0
  C  C3642  1  0.163700  0.244100  0.694200  1.0
  C  C3643  1  0.663700  0.755900  0.694200  1.0
  C  C3644  1  0.663700  0.244100  0.305800  1.0
  C  C3645  1  0.163700  0.255900  0.805800  1.0
  C  C3646  1  0.163700  0.744100  0.194200  1.0
  C  C3647  1  0.663700  0.255900  0.194200  1.0
  C  C3648  1  0.663700  0.744100  0.805800  1.0
  C  C3649  1  0.201300  0.764600  0.303200  1.0
  C  C3650  1  0.201300  0.235400  0.696800  1.0
  C  C3651  1  0.701300  0.764600  0.696800  1.0
  C  C3652  1  0.701300  0.235400  0.303200  1.0
  C  C3653  1  0.201300  0.264600  0.803200  1.0
  C  C3654  1  0.201300  0.735400  0.196800  1.0
  C  C3655  1  0.701300  0.264600  0.196800  1.0
  C  C3656  1  0.701300  0.735400  0.803200  1.0
  C  C3657  1  0.219600  0.781300  0.326900  1.0
  C  C3658  1  0.219600  0.218700  0.673100  1.0
  C  C3659  1  0.719600  0.781300  0.673100  1.0
  C  C3660  1  0.719600  0.218700  0.326900  1.0
  C  C3661  1  0.219600  0.281300  0.826900  1.0
  C  C3662  1  0.219600  0.718700  0.173100  1.0
  C  C3663  1  0.719600  0.281300  0.173100  1.0
  C  C3664  1  0.719600  0.718700  0.826900  1.0
  C  C3665  1  0.200300  0.789300  0.353200  1.0
  C  C3666  1  0.200300  0.210700  0.646800  1.0
  C  C3667  1  0.700300  0.789300  0.646800  1.0
  C  C3668  1  0.700300  0.210700  0.353200  1.0
  C  C3669  1  0.200300  0.289300  0.853200  1.0
  C  C3670  1  0.200300  0.710700  0.146800  1.0
  C  C3671  1  0.700300  0.289300  0.146800  1.0
  C  C3672  1  0.700300  0.710700  0.853200  1.0
  C  C3673  1  0.378900  0.748700  0.276500  1.0
  C  C3674  1  0.378900  0.251300  0.723500  1.0
  C  C3675  1  0.878900  0.748700  0.723500  1.0
  C  C3676  1  0.878900  0.251300  0.276500  1.0
  C  C3677  1  0.378900  0.248700  0.776500  1.0
  C  C3678  1  0.378900  0.751300  0.223500  1.0
  C  C3679  1  0.878900  0.248700  0.223500  1.0
  C  C3680  1  0.878900  0.751300  0.776500  1.0
  C  C3681  1  0.340600  0.749000  0.277400  1.0
  C  C3682  1  0.340600  0.251000  0.722600  1.0
  C  C3683  1  0.840600  0.749000  0.722600  1.0
  C  C3684  1  0.840600  0.251000  0.277400  1.0
  C  C3685  1  0.340600  0.249000  0.777400  1.0
  C  C3686  1  0.340600  0.751000  0.222600  1.0
  C  C3687  1  0.840600  0.249000  0.222600  1.0
  C  C3688  1  0.840600  0.751000  0.777400  1.0
  C  C3689  1  0.219700  0.755400  0.273800  1.0
  C  C3690  1  0.219700  0.244600  0.726200  1.0
  C  C3691  1  0.719700  0.755400  0.726200  1.0
  C  C3692  1  0.719700  0.244600  0.273800  1.0
  C  C3693  1  0.219700  0.255400  0.773800  1.0
  C  C3694  1  0.219700  0.744600  0.226200  1.0
  C  C3695  1  0.719700  0.255400  0.226200  1.0
  C  C3696  1  0.719700  0.744600  0.773800  1.0
  S  S3697  1  0.058930  0.070980  0.093270  1
  S  S3698  1  0.058930  0.929020  0.906730  1
  S  S3699  1  0.558930  0.070980  0.906730  1
  S  S3700  1  0.558930  0.929020  0.093270  1
  S  S3701  1  0.058930  0.570980  0.593270  1
  S  S3702  1  0.058930  0.429020  0.406730  1
  S  S3703  1  0.558930  0.570980  0.406730  1
  S  S3704  1  0.558930  0.429020  0.593270  1
  S  S3705  1  0.054110  0.151220  0.109870  1
  S  S3706  1  0.054110  0.848780  0.890130  1
  S  S3707  1  0.554110  0.151220  0.890130  1
  S  S3708  1  0.554110  0.848780  0.109870  1
  S  S3709  1  0.054110  0.651220  0.609870  1
  S  S3710  1  0.054110  0.348780  0.390130  1
  S  S3711  1  0.554110  0.651220  0.390130  1
  S  S3712  1  0.554110  0.348780  0.609870  1
  S  S3713  1  0.137000  0.170670  0.099660  1
  S  S3714  1  0.137000  0.829330  0.900340  1
  S  S3715  1  0.637000  0.170670  0.900340  1
  S  S3716  1  0.637000  0.829330  0.099660  1
  S  S3717  1  0.137000  0.670670  0.599660  1
  S  S3718  1  0.137000  0.329330  0.400340  1
  S  S3719  1  0.637000  0.670670  0.400340  1
  S  S3720  1  0.637000  0.329330  0.599660  1
  S  S3721  1  0.098520  0.124630  0.048390  1
  S  S3722  1  0.098520  0.875370  0.951610  1
  S  S3723  1  0.598520  0.124630  0.951610  1
  S  S3724  1  0.598520  0.875370  0.048390  1
  S  S3725  1  0.098520  0.624630  0.548390  1
  S  S3726  1  0.098520  0.375370  0.451610  1
  S  S3727  1  0.598520  0.624630  0.451610  1
  S  S3728  1  0.598520  0.375370  0.548390  1
  S  S3729  1  0.457880  0.137330  0.088020  1
  S  S3730  1  0.457880  0.862670  0.911980  1
  S  S3731  1  0.957880  0.137330  0.911980  1
  S  S3732  1  0.957880  0.862670  0.088020  1
  S  S3733  1  0.457880  0.637330  0.588020  1
  S  S3734  1  0.457880  0.362670  0.411980  1
  S  S3735  1  0.957880  0.637330  0.411980  1
  S  S3736  1  0.957880  0.362670  0.588020  1
  S  S3737  1  0.534120  0.098570  0.091970  1
  S  S3738  1  0.534120  0.901430  0.908030  1
  S  S3739  1  0.034120  0.098570  0.908030  1
  S  S3740  1  0.034120  0.901430  0.091970  1
  S  S3741  1  0.534120  0.598570  0.591970  1
  S  S3742  1  0.534120  0.401430  0.408030  1
  S  S3743  1  0.034120  0.598570  0.408030  1
  S  S3744  1  0.034120  0.401430  0.591970  1
  S  S3745  1  0.506820  0.021850  0.079750  1
  S  S3746  1  0.506820  0.978150  0.920250  1
  S  S3747  1  0.006820  0.021850  0.920250  1
  S  S3748  1  0.006820  0.978150  0.079750  1
  S  S3749  1  0.506820  0.521850  0.579750  1
  S  S3750  1  0.506820  0.478150  0.420250  1
  S  S3751  1  0.006820  0.521850  0.420250  1
  S  S3752  1  0.006820  0.478150  0.579750  1
  S  S3753  1  0.476280  0.082330  0.035960  1
  S  S3754  1  0.476280  0.917670  0.964040  1
  S  S3755  1  0.976280  0.082330  0.964040  1
  S  S3756  1  0.976280  0.917670  0.035960  1
  S  S3757  1  0.476280  0.582330  0.535960  1
  S  S3758  1  0.476280  0.417670  0.464040  1
  S  S3759  1  0.976280  0.582330  0.464040  1
  S  S3760  1  0.976280  0.417670  0.535960  1
  S  S3761  1  0.178690  0.795520  0.062780  1
  S  S3762  1  0.178690  0.204480  0.937220  1
  S  S3763  1  0.678690  0.795520  0.937220  1
  S  S3764  1  0.678690  0.204480  0.062780  1
  S  S3765  1  0.178690  0.295520  0.562780  1
  S  S3766  1  0.178690  0.704480  0.437220  1
  S  S3767  1  0.678690  0.295520  0.437220  1
  S  S3768  1  0.678690  0.704480  0.562780  1
  S  S3769  1  0.242980  0.797660  0.014550  1
  S  S3770  1  0.242980  0.202340  0.985450  1
  S  S3771  1  0.742980  0.797660  0.985450  1
  S  S3772  1  0.742980  0.202340  0.014550  1
  S  S3773  1  0.242980  0.297660  0.514550  1
  S  S3774  1  0.242980  0.702340  0.485450  1
  S  S3775  1  0.742980  0.297660  0.485450  1
  S  S3776  1  0.742980  0.702340  0.514550  1
  S  S3777  1  0.308800  0.777640  0.058710  1
  S  S3778  1  0.308800  0.222360  0.941290  1
  S  S3779  1  0.808800  0.777640  0.941290  1
  S  S3780  1  0.808800  0.222360  0.058710  1
  S  S3781  1  0.308800  0.277640  0.558710  1
  S  S3782  1  0.308800  0.722360  0.441290  1
  S  S3783  1  0.808800  0.277640  0.441290  1
  S  S3784  1  0.808800  0.722360  0.558710  1
  S  S3785  1  0.236890  0.735070  0.076840  1
  S  S3786  1  0.236890  0.264930  0.923160  1
  S  S3787  1  0.736890  0.735070  0.923160  1
  S  S3788  1  0.736890  0.264930  0.076840  1
  S  S3789  1  0.236890  0.235070  0.576840  1
  S  S3790  1  0.236890  0.764930  0.423160  1
  S  S3791  1  0.736890  0.235070  0.423160  1
  S  S3792  1  0.736890  0.764930  0.576840  1
  S  S3793  1  0.038330  0.873880  0.280150  1
  S  S3794  1  0.038330  0.126120  0.719850  1
  S  S3795  1  0.538330  0.873880  0.719850  1
  S  S3796  1  0.538330  0.126120  0.280150  1
  S  S3797  1  0.038330  0.373880  0.780150  1
  S  S3798  1  0.038330  0.626120  0.219850  1
  S  S3799  1  0.538330  0.373880  0.219850  1
  S  S3800  1  0.538330  0.626120  0.780150  1
  S  S3801  1  0.066840  0.824800  0.333410  1
  S  S3802  1  0.066840  0.175200  0.666590  1
  S  S3803  1  0.566840  0.824800  0.666590  1
  S  S3804  1  0.566840  0.175200  0.333410  1
  S  S3805  1  0.066840  0.324800  0.833410  1
  S  S3806  1  0.066840  0.675200  0.166590  1
  S  S3807  1  0.566840  0.324800  0.166590  1
  S  S3808  1  0.566840  0.675200  0.833410  1
  S  S3809  1  0.105460  0.888100  0.370060  1
  S  S3810  1  0.105460  0.111900  0.629940  1
  S  S3811  1  0.605460  0.888100  0.629940  1
  S  S3812  1  0.605460  0.111900  0.370060  1
  S  S3813  1  0.105460  0.388100  0.870060  1
  S  S3814  1  0.105460  0.611900  0.129940  1
  S  S3815  1  0.605460  0.388100  0.129940  1
  S  S3816  1  0.605460  0.611900  0.870060  1
  S  S3817  1  0.025440  0.901600  0.344500  1
  S  S3818  1  0.025440  0.098400  0.655500  1
  S  S3819  1  0.525440  0.901600  0.655500  1
  S  S3820  1  0.525440  0.098400  0.344500  1
  S  S3821  1  0.025440  0.401600  0.844500  1
  S  S3822  1  0.025440  0.598400  0.155500  1
  S  S3823  1  0.525440  0.401600  0.155500  1
  S  S3824  1  0.525440  0.598400  0.844500  1
  S  S3825  1  0.308320  0.216790  0.314100  1
  S  S3826  1  0.308320  0.783210  0.685900  1
  S  S3827  1  0.808320  0.216790  0.685900  1
  S  S3828  1  0.808320  0.783210  0.314100  1
  S  S3829  1  0.308320  0.716790  0.814100  1
  S  S3830  1  0.308320  0.283210  0.185900  1
  S  S3831  1  0.808320  0.716790  0.185900  1
  S  S3832  1  0.808320  0.283210  0.814100  1
  S  S3833  1  0.267430  0.202470  0.374910  1
  S  S3834  1  0.267430  0.797530  0.625090  1
  S  S3835  1  0.767430  0.202470  0.625090  1
  S  S3836  1  0.767430  0.797530  0.374910  1
  S  S3837  1  0.267430  0.702470  0.874910  1
  S  S3838  1  0.267430  0.297530  0.125090  1
  S  S3839  1  0.767430  0.702470  0.125090  1
  S  S3840  1  0.767430  0.297530  0.874910  1
  S  S3841  1  0.307100  0.131600  0.391570  1
  S  S3842  1  0.307100  0.868400  0.608430  1
  S  S3843  1  0.807100  0.131600  0.608430  1
  S  S3844  1  0.807100  0.868400  0.391570  1
  S  S3845  1  0.307100  0.631600  0.891570  1
  S  S3846  1  0.307100  0.368400  0.108430  1
  S  S3847  1  0.807100  0.631600  0.108430  1
  S  S3848  1  0.807100  0.368400  0.891570  1
  S  S3849  1  0.360830  0.192420  0.367950  1
  S  S3850  1  0.360830  0.807580  0.632050  1
  S  S3851  1  0.860830  0.192420  0.632050  1
  S  S3852  1  0.860830  0.807580  0.367950  1
  S  S3853  1  0.360830  0.692420  0.867950  1
  S  S3854  1  0.360830  0.307580  0.132050  1
  S  S3855  1  0.860830  0.692420  0.132050  1
  S  S3856  1  0.860830  0.307580  0.867950  1
  S  S3857  1  0.423940  0.863850  0.364810  1
  S  S3858  1  0.423940  0.136150  0.635190  1
  S  S3859  1  0.923940  0.863850  0.635190  1
  S  S3860  1  0.923940  0.136150  0.364810  1
  S  S3861  1  0.423940  0.363850  0.864810  1
  S  S3862  1  0.423940  0.636150  0.135190  1
  S  S3863  1  0.923940  0.363850  0.135190  1
  S  S3864  1  0.923940  0.636150  0.864810  1
  S  S3865  1  0.484220  0.823200  0.277530  1
  S  S3866  1  0.484220  0.176800  0.722470  1
  S  S3867  1  0.984220  0.823200  0.722470  1
  S  S3868  1  0.984220  0.176800  0.277530  1
  S  S3869  1  0.484220  0.323200  0.777530  1
  S  S3870  1  0.484220  0.676800  0.222470  1
  S  S3871  1  0.984220  0.323200  0.222470  1
  S  S3872  1  0.984220  0.676800  0.777530  1
  S  S3873  1  0.442050  0.790030  0.334610  1
  S  S3874  1  0.442050  0.209970  0.665390  1
  S  S3875  1  0.942050  0.790030  0.665390  1
  S  S3876  1  0.942050  0.209970  0.334610  1
  S  S3877  1  0.442050  0.290030  0.834610  1
  S  S3878  1  0.442050  0.709970  0.165390  1
  S  S3879  1  0.942050  0.290030  0.165390  1
  S  S3880  1  0.942050  0.709970  0.834610  1
  S  S3881  1  0.502740  0.852810  0.341720  1
  S  S3882  1  0.502740  0.147190  0.658280  1
  S  S3883  1  0.002740  0.852810  0.658280  1
  S  S3884  1  0.002740  0.147190  0.341720  1
  S  S3885  1  0.502740  0.352810  0.841720  1
  S  S3886  1  0.502740  0.647190  0.158280  1
  S  S3887  1  0.002740  0.352810  0.158280  1
  S  S3888  1  0.002740  0.647190  0.841720  1
  S  S3889  1  0.507500  0.868400  0.333400  1
  S  S3890  1  0.507500  0.131600  0.666600  1
  S  S3891  1  0.007500  0.868400  0.666600  1
  S  S3892  1  0.007500  0.131600  0.333400  1
  S  S3893  1  0.507500  0.368400  0.833400  1
  S  S3894  1  0.507500  0.631600  0.166600  1
  S  S3895  1  0.007500  0.368400  0.166600  1
  S  S3896  1  0.007500  0.631600  0.833400  1
  N  N3897  1  0.151790  0.083300  0.089800  1
  N  N3898  1  0.151790  0.916700  0.910200  1
  N  N3899  1  0.651790  0.083300  0.910200  1
  N  N3900  1  0.651790  0.916700  0.089800  1
  N  N3901  1  0.151790  0.583300  0.589800  1
  N  N3902  1  0.151790  0.416700  0.410200  1
  N  N3903  1  0.651790  0.583300  0.410200  1
  N  N3904  1  0.651790  0.416700  0.589800  1
  N  N3905  1  0.419570  0.054740  0.082000  1
  N  N3906  1  0.419570  0.945260  0.918000  1
  N  N3907  1  0.919570  0.054740  0.918000  1
  N  N3908  1  0.919570  0.945260  0.082000  1
  N  N3909  1  0.419570  0.554740  0.582000  1
  N  N3910  1  0.419570  0.445260  0.418000  1
  N  N3911  1  0.919570  0.554740  0.418000  1
  N  N3912  1  0.919570  0.445260  0.582000  1
  N  N3913  1  0.254700  0.850600  0.063700  1
  N  N3914  1  0.254700  0.149400  0.936300  1
  N  N3915  1  0.754700  0.850600  0.936300  1
  N  N3916  1  0.754700  0.149400  0.063700  1
  N  N3917  1  0.254700  0.350600  0.563700  1
  N  N3918  1  0.254700  0.649400  0.436300  1
  N  N3919  1  0.754700  0.350600  0.436300  1
  N  N3920  1  0.754700  0.649400  0.563700  1
  N  N3921  1  0.281270  0.032560  0.080530  1
  N  N3922  1  0.281270  0.967440  0.919470  1
  N  N3923  1  0.781270  0.032560  0.919470  1
  N  N3924  1  0.781270  0.967440  0.080530  1
  N  N3925  1  0.281270  0.532560  0.580530  1
  N  N3926  1  0.281270  0.467440  0.419470  1
  N  N3927  1  0.781270  0.532560  0.419470  1
  N  N3928  1  0.781270  0.467440  0.580530  1
  N  N3929  1  0.307090  0.975470  0.071540  1
  N  N3930  1  0.307090  0.024530  0.928460  1
  N  N3931  1  0.807090  0.975470  0.928460  1
  N  N3932  1  0.807090  0.024530  0.071540  1
  N  N3933  1  0.307090  0.475470  0.571540  1
  N  N3934  1  0.307090  0.524530  0.428460  1
  N  N3935  1  0.807090  0.475470  0.428460  1
  N  N3936  1  0.807090  0.524530  0.571540  1
  N  N3937  1  0.241410  0.982540  0.073640  1
  N  N3938  1  0.241410  0.017460  0.926360  1
  N  N3939  1  0.741410  0.982540  0.926360  1
  N  N3940  1  0.741410  0.017460  0.073640  1
  N  N3941  1  0.241410  0.482540  0.573640  1
  N  N3942  1  0.241410  0.517460  0.426360  1
  N  N3943  1  0.741410  0.482540  0.426360  1
  N  N3944  1  0.741410  0.517460  0.573640  1
  N  N3945  1  0.117840  0.103210  0.145010  1
  N  N3946  1  0.117840  0.896790  0.854990  1
  N  N3947  1  0.617840  0.103210  0.854990  1
  N  N3948  1  0.617840  0.896790  0.145010  1
  N  N3949  1  0.117840  0.603210  0.645010  1
  N  N3950  1  0.117840  0.396790  0.354990  1
  N  N3951  1  0.617840  0.603210  0.354990  1
  N  N3952  1  0.617840  0.396790  0.645010  1
  N  N3953  1  0.098600  0.934200  0.306670  1
  N  N3954  1  0.098600  0.065800  0.693330  1
  N  N3955  1  0.598600  0.934200  0.693330  1
  N  N3956  1  0.598600  0.065800  0.306670  1
  N  N3957  1  0.098600  0.434200  0.806670  1
  N  N3958  1  0.098600  0.565800  0.193330  1
  N  N3959  1  0.598600  0.434200  0.193330  1
  N  N3960  1  0.598600  0.565800  0.806670  1
  N  N3961  1  0.264590  0.139060  0.325010  1
  N  N3962  1  0.264590  0.860940  0.674990  1
  N  N3963  1  0.764590  0.139060  0.674990  1
  N  N3964  1  0.764590  0.860940  0.325010  1
  N  N3965  1  0.264590  0.639060  0.825010  1
  N  N3966  1  0.264590  0.360940  0.174990  1
  N  N3967  1  0.764590  0.639060  0.174990  1
  N  N3968  1  0.764590  0.360940  0.825010  1
  N  N3969  1  0.137460  0.038580  0.242690  1
  N  N3970  1  0.137460  0.961420  0.757310  1
  N  N3971  1  0.637460  0.038580  0.757310  1
  N  N3972  1  0.637460  0.961420  0.242690  1
  N  N3973  1  0.137460  0.538580  0.742690  1
  N  N3974  1  0.137460  0.461420  0.257310  1
  N  N3975  1  0.637460  0.538580  0.257310  1
  N  N3976  1  0.637460  0.461420  0.742690  1
  N  N3977  1  0.173300  0.046670  0.287370  1
  N  N3978  1  0.173300  0.953330  0.712630  1
  N  N3979  1  0.673300  0.046670  0.712630  1
  N  N3980  1  0.673300  0.953330  0.287370  1
  N  N3981  1  0.173300  0.546670  0.787370  1
  N  N3982  1  0.173300  0.453330  0.212630  1
  N  N3983  1  0.673300  0.546670  0.212630  1
  N  N3984  1  0.673300  0.453330  0.787370  1
  N  N3985  1  0.178210  0.088010  0.247140  1
  N  N3986  1  0.178210  0.911990  0.752860  1
  N  N3987  1  0.678210  0.088010  0.752860  1
  N  N3988  1  0.678210  0.911990  0.247140  1
  N  N3989  1  0.178210  0.588010  0.747140  1
  N  N3990  1  0.178210  0.411990  0.252860  1
  N  N3991  1  0.678210  0.588010  0.252860  1
  N  N3992  1  0.678210  0.411990  0.747140  1
  N  N3993  1  0.445380  0.900150  0.298880  1
  N  N3994  1  0.445380  0.099850  0.701120  1
  N  N3995  1  0.945380  0.900150  0.701120  1
  N  N3996  1  0.945380  0.099850  0.298880  1
  N  N3997  1  0.445380  0.400150  0.798880  1
  N  N3998  1  0.445380  0.599850  0.201120  1
  N  N3999  1  0.945380  0.400150  0.201120  1
  N  N4000  1  0.945380  0.599850  0.798880  1
  N  N4001  1  0.464920  0.067920  0.134260  1
  N  N4002  1  0.464920  0.932080  0.865740  1
  N  N4003  1  0.964920  0.067920  0.865740  1
  N  N4004  1  0.964920  0.932080  0.134260  1
  N  N4005  1  0.464920  0.567920  0.634260  1
  N  N4006  1  0.464920  0.432080  0.365740  1
  N  N4007  1  0.964920  0.567920  0.365740  1
  N  N4008  1  0.964920  0.432080  0.634260  1
  N  N4009  1  0.343010  0.133710  0.321890  1
  N  N4010  1  0.343010  0.866290  0.678110  1
  N  N4011  1  0.843010  0.133710  0.678110  1
  N  N4012  1  0.843010  0.866290  0.321890  1
  N  N4013  1  0.343010  0.633710  0.821890  1
  N  N4014  1  0.343010  0.366290  0.178110  1
  N  N4015  1  0.843010  0.633710  0.178110  1
  N  N4016  1  0.843010  0.366290  0.821890  1
  N  N4017  1  0.438610  0.010900  0.233990  1
  N  N4018  1  0.438610  0.989100  0.766010  1
  N  N4019  1  0.938610  0.010900  0.766010  1
  N  N4020  1  0.938610  0.989100  0.233990  1
  N  N4021  1  0.438610  0.510900  0.733990  1
  N  N4022  1  0.438610  0.489100  0.266010  1
  N  N4023  1  0.938610  0.510900  0.266010  1
  N  N4024  1  0.938610  0.489100  0.733990  1
  N  N4025  1  0.415630  0.070110  0.240860  1
  N  N4026  1  0.415630  0.929890  0.759140  1
  N  N4027  1  0.915630  0.070110  0.759140  1
  N  N4028  1  0.915630  0.929890  0.240860  1
  N  N4029  1  0.415630  0.570110  0.740860  1
  N  N4030  1  0.415630  0.429890  0.259140  1
  N  N4031  1  0.915630  0.570110  0.259140  1
  N  N4032  1  0.915630  0.429890  0.740860  1
  N  N4033  1  0.411530  0.027900  0.280190  1
  N  N4034  1  0.411530  0.972100  0.719810  1
  N  N4035  1  0.911530  0.027900  0.719810  1
  N  N4036  1  0.911530  0.972100  0.280190  1
  N  N4037  1  0.411530  0.527900  0.780190  1
  N  N4038  1  0.411530  0.472100  0.219810  1
  N  N4039  1  0.911530  0.527900  0.219810  1
  N  N4040  1  0.911530  0.472100  0.780190  1
  N  N4041  1  0.395400  0.841150  0.294740  1
  N  N4042  1  0.395400  0.158850  0.705260  1
  N  N4043  1  0.895400  0.841150  0.705260  1
  N  N4044  1  0.895400  0.158850  0.294740  1
  N  N4045  1  0.395400  0.341150  0.794740  1
  N  N4046  1  0.395400  0.658850  0.205260  1
  N  N4047  1  0.895400  0.341150  0.205260  1
  N  N4048  1  0.895400  0.658850  0.794740  1
  N  N4049  1  0.127500  0.864700  0.299560  1
  N  N4050  1  0.127500  0.135300  0.700440  1
  N  N4051  1  0.627500  0.864700  0.700440  1
  N  N4052  1  0.627500  0.135300  0.299560  1
  N  N4053  1  0.127500  0.364700  0.799560  1
  N  N4054  1  0.127500  0.635300  0.200440  1
  N  N4055  1  0.627500  0.364700  0.200440  1
  N  N4056  1  0.627500  0.635300  0.799560  1
  N  N4057  1  0.248400  0.801000  0.113510  1
  N  N4058  1  0.248400  0.199000  0.886490  1
  N  N4059  1  0.748400  0.801000  0.886490  1
  N  N4060  1  0.748400  0.199000  0.113510  1
  N  N4061  1  0.248400  0.301000  0.613510  1
  N  N4062  1  0.248400  0.699000  0.386490  1
  N  N4063  1  0.748400  0.301000  0.386490  1
  N  N4064  1  0.748400  0.699000  0.613510  1
  N  N4065  1  0.259700  0.842400  0.266060  1
  N  N4066  1  0.259700  0.157600  0.733940  1
  N  N4067  1  0.759700  0.842400  0.733940  1
  N  N4068  1  0.759700  0.157600  0.266060  1
  N  N4069  1  0.259700  0.342400  0.766060  1
  N  N4070  1  0.259700  0.657600  0.233940  1
  N  N4071  1  0.759700  0.342400  0.233940  1
  N  N4072  1  0.759700  0.657600  0.766060  1
  N  N4073  1  0.223800  0.831500  0.222200  1
  N  N4074  1  0.223800  0.168500  0.777800  1
  N  N4075  1  0.723800  0.831500  0.777800  1
  N  N4076  1  0.723800  0.168500  0.222200  1
  N  N4077  1  0.223800  0.331500  0.722200  1
  N  N4078  1  0.223800  0.668500  0.277800  1
  N  N4079  1  0.723800  0.331500  0.277800  1
  N  N4080  1  0.723800  0.668500  0.722200  1
  N  N4081  1  0.290700  0.828800  0.219690  1
  N  N4082  1  0.290700  0.171200  0.780310  1
  N  N4083  1  0.790700  0.828800  0.780310  1
  N  N4084  1  0.790700  0.171200  0.219690  1
  N  N4085  1  0.290700  0.328800  0.719690  1
  N  N4086  1  0.290700  0.671200  0.280310  1
  N  N4087  1  0.790700  0.328800  0.280310  1
  N  N4088  1  0.790700  0.671200  0.719690  1
  N  N4089  1  0.425300  0.000000  0.000000  1
  N  N4090  1  0.925300  0.000000  0.000000  1
  N  N4091  1  0.425300  0.500000  0.500000  1
  N  N4092  1  0.925300  0.500000  0.500000  1
  N  N4093  1  0.231300  0.000000  0.000000  1
  N  N4094  1  0.731300  0.000000  0.000000  1
  N  N4095  1  0.231300  0.500000  0.500000  1
  N  N4096  1  0.731300  0.500000  0.500000  1
  N  N4097  1  0.398100  0.750000  0.250000  1
  N  N4098  1  0.398100  0.250000  0.750000  1
  N  N4099  1  0.898100  0.750000  0.750000  1
  N  N4100  1  0.898100  0.250000  0.250000  1
  N  N4101  1  0.200100  0.750000  0.250000  1
  N  N4102  1  0.200100  0.250000  0.750000  1
  N  N4103  1  0.700100  0.750000  0.750000  1
  N  N4104  1  0.700100  0.250000  0.250000  1
  N  N4105  1  0.038000  0.939900  0.206400  1
  N  N4106  1  0.038000  0.060100  0.793600  1
  N  N4107  1  0.538000  0.939900  0.793600  1
  N  N4108  1  0.538000  0.060100  0.206400  1
  N  N4109  1  0.038000  0.439900  0.706400  1
  N  N4110  1  0.038000  0.560100  0.293600  1
  N  N4111  1  0.538000  0.439900  0.293600  1
  N  N4112  1  0.538000  0.560100  0.706400  1
  N  N4113  1  0.442600  0.919700  0.054900  1
  N  N4114  1  0.442600  0.080300  0.945100  1
  N  N4115  1  0.942600  0.919700  0.945100  1
  N  N4116  1  0.942600  0.080300  0.054900  1
  N  N4117  1  0.442600  0.419700  0.554900  1
  N  N4118  1  0.442600  0.580300  0.445100  1
  N  N4119  1  0.942600  0.419700  0.445100  1
  N  N4120  1  0.942600  0.580300  0.554900  1
  N  N4121  1  0.472500  0.834600  0.199400  1
  N  N4122  1  0.472500  0.165400  0.800600  1
  N  N4123  1  0.972500  0.834600  0.800600  1
  N  N4124  1  0.972500  0.165400  0.199400  1
  N  N4125  1  0.472500  0.334600  0.699400  1
  N  N4126  1  0.472500  0.665400  0.300600  1
  N  N4127  1  0.972500  0.334600  0.300600  1
  N  N4128  1  0.972500  0.665400  0.699400  1
  N  N4129  1  0.101500  0.859800  0.052100  1
  N  N4130  1  0.101500  0.140200  0.947900  1
  N  N4131  1  0.601500  0.859800  0.947900  1
  N  N4132  1  0.601500  0.140200  0.052100  1
  N  N4133  1  0.101500  0.359800  0.552100  1
  N  N4134  1  0.101500  0.640200  0.447900  1
  N  N4135  1  0.601500  0.359800  0.447900  1
  N  N4136  1  0.601500  0.640200  0.552100  1
  N  N4137  1  0.442100  0.143600  0.364200  1
  N  N4138  1  0.442100  0.856400  0.635800  1
  N  N4139  1  0.942100  0.143600  0.635800  1
  N  N4140  1  0.942100  0.856400  0.364200  1
  N  N4141  1  0.442100  0.643600  0.864200  1
  N  N4142  1  0.442100  0.356400  0.135800  1
  N  N4143  1  0.942100  0.643600  0.135800  1
  N  N4144  1  0.942100  0.356400  0.864200  1
  N  N4145  1  0.354400  0.752500  0.138400  1
  N  N4146  1  0.354400  0.247500  0.861600  1
  N  N4147  1  0.854400  0.752500  0.861600  1
  N  N4148  1  0.854400  0.247500  0.138400  1
  N  N4149  1  0.354400  0.252500  0.638400  1
  N  N4150  1  0.354400  0.747500  0.361600  1
  N  N4151  1  0.854400  0.252500  0.361600  1
  N  N4152  1  0.854400  0.747500  0.638400  1
  N  N4153  1  0.222200  0.861900  0.379400  1
  N  N4154  1  0.222200  0.138100  0.620600  1
  N  N4155  1  0.722200  0.861900  0.620600  1
  N  N4156  1  0.722200  0.138100  0.379400  1
  N  N4157  1  0.222200  0.361900  0.879400  1
  N  N4158  1  0.222200  0.638100  0.120600  1
  N  N4159  1  0.722200  0.361900  0.120600  1
  N  N4160  1  0.722200  0.638100  0.879400  1
  N  N4161  1  0.221300  0.211800  0.087400  1
  N  N4162  1  0.221300  0.788200  0.912600  1
  N  N4163  1  0.721300  0.211800  0.912600  1
  N  N4164  1  0.721300  0.788200  0.087400  1
  N  N4165  1  0.221300  0.711800  0.587400  1
  N  N4166  1  0.221300  0.288200  0.412600  1
  N  N4167  1  0.721300  0.711800  0.412600  1
  N  N4168  1  0.721300  0.288200  0.587400  1
  N  N4169  1  0.526300  0.846800  0.203700  1
  N  N4170  1  0.526300  0.153200  0.796300  1
  N  N4171  1  0.026300  0.846800  0.796300  1
  N  N4172  1  0.026300  0.153200  0.203700  1
  N  N4173  1  0.526300  0.346800  0.703700  1
  N  N4174  1  0.526300  0.653200  0.296300  1
  N  N4175  1  0.026300  0.346800  0.296300  1
  N  N4176  1  0.026300  0.653200  0.703700  1
  N  N4177  1  0.102600  0.000000  0.000000  1
  N  N4178  1  0.602600  0.000000  0.000000  1
  N  N4179  1  0.102600  0.500000  0.500000  1
  N  N4180  1  0.602600  0.500000  0.500000  1
  N  N4181  1  0.191600  0.126300  0.017700  1.0
  N  N4182  1  0.191600  0.873700  0.982300  1.0
  N  N4183  1  0.691600  0.126300  0.982300  1.0
  N  N4184  1  0.691600  0.873700  0.017700  1.0
  N  N4185  1  0.191600  0.626300  0.517700  1.0
  N  N4186  1  0.191600  0.373700  0.482300  1.0
  N  N4187  1  0.691600  0.626300  0.482300  1.0
  N  N4188  1  0.691600  0.373700  0.517700  1.0
  N  N4189  1  0.288900  0.030600  0.004340  1.0
  N  N4190  1  0.288900  0.969400  0.995660  1.0
  N  N4191  1  0.788900  0.030600  0.995660  1.0
  N  N4192  1  0.788900  0.969400  0.004340  1.0
  N  N4193  1  0.288900  0.530600  0.504340  1.0
  N  N4194  1  0.288900  0.469400  0.495660  1.0
  N  N4195  1  0.788900  0.530600  0.495660  1.0
  N  N4196  1  0.788900  0.469400  0.504340  1.0
  N  N4197  1  0.162700  0.780500  0.355800  1.0
  N  N4198  1  0.162700  0.219500  0.644200  1.0
  N  N4199  1  0.662700  0.780500  0.644200  1.0
  N  N4200  1  0.662700  0.219500  0.355800  1.0
  N  N4201  1  0.162700  0.280500  0.855800  1.0
  N  N4202  1  0.162700  0.719500  0.144200  1.0
  N  N4203  1  0.662700  0.280500  0.144200  1.0
  N  N4204  1  0.662700  0.719500  0.855800  1.0
  N  N4205  1  0.259300  0.757000  0.277300  1.0
  N  N4206  1  0.259300  0.243000  0.722700  1.0
  N  N4207  1  0.759300  0.757000  0.722700  1.0
  N  N4208  1  0.759300  0.243000  0.277300  1.0
  N  N4209  1  0.259300  0.257000  0.777300  1.0
  N  N4210  1  0.259300  0.743000  0.222700  1.0
  N  N4211  1  0.759300  0.257000  0.222700  1.0
  N  N4212  1  0.759300  0.743000  0.777300  1.0
  O  O4213  1  0.429500  0.882000  0.134900  1
  O  O4214  1  0.429500  0.118000  0.865100  1
  O  O4215  1  0.929500  0.882000  0.865100  1
  O  O4216  1  0.929500  0.118000  0.134900  1
  O  O4217  1  0.429500  0.382000  0.634900  1
  O  O4218  1  0.429500  0.618000  0.365100  1
  O  O4219  1  0.929500  0.382000  0.365100  1
  O  O4220  1  0.929500  0.618000  0.634900  1
  O  O4221  1  0.290300  0.156900  0.176200  1
  O  O4222  1  0.290300  0.843100  0.823800  1
  O  O4223  1  0.790300  0.156900  0.823800  1
  O  O4224  1  0.790300  0.843100  0.176200  1
  O  O4225  1  0.290300  0.656900  0.676200  1
  O  O4226  1  0.290300  0.343100  0.323800  1
  O  O4227  1  0.790300  0.656900  0.323800  1
  O  O4228  1  0.790300  0.343100  0.676200  1
  O  O4229  1  0.114000  0.905200  0.160000  1
  O  O4230  1  0.114000  0.094800  0.840000  1
  O  O4231  1  0.614000  0.905200  0.840000  1
  O  O4232  1  0.614000  0.094800  0.160000  1
  O  O4233  1  0.114000  0.405200  0.660000  1
  O  O4234  1  0.114000  0.594800  0.340000  1
  O  O4235  1  0.614000  0.405200  0.340000  1
  O  O4236  1  0.614000  0.594800  0.660000  1
  O  O4237  1  0.121200  0.834200  0.174500  1
  O  O4238  1  0.121200  0.165800  0.825500  1
  O  O4239  1  0.621200  0.834200  0.825500  1
  O  O4240  1  0.621200  0.165800  0.174500  1
  O  O4241  1  0.121200  0.334200  0.674500  1
  O  O4242  1  0.121200  0.665800  0.325500  1
  O  O4243  1  0.621200  0.334200  0.325500  1
  O  O4244  1  0.621200  0.665800  0.674500  1
  O  O4245  1  0.085800  0.856400  0.205800  1
  O  O4246  1  0.085800  0.143600  0.794200  1
  O  O4247  1  0.585800  0.856400  0.794200  1
  O  O4248  1  0.585800  0.143600  0.205800  1
  O  O4249  1  0.085800  0.356400  0.705800  1
  O  O4250  1  0.085800  0.643600  0.294200  1
  O  O4251  1  0.585800  0.356400  0.294200  1
  O  O4252  1  0.585800  0.643600  0.705800  1
  O  O4253  1  0.296900  0.950500  0.354600  1
  O  O4254  1  0.296900  0.049500  0.645400  1
  O  O4255  1  0.796900  0.950500  0.645400  1
  O  O4256  1  0.796900  0.049500  0.354600  1
  O  O4257  1  0.296900  0.450500  0.854600  1
  O  O4258  1  0.296900  0.549500  0.145400  1
  O  O4259  1  0.796900  0.450500  0.145400  1
  O  O4260  1  0.796900  0.549500  0.854600  1
  O  O4261  1  0.018500  0.939800  0.231000  1
  O  O4262  1  0.018500  0.060200  0.769000  1
  O  O4263  1  0.518500  0.939800  0.769000  1
  O  O4264  1  0.518500  0.060200  0.231000  1
  O  O4265  1  0.018500  0.439800  0.731000  1
  O  O4266  1  0.018500  0.560200  0.269000  1
  O  O4267  1  0.518500  0.439800  0.269000  1
  O  O4268  1  0.518500  0.560200  0.731000  1
  O  O4269  1  0.036600  0.913900  0.187100  1
  O  O4270  1  0.036600  0.086100  0.812900  1
  O  O4271  1  0.536600  0.913900  0.812900  1
  O  O4272  1  0.536600  0.086100  0.187100  1
  O  O4273  1  0.036600  0.413900  0.687100  1
  O  O4274  1  0.036600  0.586100  0.312900  1
  O  O4275  1  0.536600  0.413900  0.312900  1
  O  O4276  1  0.536600  0.586100  0.687100  1
  O  O4277  1  0.056700  0.967000  0.201300  1
  O  O4278  1  0.056700  0.033000  0.798700  1
  O  O4279  1  0.556700  0.967000  0.798700  1
  O  O4280  1  0.556700  0.033000  0.201300  1
  O  O4281  1  0.056700  0.467000  0.701300  1
  O  O4282  1  0.056700  0.533000  0.298700  1
  O  O4283  1  0.556700  0.467000  0.298700  1
  O  O4284  1  0.556700  0.533000  0.701300  1
  O  O4285  1  0.459110  0.896300  0.040530  1
  O  O4286  1  0.459110  0.103700  0.959470  1
  O  O4287  1  0.959110  0.896300  0.959470  1
  O  O4288  1  0.959110  0.103700  0.040530  1
  O  O4289  1  0.459110  0.396300  0.540530  1
  O  O4290  1  0.459110  0.603700  0.459470  1
  O  O4291  1  0.959110  0.396300  0.459470  1
  O  O4292  1  0.959110  0.603700  0.540530  1
  O  O4293  1  0.409900  0.916200  0.063500  1
  O  O4294  1  0.409900  0.083800  0.936500  1
  O  O4295  1  0.909900  0.916200  0.936500  1
  O  O4296  1  0.909900  0.083800  0.063500  1
  O  O4297  1  0.409900  0.416200  0.563500  1
  O  O4298  1  0.409900  0.583800  0.436500  1
  O  O4299  1  0.909900  0.416200  0.436500  1
  O  O4300  1  0.909900  0.583800  0.563500  1
  O  O4301  1  0.457000  0.948520  0.060400  1
  O  O4302  1  0.457000  0.051480  0.939600  1
  O  O4303  1  0.957000  0.948520  0.939600  1
  O  O4304  1  0.957000  0.051480  0.060400  1
  O  O4305  1  0.457000  0.448520  0.560400  1
  O  O4306  1  0.457000  0.551480  0.439600  1
  O  O4307  1  0.957000  0.448520  0.439600  1
  O  O4308  1  0.957000  0.551480  0.560400  1
  O  O4309  1  0.502600  0.823500  0.186000  1
  O  O4310  1  0.502600  0.176500  0.814000  1
  O  O4311  1  0.002600  0.823500  0.814000  1
  O  O4312  1  0.002600  0.176500  0.186000  1
  O  O4313  1  0.502600  0.323500  0.686000  1
  O  O4314  1  0.502600  0.676500  0.314000  1
  O  O4315  1  0.002600  0.323500  0.314000  1
  O  O4316  1  0.002600  0.676500  0.686000  1
  O  O4317  1  0.474000  0.865500  0.211800  1
  O  O4318  1  0.474000  0.134500  0.788200  1
  O  O4319  1  0.974000  0.865500  0.788200  1
  O  O4320  1  0.974000  0.134500  0.211800  1
  O  O4321  1  0.474000  0.365500  0.711800  1
  O  O4322  1  0.474000  0.634500  0.288200  1
  O  O4323  1  0.974000  0.365500  0.288200  1
  O  O4324  1  0.974000  0.634500  0.711800  1
  O  O4325  1  0.443000  0.818200  0.200000  1
  O  O4326  1  0.443000  0.181800  0.800000  1
  O  O4327  1  0.943000  0.818200  0.800000  1
  O  O4328  1  0.943000  0.181800  0.200000  1
  O  O4329  1  0.443000  0.318200  0.700000  1
  O  O4330  1  0.443000  0.681800  0.300000  1
  O  O4331  1  0.943000  0.318200  0.300000  1
  O  O4332  1  0.943000  0.681800  0.700000  1
  O  O4333  1  0.125400  0.873900  0.068700  1
  O  O4334  1  0.125400  0.126100  0.931300  1
  O  O4335  1  0.625400  0.873900  0.931300  1
  O  O4336  1  0.625400  0.126100  0.068700  1
  O  O4337  1  0.125400  0.373900  0.568700  1
  O  O4338  1  0.125400  0.626100  0.431300  1
  O  O4339  1  0.625400  0.373900  0.431300  1
  O  O4340  1  0.625400  0.626100  0.568700  1
  O  O4341  1  0.085300  0.830700  0.061900  1
  O  O4342  1  0.085300  0.169300  0.938100  1
  O  O4343  1  0.585300  0.830700  0.938100  1
  O  O4344  1  0.585300  0.169300  0.061900  1
  O  O4345  1  0.085300  0.330700  0.561900  1
  O  O4346  1  0.085300  0.669300  0.438100  1
  O  O4347  1  0.585300  0.330700  0.438100  1
  O  O4348  1  0.585300  0.669300  0.561900  1
  O  O4349  1  0.091200  0.875600  0.028510  1
  O  O4350  1  0.091200  0.124400  0.971490  1
  O  O4351  1  0.591200  0.875600  0.971490  1
  O  O4352  1  0.591200  0.124400  0.028510  1
  O  O4353  1  0.091200  0.375600  0.528510  1
  O  O4354  1  0.091200  0.624400  0.471490  1
  O  O4355  1  0.591200  0.375600  0.471490  1
  O  O4356  1  0.591200  0.624400  0.528510  1
  O  O4357  1  0.457400  0.173500  0.372000  1
  O  O4358  1  0.457400  0.826500  0.628000  1
  O  O4359  1  0.957400  0.173500  0.628000  1
  O  O4360  1  0.957400  0.826500  0.372000  1
  O  O4361  1  0.457400  0.673500  0.872000  1
  O  O4362  1  0.457400  0.326500  0.128000  1
  O  O4363  1  0.957400  0.673500  0.128000  1
  O  O4364  1  0.957400  0.326500  0.872000  1
  O  O4365  1  0.433400  0.122400  0.385400  1
  O  O4366  1  0.433400  0.877600  0.614600  1
  O  O4367  1  0.933400  0.122400  0.614600  1
  O  O4368  1  0.933400  0.877600  0.385400  1
  O  O4369  1  0.433400  0.622400  0.885400  1
  O  O4370  1  0.433400  0.377600  0.114600  1
  O  O4371  1  0.933400  0.622400  0.114600  1
  O  O4372  1  0.933400  0.377600  0.885400  1
  O  O4373  1  0.435400  0.136500  0.338000  1
  O  O4374  1  0.435400  0.863500  0.662000  1
  O  O4375  1  0.935400  0.136500  0.662000  1
  O  O4376  1  0.935400  0.863500  0.338000  1
  O  O4377  1  0.435400  0.636500  0.838000  1
  O  O4378  1  0.435400  0.363500  0.162000  1
  O  O4379  1  0.935400  0.636500  0.162000  1
  O  O4380  1  0.935400  0.363500  0.838000  1
  O  O4381  1  0.372300  0.747900  0.114000  1
  O  O4382  1  0.372300  0.252100  0.886000  1
  O  O4383  1  0.872300  0.747900  0.886000  1
  O  O4384  1  0.872300  0.252100  0.114000  1
  O  O4385  1  0.372300  0.247900  0.614000  1
  O  O4386  1  0.372300  0.752100  0.386000  1
  O  O4387  1  0.872300  0.247900  0.386000  1
  O  O4388  1  0.872300  0.752100  0.614000  1
  O  O4389  1  0.364700  0.780300  0.152800  1
  O  O4390  1  0.364700  0.219700  0.847200  1
  O  O4391  1  0.864700  0.780300  0.847200  1
  O  O4392  1  0.864700  0.219700  0.152800  1
  O  O4393  1  0.364700  0.280300  0.652800  1
  O  O4394  1  0.364700  0.719700  0.347200  1
  O  O4395  1  0.864700  0.280300  0.347200  1
  O  O4396  1  0.864700  0.719700  0.652800  1
  O  O4397  1  0.330500  0.731800  0.148500  1
  O  O4398  1  0.330500  0.268200  0.851500  1
  O  O4399  1  0.830500  0.731800  0.851500  1
  O  O4400  1  0.830500  0.268200  0.148500  1
  O  O4401  1  0.330500  0.231800  0.648500  1
  O  O4402  1  0.330500  0.768200  0.351500  1
  O  O4403  1  0.830500  0.231800  0.351500  1
  O  O4404  1  0.830500  0.768200  0.648500  1
  O  O4405  1  0.250100  0.862900  0.359800  1
  O  O4406  1  0.250100  0.137100  0.640200  1
  O  O4407  1  0.750100  0.862900  0.640200  1
  O  O4408  1  0.750100  0.137100  0.359800  1
  O  O4409  1  0.250100  0.362900  0.859800  1
  O  O4410  1  0.250100  0.637100  0.140200  1
  O  O4411  1  0.750100  0.362900  0.140200  1
  O  O4412  1  0.750100  0.637100  0.859800  1
  O  O4413  1  0.201100  0.889200  0.376100  1
  O  O4414  1  0.201100  0.110800  0.623900  1
  O  O4415  1  0.701100  0.889200  0.623900  1
  O  O4416  1  0.701100  0.110800  0.376100  1
  O  O4417  1  0.201100  0.389200  0.876100  1
  O  O4418  1  0.201100  0.610800  0.123900  1
  O  O4419  1  0.701100  0.389200  0.123900  1
  O  O4420  1  0.701100  0.610800  0.876100  1
  O  O4421  1  0.222900  0.853100  0.406000  1
  O  O4422  1  0.222900  0.146900  0.594000  1
  O  O4423  1  0.722900  0.853100  0.594000  1
  O  O4424  1  0.722900  0.146900  0.406000  1
  O  O4425  1  0.222900  0.353100  0.906000  1
  O  O4426  1  0.222900  0.646900  0.094000  1
  O  O4427  1  0.722900  0.353100  0.094000  1
  O  O4428  1  0.722900  0.646900  0.906000  1
  O  O4429  1  0.235600  0.183700  0.100100  1
  O  O4430  1  0.235600  0.816300  0.899900  1
  O  O4431  1  0.735600  0.183700  0.899900  1
  O  O4432  1  0.735600  0.816300  0.100100  1
  O  O4433  1  0.235600  0.683700  0.600100  1
  O  O4434  1  0.235600  0.316300  0.399900  1
  O  O4435  1  0.735600  0.683700  0.399900  1
  O  O4436  1  0.735600  0.316300  0.600100  1
  O  O4437  1  0.236400  0.219500  0.062600  1
  O  O4438  1  0.236400  0.780500  0.937400  1
  O  O4439  1  0.736400  0.219500  0.937400  1
  O  O4440  1  0.736400  0.780500  0.062600  1
  O  O4441  1  0.236400  0.719500  0.562600  1
  O  O4442  1  0.236400  0.280500  0.437400  1
  O  O4443  1  0.736400  0.719500  0.437400  1
  O  O4444  1  0.736400  0.280500  0.562600  1
  O  O4445  1  0.199000  0.233700  0.097000  1
  O  O4446  1  0.199000  0.766300  0.903000  1
  O  O4447  1  0.699000  0.233700  0.903000  1
  O  O4448  1  0.699000  0.766300  0.097000  1
  O  O4449  1  0.199000  0.733700  0.597000  1
  O  O4450  1  0.199000  0.266300  0.403000  1
  O  O4451  1  0.699000  0.733700  0.403000  1
  O  O4452  1  0.699000  0.266300  0.597000  1
  O  O4453  1  0.138500  0.947300  0.063270  1
  O  O4454  1  0.138500  0.052700  0.936730  1
  O  O4455  1  0.638500  0.947300  0.936730  1
  O  O4456  1  0.638500  0.052700  0.063270  1
  O  O4457  1  0.138500  0.447300  0.563270  1
  O  O4458  1  0.138500  0.552700  0.436730  1
  O  O4459  1  0.638500  0.447300  0.436730  1
  O  O4460  1  0.638500  0.552700  0.563270  1
  O  O4461  1  0.540700  0.985100  0.155600  1
  O  O4462  1  0.540700  0.014900  0.844400  1
  O  O4463  1  0.040700  0.985100  0.844400  1
  O  O4464  1  0.040700  0.014900  0.155600  1
  O  O4465  1  0.540700  0.485100  0.655600  1
  O  O4466  1  0.540700  0.514900  0.344400  1
  O  O4467  1  0.040700  0.485100  0.344400  1
  O  O4468  1  0.040700  0.514900  0.655600  1
  O  O4469  1  0.501800  0.938000  0.190100  1
  O  O4470  1  0.501800  0.062000  0.809900  1
  O  O4471  1  0.001800  0.938000  0.809900  1
  O  O4472  1  0.001800  0.062000  0.190100  1
  O  O4473  1  0.501800  0.438000  0.690100  1
  O  O4474  1  0.501800  0.562000  0.309900  1
  O  O4475  1  0.001800  0.438000  0.309900  1
  O  O4476  1  0.001800  0.562000  0.690100  1
  O  O4477  1  0.431600  0.809400  0.148200  1
  O  O4478  1  0.431600  0.190600  0.851800  1
  O  O4479  1  0.931600  0.809400  0.851800  1
  O  O4480  1  0.931600  0.190600  0.148200  1
  O  O4481  1  0.431600  0.309400  0.648200  1
  O  O4482  1  0.431600  0.690600  0.351800  1
  O  O4483  1  0.931600  0.309400  0.351800  1
  O  O4484  1  0.931600  0.690600  0.648200  1
  O  O4485  1  0.322200  0.829600  0.377300  1
  O  O4486  1  0.322200  0.170400  0.622700  1
  O  O4487  1  0.822200  0.829600  0.622700  1
  O  O4488  1  0.822200  0.170400  0.377300  1
  O  O4489  1  0.322200  0.329600  0.877300  1
  O  O4490  1  0.322200  0.670400  0.122700  1
  O  O4491  1  0.822200  0.329600  0.122700  1
  O  O4492  1  0.822200  0.670400  0.877300  1
  O  O4493  1  0.412000  0.175300  0.153100  1
  O  O4494  1  0.412000  0.824700  0.846900  1
  O  O4495  1  0.912000  0.175300  0.846900  1
  O  O4496  1  0.912000  0.824700  0.153100  1
  O  O4497  1  0.412000  0.675300  0.653100  1
  O  O4498  1  0.412000  0.324700  0.346900  1
  O  O4499  1  0.912000  0.675300  0.346900  1
  O  O4500  1  0.912000  0.324700  0.653100  1
  O  O4501  1  0.062500  0.089000  0.249100  1
  O  O4502  1  0.062500  0.911000  0.750900  1
  O  O4503  1  0.562500  0.089000  0.750900  1
  O  O4504  1  0.562500  0.911000  0.249100  1
  O  O4505  1  0.062500  0.589000  0.749100  1
  O  O4506  1  0.062500  0.411000  0.250900  1
  O  O4507  1  0.562500  0.589000  0.250900  1
  O  O4508  1  0.562500  0.411000  0.749100  1
  O  O4509  1  0.374300  0.853000  0.042400  1
  O  O4510  1  0.374300  0.147000  0.957600  1
  O  O4511  1  0.874300  0.853000  0.957600  1
  O  O4512  1  0.874300  0.147000  0.042400  1
  O  O4513  1  0.374300  0.353000  0.542400  1
  O  O4514  1  0.374300  0.647000  0.457600  1
  O  O4515  1  0.874300  0.353000  0.457600  1
  O  O4516  1  0.874300  0.647000  0.542400  1
  O  O4517  1  0.040500  0.794600  0.028800  1
  O  O4518  1  0.040500  0.205400  0.971200  1
  O  O4519  1  0.540500  0.794600  0.971200  1
  O  O4520  1  0.540500  0.205400  0.028800  1
  O  O4521  1  0.040500  0.294600  0.528800  1
  O  O4522  1  0.040500  0.705400  0.471200  1
  O  O4523  1  0.540500  0.294600  0.471200  1
  O  O4524  1  0.540500  0.705400  0.528800  1
  O  O4525  1  0.532200  0.979300  0.238600  1
  O  O4526  1  0.532200  0.020700  0.761400  1
  O  O4527  1  0.032200  0.979300  0.761400  1
  O  O4528  1  0.032200  0.020700  0.238600  1
  O  O4529  1  0.532200  0.479300  0.738600  1
  O  O4530  1  0.532200  0.520700  0.261400  1
  O  O4531  1  0.032200  0.479300  0.261400  1
  O  O4532  1  0.032200  0.520700  0.738600  1
  O  O4533  1  0.327600  0.183100  0.130900  1
  O  O4534  1  0.327600  0.816900  0.869100  1
  O  O4535  1  0.827600  0.183100  0.869100  1
  O  O4536  1  0.827600  0.816900  0.130900  1
  O  O4537  1  0.327600  0.683100  0.630900  1
  O  O4538  1  0.327600  0.316900  0.369100  1
  O  O4539  1  0.827600  0.683100  0.369100  1
  O  O4540  1  0.827600  0.316900  0.630900  1
  O  O4541  1  0.483300  0.790800  0.113300  1
  O  O4542  1  0.483300  0.209200  0.886700  1
  O  O4543  1  0.983300  0.790800  0.886700  1
  O  O4544  1  0.983300  0.209200  0.113300  1
  O  O4545  1  0.483300  0.290800  0.613300  1
  O  O4546  1  0.483300  0.709200  0.386700  1
  O  O4547  1  0.983300  0.290800  0.386700  1
  O  O4548  1  0.983300  0.709200  0.613300  1
  O  O4549  1  0.302600  0.196400  0.230900  1
  O  O4550  1  0.302600  0.803600  0.769100  1
  O  O4551  1  0.802600  0.196400  0.769100  1
  O  O4552  1  0.802600  0.803600  0.230900  1
  O  O4553  1  0.302600  0.696400  0.730900  1
  O  O4554  1  0.302600  0.303600  0.269100  1
  O  O4555  1  0.802600  0.696400  0.269100  1
  O  O4556  1  0.802600  0.303600  0.730900  1
  O  O4557  1  0.374500  0.214700  0.248200  1
  O  O4558  1  0.374500  0.785300  0.751800  1
  O  O4559  1  0.874500  0.214700  0.751800  1
  O  O4560  1  0.874500  0.785300  0.248200  1
  O  O4561  1  0.374500  0.714700  0.748200  1
  O  O4562  1  0.374500  0.285300  0.251800  1
  O  O4563  1  0.874500  0.714700  0.251800  1
  O  O4564  1  0.874500  0.285300  0.748200  1
  O  O4565  1  0.430500  0.203500  0.308900  1
  O  O4566  1  0.430500  0.796500  0.691100  1
  O  O4567  1  0.930500  0.203500  0.691100  1
  O  O4568  1  0.930500  0.796500  0.308900  1
  O  O4569  1  0.430500  0.703500  0.808900  1
  O  O4570  1  0.430500  0.296500  0.191100  1
  O  O4571  1  0.930500  0.703500  0.191100  1
  O  O4572  1  0.930500  0.296500  0.808900  1
  O  O4573  1  0.540500  0.731300  0.111400  1
  O  O4574  1  0.540500  0.268700  0.888600  1
  O  O4575  1  0.040500  0.731300  0.888600  1
  O  O4576  1  0.040500  0.268700  0.111400  1
  O  O4577  1  0.540500  0.231300  0.611400  1
  O  O4578  1  0.540500  0.768700  0.388600  1
  O  O4579  1  0.040500  0.231300  0.388600  1
  O  O4580  1  0.040500  0.768700  0.611400  1
  O  O4581  1  0.390700  0.954000  0.378100  1
  O  O4582  1  0.390700  0.046000  0.621900  1
  O  O4583  1  0.890700  0.954000  0.621900  1
  O  O4584  1  0.890700  0.046000  0.378100  1
  O  O4585  1  0.390700  0.454000  0.878100  1
  O  O4586  1  0.390700  0.546000  0.121900  1
  O  O4587  1  0.890700  0.454000  0.121900  1
  O  O4588  1  0.890700  0.546000  0.878100  1
  O  O4589  1  0.501500  0.148600  0.206000  1
  O  O4590  1  0.501500  0.851400  0.794000  1
  O  O4591  1  0.001500  0.148600  0.794000  1
  O  O4592  1  0.001500  0.851400  0.206000  1
  O  O4593  1  0.501500  0.648600  0.706000  1
  O  O4594  1  0.501500  0.351400  0.294000  1
  O  O4595  1  0.001500  0.648600  0.294000  1
  O  O4596  1  0.001500  0.351400  0.706000  1
  O  O4597  1  0.402600  0.784600  0.072500  1
  O  O4598  1  0.402600  0.215400  0.927500  1
  O  O4599  1  0.902600  0.784600  0.927500  1
  O  O4600  1  0.902600  0.215400  0.072500  1
  O  O4601  1  0.402600  0.284600  0.572500  1
  O  O4602  1  0.402600  0.715400  0.427500  1
  O  O4603  1  0.902600  0.284600  0.427500  1
  O  O4604  1  0.902600  0.715400  0.572500  1
  O  O4605  1  0.454800  0.238500  0.152000  1
  O  O4606  1  0.454800  0.761500  0.848000  1
  O  O4607  1  0.954800  0.238500  0.848000  1
  O  O4608  1  0.954800  0.761500  0.152000  1
  O  O4609  1  0.454800  0.738500  0.652000  1
  O  O4610  1  0.454800  0.261500  0.348000  1
  O  O4611  1  0.954800  0.738500  0.348000  1
  O  O4612  1  0.954800  0.261500  0.652000  1
  O  O4613  1  0.399800  0.169600  0.212900  1
  O  O4614  1  0.399800  0.830400  0.787100  1
  O  O4615  1  0.899800  0.169600  0.787100  1
  O  O4616  1  0.899800  0.830400  0.212900  1
  O  O4617  1  0.399800  0.669600  0.712900  1
  O  O4618  1  0.399800  0.330400  0.287100  1
  O  O4619  1  0.899800  0.669600  0.287100  1
  O  O4620  1  0.899800  0.330400  0.712900  1
  O  O4621  1  0.319500  0.240800  0.062500  1
  O  O4622  1  0.319500  0.759200  0.937500  1
  O  O4623  1  0.819500  0.240800  0.937500  1
  O  O4624  1  0.819500  0.759200  0.062500  1
  O  O4625  1  0.319500  0.740800  0.562500  1
  O  O4626  1  0.319500  0.259200  0.437500  1
  O  O4627  1  0.819500  0.740800  0.437500  1
  O  O4628  1  0.819500  0.259200  0.562500  1
  O  O4629  1  0.027300  0.774600  0.158200  1
  O  O4630  1  0.027300  0.225400  0.841800  1
  O  O4631  1  0.527300  0.774600  0.841800  1
  O  O4632  1  0.527300  0.225400  0.158200  1
  O  O4633  1  0.027300  0.274600  0.658200  1
  O  O4634  1  0.027300  0.725400  0.341800  1
  O  O4635  1  0.527300  0.274600  0.341800  1
  O  O4636  1  0.527300  0.725400  0.658200  1
  O  O4637  1  0.347000  0.859500  0.431800  1
  O  O4638  1  0.347000  0.140500  0.568200  1
  O  O4639  1  0.847000  0.859500  0.568200  1
  O  O4640  1  0.847000  0.140500  0.431800  1
  O  O4641  1  0.347000  0.359500  0.931800  1
  O  O4642  1  0.347000  0.640500  0.068200  1
  O  O4643  1  0.847000  0.359500  0.068200  1
  O  O4644  1  0.847000  0.640500  0.931800  1
  O  O4645  1  0.120600  0.120400  0.291000  1
  O  O4646  1  0.120600  0.879600  0.709000  1
  O  O4647  1  0.620600  0.120400  0.709000  1
  O  O4648  1  0.620600  0.879600  0.291000  1
  O  O4649  1  0.120600  0.620400  0.791000  1
  O  O4650  1  0.120600  0.379600  0.209000  1
  O  O4651  1  0.620600  0.620400  0.209000  1
  O  O4652  1  0.620600  0.379600  0.791000  1
  O  O4653  1  0.239600  0.215600  0.249200  1
  O  O4654  1  0.239600  0.784400  0.750800  1
  O  O4655  1  0.739600  0.215600  0.750800  1
  O  O4656  1  0.739600  0.784400  0.249200  1
  O  O4657  1  0.239600  0.715600  0.749200  1
  O  O4658  1  0.239600  0.284400  0.250800  1
  O  O4659  1  0.739600  0.715600  0.250800  1
  O  O4660  1  0.739600  0.284400  0.749200  1
  O  O4661  1  0.163100  0.871300  0.433900  1
  O  O4662  1  0.163100  0.128700  0.566100  1
  O  O4663  1  0.663100  0.871300  0.566100  1
  O  O4664  1  0.663100  0.128700  0.433900  1
  O  O4665  1  0.163100  0.371300  0.933900  1
  O  O4666  1  0.163100  0.628700  0.066100  1
  O  O4667  1  0.663100  0.371300  0.066100  1
  O  O4668  1  0.663100  0.628700  0.933900  1
  O  O4669  1  0.388400  0.919400  0.430200  1
  O  O4670  1  0.388400  0.080600  0.569800  1
  O  O4671  1  0.888400  0.919400  0.569800  1
  O  O4672  1  0.888400  0.080600  0.430200  1
  O  O4673  1  0.388400  0.419400  0.930200  1
  O  O4674  1  0.388400  0.580600  0.069800  1
  O  O4675  1  0.888400  0.419400  0.069800  1
  O  O4676  1  0.888400  0.580600  0.930200  1
  O  O4677  1  0.446100  0.238300  0.088500  1
  O  O4678  1  0.446100  0.761700  0.911500  1
  O  O4679  1  0.946100  0.238300  0.911500  1
  O  O4680  1  0.946100  0.761700  0.088500  1
  O  O4681  1  0.446100  0.738300  0.588500  1
  O  O4682  1  0.446100  0.261700  0.411500  1
  O  O4683  1  0.946100  0.738300  0.411500  1
  O  O4684  1  0.946100  0.261700  0.588500  1
  O  O4685  1  0.196500  0.088000  0.394900  1
  O  O4686  1  0.196500  0.912000  0.605100  1
  O  O4687  1  0.696500  0.088000  0.605100  1
  O  O4688  1  0.696500  0.912000  0.394900  1
  O  O4689  1  0.196500  0.588000  0.894900  1
  O  O4690  1  0.196500  0.412000  0.105100  1
  O  O4691  1  0.696500  0.588000  0.105100  1
  O  O4692  1  0.696500  0.412000  0.894900  1
  O  O4693  1  0.213900  0.179700  0.156900  1
  O  O4694  1  0.213900  0.820300  0.843100  1
  O  O4695  1  0.713900  0.179700  0.843100  1
  O  O4696  1  0.713900  0.820300  0.156900  1
  O  O4697  1  0.213900  0.679700  0.656900  1
  O  O4698  1  0.213900  0.320300  0.343100  1
  O  O4699  1  0.713900  0.679700  0.343100  1
  O  O4700  1  0.713900  0.320300  0.656900  1
  O  O4701  1  0.175600  0.208800  0.178200  1
  O  O4702  1  0.175600  0.791200  0.821800  1
  O  O4703  1  0.675600  0.208800  0.821800  1
  O  O4704  1  0.675600  0.791200  0.178200  1
  O  O4705  1  0.175600  0.708800  0.678200  1
  O  O4706  1  0.175600  0.291200  0.321800  1
  O  O4707  1  0.675600  0.708800  0.321800  1
  O  O4708  1  0.675600  0.291200  0.678200  1
  O  O4709  1  0.072000  0.731200  0.377300  1
  O  O4710  1  0.072000  0.268800  0.622700  1
  O  O4711  1  0.572000  0.731200  0.622700  1
  O  O4712  1  0.572000  0.268800  0.377300  1
  O  O4713  1  0.072000  0.231200  0.877300  1
  O  O4714  1  0.072000  0.768800  0.122700  1
  O  O4715  1  0.572000  0.231200  0.122700  1
  O  O4716  1  0.572000  0.768800  0.877300  1
  O  O4717  1  0.126300  0.821100  0.120800  1
  O  O4718  1  0.126300  0.178900  0.879200  1
  O  O4719  1  0.626300  0.821100  0.879200  1
  O  O4720  1  0.626300  0.178900  0.120800  1
  O  O4721  1  0.126300  0.321100  0.620800  1
  O  O4722  1  0.126300  0.678900  0.379200  1
  O  O4723  1  0.626300  0.321100  0.379200  1
  O  O4724  1  0.626300  0.678900  0.620800  1
  O  O4725  1  0.390300  0.219800  0.056000  1
  O  O4726  1  0.390300  0.780200  0.944000  1
  O  O4727  1  0.890300  0.219800  0.944000  1
  O  O4728  1  0.890300  0.780200  0.056000  1
  O  O4729  1  0.390300  0.719800  0.556000  1
  O  O4730  1  0.390300  0.280200  0.444000  1
  O  O4731  1  0.890300  0.719800  0.444000  1
  O  O4732  1  0.890300  0.280200  0.556000  1
  O  O4733  1  0.061400  0.772100  0.439900  1
  O  O4734  1  0.061400  0.227900  0.560100  1
  O  O4735  1  0.561400  0.772100  0.560100  1
  O  O4736  1  0.561400  0.227900  0.439900  1
  O  O4737  1  0.061400  0.272100  0.939900  1
  O  O4738  1  0.061400  0.727900  0.060100  1
  O  O4739  1  0.561400  0.272100  0.060100  1
  O  O4740  1  0.561400  0.727900  0.939900  1
  O  O4741  1  0.186500  0.028200  0.372200  1
  O  O4742  1  0.186500  0.971800  0.627800  1
  O  O4743  1  0.686500  0.028200  0.627800  1
  O  O4744  1  0.686500  0.971800  0.372200  1
  O  O4745  1  0.186500  0.528200  0.872200  1
  O  O4746  1  0.186500  0.471800  0.127800  1
  O  O4747  1  0.686500  0.528200  0.127800  1
  O  O4748  1  0.686500  0.471800  0.872200  1
  O  O4749  1  0.580200  0.761500  0.299600  1
  O  O4750  1  0.580200  0.238500  0.700400  1
  O  O4751  1  0.080200  0.761500  0.700400  1
  O  O4752  1  0.080200  0.238500  0.299600  1
  O  O4753  1  0.580200  0.261500  0.799600  1
  O  O4754  1  0.580200  0.738500  0.200400  1
  O  O4755  1  0.080200  0.261500  0.200400  1
  O  O4756  1  0.080200  0.738500  0.799600  1
  O  O4757  1  0.126700  0.093800  0.347000  1
  O  O4758  1  0.126700  0.906200  0.653000  1
  O  O4759  1  0.626700  0.093800  0.653000  1
  O  O4760  1  0.626700  0.906200  0.347000  1
  O  O4761  1  0.126700  0.593800  0.847000  1
  O  O4762  1  0.126700  0.406200  0.153000  1
  O  O4763  1  0.626700  0.593800  0.153000  1
  O  O4764  1  0.626700  0.406200  0.847000  1
  O  O4765  1  0.143900  0.181700  0.262300  1
  O  O4766  1  0.143900  0.818300  0.737700  1
  O  O4767  1  0.643900  0.181700  0.737700  1
  O  O4768  1  0.643900  0.818300  0.262300  1
  O  O4769  1  0.143900  0.681700  0.762300  1
  O  O4770  1  0.143900  0.318300  0.237700  1
  O  O4771  1  0.643900  0.681700  0.237700  1
  O  O4772  1  0.643900  0.318300  0.762300  1
  O  O4773  1  0.576200  0.786500  0.352100  1
  O  O4774  1  0.576200  0.213500  0.647900  1
  O  O4775  1  0.076200  0.786500  0.647900  1
  O  O4776  1  0.076200  0.213500  0.352100  1
  O  O4777  1  0.576200  0.286500  0.852100  1
  O  O4778  1  0.576200  0.713500  0.147900  1
  O  O4779  1  0.076200  0.286500  0.147900  1
  O  O4780  1  0.076200  0.713500  0.852100  1
  O  O4781  1  0.372200  0.680900  0.016100  1
  O  O4782  1  0.372200  0.319100  0.983900  1
  O  O4783  1  0.872200  0.680900  0.983900  1
  O  O4784  1  0.872200  0.319100  0.016100  1
  O  O4785  1  0.372200  0.180900  0.516100  1
  O  O4786  1  0.372200  0.819100  0.483900  1
  O  O4787  1  0.872200  0.180900  0.483900  1
  O  O4788  1  0.872200  0.819100  0.516100  1
  O  O4789  1  0.107100  0.816000  0.466800  1
  O  O4790  1  0.107100  0.184000  0.533200  1
  O  O4791  1  0.607100  0.816000  0.533200  1
  O  O4792  1  0.607100  0.184000  0.466800  1
  O  O4793  1  0.107100  0.316000  0.966800  1
  O  O4794  1  0.107100  0.684000  0.033200  1
  O  O4795  1  0.607100  0.316000  0.033200  1
  O  O4796  1  0.607100  0.684000  0.966800  1
  O  O4797  1  0.116900  0.188100  0.225400  1
  O  O4798  1  0.116900  0.811900  0.774600  1
  O  O4799  1  0.616900  0.188100  0.774600  1
  O  O4800  1  0.616900  0.811900  0.225400  1
  O  O4801  1  0.116900  0.688100  0.725400  1
  O  O4802  1  0.116900  0.311900  0.274600  1
  O  O4803  1  0.616900  0.688100  0.274600  1
  O  O4804  1  0.616900  0.311900  0.725400  1
  O  O4805  1  0.166200  0.162900  0.342500  1
  O  O4806  1  0.166200  0.837100  0.657500  1
  O  O4807  1  0.666200  0.162900  0.657500  1
  O  O4808  1  0.666200  0.837100  0.342500  1
  O  O4809  1  0.166200  0.662900  0.842500  1
  O  O4810  1  0.166200  0.337100  0.157500  1
  O  O4811  1  0.666200  0.662900  0.157500  1
  O  O4812  1  0.666200  0.337100  0.842500  1
  O  O4813  1  0.419800  0.800100  0.018100  1
  O  O4814  1  0.419800  0.199900  0.981900  1
  O  O4815  1  0.919800  0.800100  0.981900  1
  O  O4816  1  0.919800  0.199900  0.018100  1
  O  O4817  1  0.419800  0.300100  0.518100  1
  O  O4818  1  0.419800  0.699900  0.481900  1
  O  O4819  1  0.919800  0.300100  0.481900  1
  O  O4820  1  0.919800  0.699900  0.518100  1
  O  O4821  1  0.455000  0.917900  0.462200  1
  O  O4822  1  0.455000  0.082100  0.537800  1
  O  O4823  1  0.955000  0.917900  0.537800  1
  O  O4824  1  0.955000  0.082100  0.462200  1
  O  O4825  1  0.455000  0.417900  0.962200  1
  O  O4826  1  0.455000  0.582100  0.037800  1
  O  O4827  1  0.955000  0.417900  0.037800  1
  O  O4828  1  0.955000  0.582100  0.962200  1
  O  O4829  1  0.272000  0.965000  0.449600  1
  O  O4830  1  0.272000  0.035000  0.550400  1
  O  O4831  1  0.772000  0.965000  0.550400  1
  O  O4832  1  0.772000  0.035000  0.449600  1
  O  O4833  1  0.272000  0.465000  0.949600  1
  O  O4834  1  0.272000  0.535000  0.050400  1
  O  O4835  1  0.772000  0.465000  0.050400  1
  O  O4836  1  0.772000  0.535000  0.949600  1
  O  O4837  1  0.257000  0.053700  0.388600  1
  O  O4838  1  0.257000  0.946300  0.611400  1
  O  O4839  1  0.757000  0.053700  0.611400  1
  O  O4840  1  0.757000  0.946300  0.388600  1
  O  O4841  1  0.257000  0.553700  0.888600  1
  O  O4842  1  0.257000  0.446300  0.111400  1
  O  O4843  1  0.757000  0.553700  0.111400  1
  O  O4844  1  0.757000  0.446300  0.888600  1
  O  O4845  1  0.365000  0.020000  0.373200  1
  O  O4846  1  0.365000  0.980000  0.626800  1
  O  O4847  1  0.865000  0.020000  0.626800  1
  O  O4848  1  0.865000  0.980000  0.373200  1
  O  O4849  1  0.365000  0.520000  0.873200  1
  O  O4850  1  0.365000  0.480000  0.126800  1
  O  O4851  1  0.865000  0.520000  0.126800  1
  O  O4852  1  0.865000  0.480000  0.873200  1
  O  O4853  1  0.012100  0.878900  0.435400  1
  O  O4854  1  0.012100  0.121100  0.564600  1
  O  O4855  1  0.512100  0.878900  0.564600  1
  O  O4856  1  0.512100  0.121100  0.435400  1
  O  O4857  1  0.012100  0.378900  0.935400  1
  O  O4858  1  0.012100  0.621100  0.064600  1
  O  O4859  1  0.512100  0.378900  0.064600  1
  O  O4860  1  0.512100  0.621100  0.935400  1
  O  O4861  1  0.282200  0.891100  0.462800  1
  O  O4862  1  0.282200  0.108900  0.537200  1
  O  O4863  1  0.782200  0.891100  0.537200  1
  O  O4864  1  0.782200  0.108900  0.462800  1
  O  O4865  1  0.282200  0.391100  0.962800  1
  O  O4866  1  0.282200  0.608900  0.037200  1
  O  O4867  1  0.782200  0.391100  0.037200  1
  O  O4868  1  0.782200  0.608900  0.962800  1
  O  O4869  1  0.156100  0.974100  0.388600  1
  O  O4870  1  0.156100  0.025900  0.611400  1
  O  O4871  1  0.656100  0.974100  0.611400  1
  O  O4872  1  0.656100  0.025900  0.388600  1
  O  O4873  1  0.156100  0.474100  0.888600  1
  O  O4874  1  0.156100  0.525900  0.111400  1
  O  O4875  1  0.656100  0.474100  0.111400  1
  O  O4876  1  0.656100  0.525900  0.888600  1
  O  O4877  1  0.639000  0.763000  0.317100  1
  O  O4878  1  0.639000  0.237000  0.682900  1
  O  O4879  1  0.139000  0.763000  0.682900  1
  O  O4880  1  0.139000  0.237000  0.317100  1
  O  O4881  1  0.639000  0.263000  0.817100  1
  O  O4882  1  0.639000  0.737000  0.182900  1
  O  O4883  1  0.139000  0.263000  0.182900  1
  O  O4884  1  0.139000  0.737000  0.817100  1
  O  O4885  1  0.204000  0.180300  0.218200  1
  O  O4886  1  0.204000  0.819700  0.781800  1
  O  O4887  1  0.704000  0.180300  0.781800  1
  O  O4888  1  0.704000  0.819700  0.218200  1
  O  O4889  1  0.204000  0.680300  0.718200  1
  O  O4890  1  0.204000  0.319700  0.281800  1
  O  O4891  1  0.704000  0.680300  0.281800  1
  O  O4892  1  0.704000  0.319700  0.718200  1
  O  O4893  1  0.442900  0.175900  0.244300  1
  O  O4894  1  0.442900  0.824100  0.755700  1
  O  O4895  1  0.942900  0.175900  0.755700  1
  O  O4896  1  0.942900  0.824100  0.244300  1
  O  O4897  1  0.442900  0.675900  0.744300  1
  O  O4898  1  0.442900  0.324100  0.255700  1
  O  O4899  1  0.942900  0.675900  0.255700  1
  O  O4900  1  0.942900  0.324100  0.744300  1
  O  O4901  1  0.943200  0.849200  0.446200  1
  O  O4902  1  0.943200  0.150800  0.553800  1
  O  O4903  1  0.443200  0.849200  0.553800  1
  O  O4904  1  0.443200  0.150800  0.446200  1
  O  O4905  1  0.943200  0.349200  0.946200  1
  O  O4906  1  0.943200  0.650800  0.053800  1
  O  O4907  1  0.443200  0.349200  0.053800  1
  O  O4908  1  0.443200  0.650800  0.946200  1
  O  O4909  1  0.076400  0.228700  0.230200  1
  O  O4910  1  0.076400  0.771300  0.769800  1
  O  O4911  1  0.576400  0.228700  0.769800  1
  O  O4912  1  0.576400  0.771300  0.230200  1
  O  O4913  1  0.076400  0.728700  0.730200  1
  O  O4914  1  0.076400  0.271300  0.269800  1
  O  O4915  1  0.576400  0.728700  0.269800  1
  O  O4916  1  0.576400  0.271300  0.730200  1
  O  O4917  1  0.151800  0.870500  0.170700  1
  O  O4918  1  0.151800  0.129500  0.829300  1
  O  O4919  1  0.651800  0.870500  0.829300  1
  O  O4920  1  0.651800  0.129500  0.170700  1
  O  O4921  1  0.151800  0.370500  0.670700  1
  O  O4922  1  0.151800  0.629500  0.329300  1
  O  O4923  1  0.651800  0.370500  0.329300  1
  O  O4924  1  0.651800  0.629500  0.670700  1
  O  O4925  1  0.272700  0.957200  0.360000  1
  O  O4926  1  0.272700  0.042800  0.640000  1
  O  O4927  1  0.772700  0.957200  0.640000  1
  O  O4928  1  0.772700  0.042800  0.360000  1
  O  O4929  1  0.272700  0.457200  0.860000  1
  O  O4930  1  0.272700  0.542800  0.140000  1
  O  O4931  1  0.772700  0.457200  0.140000  1
  O  O4932  1  0.772700  0.542800  0.860000  1
  O  O4933  1  0.520500  0.813000  0.203500  1
  O  O4934  1  0.520500  0.187000  0.796500  1
  O  O4935  1  0.020500  0.813000  0.796500  1
  O  O4936  1  0.020500  0.187000  0.203500  1
  O  O4937  1  0.520500  0.313000  0.703500  1
  O  O4938  1  0.520500  0.687000  0.296500  1
  O  O4939  1  0.020500  0.313000  0.296500  1
  O  O4940  1  0.020500  0.687000  0.703500  1
  O  O4941  1  0.497000  0.866100  0.205500  1
  O  O4942  1  0.497000  0.133900  0.794500  1
  O  O4943  1  0.997000  0.866100  0.794500  1
  O  O4944  1  0.997000  0.133900  0.205500  1
  O  O4945  1  0.497000  0.366100  0.705500  1
  O  O4946  1  0.497000  0.633900  0.294500  1
  O  O4947  1  0.997000  0.366100  0.294500  1
  O  O4948  1  0.997000  0.633900  0.705500  1
  O  O4949  1  0.557700  0.860100  0.202400  1
  O  O4950  1  0.557700  0.139900  0.797600  1
  O  O4951  1  0.057700  0.860100  0.797600  1
  O  O4952  1  0.057700  0.139900  0.202400  1
  O  O4953  1  0.557700  0.360100  0.702400  1
  O  O4954  1  0.557700  0.639900  0.297600  1
  O  O4955  1  0.057700  0.360100  0.297600  1
  O  O4956  1  0.057700  0.639900  0.702400  1
  O  O4957  1  0.439000  0.805000  0.208300  1
  O  O4958  1  0.439000  0.195000  0.791700  1
  O  O4959  1  0.939000  0.805000  0.791700  1
  O  O4960  1  0.939000  0.195000  0.208300  1
  O  O4961  1  0.439000  0.305000  0.708300  1
  O  O4962  1  0.439000  0.695000  0.291700  1
  O  O4963  1  0.939000  0.305000  0.291700  1
  O  O4964  1  0.939000  0.695000  0.708300  1
  O  O4965  1  0.568500  0.857500  0.205200  1
  O  O4966  1  0.568500  0.142500  0.794800  1
  O  O4967  1  0.068500  0.857500  0.794800  1
  O  O4968  1  0.068500  0.142500  0.205200  1
  O  O4969  1  0.568500  0.357500  0.705200  1
  O  O4970  1  0.568500  0.642500  0.294800  1
  O  O4971  1  0.068500  0.357500  0.294800  1
  O  O4972  1  0.068500  0.642500  0.705200  1
  O  O4973  1  0.103700  0.996200  0.030400  1
  O  O4974  1  0.103700  0.003800  0.969600  1
  O  O4975  1  0.603700  0.996200  0.969600  1
  O  O4976  1  0.603700  0.003800  0.030400  1
  O  O4977  1  0.103700  0.496200  0.530400  1
  O  O4978  1  0.103700  0.503800  0.469600  1
  O  O4979  1  0.603700  0.496200  0.469600  1
  O  O4980  1  0.603700  0.503800  0.530400  1
  O  O4981  1  0.097800  0.034600  0.995100  1
  O  O4982  1  0.097800  0.965400  0.004900  1
  O  O4983  1  0.597800  0.034600  0.004900  1
  O  O4984  1  0.597800  0.965400  0.995100  1
  O  O4985  1  0.097800  0.534600  0.495100  1
  O  O4986  1  0.097800  0.465400  0.504900  1
  O  O4987  1  0.597800  0.534600  0.504900  1
  O  O4988  1  0.597800  0.465400  0.495100  1
  O  O4989  1  0.103300  0.981200  0.980200  1
  O  O4990  1  0.103300  0.018800  0.019800  1
  O  O4991  1  0.603300  0.981200  0.019800  1
  O  O4992  1  0.603300  0.018800  0.980200  1
  O  O4993  1  0.103300  0.481200  0.480200  1
  O  O4994  1  0.103300  0.518800  0.519800  1
  O  O4995  1  0.603300  0.481200  0.519800  1
  O  O4996  1  0.603300  0.518800  0.480200  1
  O  O4997  1  0.971900  0.177000  0.057000  1
  O  O4998  1  0.971900  0.823000  0.943000  1
  O  O4999  1  0.471900  0.177000  0.943000  1
  O  O5000  1  0.471900  0.823000  0.057000  1
  O  O5001  1  0.971900  0.677000  0.557000  1
  O  O5002  1  0.971900  0.323000  0.443000  1
  O  O5003  1  0.471900  0.677000  0.443000  1
  O  O5004  1  0.471900  0.323000  0.557000  1
  O  O5005  1  0.364400  0.149100  0.050100  1
  O  O5006  1  0.364400  0.850900  0.949900  1
  O  O5007  1  0.864400  0.149100  0.949900  1
  O  O5008  1  0.864400  0.850900  0.050100  1
  O  O5009  1  0.364400  0.649100  0.550100  1
  O  O5010  1  0.364400  0.350900  0.449900  1
  O  O5011  1  0.864400  0.649100  0.449900  1
  O  O5012  1  0.864400  0.350900  0.550100  1
  O  O5013  1  0.308000  0.309000  0.022700  1
  O  O5014  1  0.308000  0.691000  0.977300  1
  O  O5015  1  0.808000  0.309000  0.977300  1
  O  O5016  1  0.808000  0.691000  0.022700  1
  O  O5017  1  0.308000  0.809000  0.522700  1
  O  O5018  1  0.308000  0.191000  0.477300  1
  O  O5019  1  0.808000  0.809000  0.477300  1
  O  O5020  1  0.808000  0.191000  0.522700  1
  O  O5021  1  0.293800  0.141500  0.086900  1
  O  O5022  1  0.293800  0.858500  0.913100  1
  O  O5023  1  0.793800  0.141500  0.913100  1
  O  O5024  1  0.793800  0.858500  0.086900  1
  O  O5025  1  0.293800  0.641500  0.586900  1
  O  O5026  1  0.293800  0.358500  0.413100  1
  O  O5027  1  0.793800  0.641500  0.413100  1
  O  O5028  1  0.793800  0.358500  0.586900  1
  O  O5029  1  0.229700  0.312500  0.014200  1
  O  O5030  1  0.229700  0.687500  0.985800  1
  O  O5031  1  0.729700  0.312500  0.985800  1
  O  O5032  1  0.729700  0.687500  0.014200  1
  O  O5033  1  0.229700  0.812500  0.514200  1
  O  O5034  1  0.229700  0.187500  0.485800  1
  O  O5035  1  0.729700  0.812500  0.485800  1
  O  O5036  1  0.729700  0.187500  0.514200  1
  O  O5037  1  0.117200  0.264400  0.008200  1
  O  O5038  1  0.117200  0.735600  0.991800  1
  O  O5039  1  0.617200  0.264400  0.991800  1
  O  O5040  1  0.617200  0.735600  0.008200  1
  O  O5041  1  0.117200  0.764400  0.508200  1
  O  O5042  1  0.117200  0.235600  0.491800  1
  O  O5043  1  0.617200  0.764400  0.491800  1
  O  O5044  1  0.617200  0.235600  0.508200  1
  O  O5045  1  0.006200  0.209600  0.019600  1
  O  O5046  1  0.006200  0.790400  0.980400  1
  O  O5047  1  0.506200  0.209600  0.980400  1
  O  O5048  1  0.506200  0.790400  0.019600  1
  O  O5049  1  0.006200  0.709600  0.519600  1
  O  O5050  1  0.006200  0.290400  0.480400  1
  O  O5051  1  0.506200  0.709600  0.480400  1
  O  O5052  1  0.506200  0.290400  0.519600  1
  O  O5053  1  0.332600  0.137000  0.026600  1
  O  O5054  1  0.332600  0.863000  0.973400  1
  O  O5055  1  0.832600  0.137000  0.973400  1
  O  O5056  1  0.832600  0.863000  0.026600  1
  O  O5057  1  0.332600  0.637000  0.526600  1
  O  O5058  1  0.332600  0.363000  0.473400  1
  O  O5059  1  0.832600  0.637000  0.473400  1
  O  O5060  1  0.832600  0.363000  0.526600  1
  O  O5061  1  0.410000  0.128100  0.480500  1
  O  O5062  1  0.410000  0.871900  0.519500  1
  O  O5063  1  0.910000  0.128100  0.519500  1
  O  O5064  1  0.910000  0.871900  0.480500  1
  O  O5065  1  0.410000  0.628100  0.980500  1
  O  O5066  1  0.410000  0.371900  0.019500  1
  O  O5067  1  0.910000  0.628100  0.019500  1
  O  O5068  1  0.910000  0.371900  0.980500  1
  O  O5069  1  0.070600  0.253400  0.048000  1
  O  O5070  1  0.070600  0.746600  0.952000  1
  O  O5071  1  0.570600  0.253400  0.952000  1
  O  O5072  1  0.570600  0.746600  0.048000  1
  O  O5073  1  0.070600  0.753400  0.548000  1
  O  O5074  1  0.070600  0.246600  0.452000  1
  O  O5075  1  0.570600  0.753400  0.452000  1
  O  O5076  1  0.570600  0.246600  0.548000  1
  O  O5077  1  0.085000  0.799500  0.226600  1
  O  O5078  1  0.085000  0.200500  0.773400  1
  O  O5079  1  0.585000  0.799500  0.773400  1
  O  O5080  1  0.585000  0.200500  0.226600  1
  O  O5081  1  0.085000  0.299500  0.726600  1
  O  O5082  1  0.085000  0.700500  0.273400  1
  O  O5083  1  0.585000  0.299500  0.273400  1
  O  O5084  1  0.585000  0.700500  0.726600  1
  O  O5085  1  0.079400  0.761100  0.239600  1
  O  O5086  1  0.079400  0.238900  0.760400  1
  O  O5087  1  0.579400  0.761100  0.760400  1
  O  O5088  1  0.579400  0.238900  0.239600  1
  O  O5089  1  0.079400  0.261100  0.739600  1
  O  O5090  1  0.079400  0.738900  0.260400  1
  O  O5091  1  0.579400  0.261100  0.260400  1
  O  O5092  1  0.579400  0.738900  0.739600  1
  O  O5093  1  0.026700  0.754300  0.425000  1
  O  O5094  1  0.026700  0.245700  0.575000  1
  O  O5095  1  0.526700  0.754300  0.575000  1
  O  O5096  1  0.526700  0.245700  0.425000  1
  O  O5097  1  0.026700  0.254300  0.925000  1
  O  O5098  1  0.026700  0.745700  0.075000  1
  O  O5099  1  0.526700  0.254300  0.075000  1
  O  O5100  1  0.526700  0.745700  0.925000  1
  O  O5101  1  0.521500  0.987700  0.305200  1
  O  O5102  1  0.521500  0.012300  0.694800  1
  O  O5103  1  0.021500  0.987700  0.694800  1
  O  O5104  1  0.021500  0.012300  0.305200  1
  O  O5105  1  0.521500  0.487700  0.805200  1
  O  O5106  1  0.521500  0.512300  0.194800  1
  O  O5107  1  0.021500  0.487700  0.194800  1
  O  O5108  1  0.021500  0.512300  0.805200  1
  O  O5109  1  0.364600  0.148900  0.025100  1
  O  O5110  1  0.364600  0.851100  0.974900  1
  O  O5111  1  0.864600  0.148900  0.974900  1
  O  O5112  1  0.864600  0.851100  0.025100  1
  O  O5113  1  0.364600  0.648900  0.525100  1
  O  O5114  1  0.364600  0.351100  0.474900  1
  O  O5115  1  0.864600  0.648900  0.474900  1
  O  O5116  1  0.864600  0.351100  0.525100  1
  O  O5117  1  0.050900  0.803500  0.208200  1
  O  O5118  1  0.050900  0.196500  0.791800  1
  O  O5119  1  0.550900  0.803500  0.791800  1
  O  O5120  1  0.550900  0.196500  0.208200  1
  O  O5121  1  0.050900  0.303500  0.708200  1
  O  O5122  1  0.050900  0.696500  0.291800  1
  O  O5123  1  0.550900  0.303500  0.291800  1
  O  O5124  1  0.550900  0.696500  0.708200  1
  O  O5125  1  0.978100  0.281700  0.016000  1
  O  O5126  1  0.978100  0.718300  0.984000  1
  O  O5127  1  0.478100  0.281700  0.984000  1
  O  O5128  1  0.478100  0.718300  0.016000  1
  O  O5129  1  0.978100  0.781700  0.516000  1
  O  O5130  1  0.978100  0.218300  0.484000  1
  O  O5131  1  0.478100  0.781700  0.484000  1
  O  O5132  1  0.478100  0.218300  0.516000  1
  O  O5133  1  0.175900  0.287700  0.060000  1
  O  O5134  1  0.175900  0.712300  0.940000  1
  O  O5135  1  0.675900  0.287700  0.940000  1
  O  O5136  1  0.675900  0.712300  0.060000  1
  O  O5137  1  0.175900  0.787700  0.560000  1
  O  O5138  1  0.175900  0.212300  0.440000  1
  O  O5139  1  0.675900  0.787700  0.440000  1
  O  O5140  1  0.675900  0.212300  0.560000  1
  O  O5141  1  0.049900  0.753300  0.232900  1
  O  O5142  1  0.049900  0.246700  0.767100  1
  O  O5143  1  0.549900  0.753300  0.767100  1
  O  O5144  1  0.549900  0.246700  0.232900  1
  O  O5145  1  0.049900  0.253300  0.732900  1
  O  O5146  1  0.049900  0.746700  0.267100  1
  O  O5147  1  0.549900  0.253300  0.267100  1
  O  O5148  1  0.549900  0.746700  0.732900  1
  O  O5149  1  0.479200  0.987000  0.365200  1
  O  O5150  1  0.479200  0.013000  0.634800  1
  O  O5151  1  0.979200  0.987000  0.634800  1
  O  O5152  1  0.979200  0.013000  0.365200  1
  O  O5153  1  0.479200  0.487000  0.865200  1
  O  O5154  1  0.479200  0.513000  0.134800  1
  O  O5155  1  0.979200  0.487000  0.134800  1
  O  O5156  1  0.979200  0.513000  0.865200  1
  O  O5157  1  0.976300  0.747700  0.232900  1
  O  O5158  1  0.976300  0.252300  0.767100  1
  O  O5159  1  0.476300  0.747700  0.767100  1
  O  O5160  1  0.476300  0.252300  0.232900  1
  O  O5161  1  0.976300  0.247700  0.732900  1
  O  O5162  1  0.976300  0.752300  0.267100  1
  O  O5163  1  0.476300  0.247700  0.267100  1
  O  O5164  1  0.476300  0.752300  0.732900  1
  O  O5165  1  0.424600  0.037000  0.368500  1
  O  O5166  1  0.424600  0.963000  0.631500  1
  O  O5167  1  0.924600  0.037000  0.631500  1
  O  O5168  1  0.924600  0.963000  0.368500  1
  O  O5169  1  0.424600  0.537000  0.868500  1
  O  O5170  1  0.424600  0.463000  0.131500  1
  O  O5171  1  0.924600  0.537000  0.131500  1
  O  O5172  1  0.924600  0.463000  0.868500  1
  O  O5173  1  0.313100  0.135200  0.061900  1
  O  O5174  1  0.313100  0.864800  0.938100  1
  O  O5175  1  0.813100  0.135200  0.938100  1
  O  O5176  1  0.813100  0.864800  0.061900  1
  O  O5177  1  0.313100  0.635200  0.561900  1
  O  O5178  1  0.313100  0.364800  0.438100  1
  O  O5179  1  0.813100  0.635200  0.438100  1
  O  O5180  1  0.813100  0.364800  0.561900  1
  O  O5181  1  0.246000  0.250000  0.250000  1
  O  O5182  1  0.246000  0.750000  0.750000  1
  O  O5183  1  0.746000  0.250000  0.750000  1
  O  O5184  1  0.746000  0.750000  0.250000  1
  O  O5185  1  0.225600  0.368100  0.978800  1
  O  O5186  1  0.225600  0.631900  0.021200  1
  O  O5187  1  0.725600  0.368100  0.021200  1
  O  O5188  1  0.725600  0.631900  0.978800  1
  O  O5189  1  0.225600  0.868100  0.478800  1
  O  O5190  1  0.225600  0.131900  0.521200  1
  O  O5191  1  0.725600  0.868100  0.521200  1
  O  O5192  1  0.725600  0.131900  0.478800  1
  O  O5193  1  0.995400  0.333800  0.041800  1
  O  O5194  1  0.995400  0.666200  0.958200  1
  O  O5195  1  0.495400  0.333800  0.958200  1
  O  O5196  1  0.495400  0.666200  0.041800  1
  O  O5197  1  0.995400  0.833800  0.541800  1
  O  O5198  1  0.995400  0.166200  0.458200  1
  O  O5199  1  0.495400  0.833800  0.458200  1
  O  O5200  1  0.495400  0.166200  0.541800  1
