
#######################################################################
#
#                 Cambridge Crystallographic Data Centre
#                                CCDC 
#
#######################################################################
#
# If this CIF has been generated from an entry in the Cambridge 
# Structural Database, then it will include bibliographic, chemical, 
# crystal, experimental, refinement or atomic coordinate data resulting 
# from the CCDC's data processing and validation procedures.
#
#######################################################################

data_JINJOG
_chemical_formula_moiety         
'C120 H144 N24 Ru6 S24 12+,12(N1 O3 1-),55.5(H2 O1)'
_chemical_name_systematic        
"tetrakis(\m~3~-2,4,6-tris(4-Pyridyl)-1,3,5-triazine-N,N',N'')-hexakis(1,4,7,10-tetrathiacyclododecane-S,S',S'',S''')-hexa-ruthenium(ii) dodecanitrate hydrate"
_symmetry_cell_setting           triclinic
_symmetry_space_group_name_H-M   'P -1'
_symmetry_Int_Tables_number      2
_space_group_name_Hall           '-P 1'
loop_
_symmetry_equiv_pos_site_id
_symmetry_equiv_pos_as_xyz
1 x,y,z
2 -x,-y,-z
_cell_length_a                   28.043(5)
_cell_length_b                   28.463(5)
_cell_length_c                   37.746(6)
_cell_angle_alpha                81.553(2)
_cell_angle_beta                 70.715(2)
_cell_angle_gamma                72.193(2)
_cell_volume                     27040.1
_cell_formula_units_Z            4
loop_
_atom_site_label
_atom_site_type_symbol
_atom_site_fract_x
_atom_site_fract_y
_atom_site_fract_z
Ru1 Ru 1.05014(3) 0.16288(3) 0.04545(2)
Ru2 Ru 1.06278(5) 0.25220(4) 0.37519(3)
Ru3 Ru 0.63438(4) 0.17016(3) 0.34079(2)
Ru4 Ru 0.60795(3) 0.52395(3) 0.07612(3)
Ru5 Ru 1.03186(3) 0.60928(3) 0.10046(3)
Ru6 Ru 0.62878(5) 0.61254(4) 0.41240(3)
S1 S 1.13106(10) 0.17362(9) 0.04390(7)
S2 S 0.98532(11) 0.13334(10) 0.03587(9)
S3 S 1.07932(11) 0.17294(10) -0.01840(8)
C1 C 1.1746(11) 0.1123(5) 0.0530(11)
H1 H 1.2118 0.1115 0.0398
H2 H 1.1703 0.1067 0.0803
C2 C 1.1611(7) 0.0732(8) 0.0397(8)
H3 H 1.1742 0.0415 0.0528
H4 H 1.1800 0.0699 0.0126
S4 S 1.0983(3) 0.0821(2) 0.0460(3)
C3 C 1.0702(9) 0.0458(8) 0.0368(10)
H5 H 1.0867 0.0377 0.0101
H6 H 1.0769 0.0146 0.0522
C4 C 1.0130(8) 0.0659(6) 0.0438(12)
H7 H 0.9956 0.0568 0.0702
H8 H 1.0027 0.0487 0.0278
C9 C 1.0019(5) 0.1339(5) -0.0150(4)
H17 H 0.9909 0.1074 -0.0218
H18 H 0.9822 0.1659 -0.0242
C10 C 1.0617(5) 0.1263(5) -0.0348(4)
H19 H 1.0692 0.1300 -0.0624
H20 H 1.0818 0.0929 -0.0281
C11 C 1.1496(4) 0.1541(5) -0.0307(3)
H21 H 1.1626 0.1180 -0.0262
H22 H 1.1653 0.1627 -0.0576
C12 C 1.1642(4) 0.1817(4) -0.0059(3)
H23 H 1.1554 0.2174 -0.0134
H24 H 1.2027 0.1700 -0.0102
S6 S 1.14425(16) 0.24503(12) 0.32899(11)
S7 S 1.0975(2) 0.28755(18) 0.40772(14)
S8 S 0.99389(19) 0.25733(14) 0.43264(10)
S9 S 1.0982(2) 0.17459(13) 0.39678(12)
C13 C 1.1746(7) 0.2861(6) 0.3424(5)
H25 H 1.2035 0.2658 0.3524
H26 H 1.1901 0.3053 0.3198
C14 C 1.1369(9) 0.3203(7) 0.3707(5)
H27 H 1.1138 0.3468 0.3589
H28 H 1.1558 0.3358 0.3814
C15 C 1.0423(9) 0.3253(7) 0.4360(6)
H29 H 1.0531 0.3423 0.4518
H30 H 1.0254 0.3510 0.4198
C16 C 1.0031(9) 0.3014(7) 0.4606(5)
H31 H 0.9693 0.3265 0.4707
H32 H 1.0150 0.2833 0.4820
C17 C 1.0129(8) 0.1997(6) 0.4597(4)
H33 H 0.9996 0.2061 0.4868
H34 H 0.9966 0.1754 0.4557
C18 C 1.0744(9) 0.1774(7) 0.4479(5)
H35 H 1.0837 0.1439 0.4598
H36 H 1.0907 0.1986 0.4560
C19 C 1.1656(7) 0.1704(6) 0.3835(5)
H37 H 1.1720 0.1938 0.3972
H38 H 1.1860 0.1365 0.3888
C20 C 1.1812(7) 0.1838(5) 0.3407(5)
H39 H 1.1753 0.1593 0.3276
H40 H 1.2191 0.1818 0.3314
S10 S 0.63049(14) 0.14895(12) 0.28392(9)
S11 S 0.66241(13) 0.08731(10) 0.35412(9)
S12 S 0.62209(13) 0.17911(11) 0.40432(8)
S13 S 0.54823(15) 0.17009(15) 0.36221(10)
C21 C 0.6493(6) 0.0822(5) 0.2873(4)
H41 H 0.6322 0.0703 0.2726
H42 H 0.6878 0.0700 0.2757
C22 C 0.6342(6) 0.0596(5) 0.3289(4)
H43 H 0.6489 0.0232 0.3295
H44 H 0.5956 0.0676 0.3400
C23 C 0.6293(6) 0.0802(4) 0.4036(3)
H45 H 0.5912 0.0859 0.4078
H46 H 0.6434 0.0462 0.4131
C24 C 0.6374(5) 0.1155(4) 0.4235(3)
H47 H 0.6746 0.1051 0.4232
H48 H 0.6154 0.1144 0.4500
C25 C 0.5494(5) 0.1982(6) 0.4266(4)
H49 H 0.5380 0.1702 0.4423
H50 H 0.5397 0.2259 0.4431
C26 C 0.5217(6) 0.2146(6) 0.3959(4)
H51 H 0.5267 0.2469 0.3839
H52 H 0.4835 0.2185 0.4072
C27 C 0.5257(6) 0.1935(6) 0.3228(4)
H53 H 0.4888 0.1930 0.3285
H54 H 0.5274 0.2281 0.3162
C28 C 0.5604(6) 0.1613(6) 0.2904(4)
H55 H 0.5530 0.1777 0.2670
H56 H 0.5514 0.1295 0.2946
S14 S 0.60088(12) 0.44737(10) 0.06432(9)
S15 S 0.59857(11) 0.60908(9) 0.07818(8)
C29 C 0.5294(6) 0.4565(9) 0.0784(10)
H57 H 0.5215 0.4378 0.0619
H58 H 0.5177 0.4428 0.1045
C30 C 0.4981(9) 0.5108(8) 0.0763(8)
H59 H 0.4600 0.5141 0.0863
H60 H 0.5062 0.5240 0.0499
S16 S 0.51686(18) 0.54469(18) 0.10405(16)
C31 C 0.4954(7) 0.6077(5) 0.0865(6)
H61 H 0.5030 0.6093 0.0588
H62 H 0.4572 0.6218 0.0981
C32 C 0.5266(5) 0.6354(8) 0.0974(10)
H63 H 0.5168 0.6347 0.1251
H64 H 0.5170 0.6704 0.0882
C37 C 0.6110(12) 0.6346(7) 0.0304(4)
H73 H 0.5776 0.6534 0.0255
H74 H 0.6335 0.6571 0.0258
C38 C 0.6405(7) 0.5885(6) 0.0034(6)
H75 H 0.6760 0.5723 0.0058
H76 H 0.6440 0.5999 -0.0232
S18 S 0.6014(2) 0.5472(2) 0.01819(16)
C39 C 0.6406(9) 0.4926(6) -0.0045(6)
H77 H 0.6437 0.4972 -0.0316
H78 H 0.6763 0.4843 -0.0019
C40 C 0.614(2) 0.4486(12) 0.0145(5)
H79 H 0.6376 0.4166 0.0046
H80 H 0.5805 0.4544 0.0085
S20 S 1.11627(11) 0.55303(10) 0.09158(9)
S21 S 1.06662(13) 0.64740(11) 0.04512(9)
S22 S 0.95968(12) 0.68182(9) 0.10960(9)
S23 S 1.06171(14) 0.65130(11) 0.13195(10)
C45 C 1.1546(5) 0.5772(5) 0.0484(4)
H89 H 1.1913 0.5694 0.0488
H90 H 1.1548 0.5605 0.0271
C46 C 1.1332(5) 0.6345(5) 0.0418(4)
H91 H 1.1531 0.6455 0.0166
H92 H 1.1372 0.6521 0.0609
C47 C 1.0391(6) 0.7114(4) 0.0546(4)
H93 H 1.0533 0.7199 0.0728
H94 H 1.0477 0.7320 0.0311
C48 C 0.9802(5) 0.7203(4) 0.0707(4)
H95 H 0.9663 0.7161 0.0508
H96 H 0.9644 0.7551 0.0780
C49 C 0.9655(6) 0.7125(4) 0.1478(4)
H97 H 0.9766 0.7428 0.1372
H98 H 0.9306 0.7225 0.1669
C50 C 1.0038(5) 0.6799(4) 0.1663(4)
H99 H 0.9885 0.6544 0.1829
H100 H 1.0119 0.6996 0.1820
C51 C 1.0981(6) 0.6013(5) 0.1567(4)
H101 H 1.1142 0.6143 0.1714
H102 H 1.0746 0.5824 0.1741
C52 C 1.1413(5) 0.5679(5) 0.1258(4)
H103 H 1.1579 0.5368 0.1379
H104 H 1.1688 0.5849 0.1126
S24 S 0.61471(18) 0.68680(12) 0.37505(10)
S25 S 0.62936(18) 0.55264(15) 0.46327(10)
C53 C 0.5457(8) 0.7116(14) 0.3954(9)
H105 H 0.5371 0.7478 0.3904
H106 H 0.5276 0.6987 0.3820
C54 C 0.5214(14) 0.7007(8) 0.4396(7)
H107 H 0.5258 0.7248 0.4538
H108 H 0.4833 0.7044 0.4457
S26 S 0.5491(3) 0.6482(4) 0.4510(2)
C55 C 0.5247(14) 0.6253(11) 0.4879(6)
H109 H 0.4887 0.6251 0.4899
H110 H 0.5228 0.6442 0.5086
C56 C 0.5610(9) 0.5697(13) 0.4906(12)
H111 H 0.5441 0.5478 0.4840
H112 H 0.5594 0.5617 0.5173
C61 C 0.6498(11) 0.5809(9) 0.4957(6)
H121 H 0.6292 0.5733 0.5217
H122 H 0.6871 0.5632 0.4931
C62 C 0.6455(12) 0.6344(9) 0.4927(5)
H123 H 0.6675 0.6414 0.5060
H124 H 0.6086 0.6536 0.5036
S28 S 0.6691(3) 0.6501(2) 0.44185(19)
C63 C 0.6376(12) 0.7163(7) 0.4361(7)
H125 H 0.6015 0.7247 0.4538
H126 H 0.6577 0.7357 0.4420
C64 C 0.6355(12) 0.7289(9) 0.3971(7)
H127 H 0.6709 0.7308 0.3810
H128 H 0.6112 0.7624 0.3965
N1 N 1.0174(3) 0.1635(3) 0.1048(2)
C69 C 1.0435(5) 0.1658(5) 0.1274(3)
H137 H 1.0794 0.1656 0.1170
C70 C 1.0199(5) 0.1685(5) 0.1666(3)
H138 H 1.0403 0.1699 0.1820
C71 C 0.9697(4) 0.1693(4) 0.1825(3)
C72 C 0.9419(5) 0.1684(6) 0.1596(3)
H139 H 0.9057 0.1700 0.1700
C73 C 0.9654(5) 0.1650(5) 0.1212(3)
H140 H 0.9450 0.1638 0.1058
N2 N 1.0298(4) 0.2199(3) 0.3440(3)
C74 C 0.9931(6) 0.1983(5) 0.3597(4)
H141 H 0.9842 0.1912 0.3861
C75 C 0.9661(6) 0.1848(5) 0.3395(3)
H142 H 0.9387 0.1697 0.3524
C76 C 0.9781(5) 0.1929(4) 0.3028(3)
C77 C 1.0197(5) 0.2138(4) 0.2846(3)
H143 H 1.0307 0.2190 0.2580
C78 C 1.0440(5) 0.2264(4) 0.3061(3)
H144 H 1.0723 0.2404 0.2938
N3 N 0.7137(4) 0.1700(3) 0.3198(2)
C79 C 0.7344(4) 0.1850(4) 0.2843(3)
H145 H 0.7126 0.1960 0.2685
C80 C 0.7865(4) 0.1853(4) 0.2700(3)
H146 H 0.7996 0.1957 0.2444
C81 C 0.8202(5) 0.1707(4) 0.2917(3)
C82 C 0.7987(5) 0.1564(4) 0.3283(3)
H147 H 0.8198 0.1460 0.3447
C83 C 0.7481(5) 0.1571(4) 0.3410(3)
H148 H 0.7346 0.1481 0.3668
C84 C 0.9444(4) 0.1727(4) 0.2237(3)
N4 N 0.9736(4) 0.1802(3) 0.2424(2)
C85 C 0.9494(5) 0.1812(4) 0.2807(3)
N5 N 0.9019(4) 0.1766(3) 0.2975(2)
C86 C 0.8751(4) 0.1712(3) 0.2753(3)
N6 N 0.8961(4) 0.1684(3) 0.2379(2)
N7 N 1.0102(3) 0.2399(3) 0.0441(2)
C87 C 0.9589(4) 0.2562(4) 0.0480(3)
H149 H 0.9400 0.2325 0.0514
C88 C 0.9322(4) 0.3048(4) 0.0473(4)
H150 H 0.8955 0.3142 0.0509
C89 C 0.9581(4) 0.3407(3) 0.0414(3)
C90 C 1.0115(4) 0.3238(4) 0.0358(3)
H151 H 1.0321 0.3464 0.0308
C91 C 1.0343(4) 0.2745(4) 0.0376(3)
H152 H 1.0711 0.2641 0.0338
N8 N 0.6918(3) 0.5023(3) 0.0631(2)
C92 C 0.7184(4) 0.5329(4) 0.0631(3)
H153 H 0.6995 0.5667 0.0666
C93 C 0.7709(4) 0.5202(3) 0.0583(3)
H154 H 0.7877 0.5445 0.0586
C94 C 0.7990(4) 0.4718(3) 0.0531(3)
C95 C 0.7718(4) 0.4400(4) 0.0505(4)
H155 H 0.7900 0.4066 0.0448
C96 C 0.7201(4) 0.4559(4) 0.0559(4)
H156 H 0.7025 0.4328 0.0546
N9 N 1.0026(3) 0.5690(3) 0.0727(2)
C97 C 1.0311(4) 0.5253(3) 0.0590(3)
H157 H 1.0678 0.5159 0.0555
C98 C 1.0102(4) 0.4936(3) 0.0498(3)
H158 H 1.0319 0.4621 0.0412
C99 C 0.9568(4) 0.5072(3) 0.0529(3)
C100 C 0.9293(5) 0.5541(4) 0.0625(3)
H159 H 0.8938 0.5665 0.0622
C101 C 0.9523(4) 0.5835(3) 0.0724(3)
H160 H 0.9318 0.6160 0.0796
C102 C 0.9310(4) 0.3943(3) 0.0410(3)
N10 N 0.8817(3) 0.4070(3) 0.0421(3)
C103 C 0.8560(4) 0.4557(3) 0.0479(3)
N11 N 0.8796(3) 0.4893(3) 0.0499(2)
C104 C 0.9302(4) 0.4716(3) 0.0467(3)
N12 N 0.9583(3) 0.4243(3) 0.0428(2)
N13 N 0.6123(4) 0.5700(3) 0.3784(3)
C105 C 0.6008(6) 0.5863(5) 0.3471(4)
H161 H 0.5923 0.6210 0.3417
C106 C 0.6000(6) 0.5574(4) 0.3213(3)
H162 H 0.5931 0.5723 0.2986
C107 C 0.6091(5) 0.5076(4) 0.3279(3)
C108 C 0.6211(8) 0.4904(5) 0.3608(5)
H163 H 0.6282 0.4559 0.3671
C109 C 0.6233(8) 0.5212(5) 0.3850(5)
H164 H 0.6329 0.5072 0.4069
N14 N 0.6075(4) 0.5050(3) 0.1320(3)
C110 C 0.6192(8) 0.4576(4) 0.1461(4)
H165 H 0.6292 0.4328 0.1287
C111 C 0.6184(8) 0.4420(5) 0.1800(4)
H166 H 0.6243 0.4077 0.1868
C112 C 0.6089(5) 0.4751(4) 0.2061(3)
C113 C 0.5991(5) 0.5248(4) 0.1929(3)
H167 H 0.5919 0.5501 0.2093
C114 C 0.6000(5) 0.5364(4) 0.1567(3)
H168 H 0.5947 0.5703 0.1485
N15 N 0.6192(4) 0.2479(3) 0.3260(2)
C115 C 0.6214(6) 0.2793(4) 0.3477(3)
H169 H 0.6256 0.2676 0.3717
C116 C 0.6180(6) 0.3270(4) 0.3369(3)
H170 H 0.6197 0.3477 0.3538
C117 C 0.6121(5) 0.3468(4) 0.3036(3)
C118 C 0.6086(5) 0.3144(4) 0.2806(3)
H171 H 0.6044 0.3261 0.2566
C119 C 0.6111(5) 0.2667(4) 0.2922(3)
H172 H 0.6071 0.2457 0.2766
C120 C 0.6086(5) 0.4746(4) 0.3029(3)
N16 N 0.6064(4) 0.4930(3) 0.2674(3)
C121 C 0.6088(5) 0.4600(4) 0.2450(3)
N17 N 0.6113(4) 0.4125(3) 0.2548(3)
C122 C 0.6113(5) 0.3991(4) 0.2908(3)
N18 N 0.6090(5) 0.4293(3) 0.3160(3)
N19 N 0.7084(4) 0.5826(4) 0.3818(3)
C123 C 0.7397(7) 0.5433(6) 0.3933(5)
H173 H 0.7270 0.5297 0.4179
C124 C 0.7901(7) 0.5202(6) 0.3718(5)
H174 H 0.8112 0.4928 0.3825
C125 C 0.8095(6) 0.5360(5) 0.3358(4)
C126 C 0.7780(6) 0.5796(5) 0.3253(4)
H175 H 0.7912 0.5948 0.3014
C127 C 0.7307(6) 0.6011(5) 0.3465(4)
H176 H 0.7110 0.6308 0.3371
N20 N 1.0254(5) 0.3196(4) 0.3513(3)
C128 C 1.0466(6) 0.3443(5) 0.3209(4)
H177 H 1.0835 0.3330 0.3097
C129 C 1.0196(6) 0.3851(5) 0.3042(4)
H178 H 1.0377 0.4001 0.2817
C130 C 0.9677(6) 0.4039(5) 0.3196(4)
C131 C 0.9414(7) 0.3820(6) 0.3503(5)
H179 H 0.9044 0.3939 0.3612
C132 C 0.9736(7) 0.3376(6) 0.3665(5)
H180 H 0.9565 0.3213 0.3887
N21 N 0.9956(3) 0.5712(3) 0.1505(2)
C133 C 0.9481(5) 0.5903(4) 0.1715(3)
H181 H 0.9287 0.6200 0.1619
C134 C 0.9227(5) 0.5720(4) 0.2060(3)
H182 H 0.8877 0.5881 0.2198
C135 C 0.9523(5) 0.5282(4) 0.2194(3)
C136 C 1.0015(5) 0.5055(4) 0.1979(3)
H183 H 1.0212 0.4749 0.2062
C137 C 1.0223(5) 0.5284(4) 0.1634(4)
H184 H 1.0568 0.5130 0.1484
C138 C 0.8633(6) 0.5125(5) 0.3126(4)
N22 N 0.8898(5) 0.4714(4) 0.3269(3)
C139 C 0.9368(6) 0.4503(5) 0.3049(4)
N23 N 0.9585(4) 0.4664(3) 0.2702(3)
C140 C 0.9284(5) 0.5073(4) 0.2582(3)
N24 N 0.8807(4) 0.5322(4) 0.2779(3)
Ru7 Ru -0.08460(3) 0.98461(3) 0.24252(3)
Ru8 Ru 0.20935(5) 0.99293(4) 0.44847(2)
Ru9 Ru 0.27307(3) 1.22998(3) 0.10858(2)
Ru10 Ru 0.34465(3) 0.80401(3) -0.03976(2)
Ru11 Ru 0.26530(4) 0.58003(3) 0.30471(3)
Ru12 Ru 0.63722(3) 0.82627(3) 0.16535(3)
S30 S -0.08829(12) 1.02973(11) 0.18535(9)
S31 S -0.13671(13) 0.94603(12) 0.22901(11)
S32 S -0.10262(13) 0.93815(13) 0.30027(10)
S33 S -0.15614(11) 1.04523(11) 0.27125(9)
C141 C -0.1155(5) 0.9948(5) 0.1631(4)
H185 H -0.1524 1.0133 0.1651
H186 H -0.0954 0.9926 0.1361
C142 C -0.1139(5) 0.9436(5) 0.1805(4)
H187 H -0.0775 0.9220 0.1727
H188 H -0.1362 0.9296 0.1718
C143 C -0.1166(6) 0.8854(5) 0.2498(5)
H189 H -0.1369 0.8644 0.2464
H190 H -0.0789 0.8702 0.2373
C144 C -0.1254(6) 0.8889(5) 0.2901(5)
H191 H -0.1069 0.8568 0.3000
H192 H -0.1634 0.8948 0.3034
C145 C -0.1632(5) 0.9785(6) 0.3276(4)
H193 H -0.1836 0.9578 0.3461
H194 H -0.1545 0.9994 0.3419
C146 C -0.1979(5) 1.0117(5) 0.3057(4)
H195 H -0.2285 1.0347 0.3223
H196 H -0.2108 0.9920 0.2932
C147 C -0.1853(5) 1.0688(5) 0.2338(4)
H197 H -0.1977 1.0432 0.2272
H198 H -0.2158 1.0979 0.2420
C148 C -0.1464(5) 1.0825(4) 0.2021(4)
H199 H -0.1352 1.1088 0.2089
H200 H -0.1620 1.0961 0.1815
S34 S 0.27297(16) 1.03610(13) 0.43609(10)
S35 S 0.15148(16) 1.05746(13) 0.48294(9)
S36 S 0.14448(18) 0.95016(14) 0.47794(9)
S37 S 0.2400(2) 0.95688(16) 0.49765(10)
C149 C 0.2338(7) 1.0927(6) 0.4619(5)
H201 H 0.2580 1.1079 0.4672
H202 H 0.2155 1.1166 0.4456
C150 C 0.1941(7) 1.0841(6) 0.4980(5)
H203 H 0.1737 1.1155 0.5106
H204 H 0.2110 1.0607 0.5153
C151 C 0.1169(7) 1.0299(6) 0.5239(4)
H205 H 0.1407 1.0123 0.5390
H206 H 0.0879 1.0555 0.5394
C152 C 0.0953(7) 0.9944(6) 0.5129(4)
H207 H 0.0665 1.0133 0.5024
H208 H 0.0799 0.9754 0.5358
C153 C 0.1735(8) 0.9044(6) 0.5097(5)
H209 H 0.1556 0.9150 0.5358
H210 H 0.1674 0.8724 0.5082
C154 C 0.2283(8) 0.8978(6) 0.5014(5)
H211 H 0.2475 0.8811 0.4774
H212 H 0.2411 0.8768 0.5215
C155 C 0.3087(7) 0.9500(6) 0.4778(4)
H213 H 0.3270 0.9352 0.4969
H214 H 0.3235 0.9282 0.4564
C156 C 0.3155(7) 1.0018(6) 0.4646(4)
H215 H 0.3526 0.9988 0.4496
H216 H 0.3075 1.0207 0.4868
S38 S 0.21867(11) 1.23646(10) 0.07061(8)
S39 S 0.32701(11) 1.24556(9) 0.13951(8)
C157 C 0.1632(9) 1.2922(9) 0.0832(10)
H217 H 0.1522 1.3071 0.0608
H218 H 0.1330 1.2833 0.1025
C158 C 0.1800(10) 1.3289(8) 0.0985(7)
H219 H 0.1482 1.3550 0.1107
H220 H 0.2023 1.3449 0.0772
S40 S 0.2149(2) 1.30255(18) 0.13149(16)
C159 C 0.2534(8) 1.3402(7) 0.1348(7)
H221 H 0.2735 1.3504 0.1094
H222 H 0.2307 1.3702 0.1485
C160 C 0.2904(10) 1.3085(6) 0.1561(8)
H223 H 0.2697 1.3054 0.1828
H224 H 0.3163 1.3262 0.1550
S42 S 0.33177(15) 1.25082(14) 0.05462(10)
C165 C 0.3793(6) 1.2646(7) 0.1012(4)
H233 H 0.3919 1.2873 0.1111
H234 H 0.4091 1.2350 0.0930
C166 C 0.3626(6) 1.2901(5) 0.0672(4)
H235 H 0.3936 1.2942 0.0461
H236 H 0.3377 1.3230 0.0734
C167 C 0.2931(6) 1.2880(5) 0.0251(4)
H237 H 0.2723 1.3204 0.0358
H238 H 0.3159 1.2935 -0.0006
C168 C 0.2574(8) 1.2575(14) 0.0245(4)
H239 H 0.2793 1.2280 0.0100
H240 H 0.2326 1.2773 0.0108
S44 S 0.41451(11) 0.73303(10) -0.03621(8)
S45 S 0.28301(13) 0.86900(11) -0.06048(9)
C173 C 0.3965(7) 0.6867(6) -0.0550(8)
H249 H 0.4294 0.6623 -0.0679
H250 H 0.3768 0.6688 -0.0335
C174 C 0.3661(5) 0.7041(5) -0.0804(4)
H251 H 0.3561 0.6767 -0.0868
H252 H 0.3865 0.7184 -0.1039
S46 S 0.3079(2) 0.7510(1) -0.0567(1)
C175 C 0.2823(7) 0.7869(5) -0.0933(5)
H253 H 0.3117 0.7894 -0.1162
H254 H 0.2600 0.7703 -0.0995
C176 C 0.2520(7) 0.8353(6) -0.0809(5)
H255 H 0.2187 0.8324 -0.0618
H256 H 0.2427 0.8556 -0.1025
C181 C 0.3266(6) 0.8925(7) -0.1047(4)
H265 H 0.3218 0.8816 -0.1267
H266 H 0.3156 0.9290 -0.1058
C182 C 0.3813(7) 0.8754(5) -0.1070(5)
H267 H 0.3878 0.8908 -0.0878
H268 H 0.4029 0.8846 -0.1321
S48 S 0.3987(2) 0.8094(2) -0.0991(1)
C183 C 0.4609(6) 0.7952(7) -0.0897(5)
H269 H 0.4891 0.7975 -0.1134
H270 H 0.4591 0.8194 -0.0726
C184 C 0.4725(6) 0.7467(7) -0.0727(5)
H271 H 0.5006 0.7428 -0.0612
H272 H 0.4859 0.7224 -0.0925
S50 S 0.19081(15) 0.60702(13) 0.35694(11)
S51 S 0.33825(13) 0.53212(11) 0.26029(10)
C189 C 0.1467(11) 0.5748(11) 0.3499(10)
H281 H 0.1194 0.5715 0.3740
H282 H 0.1290 0.5942 0.3315
C190 C 0.1807(12) 0.5207(10) 0.3346(6)
H283 H 0.1578 0.5009 0.3333
H284 H 0.2031 0.5023 0.3505
S52 S 0.2178(3) 0.5358(3) 0.2906(2)
C191 C 0.2642(10) 0.4803(7) 0.2780(9)
H285 H 0.2776 0.4646 0.2993
H286 H 0.2483 0.4577 0.2711
C192 C 0.3117(12) 0.4913(12) 0.2424(8)
H287 H 0.2985 0.5081 0.2212
H288 H 0.3390 0.4603 0.2338
C197 C 0.3785(13) 0.4933(13) 0.2896(7)
H297 H 0.3753 0.4592 0.2922
H298 H 0.4159 0.4921 0.2769
C198 C 0.3619(7) 0.5128(10) 0.3279(7)
H299 H 0.3716 0.5439 0.3260
H300 H 0.3800 0.4885 0.3442
S54 S 0.2934(3) 0.5238(2) 0.34770(19)
C199 C 0.2713(12) 0.5615(11) 0.3864(7)
H301 H 0.2841 0.5433 0.4075
H302 H 0.2836 0.5917 0.3792
C200 C 0.2126(13) 0.5741(13) 0.3970(7)
H303 H 0.1966 0.5951 0.4189
H304 H 0.2011 0.5435 0.4041
S56 S 0.63551(12) 0.89677(11) 0.19228(9)
S57 S 0.66352(11) 0.74995(10) 0.13707(9)
C205 C 0.6665(13) 0.8756(9) 0.2309(8)
H313 H 0.6875 0.8979 0.2312
H314 H 0.6388 0.8770 0.2555
C206 C 0.7001(10) 0.8257(8) 0.2255(8)
H315 H 0.7084 0.8125 0.2492
H316 H 0.7335 0.8269 0.2060
S58 S 0.6738(2) 0.7834(2) 0.21208(19)
C207 C 0.7237(8) 0.7352(7) 0.1859(6)
H317 H 0.7508 0.7490 0.1671
H318 H 0.7406 0.7113 0.2029
C208 C 0.7024(12) 0.7102(8) 0.1669(8)
H319 H 0.6797 0.6920 0.1861
H320 H 0.7318 0.6854 0.1510
C213 C 0.7213(7) 0.7567(9) 0.0974(5)
H329 H 0.7465 0.7235 0.0927
H330 H 0.7097 0.7680 0.0748
C214 C 0.7498(8) 0.7900(7) 0.1011(8)
H331 H 0.7687 0.8012 0.0757
H332 H 0.7765 0.7714 0.1136
S60 S 0.7118(2) 0.8392(2) 0.1253(2)
C215 C 0.7341(8) 0.8804(7) 0.1332(7)
H333 H 0.7619 0.8650 0.1453
H334 H 0.7495 0.8973 0.1092
C216 C 0.6911(7) 0.9159(7) 0.1577(6)
H335 H 0.6763 0.9429 0.1413
H336 H 0.7068 0.9306 0.1717
N25 N -0.0358(3) 1.0212(3) 0.2536(2)
C221 C -0.0375(4) 1.0288(4) 0.2888(3)
H345 H -0.0643 1.0207 0.3097
C222 C -0.0022(4) 1.0475(4) 0.2950(3)
H346 H -0.0045 1.0521 0.3200
C223 C 0.0371(4) 1.0600(4) 0.2654(3)
C224 C 0.0370(4) 1.0542(4) 0.2300(3)
H347 H 0.0624 1.0637 0.2087
C225 C 0.0019(4) 1.0353(4) 0.2250(3)
H348 H 0.0034 1.0316 0.2000
N26 N 0.1806(4) 1.0247(3) 0.4028(2)
C226 C 0.2151(5) 1.0364(4) 0.3689(3)
H349 H 0.2509 1.0309 0.3672
C227 C 0.1992(4) 1.0551(4) 0.3385(3)
H350 H 0.2235 1.0642 0.3162
C228 C 0.1460(4) 1.0616(4) 0.3394(3)
C229 C 0.1123(4) 1.0495(4) 0.3733(3)
H351 H 0.0766 1.0531 0.3757
C230 C 0.1308(5) 1.0323(4) 0.4032(3)
H352 H 0.1065 1.0252 0.4262
N27 N 0.2269(3) 1.1970(3) 0.1565(2)
C231 C 0.1922(6) 1.1774(6) 0.1541(4)
H353 H 0.1854 1.1808 0.1307
C232 C 0.1646(6) 1.1519(6) 0.1832(4)
H354 H 0.1402 1.1382 0.1789
C233 C 0.1706(4) 1.1456(4) 0.2170(3)
C234 C 0.2050(5) 1.1674(5) 0.2203(3)
H355 H 0.2107 1.1661 0.2440
C235 C 0.2323(5) 1.1919(5) 0.1896(3)
H356 H 0.2569 1.2059 0.1931
C236 C 0.0786(4) 1.0773(4) 0.2709(3)
N28 N 0.0885(3) 1.0659(3) 0.3041(2)
C237 C 0.1294(4) 1.0782(4) 0.3060(3)
N29 N 0.1565(3) 1.1059(3) 0.2794(2)
C238 C 0.1430(4) 1.1164(3) 0.2471(3)
N30 N 0.1045(3) 1.1028(3) 0.2416(2)
N31 N -0.0125(3) 0.9308(3) 0.2182(3)
C239 C 0.0107(4) 0.9253(4) 0.1825(3)
H357 H -0.0061 0.9469 0.1658
C240 C 0.0578(4) 0.8907(4) 0.1663(3)
H358 H 0.0732 0.8892 0.1399
C241 C 0.0810(4) 0.8587(4) 0.1910(3)
C242 C 0.0590(4) 0.8645(4) 0.2296(3)
H359 H 0.0758 0.8444 0.2469
C243 C 0.0123(5) 0.8999(4) 0.2417(3)
H360 H -0.0036 0.9032 0.2680
N32 N 0.2945(3) 0.7949(3) 0.0151(2)
C244 C 0.3041(5) 0.7545(4) 0.0373(3)
H361 H 0.3324 0.7270 0.0267
C245 C 0.2752(5) 0.7498(4) 0.0751(3)
H362 H 0.2840 0.7204 0.0899
C246 C 0.2336(4) 0.7892(4) 0.0901(3)
C247 C 0.2210(5) 0.8282(5) 0.0667(4)
H363 H 0.1910 0.8550 0.0759
C248 C 0.2510(5) 0.8298(5) 0.0296(4)
H364 H 0.2400 0.8572 0.0136
N33 N 0.2355(4) 0.6315(3) 0.2656(3)
C249 C 0.1915(6) 0.6656(5) 0.2745(4)
H365 H 0.1694 0.6651 0.2997
C250 C 0.1742(6) 0.7032(5) 0.2494(4)
H366 H 0.1395 0.7245 0.2572
C251 C 0.2058(4) 0.7095(4) 0.2145(3)
C252 C 0.2503(5) 0.6708(5) 0.2028(4)
H367 H 0.2715 0.6697 0.1773
C253 C 0.2638(5) 0.6330(5) 0.2294(4)
H368 H 0.2950 0.6069 0.2210
C254 C 0.1312(4) 0.8186(4) 0.1770(3)
N34 N 0.1573(3) 0.8225(3) 0.1411(2)
C255 C 0.2030(4) 0.7865(4) 0.1298(3)
N35 N 0.2198(3) 0.7495(3) 0.1532(2)
C256 C 0.1901(4) 0.7492(4) 0.1884(3)
N36 N 0.1445(3) 0.7841(3) 0.2019(3)
N37 N 0.5838(3) 0.8649(3) 0.1353(2)
C257 C 0.5652(5) 0.8397(3) 0.1191(3)
H369 H 0.5792 0.8048 0.1186
C258 C 0.5244(5) 0.8631(4) 0.1021(3)
H370 H 0.5125 0.8439 0.0900
C259 C 0.5030(4) 0.9117(3) 0.1034(3)
C260 C 0.5253(4) 0.9381(4) 0.1182(3)
H371 H 0.5130 0.9732 0.1181
C261 C 0.5655(4) 0.9134(4) 0.1331(3)
H372 H 0.5810 0.9325 0.1424
N38 N 0.3699(3) 0.8497(3) -0.0130(2)
C262 C 0.3536(4) 0.8986(4) -0.0141(3)
H373 H 0.3326 0.9149 -0.0299
C263 C 0.3656(4) 0.9267(3) 0.0063(3)
H374 H 0.3528 0.9617 0.0045
C264 C 0.3955(4) 0.9051(3) 0.0289(3)
C265 C 0.4130(4) 0.8547(4) 0.0302(4)
H375 H 0.4339 0.8378 0.0459
C266 C 0.4000(4) 0.8283(4) 0.0082(3)
H376 H 0.4135 0.7933 0.0086
N39 N 0.3170(3) 1.1565(3) 0.0960(2)
C267 C 0.3476(5) 1.1297(4) 0.1169(4)
H377 H 0.3509 1.1448 0.1365
C268 C 0.3742(5) 1.0811(4) 0.1106(4)
H378 H 0.3950 1.0635 0.1262
C269 C 0.3719(4) 1.0571(3) 0.0831(3)
C270 C 0.3419(5) 1.0850(4) 0.0614(3)
H379 H 0.3398 1.0710 0.0408
C271 C 0.3148(5) 1.1334(4) 0.0692(3)
H380 H 0.2930 1.1512 0.0543
C272 C 0.4612(4) 0.9362(3) 0.0862(3)
N40 N 0.4496(3) 0.9095(2) 0.0657(2)
C273 C 0.4098(4) 0.9335(3) 0.0519(2)
N41 N 0.3841(3) 0.9814(3) 0.0565(2)
C274 C 0.3993(4) 1.0051(3) 0.0763(3)
N42 N 0.4380(3) 0.9850(3) 0.0920(2)
N43 N 0.5685(3) 0.8145(3) 0.2061(2)
C275 C 0.5326(5) 0.8498(5) 0.2249(3)
H381 H 0.5396 0.8811 0.2210
C276 C 0.4853(5) 0.8472(5) 0.2500(4)
H382 H 0.4608 0.8755 0.2625
C277 C 0.4742(4) 0.8021(4) 0.2567(3)
C278 C 0.5103(4) 0.7630(4) 0.2366(3)
H383 H 0.5040 0.7315 0.2394
C279 C 0.5569(4) 0.7719(4) 0.2116(3)
H384 H 0.5820 0.7451 0.1975
N44 N 0.2594(4) 0.9361(3) 0.4107(2)
C280 C 0.2421(5) 0.9008(5) 0.4048(3)
H385 H 0.2079 0.8994 0.4200
C281 C 0.2689(6) 0.8664(5) 0.3790(4)
H386 H 0.2527 0.8433 0.3756
C282 C 0.3182(5) 0.8646(4) 0.3582(3)
C283 C 0.3381(5) 0.9022(4) 0.3639(3)
H387 H 0.3725 0.9038 0.3494
C284 C 0.3083(5) 0.9354(4) 0.3899(3)
H388 H 0.3228 0.9597 0.3936
N45 N 0.3002(4) 0.6350(3) 0.3071(3)
C285 C 0.3514(5) 0.6333(4) 0.2893(3)
H389 H 0.3742 0.6043 0.2770
C286 C 0.3717(5) 0.6719(4) 0.2885(3)
H390 H 0.4076 0.6691 0.2751
C287 C 0.3423(5) 0.7128(4) 0.3058(3)
C288 C 0.2901(6) 0.7152(5) 0.3209(6)
H391 H 0.2664 0.7454 0.3308
C289 C 0.2709(6) 0.6774(5) 0.3224(5)
H392 H 0.2346 0.6810 0.3350
C290 C 0.4241(4) 0.7962(4) 0.2837(3)
N46 N 0.3973(4) 0.8324(3) 0.3071(2)
C291 C 0.3515(5) 0.8259(4) 0.3306(3)
N47 N 0.3322(4) 0.7886(3) 0.3317(2)
C292 C 0.3626(5) 0.7554(4) 0.3064(3)
N48 N 0.4078(3) 0.7578(3) 0.2817(2)
N49 N 0.6910(8) 0.1943(5) 0.1935(5)
O1 O 0.7367(8) 0.1721(8) 0.1962(4)
O2 O 0.6647(8) 0.2360(6) 0.2101(4)
O3 O 0.6655(10) 0.1688(8) 0.1843(5)
O4 O 0.2136(11) 0.6451(10) 0.1183(8)
O5 O 0.3930(8) 0.6159(7) 0.1773(6)
O6 O 0.8005(7) 0.8152(7) 0.2498(5)
O7 O 0.6362(8) 0.8480(7) 0.3385(6)
O8 O 0.2961(15) 1.1279(14) 0.3678(11)
O9 O 0.8392(17) 0.7609(16) 0.1103(12)
O10 O 0.7215(13) 0.7822(12) 0.3182(9)
O11 O 0.4789(16) 0.4410(15) 0.1990(12)
loop_
_geom_bond_atom_site_label_1
_geom_bond_atom_site_label_2
_geom_bond_site_symmetry_1
_geom_bond_site_symmetry_2
Ru1 S1 1_555 1_555
Ru2 S6 1_555 1_555
Ru3 S10 1_555 1_555
Ru4 S14 1_555 1_555
Ru5 S20 1_555 1_555
Ru6 S24 1_555 1_555
S1 C1 1_555 1_555
S2 Ru1 1_555 1_555
S3 Ru1 1_555 1_555
C1 H1 1_555 1_555
H2 C1 1_555 1_555
C2 C1 1_555 1_555
H3 C2 1_555 1_555
H4 C2 1_555 1_555
S4 Ru1 1_555 1_555
C3 S4 1_555 1_555
H5 C3 1_555 1_555
H6 C3 1_555 1_555
C4 S2 1_555 1_555
H7 C4 1_555 1_555
H8 C4 1_555 1_555
C9 S2 1_555 1_555
H17 C9 1_555 1_555
H18 C9 1_555 1_555
C10 S3 1_555 1_555
H19 C10 1_555 1_555
H20 C10 1_555 1_555
C11 S3 1_555 1_555
H21 C11 1_555 1_555
H22 C11 1_555 1_555
C12 S1 1_555 1_555
H23 C12 1_555 1_555
H24 C12 1_555 1_555
S6 C13 1_555 1_555
S7 Ru2 1_555 1_555
S8 Ru2 1_555 1_555
S9 Ru2 1_555 1_555
C13 H25 1_555 1_555
H26 C13 1_555 1_555
C14 S7 1_555 1_555
H27 C14 1_555 1_555
H28 C14 1_555 1_555
C15 S7 1_555 1_555
H29 C15 1_555 1_555
H30 C15 1_555 1_555
C16 S8 1_555 1_555
H31 C16 1_555 1_555
H32 C16 1_555 1_555
C17 S8 1_555 1_555
H33 C17 1_555 1_555
H34 C17 1_555 1_555
C18 S9 1_555 1_555
H35 C18 1_555 1_555
H36 C18 1_555 1_555
C19 S9 1_555 1_555
H37 C19 1_555 1_555
H38 C19 1_555 1_555
C20 S6 1_555 1_555
H39 C20 1_555 1_555
H40 C20 1_555 1_555
S10 C21 1_555 1_555
S11 Ru3 1_555 1_555
S12 Ru3 1_555 1_555
S13 Ru3 1_555 1_555
C21 H41 1_555 1_555
H42 C21 1_555 1_555
C22 S11 1_555 1_555
H43 C22 1_555 1_555
H44 C22 1_555 1_555
C23 S11 1_555 1_555
H45 C23 1_555 1_555
H46 C23 1_555 1_555
C24 S12 1_555 1_555
H47 C24 1_555 1_555
H48 C24 1_555 1_555
C25 S12 1_555 1_555
H49 C25 1_555 1_555
H50 C25 1_555 1_555
C26 S13 1_555 1_555
H51 C26 1_555 1_555
H52 C26 1_555 1_555
C27 S13 1_555 1_555
H53 C27 1_555 1_555
H54 C27 1_555 1_555
C28 S10 1_555 1_555
H55 C28 1_555 1_555
H56 C28 1_555 1_555
S14 C29 1_555 1_555
S15 Ru4 1_555 1_555
C29 H57 1_555 1_555
H58 C29 1_555 1_555
C30 C29 1_555 1_555
H59 C30 1_555 1_555
H60 C30 1_555 1_555
S16 Ru4 1_555 1_555
C31 S16 1_555 1_555
H61 C31 1_555 1_555
H62 C31 1_555 1_555
C32 S15 1_555 1_555
H63 C32 1_555 1_555
H64 C32 1_555 1_555
C37 S15 1_555 1_555
H73 C37 1_555 1_555
H74 C37 1_555 1_555
C38 C37 1_555 1_555
H75 C38 1_555 1_555
H76 C38 1_555 1_555
S18 Ru4 1_555 1_555
C39 S18 1_555 1_555
H77 C39 1_555 1_555
H78 C39 1_555 1_555
C40 S14 1_555 1_555
H79 C40 1_555 1_555
H80 C40 1_555 1_555
S20 C45 1_555 1_555
S21 Ru5 1_555 1_555
S22 Ru5 1_555 1_555
S23 Ru5 1_555 1_555
C45 H89 1_555 1_555
H90 C45 1_555 1_555
C46 S21 1_555 1_555
H91 C46 1_555 1_555
H92 C46 1_555 1_555
C47 S21 1_555 1_555
H93 C47 1_555 1_555
H94 C47 1_555 1_555
C48 S22 1_555 1_555
H95 C48 1_555 1_555
H96 C48 1_555 1_555
C49 S22 1_555 1_555
H97 C49 1_555 1_555
H98 C49 1_555 1_555
C50 S23 1_555 1_555
H99 C50 1_555 1_555
H100 C50 1_555 1_555
C51 S23 1_555 1_555
H101 C51 1_555 1_555
H102 C51 1_555 1_555
C52 S20 1_555 1_555
H103 C52 1_555 1_555
H104 C52 1_555 1_555
S24 C53 1_555 1_555
S25 Ru6 1_555 1_555
C53 H105 1_555 1_555
H106 C53 1_555 1_555
C54 C53 1_555 1_555
H107 C54 1_555 1_555
H108 C54 1_555 1_555
S26 Ru6 1_555 1_555
C55 S26 1_555 1_555
H109 C55 1_555 1_555
H110 C55 1_555 1_555
C56 S25 1_555 1_555
H111 C56 1_555 1_555
H112 C56 1_555 1_555
C61 S25 1_555 1_555
H121 C61 1_555 1_555
H122 C61 1_555 1_555
C62 C61 1_555 1_555
H123 C62 1_555 1_555
H124 C62 1_555 1_555
S28 Ru6 1_555 1_555
C63 S28 1_555 1_555
H125 C63 1_555 1_555
H126 C63 1_555 1_555
C64 S24 1_555 1_555
H127 C64 1_555 1_555
H128 C64 1_555 1_555
N1 Ru1 1_555 1_555
C69 N1 1_555 1_555
H137 C69 1_555 1_555
C70 C69 1_555 1_555
H138 C70 1_555 1_555
C71 C70 1_555 1_555
C72 C71 1_555 1_555
H139 C72 1_555 1_555
C73 N1 1_555 1_555
H140 C73 1_555 1_555
N2 Ru2 1_555 1_555
C74 N2 1_555 1_555
H141 C74 1_555 1_555
C75 C74 1_555 1_555
H142 C75 1_555 1_555
C76 C75 1_555 1_555
C77 C76 1_555 1_555
H143 C77 1_555 1_555
C78 N2 1_555 1_555
H144 C78 1_555 1_555
N3 Ru3 1_555 1_555
C79 N3 1_555 1_555
H145 C79 1_555 1_555
C80 C79 1_555 1_555
H146 C80 1_555 1_555
C81 C80 1_555 1_555
C82 C81 1_555 1_555
H147 C82 1_555 1_555
C83 N3 1_555 1_555
H148 C83 1_555 1_555
C84 C71 1_555 1_555
N4 C84 1_555 1_555
C85 C76 1_555 1_555
N5 C85 1_555 1_555
C86 C81 1_555 1_555
N6 C84 1_555 1_555
N7 Ru1 1_555 1_555
C87 N7 1_555 1_555
H149 C87 1_555 1_555
C88 C87 1_555 1_555
H150 C88 1_555 1_555
C89 C88 1_555 1_555
C90 C89 1_555 1_555
H151 C90 1_555 1_555
C91 N7 1_555 1_555
H152 C91 1_555 1_555
N8 Ru4 1_555 1_555
C92 N8 1_555 1_555
H153 C92 1_555 1_555
C93 C92 1_555 1_555
H154 C93 1_555 1_555
C94 C93 1_555 1_555
C95 C94 1_555 1_555
H155 C95 1_555 1_555
C96 N8 1_555 1_555
H156 C96 1_555 1_555
N9 Ru5 1_555 1_555
C97 N9 1_555 1_555
H157 C97 1_555 1_555
C98 C97 1_555 1_555
H158 C98 1_555 1_555
C99 C98 1_555 1_555
C100 C99 1_555 1_555
H159 C100 1_555 1_555
C101 N9 1_555 1_555
H160 C101 1_555 1_555
C102 C89 1_555 1_555
N10 C102 1_555 1_555
C103 C94 1_555 1_555
N11 C103 1_555 1_555
C104 C99 1_555 1_555
N12 C102 1_555 1_555
N13 Ru6 1_555 1_555
C105 N13 1_555 1_555
H161 C105 1_555 1_555
C106 C105 1_555 1_555
H162 C106 1_555 1_555
C107 C106 1_555 1_555
C108 C107 1_555 1_555
H163 C108 1_555 1_555
C109 N13 1_555 1_555
H164 C109 1_555 1_555
N14 Ru4 1_555 1_555
C110 N14 1_555 1_555
H165 C110 1_555 1_555
C111 C110 1_555 1_555
H166 C111 1_555 1_555
C112 C111 1_555 1_555
C113 C112 1_555 1_555
H167 C113 1_555 1_555
C114 N14 1_555 1_555
H168 C114 1_555 1_555
N15 Ru3 1_555 1_555
C115 N15 1_555 1_555
H169 C115 1_555 1_555
C116 C115 1_555 1_555
H170 C116 1_555 1_555
C117 C116 1_555 1_555
C118 C117 1_555 1_555
H171 C118 1_555 1_555
C119 N15 1_555 1_555
H172 C119 1_555 1_555
C120 C107 1_555 1_555
N16 C120 1_555 1_555
C121 C112 1_555 1_555
N17 C121 1_555 1_555
C122 C117 1_555 1_555
N18 C120 1_555 1_555
N19 Ru6 1_555 1_555
C123 N19 1_555 1_555
H173 C123 1_555 1_555
C124 C123 1_555 1_555
H174 C124 1_555 1_555
C125 C124 1_555 1_555
C126 C125 1_555 1_555
H175 C126 1_555 1_555
C127 N19 1_555 1_555
H176 C127 1_555 1_555
N20 Ru2 1_555 1_555
C128 N20 1_555 1_555
H177 C128 1_555 1_555
C129 C128 1_555 1_555
H178 C129 1_555 1_555
C130 C129 1_555 1_555
C131 C130 1_555 1_555
H179 C131 1_555 1_555
C132 N20 1_555 1_555
H180 C132 1_555 1_555
N21 Ru5 1_555 1_555
C133 N21 1_555 1_555
H181 C133 1_555 1_555
C134 C133 1_555 1_555
H182 C134 1_555 1_555
C135 C134 1_555 1_555
C136 C135 1_555 1_555
H183 C136 1_555 1_555
C137 N21 1_555 1_555
H184 C137 1_555 1_555
C138 C125 1_555 1_555
N22 C138 1_555 1_555
C139 C130 1_555 1_555
N23 C139 1_555 1_555
C140 C135 1_555 1_555
N24 C138 1_555 1_555
Ru7 S30 1_555 1_555
Ru8 S34 1_555 1_555
Ru9 S38 1_555 1_555
Ru10 S44 1_555 1_555
Ru11 S50 1_555 1_555
Ru12 S56 1_555 1_555
S30 C141 1_555 1_555
S31 Ru7 1_555 1_555
S32 Ru7 1_555 1_555
S33 Ru7 1_555 1_555
C141 H185 1_555 1_555
H186 C141 1_555 1_555
C142 S31 1_555 1_555
H187 C142 1_555 1_555
H188 C142 1_555 1_555
C143 S31 1_555 1_555
H189 C143 1_555 1_555
H190 C143 1_555 1_555
C144 S32 1_555 1_555
H191 C144 1_555 1_555
H192 C144 1_555 1_555
C145 S32 1_555 1_555
H193 C145 1_555 1_555
H194 C145 1_555 1_555
C146 S33 1_555 1_555
H195 C146 1_555 1_555
H196 C146 1_555 1_555
C147 S33 1_555 1_555
H197 C147 1_555 1_555
H198 C147 1_555 1_555
C148 S30 1_555 1_555
H199 C148 1_555 1_555
H200 C148 1_555 1_555
S34 C149 1_555 1_555
S35 Ru8 1_555 1_555
S36 Ru8 1_555 1_555
S37 Ru8 1_555 1_555
C149 H201 1_555 1_555
H202 C149 1_555 1_555
C150 S35 1_555 1_555
H203 C150 1_555 1_555
H204 C150 1_555 1_555
C151 S35 1_555 1_555
H205 C151 1_555 1_555
H206 C151 1_555 1_555
C152 S36 1_555 1_555
H207 C152 1_555 1_555
H208 C152 1_555 1_555
C153 S36 1_555 1_555
H209 C153 1_555 1_555
H210 C153 1_555 1_555
C154 S37 1_555 1_555
H211 C154 1_555 1_555
H212 C154 1_555 1_555
C155 S37 1_555 1_555
H213 C155 1_555 1_555
H214 C155 1_555 1_555
C156 S34 1_555 1_555
H215 C156 1_555 1_555
H216 C156 1_555 1_555
S38 C157 1_555 1_555
S39 Ru9 1_555 1_555
C157 H217 1_555 1_555
H218 C157 1_555 1_555
C158 C157 1_555 1_555
H219 C158 1_555 1_555
H220 C158 1_555 1_555
S40 Ru9 1_555 1_555
C159 S40 1_555 1_555
H221 C159 1_555 1_555
H222 C159 1_555 1_555
C160 S39 1_555 1_555
H223 C160 1_555 1_555
H224 C160 1_555 1_555
S42 Ru9 1_555 1_555
C165 S39 1_555 1_555
H233 C165 1_555 1_555
H234 C165 1_555 1_555
C166 S42 1_555 1_555
H235 C166 1_555 1_555
H236 C166 1_555 1_555
C167 S42 1_555 1_555
H237 C167 1_555 1_555
H238 C167 1_555 1_555
C168 S38 1_555 1_555
H239 C168 1_555 1_555
H240 C168 1_555 1_555
S44 C173 1_555 1_555
S45 Ru10 1_555 1_555
C173 H249 1_555 1_555
H250 C173 1_555 1_555
C174 C173 1_555 1_555
H251 C174 1_555 1_555
H252 C174 1_555 1_555
S46 Ru10 1_555 1_555
C175 S46 1_555 1_555
H253 C175 1_555 1_555
H254 C175 1_555 1_555
C176 S45 1_555 1_555
H255 C176 1_555 1_555
H256 C176 1_555 1_555
C181 S45 1_555 1_555
H265 C181 1_555 1_555
H266 C181 1_555 1_555
C182 C181 1_555 1_555
H267 C182 1_555 1_555
H268 C182 1_555 1_555
S48 Ru10 1_555 1_555
C183 S48 1_555 1_555
H269 C183 1_555 1_555
H270 C183 1_555 1_555
C184 S44 1_555 1_555
H271 C184 1_555 1_555
H272 C184 1_555 1_555
S50 C189 1_555 1_555
S51 Ru11 1_555 1_555
C189 H281 1_555 1_555
H282 C189 1_555 1_555
C190 C189 1_555 1_555
H283 C190 1_555 1_555
H284 C190 1_555 1_555
S52 Ru11 1_555 1_555
C191 S52 1_555 1_555
H285 C191 1_555 1_555
H286 C191 1_555 1_555
C192 S51 1_555 1_555
H287 C192 1_555 1_555
H288 C192 1_555 1_555
C197 S51 1_555 1_555
H297 C197 1_555 1_555
H298 C197 1_555 1_555
C198 C197 1_555 1_555
H299 C198 1_555 1_555
H300 C198 1_555 1_555
S54 Ru11 1_555 1_555
C199 S54 1_555 1_555
H301 C199 1_555 1_555
H302 C199 1_555 1_555
C200 S50 1_555 1_555
H303 C200 1_555 1_555
H304 C200 1_555 1_555
S56 C205 1_555 1_555
S57 Ru12 1_555 1_555
C205 H313 1_555 1_555
H314 C205 1_555 1_555
C206 C205 1_555 1_555
H315 C206 1_555 1_555
H316 C206 1_555 1_555
S58 Ru12 1_555 1_555
C207 S58 1_555 1_555
H317 C207 1_555 1_555
H318 C207 1_555 1_555
C208 S57 1_555 1_555
H319 C208 1_555 1_555
H320 C208 1_555 1_555
C213 S57 1_555 1_555
H329 C213 1_555 1_555
H330 C213 1_555 1_555
C214 C213 1_555 1_555
H331 C214 1_555 1_555
H332 C214 1_555 1_555
S60 Ru12 1_555 1_555
C215 S60 1_555 1_555
H333 C215 1_555 1_555
H334 C215 1_555 1_555
C216 S56 1_555 1_555
H335 C216 1_555 1_555
H336 C216 1_555 1_555
N25 Ru7 1_555 1_555
C221 N25 1_555 1_555
H345 C221 1_555 1_555
C222 C221 1_555 1_555
H346 C222 1_555 1_555
C223 C222 1_555 1_555
C224 C223 1_555 1_555
H347 C224 1_555 1_555
C225 N25 1_555 1_555
H348 C225 1_555 1_555
N26 Ru8 1_555 1_555
C226 N26 1_555 1_555
H349 C226 1_555 1_555
C227 C226 1_555 1_555
H350 C227 1_555 1_555
C228 C227 1_555 1_555
C229 C228 1_555 1_555
H351 C229 1_555 1_555
C230 N26 1_555 1_555
H352 C230 1_555 1_555
N27 Ru9 1_555 1_555
C231 N27 1_555 1_555
H353 C231 1_555 1_555
C232 C231 1_555 1_555
H354 C232 1_555 1_555
C233 C232 1_555 1_555
C234 C233 1_555 1_555
H355 C234 1_555 1_555
C235 N27 1_555 1_555
H356 C235 1_555 1_555
C236 C223 1_555 1_555
N28 C236 1_555 1_555
C237 C228 1_555 1_555
N29 C237 1_555 1_555
C238 C233 1_555 1_555
N30 C236 1_555 1_555
N31 Ru7 1_555 1_555
C239 N31 1_555 1_555
H357 C239 1_555 1_555
C240 C239 1_555 1_555
H358 C240 1_555 1_555
C241 C240 1_555 1_555
C242 C241 1_555 1_555
H359 C242 1_555 1_555
C243 N31 1_555 1_555
H360 C243 1_555 1_555
N32 Ru10 1_555 1_555
C244 N32 1_555 1_555
H361 C244 1_555 1_555
C245 C244 1_555 1_555
H362 C245 1_555 1_555
C246 C245 1_555 1_555
C247 C246 1_555 1_555
H363 C247 1_555 1_555
C248 N32 1_555 1_555
H364 C248 1_555 1_555
N33 Ru11 1_555 1_555
C249 N33 1_555 1_555
H365 C249 1_555 1_555
C250 C249 1_555 1_555
H366 C250 1_555 1_555
C251 C250 1_555 1_555
C252 C251 1_555 1_555
H367 C252 1_555 1_555
C253 N33 1_555 1_555
H368 C253 1_555 1_555
C254 C241 1_555 1_555
N34 C254 1_555 1_555
C255 C246 1_555 1_555
N35 C255 1_555 1_555
C256 C251 1_555 1_555
N36 C254 1_555 1_555
N37 Ru12 1_555 1_555
C257 N37 1_555 1_555
H369 C257 1_555 1_555
C258 C257 1_555 1_555
H370 C258 1_555 1_555
C259 C258 1_555 1_555
C260 C259 1_555 1_555
H371 C260 1_555 1_555
C261 N37 1_555 1_555
H372 C261 1_555 1_555
N38 Ru10 1_555 1_555
C262 N38 1_555 1_555
H373 C262 1_555 1_555
C263 C262 1_555 1_555
H374 C263 1_555 1_555
C264 C263 1_555 1_555
C265 C264 1_555 1_555
H375 C265 1_555 1_555
C266 N38 1_555 1_555
H376 C266 1_555 1_555
N39 Ru9 1_555 1_555
C267 N39 1_555 1_555
H377 C267 1_555 1_555
C268 C267 1_555 1_555
H378 C268 1_555 1_555
C269 C268 1_555 1_555
C270 C269 1_555 1_555
H379 C270 1_555 1_555
C271 N39 1_555 1_555
H380 C271 1_555 1_555
C272 C259 1_555 1_555
N40 C272 1_555 1_555
C273 C264 1_555 1_555
N41 C273 1_555 1_555
C274 C269 1_555 1_555
N42 C272 1_555 1_555
N43 Ru12 1_555 1_555
C275 N43 1_555 1_555
H381 C275 1_555 1_555
C276 C275 1_555 1_555
H382 C276 1_555 1_555
C277 C276 1_555 1_555
C278 C277 1_555 1_555
H383 C278 1_555 1_555
C279 N43 1_555 1_555
H384 C279 1_555 1_555
N44 Ru8 1_555 1_555
C280 N44 1_555 1_555
H385 C280 1_555 1_555
C281 C280 1_555 1_555
H386 C281 1_555 1_555
C282 C281 1_555 1_555
C283 C282 1_555 1_555
H387 C283 1_555 1_555
C284 N44 1_555 1_555
H388 C284 1_555 1_555
N45 Ru11 1_555 1_555
C285 N45 1_555 1_555
H389 C285 1_555 1_555
C286 C285 1_555 1_555
H390 C286 1_555 1_555
C287 C286 1_555 1_555
C288 C287 1_555 1_555
H391 C288 1_555 1_555
C289 N45 1_555 1_555
H392 C289 1_555 1_555
C290 C277 1_555 1_555
N46 C290 1_555 1_555
C291 C282 1_555 1_555
N47 C291 1_555 1_555
C292 C287 1_555 1_555
N48 C290 1_555 1_555
N49 O1 1_555 1_555
O2 N49 1_555 1_555
O3 N49 1_555 1_555
C2 S4 1_555 1_555
C3 C4 1_555 1_555
C9 C10 1_555 1_555
C11 C12 1_555 1_555
C13 C14 1_555 1_555
C15 C16 1_555 1_555
C17 C18 1_555 1_555
C19 C20 1_555 1_555
C21 C22 1_555 1_555
C23 C24 1_555 1_555
C25 C26 1_555 1_555
C27 C28 1_555 1_555
C30 S16 1_555 1_555
C31 C32 1_555 1_555
C38 S18 1_555 1_555
C39 C40 1_555 1_555
C45 C46 1_555 1_555
C47 C48 1_555 1_555
C49 C50 1_555 1_555
C51 C52 1_555 1_555
C54 S26 1_555 1_555
C55 C56 1_555 1_555
C62 S28 1_555 1_555
C63 C64 1_555 1_555
C72 C73 1_555 1_555
C77 C78 1_555 1_555
C82 C83 1_555 1_555
N4 C85 1_555 1_555
N5 C86 1_555 1_555
C86 N6 1_555 1_555
C90 C91 1_555 1_555
C95 C96 1_555 1_555
C100 C101 1_555 1_555
N10 C103 1_555 1_555
N11 C104 1_555 1_555
C104 N12 1_555 1_555
C108 C109 1_555 1_555
C113 C114 1_555 1_555
C118 C119 1_555 1_555
N16 C121 1_555 1_555
N17 C122 1_555 1_555
C122 N18 1_555 1_555
C126 C127 1_555 1_555
C131 C132 1_555 1_555
C136 C137 1_555 1_555
N22 C139 1_555 1_555
N23 C140 1_555 1_555
C140 N24 1_555 1_555
C141 C142 1_555 1_555
C143 C144 1_555 1_555
C145 C146 1_555 1_555
C147 C148 1_555 1_555
C149 C150 1_555 1_555
C151 C152 1_555 1_555
C153 C154 1_555 1_555
C155 C156 1_555 1_555
C158 S40 1_555 1_555
C159 C160 1_555 1_555
C165 C166 1_555 1_555
C167 C168 1_555 1_555
C174 S46 1_555 1_555
C175 C176 1_555 1_555
C182 S48 1_555 1_555
C183 C184 1_555 1_555
C190 S52 1_555 1_555
C191 C192 1_555 1_555
C198 S54 1_555 1_555
C199 C200 1_555 1_555
C206 S58 1_555 1_555
C207 C208 1_555 1_555
C214 S60 1_555 1_555
C215 C216 1_555 1_555
C224 C225 1_555 1_555
C229 C230 1_555 1_555
C234 C235 1_555 1_555
N28 C237 1_555 1_555
N29 C238 1_555 1_555
C238 N30 1_555 1_555
C242 C243 1_555 1_555
C247 C248 1_555 1_555
C252 C253 1_555 1_555
N34 C255 1_555 1_555
N35 C256 1_555 1_555
C256 N36 1_555 1_555
C260 C261 1_555 1_555
C265 C266 1_555 1_555
C270 C271 1_555 1_555
N40 C273 1_555 1_555
N41 C274 1_555 1_555
C274 N42 1_555 1_555
C278 C279 1_555 1_555
C283 C284 1_555 1_555
C288 C289 1_555 1_555
N46 C291 1_555 1_555
N47 C292 1_555 1_555
C292 N48 1_555 1_555

#END
