
#######################################################################
#
#                 Cambridge Crystallographic Data Centre
#                                CCDC 
#
#######################################################################
#
# If this CIF has been generated from an entry in the Cambridge 
# Structural Database, then it will include bibliographic, chemical, 
# crystal, experimental, refinement or atomic coordinate data resulting 
# from the CCDC's data processing and validation procedures.
#
#######################################################################

data_JINJUM
_chemical_formula_moiety         
'C120 H144 N24 Ru6 S24 12+,12(N1 O3 1-),45.25(H2 O1),4(C10 H16 O1),C18 H12 N6'
_chemical_name_systematic        
"tetrakis(\m~3~-2,4,6-tris(4-Pyridyl)-1,3,5-triazine-N,N',N'')-hexakis(1,4,7,10-tetrathiacyclododecane-S,S',S'',S''')-hexa-ruthenium(ii) dodecanitrate tetrakis(adamantol) clathrate 2,4,6-tris(4-pyridyl)-1,3,5-triazine hydrate"
_symmetry_cell_setting           orthorhombic
_symmetry_space_group_name_H-M   'C c c 2'
_symmetry_Int_Tables_number      37
_space_group_name_Hall           'C 2 -2c'
loop_
_symmetry_equiv_pos_site_id
_symmetry_equiv_pos_as_xyz
1 x,y,z
2 -x,-y,z
3 x,-y,1/2+z
4 -x,y,1/2+z
5 1/2+x,1/2+y,z
6 1/2-x,1/2-y,z
7 1/2+x,1/2-y,1/2+z
8 1/2-x,1/2+y,1/2+z
_cell_length_a                   37.576(5)
_cell_length_b                   44.413(6)
_cell_length_c                   35.800(5)
_cell_angle_alpha                90
_cell_angle_beta                 90
_cell_angle_gamma                90
_cell_volume                     59745.3
_cell_formula_units_Z            8
loop_
_atom_site_label
_atom_site_type_symbol
_atom_site_fract_x
_atom_site_fract_y
_atom_site_fract_z
Ru1 Ru 1.115973(15) 0.099125(13) 0.104704(15)
Ru2 Ru 1.076448(15) 0.087060(13) 0.474563(16)
Ru3 Ru 0.79414(2) 0.06600(2) 0.24545(3)
Ru4 Ru 0.88322(3) 0.32140(2) 0.07906(2)
Ru5 Ru 1.167799(18) 0.347812(13) 0.30805(2)
Ru6 Ru 0.84745(2) 0.316932(16) 0.44768(2)
N1 N 1.08330(16) 0.08980(13) 0.15179(15)
C1 C 1.09591(19) 0.09470(18) 0.1867(2)
H1 H 1.1195 0.1008 0.1893
C2 C 1.0757(2) 0.09114(19) 0.2183(2)
H2 H 1.0853 0.0947 0.2418
C3 C 1.04028(19) 0.08206(15) 0.21441(19)
C4 C 1.0268(2) 0.07692(18) 0.1795(2)
H3 H 1.0032 0.0711 0.1762
C5 C 1.04998(19) 0.08071(17) 0.1485(2)
H4 H 1.0413 0.0766 0.1247
N2 N 1.05474(17) 0.08200(13) 0.41957(16)
C6 C 1.0198(2) 0.07841(17) 0.41420(19)
H5 H 1.0052 0.0773 0.4351
C7 C 1.0043(2) 0.07631(16) 0.3798(2)
H6 H 0.9798 0.0738 0.3775
C8 C 1.0258(2) 0.07803(16) 0.34798(19)
C9 C 1.0616(2) 0.08135(17) 0.3532(2)
H7 H 1.0767 0.0824 0.3327
C10 C 1.0754(2) 0.08323(18) 0.3890(2)
H8 H 1.0998 0.0854 0.3920
N3 N 0.8506(2) 0.06370(19) 0.2547(2)
C11 C 0.8733(2) 0.0663(2) 0.2259(3)
H9 H 0.8641 0.0672 0.2018
C12 C 0.9092(2) 0.06772(19) 0.2305(2)
H10 H 0.9239 0.0690 0.2097
C13 C 0.9242(2) 0.06719(17) 0.2664(2)
C14 C 0.9011(3) 0.0635(2) 0.2964(3)
H11 H 0.9099 0.0619 0.3207
C15 C 0.8651(3) 0.0621(3) 0.2895(3)
H12 H 0.8498 0.0599 0.3098
C16 C 1.0173(2) 0.07823(15) 0.2471(2)
N4 N 1.03256(17) 0.08053(13) 0.28127(16)
C17 C 1.0105(2) 0.07641(15) 0.31014(19)
N5 N 0.97547(18) 0.07154(13) 0.30709(17)
C18 C 0.9628(2) 0.07102(16) 0.2721(2)
N6 N 0.98254(17) 0.07364(14) 0.24141(17)
N7 N 1.10321(16) 0.14501(14) 0.11784(16)
C19 C 1.0735(2) 0.15766(18) 0.1042(2)
H13 H 1.0603 0.1469 0.0867
C20 C 1.0614(2) 0.18609(16) 0.1148(2)
H14 H 1.0408 0.1940 0.1044
C21 C 1.0808(2) 0.20244(17) 0.1412(2)
C22 C 1.1113(2) 0.18927(18) 0.1546(2)
H15 H 1.1251 0.1995 0.1721
C23 C 1.1217(2) 0.16071(18) 0.1424(2)
H16 H 1.1425 0.1524 0.1520
N8 N 0.9342(2) 0.30667(17) 0.0986(2)
C24 C 0.9551(3) 0.3228(2) 0.1222(3)
H17 H 0.9480 0.3423 0.1276
C25 C 0.9855(3) 0.3127(2) 0.1386(3)
H18 H 0.9989 0.3253 0.1538
C26 C 0.9961(2) 0.28273(19) 0.1318(2)
C27 C 0.9752(2) 0.26627(19) 0.1080(3)
H19 H 0.9815 0.2465 0.1026
C28 C 0.9454(3) 0.2781(2) 0.0920(3)
H20 H 0.9321 0.2661 0.0759
N9 N 1.13906(17) 0.32501(14) 0.26459(18)
C29 C 1.1482(2) 0.29776(18) 0.2531(3)
H21 H 1.1692 0.2896 0.2625
C30 C 1.1290(2) 0.28076(18) 0.2285(2)
H22 H 1.1370 0.2617 0.2218
C31 C 1.0980(2) 0.29186(18) 0.2138(2)
C32 C 1.0880(2) 0.3209(2) 0.2243(3)
H23 H 1.0678 0.3299 0.2143
C33 C 1.1092(2) 0.33615(19) 0.2499(3)
H24 H 1.1021 0.3553 0.2573
C34 C 1.0685(2) 0.23291(16) 0.1528(2)
N10 N 1.03858(19) 0.24269(15) 0.13746(19)
C35 C 1.0287(2) 0.27046(18) 0.1486(2)
N11 N 1.04667(19) 0.28737(15) 0.1733(2)
C36 C 1.0760(2) 0.27454(17) 0.1871(2)
N12 N 1.08801(18) 0.24714(14) 0.17821(17)
N13 N 0.90015(18) 0.29888(15) 0.44538(19)
C37 C 0.9087(2) 0.27070(19) 0.4563(2)
H25 H 0.8913 0.2590 0.4678
C38 C 0.9419(2) 0.25853(16) 0.4514(2)
H26 H 0.9463 0.2390 0.4597
C39 C 0.9683(2) 0.27409(17) 0.4347(2)
C40 C 0.9602(3) 0.3047(2) 0.4232(3)
H27 H 0.9774 0.3166 0.4117
C41 C 0.9270(3) 0.3153(2) 0.4294(3)
H28 H 0.9221 0.3351 0.4224
N14 N 1.06792(16) 0.13426(13) 0.46492(16)
C42 C 1.0927(2) 0.15168(17) 0.4473(2)
H29 H 1.1150 0.1436 0.4423
C43 C 1.0858(2) 0.18029(18) 0.4369(2)
H30 H 1.1034 0.1915 0.4251
C44 C 1.0525(2) 0.19326(17) 0.4436(2)
C45 C 1.0271(2) 0.17573(17) 0.4609(2)
H31 H 1.0045 0.1834 0.4657
C46 C 1.03571(19) 0.14664(17) 0.4708(2)
H32 H 1.0183 0.1349 0.4822
N15 N 1.13371(18) 0.32189(14) 0.34301(19)
C47 C 1.1013(3) 0.3313(2) 0.3511(3)
H33 H 1.0943 0.3499 0.3417
C48 C 1.0774(3) 0.3159(2) 0.3722(3)
H34 H 1.0555 0.3244 0.3783
C49 C 1.0864(2) 0.28676(17) 0.3846(2)
C50 C 1.1207(2) 0.27693(19) 0.3772(3)
H35 H 1.1287 0.2585 0.3863
C51 C 1.1424(2) 0.29500(19) 0.3564(3)
H36 H 1.1651 0.2879 0.3511
C52 C 1.0049(2) 0.26257(17) 0.4280(2)
N16 N 1.01090(17) 0.23399(13) 0.43861(17)
C53 C 1.0440(2) 0.22453(16) 0.4328(2)
N17 N 1.07011(17) 0.24086(14) 0.41563(19)
C54 C 1.0609(2) 0.26853(18) 0.4056(2)
N18 N 1.02790(18) 0.28019(15) 0.41153(19)
N19 N 0.84115(19) 0.29474(16) 0.3954(2)
C55 C 0.8421(3) 0.3095(2) 0.3628(3)
H37 H 0.8436 0.3304 0.3632
C56 C 0.8411(3) 0.2953(2) 0.3291(3)
H38 H 0.8421 0.3066 0.3073
C57 C 0.8386(2) 0.2645(2) 0.3270(3)
C58 C 0.8365(2) 0.2494(2) 0.3602(3)
H39 H 0.8335 0.2286 0.3600
C59 C 0.8388(2) 0.2645(2) 0.3945(3)
H40 H 0.8387 0.2536 0.4167
N20 N 0.8647(2) 0.29956(19) 0.1275(2)
C60 C 0.8528(3) 0.2712(3) 0.1271(3)
H41 H 0.8501 0.2618 0.1041
C61 C 0.8442(3) 0.2548(3) 0.1588(3)
H42 H 0.8360 0.2351 0.1567
C62 C 0.8477(3) 0.2675(2) 0.1924(3)
C63 C 0.8601(4) 0.2981(3) 0.1937(3)
H43 H 0.8630 0.3080 0.2163
C64 C 0.8674(3) 0.3120(3) 0.1607(3)
H44 H 0.8748 0.3320 0.1618
N21 N 0.8010(2) 0.11351(18) 0.2484(2)
C65 C 0.8049(3) 0.1276(3) 0.2816(3)
H45 H 0.8023 0.1163 0.3032
C66 C 0.8126(3) 0.1580(2) 0.2854(3)
H46 H 0.8140 0.1667 0.3090
C67 C 0.8180(2) 0.1749(2) 0.2545(3)
C68 C 0.8153(3) 0.1602(3) 0.2198(3)
H47 H 0.8189 0.1710 0.1979
C69 C 0.8074(2) 0.1301(2) 0.2179(3)
H48 H 0.8065 0.1209 0.1945
C70 C 0.8363(2) 0.2494(2) 0.2911(3)
N22 N 0.8424(2) 0.26606(19) 0.2597(2)
C71 C 0.8400(3) 0.2507(2) 0.2272(3)
N23 N 0.8315(2) 0.2222(2) 0.2238(2)
C72 C 0.8267(2) 0.2070(2) 0.2560(3)
N24 N 0.8288(2) 0.21969(18) 0.2907(2)
S1 S 1.07098(5) 0.09327(4) 0.05893(5)
S2 S 1.15122(6) 0.10987(5) 0.05411(6)
S3 S 1.17067(5) 0.09966(5) 0.13700(5)
S4 S 1.12463(6) 0.04839(4) 0.09852(5)
C73 C 1.0897(2) 0.1111(2) 0.0168(2)
H49 H 1.0971 0.0956 -0.0005
H50 H 1.0713 0.1230 0.0048
C74 C 1.1217(3) 0.1316(2) 0.0259(2)
H51 H 1.1140 0.1494 0.0393
H52 H 1.1335 0.1379 0.0031
C75 C 1.1829(3) 0.1357(2) 0.0748(3)
H53 H 1.1994 0.1431 0.0561
H54 H 1.1707 0.1527 0.0860
C76 C 1.2017(2) 0.1182(2) 0.1034(3)
H55 H 1.2176 0.1314 0.1171
H56 H 1.2160 0.1029 0.0913
C77 C 1.1850(2) 0.0602(2) 0.1350(3)
H57 H 1.2107 0.0593 0.1362
H58 H 1.1756 0.0496 0.1565
C78 C 1.1724(2) 0.0446(2) 0.0996(3)
H59 H 1.1791 0.0235 0.0999
H60 H 1.1830 0.0540 0.0777
C79 C 1.1116(2) 0.0406(2) 0.0510(2)
H61 H 1.1278 0.0502 0.0336
H62 H 1.1117 0.0191 0.0463
C80 C 1.0751(2) 0.05294(17) 0.0466(2)
H63 H 1.0590 0.0414 0.0623
H64 H 1.0676 0.0503 0.0209
S5 S 1.13733(5) 0.08802(5) 0.45788(6)
S6 S 1.09857(6) 0.09197(6) 0.53412(6)
S7 S 1.02185(5) 0.07975(4) 0.50682(5)
S8 S 1.08233(5) 0.03596(4) 0.47628(6)
C81 C 1.1602(2) 0.1039(2) 0.5000(3)
H65 H 1.1734 0.0880 0.5123
H66 H 1.1771 0.1191 0.4920
C82 C 1.1346(3) 0.1178(2) 0.5275(3)
H67 H 1.1257 0.1368 0.5180
H68 H 1.1465 0.1216 0.5511
C83 C 1.0637(2) 0.1125(2) 0.5573(2)
H69 H 1.0699 0.1161 0.5833
H70 H 1.0597 0.1317 0.5452
C84 C 1.0311(2) 0.09281(19) 0.55451(19)
H71 H 1.0107 0.1040 0.5636
H72 H 1.0342 0.0754 0.5706
C85 C 1.0208(2) 0.03892(16) 0.5124(2)
H73 H 1.0064 0.0341 0.5341
H74 H 1.0094 0.0301 0.4907
C86 C 1.0567(2) 0.02480(18) 0.5171(2)
H75 H 1.0547 0.0031 0.5184
H76 H 1.0680 0.0319 0.5398
C87 C 1.1287(2) 0.02977(18) 0.4893(3)
H77 H 1.1331 0.0365 0.5147
H78 H 1.1348 0.0086 0.4876
C88 C 1.1509(3) 0.0484(2) 0.4613(3)
H79 H 1.1489 0.0392 0.4368
H80 H 1.1757 0.0475 0.4686
S9 S 0.79552(8) 0.06278(8) 0.17869(9)
S10 S 0.79766(12) 0.01455(8) 0.24298(12)
S11 S 0.77764(7) 0.05871(6) 0.30880(9)
S12 S 0.73507(8) 0.07684(9) 0.23689(11)
C89 C 0.7959(4) 0.0225(3) 0.1698(5)
H81 H 0.7839 0.0189 0.1462
H82 H 0.8204 0.0161 0.1668
C90 C 0.7791(5) 0.0032(3) 0.1986(5)
H83 H 0.7842 -0.0179 0.1938
H84 H 0.7535 0.0059 0.1986
C91 C 0.7728(5) 0.0020(6) 0.2746(9)
H85 H 0.7766 -0.0195 0.2772
H86 H 0.7481 0.0051 0.2676
C92 C 0.7801(4) 0.0181(3) 0.3145(5)
H87 H 0.8035 0.0125 0.3236
H88 H 0.7626 0.0116 0.3326
C93 C 0.7288(3) 0.0645(3) 0.3085(4)
H89 H 0.7185 0.0520 0.3279
H90 H 0.7241 0.0853 0.3151
C94 C 0.7107(4) 0.0580(5) 0.2741(5)
H91 H 0.6864 0.0654 0.2751
H92 H 0.7101 0.0365 0.2697
C95 C 0.7225(4) 0.0602(5) 0.1976(6)
H93 H 0.6984 0.0661 0.1911
H94 H 0.7232 0.0384 0.2004
C96 C 0.7509(4) 0.0712(4) 0.1647(4)
H95 H 0.7484 0.0926 0.1605
H96 H 0.7455 0.0609 0.1414
S13 S 0.87388(8) 0.28015(7) 0.03833(7)
S14 S 0.82480(11) 0.33341(10) 0.06684(12)
S15 S 0.88810(10) 0.37006(7) 0.10546(11)
S16 S 0.90160(14) 0.34450(9) 0.02544(11)
C97 C 0.8269(4) 0.2851(4) 0.0231(4)
H97 H 0.8241 0.2760 -0.0014
H98 H 0.8116 0.2743 0.0402
C98 C 0.8148(4) 0.3164(4) 0.0210(4)
H99 H 0.7894 0.3173 0.0160
H100 H 0.8272 0.3271 0.0013
C99 C 0.8273(5) 0.3746(4) 0.0618(8)
H101 H 0.8404 0.3799 0.0394
H102 H 0.8036 0.3831 0.0600
C100 C 0.8454(5) 0.3863(4) 0.0948(6)
H103 H 0.8300 0.3833 0.1162
H104 H 0.8485 0.4078 0.0916
C101 C 0.9168(6) 0.3921(3) 0.0716(5)
H105 H 0.9022 0.4064 0.0579
H106 H 0.9348 0.4032 0.0852
C102 C 0.9344(5) 0.3703(4) 0.0445(5)
H107 H 0.9528 0.3590 0.0574
H108 H 0.9456 0.3814 0.0243
C103 C 0.9222(4) 0.3141(3) 0.0008(4)
H109 H 0.9299 0.3211 -0.0235
H110 H 0.9430 0.3075 0.0145
C104 C 0.8990(3) 0.2901(3) -0.0036(3)
H111 H 0.9125 0.2726 -0.0116
H112 H 0.8823 0.2949 -0.0234
S17 S 1.21679(6) 0.31410(5) 0.30832(8)
S18 S 1.20247(8) 0.37491(7) 0.26743(10)
S19 S 1.13160(6) 0.39157(4) 0.30710(7)
S20 S 1.19242(9) 0.36795(6) 0.36083(9)
C105 C 1.2442(3) 0.3267(3) 0.2688(4)
H113 H 1.2643 0.3381 0.2781
H114 H 1.2533 0.3092 0.2556
C106 C 1.2220(4) 0.3471(3) 0.2404(4)
H115 H 1.2040 0.3352 0.2278
H116 H 1.2376 0.3559 0.2218
C107 C 1.1718(4) 0.3950(4) 0.2427(4)
H117 H 1.1839 0.4076 0.2246
H118 H 1.1565 0.3812 0.2291
C108 C 1.1497(3) 0.4140(2) 0.2675(3)
H119 H 1.1302 0.4226 0.2533
H120 H 1.1640 0.4304 0.2772
C109 C 1.1476(3) 0.4134(2) 0.3474(3)
H121 H 1.1444 0.4347 0.3424
H122 H 1.1334 0.4084 0.3691
C110 C 1.1853(4) 0.4077(3) 0.3559(5)
H123 H 1.1919 0.4179 0.3788
H124 H 1.2001 0.4155 0.3358
C111 C 1.2394(3) 0.3609(3) 0.3558(4)
H125 H 1.2491 0.3726 0.3353
H126 H 1.2520 0.3662 0.3785
C112 C 1.2426(3) 0.3280(3) 0.3480(4)
H127 H 1.2353 0.3171 0.3701
H128 H 1.2675 0.3235 0.3435
S21 S 0.86385(7) 0.36481(6) 0.42394(8)
S22 S 0.82320(7) 0.27753(6) 0.48422(7)
C113 C 0.8208(3) 0.3844(3) 0.4196(4)
H129 H 0.8247 0.4059 0.4223
H130 H 0.8113 0.3809 0.3948
C114 C 0.7937(3) 0.3745(3) 0.4480(4)
H131 H 0.7710 0.3842 0.4436
H132 H 0.8016 0.3793 0.4731
S23 S 0.79003(7) 0.33461(7) 0.44205(8)
C115 C 0.7681(3) 0.3209(3) 0.4843(3)
H133 H 0.7778 0.3306 0.5063
H134 H 0.7427 0.3246 0.4833
C116 C 0.7759(3) 0.2864(2) 0.4848(3)
H135 H 0.7647 0.2772 0.4632
H136 H 0.7653 0.2777 0.5070
C117 C 0.8355(7) 0.2889(4) 0.5326(4)
H137 H 0.8153 0.2987 0.5443
H138 H 0.8413 0.2711 0.5471
C118 C 0.8668(4) 0.3100(3) 0.5325(4)
H139 H 0.8877 0.3002 0.5222
H140 H 0.8722 0.3169 0.5576
S24 S 0.85281(14) 0.34172(10) 0.50274(12)
C119 C 0.8929(4) 0.3634(3) 0.4945(5)
H141 H 0.8987 0.3751 0.5166
H142 H 0.9127 0.3499 0.4894
C120 C 0.8875(5) 0.3841(4) 0.4620(4)
H143 H 0.9104 0.3911 0.4530
H144 H 0.8738 0.4015 0.4699
O1 O 0.8820(3) 0.1349(3) 0.4295(3)
C125 C 0.9014(3) 0.1503(3) 0.4003(3)
C126 C 0.8903(4) 0.1376(3) 0.3646(3)
H153 H 0.8650 0.1409 0.3613
H154 H 0.8946 0.1161 0.3647
C127 C 0.8962(4) 0.1827(3) 0.4010(4)
H155 H 0.9032 0.1906 0.4252
H156 H 0.8712 0.1873 0.3973
C128 C 0.9412(3) 0.1432(3) 0.4054(3)
H157 H 0.9494 0.1516 0.4290
H158 H 0.9445 0.1216 0.4063
C129 C 0.9103(4) 0.1517(3) 0.3319(3)
H159 H 0.9020 0.1438 0.3079
C130 C 0.9050(4) 0.1856(3) 0.3344(4)
H160 H 0.9177 0.1953 0.3141
H161 H 0.8799 0.1903 0.3318
C131 C 0.9182(4) 0.1974(2) 0.3705(5)
H162 H 0.9144 0.2193 0.3712
C132 C 0.9576(4) 0.1909(3) 0.3762(5)
H163 H 0.9653 0.1984 0.4003
H164 H 0.9716 0.2006 0.3569
C133 C 0.9625(3) 0.1560(3) 0.3743(4)
H165 H 0.9876 0.1510 0.3780
C134 C 0.9510(4) 0.1446(4) 0.3385(4)
H166 H 0.9547 0.1230 0.3375
H167 H 0.9650 0.1538 0.3188
O2 O 1.1569(3) 0.1762(4) 0.2903(4)
C135 C 1.1202(4) 0.1819(4) 0.2938(6)
C136 C 1.1042(7) 0.1595(6) 0.2709(8)
H168 H 1.1117 0.1397 0.2788
H169 H 1.1114 0.1624 0.2451
C137 C 1.1056(6) 0.1788(7) 0.3314(6)
H170 H 1.1197 0.1909 0.3486
H171 H 1.1074 0.1580 0.3392
C138 C 1.1122(6) 0.2106(6) 0.2746(9)
H172 H 1.1200 0.2097 0.2488
H173 H 1.1243 0.2272 0.2868
C139 C 1.0581(4) 0.1628(4) 0.2748(6)
H174 H 1.0453 0.1464 0.2624
C140 C 1.0528(6) 0.1632(5) 0.3168(6)
H175 H 1.0281 0.1586 0.3221
H176 H 1.0672 0.1474 0.3278
C141 C 1.0613(6) 0.1902(5) 0.3341(5)
H177 H 1.0523 0.1919 0.3597
C142 C 1.0605(5) 0.2168(4) 0.3143(5)
H178 H 1.0768 0.2308 0.3261
H179 H 1.0368 0.2253 0.3166
C143 C 1.0688(5) 0.2152(5) 0.2768(7)
H180 H 1.0627 0.2344 0.2650
C144 C 1.0532(8) 0.1921(5) 0.2563(7)
H181 H 1.0638 0.1914 0.2316
H182 H 1.0280 0.1961 0.2535
O3 O 0.9052(4) 0.1600(4) 0.1140(3)
C145 C 0.9236(4) 0.1665(4) 0.1485(3)
C146 C 0.9189(7) 0.1980(4) 0.1584(5)
H183 H 0.8937 0.2025 0.1597
H184 H 0.9294 0.2105 0.1392
C147 C 0.9089(6) 0.1471(5) 0.1772(5)
H185 H 0.9111 0.1263 0.1696
H186 H 0.8838 0.1515 0.1803
C148 C 0.9632(5) 0.1609(6) 0.1436(5)
H187 H 0.9672 0.1403 0.1356
H188 H 0.9726 0.1742 0.1244
C149 C 0.9361(7) 0.2051(4) 0.1958(5)
H189 H 0.9324 0.2261 0.2031
C150 C 0.9216(5) 0.1833(5) 0.2251(5)
H190 H 0.9330 0.1873 0.2490
H191 H 0.8962 0.1866 0.2281
C151 C 0.9280(5) 0.1517(4) 0.2143(4)
H192 H 0.9178 0.1383 0.2332
C152 C 0.9673(5) 0.1450(4) 0.2100(6)
H193 H 0.9707 0.1243 0.2023
H194 H 0.9794 0.1480 0.2336
C153 C 0.9824(4) 0.1665(5) 0.1802(4)
H195 H 1.0079 0.1627 0.1770
C154 C 0.9772(6) 0.1975(6) 0.1912(6)
H196 H 0.9874 0.2106 0.1725
H197 H 0.9893 0.2011 0.2146
O5 O 0.8342(5) 0.1745(5) 0.1212(5)
O6 O 0.8564(9) 0.2058(9) 0.0858(8)
O7 O 0.9505(12) 0.3546(5) 0.2969(10)
C165 C 0.9589(8) 0.3235(5) 0.2900(7)
C166 C 0.9594(9) 0.3164(6) 0.2506(7)
H213 H 0.9763 0.3295 0.2382
H214 H 0.9360 0.3204 0.2402
C167 C 0.9932(8) 0.3167(5) 0.3053(9)
H215 H 0.9937 0.3226 0.3314
H216 H 1.0112 0.3283 0.2922
C168 C 0.9292(8) 0.3048(6) 0.3071(10)
H217 H 0.9272 0.3091 0.3336
H218 H 0.9067 0.3097 0.2953
C169 C 0.9693(7) 0.2840(6) 0.2424(7)
H219 H 0.9704 0.2799 0.2156
C170 C 1.0042(6) 0.2770(7) 0.2617(7)
H220 H 1.0102 0.2560 0.2579
H221 H 1.0230 0.2891 0.2508
C171 C 1.0021(7) 0.2832(6) 0.3022(7)
H222 H 1.0251 0.2790 0.3141
C172 C 0.9726(8) 0.2657(7) 0.3215(7)
H223 H 0.9710 0.2717 0.3475
H224 H 0.9778 0.2443 0.3206
C173 C 0.9374(7) 0.2721(6) 0.3016(9)
H225 H 0.9185 0.2601 0.3133
C174 C 0.9395(7) 0.2642(6) 0.2625(8)
H226 H 0.9167 0.2677 0.2506
H227 H 0.9453 0.2430 0.2600
N25 N 1.1263(4) 0.0177(2) 0.1916(3)
C185 C 1.1214(5) 0.0245(3) 0.2264(4)
H243 H 1.1406 0.0339 0.2380
C186 C 1.0923(4) 0.0199(3) 0.2486(3)
H244 H 1.0924 0.0243 0.2740
C187 C 1.0625(4) 0.0083(2) 0.2309(3)
C188 C 1.0655(4) 0.0018(2) 0.1935(3)
H245 H 1.0461 -0.0060 0.1805
C189 C 1.0965(5) 0.0066(3) 0.1755(4)
H246 H 1.0975 0.0019 0.1502
N26 N 1.0000 0.0000 0.4253(4)
C190 C 1.0297(5) -0.0014(2) 0.4058(3)
H247 H 1.0511 -0.0022 0.4188
C191 C 1.0310(4) -0.0016(2) 0.3680(3)
H248 H 1.0527 -0.0029 0.3556
C192 C 1.0000 0.0000 0.3483(4)
C193 C 1.0000 0.0000 0.3063(4)
N27 N 1.0306(3) 0.00434(17) 0.2889(2)
C194 C 1.0299(4) 0.0039(2) 0.2514(3)
N28 N 1.0000 0.0000 0.2313(3)
N25A N 0.8737(4) -0.0177(2) 0.1916(3)
C185A C 0.8786(5) -0.0245(3) 0.2264(4)
H243A H 0.8594 -0.0339 0.2380
C186A C 0.9077(4) -0.0199(3) 0.2486(3)
H244A H 0.9076 -0.0243 0.2740
C187A C 0.9375(4) -0.0083(2) 0.2309(3)
C188A C 0.9345(4) -0.0018(2) 0.1935(3)
H245A H 0.9539 0.0060 0.1805
C189A C 0.9035(5) -0.0066(3) 0.1755(4)
H246A H 0.9025 -0.0019 0.1502
C190A C 0.9703(5) 0.0014(2) 0.4058(3)
H247A H 0.9489 0.0022 0.4188
C191A C 0.9690(4) 0.0016(2) 0.3680(3)
H248A H 0.9473 0.0029 0.3556
N27A N 0.9694(3) -0.00434(17) 0.2889(2)
C194A C 0.9701(4) -0.0039(2) 0.2514(3)
N29 N 0.7805(5) 0.3558(4) 0.1627(6)
C195 C 0.7638(4) 0.3321(5) 0.1444(4)
H249 H 0.7580 0.3338 0.1193
C196 C 0.7559(3) 0.3058(4) 0.1637(5)
H250 H 0.7447 0.2899 0.1515
C197 C 0.7646(3) 0.3032(4) 0.2013(5)
C198 C 0.7813(4) 0.3269(5) 0.2196(4)
H251 H 0.7872 0.3251 0.2447
C199 C 0.7893(5) 0.3532(4) 0.2003(6)
H252 H 0.8004 0.3690 0.2126
N30 N 0.7500 0.2500 0.3981(7)
C200 C 0.7487(4) 0.2765(5) 0.3789(6)
H253 H 0.7476 0.2944 0.3921
C201 C 0.7490(4) 0.2774(5) 0.3406(6)
H254 H 0.7485 0.2959 0.3284
C202 C 0.7500 0.2500 0.3193(7)
C203 C 0.7500 0.2500 0.2732(8)
N31 N 0.7570(3) 0.2773(4) 0.2593(6)
C204 C 0.7554(4) 0.2738(5) 0.2197(5)
N32 N 0.7500 0.2500 0.2001(6)
N29E N 0.7195(5) 0.1442(4) 0.1627(6)
C195E C 0.7362(4) 0.1679(5) 0.1444(4)
H249E H 0.7420 0.1662 0.1193
C196E C 0.7441(3) 0.1942(4) 0.1637(5)
H250E H 0.7553 0.2101 0.1515
C197E C 0.7354(3) 0.1968(4) 0.2013(5)
C198E C 0.7187(4) 0.1731(5) 0.2196(4)
H251E H 0.7128 0.1749 0.2447
C199E C 0.7107(5) 0.1468(4) 0.2003(6)
H252E H 0.6996 0.1310 0.2126
C200E C 0.7513(4) 0.2235(5) 0.3789(6)
H253E H 0.7524 0.2056 0.3921
C201E C 0.7510(4) 0.2226(5) 0.3406(6)
H254E H 0.7515 0.2041 0.3284
N31E N 0.7430(3) 0.2227(4) 0.2593(6)
C204E C 0.7446(4) 0.2262(5) 0.2197(5)
N33 N 0.9399(3) 0.2064(3) 0.0380(3)
O9 O 0.9398(4) 0.2310(2) 0.0185(3)
O10 O 0.9139(4) 0.1871(3) 0.0366(4)
O11 O 0.9670(4) 0.2013(2) 0.0567(3)
N34 N 0.9197(3) 0.0549(2) 0.4426(2)
O12 O 0.8963(2) 0.04053(18) 0.45911(19)
O13 O 0.9162(4) 0.0635(3) 0.4099(3)
O14 O 0.94852(19) 0.0604(2) 0.4570(2)
N36 N 0.8346(5) 0.1994(7) 0.4725(7)
O19 O 0.8235(6) 0.1860(6) 0.5026(7)
O20 O 0.8655(6) 0.2118(8) 0.4740(12)
O21 O 0.8182(9) 0.2000(11) 0.4430(8)
N37 N 0.8598(3) 0.0521(3) 0.1015(3)
O23 O 0.8739(2) 0.0687(2) 0.1254(3)
O24 O 0.8307(3) 0.0619(3) 0.0853(3)
O25 O 0.8756(3) 0.02851(17) 0.0912(2)
N38 N 1.1436(5) 0.3642(5) 0.4421(4)
O26 O 1.1735(5) 0.3720(5) 0.4574(4)
O27 O 1.1224(7) 0.3854(6) 0.4334(6)
O28 O 1.1365(5) 0.3380(4) 0.4354(3)
N39 N 0.7525(5) 0.1384(5) 0.3544(5)
O29 O 0.7479(6) 0.1140(4) 0.3723(5)
O30 O 0.7803(5) 0.1528(7) 0.3647(6)
O31 O 0.7318(5) 0.1485(5) 0.3305(5)
N41 N 0.8619(9) 0.3794(7) 0.2222(11)
O35 O 0.8629(8) 0.3598(6) 0.2501(9)
O36 O 0.8892(10) 0.3761(8) 0.2011(10)
O37 O 0.8531(9) 0.4060(7) 0.2229(14)
N42 N 1.2118(8) 0.0874(5) 0.2213(6)
O38 O 1.1837(8) 0.1001(7) 0.2356(6)
O39 O 1.2195(11) 0.0626(5) 0.2364(8)
O40 O 1.2337(5) 0.0970(4) 0.1990(7)
O41 O 0.9473(2) 0.06327(18) 0.1385(2)
O42 O 0.9851(3) 0.15560(18) 0.5407(2)
O43 O 0.9380(3) 0.1901(2) 0.5018(3)
O44 O 0.8094(4) 0.1482(4) 0.4316(5)
O45 O 0.8296(4) 0.3773(3) 0.3222(4)
O46 O 1.1753(3) 0.1531(3) 0.4120(4)
O48 O 1.0890(5) 0.2491(3) 0.0625(6)
O49 O 0.8530(4) 0.0424(6) 0.3743(3)
O51 O 0.7946(4) 0.0288(5) 0.0405(5)
O52 O 0.9793(5) 0.2386(4) 0.5322(4)
O53 O 1.1831(5) 0.1309(5) 0.3276(9)
O54 O 0.7908(4) 0.1133(4) 0.4833(6)
O56 O 1.1964(3) 0.2309(3) 0.3026(9)
O57 O 1.2147(4) 0.2482(4) 0.3745(8)
O58 O 1.2035(5) 0.3089(5) 0.4305(4)
O59 O 0.7313(6) 0.1114(6) 0.5405(6)
O61 O 0.9540(6) 0.3781(4) 0.3907(9)
O63 O 1.1486(4) 0.2060(6) 0.5015(7)
O64 O 0.7846(7) 0.0725(9) 0.4026(4)
O65 O 1.2385(5) 0.1520(7) 0.4548(5)
O66 O 1.1696(5) 0.2129(6) 0.3998(10)
O67 O 1.2408(6) 0.0625(5) 0.3195(8)
O68 O 0.7746(8) 0.1582(8) 0.0273(7)
O70 O 0.8595(6) 0.4318(6) 0.3470(7)
O71 O 1.1204(6) 0.2910(6) 0.1206(6)
O73 O 1.2156(7) 0.2492(6) 0.2396(12)
O74 O 0.8713(9) 0.4339(10) 0.1631(13)
O76 O 0.9194(7) 0.4302(4) 0.3884(8)
O79 O 1.2383(9) 0.0885(7) 0.4461(9)
O80 O 1.0880(13) 0.3949(7) 0.1965(13)
O81 O 1.1797(5) 0.1569(5) 0.2139(6)
O82 O 1.2088(10) 0.1782(11) 0.1756(8)
O83 O 0.7312(6) 0.3773(5) 0.0720(9)
O84 O 0.8211(6) 0.1208(3) 0.1263(3)
O85 O 1.2198(7) 0.0560(11) 0.3903(9)
O88 O 0.7721(11) 0.4399(8) 0.0614(11)
O90 O 1.0282(13) 0.3722(5) 0.1865(11)
O92 O 0.7615(11) 0.2996(17) 0.5802(10)
O96 O 1.0938(17) 0.3470(10) 0.1267(12)
O97 O 1.1817(9) 0.2623(13) 0.1439(11)
O98 O 0.7865(8) 0.3521(10) 0.5762(6)
O99 O 0.6809(9) 0.0161(13) 0.3722(15)
O102 O 0.8160(10) 0.4668(6) 0.1071(9)
O103 O 1.1881(10) 0.2254(11) 0.1169(11)
O104 O 1.1629(8) 0.3425(7) 0.1662(9)
O106 O 0.8001(9) 0.0181(10) 0.4198(10)
O108 O 0.9179(17) 0.4622(11) 0.4550(18)
O109 O 0.965(2) 0.4496(14) 0.272(2)
O110 O 1.0537(12) 0.3886(10) 0.257(2)
O111 O 1.0200(11) 0.3732(9) 0.365(2)
O112 O 0.8789(12) 0.4354(9) 0.0121(12)
O114 O 0.8911(9) 0.4628(9) 0.2822(9)
O115 O 0.9741(12) 0.3886(7) 0.1561(18)
O116 O 0.7630(17) 0.3171(11) 0.639(2)
O119 O 1.1803(16) 0.2182(11) 0.204(2)
O120 O 1.1759(14) 0.2443(11) 0.4429(13)
O121 O 0.8492(17) 0.4462(14) -0.0568(18)
O123 O 1.2287(17) 0.2302(11) 0.0764(16)
loop_
_geom_bond_atom_site_label_1
_geom_bond_atom_site_label_2
_geom_bond_site_symmetry_1
_geom_bond_site_symmetry_2
Ru1 N1 1_555 1_555
Ru2 N2 1_555 1_555
Ru3 N3 1_555 1_555
Ru4 N8 1_555 1_555
Ru5 N9 1_555 1_555
Ru6 N13 1_555 1_555
N1 C1 1_555 1_555
C1 H1 1_555 1_555
C2 C1 1_555 1_555
H2 C2 1_555 1_555
C3 C2 1_555 1_555
C4 C3 1_555 1_555
H3 C4 1_555 1_555
C5 N1 1_555 1_555
H4 C5 1_555 1_555
N2 C6 1_555 1_555
C6 H5 1_555 1_555
C7 C6 1_555 1_555
H6 C7 1_555 1_555
C8 C7 1_555 1_555
C9 C8 1_555 1_555
H7 C9 1_555 1_555
C10 N2 1_555 1_555
H8 C10 1_555 1_555
N3 C11 1_555 1_555
C11 H9 1_555 1_555
C12 C11 1_555 1_555
H10 C12 1_555 1_555
C13 C12 1_555 1_555
C14 C13 1_555 1_555
H11 C14 1_555 1_555
C15 N3 1_555 1_555
H12 C15 1_555 1_555
C16 C3 1_555 1_555
N4 C16 1_555 1_555
C17 C8 1_555 1_555
N5 C17 1_555 1_555
C18 C13 1_555 1_555
N6 C16 1_555 1_555
N7 Ru1 1_555 1_555
C19 N7 1_555 1_555
H13 C19 1_555 1_555
C20 C19 1_555 1_555
H14 C20 1_555 1_555
C21 C20 1_555 1_555
C22 C21 1_555 1_555
H15 C22 1_555 1_555
C23 N7 1_555 1_555
H16 C23 1_555 1_555
N8 C24 1_555 1_555
C24 H17 1_555 1_555
C25 C24 1_555 1_555
H18 C25 1_555 1_555
C26 C25 1_555 1_555
C27 C26 1_555 1_555
H19 C27 1_555 1_555
C28 N8 1_555 1_555
H20 C28 1_555 1_555
N9 C29 1_555 1_555
C29 H21 1_555 1_555
C30 C29 1_555 1_555
H22 C30 1_555 1_555
C31 C30 1_555 1_555
C32 C31 1_555 1_555
H23 C32 1_555 1_555
C33 N9 1_555 1_555
H24 C33 1_555 1_555
C34 C21 1_555 1_555
N10 C34 1_555 1_555
C35 C26 1_555 1_555
N11 C35 1_555 1_555
C36 C31 1_555 1_555
N12 C34 1_555 1_555
N13 C37 1_555 1_555
C37 H25 1_555 1_555
C38 C37 1_555 1_555
H26 C38 1_555 1_555
C39 C38 1_555 1_555
C40 C39 1_555 1_555
H27 C40 1_555 1_555
C41 N13 1_555 1_555
H28 C41 1_555 1_555
N14 Ru2 1_555 1_555
C42 N14 1_555 1_555
H29 C42 1_555 1_555
C43 C42 1_555 1_555
H30 C43 1_555 1_555
C44 C43 1_555 1_555
C45 C44 1_555 1_555
H31 C45 1_555 1_555
C46 N14 1_555 1_555
H32 C46 1_555 1_555
N15 Ru5 1_555 1_555
C47 N15 1_555 1_555
H33 C47 1_555 1_555
C48 C47 1_555 1_555
H34 C48 1_555 1_555
C49 C48 1_555 1_555
C50 C49 1_555 1_555
H35 C50 1_555 1_555
C51 N15 1_555 1_555
H36 C51 1_555 1_555
C52 C39 1_555 1_555
N16 C52 1_555 1_555
C53 C44 1_555 1_555
N17 C53 1_555 1_555
C54 C49 1_555 1_555
N18 C52 1_555 1_555
N19 Ru6 1_555 1_555
C55 N19 1_555 1_555
H37 C55 1_555 1_555
C56 C55 1_555 1_555
H38 C56 1_555 1_555
C57 C56 1_555 1_555
C58 C57 1_555 1_555
H39 C58 1_555 1_555
C59 N19 1_555 1_555
H40 C59 1_555 1_555
N20 Ru4 1_555 1_555
C60 N20 1_555 1_555
H41 C60 1_555 1_555
C61 C60 1_555 1_555
H42 C61 1_555 1_555
C62 C61 1_555 1_555
C63 C62 1_555 1_555
H43 C63 1_555 1_555
C64 N20 1_555 1_555
H44 C64 1_555 1_555
N21 Ru3 1_555 1_555
C65 N21 1_555 1_555
H45 C65 1_555 1_555
C66 C65 1_555 1_555
H46 C66 1_555 1_555
C67 C66 1_555 1_555
C68 C67 1_555 1_555
H47 C68 1_555 1_555
C69 N21 1_555 1_555
H48 C69 1_555 1_555
C70 C57 1_555 1_555
N22 C70 1_555 1_555
C71 C62 1_555 1_555
N23 C71 1_555 1_555
C72 C67 1_555 1_555
N24 C70 1_555 1_555
S1 Ru1 1_555 1_555
S2 Ru1 1_555 1_555
S3 Ru1 1_555 1_555
S4 Ru1 1_555 1_555
C73 S1 1_555 1_555
H49 C73 1_555 1_555
H50 C73 1_555 1_555
C74 S2 1_555 1_555
H51 C74 1_555 1_555
H52 C74 1_555 1_555
C75 S2 1_555 1_555
H53 C75 1_555 1_555
H54 C75 1_555 1_555
C76 S3 1_555 1_555
H55 C76 1_555 1_555
H56 C76 1_555 1_555
C77 S3 1_555 1_555
H57 C77 1_555 1_555
H58 C77 1_555 1_555
C78 S4 1_555 1_555
H59 C78 1_555 1_555
H60 C78 1_555 1_555
C79 S4 1_555 1_555
H61 C79 1_555 1_555
H62 C79 1_555 1_555
C80 S1 1_555 1_555
H63 C80 1_555 1_555
H64 C80 1_555 1_555
S5 Ru2 1_555 1_555
S6 Ru2 1_555 1_555
S7 Ru2 1_555 1_555
S8 Ru2 1_555 1_555
C81 S5 1_555 1_555
H65 C81 1_555 1_555
H66 C81 1_555 1_555
C82 S6 1_555 1_555
H67 C82 1_555 1_555
H68 C82 1_555 1_555
C83 S6 1_555 1_555
H69 C83 1_555 1_555
H70 C83 1_555 1_555
C84 S7 1_555 1_555
H71 C84 1_555 1_555
H72 C84 1_555 1_555
C85 S7 1_555 1_555
H73 C85 1_555 1_555
H74 C85 1_555 1_555
C86 S8 1_555 1_555
H75 C86 1_555 1_555
H76 C86 1_555 1_555
C87 S8 1_555 1_555
H77 C87 1_555 1_555
H78 C87 1_555 1_555
C88 S5 1_555 1_555
H79 C88 1_555 1_555
H80 C88 1_555 1_555
S9 Ru3 1_555 1_555
S10 Ru3 1_555 1_555
S11 Ru3 1_555 1_555
S12 Ru3 1_555 1_555
C89 S9 1_555 1_555
H81 C89 1_555 1_555
H82 C89 1_555 1_555
C90 S10 1_555 1_555
H83 C90 1_555 1_555
H84 C90 1_555 1_555
C91 S10 1_555 1_555
H85 C91 1_555 1_555
H86 C91 1_555 1_555
C92 S11 1_555 1_555
H87 C92 1_555 1_555
H88 C92 1_555 1_555
C93 S11 1_555 1_555
H89 C93 1_555 1_555
H90 C93 1_555 1_555
C94 S12 1_555 1_555
H91 C94 1_555 1_555
H92 C94 1_555 1_555
C95 S12 1_555 1_555
H93 C95 1_555 1_555
H94 C95 1_555 1_555
C96 S9 1_555 1_555
H95 C96 1_555 1_555
H96 C96 1_555 1_555
S13 Ru4 1_555 1_555
S14 Ru4 1_555 1_555
S15 Ru4 1_555 1_555
S16 Ru4 1_555 1_555
C97 S13 1_555 1_555
H97 C97 1_555 1_555
H98 C97 1_555 1_555
C98 S14 1_555 1_555
H99 C98 1_555 1_555
H100 C98 1_555 1_555
C99 S14 1_555 1_555
H101 C99 1_555 1_555
H102 C99 1_555 1_555
C100 S15 1_555 1_555
H103 C100 1_555 1_555
H104 C100 1_555 1_555
C101 S15 1_555 1_555
H105 C101 1_555 1_555
H106 C101 1_555 1_555
C102 S16 1_555 1_555
H107 C102 1_555 1_555
H108 C102 1_555 1_555
C103 S16 1_555 1_555
H109 C103 1_555 1_555
H110 C103 1_555 1_555
C104 S13 1_555 1_555
H111 C104 1_555 1_555
H112 C104 1_555 1_555
S17 Ru5 1_555 1_555
S18 Ru5 1_555 1_555
S19 Ru5 1_555 1_555
S20 Ru5 1_555 1_555
C105 S17 1_555 1_555
H113 C105 1_555 1_555
H114 C105 1_555 1_555
C106 S18 1_555 1_555
H115 C106 1_555 1_555
H116 C106 1_555 1_555
C107 S18 1_555 1_555
H117 C107 1_555 1_555
H118 C107 1_555 1_555
C108 S19 1_555 1_555
H119 C108 1_555 1_555
H120 C108 1_555 1_555
C109 S19 1_555 1_555
H121 C109 1_555 1_555
H122 C109 1_555 1_555
C110 S20 1_555 1_555
H123 C110 1_555 1_555
H124 C110 1_555 1_555
C111 S20 1_555 1_555
H125 C111 1_555 1_555
H126 C111 1_555 1_555
C112 S17 1_555 1_555
H127 C112 1_555 1_555
H128 C112 1_555 1_555
S21 Ru6 1_555 1_555
S22 Ru6 1_555 1_555
C113 S21 1_555 1_555
H129 C113 1_555 1_555
H130 C113 1_555 1_555
C114 C113 1_555 1_555
H131 C114 1_555 1_555
H132 C114 1_555 1_555
S23 Ru6 1_555 1_555
C115 S23 1_555 1_555
H133 C115 1_555 1_555
H134 C115 1_555 1_555
C116 S22 1_555 1_555
H135 C116 1_555 1_555
H136 C116 1_555 1_555
C117 S22 1_555 1_555
H137 C117 1_555 1_555
H138 C117 1_555 1_555
C118 C117 1_555 1_555
H139 C118 1_555 1_555
H140 C118 1_555 1_555
S24 Ru6 1_555 1_555
C119 S24 1_555 1_555
H141 C119 1_555 1_555
H142 C119 1_555 1_555
C120 S21 1_555 1_555
H143 C120 1_555 1_555
H144 C120 1_555 1_555
O1 C125 1_555 1_555
C125 C126 1_555 1_555
C126 H153 1_555 1_555
H154 C126 1_555 1_555
C127 C125 1_555 1_555
H155 C127 1_555 1_555
H156 C127 1_555 1_555
C128 C125 1_555 1_555
H157 C128 1_555 1_555
H158 C128 1_555 1_555
C129 C126 1_555 1_555
H159 C129 1_555 1_555
C130 C129 1_555 1_555
H160 C130 1_555 1_555
H161 C130 1_555 1_555
C131 C127 1_555 1_555
H162 C131 1_555 1_555
C132 C131 1_555 1_555
H163 C132 1_555 1_555
H164 C132 1_555 1_555
C133 C128 1_555 1_555
H165 C133 1_555 1_555
C134 C129 1_555 1_555
H166 C134 1_555 1_555
H167 C134 1_555 1_555
O2 C135 1_555 1_555
C135 C136 1_555 1_555
C136 H168 1_555 1_555
H169 C136 1_555 1_555
C137 C135 1_555 1_555
H170 C137 1_555 1_555
H171 C137 1_555 1_555
C138 C135 1_555 1_555
H172 C138 1_555 1_555
H173 C138 1_555 1_555
C139 C136 1_555 1_555
H174 C139 1_555 1_555
C140 C139 1_555 1_555
H175 C140 1_555 1_555
H176 C140 1_555 1_555
C141 C137 1_555 1_555
H177 C141 1_555 1_555
C142 C141 1_555 1_555
H178 C142 1_555 1_555
H179 C142 1_555 1_555
C143 C138 1_555 1_555
H180 C143 1_555 1_555
C144 C139 1_555 1_555
H181 C144 1_555 1_555
H182 C144 1_555 1_555
O3 C145 1_555 1_555
C145 C146 1_555 1_555
C146 H183 1_555 1_555
H184 C146 1_555 1_555
C147 C145 1_555 1_555
H185 C147 1_555 1_555
H186 C147 1_555 1_555
C148 C145 1_555 1_555
H187 C148 1_555 1_555
H188 C148 1_555 1_555
C149 C146 1_555 1_555
H189 C149 1_555 1_555
C150 C149 1_555 1_555
H190 C150 1_555 1_555
H191 C150 1_555 1_555
C151 C147 1_555 1_555
H192 C151 1_555 1_555
C152 C151 1_555 1_555
H193 C152 1_555 1_555
H194 C152 1_555 1_555
C153 C148 1_555 1_555
H195 C153 1_555 1_555
C154 C149 1_555 1_555
H196 C154 1_555 1_555
H197 C154 1_555 1_555
O7 C165 1_555 1_555
C165 C166 1_555 1_555
C166 H213 1_555 1_555
H214 C166 1_555 1_555
C167 C165 1_555 1_555
H215 C167 1_555 1_555
H216 C167 1_555 1_555
C168 C165 1_555 1_555
H217 C168 1_555 1_555
H218 C168 1_555 1_555
C169 C166 1_555 1_555
H219 C169 1_555 1_555
C170 C169 1_555 1_555
H220 C170 1_555 1_555
H221 C170 1_555 1_555
C171 C167 1_555 1_555
H222 C171 1_555 1_555
C172 C171 1_555 1_555
H223 C172 1_555 1_555
H224 C172 1_555 1_555
C173 C168 1_555 1_555
H225 C173 1_555 1_555
C174 C169 1_555 1_555
H226 C174 1_555 1_555
H227 C174 1_555 1_555
N25 C185 1_555 1_555
C185 H243 1_555 1_555
C186 C185 1_555 1_555
H244 C186 1_555 1_555
C187 C186 1_555 1_555
C188 C187 1_555 1_555
H245 C188 1_555 1_555
C189 N25 1_555 1_555
H246 C189 1_555 1_555
N26 C190 1_555 1_555
C190 H247 1_555 1_555
C191 C190 1_555 1_555
H248 C191 1_555 1_555
C192 C191 1_555 1_555
C193 C192 1_555 1_555
N27 C193 1_555 1_555
C194 C187 1_555 1_555
N28 C194 1_555 1_555
N29 C195 1_555 1_555
C195 H249 1_555 1_555
C196 C195 1_555 1_555
H250 C196 1_555 1_555
C197 C196 1_555 1_555
C198 C197 1_555 1_555
H251 C198 1_555 1_555
C199 N29 1_555 1_555
H252 C199 1_555 1_555
N30 C200 1_555 1_555
C200 H253 1_555 1_555
C201 C200 1_555 1_555
H254 C201 1_555 1_555
C202 C201 1_555 1_555
C203 C202 1_555 1_555
N31 C203 1_555 1_555
C204 C197 1_555 1_555
N32 C204 1_555 1_555
N33 O9 1_555 1_555
O10 N33 1_555 1_555
O11 N33 1_555 1_555
N34 O12 1_555 1_555
O13 N34 1_555 1_555
O14 N34 1_555 1_555
N36 O19 1_555 1_555
O20 N36 1_555 1_555
O21 N36 1_555 1_555
N37 O23 1_555 1_555
O24 N37 1_555 1_555
O25 N37 1_555 1_555
N38 O26 1_555 1_555
O27 N38 1_555 1_555
O28 N38 1_555 1_555
N39 O29 1_555 1_555
O30 N39 1_555 1_555
O31 N39 1_555 1_555
N41 O35 1_555 1_555
O36 N41 1_555 1_555
O37 N41 1_555 1_555
N42 O38 1_555 1_555
O39 N42 1_555 1_555
O40 N42 1_555 1_555
N25A C185A 1_555 1_555
C185A H243A 1_555 1_555
C186A C185A 1_555 1_555
H244A C186A 1_555 1_555
C187A C186A 1_555 1_555
C188A C187A 1_555 1_555
H245A C188A 1_555 1_555
C189A N25A 1_555 1_555
H246A C189A 1_555 1_555
C190A N26 1_555 1_555
H247A C190A 1_555 1_555
C191A C192 1_555 1_555
H248A C191A 1_555 1_555
N27A C193 1_555 1_555
C194A N28 1_555 1_555
N29E C195E 1_555 1_555
C195E H249E 1_555 1_555
C196E C195E 1_555 1_555
H250E C196E 1_555 1_555
C197E C196E 1_555 1_555
C198E C197E 1_555 1_555
H251E C198E 1_555 1_555
C199E N29E 1_555 1_555
H252E C199E 1_555 1_555
C200E N30 1_555 1_555
H253E C200E 1_555 1_555
C201E C202 1_555 1_555
H254E C201E 1_555 1_555
N31E C203 1_555 1_555
C204E N32 1_555 1_555
C4 C5 1_555 1_555
C9 C10 1_555 1_555
C14 C15 1_555 1_555
N4 C17 1_555 1_555
N5 C18 1_555 1_555
C18 N6 1_555 1_555
C22 C23 1_555 1_555
C27 C28 1_555 1_555
C32 C33 1_555 1_555
N10 C35 1_555 1_555
N11 C36 1_555 1_555
C36 N12 1_555 1_555
C40 C41 1_555 1_555
C45 C46 1_555 1_555
C50 C51 1_555 1_555
N16 C53 1_555 1_555
N17 C54 1_555 1_555
C54 N18 1_555 1_555
C58 C59 1_555 1_555
C63 C64 1_555 1_555
C68 C69 1_555 1_555
N22 C71 1_555 1_555
N23 C72 1_555 1_555
C72 N24 1_555 1_555
C73 C74 1_555 1_555
C75 C76 1_555 1_555
C77 C78 1_555 1_555
C79 C80 1_555 1_555
C81 C82 1_555 1_555
C83 C84 1_555 1_555
C85 C86 1_555 1_555
C87 C88 1_555 1_555
C89 C90 1_555 1_555
C91 C92 1_555 1_555
C93 C94 1_555 1_555
C95 C96 1_555 1_555
C97 C98 1_555 1_555
C99 C100 1_555 1_555
C101 C102 1_555 1_555
C103 C104 1_555 1_555
C105 C106 1_555 1_555
C107 C108 1_555 1_555
C109 C110 1_555 1_555
C111 C112 1_555 1_555
C114 S23 1_555 1_555
C115 C116 1_555 1_555
C118 S24 1_555 1_555
C119 C120 1_555 1_555
C130 C131 1_555 1_555
C132 C133 1_555 1_555
C133 C134 1_555 1_555
C140 C141 1_555 1_555
C142 C143 1_555 1_555
C143 C144 1_555 1_555
C150 C151 1_555 1_555
C152 C153 1_555 1_555
C153 C154 1_555 1_555
C170 C171 1_555 1_555
C172 C173 1_555 1_555
C173 C174 1_555 1_555
C188 C189 1_555 1_555
N27 C194 1_555 1_555
C198 C199 1_555 1_555
N31 C204 1_555 1_555
C187A C194A 1_555 1_555
C188A C189A 1_555 1_555
C190A C191A 1_555 1_555
N27A C194A 1_555 1_555
C197E C204E 1_555 1_555
C198E C199E 1_555 1_555
C200E C201E 1_555 1_555
N31E C204E 1_555 1_555

#END
