# generated using pymatgen
data_H392Ru12C292S61N49O11
_symmetry_space_group_name_H-M   'P 1'
_cell_length_a   28.04300000
_cell_length_b   28.46300000
_cell_length_c   37.74600000
_cell_angle_alpha   81.55300000
_cell_angle_beta   70.71500000
_cell_angle_gamma   72.19300000
_symmetry_Int_Tables_number   1
_chemical_formula_structural   H392Ru12C292S61N49O11
_chemical_formula_sum   'H784 Ru24 C584 S122 N98 O22'
_cell_volume   27040.09009759
_cell_formula_units_Z   2
loop_
 _symmetry_equiv_pos_site_id
 _symmetry_equiv_pos_as_xyz
  1  'x, y, z'
loop_
 _atom_site_type_symbol
 _atom_site_label
 _atom_site_symmetry_multiplicity
 _atom_site_fract_x
 _atom_site_fract_y
 _atom_site_fract_z
 _atom_site_occupancy
  H  H1  1  0.211800  0.111500  0.039800  1
  H  H2  1  0.788200  0.888500  0.960200  1
  H  H3  1  0.170300  0.106700  0.080300  1
  H  H4  1  0.829700  0.893300  0.919700  1
  H  H5  1  0.174200  0.041500  0.052800  1
  H  H6  1  0.825800  0.958500  0.947200  1
  H  H7  1  0.180000  0.069900  0.012600  1
  H  H8  1  0.820000  0.930100  0.987400  1
  H  H9  1  0.086700  0.037700  0.010100  1
  H  H10  1  0.913300  0.962300  0.989900  1
  H  H11  1  0.076900  0.014600  0.052200  1
  H  H12  1  0.923100  0.985400  0.947800  1
  H  H13  1  0.995600  0.056800  0.070200  1
  H  H14  1  0.004400  0.943200  0.929800  1
  H  H15  1  0.002700  0.048700  0.027800  1
  H  H16  1  0.997300  0.951300  0.972200  1
  H  H17  1  0.990900  0.107400  0.978200  1
  H  H18  1  0.009100  0.892600  0.021800  1
  H  H19  1  0.982200  0.165900  0.975800  1
  H  H20  1  0.017800  0.834100  0.024200  1
  H  H21  1  0.069200  0.130000  0.937600  1
  H  H22  1  0.930800  0.870000  0.062400  1
  H  H23  1  0.081800  0.092900  0.971900  1
  H  H24  1  0.918200  0.907100  0.028100  1
  H  H25  1  0.162600  0.118000  0.973800  1
  H  H26  1  0.837400  0.882000  0.026200  1
  H  H27  1  0.165300  0.162700  0.942400  1
  H  H28  1  0.834700  0.837300  0.057600  1
  H  H29  1  0.155400  0.217400  0.986600  1
  H  H30  1  0.844600  0.782600  0.013400  1
  H  H31  1  0.202700  0.170000  0.989800  1
  H  H32  1  0.797300  0.830000  0.010200  1
  H  H33  1  0.203500  0.265800  0.352400  1
  H  H34  1  0.796500  0.734200  0.647600  1
  H  H35  1  0.190100  0.305300  0.319800  1
  H  H36  1  0.809900  0.694700  0.680200  1
  H  H37  1  0.113800  0.346800  0.358900  1
  H  H38  1  0.886200  0.653200  0.641100  1
  H  H39  1  0.155800  0.335800  0.381400  1
  H  H40  1  0.844200  0.664200  0.618600  1
  H  H41  1  0.053100  0.342300  0.451800  1
  H  H42  1  0.946900  0.657700  0.548200  1
  H  H43  1  0.025400  0.351000  0.419800  1
  H  H44  1  0.974600  0.649000  0.580200  1
  H  H45  1  0.969300  0.326500  0.470700  1
  H  H46  1  0.030700  0.673500  0.529300  1
  H  H47  1  0.015000  0.283300  0.482000  1
  H  H48  1  0.985000  0.716700  0.518000  1
  H  H49  1  0.999600  0.206100  0.486800  1
  H  H50  1  0.000400  0.793900  0.513200  1
  H  H51  1  0.996600  0.175400  0.455700  1
  H  H52  1  0.003400  0.824600  0.544300  1
  H  H53  1  0.083700  0.143900  0.459800  1
  H  H54  1  0.916300  0.856100  0.540200  1
  H  H55  1  0.090700  0.198600  0.456000  1
  H  H56  1  0.909300  0.801400  0.544000  1
  H  H57  1  0.172000  0.193800  0.397200  1
  H  H58  1  0.828000  0.806200  0.602800  1
  H  H59  1  0.186000  0.136500  0.388800  1
  H  H60  1  0.814000  0.863500  0.611200  1
  H  H61  1  0.175300  0.159300  0.327600  1
  H  H62  1  0.824700  0.840700  0.672400  1
  H  H63  1  0.219100  0.181800  0.331400  1
  H  H64  1  0.780900  0.818200  0.668600  1
  H  H65  1  0.632200  0.070300  0.272600  1
  H  H66  1  0.367800  0.929700  0.727400  1
  H  H67  1  0.687800  0.070000  0.275700  1
  H  H68  1  0.312200  0.930000  0.724300  1
  H  H69  1  0.648900  0.023200  0.329500  1
  H  H70  1  0.351100  0.976800  0.670500  1
  H  H71  1  0.595600  0.067600  0.340000  1
  H  H72  1  0.404400  0.932400  0.660000  1
  H  H73  1  0.591200  0.085900  0.407800  1
  H  H74  1  0.408800  0.914100  0.592200  1
  H  H75  1  0.643400  0.046200  0.413100  1
  H  H76  1  0.356600  0.953800  0.586900  1
  H  H77  1  0.674600  0.105100  0.423200  1
  H  H78  1  0.325400  0.894900  0.576800  1
  H  H79  1  0.615400  0.114400  0.450000  1
  H  H80  1  0.384600  0.885600  0.550000  1
  H  H81  1  0.538000  0.170200  0.442300  1
  H  H82  1  0.462000  0.829800  0.557700  1
  H  H83  1  0.539700  0.225900  0.443100  1
  H  H84  1  0.460300  0.774100  0.556900  1
  H  H85  1  0.526700  0.246900  0.383900  1
  H  H86  1  0.473300  0.753100  0.616100  1
  H  H87  1  0.483500  0.218500  0.407200  1
  H  H88  1  0.516500  0.781500  0.592800  1
  H  H89  1  0.488800  0.193000  0.328500  1
  H  H90  1  0.511200  0.807000  0.671500  1
  H  H91  1  0.527400  0.228100  0.316200  1
  H  H92  1  0.472600  0.771900  0.683800  1
  H  H93  1  0.553000  0.177700  0.267000  1
  H  H94  1  0.447000  0.822300  0.733000  1
  H  H95  1  0.551400  0.129500  0.294600  1
  H  H96  1  0.448600  0.870500  0.705400  1
  H  H97  1  0.521500  0.437800  0.061900  1
  H  H98  1  0.478500  0.562200  0.938100  1
  H  H99  1  0.517700  0.442800  0.104500  1
  H  H100  1  0.482300  0.557200  0.895500  1
  H  H101  1  0.460000  0.514100  0.086300  1
  H  H102  1  0.540000  0.485900  0.913700  1
  H  H103  1  0.506200  0.524000  0.049900  1
  H  H104  1  0.493800  0.476000  0.950100  1
  H  H105  1  0.503000  0.609300  0.058800  1
  H  H106  1  0.497000  0.390700  0.941200  1
  H  H107  1  0.457200  0.621800  0.098100  1
  H  H108  1  0.542800  0.378200  0.901900  1
  H  H109  1  0.516800  0.634700  0.125100  1
  H  H110  1  0.483200  0.365300  0.874900  1
  H  H111  1  0.517000  0.670400  0.088200  1
  H  H112  1  0.483000  0.329600  0.911800  1
  H  H113  1  0.577600  0.653400  0.025500  1
  H  H114  1  0.422400  0.346600  0.974500  1
  H  H115  1  0.633500  0.657100  0.025800  1
  H  H116  1  0.366500  0.342900  0.974200  1
  H  H117  1  0.676000  0.572300  0.005800  1
  H  H118  1  0.324000  0.427700  0.994200  1
  H  H119  1  0.644000  0.599900  0.976800  1
  H  H120  1  0.356000  0.400100  0.023200  1
  H  H121  1  0.643700  0.497200  0.968400  1
  H  H122  1  0.356300  0.502800  0.031600  1
  H  H123  1  0.676300  0.484300  0.998100  1
  H  H124  1  0.323700  0.515700  0.001900  1
  H  H125  1  0.637600  0.416600  0.004600  1
  H  H126  1  0.362400  0.583400  0.995400  1
  H  H127  1  0.580500  0.454400  0.008500  1
  H  H128  1  0.419500  0.545600  0.991500  1
  H  H129  1  0.191300  0.569400  0.048800  1
  H  H130  1  0.808700  0.430600  0.951200  1
  H  H131  1  0.154800  0.560500  0.027100  1
  H  H132  1  0.845200  0.439500  0.972900  1
  H  H133  1  0.153100  0.645500  0.016600  1
  H  H134  1  0.846900  0.354500  0.983400  1
  H  H135  1  0.137200  0.652100  0.060900  1
  H  H136  1  0.862800  0.347900  0.939100  1
  H  H137  1  0.053300  0.719900  0.072800  1
  H  H138  1  0.946700  0.280100  0.927200  1
  H  H139  1  0.047700  0.732000  0.031100  1
  H  H140  1  0.952300  0.268000  0.968900  1
  H  H141  1  0.966300  0.716100  0.050800  1
  H  H142  1  0.033700  0.283900  0.949200  1
  H  H143  1  0.964400  0.755100  0.078000  1
  H  H144  1  0.035600  0.244900  0.922000  1
  H  H145  1  0.976600  0.742800  0.137200  1
  H  H146  1  0.023400  0.257200  0.862800  1
  H  H147  1  0.930600  0.722500  0.166900  1
  H  H148  1  0.069400  0.277500  0.833100  1
  H  H149  1  0.988500  0.654400  0.182900  1
  H  H150  1  0.011500  0.345600  0.817100  1
  H  H151  1  0.011900  0.699600  0.182000  1
  H  H152  1  0.988100  0.300400  0.818000  1
  H  H153  1  0.114200  0.614300  0.171400  1
  H  H154  1  0.885800  0.385700  0.828600  1
  H  H155  1  0.074600  0.582400  0.174100  1
  H  H156  1  0.925400  0.417600  0.825900  1
  H  H157  1  0.157900  0.536800  0.137900  1
  H  H158  1  0.842100  0.463200  0.862100  1
  H  H159  1  0.168800  0.584900  0.112600  1
  H  H160  1  0.831200  0.415100  0.887400  1
  H  H161  1  0.537100  0.747800  0.390400  1
  H  H162  1  0.462900  0.252200  0.609600  1
  H  H163  1  0.527600  0.698700  0.382000  1
  H  H164  1  0.472400  0.301300  0.618000  1
  H  H165  1  0.525800  0.724800  0.453800  1
  H  H166  1  0.474200  0.275200  0.546200  1
  H  H167  1  0.483300  0.704400  0.445700  1
  H  H168  1  0.516700  0.295600  0.554300  1
  H  H169  1  0.488700  0.625100  0.489900  1
  H  H170  1  0.511300  0.374900  0.510100  1
  H  H171  1  0.522800  0.644200  0.508600  1
  H  H172  1  0.477200  0.355800  0.491400  1
  H  H173  1  0.544100  0.547800  0.484000  1
  H  H174  1  0.455900  0.452200  0.516000  1
  H  H175  1  0.559400  0.561700  0.517300  1
  H  H176  1  0.440600  0.438300  0.482700  1
  H  H177  1  0.629200  0.573300  0.521700  1
  H  H178  1  0.370800  0.426700  0.478300  1
  H  H179  1  0.687100  0.563200  0.493100  1
  H  H180  1  0.312900  0.436800  0.506900  1
  H  H181  1  0.667500  0.641400  0.506000  1
  H  H182  1  0.332500  0.358600  0.494000  1
  H  H183  1  0.608600  0.653600  0.503600  1
  H  H184  1  0.391400  0.346400  0.496400  1
  H  H185  1  0.601500  0.724700  0.453800  1
  H  H186  1  0.398500  0.275300  0.546200  1
  H  H187  1  0.657700  0.735700  0.442000  1
  H  H188  1  0.342300  0.264300  0.558000  1
  H  H189  1  0.670900  0.730800  0.381000  1
  H  H190  1  0.329100  0.269200  0.619000  1
  H  H191  1  0.611200  0.762400  0.396500  1
  H  H192  1  0.388800  0.237600  0.603500  1
  H  H193  1  0.079400  0.165600  0.117000  1
  H  H194  1  0.920600  0.834400  0.883000  1
  H  H195  1  0.040300  0.169900  0.182000  1
  H  H196  1  0.959700  0.830100  0.818000  1
  H  H197  1  0.905700  0.170000  0.170000  1
  H  H198  1  0.094300  0.830000  0.830000  1
  H  H199  1  0.945000  0.163800  0.105800  1
  H  H200  1  0.055000  0.836200  0.894200  1
  H  H201  1  0.984200  0.191200  0.386100  1
  H  H202  1  0.015800  0.808800  0.613900  1
  H  H203  1  0.938700  0.169700  0.352400  1
  H  H204  1  0.061300  0.830300  0.647600  1
  H  H205  1  0.030700  0.219000  0.258000  1
  H  H206  1  0.969300  0.781000  0.742000  1
  H  H207  1  0.072300  0.240400  0.293800  1
  H  H208  1  0.927700  0.759600  0.706200  1
  H  H209  1  0.712600  0.196000  0.268500  1
  H  H210  1  0.287400  0.804000  0.731500  1
  H  H211  1  0.799600  0.195700  0.244400  1
  H  H212  1  0.200400  0.804300  0.755600  1
  H  H213  1  0.819800  0.146000  0.344700  1
  H  H214  1  0.180200  0.854000  0.655300  1
  H  H215  1  0.734600  0.148100  0.366800  1
  H  H216  1  0.265400  0.851900  0.633200  1
  H  H217  1  0.940000  0.232500  0.051400  1
  H  H218  1  0.060000  0.767500  0.948600  1
  H  H219  1  0.895500  0.314200  0.050900  1
  H  H220  1  0.104500  0.685800  0.949100  1
  H  H221  1  0.032100  0.346400  0.030800  1
  H  H222  1  0.967900  0.653600  0.969200  1
  H  H223  1  0.071100  0.264100  0.033800  1
  H  H224  1  0.928900  0.735900  0.966200  1
  H  H225  1  0.699500  0.566700  0.066600  1
  H  H226  1  0.300500  0.433300  0.933400  1
  H  H227  1  0.787700  0.544500  0.058600  1
  H  H228  1  0.212300  0.455500  0.941400  1
  H  H229  1  0.790000  0.406600  0.044800  1
  H  H230  1  0.210000  0.593400  0.955200  1
  H  H231  1  0.702500  0.432800  0.054600  1
  H  H232  1  0.297500  0.567200  0.945400  1
  H  H233  1  0.067800  0.515900  0.055500  1
  H  H234  1  0.932200  0.484100  0.944500  1
  H  H235  1  0.031900  0.462100  0.041200  1
  H  H236  1  0.968100  0.537900  0.958800  1
  H  H237  1  0.893800  0.566500  0.062200  1
  H  H238  1  0.106200  0.433500  0.937800  1
  H  H239  1  0.931800  0.616000  0.079600  1
  H  H240  1  0.068200  0.384000  0.920400  1
  H  H241  1  0.592300  0.621000  0.341700  1
  H  H242  1  0.407700  0.379000  0.658300  1
  H  H243  1  0.593100  0.572300  0.298600  1
  H  H244  1  0.406900  0.427700  0.701400  1
  H  H245  1  0.628200  0.455900  0.367100  1
  H  H246  1  0.371800  0.544100  0.632900  1
  H  H247  1  0.632900  0.507200  0.406900  1
  H  H248  1  0.367100  0.492800  0.593100  1
  H  H249  1  0.629200  0.432800  0.128700  1
  H  H250  1  0.370800  0.567200  0.871300  1
  H  H251  1  0.624300  0.407700  0.186800  1
  H  H252  1  0.375700  0.592300  0.813200  1
  H  H253  1  0.591900  0.550100  0.209300  1
  H  H254  1  0.408100  0.449900  0.790700  1
  H  H255  1  0.594700  0.570300  0.148500  1
  H  H256  1  0.405300  0.429700  0.851500  1
  H  H257  1  0.625600  0.267600  0.371700  1
  H  H258  1  0.374400  0.732400  0.628300  1
  H  H259  1  0.619700  0.347700  0.353800  1
  H  H260  1  0.380300  0.652300  0.646200  1
  H  H261  1  0.604400  0.326100  0.256600  1
  H  H262  1  0.395600  0.673900  0.743400  1
  H  H263  1  0.607100  0.245700  0.276600  1
  H  H264  1  0.392900  0.754300  0.723400  1
  H  H265  1  0.727000  0.529700  0.417900  1
  H  H266  1  0.273000  0.470300  0.582100  1
  H  H267  1  0.811200  0.492800  0.382500  1
  H  H268  1  0.188800  0.507200  0.617500  1
  H  H269  1  0.791200  0.594800  0.301400  1
  H  H270  1  0.208800  0.405200  0.698600  1
  H  H271  1  0.711000  0.630800  0.337100  1
  H  H272  1  0.289000  0.369200  0.662900  1
  H  H273  1  0.083500  0.333000  0.309700  1
  H  H274  1  0.916500  0.667000  0.690300  1
  H  H275  1  0.037700  0.400100  0.281700  1
  H  H276  1  0.962300  0.599900  0.718300  1
  H  H277  1  0.904400  0.393900  0.361200  1
  H  H278  1  0.095600  0.606100  0.638800  1
  H  H279  1  0.956500  0.321300  0.388700  1
  H  H280  1  0.043500  0.678700  0.611300  1
  H  H281  1  0.928700  0.620000  0.161900  1
  H  H282  1  0.071300  0.380000  0.838100  1
  H  H283  1  0.887700  0.588100  0.219800  1
  H  H284  1  0.112300  0.411900  0.780200  1
  H  H285  1  0.021200  0.474900  0.206200  1
  H  H286  1  0.978800  0.525100  0.793800  1
  H  H287  1  0.056800  0.513000  0.148400  1
  H  H288  1  0.943200  0.487000  0.851600  1
  H  H289  1  0.847600  0.013300  0.165100  1
  H  H290  1  0.152400  0.986700  0.834900  1
  H  H291  1  0.904600  0.992600  0.136100  1
  H  H292  1  0.095400  0.007400  0.863900  1
  H  H293  1  0.922500  0.922000  0.172700  1
  H  H294  1  0.077500  0.078000  0.827300  1
  H  H295  1  0.863800  0.929600  0.171800  1
  H  H296  1  0.136200  0.070400  0.828200  1
  H  H297  1  0.863100  0.864400  0.246400  1
  H  H298  1  0.136900  0.135600  0.753600  1
  H  H299  1  0.921100  0.870200  0.237300  1
  H  H300  1  0.078900  0.129800  0.762700  1
  H  H301  1  0.893100  0.856800  0.300000  1
  H  H302  1  0.106900  0.143200  0.700000  1
  H  H303  1  0.836600  0.894800  0.303400  1
  H  H304  1  0.163400  0.105200  0.696600  1
  H  H305  1  0.816400  0.957800  0.346100  1
  H  H306  1  0.183600  0.042200  0.653900  1
  H  H307  1  0.845500  0.999400  0.341900  1
  H  H308  1  0.154500  0.000600  0.658100  1
  H  H309  1  0.771500  0.034700  0.322300  1
  H  H310  1  0.228500  0.965300  0.677700  1
  H  H311  1  0.789200  0.992000  0.293200  1
  H  H312  1  0.210800  0.008000  0.706800  1
  H  H313  1  0.802300  0.043200  0.227200  1
  H  H314  1  0.197700  0.956800  0.772800  1
  H  H315  1  0.784200  0.097900  0.242000  1
  H  H316  1  0.215800  0.902100  0.758000  1
  H  H317  1  0.864800  0.108800  0.208900  1
  H  H318  1  0.135200  0.891200  0.791100  1
  H  H319  1  0.838000  0.096100  0.181500  1
  H  H320  1  0.162000  0.903900  0.818500  1
  H  H321  1  0.258000  0.107900  0.467200  1
  H  H322  1  0.742000  0.892100  0.532800  1
  H  H323  1  0.215500  0.116600  0.445600  1
  H  H324  1  0.784500  0.883400  0.554400  1
  H  H325  1  0.173700  0.115500  0.510600  1
  H  H326  1  0.826300  0.884500  0.489400  1
  H  H327  1  0.211000  0.060700  0.515300  1
  H  H328  1  0.789000  0.939300  0.484700  1
  H  H329  1  0.140700  0.012300  0.539000  1
  H  H330  1  0.859300  0.987700  0.461000  1
  H  H331  1  0.087900  0.055500  0.539400  1
  H  H332  1  0.912100  0.944500  0.460600  1
  H  H333  1  0.066500  0.013300  0.502400  1
  H  H334  1  0.933500  0.986700  0.497600  1
  H  H335  1  0.079900  0.975400  0.535800  1
  H  H336  1  0.920100  0.024600  0.464200  1
  H  H337  1  0.155600  0.915000  0.535800  1
  H  H338  1  0.844400  0.085000  0.464200  1
  H  H339  1  0.167400  0.872400  0.508200  1
  H  H340  1  0.832600  0.127600  0.491800  1
  H  H341  1  0.247500  0.881100  0.477400  1
  H  H342  1  0.752500  0.118900  0.522600  1
  H  H343  1  0.241100  0.876800  0.521500  1
  H  H344  1  0.758900  0.123200  0.478500  1
  H  H345  1  0.327000  0.935200  0.496900  1
  H  H346  1  0.673000  0.064800  0.503100  1
  H  H347  1  0.323500  0.928200  0.456400  1
  H  H348  1  0.676500  0.071800  0.543600  1
  H  H349  1  0.352600  0.998800  0.449600  1
  H  H350  1  0.647400  0.001200  0.550400  1
  H  H351  1  0.307500  0.020700  0.486800  1
  H  H352  1  0.692500  0.979300  0.513200  1
  H  H353  1  0.152200  0.307100  0.060800  1
  H  H354  1  0.847800  0.692900  0.939200  1
  H  H355  1  0.133000  0.283300  0.102500  1
  H  H356  1  0.867000  0.716700  0.897500  1
  H  H357  1  0.148200  0.355000  0.110700  1
  H  H358  1  0.851800  0.645000  0.889300  1
  H  H359  1  0.202300  0.344900  0.077200  1
  H  H360  1  0.797700  0.655100  0.922800  1
  H  H361  1  0.273500  0.350400  0.109400  1
  H  H362  1  0.726500  0.649600  0.890600  1
  H  H363  1  0.230700  0.370200  0.148500  1
  H  H364  1  0.769300  0.629800  0.851500  1
  H  H365  1  0.269700  0.305400  0.182800  1
  H  H366  1  0.730300  0.694600  0.817200  1
  H  H367  1  0.316300  0.326200  0.155000  1
  H  H368  1  0.683700  0.673800  0.845000  1
  H  H369  1  0.391900  0.287300  0.111100  1
  H  H370  1  0.608100  0.712700  0.888900  1
  H  H371  1  0.409100  0.235000  0.093000  1
  H  H372  1  0.590900  0.765000  0.907000  1
  H  H373  1  0.393600  0.294200  0.046100  1
  H  H374  1  0.606400  0.705800  0.953900  1
  H  H375  1  0.337700  0.323000  0.073400  1
  H  H376  1  0.662300  0.677000  0.926600  1
  H  H377  1  0.272300  0.320400  0.035800  1
  H  H378  1  0.727700  0.679600  0.964200  1
  H  H379  1  0.315900  0.293500  0.999400  1
  H  H380  1  0.684100  0.706500  0.000600  1
  H  H381  1  0.279300  0.228000  0.010000  1
  H  H382  1  0.720700  0.772000  0.990000  1
  H  H383  1  0.232600  0.277300  0.010800  1
  H  H384  1  0.767400  0.722700  0.989200  1
  H  H385  1  0.429400  0.662300  0.932100  1
  H  H386  1  0.570600  0.337700  0.067900  1
  H  H387  1  0.376800  0.668800  0.966500  1
  H  H388  1  0.623200  0.331200  0.033500  1
  H  H389  1  0.356100  0.676700  0.913200  1
  H  H390  1  0.643900  0.323300  0.086800  1
  H  H391  1  0.386500  0.718400  0.896100  1
  H  H392  1  0.613500  0.281600  0.103900  1
  H  H393  1  0.311700  0.789400  0.883800  1
  H  H394  1  0.688300  0.210600  0.116200  1
  H  H395  1  0.260000  0.770300  0.900500  1
  H  H396  1  0.740000  0.229700  0.099500  1
  H  H397  1  0.218700  0.832400  0.938200  1
  H  H398  1  0.781300  0.167600  0.061800  1
  H  H399  1  0.242700  0.855600  0.897500  1
  H  H400  1  0.757300  0.144400  0.102500  1
  H  H401  1  0.321800  0.881600  0.873300  1
  H  H402  1  0.678200  0.118400  0.126700  1
  H  H403  1  0.315600  0.929000  0.894200  1
  H  H404  1  0.684400  0.071000  0.105800  1
  H  H405  1  0.387800  0.890800  0.912200  1
  H  H406  1  0.612200  0.109200  0.087800  1
  H  H407  1  0.402900  0.884600  0.867900  1
  H  H408  1  0.597100  0.115400  0.132100  1
  H  H409  1  0.489100  0.797500  0.886600  1
  H  H410  1  0.510900  0.202500  0.113400  1
  H  H411  1  0.459100  0.819400  0.927400  1
  H  H412  1  0.540900  0.180600  0.072600  1
  H  H413  1  0.500600  0.742800  0.938800  1
  H  H414  1  0.499400  0.257200  0.061200  1
  H  H415  1  0.485900  0.722400  0.907500  1
  H  H416  1  0.514100  0.277600  0.092500  1
  H  H417  1  0.119400  0.571500  0.374000  1
  H  H418  1  0.880600  0.428500  0.626000  1
  H  H419  1  0.129000  0.594200  0.331500  1
  H  H420  1  0.871000  0.405800  0.668500  1
  H  H421  1  0.157800  0.500900  0.333333  1
  H  H422  1  0.842200  0.499100  0.666667  1
  H  H423  1  0.203100  0.502300  0.350500  1
  H  H424  1  0.796900  0.497700  0.649500  1
  H  H425  1  0.277600  0.464600  0.299300  1
  H  H426  1  0.722400  0.535400  0.700700  1
  H  H427  1  0.248300  0.457700  0.271100  1
  H  H428  1  0.751700  0.542300  0.728900  1
  H  H429  1  0.298500  0.508100  0.221200  1
  H  H430  1  0.701500  0.491900  0.778800  1
  H  H431  1  0.339000  0.460300  0.233800  1
  H  H432  1  0.661000  0.539700  0.766200  1
  H  H433  1  0.375300  0.459200  0.292200  1
  H  H434  1  0.624700  0.540800  0.707800  1
  H  H435  1  0.415900  0.492100  0.276900  1
  H  H436  1  0.584100  0.507900  0.723100  1
  H  H437  1  0.371600  0.543900  0.326000  1
  H  H438  1  0.628400  0.456100  0.674000  1
  H  H439  1  0.380000  0.488500  0.344200  1
  H  H440  1  0.620000  0.511500  0.655800  1
  H  H441  1  0.284100  0.543300  0.407500  1
  H  H442  1  0.715900  0.456700  0.592500  1
  H  H443  1  0.283600  0.591700  0.379200  1
  H  H444  1  0.716400  0.408300  0.620800  1
  H  H445  1  0.196600  0.595100  0.418900  1
  H  H446  1  0.803400  0.404900  0.581100  1
  H  H447  1  0.201100  0.543500  0.404100  1
  H  H448  1  0.798900  0.456500  0.595900  1
  H  H449  1  0.687500  0.897900  0.231200  1
  H  H450  1  0.312500  0.102100  0.768800  1
  H  H451  1  0.638800  0.877000  0.255500  1
  H  H452  1  0.361200  0.123000  0.744500  1
  H  H453  1  0.708400  0.812500  0.249200  1
  H  H454  1  0.291600  0.187500  0.750800  1
  H  H455  1  0.733500  0.826900  0.206000  1
  H  H456  1  0.266500  0.173100  0.794000  1
  H  H457  1  0.750800  0.749000  0.167100  1
  H  H458  1  0.249200  0.251000  0.832900  1
  H  H459  1  0.740600  0.711300  0.202900  1
  H  H460  1  0.259400  0.288700  0.797100  1
  H  H461  1  0.679700  0.692000  0.186100  1
  H  H462  1  0.320300  0.308000  0.813900  1
  H  H463  1  0.731800  0.685400  0.151000  1
  H  H464  1  0.268200  0.314600  0.849000  1
  H  H465  1  0.746500  0.723500  0.092700  1
  H  H466  1  0.253500  0.276500  0.907300  1
  H  H467  1  0.709700  0.768000  0.074800  1
  H  H468  1  0.290300  0.232000  0.925200  1
  H  H469  1  0.768700  0.801200  0.075700  1
  H  H470  1  0.231300  0.198800  0.924300  1
  H  H471  1  0.776500  0.771400  0.113600  1
  H  H472  1  0.223500  0.228600  0.886400  1
  H  H473  1  0.761900  0.865000  0.145300  1
  H  H474  1  0.238100  0.135000  0.854700  1
  H  H475  1  0.749500  0.897300  0.109200  1
  H  H476  1  0.250500  0.102700  0.890800  1
  H  H477  1  0.676300  0.942900  0.141300  1
  H  H478  1  0.323700  0.057100  0.858700  1
  H  H479  1  0.706800  0.930600  0.171700  1
  H  H480  1  0.293200  0.069400  0.828300  1
  H  H481  1  0.935700  0.020700  0.309700  1
  H  H482  1  0.064300  0.979300  0.690300  1
  H  H483  1  0.995500  0.052100  0.320000  1
  H  H484  1  0.004500  0.947900  0.680000  1
  H  H485  1  0.062400  0.063700  0.208700  1
  H  H486  1  0.937600  0.936300  0.791300  1
  H  H487  1  0.003400  0.031600  0.200000  1
  H  H488  1  0.996600  0.968400  0.800000  1
  H  H489  1  0.250900  0.030900  0.367200  1
  H  H490  1  0.749100  0.969100  0.632800  1
  H  H491  1  0.223500  0.064200  0.316200  1
  H  H492  1  0.776500  0.935800  0.683800  1
  H  H493  1  0.076600  0.053100  0.375700  1
  H  H494  1  0.923400  0.946900  0.624300  1
  H  H495  1  0.106500  0.025200  0.426200  1
  H  H496  1  0.893500  0.974800  0.573800  1
  H  H497  1  0.185400  0.180800  0.130700  1
  H  H498  1  0.814600  0.819200  0.869300  1
  H  H499  1  0.140200  0.138200  0.178900  1
  H  H500  1  0.859800  0.861800  0.821100  1
  H  H501  1  0.210700  0.166100  0.244000  1
  H  H502  1  0.789300  0.833900  0.756000  1
  H  H503  1  0.256900  0.205900  0.193100  1
  H  H504  1  0.743100  0.794100  0.806900  1
  H  H505  1  0.993900  0.946900  0.165800  1
  H  H506  1  0.006100  0.053100  0.834200  1
  H  H507  1  0.073200  0.889200  0.139900  1
  H  H508  1  0.926800  0.110800  0.860100  1
  H  H509  1  0.075800  0.844400  0.246900  1
  H  H510  1  0.924200  0.155600  0.753100  1
  H  H511  1  0.996400  0.903200  0.268000  1
  H  H512  1  0.003600  0.096800  0.732000  1
  H  H513  1  0.332400  0.727000  0.026700  1
  H  H514  1  0.667600  0.273000  0.973300  1
  H  H515  1  0.284000  0.720400  0.089900  1
  H  H516  1  0.716000  0.279600  0.910100  1
  H  H517  1  0.191000  0.855000  0.075900  1
  H  H518  1  0.809000  0.145000  0.924100  1
  H  H519  1  0.240000  0.857200  0.013600  1
  H  H520  1  0.760000  0.142800  0.986400  1
  H  H521  1  0.169400  0.665100  0.299700  1
  H  H522  1  0.830600  0.334900  0.700300  1
  H  H523  1  0.139500  0.724500  0.257200  1
  H  H524  1  0.860500  0.275500  0.742800  1
  H  H525  1  0.271500  0.669700  0.177300  1
  H  H526  1  0.728500  0.330300  0.822700  1
  H  H527  1  0.295000  0.606900  0.221000  1
  H  H528  1  0.705000  0.393100  0.779000  1
  H  H529  1  0.579200  0.804800  0.118600  1
  H  H530  1  0.420800  0.195200  0.881400  1
  H  H531  1  0.512500  0.843900  0.090000  1
  H  H532  1  0.487500  0.156100  0.910000  1
  H  H533  1  0.513000  0.973200  0.118100  1
  H  H534  1  0.487000  0.026800  0.881900  1
  H  H535  1  0.581000  0.932500  0.142400  1
  H  H536  1  0.419000  0.067500  0.857600  1
  H  H537  1  0.332600  0.914900  0.970100  1
  H  H538  1  0.667400  0.085100  0.029900  1
  H  H539  1  0.352800  0.961700  0.004500  1
  H  H540  1  0.647200  0.038300  0.995500  1
  H  H541  1  0.433900  0.837800  0.045900  1
  H  H542  1  0.566100  0.162200  0.954100  1
  H  H543  1  0.413500  0.793300  0.008600  1
  H  H544  1  0.586500  0.206700  0.991400  1
  H  H545  1  0.350900  0.144800  0.136500  1
  H  H546  1  0.649100  0.855200  0.863500  1
  H  H547  1  0.395000  0.063500  0.126200  1
  H  H548  1  0.605000  0.936500  0.873800  1
  H  H549  1  0.339800  0.071000  0.040800  1
  H  H550  1  0.660200  0.929000  0.959200  1
  H  H551  1  0.293000  0.151200  0.054300  1
  H  H552  1  0.707000  0.848800  0.945700  1
  H  H553  1  0.539600  0.881100  0.221000  1
  H  H554  1  0.460400  0.118900  0.779000  1
  H  H555  1  0.460800  0.875500  0.262500  1
  H  H556  1  0.539200  0.124500  0.737500  1
  H  H557  1  0.504000  0.731500  0.239400  1
  H  H558  1  0.496000  0.268500  0.760600  1
  H  H559  1  0.582000  0.745100  0.197500  1
  H  H560  1  0.418000  0.254900  0.802500  1
  H  H561  1  0.207900  0.899400  0.420000  1
  H  H562  1  0.792100  0.100600  0.580000  1
  H  H563  1  0.252700  0.843300  0.375600  1
  H  H564  1  0.747300  0.156700  0.624400  1
  H  H565  1  0.372500  0.903800  0.349400  1
  H  H566  1  0.627500  0.096200  0.650600  1
  H  H567  1  0.322800  0.959700  0.393600  1
  H  H568  1  0.677200  0.040300  0.606400  1
  H  H569  1  0.374200  0.604300  0.277000  1
  H  H570  1  0.625800  0.395700  0.723000  1
  H  H571  1  0.407600  0.669100  0.275100  1
  H  H572  1  0.592400  0.330900  0.724900  1
  H  H573  1  0.266400  0.745400  0.330800  1
  H  H574  1  0.733600  0.254600  0.669200  1
  H  H575  1  0.234600  0.681000  0.335000  1
  H  H576  1  0.765400  0.319000  0.665000  1
  H  H577  1  0.191100  0.094900  0.031900  1
  H  H578  1  0.808900  0.905100  0.968100  1
  H  H579  1  0.184300  0.109800  0.072600  1
  H  H580  1  0.815700  0.890200  0.927400  1
  H  H581  1  0.117800  0.078100  0.099800  1
  H  H582  1  0.882200  0.921900  0.900200  1
  H  H583  1  0.156700  0.039300  0.069000  1
  H  H584  1  0.843300  0.960700  0.931000  1
  H  H585  1  0.055600  0.017000  0.066800  1
  H  H586  1  0.944400  0.983000  0.933200  1
  H  H587  1  0.023400  0.057900  0.097000  1
  H  H588  1  0.976600  0.942100  0.903000  1
  H  H589  1  0.963600  0.062500  0.071700  1
  H  H590  1  0.036400  0.937500  0.928300  1
  H  H591  1  0.005000  0.046500  0.031500  1
  H  H592  1  0.995000  0.953500  0.968500  1
  H  H593  1  0.514700  0.454300  0.064600  1
  H  H594  1  0.485300  0.545700  0.935400  1
  H  H595  1  0.525900  0.421900  0.100900  1
  H  H596  1  0.474100  0.578100  0.899100  1
  H  H597  1  0.509400  0.492500  0.132700  1
  H  H598  1  0.490600  0.507500  0.867300  1
  H  H599  1  0.462000  0.503300  0.114900  1
  H  H600  1  0.538000  0.496700  0.885100  1
  H  H601  1  0.461300  0.611300  0.118100  1
  H  H602  1  0.538700  0.388700  0.881900  1
  H  H603  1  0.508500  0.584600  0.135400  1
  H  H604  1  0.491500  0.415400  0.864600  1
  H  H605  1  0.517500  0.663500  0.111400  1
  H  H606  1  0.482500  0.336500  0.888600  1
  H  H607  1  0.514800  0.653700  0.071400  1
  H  H608  1  0.485200  0.346300  0.928600  1
  H  H609  1  0.604000  0.662300  0.024900  1
  H  H610  1  0.396000  0.337700  0.975100  1
  H  H611  1  0.656600  0.617600  0.018800  1
  H  H612  1  0.343400  0.382400  0.981200  1
  H  H613  1  0.604800  0.610700  0.978200  1
  H  H614  1  0.395200  0.389300  0.021800  1
  H  H615  1  0.558000  0.603900  0.015600  1
  H  H616  1  0.442000  0.396100  0.984400  1
  H  H617  1  0.552000  0.524800  0.009500  1
  H  H618  1  0.448000  0.475200  0.990500  1
  H  H619  1  0.597000  0.509800  0.969900  1
  H  H620  1  0.403000  0.490200  0.030100  1
  H  H621  1  0.646900  0.440800  0.001500  1
  H  H622  1  0.353100  0.559200  0.998500  1
  H  H623  1  0.590200  0.433400  0.009300  1
  H  H624  1  0.409800  0.566600  0.990700  1
  H  H625  1  0.545000  0.753400  0.400500  1
  H  H626  1  0.455000  0.246600  0.599500  1
  H  H627  1  0.534100  0.731800  0.367700  1
  H  H628  1  0.465900  0.268200  0.632300  1
  H  H629  1  0.499300  0.708400  0.442000  1
  H  H630  1  0.500700  0.291600  0.558000  1
  H  H631  1  0.490100  0.686200  0.409800  1
  H  H632  1  0.509900  0.313800  0.590200  1
  H  H633  1  0.504200  0.584700  0.464300  1
  H  H634  1  0.495800  0.415300  0.535700  1
  H  H635  1  0.504800  0.622900  0.490000  1
  H  H636  1  0.495200  0.377100  0.510000  1
  H  H637  1  0.553600  0.525600  0.490600  1
  H  H638  1  0.446400  0.474400  0.509400  1
  H  H639  1  0.555200  0.564900  0.516500  1
  H  H640  1  0.444800  0.435100  0.483500  1
  H  H641  1  0.643900  0.572500  0.518000  1
  H  H642  1  0.356100  0.427500  0.482000  1
  H  H643  1  0.698800  0.543000  0.490200  1
  H  H644  1  0.301200  0.457000  0.509800  1
  H  H645  1  0.712900  0.608400  0.457200  1
  H  H646  1  0.287100  0.391600  0.542800  1
  H  H647  1  0.677600  0.633800  0.495500  1
  H  H648  1  0.322400  0.366200  0.504500  1
  H  H649  1  0.697500  0.709600  0.424500  1
  H  H650  1  0.302500  0.290400  0.575500  1
  H  H651  1  0.711800  0.664600  0.398000  1
  H  H652  1  0.288200  0.335400  0.602000  1
  H  H653  1  0.672600  0.736700  0.368300  1
  H  H654  1  0.327400  0.263300  0.631700  1
  H  H655  1  0.624000  0.750100  0.405700  1
  H  H656  1  0.376000  0.249900  0.594300  1
  H  H657  1  0.169200  0.320000  0.070000  1
  H  H658  1  0.830800  0.680000  0.930000  1
  H  H659  1  0.131500  0.286300  0.092700  1
  H  H660  1  0.868500  0.713700  0.907300  1
  H  H661  1  0.160200  0.281300  0.146100  1
  H  H662  1  0.839800  0.718700  0.853900  1
  H  H663  1  0.140300  0.338800  0.133600  1
  H  H664  1  0.859700  0.661200  0.866400  1
  H  H665  1  0.212700  0.352000  0.169500  1
  H  H666  1  0.787300  0.648000  0.830500  1
  H  H667  1  0.212800  0.295000  0.179200  1
  H  H668  1  0.787200  0.705000  0.820800  1
  H  H669  1  0.288700  0.301800  0.188200  1
  H  H670  1  0.711300  0.698200  0.811800  1
  H  H671  1  0.304000  0.331200  0.148400  1
  H  H672  1  0.696000  0.668800  0.851600  1
  H  H673  1  0.380600  0.291900  0.101100  1
  H  H674  1  0.619400  0.708100  0.898900  1
  H  H675  1  0.414000  0.236900  0.105700  1
  H  H676  1  0.586000  0.763100  0.894300  1
  H  H677  1  0.410000  0.216100  0.050900  1
  H  H678  1  0.590000  0.783900  0.949100  1
  H  H679  1  0.415400  0.272200  0.041500  1
  H  H680  1  0.584600  0.727800  0.958500  1
  H  H681  1  0.332000  0.258900  0.996800  1
  H  H682  1  0.668000  0.741100  0.003200  1
  H  H683  1  0.327900  0.210200  0.024000  1
  H  H684  1  0.672100  0.789800  0.976000  1
  H  H685  1  0.251500  0.238800  0.004000  1
  H  H686  1  0.748500  0.761200  0.996000  1
  H  H687  1  0.239600  0.292600  0.018700  1
  H  H688  1  0.760400  0.707400  0.981300  1
  H  H689  1  0.431500  0.675100  0.918100  1
  H  H690  1  0.568500  0.324900  0.081900  1
  H  H691  1  0.413800  0.650100  0.959800  1
  H  H692  1  0.586200  0.349900  0.040200  1
  H  H693  1  0.331800  0.697400  0.970800  1
  H  H694  1  0.668200  0.302600  0.029200  1
  H  H695  1  0.347500  0.673300  0.931700  1
  H  H696  1  0.652500  0.326700  0.068300  1
  H  H697  1  0.247100  0.768400  0.920800  1
  H  H698  1  0.752900  0.231600  0.079200  1
  H  H699  1  0.245800  0.775600  0.962200  1
  H  H700  1  0.754200  0.224400  0.037800  1
  H  H701  1  0.204600  0.847900  0.947000  1
  H  H702  1  0.795400  0.152100  0.053000  1
  H  H703  1  0.239900  0.844900  0.903700  1
  H  H704  1  0.760100  0.155100  0.096300  1
  H  H705  1  0.295800  0.890100  0.874100  1
  H  H706  1  0.704200  0.109900  0.125900  1
  H  H707  1  0.316100  0.925600  0.891400  1
  H  H708  1  0.683900  0.074400  0.108600  1
  H  H709  1  0.388200  0.883200  0.856200  1
  H  H710  1  0.611800  0.116800  0.143800  1
  H  H711  1  0.368600  0.834800  0.862200  1
  H  H712  1  0.631400  0.165200  0.137800  1
  H  H713  1  0.447200  0.763400  0.877300  1
  H  H714  1  0.552800  0.236600  0.122700  1
  H  H715  1  0.489700  0.786900  0.881000  1
  H  H716  1  0.510300  0.213100  0.119000  1
  H  H717  1  0.498300  0.744200  0.929700  1
  H  H718  1  0.501700  0.255800  0.070300  1
  H  H719  1  0.485000  0.707400  0.908600  1
  H  H720  1  0.515000  0.292600  0.091400  1
  H  H721  1  0.147600  0.543500  0.380300  1
  H  H722  1  0.852400  0.456500  0.619700  1
  H  H723  1  0.107800  0.592200  0.367900  1
  H  H724  1  0.892200  0.407800  0.632100  1
  H  H725  1  0.154600  0.577900  0.301400  1
  H  H726  1  0.845400  0.422100  0.698600  1
  H  H727  1  0.140700  0.527500  0.320200  1
  H  H728  1  0.859300  0.472500  0.679800  1
  H  H729  1  0.231200  0.482800  0.255900  1
  H  H730  1  0.768800  0.517200  0.744100  1
  H  H731  1  0.236200  0.538400  0.244800  1
  H  H732  1  0.763800  0.461600  0.755200  1
  H  H733  1  0.325100  0.480600  0.222400  1
  H  H734  1  0.674900  0.519400  0.777600  1
  H  H735  1  0.319400  0.455500  0.263900  1
  H  H736  1  0.680600  0.544500  0.736100  1
  H  H737  1  0.394400  0.455300  0.273500  1
  H  H738  1  0.605600  0.544700  0.726500  1
  H  H739  1  0.407000  0.499100  0.287800  1
  H  H740  1  0.593000  0.500900  0.712200  1
  H  H741  1  0.369600  0.455500  0.340600  1
  H  H742  1  0.630400  0.544500  0.659400  1
  H  H743  1  0.321200  0.458400  0.325800  1
  H  H744  1  0.678800  0.541600  0.674200  1
  H  H745  1  0.238400  0.509700  0.379300  1
  H  H746  1  0.761600  0.490300  0.620700  1
  H  H747  1  0.267300  0.515500  0.408000  1
  H  H748  1  0.732700  0.484500  0.592000  1
  H  H749  1  0.231700  0.602600  0.403600  1
  H  H750  1  0.768300  0.397400  0.596400  1
  H  H751  1  0.186000  0.575200  0.419300  1
  H  H752  1  0.814000  0.424800  0.580700  1
  H  H753  1  0.699000  0.874400  0.225300  1
  H  H754  1  0.301000  0.125600  0.774700  1
  H  H755  1  0.641300  0.883100  0.254600  1
  H  H756  1  0.358700  0.116900  0.745400  1
  H  H757  1  0.638200  0.807500  0.249700  1
  H  H758  1  0.361800  0.192500  0.750300  1
  H  H759  1  0.695600  0.800800  0.252600  1
  H  H760  1  0.304400  0.199200  0.747400  1
  H  H761  1  0.707400  0.705300  0.216700  1
  H  H762  1  0.292600  0.294700  0.783300  1
  H  H763  1  0.649100  0.732400  0.214700  1
  H  H764  1  0.350900  0.267600  0.785300  1
  H  H765  1  0.687100  0.673900  0.171500  1
  H  H766  1  0.312900  0.326100  0.828500  1
  H  H767  1  0.737300  0.695400  0.153600  1
  H  H768  1  0.262700  0.304600  0.846400  1
  H  H769  1  0.741500  0.736500  0.085400  1
  H  H770  1  0.258500  0.263500  0.914600  1
  H  H771  1  0.691400  0.761300  0.070600  1
  H  H772  1  0.308600  0.238700  0.929400  1
  H  H773  1  0.754100  0.802800  0.083600  1
  H  H774  1  0.245900  0.197200  0.916400  1
  H  H775  1  0.709000  0.826200  0.065100  1
  H  H776  1  0.291000  0.173800  0.934900  1
  H  H777  1  0.736200  0.900900  0.111300  1
  H  H778  1  0.263800  0.099100  0.888700  1
  H  H779  1  0.680300  0.925800  0.106200  1
  H  H780  1  0.319700  0.074200  0.893800  1
  H  H781  1  0.665300  0.961800  0.153200  1
  H  H782  1  0.334700  0.038200  0.846800  1
  H  H783  1  0.713100  0.923100  0.165500  1
  H  H784  1  0.286900  0.076900  0.834500  1
  Ru  Ru785  1  0.050140  0.162880  0.045450  1
  Ru  Ru786  1  0.949860  0.837120  0.954550  1
  Ru  Ru787  1  0.062780  0.252200  0.375190  1
  Ru  Ru788  1  0.937220  0.747800  0.624810  1
  Ru  Ru789  1  0.634380  0.170160  0.340790  1
  Ru  Ru790  1  0.365620  0.829840  0.659210  1
  Ru  Ru791  1  0.607950  0.523950  0.076120  1
  Ru  Ru792  1  0.392050  0.476050  0.923880  1
  Ru  Ru793  1  0.031860  0.609280  0.100460  1
  Ru  Ru794  1  0.968140  0.390720  0.899540  1
  Ru  Ru795  1  0.628780  0.612540  0.412400  1
  Ru  Ru796  1  0.371220  0.387460  0.587600  1
  Ru  Ru797  1  0.915400  0.984610  0.242520  1
  Ru  Ru798  1  0.084600  0.015390  0.757480  1
  Ru  Ru799  1  0.209350  0.992930  0.448470  1
  Ru  Ru800  1  0.790650  0.007070  0.551530  1
  Ru  Ru801  1  0.273070  0.229980  0.108580  1
  Ru  Ru802  1  0.726930  0.770020  0.891420  1
  Ru  Ru803  1  0.344650  0.804010  0.960240  1
  Ru  Ru804  1  0.655350  0.195990  0.039760  1
  Ru  Ru805  1  0.265300  0.580030  0.304710  1
  Ru  Ru806  1  0.734700  0.419970  0.695290  1
  Ru  Ru807  1  0.637220  0.826270  0.165350  1
  Ru  Ru808  1  0.362780  0.173730  0.834650  1
  C  C809  1  0.174600  0.112300  0.053000  1
  C  C810  1  0.825400  0.887700  0.947000  1
  C  C811  1  0.161100  0.073200  0.039700  1
  C  C812  1  0.838900  0.926800  0.960300  1
  C  C813  1  0.070200  0.045800  0.036800  1
  C  C814  1  0.929800  0.954200  0.963200  1
  C  C815  1  0.013000  0.065900  0.043800  1
  C  C816  1  0.987000  0.934100  0.956200  1
  C  C817  1  0.001900  0.133900  0.985000  1
  C  C818  1  0.998100  0.866100  0.015000  1
  C  C819  1  0.061700  0.126300  0.965200  1
  C  C820  1  0.938300  0.873700  0.034800  1
  C  C821  1  0.149600  0.154100  0.969300  1
  C  C822  1  0.850400  0.845900  0.030700  1
  C  C823  1  0.164200  0.181700  0.994100  1
  C  C824  1  0.835800  0.818300  0.005900  1
  C  C825  1  0.174600  0.286100  0.342400  1
  C  C826  1  0.825400  0.713900  0.657600  1
  C  C827  1  0.136900  0.320300  0.370700  1
  C  C828  1  0.863100  0.679700  0.629300  1
  C  C829  1  0.042300  0.325300  0.436000  1
  C  C830  1  0.957700  0.674700  0.564000  1
  C  C831  1  0.003100  0.301400  0.460600  1
  C  C832  1  0.996900  0.698600  0.539400  1
  C  C833  1  0.012900  0.199700  0.459700  1
  C  C834  1  0.987100  0.800300  0.540300  1
  C  C835  1  0.074400  0.177400  0.447900  1
  C  C836  1  0.925600  0.822600  0.552100  1
  C  C837  1  0.165600  0.170400  0.383500  1
  C  C838  1  0.834400  0.829600  0.616500  1
  C  C839  1  0.181200  0.183800  0.340700  1
  C  C840  1  0.818800  0.816200  0.659300  1
  C  C841  1  0.649300  0.082200  0.287300  1
  C  C842  1  0.350700  0.917800  0.712700  1
  C  C843  1  0.634200  0.059600  0.328900  1
  C  C844  1  0.365800  0.940400  0.671100  1
  C  C845  1  0.629300  0.080200  0.403600  1
  C  C846  1  0.370700  0.919800  0.596400  1
  C  C847  1  0.637400  0.115500  0.423500  1
  C  C848  1  0.362600  0.884500  0.576500  1
  C  C849  1  0.549400  0.198200  0.426600  1
  C  C850  1  0.450600  0.801800  0.573400  1
  C  C851  1  0.521700  0.214600  0.395900  1
  C  C852  1  0.478300  0.785400  0.604100  1
  C  C853  1  0.525700  0.193500  0.322800  1
  C  C854  1  0.474300  0.806500  0.677200  1
  C  C855  1  0.560400  0.161300  0.290400  1
  C  C856  1  0.439600  0.838700  0.709600  1
  C  C857  1  0.529400  0.456500  0.078400  1
  C  C858  1  0.470600  0.543500  0.921600  1
  C  C859  1  0.498100  0.510800  0.076300  1
  C  C860  1  0.501900  0.489200  0.923700  1
  C  C861  1  0.495400  0.607700  0.086500  1
  C  C862  1  0.504600  0.392300  0.913500  1
  C  C863  1  0.526600  0.635400  0.097400  1
  C  C864  1  0.473400  0.364600  0.902600  1
  C  C865  1  0.611000  0.634600  0.030400  1
  C  C866  1  0.389000  0.365400  0.969600  1
  C  C867  1  0.640500  0.588500  0.003400  1
  C  C868  1  0.359500  0.411500  0.996600  1
  C  C869  1  0.640600  0.492600  0.995500  1
  C  C870  1  0.359400  0.507400  0.004500  1
  C  C871  1  0.614000  0.448600  0.014500  1
  C  C872  1  0.386000  0.551400  0.985500  1
  C  C873  1  0.154600  0.577200  0.048400  1
  C  C874  1  0.845400  0.422800  0.951600  1
  C  C875  1  0.133200  0.634500  0.041800  1
  C  C876  1  0.866800  0.365500  0.958200  1
  C  C877  1  0.039100  0.711400  0.054600  1
  C  C878  1  0.960900  0.288600  0.945400  1
  C  C879  1  0.980200  0.720300  0.070700  1
  C  C880  1  0.019800  0.279700  0.929300  1
  C  C881  1  0.965500  0.712500  0.147800  1
  C  C882  1  0.034500  0.287500  0.852200  1
  C  C883  1  0.003800  0.679900  0.166300  1
  C  C884  1  0.996200  0.320100  0.833700  1
  C  C885  1  0.098100  0.601300  0.156700  1
  C  C886  1  0.901900  0.398700  0.843300  1
  C  C887  1  0.141300  0.567900  0.125800  1
  C  C888  1  0.858700  0.432100  0.874200  1
  C  C889  1  0.545700  0.711600  0.395400  1
  C  C890  1  0.454300  0.288400  0.604600  1
  C  C891  1  0.521400  0.700700  0.439600  1
  C  C892  1  0.478600  0.299300  0.560400  1
  C  C893  1  0.524700  0.625300  0.487900  1
  C  C894  1  0.475300  0.374700  0.512100  1
  C  C895  1  0.561000  0.569700  0.490600  1
  C  C896  1  0.439000  0.430300  0.509400  1
  C  C897  1  0.649800  0.580900  0.495700  1
  C  C898  1  0.350200  0.419100  0.504300  1
  C  C899  1  0.645500  0.634400  0.492700  1
  C  C900  1  0.354500  0.365600  0.507300  1
  C  C901  1  0.637600  0.716300  0.436100  1
  C  C902  1  0.362400  0.283700  0.563900  1
  C  C903  1  0.635500  0.728900  0.397100  1
  C  C904  1  0.364500  0.271100  0.602900  1
  C  C905  1  0.043500  0.165800  0.127400  1
  C  C906  1  0.956500  0.834200  0.872600  1
  C  C907  1  0.019900  0.168500  0.166600  1
  C  C908  1  0.980100  0.831500  0.833400  1
  C  C909  1  0.969700  0.169300  0.182500  1
  C  C910  1  0.030300  0.830700  0.817500  1
  C  C911  1  0.941900  0.168400  0.159600  1
  C  C912  1  0.058100  0.831600  0.840400  1
  C  C913  1  0.965400  0.165000  0.121200  1
  C  C914  1  0.034600  0.835000  0.878800  1
  C  C915  1  0.993100  0.198300  0.359700  1
  C  C916  1  0.006900  0.801700  0.640300  1
  C  C917  1  0.966100  0.184800  0.339500  1
  C  C918  1  0.033900  0.815200  0.660500  1
  C  C919  1  0.978100  0.192900  0.302800  1
  C  C920  1  0.021900  0.807100  0.697200  1
  C  C921  1  0.019700  0.213800  0.284600  1
  C  C922  1  0.980300  0.786200  0.715400  1
  C  C923  1  0.044000  0.226400  0.306100  1
  C  C924  1  0.956000  0.773600  0.693900  1
  C  C925  1  0.734400  0.185000  0.284300  1
  C  C926  1  0.265600  0.815000  0.715700  1
  C  C927  1  0.786500  0.185300  0.270000  1
  C  C928  1  0.213500  0.814700  0.730000  1
  C  C929  1  0.820200  0.170700  0.291700  1
  C  C930  1  0.179800  0.829300  0.708300  1
  C  C931  1  0.798700  0.156400  0.328300  1
  C  C932  1  0.201300  0.843600  0.671700  1
  C  C933  1  0.748100  0.157100  0.341000  1
  C  C934  1  0.251900  0.842900  0.659000  1
  C  C935  1  0.944400  0.172700  0.223700  1
  C  C936  1  0.055600  0.827300  0.776300  1
  C  C937  1  0.949400  0.181200  0.280700  1
  C  C938  1  0.050600  0.818800  0.719300  1
  C  C939  1  0.875100  0.171200  0.275300  1
  C  C940  1  0.124900  0.828800  0.724700  1
  C  C941  1  0.958900  0.256200  0.048000  1
  C  C942  1  0.041100  0.743800  0.952000  1
  C  C943  1  0.932200  0.304800  0.047300  1
  C  C944  1  0.067800  0.695200  0.952700  1
  C  C945  1  0.958100  0.340700  0.041400  1
  C  C946  1  0.041900  0.659300  0.958600  1
  C  C947  1  0.011500  0.323800  0.035800  1
  C  C948  1  0.988500  0.676200  0.964200  1
  C  C949  1  0.034300  0.274500  0.037600  1
  C  C950  1  0.965700  0.725500  0.962400  1
  C  C951  1  0.718400  0.532900  0.063100  1
  C  C952  1  0.281600  0.467100  0.936900  1
  C  C953  1  0.770900  0.520200  0.058300  1
  C  C954  1  0.229100  0.479800  0.941700  1
  C  C955  1  0.799000  0.471800  0.053100  1
  C  C956  1  0.201000  0.528200  0.946900  1
  C  C957  1  0.771800  0.440000  0.050500  1
  C  C958  1  0.228200  0.560000  0.949500  1
  C  C959  1  0.720100  0.455900  0.055900  1
  C  C960  1  0.279900  0.544100  0.944100  1
  C  C961  1  0.031100  0.525300  0.059000  1
  C  C962  1  0.968900  0.474700  0.941000  1
  C  C963  1  0.010200  0.493600  0.049800  1
  C  C964  1  0.989800  0.506400  0.950200  1
  C  C965  1  0.956800  0.507200  0.052900  1
  C  C966  1  0.043200  0.492800  0.947100  1
  C  C967  1  0.929300  0.554100  0.062500  1
  C  C968  1  0.070700  0.445900  0.937500  1
  C  C969  1  0.952300  0.583500  0.072400  1
  C  C970  1  0.047700  0.416500  0.927600  1
  C  C971  1  0.931000  0.394300  0.041000  1
  C  C972  1  0.069000  0.605700  0.959000  1
  C  C973  1  0.856000  0.455700  0.047900  1
  C  C974  1  0.144000  0.544300  0.952100  1
  C  C975  1  0.930200  0.471600  0.046700  1
  C  C976  1  0.069800  0.528400  0.953300  1
  C  C977  1  0.600800  0.586300  0.347100  1
  C  C978  1  0.399200  0.413700  0.652900  1
  C  C979  1  0.600000  0.557400  0.321300  1
  C  C980  1  0.400000  0.442600  0.678700  1
  C  C981  1  0.609100  0.507600  0.327900  1
  C  C982  1  0.390900  0.492400  0.672100  1
  C  C983  1  0.621100  0.490400  0.360800  1
  C  C984  1  0.378900  0.509600  0.639200  1
  C  C985  1  0.623300  0.521200  0.385000  1
  C  C986  1  0.376700  0.478800  0.615000  1
  C  C987  1  0.619200  0.457600  0.146100  1
  C  C988  1  0.380800  0.542400  0.853900  1
  C  C989  1  0.618400  0.442000  0.180000  1
  C  C990  1  0.381600  0.558000  0.820000  1
  C  C991  1  0.608900  0.475100  0.206100  1
  C  C992  1  0.391100  0.524900  0.793900  1
  C  C993  1  0.599100  0.524800  0.192900  1
  C  C994  1  0.400900  0.475200  0.807100  1
  C  C995  1  0.600000  0.536400  0.156700  1
  C  C996  1  0.400000  0.463600  0.843300  1
  C  C997  1  0.621400  0.279300  0.347700  1
  C  C998  1  0.378600  0.720700  0.652300  1
  C  C999  1  0.618000  0.327000  0.336900  1
  C  C1000  1  0.382000  0.673000  0.663100  1
  C  C1001  1  0.612100  0.346800  0.303600  1
  C  C1002  1  0.387900  0.653200  0.696400  1
  C  C1003  1  0.608600  0.314400  0.280600  1
  C  C1004  1  0.391400  0.685600  0.719400  1
  C  C1005  1  0.611100  0.266700  0.292200  1
  C  C1006  1  0.388900  0.733300  0.707800  1
  C  C1007  1  0.608600  0.474600  0.302900  1
  C  C1008  1  0.391400  0.525400  0.697100  1
  C  C1009  1  0.608800  0.460000  0.245000  1
  C  C1010  1  0.391200  0.540000  0.755000  1
  C  C1011  1  0.611300  0.399100  0.290800  1
  C  C1012  1  0.388700  0.600900  0.709200  1
  C  C1013  1  0.739700  0.543300  0.393300  1
  C  C1014  1  0.260300  0.456700  0.606700  1
  C  C1015  1  0.790100  0.520200  0.371800  1
  C  C1016  1  0.209900  0.479800  0.628200  1
  C  C1017  1  0.809500  0.536000  0.335800  1
  C  C1018  1  0.190500  0.464000  0.664200  1
  C  C1019  1  0.778000  0.579600  0.325300  1
  C  C1020  1  0.222000  0.420400  0.674700  1
  C  C1021  1  0.730700  0.601100  0.346500  1
  C  C1022  1  0.269300  0.398900  0.653500  1
  C  C1023  1  0.046600  0.344300  0.320900  1
  C  C1024  1  0.953400  0.655700  0.679100  1
  C  C1025  1  0.019600  0.385100  0.304200  1
  C  C1026  1  0.980400  0.614900  0.695800  1
  C  C1027  1  0.967700  0.403900  0.319600  1
  C  C1028  1  0.032300  0.596100  0.680400  1
  C  C1029  1  0.941400  0.382000  0.350300  1
  C  C1030  1  0.058600  0.618000  0.649700  1
  C  C1031  1  0.973600  0.337600  0.366500  1
  C  C1032  1  0.026400  0.662400  0.633500  1
  C  C1033  1  0.948100  0.590300  0.171500  1
  C  C1034  1  0.051900  0.409700  0.828500  1
  C  C1035  1  0.922700  0.572000  0.206000  1
  C  C1036  1  0.077300  0.428000  0.794000  1
  C  C1037  1  0.952300  0.528200  0.219400  1
  C  C1038  1  0.047700  0.471800  0.780600  1
  C  C1039  1  0.001500  0.505500  0.197900  1
  C  C1040  1  0.998500  0.494500  0.802100  1
  C  C1041  1  0.022300  0.528400  0.163400  1
  C  C1042  1  0.977700  0.471600  0.836600  1
  C  C1043  1  0.863300  0.512500  0.312600  1
  C  C1044  1  0.136700  0.487500  0.687400  1
  C  C1045  1  0.936800  0.450300  0.304900  1
  C  C1046  1  0.063200  0.549700  0.695100  1
  C  C1047  1  0.928400  0.507300  0.258200  1
  C  C1048  1  0.071600  0.492700  0.741800  1
  C  C1049  1  0.884500  0.994800  0.163100  1
  C  C1050  1  0.115500  0.005200  0.836900  1
  C  C1051  1  0.886100  0.943600  0.180500  1
  C  C1052  1  0.113900  0.056400  0.819500  1
  C  C1053  1  0.883400  0.885400  0.249800  1
  C  C1054  1  0.116600  0.114600  0.750200  1
  C  C1055  1  0.874600  0.888900  0.290100  1
  C  C1056  1  0.125400  0.111100  0.709900  1
  C  C1057  1  0.836800  0.978500  0.327600  1
  C  C1058  1  0.163200  0.021500  0.672400  1
  C  C1059  1  0.802100  0.011700  0.305700  1
  C  C1060  1  0.197900  0.988300  0.694300  1
  C  C1061  1  0.814700  0.068800  0.233800  1
  C  C1062  1  0.185300  0.931200  0.766200  1
  C  C1063  1  0.853600  0.082500  0.202100  1
  C  C1064  1  0.146400  0.917500  0.797900  1
  C  C1065  1  0.233800  0.092700  0.461900  1
  C  C1066  1  0.766200  0.907300  0.538100  1
  C  C1067  1  0.194100  0.084100  0.498000  1
  C  C1068  1  0.805900  0.915900  0.502000  1
  C  C1069  1  0.116900  0.029900  0.523900  1
  C  C1070  1  0.883100  0.970100  0.476100  1
  C  C1071  1  0.095300  0.994400  0.512900  1
  C  C1072  1  0.904700  0.005600  0.487100  1
  C  C1073  1  0.173500  0.904400  0.509700  1
  C  C1074  1  0.826500  0.095600  0.490300  1
  C  C1075  1  0.228300  0.897800  0.501400  1
  C  C1076  1  0.771700  0.102200  0.498600  1
  C  C1077  1  0.308700  0.950000  0.477800  1
  C  C1078  1  0.691300  0.050000  0.522200  1
  C  C1079  1  0.315500  0.001800  0.464600  1
  C  C1080  1  0.684500  0.998200  0.535400  1
  C  C1081  1  0.163200  0.292200  0.083200  1
  C  C1082  1  0.836800  0.707800  0.916800  1
  C  C1083  1  0.180000  0.328900  0.098500  1
  C  C1084  1  0.820000  0.671100  0.901500  1
  C  C1085  1  0.253400  0.340200  0.134800  1
  C  C1086  1  0.746600  0.659800  0.865200  1
  C  C1087  1  0.290400  0.308500  0.156100  1
  C  C1088  1  0.709600  0.691500  0.843900  1
  C  C1089  1  0.379300  0.264600  0.101200  1
  C  C1090  1  0.620700  0.735400  0.898800  1
  C  C1091  1  0.362600  0.290100  0.067200  1
  C  C1092  1  0.637400  0.709900  0.932800  1
  C  C1093  1  0.293100  0.288000  0.025100  1
  C  C1094  1  0.706900  0.712000  0.974900  1
  C  C1095  1  0.257400  0.257500  0.024500  1
  C  C1096  1  0.742600  0.742500  0.975500  1
  C  C1097  1  0.396500  0.686700  0.945000  1
  C  C1098  1  0.603500  0.313300  0.055000  1
  C  C1099  1  0.366100  0.704100  0.919600  1
  C  C1100  1  0.633900  0.295900  0.080400  1
  C  C1101  1  0.282300  0.786900  0.906700  1
  C  C1102  1  0.717700  0.213100  0.093300  1
  C  C1103  1  0.252000  0.835300  0.919100  1
  C  C1104  1  0.748000  0.164700  0.080900  1
  C  C1105  1  0.326600  0.892500  0.895300  1
  C  C1106  1  0.673400  0.107500  0.104700  1
  C  C1107  1  0.381300  0.875400  0.893000  1
  C  C1108  1  0.618700  0.124600  0.107000  1
  C  C1109  1  0.460900  0.795200  0.910300  1
  C  C1110  1  0.539100  0.204800  0.089700  1
  C  C1111  1  0.472500  0.746700  0.927300  1
  C  C1112  1  0.527500  0.253300  0.072700  1
  C  C1113  1  0.146700  0.574800  0.349900  1
  C  C1114  1  0.853300  0.425200  0.650100  1
  C  C1115  1  0.180700  0.520700  0.334600  1
  C  C1116  1  0.819300  0.479300  0.665400  1
  C  C1117  1  0.264200  0.480300  0.278000  1
  C  C1118  1  0.735800  0.519700  0.722000  1
  C  C1119  1  0.311700  0.491300  0.242400  1
  C  C1120  1  0.688300  0.508700  0.757600  1
  C  C1121  1  0.378500  0.493300  0.289600  1
  C  C1122  1  0.621500  0.506700  0.710400  1
  C  C1123  1  0.361900  0.512800  0.327900  1
  C  C1124  1  0.638100  0.487200  0.672100  1
  C  C1125  1  0.271300  0.561500  0.386400  1
  C  C1126  1  0.728700  0.438500  0.613600  1
  C  C1127  1  0.212600  0.574100  0.397000  1
  C  C1128  1  0.787400  0.425900  0.603000  1
  C  C1129  1  0.666500  0.875600  0.230900  1
  C  C1130  1  0.333500  0.124400  0.769100  1
  C  C1131  1  0.700100  0.825700  0.225500  1
  C  C1132  1  0.299900  0.174300  0.774500  1
  C  C1133  1  0.723700  0.735200  0.185900  1
  C  C1134  1  0.276300  0.264800  0.814100  1
  C  C1135  1  0.702400  0.710200  0.166900  1
  C  C1136  1  0.297600  0.289800  0.833100  1
  C  C1137  1  0.721300  0.756700  0.097400  1
  C  C1138  1  0.278700  0.243300  0.902600  1
  C  C1139  1  0.749800  0.790000  0.101100  1
  C  C1140  1  0.250200  0.210000  0.898900  1
  C  C1141  1  0.734100  0.880400  0.133200  1
  C  C1142  1  0.265900  0.119600  0.866800  1
  C  C1143  1  0.691100  0.915900  0.157700  1
  C  C1144  1  0.308900  0.084100  0.842300  1
  C  C1145  1  0.962500  0.028800  0.288800  1
  C  C1146  1  0.037500  0.971200  0.711200  1
  C  C1147  1  0.997800  0.047500  0.295000  1
  C  C1148  1  0.002200  0.952500  0.705000  1
  C  C1149  1  0.037100  0.060000  0.265400  1
  C  C1150  1  0.962900  0.940000  0.734600  1
  C  C1151  1  0.037000  0.054200  0.230000  1
  C  C1152  1  0.963000  0.945800  0.770000  1
  C  C1153  1  0.001900  0.035300  0.225000  1
  C  C1154  1  0.998100  0.964700  0.775000  1
  C  C1155  1  0.215100  0.036400  0.368900  1
  C  C1156  1  0.784900  0.963600  0.631100  1
  C  C1157  1  0.199200  0.055100  0.338500  1
  C  C1158  1  0.800800  0.944900  0.661500  1
  C  C1159  1  0.146000  0.061600  0.339400  1
  C  C1160  1  0.854000  0.938400  0.660600  1
  C  C1161  1  0.112300  0.049500  0.373300  1
  C  C1162  1  0.887700  0.950500  0.626700  1
  C  C1163  1  0.130800  0.032300  0.403200  1
  C  C1164  1  0.869200  0.967700  0.596800  1
  C  C1165  1  0.192200  0.177400  0.154100  1
  C  C1166  1  0.807800  0.822600  0.845900  1
  C  C1167  1  0.164600  0.151900  0.183200  1
  C  C1168  1  0.835400  0.848100  0.816800  1
  C  C1169  1  0.170600  0.145600  0.217000  1
  C  C1170  1  0.829400  0.854400  0.783000  1
  C  C1171  1  0.205000  0.167400  0.220300  1
  C  C1172  1  0.795000  0.832600  0.779700  1
  C  C1173  1  0.232300  0.191900  0.189600  1
  C  C1174  1  0.767700  0.808100  0.810400  1
  C  C1175  1  0.078600  0.077300  0.270900  1
  C  C1176  1  0.921400  0.922700  0.729100  1
  C  C1177  1  0.129400  0.078200  0.306000  1
  C  C1178  1  0.870600  0.921800  0.694000  1
  C  C1179  1  0.143000  0.116400  0.247100  1
  C  C1180  1  0.857000  0.883600  0.752900  1
  C  C1181  1  0.010700  0.925300  0.182500  1
  C  C1182  1  0.989300  0.074700  0.817500  1
  C  C1183  1  0.057800  0.890700  0.166300  1
  C  C1184  1  0.942200  0.109300  0.833700  1
  C  C1185  1  0.081000  0.858700  0.191000  1
  C  C1186  1  0.919000  0.141300  0.809000  1
  C  C1187  1  0.059000  0.864500  0.229600  1
  C  C1188  1  0.941000  0.135500  0.770400  1
  C  C1189  1  0.012300  0.899900  0.241700  1
  C  C1190  1  0.987700  0.100100  0.758300  1
  C  C1191  1  0.304100  0.754500  0.037300  1
  C  C1192  1  0.695900  0.245500  0.962700  1
  C  C1193  1  0.275200  0.749800  0.075100  1
  C  C1194  1  0.724800  0.250200  0.924900  1
  C  C1195  1  0.233600  0.789200  0.090100  1
  C  C1196  1  0.766400  0.210800  0.909900  1
  C  C1197  1  0.221000  0.828200  0.066700  1
  C  C1198  1  0.779000  0.171800  0.933300  1
  C  C1199  1  0.251000  0.829800  0.029600  1
  C  C1200  1  0.749000  0.170200  0.970400  1
  C  C1201  1  0.191500  0.665600  0.274500  1
  C  C1202  1  0.808500  0.334400  0.725500  1
  C  C1203  1  0.174200  0.703200  0.249400  1
  C  C1204  1  0.825800  0.296800  0.750600  1
  C  C1205  1  0.205800  0.709500  0.214500  1
  C  C1206  1  0.794200  0.290500  0.785500  1
  C  C1207  1  0.250300  0.670800  0.202800  1
  C  C1208  1  0.749700  0.329200  0.797200  1
  C  C1209  1  0.263800  0.633000  0.229400  1
  C  C1210  1  0.736200  0.367000  0.770600  1
  C  C1211  1  0.131200  0.818600  0.177000  1
  C  C1212  1  0.868800  0.181400  0.823000  1
  C  C1213  1  0.203000  0.786500  0.129800  1
  C  C1214  1  0.797000  0.213500  0.870200  1
  C  C1215  1  0.190100  0.749200  0.188400  1
  C  C1216  1  0.809900  0.250800  0.811600  1
  C  C1217  1  0.565200  0.839700  0.119100  1
  C  C1218  1  0.434800  0.160300  0.880900  1
  C  C1219  1  0.524400  0.863100  0.102100  1
  C  C1220  1  0.475600  0.136900  0.897900  1
  C  C1221  1  0.503000  0.911700  0.103400  1
  C  C1222  1  0.497000  0.088300  0.896600  1
  C  C1223  1  0.525300  0.938100  0.118200  1
  C  C1224  1  0.474700  0.061900  0.881800  1
  C  C1225  1  0.565500  0.913400  0.133100  1
  C  C1226  1  0.434500  0.086600  0.866900  1
  C  C1227  1  0.353600  0.898600  0.985900  1
  C  C1228  1  0.646400  0.101400  0.014100  1
  C  C1229  1  0.365600  0.926700  0.006300  1
  C  C1230  1  0.634400  0.073300  0.993700  1
  C  C1231  1  0.395500  0.905100  0.028900  1
  C  C1232  1  0.604500  0.094900  0.971100  1
  C  C1233  1  0.413000  0.854700  0.030200  1
  C  C1234  1  0.587000  0.145300  0.969800  1
  C  C1235  1  0.400000  0.828300  0.008200  1
  C  C1236  1  0.600000  0.171700  0.991800  1
  C  C1237  1  0.347600  0.129700  0.116900  1
  C  C1238  1  0.652400  0.870300  0.883100  1
  C  C1239  1  0.374200  0.081100  0.110600  1
  C  C1240  1  0.625800  0.918900  0.889400  1
  C  C1241  1  0.371900  0.057100  0.083100  1
  C  C1242  1  0.628100  0.942900  0.916900  1
  C  C1243  1  0.341900  0.085000  0.061400  1
  C  C1244  1  0.658100  0.915000  0.938600  1
  C  C1245  1  0.314800  0.133400  0.069200  1
  C  C1246  1  0.685200  0.866600  0.930800  1
  C  C1247  1  0.461200  0.936200  0.086200  1
  C  C1248  1  0.538800  0.063800  0.913800  1
  C  C1249  1  0.409800  0.933500  0.051900  1
  C  C1250  1  0.590200  0.066500  0.948100  1
  C  C1251  1  0.399300  0.005100  0.076300  1
  C  C1252  1  0.600700  0.994900  0.923700  1
  C  C1253  1  0.532600  0.849800  0.224900  1
  C  C1254  1  0.467400  0.150200  0.775100  1
  C  C1255  1  0.485300  0.847200  0.250000  1
  C  C1256  1  0.514700  0.152800  0.750000  1
  C  C1257  1  0.474200  0.802100  0.256700  1
  C  C1258  1  0.525800  0.197900  0.743300  1
  C  C1259  1  0.510300  0.763000  0.236600  1
  C  C1260  1  0.489700  0.237000  0.763400  1
  C  C1261  1  0.556900  0.771900  0.211600  1
  C  C1262  1  0.443100  0.228100  0.788400  1
  C  C1263  1  0.242100  0.900800  0.404800  1
  C  C1264  1  0.757900  0.099200  0.595200  1
  C  C1265  1  0.268900  0.866400  0.379000  1
  C  C1266  1  0.731100  0.133600  0.621000  1
  C  C1267  1  0.318200  0.864600  0.358200  1
  C  C1268  1  0.681800  0.135400  0.641800  1
  C  C1269  1  0.338100  0.902200  0.363900  1
  C  C1270  1  0.661900  0.097800  0.636100  1
  C  C1271  1  0.308300  0.935400  0.389900  1
  C  C1272  1  0.691700  0.064600  0.610100  1
  C  C1273  1  0.351400  0.633300  0.289300  1
  C  C1274  1  0.648600  0.366700  0.710700  1
  C  C1275  1  0.371700  0.671900  0.288500  1
  C  C1276  1  0.628300  0.328100  0.711500  1
  C  C1277  1  0.342300  0.712800  0.305800  1
  C  C1278  1  0.657700  0.287200  0.694200  1
  C  C1279  1  0.290100  0.715200  0.320900  1
  C  C1280  1  0.709900  0.284800  0.679100  1
  C  C1281  1  0.270900  0.677400  0.322400  1
  C  C1282  1  0.729100  0.322600  0.677600  1
  C  C1283  1  0.424100  0.796200  0.283700  1
  C  C1284  1  0.575900  0.203800  0.716300  1
  C  C1285  1  0.351500  0.825900  0.330600  1
  C  C1286  1  0.648500  0.174100  0.669400  1
  C  C1287  1  0.362600  0.755400  0.306400  1
  C  C1288  1  0.637400  0.244600  0.693600  1
  C  C1289  1  0.164700  0.108700  0.055400  1
  C  C1290  1  0.835300  0.891300  0.944600  1
  C  C1291  1  0.133200  0.073400  0.072400  1
  C  C1292  1  0.866800  0.926600  0.927600  1
  C  C1293  1  0.039400  0.052900  0.069700  1
  C  C1294  1  0.960600  0.947100  0.930300  1
  C  C1295  1  0.996200  0.067400  0.052800  1
  C  C1296  1  0.003800  0.932600  0.947200  1
  C  C1297  1  0.530200  0.452200  0.085100  1
  C  C1298  1  0.469800  0.547800  0.914900  1
  C  C1299  1  0.500500  0.497400  0.108900  1
  C  C1300  1  0.499500  0.502600  0.891100  1
  C  C1301  1  0.499900  0.597500  0.111800  1
  C  C1302  1  0.500100  0.402500  0.888200  1
  C  C1303  1  0.526600  0.637900  0.093300  1
  C  C1304  1  0.473400  0.362100  0.906700  1
  C  C1305  1  0.617800  0.626100  0.028600  1
  C  C1306  1  0.382200  0.373900  0.971400  1
  C  C1307  1  0.596500  0.598700  0.004900  1
  C  C1308  1  0.403500  0.401300  0.995100  1
  C  C1309  1  0.589800  0.509200  0.997400  1
  C  C1310  1  0.410200  0.490800  0.002600  1
  C  C1311  1  0.609000  0.454200  0.014900  1
  C  C1312  1  0.391000  0.545800  0.985100  1
  C  C1313  1  0.548300  0.722800  0.389300  1
  C  C1314  1  0.451700  0.277200  0.610700  1
  C  C1315  1  0.517900  0.688000  0.419800  1
  C  C1316  1  0.482100  0.312000  0.580200  1
  C  C1317  1  0.527700  0.601000  0.469300  1
  C  C1318  1  0.472300  0.399000  0.530700  1
  C  C1319  1  0.562000  0.557000  0.490300  1
  C  C1320  1  0.438000  0.443000  0.509700  1
  C  C1321  1  0.665600  0.569100  0.491400  1
  C  C1322  1  0.334400  0.430900  0.508600  1
  C  C1323  1  0.676700  0.616700  0.474800  1
  C  C1324  1  0.323300  0.383300  0.525200  1
  C  C1325  1  0.682700  0.690200  0.413300  1
  C  C1326  1  0.317300  0.309800  0.586700  1
  C  C1327  1  0.650000  0.722500  0.390600  1
  C  C1328  1  0.350000  0.277500  0.609400  1
  C  C1329  1  0.165800  0.292200  0.088900  1
  C  C1330  1  0.834200  0.707800  0.911100  1
  C  C1331  1  0.166800  0.307000  0.125800  1
  C  C1332  1  0.833200  0.693000  0.874200  1
  C  C1333  1  0.231300  0.317800  0.161600  1
  C  C1334  1  0.768700  0.682200  0.838400  1
  C  C1335  1  0.288000  0.304500  0.161900  1
  C  C1336  1  0.712000  0.695500  0.838100  1
  C  C1337  1  0.382000  0.257000  0.099500  1
  C  C1338  1  0.618000  0.743000  0.900500  1
  C  C1339  1  0.393800  0.251000  0.057900  1
  C  C1340  1  0.606200  0.749000  0.942100  1
  C  C1341  1  0.312000  0.246000  0.021200  1
  C  C1342  1  0.688000  0.754000  0.978800  1
  C  C1343  1  0.255000  0.257000  0.023400  1
  C  C1344  1  0.745000  0.743000  0.976600  1
  C  C1345  1  0.407000  0.680800  0.944000  1
  C  C1346  1  0.593000  0.319200  0.056000  1
  C  C1347  1  0.353900  0.697800  0.944200  1
  C  C1348  1  0.646100  0.302200  0.055800  1
  C  C1349  1  0.260900  0.784500  0.935300  1
  C  C1350  1  0.739100  0.215500  0.064700  1
  C  C1351  1  0.240900  0.836700  0.929900  1
  C  C1352  1  0.759100  0.163300  0.070100  1
  C  C1353  1  0.316300  0.890800  0.890800  1
  C  C1354  1  0.683700  0.109200  0.109200  1
  C  C1355  1  0.369300  0.862100  0.875400  1
  C  C1356  1  0.630700  0.137900  0.124600  1
  C  C1357  1  0.456800  0.778000  0.895400  1
  C  C1358  1  0.543200  0.222000  0.104600  1
  C  C1359  1  0.470400  0.738900  0.921500  1
  C  C1360  1  0.529600  0.261100  0.078500  1
  C  C1361  1  0.144500  0.571000  0.361100  1
  C  C1362  1  0.855500  0.429000  0.638900  1
  C  C1363  1  0.161600  0.550100  0.319800  1
  C  C1364  1  0.838400  0.449900  0.680200  1
  C  C1365  1  0.246600  0.507800  0.260000  1
  C  C1366  1  0.753400  0.492200  0.740000  1
  C  C1367  1  0.310000  0.487000  0.249500  1
  C  C1368  1  0.690000  0.513000  0.750500  1
  C  C1369  1  0.378300  0.486500  0.286800  1
  C  C1370  1  0.621700  0.513500  0.713200  1
  C  C1371  1  0.346500  0.476100  0.326000  1
  C  C1372  1  0.653500  0.523900  0.674000  1
  C  C1373  1  0.255100  0.531600  0.386200  1
  C  C1374  1  0.744900  0.468400  0.613800  1
  C  C1375  1  0.215300  0.580100  0.397100  1
  C  C1376  1  0.784700  0.419900  0.602900  1
  C  C1377  1  0.664600  0.867400  0.230900  1
  C  C1378  1  0.335400  0.132600  0.769100  1
  C  C1379  1  0.672400  0.814500  0.236500  1
  C  C1380  1  0.327600  0.185500  0.763500  1
  C  C1381  1  0.686900  0.727400  0.200800  1
  C  C1382  1  0.313100  0.272600  0.799200  1
  C  C1383  1  0.699000  0.704300  0.166400  1
  C  C1384  1  0.301000  0.295700  0.833600  1
  C  C1385  1  0.707400  0.762200  0.090200  1
  C  C1386  1  0.292600  0.237800  0.909800  1
  C  C1387  1  0.715500  0.810800  0.088900  1
  C  C1388  1  0.284500  0.189200  0.911100  1
  C  C1389  1  0.698800  0.901200  0.122200  1
  C  C1390  1  0.301200  0.098800  0.877800  1
  C  C1391  1  0.682300  0.926300  0.157000  1
  C  C1392  1  0.317700  0.073700  0.843000  1
  S  S1393  1  0.131060  0.173620  0.043900  1
  S  S1394  1  0.868940  0.826380  0.956100  1
  S  S1395  1  0.985320  0.133340  0.035870  1
  S  S1396  1  0.014680  0.866660  0.964130  1
  S  S1397  1  0.079320  0.172940  0.981600  1
  S  S1398  1  0.920680  0.827060  0.018400  1
  S  S1399  1  0.098300  0.082100  0.046000  1
  S  S1400  1  0.901700  0.917900  0.954000  1
  S  S1401  1  0.144250  0.245030  0.328990  1
  S  S1402  1  0.855750  0.754970  0.671010  1
  S  S1403  1  0.097500  0.287550  0.407720  1
  S  S1404  1  0.902500  0.712450  0.592280  1
  S  S1405  1  0.993890  0.257330  0.432640  1
  S  S1406  1  0.006110  0.742670  0.567360  1
  S  S1407  1  0.098200  0.174590  0.396780  1
  S  S1408  1  0.901800  0.825410  0.603220  1
  S  S1409  1  0.630490  0.148950  0.283920  1
  S  S1410  1  0.369510  0.851050  0.716080  1
  S  S1411  1  0.662410  0.087310  0.354120  1
  S  S1412  1  0.337590  0.912690  0.645880  1
  S  S1413  1  0.622090  0.179110  0.404320  1
  S  S1414  1  0.377910  0.820890  0.595680  1
  S  S1415  1  0.548230  0.170090  0.362210  1
  S  S1416  1  0.451770  0.829910  0.637790  1
  S  S1417  1  0.600880  0.447370  0.064320  1
  S  S1418  1  0.399120  0.552630  0.935680  1
  S  S1419  1  0.598570  0.609080  0.078180  1
  S  S1420  1  0.401430  0.390920  0.921820  1
  S  S1421  1  0.516860  0.544690  0.104050  1
  S  S1422  1  0.483140  0.455310  0.895950  1
  S  S1423  1  0.601400  0.547200  0.018190  1
  S  S1424  1  0.398600  0.452800  0.981810  1
  S  S1425  1  0.116270  0.553030  0.091580  1
  S  S1426  1  0.883730  0.446970  0.908420  1
  S  S1427  1  0.066620  0.647400  0.045120  1
  S  S1428  1  0.933380  0.352600  0.954880  1
  S  S1429  1  0.959680  0.681820  0.109600  1
  S  S1430  1  0.040320  0.318180  0.890400  1
  S  S1431  1  0.061710  0.651300  0.131950  1
  S  S1432  1  0.938290  0.348700  0.868050  1
  S  S1433  1  0.614710  0.686800  0.375050  1
  S  S1434  1  0.385290  0.313200  0.624950  1
  S  S1435  1  0.629360  0.552640  0.463270  1
  S  S1436  1  0.370640  0.447360  0.536730  1
  S  S1437  1  0.549100  0.648200  0.451000  1
  S  S1438  1  0.450900  0.351800  0.549000  1
  S  S1439  1  0.669100  0.650100  0.441850  1
  S  S1440  1  0.330900  0.349900  0.558150  1
  S  S1441  1  0.911710  0.029730  0.185350  1
  S  S1442  1  0.088290  0.970270  0.814650  1
  S  S1443  1  0.863290  0.946030  0.229010  1
  S  S1444  1  0.136710  0.053970  0.770990  1
  S  S1445  1  0.897380  0.938150  0.300270  1
  S  S1446  1  0.102620  0.061850  0.699730  1
  S  S1447  1  0.843860  0.045230  0.271250  1
  S  S1448  1  0.156140  0.954770  0.728750  1
  S  S1449  1  0.272970  0.036100  0.436090  1
  S  S1450  1  0.727030  0.963900  0.563910  1
  S  S1451  1  0.151480  0.057460  0.482940  1
  S  S1452  1  0.848520  0.942540  0.517060  1
  S  S1453  1  0.144480  0.950160  0.477940  1
  S  S1454  1  0.855520  0.049840  0.522060  1
  S  S1455  1  0.240000  0.956880  0.497650  1
  S  S1456  1  0.760000  0.043120  0.502350  1
  S  S1457  1  0.218670  0.236460  0.070610  1
  S  S1458  1  0.781330  0.763540  0.929390  1
  S  S1459  1  0.327010  0.245560  0.139510  1
  S  S1460  1  0.672990  0.754440  0.860490  1
  S  S1461  1  0.214900  0.302550  0.131490  1
  S  S1462  1  0.785100  0.697450  0.868510  1
  S  S1463  1  0.331770  0.250820  0.054620  1
  S  S1464  1  0.668230  0.749180  0.945380  1
  S  S1465  1  0.414510  0.733030  0.963790  1
  S  S1466  1  0.585490  0.266970  0.036210  1
  S  S1467  1  0.283010  0.869000  0.939520  1
  S  S1468  1  0.716990  0.131000  0.060480  1
  S  S1469  1  0.307900  0.751000  0.943300  1
  S  S1470  1  0.692100  0.249000  0.056700  1
  S  S1471  1  0.398700  0.809400  0.900900  1
  S  S1472  1  0.601300  0.190600  0.099100  1
  S  S1473  1  0.190810  0.607020  0.356940  1
  S  S1474  1  0.809190  0.392980  0.643060  1
  S  S1475  1  0.338250  0.532120  0.260290  1
  S  S1476  1  0.661750  0.467880  0.739710  1
  S  S1477  1  0.217800  0.535800  0.290600  1
  S  S1478  1  0.782200  0.464200  0.709400  1
  S  S1479  1  0.293400  0.523800  0.347700  1
  S  S1480  1  0.706600  0.476200  0.652300  1
  S  S1481  1  0.635510  0.896770  0.192280  1
  S  S1482  1  0.364490  0.103230  0.807720  1
  S  S1483  1  0.663520  0.749950  0.137070  1
  S  S1484  1  0.336480  0.250050  0.862930  1
  S  S1485  1  0.673800  0.783400  0.212080  1
  S  S1486  1  0.326200  0.216600  0.787920  1
  S  S1487  1  0.711800  0.839200  0.125300  1
  S  S1488  1  0.288200  0.160800  0.874700  1
  S  S1489  1  0.086500  0.079600  0.054600  1
  S  S1490  1  0.913500  0.920400  0.945400  1
  S  S1491  1  0.521500  0.548200  0.080500  1
  S  S1492  1  0.478500  0.451800  0.919500  1
  S  S1493  1  0.630500  0.536300  0.009690  1
  S  S1494  1  0.369500  0.463700  0.990310  1
  S  S1495  1  0.535700  0.637200  0.436200  1
  S  S1496  1  0.464300  0.362800  0.563800  1
  S  S1497  1  0.635700  0.662600  0.449700  1
  S  S1498  1  0.364300  0.337400  0.550300  1
  S  S1499  1  0.232600  0.312500  0.114500  1
  S  S1500  1  0.767400  0.687500  0.885500  1
  S  S1501  1  0.311400  0.277600  0.059400  1
  S  S1502  1  0.688600  0.722400  0.940600  1
  S  S1503  1  0.330300  0.757900  0.923100  1
  S  S1504  1  0.669700  0.242100  0.076900  1
  S  S1505  1  0.406800  0.835600  0.907900  1
  S  S1506  1  0.593200  0.164400  0.092100  1
  S  S1507  1  0.227300  0.519100  0.306400  1
  S  S1508  1  0.772700  0.480900  0.693600  1
  S  S1509  1  0.309900  0.539200  0.347700  1
  S  S1510  1  0.690100  0.460800  0.652300  1
  S  S1511  1  0.701400  0.784700  0.192700  1
  S  S1512  1  0.298600  0.215300  0.807300  1
  S  S1513  1  0.698100  0.848700  0.110320  1
  S  S1514  1  0.301900  0.151300  0.889680  1
  N  N1515  1  0.017400  0.163500  0.104800  1
  N  N1516  1  0.982600  0.836500  0.895200  1
  N  N1517  1  0.029800  0.219900  0.344000  1
  N  N1518  1  0.970200  0.780100  0.656000  1
  N  N1519  1  0.713700  0.170000  0.319800  1
  N  N1520  1  0.286300  0.830000  0.680200  1
  N  N1521  1  0.973600  0.180200  0.242400  1
  N  N1522  1  0.026400  0.819800  0.757600  1
  N  N1523  1  0.901900  0.176600  0.297500  1
  N  N1524  1  0.098100  0.823400  0.702500  1
  N  N1525  1  0.896100  0.168400  0.237900  1
  N  N1526  1  0.103900  0.831600  0.762100  1
  N  N1527  1  0.010200  0.239900  0.044100  1
  N  N1528  1  0.989800  0.760100  0.955900  1
  N  N1529  1  0.691800  0.502300  0.063100  1
  N  N1530  1  0.308200  0.497700  0.936900  1
  N  N1531  1  0.002600  0.569000  0.072700  1
  N  N1532  1  0.997400  0.431000  0.927300  1
  N  N1533  1  0.881700  0.407000  0.042100  1
  N  N1534  1  0.118300  0.593000  0.957900  1
  N  N1535  1  0.879600  0.489300  0.049900  1
  N  N1536  1  0.120400  0.510700  0.950100  1
  N  N1537  1  0.958300  0.424300  0.042800  1
  N  N1538  1  0.041700  0.575700  0.957200  1
  N  N1539  1  0.612300  0.570000  0.378400  1
  N  N1540  1  0.387700  0.430000  0.621600  1
  N  N1541  1  0.607500  0.505000  0.132000  1
  N  N1542  1  0.392500  0.495000  0.868000  1
  N  N1543  1  0.619200  0.247900  0.326000  1
  N  N1544  1  0.380800  0.752100  0.674000  1
  N  N1545  1  0.606400  0.493000  0.267400  1
  N  N1546  1  0.393600  0.507000  0.732600  1
  N  N1547  1  0.611300  0.412500  0.254800  1
  N  N1548  1  0.388700  0.587500  0.745200  1
  N  N1549  1  0.609000  0.429300  0.316000  1
  N  N1550  1  0.391000  0.570700  0.684000  1
  N  N1551  1  0.708400  0.582600  0.381800  1
  N  N1552  1  0.291600  0.417400  0.618200  1
  N  N1553  1  0.025400  0.319600  0.351300  1
  N  N1554  1  0.974600  0.680400  0.648700  1
  N  N1555  1  0.995600  0.571200  0.150500  1
  N  N1556  1  0.004400  0.428800  0.849500  1
  N  N1557  1  0.889800  0.471400  0.326900  1
  N  N1558  1  0.110200  0.528600  0.673100  1
  N  N1559  1  0.958500  0.466400  0.270200  1
  N  N1560  1  0.041500  0.533600  0.729800  1
  N  N1561  1  0.880700  0.532200  0.277900  1
  N  N1562  1  0.119300  0.467800  0.722100  1
  N  N1563  1  0.964200  0.021200  0.253600  1
  N  N1564  1  0.035800  0.978800  0.746400  1
  N  N1565  1  0.180600  0.024700  0.402800  1
  N  N1566  1  0.819400  0.975300  0.597200  1
  N  N1567  1  0.226900  0.197000  0.156500  1
  N  N1568  1  0.773100  0.803000  0.843500  1
  N  N1569  1  0.088500  0.065900  0.304100  1
  N  N1570  1  0.911500  0.934100  0.695900  1
  N  N1571  1  0.156500  0.105900  0.279400  1
  N  N1572  1  0.843500  0.894100  0.720600  1
  N  N1573  1  0.104500  0.102800  0.241600  1
  N  N1574  1  0.895500  0.897200  0.758400  1
  N  N1575  1  0.987500  0.930800  0.218200  1
  N  N1576  1  0.012500  0.069200  0.781800  1
  N  N1577  1  0.294500  0.794900  0.015100  1
  N  N1578  1  0.705500  0.205100  0.984900  1
  N  N1579  1  0.235500  0.631500  0.265600  1
  N  N1580  1  0.764500  0.368500  0.734400  1
  N  N1581  1  0.157300  0.822500  0.141100  1
  N  N1582  1  0.842700  0.177500  0.858900  1
  N  N1583  1  0.219800  0.749500  0.153200  1
  N  N1584  1  0.780200  0.250500  0.846800  1
  N  N1585  1  0.144500  0.784100  0.201900  1
  N  N1586  1  0.855500  0.215900  0.798100  1
  N  N1587  1  0.583800  0.864900  0.135300  1
  N  N1588  1  0.416200  0.135100  0.864700  1
  N  N1589  1  0.369900  0.849700  0.987000  1
  N  N1590  1  0.630100  0.150300  0.013000  1
  N  N1591  1  0.317000  0.156500  0.096000  1
  N  N1592  1  0.683000  0.843500  0.904000  1
  N  N1593  1  0.449600  0.909500  0.065700  1
  N  N1594  1  0.550400  0.090500  0.934300  1
  N  N1595  1  0.384100  0.981400  0.056500  1
  N  N1596  1  0.615900  0.018600  0.943500  1
  N  N1597  1  0.438000  0.985000  0.092000  1
  N  N1598  1  0.562000  0.015000  0.908000  1
  N  N1599  1  0.568500  0.814500  0.206100  1
  N  N1600  1  0.431500  0.185500  0.793900  1
  N  N1601  1  0.259400  0.936100  0.410700  1
  N  N1602  1  0.740600  0.063900  0.589300  1
  N  N1603  1  0.300200  0.635000  0.307100  1
  N  N1604  1  0.699800  0.365000  0.692900  1
  N  N1605  1  0.397300  0.832400  0.307100  1
  N  N1606  1  0.602700  0.167600  0.692900  1
  N  N1607  1  0.332200  0.788600  0.331700  1
  N  N1608  1  0.667800  0.211400  0.668300  1
  N  N1609  1  0.407800  0.757800  0.281700  1
  N  N1610  1  0.592200  0.242200  0.718300  1
  N  N1611  1  0.691000  0.194300  0.193500  1
  N  N1612  1  0.309000  0.805700  0.806500  1
  O  O1613  1  0.736700  0.172100  0.196200  1
  O  O1614  1  0.263300  0.827900  0.803800  1
  O  O1615  1  0.664700  0.236000  0.210100  1
  O  O1616  1  0.335300  0.764000  0.789900  1
  O  O1617  1  0.665500  0.168800  0.184300  1
  O  O1618  1  0.334500  0.831200  0.815700  1
  O  O1619  1  0.213600  0.645100  0.118300  1
  O  O1620  1  0.786400  0.354900  0.881700  1
  O  O1621  1  0.393000  0.615900  0.177300  1
  O  O1622  1  0.607000  0.384100  0.822700  1
  O  O1623  1  0.800500  0.815200  0.249800  1
  O  O1624  1  0.199500  0.184800  0.750200  1
  O  O1625  1  0.636200  0.848000  0.338500  1
  O  O1626  1  0.363800  0.152000  0.661500  1
  O  O1627  1  0.296100  0.127900  0.367800  1
  O  O1628  1  0.703900  0.872100  0.632200  1
  O  O1629  1  0.839200  0.760900  0.110300  1
  O  O1630  1  0.160800  0.239100  0.889700  1
  O  O1631  1  0.721500  0.782200  0.318200  1
  O  O1632  1  0.278500  0.217800  0.681800  1
  O  O1633  1  0.478900  0.441000  0.199000  1
  O  O1634  1  0.521100  0.559000  0.801000  1
