# generated using pymatgen
data_Fe4H102C135S15N30O46F45
_symmetry_space_group_name_H-M   'P 1'
_cell_length_a   17.31460000
_cell_length_b   22.89930000
_cell_length_c   37.97340000
_cell_angle_alpha   98.53860000
_cell_angle_beta   90.00000000
_cell_angle_gamma   90.00000000
_symmetry_Int_Tables_number   1
_chemical_formula_structural   Fe4H102C135S15N30O46F45
_chemical_formula_sum   'Fe16 H408 C540 S60 N120 O184 F180'
_cell_volume   14889.27611285
_cell_formula_units_Z   4
loop_
 _symmetry_equiv_pos_site_id
 _symmetry_equiv_pos_as_xyz
  1  'x, y, z'
loop_
 _atom_site_type_symbol
 _atom_site_label
 _atom_site_symmetry_multiplicity
 _atom_site_fract_x
 _atom_site_fract_y
 _atom_site_fract_z
 _atom_site_occupancy
  Fe  Fe1  1  0.192610  0.203590  0.968030  1
  Fe  Fe2  1  0.692610  0.796410  0.531970  1
  Fe  Fe3  1  0.807390  0.796410  0.031970  1
  Fe  Fe4  1  0.307390  0.203590  0.468030  1
  Fe  Fe5  1  0.268630  0.130290  0.745270  1
  Fe  Fe6  1  0.768630  0.869710  0.754730  1
  Fe  Fe7  1  0.731370  0.869710  0.254730  1
  Fe  Fe8  1  0.231370  0.130290  0.245270  1
  Fe  Fe9  1  0.834100  0.265980  0.825430  1
  Fe  Fe10  1  0.334100  0.734020  0.674570  1
  Fe  Fe11  1  0.165900  0.734020  0.174570  1
  Fe  Fe12  1  0.665900  0.265980  0.325430  1
  Fe  Fe13  1  0.233440  0.486200  0.846140  1
  Fe  Fe14  1  0.733440  0.513800  0.653860  1
  Fe  Fe15  1  0.766560  0.513800  0.153860  1
  Fe  Fe16  1  0.266560  0.486200  0.346140  1
  H  H17  1  0.208600  0.244500  0.050300  1
  H  H18  1  0.708600  0.755500  0.449700  1
  H  H19  1  0.791400  0.755500  0.949700  1
  H  H20  1  0.291400  0.244500  0.550300  1
  H  H21  1  0.308300  0.289000  0.087000  1
  H  H22  1  0.808300  0.711000  0.413000  1
  H  H23  1  0.691700  0.711000  0.913000  1
  H  H24  1  0.191700  0.289000  0.587000  1
  H  H25  1  0.428600  0.301800  0.063100  1
  H  H26  1  0.928600  0.698200  0.436900  1
  H  H27  1  0.571400  0.698200  0.936900  1
  H  H28  1  0.071400  0.301800  0.563100  1
  H  H29  1  0.449700  0.275500  0.002100  1
  H  H30  1  0.949700  0.724500  0.497900  1
  H  H31  1  0.550300  0.724500  0.997900  1
  H  H32  1  0.050300  0.275500  0.502100  1
  H  H33  1  0.392500  0.232300  0.941900  1
  H  H34  1  0.892500  0.767700  0.558100  1
  H  H35  1  0.607500  0.767700  0.058100  1
  H  H36  1  0.107500  0.232300  0.441900  1
  H  H37  1  0.248800  0.114300  0.891200  1
  H  H38  1  0.748800  0.885700  0.608800  1
  H  H39  1  0.751200  0.885700  0.108800  1
  H  H40  1  0.251200  0.114300  0.391200  1
  H  H41  1  0.268800  0.095000  0.829300  1
  H  H42  1  0.768800  0.905000  0.670700  1
  H  H43  1  0.731200  0.905000  0.170700  1
  H  H44  1  0.231200  0.095000  0.329300  1
  H  H45  1  0.364200  0.256700  0.832700  1
  H  H46  1  0.864200  0.743300  0.667300  1
  H  H47  1  0.635800  0.743300  0.167300  1
  H  H48  1  0.135800  0.256700  0.332700  1
  H  H49  1  0.338000  0.278100  0.893100  1
  H  H50  1  0.838000  0.721900  0.606900  1
  H  H51  1  0.662000  0.721900  0.106900  1
  H  H52  1  0.162000  0.278100  0.393100  1
  H  H53  1  0.436000  0.200400  0.795600  1
  H  H54  1  0.936000  0.799600  0.704400  1
  H  H55  1  0.564000  0.799600  0.204400  1
  H  H56  1  0.064000  0.200400  0.295600  1
  H  H57  1  0.517700  0.225500  0.743800  1
  H  H58  1  0.017700  0.774500  0.756200  1
  H  H59  1  0.482300  0.774500  0.256200  1
  H  H60  1  0.982300  0.225500  0.243800  1
  H  H61  1  0.535900  0.215600  0.682100  1
  H  H62  1  0.035900  0.784400  0.817900  1
  H  H63  1  0.464100  0.784400  0.317900  1
  H  H64  1  0.964100  0.215600  0.182100  1
  H  H65  1  0.445600  0.162700  0.644400  1
  H  H66  1  0.945600  0.837300  0.855600  1
  H  H67  1  0.554400  0.837300  0.355600  1
  H  H68  1  0.054400  0.162700  0.144400  1
  H  H69  1  0.337500  0.123100  0.668800  1
  H  H70  1  0.837500  0.876900  0.831200  1
  H  H71  1  0.662500  0.876900  0.331200  1
  H  H72  1  0.162500  0.123100  0.168800  1
  H  H73  1  0.411700  0.049800  0.724700  1
  H  H74  1  0.911700  0.950200  0.775300  1
  H  H75  1  0.588300  0.950200  0.275300  1
  H  H76  1  0.088300  0.049800  0.224700  1
  H  H77  1  0.445900  0.954800  0.731500  1
  H  H78  1  0.945900  0.045200  0.768500  1
  H  H79  1  0.554100  0.045200  0.268500  1
  H  H80  1  0.054100  0.954800  0.231500  1
  H  H81  1  0.360600  0.895000  0.757800  1
  H  H82  1  0.860600  0.105000  0.742200  1
  H  H83  1  0.639400  0.105000  0.242200  1
  H  H84  1  0.139400  0.895000  0.257800  1
  H  H85  1  0.238900  0.934000  0.776900  1
  H  H86  1  0.738900  0.066000  0.723100  1
  H  H87  1  0.761100  0.066000  0.223100  1
  H  H88  1  0.261100  0.934000  0.276900  1
  H  H89  1  0.145900  0.022600  0.782000  1
  H  H90  1  0.645900  0.977400  0.718000  1
  H  H91  1  0.854100  0.977400  0.218000  1
  H  H92  1  0.354100  0.022600  0.282000  1
  H  H93  1  0.078700  0.161600  0.738700  1
  H  H94  1  0.578700  0.838400  0.761300  1
  H  H95  1  0.921300  0.838400  0.261300  1
  H  H96  1  0.421300  0.161600  0.238700  1
  H  H97  1  0.956200  0.198400  0.759100  1
  H  H98  1  0.456200  0.801600  0.740900  1
  H  H99  1  0.043800  0.801600  0.240900  1
  H  H100  1  0.543800  0.198400  0.259100  1
  H  H101  1  0.988900  0.129100  0.850500  1
  H  H102  1  0.488900  0.870900  0.649500  1
  H  H103  1  0.011100  0.870900  0.149500  1
  H  H104  1  0.511100  0.129100  0.350500  1
  H  H105  1  0.113800  0.097500  0.830800  1
  H  H106  1  0.613800  0.902500  0.669200  1
  H  H107  1  0.886200  0.902500  0.169200  1
  H  H108  1  0.386200  0.097500  0.330800  1
  H  H109  1  0.865700  0.108700  0.833100  1
  H  H110  1  0.365700  0.891300  0.666900  1
  H  H111  1  0.134300  0.891300  0.166900  1
  H  H112  1  0.634300  0.108700  0.333100  1
  H  H113  1  0.748400  0.090000  0.870100  1
  H  H114  1  0.248400  0.910000  0.629900  1
  H  H115  1  0.251600  0.910000  0.129900  1
  H  H116  1  0.751600  0.090000  0.370100  1
  H  H117  1  0.635800  0.126800  0.899400  1
  H  H118  1  0.135800  0.873200  0.600600  1
  H  H119  1  0.364200  0.873200  0.100600  1
  H  H120  1  0.864200  0.126800  0.399400  1
  H  H121  1  0.600500  0.224300  0.897300  1
  H  H122  1  0.100500  0.775700  0.602700  1
  H  H123  1  0.399500  0.775700  0.102700  1
  H  H124  1  0.899500  0.224300  0.397300  1
  H  H125  1  0.677900  0.283600  0.868500  1
  H  H126  1  0.177900  0.716400  0.631500  1
  H  H127  1  0.322100  0.716400  0.131500  1
  H  H128  1  0.822100  0.283600  0.368500  1
  H  H129  1  0.689700  0.190600  0.794900  1
  H  H130  1  0.189700  0.809400  0.705100  1
  H  H131  1  0.310300  0.809400  0.205100  1
  H  H132  1  0.810300  0.190600  0.294900  1
  H  H133  1  0.641000  0.162700  0.738500  1
  H  H134  1  0.141000  0.837300  0.761500  1
  H  H135  1  0.359000  0.837300  0.261500  1
  H  H136  1  0.859000  0.162700  0.238500  1
  H  H137  1  0.689200  0.198800  0.690200  1
  H  H138  1  0.189200  0.801200  0.809800  1
  H  H139  1  0.310800  0.801200  0.309800  1
  H  H140  1  0.810800  0.198800  0.190200  1
  H  H141  1  0.798800  0.262200  0.697900  1
  H  H142  1  0.298800  0.737800  0.802100  1
  H  H143  1  0.201200  0.737800  0.302100  1
  H  H144  1  0.701200  0.262200  0.197900  1
  H  H145  1  0.895500  0.318600  0.742000  1
  H  H146  1  0.395500  0.681400  0.758000  1
  H  H147  1  0.104500  0.681400  0.258000  1
  H  H148  1  0.604500  0.318600  0.242000  1
  H  H149  1  0.027600  0.298400  0.756900  1
  H  H150  1  0.527600  0.701600  0.743100  1
  H  H151  1  0.972400  0.701600  0.243100  1
  H  H152  1  0.472400  0.298400  0.256900  1
  H  H153  1  0.133200  0.362400  0.762100  1
  H  H154  1  0.633200  0.637600  0.737900  1
  H  H155  1  0.866800  0.637600  0.237900  1
  H  H156  1  0.366800  0.362400  0.262100  1
  H  H157  1  0.034400  0.460900  0.847400  1
  H  H158  1  0.534400  0.539100  0.652600  1
  H  H159  1  0.965600  0.539100  0.152600  1
  H  H160  1  0.465600  0.460900  0.347400  1
  H  H161  1  0.926500  0.398800  0.841800  1
  H  H162  1  0.426500  0.601200  0.658200  1
  H  H163  1  0.073500  0.601200  0.158200  1
  H  H164  1  0.573500  0.398800  0.341800  1
  H  H165  1  0.150200  0.460300  0.755600  1
  H  H166  1  0.650200  0.539700  0.744400  1
  H  H167  1  0.849800  0.539700  0.244400  1
  H  H168  1  0.349800  0.460300  0.255600  1
  H  H169  1  0.255700  0.503800  0.720400  1
  H  H170  1  0.755700  0.496200  0.779600  1
  H  H171  1  0.744300  0.496200  0.279600  1
  H  H172  1  0.244300  0.503800  0.220400  1
  H  H173  1  0.377000  0.552700  0.722400  1
  H  H174  1  0.877000  0.447300  0.777600  1
  H  H175  1  0.623000  0.447300  0.277600  1
  H  H176  1  0.123000  0.552700  0.222400  1
  H  H177  1  0.439200  0.576300  0.776200  1
  H  H178  1  0.939200  0.423700  0.723800  1
  H  H179  1  0.560800  0.423700  0.223800  1
  H  H180  1  0.060800  0.576300  0.276200  1
  H  H181  1  0.385700  0.549400  0.827100  1
  H  H182  1  0.885700  0.450600  0.672900  1
  H  H183  1  0.614300  0.450600  0.172900  1
  H  H184  1  0.114300  0.549400  0.327100  1
  H  H185  1  0.221600  0.608700  0.819800  1
  H  H186  1  0.721600  0.391300  0.680200  1
  H  H187  1  0.778400  0.391300  0.180200  1
  H  H188  1  0.278400  0.608700  0.319800  1
  H  H189  1  0.153000  0.695300  0.837500  1
  H  H190  1  0.653000  0.304700  0.662500  1
  H  H191  1  0.847000  0.304700  0.162500  1
  H  H192  1  0.347000  0.695300  0.337500  1
  H  H193  1  0.064000  0.699600  0.883200  1
  H  H194  1  0.564000  0.300400  0.616800  1
  H  H195  1  0.936000  0.300400  0.116800  1
  H  H196  1  0.436000  0.699600  0.383200  1
  H  H197  1  0.045700  0.618400  0.911100  1
  H  H198  1  0.545700  0.381600  0.588900  1
  H  H199  1  0.954300  0.381600  0.088900  1
  H  H200  1  0.454300  0.618400  0.411100  1
  H  H201  1  0.092600  0.513700  0.919400  1
  H  H202  1  0.592600  0.486300  0.580600  1
  H  H203  1  0.907400  0.486300  0.080600  1
  H  H204  1  0.407400  0.513700  0.419400  1
  H  H205  1  0.045100  0.418800  0.908800  1
  H  H206  1  0.545100  0.581200  0.591200  1
  H  H207  1  0.954900  0.581200  0.091200  1
  H  H208  1  0.454900  0.418800  0.408800  1
  H  H209  1  0.036600  0.344000  0.943000  1
  H  H210  1  0.536600  0.656000  0.557000  1
  H  H211  1  0.963400  0.656000  0.057000  1
  H  H212  1  0.463400  0.344000  0.443000  1
  H  H213  1  0.269400  0.331300  0.945100  1
  H  H214  1  0.769400  0.668700  0.554900  1
  H  H215  1  0.730600  0.668700  0.054900  1
  H  H216  1  0.230600  0.331300  0.445100  1
  H  H217  1  0.278700  0.407200  0.910500  1
  H  H218  1  0.778700  0.592800  0.589500  1
  H  H219  1  0.721300  0.592800  0.089500  1
  H  H220  1  0.221300  0.407200  0.410500  1
  H  H221  1  0.064300  0.330200  0.998400  1
  H  H222  1  0.564300  0.669800  0.501600  1
  H  H223  1  0.935700  0.669800  0.001600  1
  H  H224  1  0.435700  0.330200  0.498400  1
  H  H225  1  0.981600  0.286500  0.044200  1
  H  H226  1  0.481600  0.713500  0.455800  1
  H  H227  1  0.018400  0.713500  0.955800  1
  H  H228  1  0.518400  0.286500  0.544200  1
  H  H229  1  0.958000  0.204500  0.073200  1
  H  H230  1  0.458000  0.795500  0.426800  1
  H  H231  1  0.042000  0.795500  0.926800  1
  H  H232  1  0.542000  0.204500  0.573200  1
  H  H233  1  0.030400  0.118600  0.057800  1
  H  H234  1  0.530400  0.881400  0.442200  1
  H  H235  1  0.969600  0.881400  0.942200  1
  H  H236  1  0.469600  0.118600  0.557800  1
  H  H237  1  0.125600  0.115400  0.015100  1
  H  H238  1  0.625600  0.884600  0.484900  1
  H  H239  1  0.874400  0.884600  0.984900  1
  H  H240  1  0.374400  0.115400  0.515100  1
  H  H241  1  0.312500  0.123700  0.999700  1
  H  H242  1  0.812500  0.876300  0.500300  1
  H  H243  1  0.687500  0.876300  0.000300  1
  H  H244  1  0.187500  0.123700  0.499700  1
  H  H245  1  0.325900  0.023100  0.998500  1
  H  H246  1  0.825900  0.976900  0.501500  1
  H  H247  1  0.674100  0.976900  0.001500  1
  H  H248  1  0.174100  0.023100  0.498500  1
  H  H249  1  0.241900  0.957000  0.962900  1
  H  H250  1  0.741900  0.043000  0.537100  1
  H  H251  1  0.758100  0.043000  0.037100  1
  H  H252  1  0.258100  0.957000  0.462900  1
  H  H253  1  0.146400  0.995000  0.930400  1
  H  H254  1  0.646400  0.005000  0.569600  1
  H  H255  1  0.853600  0.005000  0.069600  1
  H  H256  1  0.353600  0.995000  0.430400  1
  H  H257  1  0.075800  0.089400  0.914200  1
  H  H258  1  0.575800  0.910600  0.585800  1
  H  H259  1  0.924200  0.910600  0.085800  1
  H  H260  1  0.424200  0.089400  0.414200  1
  H  H261  1  0.133200  0.232300  0.880300  1
  H  H262  1  0.633200  0.767700  0.619700  1
  H  H263  1  0.866800  0.767700  0.119700  1
  H  H264  1  0.366800  0.232300  0.380300  1
  H  H265  1  0.037100  0.282700  0.854300  1
  H  H266  1  0.537100  0.717300  0.645700  1
  H  H267  1  0.962900  0.717300  0.145700  1
  H  H268  1  0.462900  0.282700  0.354300  1
  H  H269  1  0.879000  0.230600  0.921300  1
  H  H270  1  0.379000  0.769400  0.578700  1
  H  H271  1  0.121000  0.769400  0.078700  1
  H  H272  1  0.621000  0.230600  0.421300  1
  H  H273  1  0.973200  0.176900  0.945800  1
  H  H274  1  0.473200  0.823100  0.554200  1
  H  H275  1  0.026800  0.823100  0.054200  1
  H  H276  1  0.526800  0.176900  0.445800  1
  H  H277  1  0.875700  0.349800  0.913200  1
  H  H278  1  0.375700  0.650200  0.586800  1
  H  H279  1  0.124300  0.650200  0.086800  1
  H  H280  1  0.624300  0.349800  0.413200  1
  H  H281  1  0.767800  0.430800  0.914900  1
  H  H282  1  0.267800  0.569200  0.585100  1
  H  H283  1  0.232200  0.569200  0.085100  1
  H  H284  1  0.732200  0.430800  0.414900  1
  H  H285  1  0.669800  0.472200  0.884200  1
  H  H286  1  0.169800  0.527800  0.615800  1
  H  H287  1  0.330200  0.527800  0.115800  1
  H  H288  1  0.830200  0.472200  0.384200  1
  H  H289  1  0.641200  0.430300  0.825000  1
  H  H290  1  0.141200  0.569700  0.675000  1
  H  H291  1  0.358800  0.569700  0.175000  1
  H  H292  1  0.858800  0.430300  0.325000  1
  H  H293  1  0.710600  0.348700  0.799300  1
  H  H294  1  0.210600  0.651300  0.700700  1
  H  H295  1  0.289400  0.651300  0.200700  1
  H  H296  1  0.789400  0.348700  0.299300  1
  H  H297  1  0.218000  0.023500  0.689100  1
  H  H298  1  0.718000  0.976500  0.810900  1
  H  H299  1  0.782000  0.976500  0.310900  1
  H  H300  1  0.282000  0.023500  0.189100  1
  H  H301  1  0.160600  0.015200  0.633100  1
  H  H302  1  0.660600  0.984800  0.866900  1
  H  H303  1  0.839400  0.984800  0.366900  1
  H  H304  1  0.339400  0.015200  0.133100  1
  H  H305  1  0.120700  0.098100  0.610300  1
  H  H306  1  0.620700  0.901900  0.889700  1
  H  H307  1  0.879300  0.901900  0.389700  1
  H  H308  1  0.379300  0.098100  0.110300  1
  H  H309  1  0.137600  0.192000  0.644300  1
  H  H310  1  0.637600  0.808000  0.855700  1
  H  H311  1  0.862400  0.808000  0.355700  1
  H  H312  1  0.362400  0.192000  0.144300  1
  H  H313  1  0.185400  0.252000  0.704900  1
  H  H314  1  0.685400  0.748000  0.795100  1
  H  H315  1  0.814600  0.748000  0.295100  1
  H  H316  1  0.314600  0.252000  0.204900  1
  H  H317  1  0.168200  0.243300  0.804000  1
  H  H318  1  0.668200  0.756700  0.696000  1
  H  H319  1  0.831800  0.756700  0.196000  1
  H  H320  1  0.331800  0.243300  0.304000  1
  H  H321  1  0.196200  0.330800  0.845000  1
  H  H322  1  0.696200  0.669200  0.655000  1
  H  H323  1  0.803800  0.669200  0.155000  1
  H  H324  1  0.303800  0.330800  0.345000  1
  H  H325  1  0.353300  0.379200  0.776700  1
  H  H326  1  0.853300  0.620800  0.723300  1
  H  H327  1  0.646700  0.620800  0.223300  1
  H  H328  1  0.146700  0.379200  0.276700  1
  H  H329  1  0.324200  0.295300  0.735500  1
  H  H330  1  0.824200  0.704700  0.764500  1
  H  H331  1  0.675800  0.704700  0.264500  1
  H  H332  1  0.175800  0.295300  0.235500  1
  H  H333  1  0.401000  0.388600  0.847500  1
  H  H334  1  0.901000  0.611400  0.652500  1
  H  H335  1  0.599000  0.611400  0.152500  1
  H  H336  1  0.099000  0.388600  0.347500  1
  H  H337  1  0.491300  0.458100  0.890900  1
  H  H338  1  0.991300  0.541900  0.609100  1
  H  H339  1  0.508700  0.541900  0.109100  1
  H  H340  1  0.008700  0.458100  0.390900  1
  H  H341  1  0.502800  0.546400  0.928800  1
  H  H342  1  0.002800  0.453600  0.571200  1
  H  H343  1  0.497200  0.453600  0.071200  1
  H  H344  1  0.997200  0.546400  0.428800  1
  H  H345  1  0.404000  0.614300  0.933700  1
  H  H346  1  0.904000  0.385700  0.566300  1
  H  H347  1  0.596000  0.385700  0.066300  1
  H  H348  1  0.096000  0.614300  0.433700  1
  H  H349  1  0.285100  0.591500  0.904700  1
  H  H350  1  0.785100  0.408500  0.595300  1
  H  H351  1  0.714900  0.408500  0.095300  1
  H  H352  1  0.214900  0.591500  0.404700  1
  H  H353  1  0.493000  0.720100  0.893200  1
  H  H354  1  0.993000  0.279900  0.606800  1
  H  H355  1  0.507000  0.279900  0.106800  1
  H  H356  1  0.007000  0.720100  0.393200  1
  H  H357  1  0.445400  0.776700  0.885300  1
  H  H358  1  0.945400  0.223300  0.614700  1
  H  H359  1  0.554600  0.223300  0.114700  1
  H  H360  1  0.054600  0.776700  0.385300  1
  H  H361  1  0.512200  0.749700  0.858600  1
  H  H362  1  0.012200  0.250300  0.641400  1
  H  H363  1  0.487800  0.250300  0.141400  1
  H  H364  1  0.987800  0.749700  0.358600  1
  H  H365  1  0.880300  0.109200  0.978000  1
  H  H366  1  0.380300  0.890800  0.522000  1
  H  H367  1  0.119700  0.890800  0.022000  1
  H  H368  1  0.619700  0.109200  0.478000  1
  H  H369  1  0.848900  0.157200  0.009700  1
  H  H370  1  0.348900  0.842800  0.490300  1
  H  H371  1  0.151100  0.842800  0.990300  1
  H  H372  1  0.651100  0.157200  0.509700  1
  H  H373  1  0.845100  0.170200  0.969500  1
  H  H374  1  0.345100  0.829800  0.530500  1
  H  H375  1  0.154900  0.829800  0.030500  1
  H  H376  1  0.654900  0.170200  0.469500  1
  H  H377  1  0.437000  0.924000  0.960200  1
  H  H378  1  0.937000  0.076000  0.539800  1
  H  H379  1  0.563000  0.076000  0.039800  1
  H  H380  1  0.063000  0.924000  0.460200  1
  H  H381  1  0.425300  0.859200  0.970300  1
  H  H382  1  0.925300  0.140800  0.529700  1
  H  H383  1  0.574700  0.140800  0.029700  1
  H  H384  1  0.074700  0.859200  0.470300  1
  H  H385  1  0.426600  0.868800  0.929400  1
  H  H386  1  0.926600  0.131200  0.570600  1
  H  H387  1  0.573400  0.131200  0.070600  1
  H  H388  1  0.073400  0.868800  0.429400  1
  H  H389  1  0.664100  0.557800  0.027900  1
  H  H390  1  0.164100  0.442200  0.472100  1
  H  H391  1  0.335900  0.442200  0.972100  1
  H  H392  1  0.835900  0.557800  0.527900  1
  H  H393  1  0.724100  0.506700  0.013200  1
  H  H394  1  0.224100  0.493300  0.486800  1
  H  H395  1  0.275900  0.493300  0.986800  1
  H  H396  1  0.775900  0.506700  0.513200  1
  H  H397  1  0.633800  0.492300  0.014500  1
  H  H398  1  0.133800  0.507700  0.485500  1
  H  H399  1  0.366200  0.507700  0.985500  1
  H  H400  1  0.866200  0.492300  0.514500  1
  H  H401  1  0.696700  0.196100  0.987500  1
  H  H402  1  0.196700  0.803900  0.512500  1
  H  H403  1  0.303300  0.803900  0.012500  1
  H  H404  1  0.803300  0.196100  0.487500  1
  H  H405  1  0.698600  0.256800  0.971400  1
  H  H406  1  0.198600  0.743200  0.528600  1
  H  H407  1  0.301400  0.743200  0.028600  1
  H  H408  1  0.801400  0.256800  0.471400  1
  H  H409  1  0.627600  0.212200  0.962700  1
  H  H410  1  0.127600  0.787800  0.537300  1
  H  H411  1  0.372400  0.787800  0.037300  1
  H  H412  1  0.872400  0.212200  0.462700  1
  H  H413  1  0.112400  0.892700  0.833700  1
  H  H414  1  0.612400  0.107300  0.666300  1
  H  H415  1  0.887600  0.107300  0.166300  1
  H  H416  1  0.387600  0.892700  0.333700  1
  H  H417  1  0.059600  0.935600  0.814300  1
  H  H418  1  0.559600  0.064400  0.685700  1
  H  H419  1  0.940400  0.064400  0.185700  1
  H  H420  1  0.440400  0.935600  0.314300  1
  H  H421  1  0.045500  0.930600  0.855400  1
  H  H422  1  0.545500  0.069400  0.644600  1
  H  H423  1  0.954500  0.069400  0.144600  1
  H  H424  1  0.454500  0.930600  0.355400  1
  C  C425  1  0.257400  0.251200  0.040200  1
  C  C426  1  0.757400  0.748800  0.459800  1
  C  C427  1  0.742600  0.748800  0.959800  1
  C  C428  1  0.242600  0.251200  0.540200  1
  C  C429  1  0.317200  0.277200  0.062300  1
  C  C430  1  0.817200  0.722800  0.437700  1
  C  C431  1  0.682800  0.722800  0.937700  1
  C  C432  1  0.182800  0.277200  0.562300  1
  C  C433  1  0.387900  0.285300  0.048100  1
  C  C434  1  0.887900  0.714700  0.451900  1
  C  C435  1  0.612100  0.714700  0.951900  1
  C  C436  1  0.112100  0.285300  0.548100  1
  C  C437  1  0.400700  0.269900  0.012300  1
  C  C438  1  0.900700  0.730100  0.487700  1
  C  C439  1  0.599300  0.730100  0.987700  1
  C  C440  1  0.099300  0.269900  0.512300  1
  C  C441  1  0.339000  0.245700  0.991600  1
  C  C442  1  0.839000  0.754300  0.508400  1
  C  C443  1  0.661000  0.754300  0.008400  1
  C  C444  1  0.161000  0.245700  0.491600  1
  C  C445  1  0.344600  0.229700  0.953700  1
  C  C446  1  0.844600  0.770300  0.546300  1
  C  C447  1  0.655400  0.770300  0.046300  1
  C  C448  1  0.155400  0.229700  0.453700  1
  C  C449  1  0.291800  0.198200  0.898090  1
  C  C450  1  0.791800  0.801800  0.601910  1
  C  C451  1  0.708200  0.801800  0.101910  1
  C  C452  1  0.208200  0.198200  0.398090  1
  C  C453  1  0.271300  0.143600  0.879200  1
  C  C454  1  0.771300  0.856400  0.620800  1
  C  C455  1  0.728700  0.856400  0.120800  1
  C  C456  1  0.228700  0.143600  0.379200  1
  C  C457  1  0.283900  0.131900  0.842400  1
  C  C458  1  0.783900  0.868100  0.657600  1
  C  C459  1  0.716100  0.868100  0.157600  1
  C  C460  1  0.216100  0.131900  0.342400  1
  C  C461  1  0.318300  0.174000  0.825200  1
  C  C462  1  0.818300  0.826000  0.674800  1
  C  C463  1  0.681700  0.826000  0.174800  1
  C  C464  1  0.181700  0.174000  0.325200  1
  C  C465  1  0.339500  0.228100  0.844500  1
  C  C466  1  0.839500  0.771900  0.655500  1
  C  C467  1  0.660500  0.771900  0.155500  1
  C  C468  1  0.160500  0.228100  0.344500  1
  C  C469  1  0.325100  0.240400  0.880400  1
  C  C470  1  0.825100  0.759600  0.619600  1
  C  C471  1  0.674900  0.759600  0.119600  1
  C  C472  1  0.174900  0.240400  0.380400  1
  C  C473  1  0.399900  0.183600  0.778200  1
  C  C474  1  0.899900  0.816400  0.721800  1
  C  C475  1  0.600100  0.816400  0.221800  1
  C  C476  1  0.100100  0.183600  0.278200  1
  C  C477  1  0.416800  0.180200  0.740800  1
  C  C478  1  0.916800  0.819800  0.759200  1
  C  C479  1  0.583200  0.819800  0.259200  1
  C  C480  1  0.083200  0.180200  0.240800  1
  C  C481  1  0.481200  0.204700  0.728000  1
  C  C482  1  0.981200  0.795300  0.772000  1
  C  C483  1  0.518800  0.795300  0.272000  1
  C  C484  1  0.018800  0.204700  0.228000  1
  C  C485  1  0.492000  0.198700  0.691600  1
  C  C486  1  0.992000  0.801300  0.808400  1
  C  C487  1  0.508000  0.801300  0.308400  1
  C  C488  1  0.008000  0.198700  0.191600  1
  C  C489  1  0.438600  0.168000  0.669500  1
  C  C490  1  0.938600  0.832000  0.830500  1
  C  C491  1  0.561400  0.832000  0.330500  1
  C  C492  1  0.061400  0.168000  0.169500  1
  C  C493  1  0.374000  0.144800  0.684200  1
  C  C494  1  0.874000  0.855200  0.815800  1
  C  C495  1  0.626000  0.855200  0.315800  1
  C  C496  1  0.126000  0.144800  0.184200  1
  C  C497  1  0.376100  0.026300  0.735500  1
  C  C498  1  0.876100  0.973700  0.764500  1
  C  C499  1  0.623900  0.973700  0.264500  1
  C  C500  1  0.123900  0.026300  0.235500  1
  C  C501  1  0.396700  0.969600  0.739500  1
  C  C502  1  0.896700  0.030400  0.760500  1
  C  C503  1  0.603300  0.030400  0.260500  1
  C  C504  1  0.103300  0.969600  0.239500  1
  C  C505  1  0.346600  0.934200  0.755000  1
  C  C506  1  0.846600  0.065800  0.745000  1
  C  C507  1  0.653400  0.065800  0.245000  1
  C  C508  1  0.153400  0.934200  0.255000  1
  C  C509  1  0.275100  0.957200  0.766200  1
  C  C510  1  0.775100  0.042800  0.733800  1
  C  C511  1  0.724900  0.042800  0.233800  1
  C  C512  1  0.224900  0.957200  0.266200  1
  C  C513  1  0.257300  0.014900  0.761700  1
  C  C514  1  0.757300  0.985100  0.738300  1
  C  C515  1  0.742700  0.985100  0.238300  1
  C  C516  1  0.242700  0.014900  0.261700  1
  C  C517  1  0.186700  0.043300  0.772600  1
  C  C518  1  0.686700  0.956700  0.727400  1
  C  C519  1  0.813300  0.956700  0.227400  1
  C  C520  1  0.313300  0.043300  0.272600  1
  C  C521  1  0.105900  0.124600  0.782600  1
  C  C522  1  0.605900  0.875400  0.717400  1
  C  C523  1  0.894100  0.875400  0.217400  1
  C  C524  1  0.394100  0.124600  0.282600  1
  C  C525  1  0.060600  0.155300  0.761400  1
  C  C526  1  0.560600  0.844700  0.738600  1
  C  C527  1  0.939400  0.844700  0.238600  1
  C  C528  1  0.439400  0.155300  0.261400  1
  C  C529  1  0.987500  0.177300  0.773500  1
  C  C530  1  0.487500  0.822700  0.726500  1
  C  C531  1  0.012500  0.822700  0.226500  1
  C  C532  1  0.512500  0.177300  0.273500  1
  C  C533  1  0.962500  0.167300  0.807000  1
  C  C534  1  0.462500  0.832700  0.693000  1
  C  C535  1  0.037500  0.832700  0.193000  1
  C  C536  1  0.537500  0.167300  0.307000  1
  C  C537  1  0.007400  0.136600  0.828100  1
  C  C538  1  0.507400  0.863400  0.671900  1
  C  C539  1  0.992600  0.863400  0.171900  1
  C  C540  1  0.492600  0.136600  0.328100  1
  C  C541  1  0.081200  0.116600  0.815900  1
  C  C542  1  0.581200  0.883400  0.684100  1
  C  C543  1  0.918800  0.883400  0.184100  1
  C  C544  1  0.418800  0.116600  0.315900  1
  C  C545  1  0.848400  0.148400  0.834800  1
  C  C546  1  0.348400  0.851600  0.665200  1
  C  C547  1  0.151600  0.851600  0.165200  1
  C  C548  1  0.651600  0.148400  0.334800  1
  C  C549  1  0.777800  0.167500  0.853700  1
  C  C550  1  0.277800  0.832500  0.646300  1
  C  C551  1  0.222200  0.832500  0.146300  1
  C  C552  1  0.722200  0.167500  0.353700  1
  C  C553  1  0.733500  0.129900  0.870300  1
  C  C554  1  0.233500  0.870100  0.629700  1
  C  C555  1  0.266500  0.870100  0.129700  1
  C  C556  1  0.766500  0.129900  0.370300  1
  C  C557  1  0.667100  0.151400  0.887200  1
  C  C558  1  0.167100  0.848600  0.612800  1
  C  C559  1  0.332900  0.848600  0.112800  1
  C  C560  1  0.832900  0.151400  0.387200  1
  C  C561  1  0.646800  0.208800  0.886100  1
  C  C562  1  0.146800  0.791200  0.613900  1
  C  C563  1  0.353200  0.791200  0.113900  1
  C  C564  1  0.853200  0.208800  0.386100  1
  C  C565  1  0.693000  0.243900  0.869000  1
  C  C566  1  0.193000  0.756100  0.631000  1
  C  C567  1  0.307000  0.756100  0.131000  1
  C  C568  1  0.807000  0.243900  0.369000  1
  C  C569  1  0.713200  0.205200  0.775300  1
  C  C570  1  0.213200  0.794800  0.724700  1
  C  C571  1  0.286800  0.794800  0.224700  1
  C  C572  1  0.786800  0.205200  0.275300  1
  C  C573  1  0.683500  0.189200  0.741600  1
  C  C574  1  0.183500  0.810800  0.758400  1
  C  C575  1  0.316500  0.810800  0.258400  1
  C  C576  1  0.816500  0.189200  0.241600  1
  C  C577  1  0.711900  0.209600  0.713000  1
  C  C578  1  0.211900  0.790400  0.787000  1
  C  C579  1  0.288100  0.790400  0.287000  1
  C  C580  1  0.788100  0.209600  0.213000  1
  C  C581  1  0.776200  0.247200  0.717500  1
  C  C582  1  0.276200  0.752800  0.782500  1
  C  C583  1  0.223800  0.752800  0.282500  1
  C  C584  1  0.723800  0.247200  0.217500  1
  C  C585  1  0.805400  0.261800  0.751800  1
  C  C586  1  0.305400  0.738200  0.748200  1
  C  C587  1  0.194600  0.738200  0.248200  1
  C  C588  1  0.694600  0.261800  0.251800  1
  C  C589  1  0.871900  0.299400  0.759700  1
  C  C590  1  0.371900  0.700600  0.740300  1
  C  C591  1  0.128100  0.700600  0.240300  1
  C  C592  1  0.628100  0.299400  0.259700  1
  C  C593  1  0.965200  0.342700  0.798000  1
  C  C594  1  0.465200  0.657300  0.702000  1
  C  C595  1  0.034800  0.657300  0.202000  1
  C  C596  1  0.534800  0.342700  0.298000  1
  C  C597  1  0.028000  0.331900  0.775000  1
  C  C598  1  0.528000  0.668100  0.725000  1
  C  C599  1  0.972000  0.668100  0.225000  1
  C  C600  1  0.472000  0.331900  0.275000  1
  C  C601  1  0.091100  0.369800  0.778300  1
  C  C602  1  0.591100  0.630200  0.721700  1
  C  C603  1  0.908900  0.630200  0.221700  1
  C  C604  1  0.408900  0.369800  0.278300  1
  C  C605  1  0.093000  0.418100  0.804870  1
  C  C606  1  0.593000  0.581900  0.695130  1
  C  C607  1  0.907000  0.581900  0.195130  1
  C  C608  1  0.407000  0.418100  0.304870  1
  C  C609  1  0.032300  0.428400  0.828700  1
  C  C610  1  0.532300  0.571600  0.671300  1
  C  C611  1  0.967700  0.571600  0.171300  1
  C  C612  1  0.467700  0.428400  0.328700  1
  C  C613  1  0.968200  0.391300  0.825500  1
  C  C614  1  0.468200  0.608700  0.674500  1
  C  C615  1  0.031800  0.608700  0.174500  1
  C  C616  1  0.531800  0.391300  0.325500  1
  C  C617  1  0.181200  0.470200  0.776200  1
  C  C618  1  0.681200  0.529800  0.723800  1
  C  C619  1  0.818800  0.529800  0.223800  1
  C  C620  1  0.318800  0.470200  0.276200  1
  C  C621  1  0.251200  0.500100  0.774100  1
  C  C622  1  0.751200  0.499900  0.725900  1
  C  C623  1  0.748800  0.499900  0.225900  1
  C  C624  1  0.248800  0.500100  0.274100  1
  C  C625  1  0.282400  0.513800  0.742300  1
  C  C626  1  0.782400  0.486200  0.757700  1
  C  C627  1  0.717600  0.486200  0.257700  1
  C  C628  1  0.217600  0.513800  0.242300  1
  C  C629  1  0.354500  0.542700  0.743500  1
  C  C630  1  0.854500  0.457300  0.756500  1
  C  C631  1  0.645500  0.457300  0.256500  1
  C  C632  1  0.145500  0.542700  0.243500  1
  C  C633  1  0.391200  0.556000  0.774900  1
  C  C634  1  0.891200  0.444000  0.725100  1
  C  C635  1  0.608800  0.444000  0.225100  1
  C  C636  1  0.108800  0.556000  0.274900  1
  C  C637  1  0.358600  0.539900  0.805200  1
  C  C638  1  0.858600  0.460100  0.694800  1
  C  C639  1  0.641400  0.460100  0.194800  1
  C  C640  1  0.141400  0.539900  0.305200  1
  C  C641  1  0.186300  0.610400  0.839000  1
  C  C642  1  0.686300  0.389600  0.661000  1
  C  C643  1  0.813700  0.389600  0.161000  1
  C  C644  1  0.313700  0.610400  0.339000  1
  C  C645  1  0.144900  0.662000  0.849300  1
  C  C646  1  0.644900  0.338000  0.650700  1
  C  C647  1  0.855100  0.338000  0.150700  1
  C  C648  1  0.355100  0.662000  0.349300  1
  C  C649  1  0.093000  0.664700  0.876100  1
  C  C650  1  0.593000  0.335300  0.623900  1
  C  C651  1  0.907000  0.335300  0.123900  1
  C  C652  1  0.407000  0.664700  0.376100  1
  C  C653  1  0.083000  0.617400  0.892700  1
  C  C654  1  0.583000  0.382600  0.607300  1
  C  C655  1  0.917000  0.382600  0.107300  1
  C  C656  1  0.417000  0.617400  0.392700  1
  C  C657  1  0.127400  0.567100  0.882900  1
  C  C658  1  0.627400  0.432900  0.617100  1
  C  C659  1  0.872600  0.432900  0.117100  1
  C  C660  1  0.372600  0.567100  0.382900  1
  C  C661  1  0.125500  0.515300  0.899500  1
  C  C662  1  0.625500  0.484700  0.600500  1
  C  C663  1  0.874500  0.484700  0.100500  1
  C  C664  1  0.374500  0.515300  0.399500  1
  C  C665  1  0.164300  0.421100  0.906800  1
  C  C666  1  0.664300  0.578900  0.593200  1
  C  C667  1  0.835700  0.578900  0.093200  1
  C  C668  1  0.335700  0.421100  0.406800  1
  C  C669  1  0.090700  0.401300  0.916500  1
  C  C670  1  0.590700  0.598700  0.583500  1
  C  C671  1  0.909300  0.598700  0.083500  1
  C  C672  1  0.409300  0.401300  0.416500  1
  C  C673  1  0.086000  0.357200  0.936700  1
  C  C674  1  0.586000  0.642800  0.563300  1
  C  C675  1  0.914000  0.642800  0.063300  1
  C  C676  1  0.414000  0.357200  0.436700  1
  C  C677  1  0.152400  0.330800  0.948390  1
  C  C678  1  0.652400  0.669200  0.551610  1
  C  C679  1  0.847600  0.669200  0.051610  1
  C  C680  1  0.347600  0.330800  0.448390  1
  C  C681  1  0.223800  0.349500  0.938000  1
  C  C682  1  0.723800  0.650500  0.562000  1
  C  C683  1  0.776200  0.650500  0.062000  1
  C  C684  1  0.276200  0.349500  0.438000  1
  C  C685  1  0.229400  0.394600  0.917300  1
  C  C686  1  0.729400  0.605400  0.582700  1
  C  C687  1  0.770600  0.605400  0.082700  1
  C  C688  1  0.270600  0.394600  0.417300  1
  C  C689  1  0.090700  0.293400  0.994100  1
  C  C690  1  0.590700  0.706600  0.505900  1
  C  C691  1  0.909300  0.706600  0.005900  1
  C  C692  1  0.409300  0.293400  0.494100  1
  C  C693  1  0.071800  0.247400  0.013800  1
  C  C694  1  0.571800  0.752600  0.486200  1
  C  C695  1  0.928200  0.752600  0.986200  1
  C  C696  1  0.428200  0.247400  0.513800  1
  C  C697  1  0.011500  0.251500  0.038900  1
  C  C698  1  0.511500  0.748500  0.461100  1
  C  C699  1  0.988500  0.748500  0.961100  1
  C  C700  1  0.488500  0.251500  0.538900  1
  C  C701  1  0.997200  0.203000  0.055600  1
  C  C702  1  0.497200  0.797000  0.444400  1
  C  C703  1  0.002800  0.797000  0.944400  1
  C  C704  1  0.502800  0.203000  0.555600  1
  C  C705  1  0.040000  0.152300  0.046500  1
  C  C706  1  0.540000  0.847700  0.453500  1
  C  C707  1  0.960000  0.847700  0.953500  1
  C  C708  1  0.460000  0.152300  0.546500  1
  C  C709  1  0.096600  0.150700  0.021200  1
  C  C710  1  0.596600  0.849300  0.478800  1
  C  C711  1  0.903400  0.849300  0.978800  1
  C  C712  1  0.403400  0.150700  0.521200  1
  C  C713  1  0.277700  0.097600  0.985900  1
  C  C714  1  0.777700  0.902400  0.514100  1
  C  C715  1  0.722300  0.902400  0.014100  1
  C  C716  1  0.222300  0.097600  0.485900  1
  C  C717  1  0.286200  0.038000  0.984900  1
  C  C718  1  0.786200  0.962000  0.515100  1
  C  C719  1  0.713800  0.962000  0.015100  1
  C  C720  1  0.213800  0.038000  0.484900  1
  C  C721  1  0.236300  0.998500  0.963800  1
  C  C722  1  0.736300  0.001500  0.536200  1
  C  C723  1  0.763700  0.001500  0.036200  1
  C  C724  1  0.263700  0.998500  0.463800  1
  C  C725  1  0.180600  0.020600  0.945000  1
  C  C726  1  0.680600  0.979400  0.555000  1
  C  C727  1  0.819400  0.979400  0.055000  1
  C  C728  1  0.319400  0.020600  0.445000  1
  C  C729  1  0.173700  0.080800  0.947100  1
  C  C730  1  0.673700  0.919200  0.552900  1
  C  C731  1  0.826300  0.919200  0.052900  1
  C  C732  1  0.326300  0.080800  0.447100  1
  C  C733  1  0.115000  0.110500  0.928300  1
  C  C734  1  0.615000  0.889500  0.571700  1
  C  C735  1  0.885000  0.889500  0.071700  1
  C  C736  1  0.385000  0.110500  0.428300  1
  C  C737  1  0.062000  0.199100  0.915500  1
  C  C738  1  0.562000  0.800900  0.584500  1
  C  C739  1  0.938000  0.800900  0.084500  1
  C  C740  1  0.438000  0.199100  0.415500  1
  C  C741  1  0.081300  0.231300  0.888300  1
  C  C742  1  0.581300  0.768700  0.611700  1
  C  C743  1  0.918700  0.768700  0.111700  1
  C  C744  1  0.418700  0.231300  0.388300  1
  C  C745  1  0.024500  0.261500  0.873200  1
  C  C746  1  0.524500  0.738500  0.626800  1
  C  C747  1  0.975500  0.738500  0.126800  1
  C  C748  1  0.475500  0.261500  0.373200  1
  C  C749  1  0.948400  0.261100  0.885500  1
  C  C750  1  0.448400  0.738900  0.614500  1
  C  C751  1  0.051600  0.738900  0.114500  1
  C  C752  1  0.551600  0.261100  0.385500  1
  C  C753  1  0.930400  0.230300  0.912600  1
  C  C754  1  0.430400  0.769700  0.587400  1
  C  C755  1  0.069600  0.769700  0.087400  1
  C  C756  1  0.569600  0.230300  0.412600  1
  C  C757  1  0.986500  0.198900  0.927400  1
  C  C758  1  0.486500  0.801100  0.572600  1
  C  C759  1  0.013500  0.801100  0.072600  1
  C  C760  1  0.513500  0.198900  0.427400  1
  C  C761  1  0.858400  0.336900  0.889600  1
  C  C762  1  0.358400  0.663100  0.610400  1
  C  C763  1  0.141600  0.663100  0.110400  1
  C  C764  1  0.641600  0.336900  0.389600  1
  C  C765  1  0.795300  0.366100  0.873900  1
  C  C766  1  0.295300  0.633900  0.626100  1
  C  C767  1  0.204700  0.633900  0.126100  1
  C  C768  1  0.704700  0.366100  0.373900  1
  C  C769  1  0.755500  0.414600  0.891100  1
  C  C770  1  0.255500  0.585400  0.608900  1
  C  C771  1  0.244500  0.585400  0.108900  1
  C  C772  1  0.744500  0.414600  0.391100  1
  C  C773  1  0.697700  0.438800  0.873000  1
  C  C774  1  0.197700  0.561200  0.627000  1
  C  C775  1  0.302300  0.561200  0.127000  1
  C  C776  1  0.802300  0.438800  0.373000  1
  C  C777  1  0.680500  0.414100  0.838000  1
  C  C778  1  0.180500  0.585900  0.662000  1
  C  C779  1  0.319500  0.585900  0.162000  1
  C  C780  1  0.819500  0.414100  0.338000  1
  C  C781  1  0.722300  0.365400  0.823100  1
  C  C782  1  0.222300  0.634600  0.676900  1
  C  C783  1  0.277700  0.634600  0.176900  1
  C  C784  1  0.777700  0.365400  0.323100  1
  C  C785  1  0.201900  0.058100  0.680100  1
  C  C786  1  0.701900  0.941900  0.819900  1
  C  C787  1  0.798100  0.941900  0.319900  1
  C  C788  1  0.298100  0.058100  0.180100  1
  C  C789  1  0.167500  0.053200  0.646700  1
  C  C790  1  0.667500  0.946800  0.853300  1
  C  C791  1  0.832500  0.946800  0.353300  1
  C  C792  1  0.332500  0.053200  0.146700  1
  C  C793  1  0.143800  0.101900  0.633200  1
  C  C794  1  0.643800  0.898100  0.866800  1
  C  C795  1  0.856200  0.898100  0.366800  1
  C  C796  1  0.356200  0.101900  0.133200  1
  C  C797  1  0.153700  0.157300  0.653100  1
  C  C798  1  0.653700  0.842700  0.846900  1
  C  C799  1  0.846300  0.842700  0.346900  1
  C  C800  1  0.346300  0.157300  0.153100  1
  C  C801  1  0.188300  0.160300  0.686600  1
  C  C802  1  0.688300  0.839700  0.813400  1
  C  C803  1  0.811700  0.839700  0.313400  1
  C  C804  1  0.311700  0.160300  0.186600  1
  C  C805  1  0.199200  0.214600  0.711000  1
  C  C806  1  0.699200  0.785400  0.789000  1
  C  C807  1  0.800800  0.785400  0.289000  1
  C  C808  1  0.300800  0.214600  0.211000  1
  C  C809  1  0.243000  0.262600  0.766000  1
  C  C810  1  0.743000  0.737400  0.734000  1
  C  C811  1  0.757000  0.737400  0.234000  1
  C  C812  1  0.257000  0.262600  0.266000  1
  C  C813  1  0.205000  0.271200  0.798200  1
  C  C814  1  0.705000  0.728800  0.701800  1
  C  C815  1  0.795000  0.728800  0.201800  1
  C  C816  1  0.295000  0.271200  0.298200  1
  C  C817  1  0.222400  0.323200  0.822800  1
  C  C818  1  0.722400  0.676800  0.677200  1
  C  C819  1  0.777600  0.676800  0.177200  1
  C  C820  1  0.277600  0.323200  0.322800  1
  C  C821  1  0.277000  0.361700  0.814200  1
  C  C822  1  0.777000  0.638300  0.685800  1
  C  C823  1  0.723000  0.638300  0.185800  1
  C  C824  1  0.223000  0.361700  0.314200  1
  C  C825  1  0.315300  0.351900  0.782200  1
  C  C826  1  0.815300  0.648100  0.717800  1
  C  C827  1  0.684700  0.648100  0.217800  1
  C  C828  1  0.184700  0.351900  0.282200  1
  C  C829  1  0.298100  0.302100  0.757700  1
  C  C830  1  0.798100  0.697900  0.742300  1
  C  C831  1  0.701900  0.697900  0.242300  1
  C  C832  1  0.201900  0.302100  0.257700  1
  C  C833  1  0.363500  0.419000  0.852600  1
  C  C834  1  0.863500  0.581000  0.647400  1
  C  C835  1  0.636500  0.581000  0.147400  1
  C  C836  1  0.136500  0.419000  0.352600  1
  C  C837  1  0.379700  0.473000  0.875700  1
  C  C838  1  0.879700  0.527000  0.624300  1
  C  C839  1  0.620300  0.527000  0.124300  1
  C  C840  1  0.120300  0.473000  0.375700  1
  C  C841  1  0.449800  0.485500  0.893900  1
  C  C842  1  0.949800  0.514500  0.606100  1
  C  C843  1  0.550200  0.514500  0.106100  1
  C  C844  1  0.050200  0.485500  0.393900  1
  C  C845  1  0.456400  0.537500  0.915700  1
  C  C846  1  0.956400  0.462500  0.584300  1
  C  C847  1  0.543600  0.462500  0.084300  1
  C  C848  1  0.043600  0.537500  0.415700  1
  C  C849  1  0.397400  0.577300  0.919100  1
  C  C850  1  0.897400  0.422700  0.580900  1
  C  C851  1  0.602600  0.422700  0.080900  1
  C  C852  1  0.102600  0.577300  0.419100  1
  C  C853  1  0.326900  0.564400  0.901200  1
  C  C854  1  0.826900  0.435600  0.598800  1
  C  C855  1  0.673100  0.435600  0.098800  1
  C  C856  1  0.173100  0.564400  0.401200  1
  C  C857  1  0.858800  0.981600  0.917800  1
  C  C858  1  0.358800  0.018400  0.582200  1
  C  C859  1  0.141200  0.018400  0.082200  1
  C  C860  1  0.641200  0.981600  0.417800  1
  C  C861  1  0.178600  0.643700  0.997000  1
  C  C862  1  0.678600  0.356300  0.503000  1
  C  C863  1  0.821400  0.356300  0.003000  1
  C  C864  1  0.321400  0.643700  0.497000  1
  C  C865  1  0.018700  0.957300  0.687700  1
  C  C866  1  0.518700  0.042700  0.812300  1
  C  C867  1  0.981300  0.042700  0.312300  1
  C  C868  1  0.481300  0.957300  0.187700  1
  C  C869  1  0.605900  0.587800  0.846700  1
  C  C870  1  0.105900  0.412200  0.653300  1
  C  C871  1  0.394100  0.412200  0.153300  1
  C  C872  1  0.894100  0.587800  0.346700  1
  C  C873  1  0.414200  0.701200  0.853900  1
  C  C874  1  0.914200  0.298800  0.646100  1
  C  C875  1  0.585800  0.298800  0.146100  1
  C  C876  1  0.085800  0.701200  0.353900  1
  C  C877  1  0.470900  0.740200  0.874500  1
  C  C878  1  0.970900  0.259800  0.625500  1
  C  C879  1  0.529100  0.259800  0.125500  1
  C  C880  1  0.029100  0.740200  0.374500  1
  C  C881  1  0.031900  0.578300  0.757000  1
  C  C882  1  0.531900  0.421700  0.743000  1
  C  C883  1  0.968100  0.421700  0.243000  1
  C  C884  1  0.468100  0.578300  0.257000  1
  C  C885  1  0.473100  0.092000  0.938700  1
  C  C886  1  0.973100  0.908000  0.561300  1
  C  C887  1  0.526900  0.908000  0.061300  1
  C  C888  1  0.026900  0.092000  0.438700  1
  C  C889  1  0.764200  0.112600  0.980900  1
  C  C890  1  0.264200  0.887400  0.519100  1
  C  C891  1  0.235800  0.887400  0.019100  1
  C  C892  1  0.735800  0.112600  0.480900  1
  C  C893  1  0.840900  0.139500  0.984800  1
  C  C894  1  0.340900  0.860500  0.515200  1
  C  C895  1  0.159100  0.860500  0.015200  1
  C  C896  1  0.659100  0.139500  0.484800  1
  C  C897  1  0.536600  0.390500  0.964700  1
  C  C898  1  0.036600  0.609500  0.535300  1
  C  C899  1  0.463400  0.609500  0.035300  1
  C  C900  1  0.963400  0.390500  0.464700  1
  C  C901  1  0.233100  0.796400  0.918800  1
  C  C902  1  0.733100  0.203600  0.581200  1
  C  C903  1  0.766900  0.203600  0.081200  1
  C  C904  1  0.266900  0.796400  0.418800  1
  C  C905  1  0.531900  0.873000  0.952100  1
  C  C906  1  0.031900  0.127000  0.547900  1
  C  C907  1  0.468100  0.127000  0.047900  1
  C  C908  1  0.968100  0.873000  0.452100  1
  C  C909  1  0.448300  0.882000  0.953100  1
  C  C910  1  0.948300  0.118000  0.546900  1
  C  C911  1  0.551700  0.118000  0.046900  1
  C  C912  1  0.051700  0.882000  0.453100  1
  C  C913  1  0.662900  0.536600  0.974700  1
  C  C914  1  0.162900  0.463400  0.525300  1
  C  C915  1  0.337100  0.463400  0.025300  1
  C  C916  1  0.837100  0.536600  0.474700  1
  C  C917  1  0.672000  0.522200  0.010500  1
  C  C918  1  0.172000  0.477800  0.489500  1
  C  C919  1  0.328000  0.477800  0.989500  1
  C  C920  1  0.828000  0.522200  0.510500  1
  C  C921  1  0.624300  0.257800  0.012300  1
  C  C922  1  0.124300  0.742200  0.487700  1
  C  C923  1  0.375700  0.742200  0.987700  1
  C  C924  1  0.875700  0.257800  0.512300  1
  C  C925  1  0.665200  0.228300  0.980900  1
  C  C926  1  0.165200  0.771700  0.519100  1
  C  C927  1  0.334800  0.771700  0.019100  1
  C  C928  1  0.834800  0.228300  0.480900  1
  C  C929  1  0.139500  0.978900  0.847100  1
  C  C930  1  0.639500  0.021100  0.652900  1
  C  C931  1  0.860500  0.021100  0.152900  1
  C  C932  1  0.360500  0.978900  0.347100  1
  C  C933  1  0.084700  0.930400  0.836800  1
  C  C934  1  0.584700  0.069600  0.663200  1
  C  C935  1  0.915300  0.069600  0.163200  1
  C  C936  1  0.415300  0.930400  0.336800  1
  C  C937  1  0.873700  0.038500  0.931600  1
  C  C938  1  0.373700  0.961500  0.568400  1
  C  C939  1  0.126300  0.961500  0.068400  1
  C  C940  1  0.626300  0.038500  0.431600  1
  C  C941  1  0.199400  0.601400  0.991700  1
  C  C942  1  0.699400  0.398600  0.508300  1
  C  C943  1  0.800600  0.398600  0.008300  1
  C  C944  1  0.300600  0.601400  0.491700  1
  C  C945  1  0.011700  0.920900  0.675700  1
  C  C946  1  0.511700  0.079100  0.824300  1
  C  C947  1  0.988300  0.079100  0.324300  1
  C  C948  1  0.488300  0.920900  0.175700  1
  C  C949  1  0.622800  0.591100  0.852100  1
  C  C950  1  0.122800  0.408900  0.647900  1
  C  C951  1  0.377200  0.408900  0.147900  1
  C  C952  1  0.877200  0.591100  0.352100  1
  C  C953  1  0.456100  0.769500  0.865400  1
  C  C954  1  0.956100  0.230500  0.634600  1
  C  C955  1  0.543900  0.230500  0.134600  1
  C  C956  1  0.043900  0.769500  0.365400  1
  C  C957  1  0.002200  0.568600  0.773200  1
  C  C958  1  0.502200  0.431400  0.726800  1
  C  C959  1  0.997800  0.431400  0.226800  1
  C  C960  1  0.497800  0.568600  0.273200  1
  C  C961  1  0.566000  0.036000  0.943600  1
  C  C962  1  0.066000  0.964000  0.556400  1
  C  C963  1  0.434000  0.964000  0.056400  1
  C  C964  1  0.934000  0.036000  0.443600  1
  S  S965  1  0.913600  0.016600  0.887200  1
  S  S966  1  0.413600  0.983400  0.612800  1
  S  S967  1  0.086400  0.983400  0.112800  1
  S  S968  1  0.586400  0.016600  0.387200  1
  S  S969  1  0.106200  0.588660  0.999110  1
  S  S970  1  0.606200  0.411340  0.500890  1
  S  S971  1  0.893800  0.411340  0.000890  1
  S  S972  1  0.393800  0.588660  0.499110  1
  S  S973  1  0.080500  0.918300  0.713900  1
  S  S974  1  0.580500  0.081700  0.786100  1
  S  S975  1  0.919500  0.081700  0.286100  1
  S  S976  1  0.419500  0.918300  0.213900  1
  S  S977  1  0.656600  0.638900  0.825400  1
  S  S978  1  0.156600  0.361100  0.674600  1
  S  S979  1  0.343400  0.361100  0.174600  1
  S  S980  1  0.843400  0.638900  0.325400  1
  S  S981  1  0.091200  0.642900  0.757210  1
  S  S982  1  0.591200  0.357100  0.742790  1
  S  S983  1  0.908800  0.357100  0.242790  1
  S  S984  1  0.408800  0.642900  0.257210  1
  S  S985  1  0.543200  0.037000  0.946330  1
  S  S986  1  0.043200  0.963000  0.553670  1
  S  S987  1  0.456800  0.963000  0.053670  1
  S  S988  1  0.956800  0.037000  0.446330  1
  S  S989  1  0.494850  0.341350  0.927340  1
  S  S990  1  0.994850  0.658650  0.572660  1
  S  S991  1  0.505150  0.658650  0.072660  1
  S  S992  1  0.005150  0.341350  0.427340  1
  S  S993  1  0.176350  0.844620  0.892790  1
  S  S994  1  0.676350  0.155380  0.607210  1
  S  S995  1  0.823650  0.155380  0.107210  1
  S  S996  1  0.323650  0.844620  0.392790  1
  S  S997  1  0.909900  0.008100  0.888700  1
  S  S998  1  0.409900  0.991900  0.611300  1
  S  S999  1  0.090100  0.991900  0.111300  1
  S  S1000  1  0.590100  0.008100  0.388700  1
  S  S1001  1  0.112500  0.643500  0.000500  1
  S  S1002  1  0.612500  0.356500  0.499500  1
  S  S1003  1  0.887500  0.356500  0.999500  1
  S  S1004  1  0.387500  0.643500  0.500500  1
  S  S1005  1  0.073800  0.941600  0.713400  1
  S  S1006  1  0.573800  0.058400  0.786600  1
  S  S1007  1  0.926200  0.058400  0.286600  1
  S  S1008  1  0.426200  0.941600  0.213400  1
  S  S1009  1  0.628000  0.639600  0.820500  1
  S  S1010  1  0.128000  0.360400  0.679500  1
  S  S1011  1  0.372000  0.360400  0.179500  1
  S  S1012  1  0.872000  0.639600  0.320500  1
  S  S1013  1  0.498300  0.730100  0.826300  1
  S  S1014  1  0.998300  0.269900  0.673700  1
  S  S1015  1  0.501700  0.269900  0.173700  1
  S  S1016  1  0.001700  0.730100  0.326300  1
  S  S1017  1  0.056400  0.617900  0.750000  1
  S  S1018  1  0.556400  0.382100  0.750000  1
  S  S1019  1  0.943600  0.382100  0.250000  1
  S  S1020  1  0.443600  0.617900  0.250000  1
  S  S1021  1  0.499500  0.095400  0.946100  1
  S  S1022  1  0.999500  0.904600  0.553900  1
  S  S1023  1  0.500500  0.904600  0.053900  1
  S  S1024  1  0.000500  0.095400  0.446100  1
  N  N1025  1  0.268400  0.235800  0.005070  1
  N  N1026  1  0.768400  0.764200  0.494930  1
  N  N1027  1  0.731600  0.764200  0.994930  1
  N  N1028  1  0.231600  0.235800  0.505070  1
  N  N1029  1  0.283500  0.211700  0.936020  1
  N  N1030  1  0.783500  0.788300  0.563980  1
  N  N1031  1  0.716500  0.788300  0.063980  1
  N  N1032  1  0.216500  0.211700  0.436020  1
  N  N1033  1  0.335200  0.163400  0.787450  1
  N  N1034  1  0.835200  0.836600  0.712550  1
  N  N1035  1  0.664800  0.836600  0.212550  1
  N  N1036  1  0.164800  0.163400  0.287450  1
  N  N1037  1  0.361500  0.151800  0.719330  1
  N  N1038  1  0.861500  0.848200  0.780670  1
  N  N1039  1  0.638500  0.848200  0.280670  1
  N  N1040  1  0.138500  0.151800  0.219330  1
  N  N1041  1  0.307700  0.049500  0.746190  1
  N  N1042  1  0.807700  0.950500  0.753810  1
  N  N1043  1  0.692300  0.950500  0.253810  1
  N  N1044  1  0.192300  0.049500  0.246190  1
  N  N1045  1  0.179700  0.099100  0.769330  1
  N  N1046  1  0.679700  0.900900  0.730670  1
  N  N1047  1  0.820300  0.900900  0.230670  1
  N  N1048  1  0.320300  0.099100  0.269330  1
  N  N1049  1  0.887300  0.186900  0.820080  1
  N  N1050  1  0.387300  0.813100  0.679920  1
  N  N1051  1  0.112700  0.813100  0.179920  1
  N  N1052  1  0.612700  0.186900  0.320080  1
  N  N1053  1  0.759700  0.224000  0.852530  1
  N  N1054  1  0.259700  0.776000  0.647470  1
  N  N1055  1  0.240300  0.776000  0.147470  1
  N  N1056  1  0.740300  0.224000  0.352530  1
  N  N1057  1  0.775600  0.241400  0.780900  1
  N  N1058  1  0.275600  0.758600  0.719100  1
  N  N1059  1  0.224400  0.758600  0.219100  1
  N  N1060  1  0.724400  0.241400  0.280900  1
  N  N1061  1  0.898100  0.305900  0.792240  1
  N  N1062  1  0.398100  0.694100  0.707760  1
  N  N1063  1  0.101900  0.694100  0.207760  1
  N  N1064  1  0.601900  0.305900  0.292240  1
  N  N1065  1  0.159000  0.456000  0.806190  1
  N  N1066  1  0.659000  0.544000  0.693810  1
  N  N1067  1  0.841000  0.544000  0.193810  1
  N  N1068  1  0.341000  0.456000  0.306190  1
  N  N1069  1  0.291300  0.511800  0.805610  1
  N  N1070  1  0.791300  0.488200  0.694390  1
  N  N1071  1  0.708700  0.488200  0.194390  1
  N  N1072  1  0.208700  0.511800  0.305610  1
  N  N1073  1  0.178300  0.563200  0.855320  1
  N  N1074  1  0.678300  0.436800  0.644680  1
  N  N1075  1  0.821700  0.436800  0.144680  1
  N  N1076  1  0.321700  0.563200  0.355320  1
  N  N1077  1  0.168700  0.470300  0.887560  1
  N  N1078  1  0.668700  0.529700  0.612440  1
  N  N1079  1  0.831300  0.529700  0.112440  1
  N  N1080  1  0.331300  0.470300  0.387560  1
  N  N1081  1  0.144400  0.284600  0.970120  1
  N  N1082  1  0.644400  0.715400  0.529880  1
  N  N1083  1  0.855600  0.715400  0.029880  1
  N  N1084  1  0.355600  0.284600  0.470120  1
  N  N1085  1  0.112600  0.196900  0.004620  1
  N  N1086  1  0.612600  0.803100  0.495380  1
  N  N1087  1  0.887400  0.803100  0.995380  1
  N  N1088  1  0.387400  0.196900  0.504620  1
  N  N1089  1  0.220800  0.120200  0.967780  1
  N  N1090  1  0.720800  0.879800  0.532220  1
  N  N1091  1  0.779200  0.879800  0.032220  1
  N  N1092  1  0.279200  0.120200  0.467780  1
  N  N1093  1  0.120500  0.166900  0.932050  1
  N  N1094  1  0.620500  0.833100  0.567950  1
  N  N1095  1  0.879500  0.833100  0.067950  1
  N  N1096  1  0.379500  0.166900  0.432050  1
  N  N1097  1  0.889300  0.292900  0.869850  1
  N  N1098  1  0.389300  0.707100  0.630150  1
  N  N1099  1  0.110700  0.707100  0.130150  1
  N  N1100  1  0.610700  0.292900  0.369850  1
  N  N1101  1  0.778400  0.340200  0.839940  1
  N  N1102  1  0.278400  0.659800  0.660060  1
  N  N1103  1  0.221600  0.659800  0.160060  1
  N  N1104  1  0.721600  0.340200  0.339940  1
  N  N1105  1  0.212500  0.111600  0.699960  1
  N  N1106  1  0.712500  0.888400  0.800040  1
  N  N1107  1  0.787500  0.888400  0.300040  1
  N  N1108  1  0.287500  0.111600  0.199960  1
  N  N1109  1  0.228500  0.209400  0.741280  1
  N  N1110  1  0.728500  0.790600  0.758720  1
  N  N1111  1  0.771500  0.790600  0.258720  1
  N  N1112  1  0.271500  0.209400  0.241280  1
  N  N1113  1  0.295000  0.414000  0.839070  1
  N  N1114  1  0.795000  0.586000  0.660930  1
  N  N1115  1  0.705000  0.586000  0.160930  1
  N  N1116  1  0.205000  0.414000  0.339070  1
  N  N1117  1  0.319600  0.511900  0.878710  1
  N  N1118  1  0.819600  0.488100  0.621290  1
  N  N1119  1  0.680400  0.488100  0.121290  1
  N  N1120  1  0.180400  0.511900  0.378710  1
  N  N1121  1  0.372600  0.671500  0.836500  1
  N  N1122  1  0.872600  0.328500  0.663500  1
  N  N1123  1  0.627400  0.328500  0.163500  1
  N  N1124  1  0.127400  0.671500  0.336500  1
  N  N1125  1  0.701700  0.100200  0.976600  1
  N  N1126  1  0.201700  0.899800  0.523400  1
  N  N1127  1  0.298300  0.899800  0.023400  1
  N  N1128  1  0.798300  0.100200  0.476600  1
  N  N1129  1  0.594700  0.868000  0.949700  1
  N  N1130  1  0.094700  0.132000  0.550300  1
  N  N1131  1  0.405300  0.132000  0.050300  1
  N  N1132  1  0.905300  0.868000  0.449700  1
  N  N1133  1  0.654600  0.544800  0.946400  1
  N  N1134  1  0.154600  0.455200  0.553600  1
  N  N1135  1  0.345400  0.455200  0.053600  1
  N  N1136  1  0.845400  0.544800  0.446400  1
  N  N1137  1  0.592500  0.280800  0.035800  1
  N  N1138  1  0.092500  0.719200  0.464200  1
  N  N1139  1  0.407500  0.719200  0.964200  1
  N  N1140  1  0.907500  0.280800  0.535800  1
  N  N1141  1  0.181500  0.013100  0.855700  1
  N  N1142  1  0.681500  0.986900  0.644300  1
  N  N1143  1  0.818500  0.986900  0.144300  1
  N  N1144  1  0.318500  0.013100  0.355700  1
  O  O1145  1  0.916400  0.077900  0.902900  1
  O  O1146  1  0.416400  0.922100  0.597100  1
  O  O1147  1  0.083600  0.922100  0.097100  1
  O  O1148  1  0.583600  0.077900  0.402900  1
  O  O1149  1  0.989800  0.991100  0.888500  1
  O  O1150  1  0.489800  0.008900  0.611500  1
  O  O1151  1  0.010200  0.008900  0.111500  1
  O  O1152  1  0.510200  0.991100  0.388500  1
  O  O1153  1  0.873200  0.007200  0.853500  1
  O  O1154  1  0.373200  0.992800  0.646500  1
  O  O1155  1  0.126800  0.992800  0.146500  1
  O  O1156  1  0.626800  0.007200  0.353500  1
  O  O1157  1  0.042400  0.606000  0.978700  1
  O  O1158  1  0.542400  0.394000  0.521300  1
  O  O1159  1  0.957600  0.394000  0.021300  1
  O  O1160  1  0.457600  0.606000  0.478700  1
  O  O1161  1  0.146600  0.535100  0.984100  1
  O  O1162  1  0.646600  0.464900  0.515900  1
  O  O1163  1  0.853400  0.464900  0.015900  1
  O  O1164  1  0.353400  0.535100  0.484100  1
  O  O1165  1  0.089800  0.592100  0.036200  1
  O  O1166  1  0.589800  0.407900  0.463800  1
  O  O1167  1  0.910200  0.407900  0.963800  1
  O  O1168  1  0.410200  0.592100  0.536200  1
  O  O1169  1  0.156900  0.938000  0.707000  1
  O  O1170  1  0.656900  0.062000  0.793000  1
  O  O1171  1  0.843100  0.062000  0.293000  1
  O  O1172  1  0.343100  0.938000  0.207000  1
  O  O1173  1  0.054800  0.939600  0.750100  1
  O  O1174  1  0.554800  0.060400  0.749900  1
  O  O1175  1  0.945200  0.060400  0.249900  1
  O  O1176  1  0.445200  0.939600  0.250100  1
  O  O1177  1  0.064300  0.857500  0.702400  1
  O  O1178  1  0.564300  0.142500  0.797600  1
  O  O1179  1  0.935700  0.142500  0.297600  1
  O  O1180  1  0.435700  0.857500  0.202400  1
  O  O1181  1  0.703000  0.603000  0.800800  1
  O  O1182  1  0.203000  0.397000  0.699200  1
  O  O1183  1  0.297000  0.397000  0.199200  1
  O  O1184  1  0.797000  0.603000  0.300800  1
  O  O1185  1  0.691000  0.685100  0.848800  1
  O  O1186  1  0.191000  0.314900  0.651200  1
  O  O1187  1  0.309000  0.314900  0.151200  1
  O  O1188  1  0.809000  0.685100  0.348800  1
  O  O1189  1  0.586800  0.662600  0.808500  1
  O  O1190  1  0.086800  0.337400  0.691500  1
  O  O1191  1  0.413200  0.337400  0.191500  1
  O  O1192  1  0.913200  0.662600  0.308500  1
  O  O1193  1  0.062700  0.681300  0.788700  1
  O  O1194  1  0.562700  0.318700  0.711300  1
  O  O1195  1  0.937300  0.318700  0.211300  1
  O  O1196  1  0.437300  0.681300  0.288700  1
  O  O1197  1  0.166600  0.623000  0.760700  1
  O  O1198  1  0.666600  0.377000  0.739300  1
  O  O1199  1  0.833400  0.377000  0.239300  1
  O  O1200  1  0.333400  0.623000  0.260700  1
  O  O1201  1  0.069400  0.663400  0.724900  1
  O  O1202  1  0.569400  0.336600  0.775100  1
  O  O1203  1  0.930600  0.336600  0.275100  1
  O  O1204  1  0.430600  0.663400  0.224900  1
  O  O1205  1  0.512800  0.013700  0.976100  1
  O  O1206  1  0.012800  0.986300  0.523900  1
  O  O1207  1  0.487200  0.986300  0.023900  1
  O  O1208  1  0.987200  0.013700  0.476100  1
  O  O1209  1  0.609800  0.073300  0.954200  1
  O  O1210  1  0.109800  0.926700  0.545800  1
  O  O1211  1  0.390200  0.926700  0.045800  1
  O  O1212  1  0.890200  0.073300  0.454200  1
  O  O1213  1  0.540800  0.996300  0.914000  1
  O  O1214  1  0.040800  0.003700  0.586000  1
  O  O1215  1  0.459200  0.003700  0.086000  1
  O  O1216  1  0.959200  0.996300  0.414000  1
  O  O1217  1  0.415000  0.360300  0.928390  1
  O  O1218  1  0.915000  0.639700  0.571610  1
  O  O1219  1  0.585000  0.639700  0.071610  1
  O  O1220  1  0.085000  0.360300  0.428390  1
  O  O1221  1  0.508300  0.283000  0.937000  1
  O  O1222  1  0.008300  0.717000  0.563000  1
  O  O1223  1  0.491700  0.717000  0.063000  1
  O  O1224  1  0.991700  0.283000  0.437000  1
  O  O1225  1  0.536300  0.355200  0.897100  1
  O  O1226  1  0.036300  0.644800  0.602900  1
  O  O1227  1  0.463700  0.644800  0.102900  1
  O  O1228  1  0.963700  0.355200  0.397100  1
  O  O1229  1  0.231200  0.868700  0.872000  1
  O  O1230  1  0.731200  0.131300  0.628000  1
  O  O1231  1  0.768800  0.131300  0.128000  1
  O  O1232  1  0.268800  0.868700  0.372000  1
  O  O1233  1  0.138300  0.885500  0.920300  1
  O  O1234  1  0.638300  0.114500  0.579700  1
  O  O1235  1  0.861700  0.114500  0.079700  1
  O  O1236  1  0.361700  0.885500  0.420300  1
  O  O1237  1  0.124300  0.803200  0.872940  1
  O  O1238  1  0.624300  0.196800  0.627060  1
  O  O1239  1  0.875700  0.196800  0.127060  1
  O  O1240  1  0.375700  0.803200  0.372940  1
  O  O1241  1  0.493600  0.300300  0.827000  1
  O  O1242  1  0.993600  0.699700  0.673000  1
  O  O1243  1  0.506400  0.699700  0.173000  1
  O  O1244  1  0.006400  0.300300  0.327000  1
  O  O1245  1  0.972900  0.047200  0.884400  1
  O  O1246  1  0.472900  0.952800  0.615600  1
  O  O1247  1  0.027100  0.952800  0.115600  1
  O  O1248  1  0.527100  0.047200  0.384400  1
  O  O1249  1  0.930400  0.948200  0.892500  1
  O  O1250  1  0.430400  0.051800  0.607500  1
  O  O1251  1  0.069600  0.051800  0.107500  1
  O  O1252  1  0.569600  0.948200  0.392500  1
  O  O1253  1  0.845300  0.009900  0.864000  1
  O  O1254  1  0.345300  0.990100  0.636000  1
  O  O1255  1  0.154700  0.990100  0.136000  1
  O  O1256  1  0.654700  0.009900  0.364000  1
  O  O1257  1  0.082000  0.631400  0.032400  1
  O  O1258  1  0.582000  0.368600  0.467600  1
  O  O1259  1  0.918000  0.368600  0.967600  1
  O  O1260  1  0.418000  0.631400  0.532400  1
  O  O1261  1  0.141000  0.703100  0.998400  1
  O  O1262  1  0.641000  0.296900  0.501600  1
  O  O1263  1  0.859000  0.296900  0.001600  1
  O  O1264  1  0.359000  0.703100  0.498400  1
  O  O1265  1  0.065800  0.621700  0.969100  1
  O  O1266  1  0.565800  0.378300  0.530900  1
  O  O1267  1  0.934200  0.378300  0.030900  1
  O  O1268  1  0.434200  0.621700  0.469100  1
  O  O1269  1  0.149000  0.924400  0.699000  1
  O  O1270  1  0.649000  0.075600  0.801000  1
  O  O1271  1  0.851000  0.075600  0.301000  1
  O  O1272  1  0.351000  0.924400  0.199000  1
  O  O1273  1  0.040400  0.909600  0.740000  1
  O  O1274  1  0.540400  0.090400  0.760000  1
  O  O1275  1  0.959600  0.090400  0.260000  1
  O  O1276  1  0.459600  0.909600  0.240000  1
  O  O1277  1  0.061500  0.005400  0.720700  1
  O  O1278  1  0.561500  0.994600  0.779300  1
  O  O1279  1  0.938500  0.994600  0.279300  1
  O  O1280  1  0.438500  0.005400  0.220700  1
  O  O1281  1  0.552100  0.636000  0.805200  1
  O  O1282  1  0.052100  0.364000  0.694800  1
  O  O1283  1  0.447900  0.364000  0.194800  1
  O  O1284  1  0.947900  0.636000  0.305200  1
  O  O1285  1  0.644500  0.694700  0.843600  1
  O  O1286  1  0.144500  0.305300  0.656400  1
  O  O1287  1  0.355500  0.305300  0.156400  1
  O  O1288  1  0.855500  0.694700  0.343600  1
  O  O1289  1  0.692900  0.622300  0.797000  1
  O  O1290  1  0.192900  0.377700  0.703000  1
  O  O1291  1  0.307100  0.377700  0.203000  1
  O  O1292  1  0.807100  0.622300  0.297000  1
  O  O1293  1  0.505800  0.766800  0.799200  1
  O  O1294  1  0.005800  0.233200  0.700800  1
  O  O1295  1  0.494200  0.233200  0.200800  1
  O  O1296  1  0.994200  0.766800  0.299200  1
  O  O1297  1  0.575100  0.711300  0.836100  1
  O  O1298  1  0.075100  0.288700  0.663900  1
  O  O1299  1  0.424900  0.288700  0.163900  1
  O  O1300  1  0.924900  0.711300  0.336100  1
  O  O1301  1  0.446500  0.680700  0.817100  1
  O  O1302  1  0.946500  0.319300  0.682900  1
  O  O1303  1  0.553500  0.319300  0.182900  1
  O  O1304  1  0.053500  0.680700  0.317100  1
  O  O1305  1  0.020300  0.614000  0.716600  1
  O  O1306  1  0.520300  0.386000  0.783400  1
  O  O1307  1  0.979700  0.386000  0.283400  1
  O  O1308  1  0.479700  0.614000  0.216600  1
  O  O1309  1  0.034500  0.672700  0.775100  1
  O  O1310  1  0.534500  0.327300  0.724900  1
  O  O1311  1  0.965500  0.327300  0.224900  1
  O  O1312  1  0.465500  0.672700  0.275100  1
  O  O1313  1  0.133000  0.598200  0.751000  1
  O  O1314  1  0.633000  0.401800  0.749000  1
  O  O1315  1  0.867000  0.401800  0.249000  1
  O  O1316  1  0.367000  0.598200  0.251000  1
  O  O1317  1  0.532000  0.148900  0.962800  1
  O  O1318  1  0.032000  0.851100  0.537200  1
  O  O1319  1  0.468000  0.851100  0.037200  1
  O  O1320  1  0.968000  0.148900  0.462800  1
  O  O1321  1  0.476000  0.097000  0.909500  1
  O  O1322  1  0.976000  0.903000  0.590500  1
  O  O1323  1  0.524000  0.903000  0.090500  1
  O  O1324  1  0.024000  0.097000  0.409500  1
  O  O1325  1  0.435000  0.078000  0.966800  1
  O  O1326  1  0.935000  0.922000  0.533200  1
  O  O1327  1  0.565000  0.922000  0.033200  1
  O  O1328  1  0.065000  0.078000  0.466800  1
  F  F1329  1  0.852500  0.924400  0.905300  1
  F  F1330  1  0.352500  0.075600  0.594700  1
  F  F1331  1  0.147500  0.075600  0.094700  1
  F  F1332  1  0.647500  0.924400  0.405300  1
  F  F1333  1  0.893900  0.988600  0.950400  1
  F  F1334  1  0.393900  0.011400  0.549600  1
  F  F1335  1  0.106100  0.011400  0.049600  1
  F  F1336  1  0.606100  0.988600  0.450400  1
  F  F1337  1  0.787300  0.002300  0.921600  1
  F  F1338  1  0.287300  0.997700  0.578400  1
  F  F1339  1  0.212700  0.997700  0.078400  1
  F  F1340  1  0.712700  0.002300  0.421600  1
  F  F1341  1  0.199300  0.648600  0.963700  1
  F  F1342  1  0.699300  0.351400  0.536300  1
  F  F1343  1  0.800700  0.351400  0.036300  1
  F  F1344  1  0.300700  0.648600  0.463700  1
  F  F1345  1  0.239400  0.637100  0.016700  1
  F  F1346  1  0.739400  0.362900  0.483300  1
  F  F1347  1  0.760600  0.362900  0.983300  1
  F  F1348  1  0.260600  0.637100  0.516700  1
  F  F1349  1  0.150200  0.693100  0.012400  1
  F  F1350  1  0.650200  0.306900  0.487600  1
  F  F1351  1  0.849800  0.306900  0.987600  1
  F  F1352  1  0.349800  0.693100  0.512400  1
  F  F1353  1  0.943500  0.944600  0.690700  1
  F  F1354  1  0.443500  0.055400  0.809300  1
  F  F1355  1  0.056500  0.055400  0.309300  1
  F  F1356  1  0.556500  0.944600  0.190700  1
  F  F1357  1  0.035800  0.945500  0.653200  1
  F  F1358  1  0.535800  0.054500  0.846800  1
  F  F1359  1  0.964200  0.054500  0.346800  1
  F  F1360  1  0.464200  0.945500  0.153200  1
  F  F1361  1  0.022200  0.015800  0.697200  1
  F  F1362  1  0.522200  0.984200  0.802800  1
  F  F1363  1  0.977800  0.984200  0.302800  1
  F  F1364  1  0.477800  0.015800  0.197200  1
  F  F1365  1  0.547700  0.607200  0.867300  1
  F  F1366  1  0.047700  0.392800  0.632700  1
  F  F1367  1  0.452300  0.392800  0.132700  1
  F  F1368  1  0.952300  0.607200  0.367300  1
  F  F1369  1  0.585000  0.545400  0.820700  1
  F  F1370  1  0.085000  0.454600  0.679300  1
  F  F1371  1  0.415000  0.454600  0.179300  1
  F  F1372  1  0.915000  0.545400  0.320700  1
  F  F1373  1  0.655200  0.568500  0.869000  1
  F  F1374  1  0.155200  0.431500  0.631000  1
  F  F1375  1  0.344800  0.431500  0.131000  1
  F  F1376  1  0.844800  0.568500  0.369000  1
  F  F1377  1  0.039900  0.556000  0.788000  1
  F  F1378  1  0.539900  0.444000  0.712000  1
  F  F1379  1  0.960100  0.444000  0.212000  1
  F  F1380  1  0.460100  0.556000  0.288000  1
  F  F1381  1  0.957800  0.590000  0.754400  1
  F  F1382  1  0.457800  0.410000  0.745600  1
  F  F1383  1  0.042200  0.410000  0.245600  1
  F  F1384  1  0.542200  0.590000  0.254400  1
  F  F1385  1  0.052300  0.541700  0.728900  1
  F  F1386  1  0.552300  0.458300  0.771100  1
  F  F1387  1  0.947700  0.458300  0.271100  1
  F  F1388  1  0.447700  0.541700  0.228900  1
  F  F1389  1  0.463200  0.130900  0.967700  1
  F  F1390  1  0.963200  0.869100  0.532300  1
  F  F1391  1  0.536800  0.869100  0.032300  1
  F  F1392  1  0.036800  0.130900  0.467700  1
  F  F1393  1  0.492600  0.125000  0.914800  1
  F  F1394  1  0.992600  0.875000  0.585200  1
  F  F1395  1  0.507400  0.875000  0.085200  1
  F  F1396  1  0.007400  0.125000  0.414800  1
  F  F1397  1  0.406500  0.064300  0.928400  1
  F  F1398  1  0.906500  0.935700  0.571600  1
  F  F1399  1  0.593500  0.935700  0.071600  1
  F  F1400  1  0.093500  0.064300  0.428400  1
  F  F1401  1  0.505400  0.383500  0.995220  1
  F  F1402  1  0.005400  0.616500  0.504780  1
  F  F1403  1  0.494600  0.616500  0.004780  1
  F  F1404  1  0.994600  0.383500  0.495220  1
  F  F1405  1  0.611800  0.381600  0.967100  1
  F  F1406  1  0.111800  0.618400  0.532900  1
  F  F1407  1  0.388200  0.618400  0.032900  1
  F  F1408  1  0.888200  0.381600  0.467100  1
  F  F1409  1  0.525900  0.447300  0.961100  1
  F  F1410  1  0.025900  0.552700  0.538900  1
  F  F1411  1  0.474100  0.552700  0.038900  1
  F  F1412  1  0.974100  0.447300  0.461100  1
  F  F1413  1  0.285300  0.827200  0.938200  1
  F  F1414  1  0.785300  0.172800  0.561800  1
  F  F1415  1  0.714700  0.172800  0.061800  1
  F  F1416  1  0.214700  0.827200  0.438200  1
  F  F1417  1  0.267400  0.753100  0.898200  1
  F  F1418  1  0.767400  0.246900  0.601800  1
  F  F1419  1  0.732600  0.246900  0.101800  1
  F  F1420  1  0.232600  0.753100  0.398200  1
  F  F1421  1  0.186400  0.769600  0.939000  1
  F  F1422  1  0.686400  0.230400  0.561000  1
  F  F1423  1  0.813600  0.230400  0.061000  1
  F  F1424  1  0.313600  0.769600  0.439000  1
  F  F1425  1  0.841900  0.091800  0.931600  1
  F  F1426  1  0.341900  0.908200  0.568400  1
  F  F1427  1  0.158100  0.908200  0.068400  1
  F  F1428  1  0.658100  0.091800  0.431600  1
  F  F1429  1  0.931800  0.049600  0.955400  1
  F  F1430  1  0.431800  0.950400  0.544600  1
  F  F1431  1  0.068200  0.950400  0.044600  1
  F  F1432  1  0.568200  0.049600  0.455400  1
  F  F1433  1  0.821700  0.004300  0.944600  1
  F  F1434  1  0.321700  0.995700  0.555400  1
  F  F1435  1  0.178300  0.995700  0.055400  1
  F  F1436  1  0.678300  0.004300  0.444600  1
  F  F1437  1  0.232000  0.583400  0.019600  1
  F  F1438  1  0.732000  0.416600  0.480400  1
  F  F1439  1  0.768000  0.416600  0.980400  1
  F  F1440  1  0.268000  0.583400  0.519600  1
  F  F1441  1  0.252900  0.626400  0.973600  1
  F  F1442  1  0.752900  0.373600  0.526400  1
  F  F1443  1  0.747100  0.373600  0.026400  1
  F  F1444  1  0.247100  0.626400  0.473600  1
  F  F1445  1  0.177700  0.553500  0.970200  1
  F  F1446  1  0.677700  0.446500  0.529800  1
  F  F1447  1  0.822300  0.446500  0.029800  1
  F  F1448  1  0.322300  0.553500  0.470200  1
  F  F1449  1  0.937900  0.934600  0.682500  1
  F  F1450  1  0.437900  0.065400  0.817500  1
  F  F1451  1  0.062100  0.065400  0.317500  1
  F  F1452  1  0.562100  0.934600  0.182500  1
  F  F1453  1  0.031000  0.947200  0.648300  1
  F  F1454  1  0.531000  0.052800  0.851700  1
  F  F1455  1  0.969000  0.052800  0.351700  1
  F  F1456  1  0.469000  0.947200  0.148300  1
  F  F1457  1  0.012400  0.862500  0.664300  1
  F  F1458  1  0.512400  0.137500  0.835700  1
  F  F1459  1  0.987600  0.137500  0.335700  1
  F  F1460  1  0.487600  0.862500  0.164300  1
  F  F1461  1  0.575000  0.615000  0.878100  1
  F  F1462  1  0.075000  0.385000  0.621900  1
  F  F1463  1  0.425000  0.385000  0.121900  1
  F  F1464  1  0.925000  0.615000  0.378100  1
  F  F1465  1  0.594200  0.538500  0.839400  1
  F  F1466  1  0.094200  0.461500  0.660600  1
  F  F1467  1  0.405800  0.461500  0.160600  1
  F  F1468  1  0.905800  0.538500  0.339400  1
  F  F1469  1  0.690400  0.589500  0.868800  1
  F  F1470  1  0.190400  0.410500  0.631200  1
  F  F1471  1  0.309600  0.410500  0.131200  1
  F  F1472  1  0.809600  0.589500  0.368800  1
  F  F1473  1  0.383700  0.788100  0.862000  1
  F  F1474  1  0.883700  0.211900  0.638000  1
  F  F1475  1  0.616300  0.211900  0.138000  1
  F  F1476  1  0.116300  0.788100  0.362000  1
  F  F1477  1  0.495900  0.815600  0.879300  1
  F  F1478  1  0.995900  0.184400  0.620700  1
  F  F1479  1  0.504100  0.184400  0.120700  1
  F  F1480  1  0.004100  0.815600  0.379300  1
  F  F1481  1  0.445900  0.734100  0.890400  1
  F  F1482  1  0.945900  0.265900  0.609600  1
  F  F1483  1  0.554100  0.265900  0.109600  1
  F  F1484  1  0.054100  0.734100  0.390400  1
  F  F1485  1  0.023600  0.566300  0.806400  1
  F  F1486  1  0.523600  0.433700  0.693600  1
  F  F1487  1  0.976400  0.433700  0.193600  1
  F  F1488  1  0.476400  0.566300  0.306400  1
  F  F1489  1  0.022000  0.515600  0.753500  1
  F  F1490  1  0.522000  0.484400  0.746500  1
  F  F1491  1  0.978000  0.484400  0.246500  1
  F  F1492  1  0.478000  0.515600  0.253500  1
  F  F1493  1  0.927100  0.578000  0.772700  1
  F  F1494  1  0.427100  0.422000  0.727300  1
  F  F1495  1  0.072900  0.422000  0.227300  1
  F  F1496  1  0.572900  0.578000  0.272700  1
  F  F1497  1  0.603000  0.036000  0.974100  1
  F  F1498  1  0.103000  0.964000  0.525900  1
  F  F1499  1  0.397000  0.964000  0.025900  1
  F  F1500  1  0.897000  0.036000  0.474100  1
  F  F1501  1  0.619000  0.040000  0.919100  1
  F  F1502  1  0.119000  0.960000  0.580900  1
  F  F1503  1  0.381000  0.960000  0.080900  1
  F  F1504  1  0.881000  0.040000  0.419100  1
  F  F1505  1  0.534000  0.982600  0.935600  1
  F  F1506  1  0.034000  0.017400  0.564400  1
  F  F1507  1  0.466000  0.017400  0.064400  1
  F  F1508  1  0.966000  0.982600  0.435600  1
