
#######################################################################
#
#                 Cambridge Crystallographic Data Centre
#                                CCDC 
#
#######################################################################
#
# If this CIF has been generated from an entry in the Cambridge 
# Structural Database, then it will include bibliographic, chemical, 
# crystal, experimental, refinement or atomic coordinate data resulting 
# from the CCDC's data processing and validation procedures.
#
#######################################################################

data_JOTNAJ
_chemical_formula_moiety         
'C108 H84 Fe4 N24 8+,8(C1 F3 O3 S1 1-),3(C2 H3 N1),H2 O1'
_chemical_name_systematic        
"hexakis(\m-N,N'-1,4-phenylenebis(1-(pyridin-2-yl)methanimine))-tetra-iron(ii) octakis(trifluoromethanesulfonate) acetonitrile solvate monohydrate"
_symmetry_cell_setting           monoclinic
_symmetry_space_group_name_H-M   'P 21/c'
_symmetry_Int_Tables_number      14
_space_group_name_Hall           '-P 2ybc'
loop_
_symmetry_equiv_pos_site_id
_symmetry_equiv_pos_as_xyz
1 x,y,z
2 -x,1/2+y,1/2-z
3 -x,-y,-z
4 x,1/2-y,1/2+z
_cell_length_a                   22.8993(10)
_cell_length_b                   17.3146(5)
_cell_length_c                   37.9734(16)
_cell_angle_alpha                90
_cell_angle_beta                 98.5386(14)
_cell_angle_gamma                90
_cell_volume                     14889.3
_exptl_crystal_colour            purple
_exptl_crystal_description       'thin plate'
_cell_formula_units_Z            4
loop_
_atom_site_label
_atom_site_type_symbol
_atom_site_fract_x
_atom_site_fract_y
_atom_site_fract_z
Fe1 Fe 0.79641(5) 0.80739(7) 0.03197(3)
Fe2 Fe 0.86971(6) 0.73137(7) 0.25473(3)
Fe3 Fe 0.73402(6) 1.16590(7) 0.17457(3)
Fe4 Fe 0.51380(5) 0.76656(8) 0.15386(3)
N1 N 0.7642(3) 0.7316(4) -0.00507(16)
N2 N 0.7883(3) 0.7165(4) 0.06398(16)
N3 N 0.8366(3) 0.6648(4) 0.21255(16)
N4 N 0.8482(3) 0.6385(4) 0.28067(17)
C1 C 0.7488(5) 0.7426(5) -0.0402(2)
H1 H 0.7555 0.7914 -0.0503
C2 C 0.7228(5) 0.6828(6) -0.0623(3)
H2 H 0.7110 0.6917 -0.0870
C3 C 0.7147(6) 0.6121(7) -0.0481(3)
H3 H 0.6982 0.5714 -0.0631
C4 C 0.7301(5) 0.5993(6) -0.0123(2)
H4 H 0.7245 0.5503 -0.0021
C5 C 0.7543(4) 0.6610(5) 0.0084(2)
C6 C 0.7703(4) 0.6554(5) 0.0463(2)
H5 H 0.7677 0.6075 0.0581
C7 C 0.8018(4) 0.7082(4) 0.10191(19)
C8 C 0.8564(4) 0.7287(5) 0.1208(2)
H6 H 0.8857 0.7512 0.1088
C9 C 0.8681(4) 0.7161(5) 0.1576(2)
H7 H 0.9050 0.7312 0.1707
C10 C 0.8260(4) 0.6817(5) 0.1748(2)
C11 C 0.7719(4) 0.6605(5) 0.1555(2)
H8 H 0.7433 0.6358 0.1673
C12 C 0.7596(4) 0.6749(5) 0.1196(2)
H9 H 0.7219 0.6620 0.1069
C13 C 0.8164(4) 0.6001(5) 0.2218(2)
H10 H 0.7996 0.5640 0.2044
C14 C 0.8198(4) 0.5832(5) 0.2592(2)
C15 C 0.7953(4) 0.5188(6) 0.2720(2)
H11 H 0.7745 0.4823 0.2562
C16 C 0.8013(4) 0.5080(6) 0.3084(2)
H12 H 0.7844 0.4641 0.3179
C17 C 0.8320(5) 0.5614(6) 0.3305(3)
H13 H 0.8373 0.5544 0.3556
C18 C 0.8552(4) 0.6260(6) 0.3158(2)
H14 H 0.8769 0.6625 0.3312
N5 N 0.9505(3) 0.6923(4) 0.25381(17)
N6 N 0.9009(3) 0.8203(4) 0.23067(17)
N7 N 0.8131(3) 1.1127(4) 0.17992(17)
N8 N 0.7760(3) 1.2403(4) 0.14747(18)
C19 C 0.9737(4) 0.6239(5) 0.2645(2)
H15 H 0.9502 0.5883 0.2753
C20 C 1.0304(4) 0.6033(6) 0.2605(3)
H16 H 1.0452 0.5541 0.2685
C21 C 1.0658(5) 0.6534(6) 0.2450(3)
H17 H 1.1050 0.6394 0.2422
C22 C 1.0428(4) 0.7249(5) 0.2338(2)
H18 H 1.0660 0.7611 0.2231
C23 C 0.9851(4) 0.7427(5) 0.2383(2)
C24 C 0.9567(4) 0.8133(5) 0.2274(2)
H19 H 0.9774 0.8541 0.2180
C25 C 0.8754(3) 0.8941(4) 0.2174(2)
C26 C 0.8447(3) 0.9394(4) 0.2386(2)
H20 H 0.8384 0.9213 0.2613
C27 C 0.8227(3) 1.0125(4) 0.2265(2)
H21 H 0.8016 1.0438 0.2409
C28 C 0.8327(3) 1.0375(4) 0.1930(2)
C29 C 0.8634(3) 0.9926(5) 0.1719(2)
H22 H 0.8709 1.0111 0.1495
C30 C 0.8834(4) 0.9188(5) 0.1841(2)
H23 H 0.9025 0.8862 0.1692
C31 C 0.8516(4) 1.1516(5) 0.1652(2)
H24 H 0.8913 1.1343 0.1669
C32 C 0.8325(4) 1.2222(4) 0.1463(2)
C33 C 0.8701(5) 1.2665(5) 0.1297(3)
H25 H 0.9100 1.2516 0.1299
C34 C 0.8486(6) 1.3329(6) 0.1128(3)
H26 H 0.8732 1.3642 0.1006
C35 C 0.7912(6) 1.3532(6) 0.1139(3)
H27 H 0.7757 1.3995 0.1027
C36 C 0.7561(5) 1.3070(5) 0.1310(2)
H28 H 0.7164 1.3221 0.1315
N9 N 0.7586(3) 1.2244(4) 0.21910(18)
N10 N 0.6941(3) 1.1019(4) 0.20776(16)
N11 N 0.5440(3) 0.8410(4) 0.19381(17)
N12 N 0.4882(3) 0.7087(4) 0.19439(18)
C37 C 0.7948(4) 1.2868(5) 0.2247(3)
H29 H 0.8094 1.3103 0.2051
C38 C 0.8108(4) 1.3165(5) 0.2584(3)
H30 H 0.8373 1.3590 0.2615
C39 C 0.7904(4) 1.2881(6) 0.2870(3)
H31 H 0.8012 1.3108 0.3098
C40 C 0.7528(4) 1.2238(5) 0.2825(2)
H32 H 0.7378 1.2012 0.3021
C41 C 0.7382(4) 1.1946(5) 0.2482(2)
C42 C 0.7006(4) 1.1281(5) 0.2403(2)
H33 H 0.6814 1.1045 0.2580
C43 C 0.6573(3) 1.0348(5) 0.2020(2)
C44 C 0.6681(4) 0.9720(5) 0.2250(2)
H34 H 0.7016 0.9724 0.2431
C45 C 0.6302(4) 0.9089(5) 0.2217(2)
H35 H 0.6376 0.8668 0.2379
C46 C 0.5819(3) 0.9070(4) 0.19513(19)
C47 C 0.5716(3) 0.9677(5) 0.1713(2)
H36 H 0.5391 0.9656 0.1526
C48 C 0.6087(4) 1.0318(5) 0.1745(2)
H37 H 0.6012 1.0735 0.1582
C49 C 0.5298(4) 0.8188(5) 0.2238(2)
H38 H 0.5397 0.8498 0.2444
C50 C 0.4999(4) 0.7488(5) 0.2259(2)
C51 C 0.4862(4) 0.7176(7) 0.2577(3)
H39 H 0.4962 0.7443 0.2796
C52 C 0.4573(5) 0.6455(6) 0.2565(3)
H40 H 0.4473 0.6230 0.2776
C53 C 0.4440(5) 0.6088(6) 0.2251(3)
H41 H 0.4237 0.5608 0.2238
C54 C 0.4601(4) 0.6414(6) 0.1948(3)
H42 H 0.4506 0.6143 0.1729
N13 N 0.4368(3) 0.8217(5) 0.14468(19)
N14 N 0.5297(3) 0.8313(4) 0.11244(17)
N15 N 0.7154(3) 0.8556(4) 0.02988(16)
N16 N 0.8031(3) 0.8874(4) -0.00462(18)
C55 C 0.3896(4) 0.8137(6) 0.1610(3)
H43 H 0.3913 0.7784 0.1802
C56 C 0.3380(4) 0.8551(8) 0.1507(3)
H44 H 0.3047 0.8470 0.1625
C57 C 0.3353(4) 0.9070(8) 0.1239(3)
H45 H 0.3004 0.9360 0.1168
C58 C 0.3826(4) 0.9170(7) 0.1073(3)
H46 H 0.3816 0.9543 0.0889
C59 C 0.4329(4) 0.8726(5) 0.1171(2)
C60 C 0.4847(4) 0.8745(5) 0.1005(2)
H47 H 0.4863 0.9074 0.0806
C61 C 0.5789(3) 0.8357(5) 0.0932(2)
C62 C 0.5987(4) 0.9093(5) 0.0835(2)
H48 H 0.5812 0.9549 0.0912
C63 C 0.6428(3) 0.9140(5) 0.0633(2)
H49 H 0.6560 0.9634 0.0570
C64 C 0.6692(3) 0.8476(5) 0.05161(19)
C65 C 0.6505(3) 0.7762(5) 0.0620(2)
H50 H 0.6687 0.7306 0.0549
C66 C 0.6054(4) 0.7706(5) 0.0827(2)
H51 H 0.5928 0.7213 0.0895
C67 C 0.7066(4) 0.9093(5) 0.0059(2)
H52 H 0.6698 0.9357 0.0016
C68 C 0.7526(4) 0.9282(5) -0.0138(2)
C69 C 0.7485(5) 0.9885(6) -0.0389(3)
H53 H 0.7135 1.0184 -0.0442
C70 C 0.7970(5) 1.0028(6) -0.0556(3)
H54 H 0.7955 1.0420 -0.0732
C71 C 0.8477(5) 0.9600(7) -0.0465(3)
H55 H 0.8814 0.9696 -0.0578
C72 C 0.8493(4) 0.9034(6) -0.0212(2)
H56 H 0.8846 0.8744 -0.0151
N17 N 0.8798(3) 0.7792(4) 0.03222(18)
N18 N 0.8331(3) 0.8795(4) 0.06795(16)
N19 N 0.7071(3) 1.1107(4) 0.13015(17)
N20 N 0.6598(3) 1.2216(4) 0.16006(18)
C73 C 0.9024(4) 0.7223(6) 0.0141(2)
H57 H 0.8763 0.6875 0.0003
C74 C 0.9620(5) 0.7138(8) 0.0151(3)
H58 H 0.9769 0.6741 0.0015
C75 C 1.0015(5) 0.7637(9) 0.0362(3)
H59 H 1.0430 0.7581 0.0371
C76 C 0.9794(4) 0.8194(7) 0.0550(3)
H60 H 1.0050 0.8536 0.0696
C77 C 0.9192(4) 0.8263(5) 0.0529(2)
C78 C 0.8895(4) 0.8850(5) 0.0717(2)
H61 H 0.9106 0.9242 0.0858
C79 C 0.8009(4) 0.9380(4) 0.0845(2)
C80 C 0.7687(3) 0.9187(5) 0.1117(2)
H62 H 0.7677 0.8668 0.1197
C81 C 0.7385(4) 0.9755(4) 0.1268(2)
H63 H 0.7173 0.9629 0.1457
C82 C 0.7389(4) 1.0516(5) 0.1145(2)
C83 C 0.7697(4) 1.0696(5) 0.0874(2)
H64 H 0.7694 1.1210 0.0787
C84 C 0.8011(4) 1.0135(5) 0.0726(2)
H65 H 0.8231 1.0268 0.0542
C85 C 0.6631(4) 1.1416(5) 0.1104(2)
H66 H 0.6502 1.1243 0.0868
C86 C 0.6339(4) 1.2047(5) 0.1261(2)
C87 C 0.5854(4) 1.2445(6) 0.1089(3)
H67 H 0.5692 1.2322 0.0851
C88 C 0.5612(5) 1.3023(6) 0.1270(3)
H68 H 0.5278 1.3302 0.1158
C89 C 0.5859(5) 1.3195(6) 0.1620(3)
H69 H 0.5697 1.3588 0.1750
C90 C 0.6346(4) 1.2777(5) 0.1769(3)
H70 H 0.6513 1.2894 0.2007
N21 N 0.8884(3) 0.7875(4) 0.30004(17)
N22 N 0.7906(3) 0.7715(4) 0.25872(18)
N23 N 0.5860(3) 0.7050(4) 0.16093(17)
N24 N 0.4881(3) 0.6804(5) 0.12129(18)
C91 C 0.9419(4) 0.7981(5) 0.3199(2)
H71 H 0.9765 0.7820 0.3109
C92 C 0.9468(5) 0.8325(7) 0.3533(3)
H72 H 0.9848 0.8394 0.3669
C93 C 0.8981(5) 0.8562(7) 0.3668(3)
H73 H 0.9019 0.8793 0.3897
C94 C 0.8427(5) 0.8463(7) 0.3469(3)
H74 H 0.8080 0.8624 0.3557
C95 C 0.8397(4) 0.8117(5) 0.3134(2)
C96 C 0.7854(4) 0.8008(5) 0.2890(2)
H75 H 0.7480 0.8146 0.2951
C97 C 0.7374(4) 0.7570(5) 0.2340(2)
C98 C 0.7288(4) 0.7950(5) 0.2018(2)
H76 H 0.7567 0.8318 0.1960
C99 C 0.6768(3) 0.7776(4) 0.1772(2)
H77 H 0.6692 0.8038 0.1550
C100 C 0.6383(3) 0.7230(5) 0.1858(2)
C101 C 0.6481(4) 0.6847(5) 0.2178(2)
H78 H 0.6208 0.6467 0.2233
C102 C 0.6979(4) 0.7019(5) 0.2423(2)
H79 H 0.7047 0.6758 0.2645
C103 C 0.5810(4) 0.6365(5) 0.1474(2)
H80 H 0.6114 0.5990 0.1525
C104 C 0.5270(5) 0.6203(6) 0.1243(2)
C105 C 0.5145(6) 0.5502(6) 0.1061(3)
H81 H 0.5419 0.5087 0.1091
C106 C 0.4625(7) 0.5436(7) 0.0843(3)
H82 H 0.4536 0.4972 0.0712
C107 C 0.4227(6) 0.6026(9) 0.0809(3)
H83 H 0.3857 0.5960 0.0663
C108 C 0.4356(5) 0.6731(7) 0.0988(3)
H84 H 0.4085 0.7149 0.0953
S1 S 0.9834(6) 0.0864(8) 0.1128(3)
F1 F 1.0756(6) 0.1475(11) 0.0947(4)
F2 F 1.0114(7) 0.1061(11) 0.0496(4)
F3 F 0.9977(7) 0.2127(8) 0.0784(4)
O1 O 0.9221(6) 0.0836(10) 0.0971(4)
O2 O 1.0089(10) 0.0102(9) 0.1115(6)
O3 O 0.9928(10) 0.1268(10) 0.1465(4)
C109 C 1.0184(8) 0.1412(10) 0.0822(5)
S2 S 0.41134(19) 0.8938(2) 0.00089(9)
F4 F 0.3514(7) 0.8007(8) 0.0363(3)
F5 F 0.3629(7) 0.7606(7) -0.0167(4)
F6 F 0.3069(6) 0.8498(7) -0.0124(3)
O4 O 0.3940(6) 0.9576(6) 0.0213(3)
O5 O 0.4649(5) 0.8534(8) 0.0159(3)
O6 O 0.4079(6) 0.9102(7) -0.0362(2)
C110 C 0.3563(7) 0.8214(8) 0.0030(4)
S3 S 0.0817(3) 0.9195(5) 0.2861(2)
F7 F 0.0554(11) 1.0565(9) 0.3093(7)
F8 F 0.0545(13) 0.9642(19) 0.3468(5)
F9 F -0.0158(5) 0.9778(7) 0.3028(3)
O7 O 0.0620(10) 0.8431(8) 0.2930(6)
O8 O 0.0604(7) 0.9452(8) 0.2499(3)
O9 O 0.1425(5) 0.9357(7) 0.2976(4)
C111 C 0.0427(7) 0.9813(9) 0.3123(4)
S4 S 0.3611(8) 0.3434(11) 0.1746(5)
O10 O 0.3970(15) 0.297(2) 0.1992(9)
O11 O 0.3149(12) 0.309(2) 0.1512(8)
O12 O 0.3374(14) 0.4132(17) 0.1915(8)
F10 F 0.3928(15) 0.4523(17) 0.1327(8)
F11 F 0.4546(12) 0.415(2) 0.1793(7)
F12 F 0.4315(13) 0.3448(18) 0.1310(8)
C112 C 0.4122(12) 0.3941(17) 0.1533(7)
N25 N 0.3285(7) 0.6274(11) 0.1635(5)
C113 C 0.2988(8) 0.5858(11) 0.1461(5)
C114 C 0.2598(10) 0.5291(13) 0.1255(6)
H85 H 0.2799 0.5070 0.1068
H86 H 0.2233 0.5546 0.1147
H87 H 0.2503 0.4878 0.1414
S5 S 0.3571(4) 0.9088(5) 0.24279(19)
F13 F 0.4440(9) 0.9601(11) 0.2120(5)
F14 F 0.4100(9) 1.0422(9) 0.2456(6)
F15 F 0.4583(8) 0.9477(9) 0.2711(4)
O13 O 0.3187(9) 0.9373(12) 0.2113(4)
O14 O 0.3770(8) 0.8334(8) 0.2393(4)
O15 O 0.3366(9) 0.9306(11) 0.2751(4)
C115 C 0.4217(8) 0.9681(11) 0.2430(5)
S6 S 0.9630(2) 0.4568(4) 0.05367(14)
F16 F 0.8691(7) 0.5368(11) 0.0323(4)
F17 F 0.8750(7) 0.5074(10) 0.0852(4)
F18 F 0.9357(8) 0.5935(10) 0.0716(5)
O16 O 0.9863(7) 0.4872(11) 0.0239(4)
O17 O 0.9267(8) 0.3902(9) 0.0458(5)
O18 O 1.0037(7) 0.4592(11) 0.0860(4)
C116 C 0.9080(8) 0.5269(11) 0.0613(5)
N26 N 0.8998(13) 0.2983(16) 0.0234(9)
C117 C 0.8874(16) 0.2358(16) 0.0191(9)
C118 C 0.8605(15) 0.1591(16) 0.0152(8)
H88 H 0.8908 0.1197 0.0220
H89 H 0.8428 0.1511 -0.0097
H90 H 0.8298 0.1549 0.0305
S7 S 0.65865(16) 0.50515(14) 0.07266(7)
F19 F 0.6165(4) 0.4946(5) 0.00478(19)
F20 F 0.6184(4) 0.3882(4) 0.0329(3)
F21 F 0.5527(4) 0.4741(5) 0.0389(2)
O19 O 0.6397(4) 0.5850(4) 0.07161(19)
O20 O 0.7170(4) 0.4917(4) 0.0630(2)
O21 O 0.6448(5) 0.4637(5) 0.1029(2)
C119 C 0.6095(6) 0.4634(6) 0.0353(3)
S8 S 0.15538(15) 0.82365(19) 0.10721(8)
F22 F 0.1728(6) 0.7147(6) 0.0618(3)
F23 F 0.2469(6) 0.7326(7) 0.1018(4)
F24 F 0.2304(6) 0.8136(7) 0.0610(3)
O22 O 0.1313(7) 0.7688(8) 0.1280(3)
O23 O 0.1145(4) 0.8617(5) 0.0797(2)
O24 O 0.1968(3) 0.8757(4) 0.12706(18)
C120 C 0.2036(6) 0.7669(8) 0.0812(4)
N27 N 0.1320(10) 0.4053(8) 0.0503(4)
C121 C 0.1270(7) 0.4681(8) 0.0479(4)
C122 C 0.1180(8) 0.5517(8) 0.0469(4)
H91 H 0.0760 0.5630 0.0398
H92 H 0.1408 0.5747 0.0297
H93 H 0.1312 0.5734 0.0706
N28 N 0.4552(8) 0.3454(9) 0.0536(4)
C123 C 0.4634(8) 0.3371(8) 0.0253(4)
C124 C 0.4778(8) 0.3280(8) -0.0105(4)
H94 H 0.4422 0.3359 -0.0279
H95 H 0.4933 0.2759 -0.0132
H96 H 0.5077 0.3662 -0.0145
N29 N 0.7192(7) 0.4075(9) -0.0358(5)
C125 C 0.7422(9) 0.3757(11) -0.0123(5)
C126 C 0.7717(12) 0.3348(12) 0.0191(6)
H97 H 0.8039 0.3033 0.0125
H98 H 0.7432 0.3014 0.0286
H99 H 0.7878 0.3724 0.0373
N30 N 0.9869(5) 0.8185(8) 0.1443(3)
C127 C 1.0211(6) 0.8605(10) 0.1529(4)
C128 C 1.0696(6) 0.9153(9) 0.1632(4)
H100 H 1.1073 0.8876 0.1663
H101 H 1.0644 0.9404 0.1857
H102 H 1.0694 0.9545 0.1446
O25 O 0.6997(5) 0.5064(6) 0.1730(3)
S9? S 0.9919(6) 0.0901(8) 0.1113(4)
F25? F 0.9082(8) 0.1581(11) 0.0684(5)
F26? F 0.9504(11) 0.0682(13) 0.0446(6)
F27? F 0.9957(11) 0.1783(16) 0.0554(7)
O26? O 0.9528(8) 0.0271(9) 0.1156(5)
O27? O 1.0518(7) 0.0696(12) 0.1075(6)
O28? O 0.9901(12) 0.1547(10) 0.1360(6)
C129? C 0.9615(10) 0.1263(13) 0.0684(5)
S10? S 0.3565(6) 0.8875(8) -0.0005(3)
F28? F 0.4166(14) 0.7680(14) -0.0196(6)
F29? F 0.3736(14) 0.7471(17) 0.0264(8)
F30? F 0.4465(12) 0.8223(16) 0.0298(7)
O29? O 0.3686(14) 0.9180(17) -0.0324(6)
O30? O 0.2969(10) 0.859(2) 0.0016(9)
O31? O 0.3783(17) 0.9342(17) 0.0309(7)
C130? C 0.3986(11) 0.8006(13) 0.0083(7)
S11? S 0.0584(4) 0.9262(6) 0.2866(3)
F31? F 0.0654(11) 1.0621(9) 0.3175(7)
F32? F 0.0528(13) 0.969(2) 0.3517(5)
F33? F 0.1375(6) 0.9876(8) 0.3357(4)
O32? O 0.0756(10) 0.8510(9) 0.3010(7)
O33? O 0.0904(8) 0.9596(10) 0.2600(4)
O34? O -0.0054(5) 0.9385(9) 0.2793(4)
C131? C 0.0791(8) 0.9883(10) 0.3243(4)
S12? S 0.3604(5) 0.3720(5) 0.1795(3)
F34? F 0.3850(9) 0.4250(12) 0.1219(4)
F35? F 0.4615(8) 0.4058(14) 0.1606(5)
F36? F 0.4105(10) 0.3096(13) 0.1312(6)
O35? O 0.3640(10) 0.4479(9) 0.1948(5)
O36? O 0.3053(7) 0.3555(12) 0.1564(5)
O37? O 0.3777(10) 0.3071(12) 0.2030(5)
C132? C 0.4089(8) 0.3772(13) 0.1479(5)
S13? S 0.2699(5) 0.5017(7) 0.1737(3)
F37? F 0.2119(14) 0.6163(14) 0.1380(8)
F38? F 0.1844(11) 0.5041(15) 0.1207(7)
F39? F 0.2659(14) 0.5541(18) 0.1096(7)
O38? O 0.2332(9) 0.4942(15) 0.2008(5)
O39? O 0.2887(14) 0.4249(13) 0.1639(9)
O40? O 0.3193(10) 0.5535(15) 0.1829(7)
C133? C 0.2305(11) 0.5439(15) 0.1346(6)
S14? S 0.3821(5) 0.9436(5) 0.2500(3)
F40? F 0.4337(7) 0.9764(9) 0.1936(4)
F41? F 0.4844(8) 0.9780(10) 0.2465(5)
F42? F 0.4220(8) 1.0729(8) 0.2273(4)
O41? O 0.3860(11) 0.9797(11) 0.2834(4)
O42? O 0.3273(10) 0.9655(15) 0.2249(6)
O43? O 0.4018(10) 0.8670(9) 0.2490(6)
C134? C 0.4314(9) 0.9978(10) 0.2268(5)
S15? S 0.9046(11) 0.5005(15) 0.0539(7)
F43? F 0.964(2) 0.397(3) 0.0259(10)
F44? F 0.960(2) 0.381(3) 0.0809(12)
F45? F 1.0174(15) 0.466(3) 0.0644(14)
O44? O 0.8511(16) 0.468(3) 0.0372(14)
O45? O 0.903(3) 0.524(4) 0.0905(9)
O46? O 0.922(2) 0.565(2) 0.0332(14)
C135? C 0.9640(15) 0.434(2) 0.0564(10)
loop_
_geom_bond_atom_site_label_1
_geom_bond_atom_site_label_2
_geom_bond_site_symmetry_1
_geom_bond_site_symmetry_2
Fe1 N1 1_555 1_555
Fe2 N3 1_555 1_555
Fe3 N7 1_555 1_555
Fe4 N11 1_555 1_555
N1 C1 1_555 1_555
N2 Fe1 1_555 1_555
N3 C10 1_555 1_555
N4 Fe2 1_555 1_555
C1 H1 1_555 1_555
C2 C1 1_555 1_555
H2 C2 1_555 1_555
C3 C2 1_555 1_555
H3 C3 1_555 1_555
C4 C3 1_555 1_555
H4 C4 1_555 1_555
C5 N1 1_555 1_555
C6 N2 1_555 1_555
H5 C6 1_555 1_555
C7 N2 1_555 1_555
C8 C7 1_555 1_555
H6 C8 1_555 1_555
C9 C8 1_555 1_555
H7 C9 1_555 1_555
C10 C9 1_555 1_555
C11 C10 1_555 1_555
H8 C11 1_555 1_555
C12 C7 1_555 1_555
H9 C12 1_555 1_555
C13 N3 1_555 1_555
H10 C13 1_555 1_555
C14 N4 1_555 1_555
C15 C14 1_555 1_555
H11 C15 1_555 1_555
C16 C15 1_555 1_555
H12 C16 1_555 1_555
C17 C16 1_555 1_555
H13 C17 1_555 1_555
C18 N4 1_555 1_555
H14 C18 1_555 1_555
N5 Fe2 1_555 1_555
N6 Fe2 1_555 1_555
N7 C28 1_555 1_555
N8 Fe3 1_555 1_555
C19 N5 1_555 1_555
H15 C19 1_555 1_555
C20 C19 1_555 1_555
H16 C20 1_555 1_555
C21 C20 1_555 1_555
H17 C21 1_555 1_555
C22 C21 1_555 1_555
H18 C22 1_555 1_555
C23 N5 1_555 1_555
C24 N6 1_555 1_555
H19 C24 1_555 1_555
C25 N6 1_555 1_555
C26 C25 1_555 1_555
H20 C26 1_555 1_555
C27 C26 1_555 1_555
H21 C27 1_555 1_555
C28 C27 1_555 1_555
C29 C28 1_555 1_555
H22 C29 1_555 1_555
C30 C25 1_555 1_555
H23 C30 1_555 1_555
C31 N7 1_555 1_555
H24 C31 1_555 1_555
C32 N8 1_555 1_555
C33 C32 1_555 1_555
H25 C33 1_555 1_555
C34 C33 1_555 1_555
H26 C34 1_555 1_555
C35 C34 1_555 1_555
H27 C35 1_555 1_555
C36 N8 1_555 1_555
H28 C36 1_555 1_555
N9 Fe3 1_555 1_555
N10 Fe3 1_555 1_555
N11 C46 1_555 1_555
N12 Fe4 1_555 1_555
C37 N9 1_555 1_555
H29 C37 1_555 1_555
C38 C37 1_555 1_555
H30 C38 1_555 1_555
C39 C38 1_555 1_555
H31 C39 1_555 1_555
C40 C39 1_555 1_555
H32 C40 1_555 1_555
C41 N9 1_555 1_555
C42 N10 1_555 1_555
H33 C42 1_555 1_555
C43 N10 1_555 1_555
C44 C43 1_555 1_555
H34 C44 1_555 1_555
C45 C44 1_555 1_555
H35 C45 1_555 1_555
C46 C45 1_555 1_555
C47 C46 1_555 1_555
H36 C47 1_555 1_555
C48 C43 1_555 1_555
H37 C48 1_555 1_555
C49 N11 1_555 1_555
H38 C49 1_555 1_555
C50 N12 1_555 1_555
C51 C50 1_555 1_555
H39 C51 1_555 1_555
C52 C51 1_555 1_555
H40 C52 1_555 1_555
C53 C52 1_555 1_555
H41 C53 1_555 1_555
C54 N12 1_555 1_555
H42 C54 1_555 1_555
N13 Fe4 1_555 1_555
N14 Fe4 1_555 1_555
N15 Fe1 1_555 1_555
N16 Fe1 1_555 1_555
C55 N13 1_555 1_555
H43 C55 1_555 1_555
C56 C55 1_555 1_555
H44 C56 1_555 1_555
C57 C56 1_555 1_555
H45 C57 1_555 1_555
C58 C57 1_555 1_555
H46 C58 1_555 1_555
C59 N13 1_555 1_555
C60 N14 1_555 1_555
H47 C60 1_555 1_555
C61 N14 1_555 1_555
C62 C61 1_555 1_555
H48 C62 1_555 1_555
C63 C62 1_555 1_555
H49 C63 1_555 1_555
C64 N15 1_555 1_555
C65 C64 1_555 1_555
H50 C65 1_555 1_555
C66 C61 1_555 1_555
H51 C66 1_555 1_555
C67 N15 1_555 1_555
H52 C67 1_555 1_555
C68 N16 1_555 1_555
C69 C68 1_555 1_555
H53 C69 1_555 1_555
C70 C69 1_555 1_555
H54 C70 1_555 1_555
C71 C70 1_555 1_555
H55 C71 1_555 1_555
C72 N16 1_555 1_555
H56 C72 1_555 1_555
N17 Fe1 1_555 1_555
N18 Fe1 1_555 1_555
N19 Fe3 1_555 1_555
N20 Fe3 1_555 1_555
C73 N17 1_555 1_555
H57 C73 1_555 1_555
C74 C73 1_555 1_555
H58 C74 1_555 1_555
C75 C74 1_555 1_555
H59 C75 1_555 1_555
C76 C75 1_555 1_555
H60 C76 1_555 1_555
C77 N17 1_555 1_555
C78 N18 1_555 1_555
H61 C78 1_555 1_555
C79 N18 1_555 1_555
C80 C79 1_555 1_555
H62 C80 1_555 1_555
C81 C80 1_555 1_555
H63 C81 1_555 1_555
C82 N19 1_555 1_555
C83 C82 1_555 1_555
H64 C83 1_555 1_555
C84 C79 1_555 1_555
H65 C84 1_555 1_555
C85 N19 1_555 1_555
H66 C85 1_555 1_555
C86 N20 1_555 1_555
C87 C86 1_555 1_555
H67 C87 1_555 1_555
C88 C87 1_555 1_555
H68 C88 1_555 1_555
C89 C88 1_555 1_555
H69 C89 1_555 1_555
C90 N20 1_555 1_555
H70 C90 1_555 1_555
N21 Fe2 1_555 1_555
N22 Fe2 1_555 1_555
N23 Fe4 1_555 1_555
N24 Fe4 1_555 1_555
C91 N21 1_555 1_555
H71 C91 1_555 1_555
C92 C91 1_555 1_555
H72 C92 1_555 1_555
C93 C92 1_555 1_555
H73 C93 1_555 1_555
C94 C93 1_555 1_555
H74 C94 1_555 1_555
C95 N21 1_555 1_555
C96 N22 1_555 1_555
H75 C96 1_555 1_555
C97 N22 1_555 1_555
C98 C97 1_555 1_555
H76 C98 1_555 1_555
C99 C98 1_555 1_555
H77 C99 1_555 1_555
C100 N23 1_555 1_555
C101 C100 1_555 1_555
H78 C101 1_555 1_555
C102 C97 1_555 1_555
H79 C102 1_555 1_555
C103 N23 1_555 1_555
H80 C103 1_555 1_555
C104 N24 1_555 1_555
C105 C104 1_555 1_555
H81 C105 1_555 1_555
C106 C105 1_555 1_555
H82 C106 1_555 1_555
C107 C106 1_555 1_555
H83 C107 1_555 1_555
C108 N24 1_555 1_555
H84 C108 1_555 1_555
S1 O1 1_555 1_555
F1 C109 1_555 1_555
F2 C109 1_555 1_555
F3 C109 1_555 1_555
O2 S1 1_555 1_555
O3 S1 1_555 1_555
C109 S1 1_555 1_555
S2 O4 1_555 1_555
F4 C110 1_555 1_555
F5 C110 1_555 1_555
F6 C110 1_555 1_555
O5 S2 1_555 1_555
O6 S2 1_555 1_555
C110 S2 1_555 1_555
S3 O7 1_555 1_555
F7 C111 1_555 1_555
F8 C111 1_555 1_555
F9 C111 1_555 1_555
O8 S3 1_555 1_555
O9 S3 1_555 1_555
C111 S3 1_555 1_555
S4 O10 1_555 1_555
O11 S4 1_555 1_555
O12 S4 1_555 1_555
F10 C112 1_555 1_555
F11 C112 1_555 1_555
F12 C112 1_555 1_555
C112 S4 1_555 1_555
N25 C113 1_555 1_555
C113 C114 1_555 1_555
C114 H85 1_555 1_555
H86 C114 1_555 1_555
H87 C114 1_555 1_555
S5 O13 1_555 1_555
F13 C115 1_555 1_555
F14 C115 1_555 1_555
F15 C115 1_555 1_555
O14 S5 1_555 1_555
O15 S5 1_555 1_555
C115 S5 1_555 1_555
S6 O16 1_555 1_555
F16 C116 1_555 1_555
F17 C116 1_555 1_555
F18 C116 1_555 1_555
O17 S6 1_555 1_555
O18 S6 1_555 1_555
C116 S6 1_555 1_555
N26 C117 1_555 1_555
C117 C118 1_555 1_555
C118 H88 1_555 1_555
H89 C118 1_555 1_555
H90 C118 1_555 1_555
S7 O19 1_555 1_555
F19 C119 1_555 1_555
F20 C119 1_555 1_555
F21 C119 1_555 1_555
O20 S7 1_555 1_555
O21 S7 1_555 1_555
C119 S7 1_555 1_555
S8 O22 1_555 1_555
F22 C120 1_555 1_555
F23 C120 1_555 1_555
F24 C120 1_555 1_555
O23 S8 1_555 1_555
O24 S8 1_555 1_555
C120 S8 1_555 1_555
N27 C121 1_555 1_555
C121 C122 1_555 1_555
C122 H91 1_555 1_555
H92 C122 1_555 1_555
H93 C122 1_555 1_555
N28 C123 1_555 1_555
C123 C124 1_555 1_555
C124 H94 1_555 1_555
H95 C124 1_555 1_555
H96 C124 1_555 1_555
N29 C125 1_555 1_555
C125 C126 1_555 1_555
C126 H97 1_555 1_555
H98 C126 1_555 1_555
H99 C126 1_555 1_555
N30 C127 1_555 1_555
C127 C128 1_555 1_555
C128 H100 1_555 1_555
H101 C128 1_555 1_555
H102 C128 1_555 1_555
C4 C5 1_555 1_555
C5 C6 1_555 1_555
C11 C12 1_555 1_555
C13 C14 1_555 1_555
C17 C18 1_555 1_555
C22 C23 1_555 1_555
C23 C24 1_555 1_555
C29 C30 1_555 1_555
C31 C32 1_555 1_555
C35 C36 1_555 1_555
C40 C41 1_555 1_555
C41 C42 1_555 1_555
C47 C48 1_555 1_555
C49 C50 1_555 1_555
C53 C54 1_555 1_555
C58 C59 1_555 1_555
C59 C60 1_555 1_555
C63 C64 1_555 1_555
C65 C66 1_555 1_555
C67 C68 1_555 1_555
C71 C72 1_555 1_555
C76 C77 1_555 1_555
C77 C78 1_555 1_555
C81 C82 1_555 1_555
C83 C84 1_555 1_555
C85 C86 1_555 1_555
C89 C90 1_555 1_555
C94 C95 1_555 1_555
C95 C96 1_555 1_555
C99 C100 1_555 1_555
C101 C102 1_555 1_555
C103 C104 1_555 1_555
C107 C108 1_555 1_555

#END
