
#######################################################################
#
#                 Cambridge Crystallographic Data Centre
#                                CCDC 
#
#######################################################################
#
# If this CIF has been generated from an entry in the Cambridge 
# Structural Database, then it will include bibliographic, chemical, 
# crystal, experimental, refinement or atomic coordinate data resulting 
# from the CCDC's data processing and validation procedures.
#
#######################################################################

data_JOZNAP
_chemical_formula_moiety         
'C132 H108 N12 O4 Pd2 4+,C6 H6,3(B1 F4 1-),0.5(H2 O1),Cl1 1-'
_chemical_name_systematic        
'tetrakis(\m-10-hexyl-2,7-bis(pyridin-3-ylethynyl)acridin-9(10H)-one)-di-palladium tris(tetrafluoroborate) chloride benzene solvate'
_symmetry_cell_setting           monoclinic
_symmetry_space_group_name_H-M   'P 21/n'
_symmetry_Int_Tables_number      14
_space_group_name_Hall           '-P 2yn'
loop_
_symmetry_equiv_pos_site_id
_symmetry_equiv_pos_as_xyz
1 x,y,z
2 1/2-x,1/2+y,1/2-z
3 -x,-y,-z
4 1/2+x,1/2-y,1/2+z
_cell_length_a                   19.940(4)
_cell_length_b                   44.376(9)
_cell_length_c                   28.779(6)
_cell_angle_alpha                90
_cell_angle_beta                 108.92(3)
_cell_angle_gamma                90
_cell_volume                     24089.5
_cell_formula_units_Z            8
loop_
_atom_site_label
_atom_site_type_symbol
_atom_site_fract_x
_atom_site_fract_y
_atom_site_fract_z
Pd1 Pd 0.03161(13) -0.10956(7) 0.26134(8)
Pd2 Pd -0.07156(13) 0.26592(7) 0.12364(8)
C1 C 0.1680(14) -0.1302(7) 0.3327(10)
H1 H 0.1447 -0.1486 0.3290
N1 N 0.3947(10) 0.0937(5) 0.3364(10)
N2 N 0.0335(13) 0.2665(8) 0.1625(9)
N3 N 0.1317(11) -0.1066(7) 0.3086(8)
C2 C 0.6421(18) 0.0065(10) 0.2934(14)
H2 H 0.6196 0.0074 0.2584
H3 H 0.6383 -0.0136 0.3047
H4 H 0.6913 0.0117 0.3013
C3 C 0.608(2) 0.0273(9) 0.3171(14)
H5 H 0.6297 0.0256 0.3524
H6 H 0.5584 0.0218 0.3091
C4 C 0.612(2) 0.0594(9) 0.3024(13)
H7 H 0.5862 0.0615 0.2677
H8 H 0.6614 0.0643 0.3071
C5 C 0.5830(17) 0.0826(10) 0.3308(13)
H9 H 0.5962 0.0769 0.3651
H10 H 0.6028 0.1023 0.3288
C6 C 0.5039(17) 0.0835(10) 0.3086(13)
H11 H 0.4898 0.0967 0.2801
H12 H 0.4850 0.0635 0.2986
C7 C 0.4776(15) 0.0955(9) 0.3483(13)
H13 H 0.4922 0.1164 0.3545
H14 H 0.5003 0.0843 0.3783
C8 C 0.2265(9) 0.1352(6) 0.2800(10)
H15 H 0.1782 0.1324 0.2739
C9 C 0.2517(14) 0.1627(6) 0.2694(11)
C10 C 0.3249(15) 0.1671(5) 0.2802(12)
H16 H 0.3419 0.1854 0.2728
C11 C 0.3720(11) 0.1441(6) 0.3022(11)
H17 H 0.4206 0.1473 0.3107
C12 C 0.3466(10) 0.1164(5) 0.3114(9)
C13 C 0.2735(10) 0.1118(5) 0.2998(9)
C14 C 0.2468(19) 0.0817(9) 0.3092(10)
C15 C 0.2962(10) 0.0595(4) 0.3289(10)
C16 C 0.3694(11) 0.0649(4) 0.3433(11)
C17 C 0.4165(9) 0.0422(5) 0.3669(11)
H18 H 0.4650 0.0461 0.3785
C18 C 0.3912(9) 0.0137(5) 0.3731(9)
H19 H 0.4228 -0.0016 0.3881
C19 C 0.3181(10) 0.0081(4) 0.3568(8)
C20 C 0.2709(9) 0.0310(4) 0.3342(8)
H20 H 0.2225 0.0272 0.3226
C21 C 0.2062(16) 0.1886(7) 0.2510(12)
C22 C 0.1710(17) 0.2092(7) 0.2331(12)
C23 C 0.0650(14) 0.2389(7) 0.1862(10)
H21 H 0.0362 0.2223 0.1859
C24 C 0.1379(16) 0.2366(6) 0.2093(10)
C25 C 0.1781(12) 0.2617(7) 0.2068(9)
H22 H 0.2269 0.2612 0.2223
C26 C 0.1468(16) 0.2872(6) 0.1818(9)
H23 H 0.1738 0.3039 0.1794
C27 C 0.0740(16) 0.2872(7) 0.1606(9)
H24 H 0.0535 0.3043 0.1433
C28 C 0.2931(12) -0.0223(5) 0.3588(11)
C29 C 0.2693(12) -0.0475(5) 0.3529(10)
C30 C 0.1666(10) -0.0804(5) 0.3158(8)
H25 H 0.1425 -0.0635 0.2995
C31 C 0.2360(11) -0.0765(5) 0.3458(10)
C32 C 0.2720(12) -0.1017(4) 0.3693(9)
H26 H 0.3190 -0.1001 0.3893
C33 C 0.2379(14) -0.1293(5) 0.3629(9)
H27 H 0.2612 -0.1465 0.3784
O1 O 0.1828(11) 0.0786(6) 0.2972(7)
C34 C -0.0011(12) -0.1224(6) 0.3531(11)
H28 H 0.0175 -0.1413 0.3505
N4 N -0.2151(11) 0.1002(5) 0.3942(8)
N5 N -0.0993(14) 0.2712(9) 0.1848(9)
N6 N -0.0034(14) -0.1020(8) 0.3182(10)
C35 C -0.106(3) 0.0296(11) 0.5516(16)
H29 H -0.1408 0.0199 0.5247
H30 H -0.0837 0.0150 0.5764
H31 H -0.0709 0.0390 0.5402
C36 C -0.1421(19) 0.0536(10) 0.5734(12)
H32 H -0.1059 0.0670 0.5935
H33 H -0.1640 0.0436 0.5948
C37 C -0.198(2) 0.0726(9) 0.5365(12)
H34 H -0.2280 0.0595 0.5111
H35 H -0.2283 0.0819 0.5532
C38 C -0.168(2) 0.0969(9) 0.5127(13)
H36 H -0.1378 0.1094 0.5388
H37 H -0.1378 0.0871 0.4969
C39 C -0.2143(17) 0.1168(8) 0.4773(10)
H38 H -0.1856 0.1327 0.4705
H39 H -0.2463 0.1260 0.4923
C40 C -0.2589(16) 0.1030(9) 0.4283(10)
H40 H -0.2757 0.0833 0.4339
H41 H -0.2999 0.1156 0.4132
C41 C -0.1511(12) 0.1491(6) 0.3128(8)
H42 H -0.1262 0.1476 0.2906
C42 C -0.1768(15) 0.1770(5) 0.3216(9)
C43 C -0.2186(13) 0.1789(5) 0.3520(10)
H43 H -0.2385 0.1973 0.3561
C44 C -0.2305(12) 0.1535(6) 0.3764(8)
H44 H -0.2570 0.1549 0.3976
C45 C -0.2027(11) 0.1257(5) 0.3689(7)
C46 C -0.1628(11) 0.1235(5) 0.3373(8)
C47 C -0.137(2) 0.0908(11) 0.3284(12)
C48 C -0.1481(14) 0.0688(4) 0.3554(9)
C49 C -0.1886(14) 0.0720(4) 0.3866(9)
C50 C -0.2027(12) 0.0468(5) 0.4111(8)
H45 H -0.2316 0.0487 0.4306
C51 C -0.1737(11) 0.0190(5) 0.4063(7)
H46 H -0.1809 0.0026 0.4242
C52 C -0.1337(11) 0.0157(4) 0.3747(7)
C53 C -0.1216(11) 0.0407(4) 0.3488(7)
H47 H -0.0959 0.0385 0.3272
C54 C -0.1630(14) 0.2042(6) 0.2977(9)
C55 C -0.1507(14) 0.2255(7) 0.2749(9)
C56 C -0.1107(14) 0.2484(7) 0.2106(12)
H48 H -0.0992 0.2291 0.2030
C57 C -0.1390(15) 0.2515(7) 0.2485(11)
C58 C -0.1516(12) 0.2806(8) 0.2610(9)
H49 H -0.1686 0.2837 0.2872
C59 C -0.1395(12) 0.3052(6) 0.2351(11)
H50 H -0.1484 0.3248 0.2432
C60 C -0.1137(13) 0.2995(8) 0.1969(10)
H51 H -0.1059 0.3156 0.1787
C61 C -0.1050(16) -0.0133(5) 0.3686(10)
C62 C -0.0798(15) -0.0375(5) 0.3658(9)
C63 C -0.0273(14) -0.0743(5) 0.3246(8)
H52 H -0.0263 -0.0593 0.3023
C64 C -0.0531(14) -0.0670(5) 0.3624(8)
C65 C -0.0506(12) -0.0890(5) 0.3972(8)
H53 H -0.0665 -0.0847 0.4235
C66 C -0.0243(11) -0.1173(5) 0.3924(9)
H54 H -0.0225 -0.1324 0.4152
O2 O -0.1014(12) 0.0934(6) 0.2996(7)
C67 C -0.1018(13) -0.1391(7) 0.2052(9)
H55 H -0.0795 -0.1560 0.2227
N7 N -0.3907(13) 0.0526(5) -0.0080(9)
N8 N -0.1765(12) 0.2639(8) 0.0838(8)
C68 C -0.673(2) 0.0899(11) -0.2078(14)
H56 H -0.6936 0.0895 -0.2429
H57 H -0.6359 0.1046 -0.1985
H58 H -0.7090 0.0951 -0.1936
C69 C -0.6414(17) 0.0574(10) -0.1885(12)
H59 H -0.6748 0.0462 -0.1771
H60 H -0.6327 0.0462 -0.2148
C70 C -0.5720(15) 0.0620(9) -0.1462(12)
H61 H -0.5396 0.0736 -0.1582
H62 H -0.5816 0.0737 -0.1207
C71 C -0.5383(17) 0.0345(9) -0.1255(12)
H63 H -0.5362 0.0214 -0.1520
H64 H -0.5673 0.0246 -0.1088
C72 C -0.4573(17) 0.0385(10) -0.0864(12)
H65 H -0.4295 0.0203 -0.0837
H66 H -0.4327 0.0553 -0.0952
C73 C -0.4736(19) 0.0442(11) -0.0440(12)
H67 H -0.4924 0.0266 -0.0326
H68 H -0.5059 0.0611 -0.0477
C74 C -0.2893(12) 0.1212(5) 0.0477(9)
H69 H -0.2492 0.1265 0.0736
C75 C -0.3287(14) 0.1432(4) 0.0163(10)
C76 C -0.3870(13) 0.1350(5) -0.0241(9)
H70 H -0.4120 0.1496 -0.0460
C77 C -0.4076(10) 0.1049(5) -0.0314(7)
H71 H -0.4471 0.0995 -0.0577
C78 C -0.3688(12) 0.0828(4) 0.0009(8)
C79 C -0.3098(11) 0.0909(4) 0.0403(8)
C80 C -0.2626(16) 0.0691(9) 0.0752(12)
C81 C -0.2901(12) 0.0364(4) 0.0622(9)
C82 C -0.3507(13) 0.0299(4) 0.0222(9)
C83 C -0.3770(11) 0.0007(5) 0.0148(9)
H72 H -0.4202 -0.0031 -0.0093
C84 C -0.3389(11) -0.0228(4) 0.0434(8)
H73 H -0.3552 -0.0425 0.0370
C85 C -0.2762(10) -0.0169(4) 0.0815(7)
C86 C -0.2510(10) 0.0126(4) 0.0904(7)
H74 H -0.2083 0.0166 0.1150
C87 C -0.3092(17) 0.1744(6) 0.0240(11)
C88 C -0.2975(15) 0.2014(7) 0.0327(11)
C89 C -0.2048(13) 0.2358(7) 0.0715(10)
H75 H -0.1768 0.2189 0.0831
C90 C -0.2743(14) 0.2322(6) 0.0419(10)
C91 C -0.3142(11) 0.2581(7) 0.0263(8)
H76 H -0.3616 0.2564 0.0071
C92 C -0.2849(15) 0.2862(6) 0.0386(8)
H77 H -0.3116 0.3035 0.0278
C93 C -0.2149(15) 0.2880(7) 0.0674(10)
H78 H -0.1942 0.3069 0.0755
C94 C -0.2363(13) -0.0410(4) 0.1115(10)
C95 C -0.2046(12) -0.0626(5) 0.1332(10)
C96 C -0.1035(10) -0.0882(6) 0.1916(9)
H79 H -0.0826 -0.0693 0.1995
C97 C -0.1689(12) -0.0896(5) 0.1561(9)
C98 C -0.2016(12) -0.1176(4) 0.1452(9)
H80 H -0.2457 -0.1193 0.1212
C99 C -0.1677(13) -0.1428(5) 0.1704(9)
H81 H -0.1889 -0.1617 0.1640
N9 N -0.0674(11) -0.1122(7) 0.2156(8)
O3 O -0.2119(11) 0.0748(5) 0.1083(7)
C100 C 0.0553(14) -0.1399(7) 0.1726(10)
H82 H 0.0454 -0.1581 0.1848
N10 N 0.2165(10) 0.0711(5) 0.0404(8)
N11 N -0.0459(13) 0.2592(9) 0.0615(9)
N12 N 0.0595(13) -0.1151(8) 0.2016(9)
C101 C 0.569(2) 0.0466(10) 0.1271(16)
H83 H 0.6164 0.0433 0.1278
H84 H 0.5366 0.0364 0.0992
H85 H 0.5625 0.0389 0.1566
C102 C 0.5535(17) 0.0783(10) 0.1233(17)
H86 H 0.5604 0.0859 0.0936
H87 H 0.5872 0.0884 0.1510
C103 C 0.4783(15) 0.0862(8) 0.1224(13)
H88 H 0.4711 0.0775 0.1514
H89 H 0.4753 0.1079 0.1250
C104 C 0.4201(15) 0.0763(9) 0.0793(12)
H90 H 0.4229 0.0545 0.0765
H91 H 0.4266 0.0851 0.0502
C105 C 0.3470(15) 0.0844(8) 0.0803(11)
H92 H 0.3403 0.0760 0.1097
H93 H 0.3429 0.1061 0.0816
C106 C 0.2897(14) 0.0724(8) 0.0353(11)
H94 H 0.3028 0.0523 0.0283
H95 H 0.2877 0.0851 0.0074
C107 C 0.0628(10) 0.1225(6) 0.0220(9)
H96 H 0.0183 0.1225 0.0259
C108 C 0.0872(14) 0.1483(5) 0.0051(10)
C109 C 0.1538(15) 0.1483(5) -0.0006(10)
H97 H 0.1698 0.1655 -0.0125
C110 C 0.1967(10) 0.1228(6) 0.0114(8)
H98 H 0.2417 0.1230 0.0083
C111 C 0.1721(10) 0.0968(4) 0.0280(7)
C112 C 0.1048(10) 0.0967(5) 0.0332(8)
C113 C 0.076(2) 0.0698(12) 0.0516(13)
C114 C 0.1248(10) 0.0435(5) 0.0618(10)
C115 C 0.1942(11) 0.0458(4) 0.0609(10)
C116 C 0.2415(9) 0.0217(5) 0.0780(9)
H99 H 0.2885 0.0236 0.0794
C117 C 0.2178(9) -0.0050(5) 0.0928(8)
H100 H 0.2488 -0.0212 0.1031
C118 C 0.1477(10) -0.0076(4) 0.0923(7)
C119 C 0.1015(9) 0.0166(4) 0.0771(8)
H101 H 0.0550 0.0149 0.0769
C120 C 0.0498(15) 0.1766(6) 0.0004(12)
C121 C 0.0183(18) 0.1998(7) -0.0001(12)
C122 C -0.0257(16) 0.2331(8) 0.0485(11)
H102 H -0.0235 0.2165 0.0686
C123 C -0.0077(15) 0.2294(7) 0.0063(13)
C124 C -0.0094(13) 0.2544(8) -0.0225(9)
H103 H 0.0027 0.2526 -0.0509
C125 C -0.0290(12) 0.2823(7) -0.0096(10)
H104 H -0.0305 0.2992 -0.0290
C126 C -0.0462(12) 0.2841(7) 0.0330(12)
H105 H -0.0583 0.3028 0.0428
C127 C 0.1221(12) -0.0364(5) 0.1033(9)
C128 C 0.1032(13) -0.0594(5) 0.1172(8)
C129 C 0.0755(13) -0.0894(6) 0.1800(7)
H106 H 0.0794 -0.0715 0.1976
C130 C 0.0862(14) -0.0875(5) 0.1349(8)
C131 C 0.0797(13) -0.1138(4) 0.1080(8)
H107 H 0.0858 -0.1135 0.0773
C132 C 0.0642(12) -0.1407(5) 0.1269(9)
H108 H 0.0599 -0.1586 0.1095
O4 O 0.0210(12) 0.0707(6) 0.0595(8)
Pd3 Pd -0.00462(13) 0.03571(7) 0.20738(8)
Pd4 Pd -0.10309(14) 0.41103(7) 0.07229(9)
C133 C -0.0134(13) 0.4529(7) 0.1516(9)
H109 H -0.0172 0.4665 0.1264
N13 N -0.0235(13) 0.2678(5) 0.3990(7)
N14 N 0.0334(11) 0.0517(8) 0.2775(8)
N15 N -0.0403(14) 0.4247(7) 0.1401(8)
C134 C -0.323(4) 0.2627(16) 0.4639(19)
H110 H -0.3405 0.2424 0.4582
H111 H -0.3449 0.2730 0.4844
H112 H -0.2723 0.2622 0.4800
C135 C -0.339(2) 0.2796(13) 0.4137(16)
H113 H -0.3419 0.3013 0.4164
H114 H -0.3805 0.2718 0.3881
C136 C -0.267(2) 0.2679(13) 0.4106(18)
H115 H -0.2679 0.2745 0.3783
H116 H -0.2739 0.2463 0.4078
C137 C -0.188(2) 0.2711(12) 0.4420(15)
H117 H -0.1803 0.2905 0.4586
H118 H -0.1752 0.2554 0.4667
C138 C -0.1434(17) 0.2687(10) 0.4093(11)
H119 H -0.1564 0.2848 0.3852
H120 H -0.1539 0.2498 0.3916
C139 C -0.0632(17) 0.2704(9) 0.4366(10)
H121 H -0.0516 0.2894 0.4540
H122 H -0.0490 0.2542 0.4603
C140 C 0.0435(12) 0.2070(6) 0.3367(8)
H123 H 0.0643 0.2049 0.3123
C141 C 0.0309(15) 0.1816(5) 0.3613(10)
C142 C 0.0053(15) 0.1852(5) 0.4008(9)
H124 H 0.0008 0.1686 0.4191
C143 C -0.0134(12) 0.2135(6) 0.4127(7)
H125 H -0.0327 0.2157 0.4379
C144 C -0.0033(11) 0.2389(4) 0.3870(7)
C145 C 0.0248(12) 0.2355(5) 0.3488(8)
C146 C 0.0315(19) 0.2619(11) 0.3169(12)
C147 C 0.0145(13) 0.2904(4) 0.3348(8)
C148 C -0.0141(14) 0.2934(5) 0.3730(8)
C149 C -0.0354(13) 0.3218(5) 0.3842(7)
H126 H -0.0551 0.3238 0.4092
C150 C -0.0271(12) 0.3471(4) 0.3576(7)
H127 H -0.0378 0.3662 0.3666
C151 C -0.0027(11) 0.3437(4) 0.3176(7)
C152 C 0.0159(12) 0.3152(4) 0.3053(7)
H128 H 0.0292 0.3127 0.2775
C153 C 0.0463(17) 0.1511(6) 0.3494(11)
C154 C 0.0531(17) 0.1241(6) 0.3422(10)
C155 C 0.0321(13) 0.0808(7) 0.2846(9)
H129 H 0.0158 0.0937 0.2578
C156 C 0.0544(15) 0.0925(6) 0.3314(11)
C157 C 0.0766(13) 0.0724(7) 0.3705(8)
H130 H 0.0909 0.0796 0.4025
C158 C 0.0775(11) 0.0419(6) 0.3623(9)
H131 H 0.0929 0.0285 0.3885
C159 C 0.0554(14) 0.0317(6) 0.3148(11)
H132 H 0.0554 0.0112 0.3082
C160 C 0.0046(15) 0.3698(5) 0.2895(8)
C161 C 0.0030(15) 0.3902(5) 0.2618(8)
C162 C -0.0303(14) 0.4054(5) 0.1746(7)
H133 H -0.0442 0.3856 0.1658
C163 C -0.0001(15) 0.4118(5) 0.2243(8)
C164 C 0.0265(12) 0.4405(5) 0.2363(8)
H134 H 0.0492 0.4456 0.2690
C165 C 0.0192(12) 0.4620(5) 0.1992(9)
H135 H 0.0358 0.4816 0.2066
O5 O 0.0508(11) 0.2568(6) 0.2829(8)
C166 C -0.0103(15) 0.4352(7) 0.0219(10)
H136 H -0.0382 0.4522 0.0205
N16 N 0.3241(10) 0.2357(5) 0.1081(10)
N17 N 0.0922(12) 0.0402(8) 0.1994(8)
N18 N -0.0215(14) 0.4106(8) 0.0442(10)
C167 C 0.5460(17) 0.1602(9) 0.0834(13)
H137 H 0.5354 0.1404 0.0695
H138 H 0.5202 0.1637 0.1058
H139 H 0.5960 0.1617 0.1007
C168 C 0.5249(19) 0.1835(9) 0.0426(13)
H140 H 0.4739 0.1833 0.0269
H141 H 0.5471 0.1789 0.0181
C169 C 0.5496(17) 0.2155(9) 0.0658(12)
H142 H 0.6004 0.2152 0.0824
H143 H 0.5394 0.2304 0.0398
C170 C 0.5125(14) 0.2240(9) 0.1018(12)
H144 H 0.5316 0.2432 0.1163
H145 H 0.5251 0.2092 0.1281
C171 C 0.4289(14) 0.2268(9) 0.0822(11)
H146 H 0.4142 0.2393 0.0530
H147 H 0.4078 0.2070 0.0737
C172 C 0.4045(15) 0.2406(9) 0.1216(12)
H148 H 0.4152 0.2620 0.1243
H149 H 0.4289 0.2313 0.1530
C173 C 0.1988(10) 0.1779(6) 0.1242(9)
H150 H 0.1508 0.1761 0.1203
C174 C 0.2440(15) 0.1534(5) 0.1408(10)
C175 C 0.3160(14) 0.1564(5) 0.1468(10)
H151 H 0.3466 0.1403 0.1586
C176 C 0.3420(10) 0.1834(6) 0.1350(9)
H152 H 0.3897 0.1850 0.1381
C177 C 0.2966(11) 0.2080(4) 0.1186(8)
C178 C 0.2250(10) 0.2051(5) 0.1134(9)
C179 C 0.179(2) 0.2312(10) 0.0990(13)
C180 C 0.2065(10) 0.2580(4) 0.0834(10)
C181 C 0.2778(10) 0.2594(5) 0.0867(11)
C182 C 0.3034(9) 0.2846(5) 0.0688(10)
H153 H 0.3496 0.2848 0.0680
C183 C 0.2597(10) 0.3095(5) 0.0523(9)
H154 H 0.2777 0.3268 0.0423
C184 C 0.1889(10) 0.3087(4) 0.0506(8)
C185 C 0.1627(9) 0.2829(4) 0.0670(8)
H155 H 0.1161 0.2824 0.0668
C186 C 0.2153(17) 0.1256(6) 0.1526(12)
C187 C 0.1993(18) 0.1010(7) 0.1638(12)
C188 C 0.1089(15) 0.0674(8) 0.1840(10)
H156 H 0.0750 0.0827 0.1765
C189 C 0.1748(19) 0.0732(7) 0.1791(10)
C190 C 0.2248(13) 0.0503(7) 0.1929(9)
H157 H 0.2698 0.0535 0.1908
C191 C 0.2090(15) 0.0232(6) 0.2097(8)
H158 H 0.2424 0.0078 0.2191
C192 C 0.1407(16) 0.0195(6) 0.2122(8)
H159 H 0.1293 0.0013 0.2236
C193 C 0.1450(13) 0.3352(5) 0.0363(12)
C194 C 0.1098(13) 0.3578(5) 0.0301(10)
C195 C 0.0133(13) 0.3862(6) 0.0458(10)
H160 H 0.0020 0.3693 0.0607
C196 C 0.0674(13) 0.3845(5) 0.0258(10)
C197 C 0.0824(12) 0.4099(5) 0.0031(9)
H161 H 0.1189 0.4096 -0.0104
C198 C 0.0429(14) 0.4358(5) 0.0007(9)
H162 H 0.0517 0.4531 -0.0148
O6 O 0.1167(11) 0.2295(5) 0.0990(7)
C199 C -0.2035(14) 0.4178(5) -0.0277(10)
H163 H -0.1992 0.4382 -0.0204
N19 N -0.2798(12) 0.1788(4) -0.1341(7)
N20 N -0.0466(11) 0.0232(7) 0.1370(8)
N21 N -0.1674(14) 0.3995(8) 0.0053(9)
C200 C -0.2686(18) 0.0587(9) -0.2235(12)
H164 H -0.2880 0.0500 -0.2556
H165 H -0.3011 0.0558 -0.2056
H166 H -0.2243 0.0491 -0.2063
C201 C -0.2563(15) 0.0928(8) -0.2282(11)
H167 H -0.2338 0.1010 -0.1956
H168 H -0.2237 0.0955 -0.2466
C202 C -0.3235(15) 0.1109(7) -0.2532(11)
H169 H -0.3479 0.1025 -0.2855
H170 H -0.3553 0.1099 -0.2339
C203 C -0.3031(16) 0.1434(7) -0.2581(10)
H171 H -0.2737 0.1437 -0.2791
H172 H -0.3461 0.1544 -0.2751
C204 C -0.2647(15) 0.1605(7) -0.2119(9)
H173 H -0.2418 0.1780 -0.2204
H174 H -0.2281 0.1477 -0.1906
C205 C -0.3139(14) 0.1709(8) -0.1844(8)
H175 H -0.3405 0.1882 -0.2013
H176 H -0.3477 0.1549 -0.1857
C206 C -0.1814(12) 0.1359(5) -0.0219(6)
H177 H -0.1518 0.1393 0.0101
C207 C -0.1989(14) 0.1066(5) -0.0384(9)
C208 C -0.2473(14) 0.1015(4) -0.0851(9)
H178 H -0.2619 0.0820 -0.0952
C209 C -0.2737(12) 0.1256(5) -0.1166(7)
H179 H -0.3043 0.1221 -0.1483
C210 C -0.2544(12) 0.1551(4) -0.1007(7)
C211 C -0.2083(13) 0.1602(4) -0.0531(7)
C212 C -0.1892(18) 0.1905(9) -0.0338(12)
C213 C -0.2220(13) 0.2156(4) -0.0694(7)
C214 C -0.2642(14) 0.2088(4) -0.1174(7)
C215 C -0.2905(13) 0.2317(5) -0.1511(6)
H180 H -0.3157 0.2271 -0.1836
C216 C -0.2794(12) 0.2618(4) -0.1364(6)
H181 H -0.2994 0.2772 -0.1586
C217 C -0.2382(12) 0.2688(4) -0.0881(7)
C218 C -0.2092(12) 0.2458(4) -0.0547(6)
H182 H -0.1814 0.2504 -0.0228
C219 C -0.1680(15) 0.0819(7) -0.0059(9)
C220 C -0.1417(16) 0.0600(7) 0.0200(10)
C221 C -0.0783(15) 0.0429(6) 0.1018(11)
H183 H -0.0767 0.0632 0.1104
C222 C -0.1133(15) 0.0353(7) 0.0533(9)
C223 C -0.1151(12) 0.0056(7) 0.0402(8)
H184 H -0.1382 0.0000 0.0078
C224 C -0.0832(12) -0.0162(5) 0.0744(10)
H185 H -0.0844 -0.0364 0.0655
C225 C -0.0496(13) -0.0071(7) 0.1222(9)
H186 H -0.0279 -0.0216 0.1455
C226 C -0.2287(17) 0.3000(4) -0.0721(8)
C227 C -0.2241(16) 0.3262(5) -0.0610(8)
C228 C -0.1756(14) 0.3685(5) -0.0058(8)
H187 H -0.1516 0.3546 0.0180
C229 C -0.2183(14) 0.3581(5) -0.0509(8)
C230 C -0.2558(12) 0.3790(4) -0.0847(8)
H188 H -0.2862 0.3727 -0.1151
C231 C -0.2483(12) 0.4095(5) -0.0735(9)
H189 H -0.2727 0.4239 -0.0961
O7 O -0.1493(10) 0.1955(5) 0.0063(7)
C232 C -0.2052(15) 0.4336(7) 0.1182(9)
H190 H -0.1882 0.4521 0.1119
N22 N -0.3771(14) 0.2223(5) 0.2391(9)
N23 N -0.0990(13) 0.0322(8) 0.2154(8)
N24 N -0.1843(13) 0.4094(8) 0.1009(8)
C233 C -0.597(3) 0.2727(12) 0.3515(14)
H191 H -0.6092 0.2840 0.3214
H192 H -0.5485 0.2764 0.3703
H193 H -0.6270 0.2789 0.3700
C234 C -0.608(3) 0.2393(13) 0.3397(19)
H194 H -0.6577 0.2350 0.3241
H195 H -0.5909 0.2275 0.3697
C235 C -0.565(3) 0.2308(14) 0.3044(19)
H196 H -0.5735 0.2095 0.2973
H197 H -0.5880 0.2413 0.2738
C236 C -0.492(2) 0.2352(13) 0.3149(15)
H198 H -0.4652 0.2227 0.3422
H199 H -0.4795 0.2561 0.3230
C237 C -0.475(2) 0.2250(10) 0.2616(13)
H200 H -0.4922 0.2051 0.2495
H201 H -0.4897 0.2399 0.2356
C238 C -0.398(2) 0.2260(11) 0.2904(13)
H202 H -0.3823 0.2092 0.3130
H203 H -0.3830 0.2450 0.3072
C239 C -0.2860(12) 0.1613(6) 0.1947(9)
H204 H -0.2556 0.1587 0.1765
C240 C -0.3076(15) 0.1365(5) 0.2157(11)
C241 C -0.3490(15) 0.1404(5) 0.2460(10)
H205 H -0.3592 0.1241 0.2629
C242 C -0.3751(12) 0.1690(6) 0.2508(8)
H206 H -0.4063 0.1715 0.2686
C243 C -0.3548(11) 0.1939(5) 0.2291(8)
C244 C -0.3102(12) 0.1901(5) 0.2011(8)
C245 C -0.289(2) 0.2160(14) 0.1788(14)
C246 C -0.3168(12) 0.2455(4) 0.1861(8)
C247 C -0.3588(14) 0.2477(5) 0.2165(9)
C248 C -0.3884(13) 0.2752(6) 0.2222(9)
H207 H -0.4207 0.2763 0.2394
C249 C -0.3698(11) 0.3012(5) 0.2023(8)
H208 H -0.3870 0.3198 0.2082
C250 C -0.3255(11) 0.2995(4) 0.1736(7)
C251 C -0.2981(10) 0.2718(4) 0.1661(7)
H209 H -0.2673 0.2707 0.1478
C252 C -0.2748(17) 0.1080(7) 0.2144(13)
C253 C -0.2538(18) 0.0830(7) 0.2095(13)
C254 C -0.1430(19) 0.0567(7) 0.2110(9)
H210 H -0.1258 0.0752 0.2048
C255 C -0.2105(18) 0.0565(7) 0.2150(11)
C256 C -0.2368(12) 0.0283(8) 0.2224(9)
H211 H -0.2822 0.0270 0.2247
C257 C -0.1966(18) 0.0025(6) 0.2262(7)
H212 H -0.2136 -0.0163 0.2313
C258 C -0.1297(17) 0.0061(7) 0.2221(8)
H213 H -0.1031 -0.0114 0.2241
C259 C -0.3034(14) 0.3267(5) 0.1547(10)
C260 C -0.2810(13) 0.3506(5) 0.1454(9)
C261 C -0.2106(13) 0.3821(6) 0.1095(9)
H214 H -0.1961 0.3647 0.0975
C262 C -0.2577(13) 0.3797(5) 0.1353(9)
C263 C -0.2768(12) 0.4057(5) 0.1544(8)
H215 H -0.3069 0.4046 0.1732
C264 C -0.2511(14) 0.4332(5) 0.1455(9)
H216 H -0.2642 0.4510 0.1575
O8 O -0.2485(12) 0.2147(7) 0.1557(7)
Cl1 Cl 0.0292(4) -0.03341(19) 0.2446(2)
Cl2 Cl -0.0676(4) 0.3395(2) 0.1093(3)
C265 C -0.0532(17) 0.1629(8) 0.2076(9)
H217 H -0.0680 0.1657 0.2348
C266 C 0.0152(15) 0.1572(6) 0.2135(9)
H218 H 0.0480 0.1561 0.2450
C267 C 0.0366(12) 0.1529(7) 0.1742(12)
H219 H 0.0845 0.1502 0.1786
C268 C -0.0107(18) 0.1524(10) 0.1289(10)
H220 H 0.0026 0.1461 0.1023
C269 C -0.0784(16) 0.1613(11) 0.1224(9)
H221 H -0.1095 0.1650 0.0911
C270 C -0.1000(14) 0.1647(11) 0.1621(12)
H222 H -0.1476 0.1682 0.1578
O9 O 0.434(3) 0.1386(16) 0.4309(17)
C271 C 0.0100(14) 0.0675(8) 0.4716(10)
H223 H -0.0341 0.0582 0.4593
C272 C 0.0694(19) 0.0506(6) 0.4884(9)
H224 H 0.0662 0.0297 0.4879
C273 C 0.1336(14) 0.0641(8) 0.5060(10)
H225 H 0.1744 0.0524 0.5177
C274 C 0.1385(13) 0.0944(8) 0.5067(11)
H226 H 0.1826 0.1036 0.5187
C275 C 0.0792(19) 0.1113(5) 0.4898(11)
H227 H 0.0827 0.1322 0.4898
C276 C 0.0147(15) 0.0980(8) 0.4728(11)
H228 H -0.0261 0.1098 0.4620
B1 B -0.3710(11) -0.1303(5) 0.0434(8)
F1 F -0.3424(11) -0.1027(4) 0.0548(7)
F2 F -0.3398(9) -0.1493(4) 0.0802(6)
F3 F -0.4408(8) -0.1299(6) 0.0362(6)
F4 F -0.3601(11) -0.1394(5) 0.0015(7)
B2 B 0.4734(13) 0.3124(6) 0.0320(8)
F5 F 0.4665(16) 0.3159(6) 0.0765(8)
F6 F 0.4360(12) 0.2880(5) 0.0103(7)
F7 F 0.5424(10) 0.3089(8) 0.0367(9)
F8 F 0.4484(18) 0.3368(5) 0.0042(10)
B3 B -0.1518(13) 0.5014(5) 0.0335(8)
F9 F -0.1600(8) 0.5310(4) 0.0411(6)
F10 F -0.2029(18) 0.4857(6) 0.0440(11)
F11 F -0.0881(15) 0.4923(7) 0.0625(8)
F12 F -0.1566(13) 0.4964(5) -0.0135(6)
B4 B 0.0757(12) -0.1969(6) 0.2734(8)
F13 F 0.0929(14) -0.2253(5) 0.2896(8)
F14 F 0.0601(16) -0.1810(7) 0.3082(10)
F15 F 0.0180(10) -0.1972(5) 0.2327(8)
F16 F 0.1307(10) -0.1846(5) 0.2629(7)
B5 B 0.5808(11) 0.1671(5) 0.3950(7)
F17 F 0.5574(8) 0.1624(4) 0.3461(5)
F18 F 0.6374(9) 0.1855(5) 0.4076(7)
F19 F 0.5988(10) 0.1407(4) 0.4182(6)
F20 F 0.5281(9) 0.1796(5) 0.4088(6)
B6 B 0.4031(11) 0.0084(5) 0.1937(8)
F21 F 0.3732(9) 0.0085(6) 0.2298(7)
F22 F 0.3800(10) -0.0163(5) 0.1656(7)
F23 F 0.4746(7) 0.0072(6) 0.2139(6)
F24 F 0.3843(10) 0.0334(5) 0.1668(9)
loop_
_geom_bond_atom_site_label_1
_geom_bond_atom_site_label_2
_geom_bond_site_symmetry_1
_geom_bond_site_symmetry_2
Pd1 N3 1_555 1_555
Pd2 N2 1_555 1_555
C1 H1 1_555 1_555
N1 C7 1_555 1_555
N2 C23 1_555 1_555
N3 C1 1_555 1_555
C2 H2 1_555 1_555
H3 C2 1_555 1_555
H4 C2 1_555 1_555
C3 C2 1_555 1_555
H5 C3 1_555 1_555
H6 C3 1_555 1_555
C4 C3 1_555 1_555
H7 C4 1_555 1_555
H8 C4 1_555 1_555
C5 C4 1_555 1_555
H9 C5 1_555 1_555
H10 C5 1_555 1_555
C6 C5 1_555 1_555
H11 C6 1_555 1_555
H12 C6 1_555 1_555
C7 C6 1_555 1_555
H13 C7 1_555 1_555
H14 C7 1_555 1_555
C8 H15 1_555 1_555
C9 C8 1_555 1_555
C10 C9 1_555 1_555
H16 C10 1_555 1_555
C11 C10 1_555 1_555
H17 C11 1_555 1_555
C12 N1 1_555 1_555
C13 C8 1_555 1_555
C14 C13 1_555 1_555
C15 C14 1_555 1_555
C16 N1 1_555 1_555
C17 C16 1_555 1_555
H18 C17 1_555 1_555
C18 C17 1_555 1_555
H19 C18 1_555 1_555
C19 C18 1_555 1_555
C20 C15 1_555 1_555
H20 C20 1_555 1_555
C21 C9 1_555 1_555
C22 C21 1_555 1_555
C23 H21 1_555 1_555
C24 C22 1_555 1_555
C25 C24 1_555 1_555
H22 C25 1_555 1_555
C26 C25 1_555 1_555
H23 C26 1_555 1_555
C27 N2 1_555 1_555
H24 C27 1_555 1_555
C28 C19 1_555 1_555
C29 C28 1_555 1_555
C30 N3 1_555 1_555
H25 C30 1_555 1_555
C31 C29 1_555 1_555
C32 C31 1_555 1_555
H26 C32 1_555 1_555
C33 C1 1_555 1_555
H27 C33 1_555 1_555
O1 C14 1_555 1_555
C34 H28 1_555 1_555
N4 C40 1_555 1_555
N5 Pd2 1_555 1_555
N6 Pd1 1_555 1_555
C35 H29 1_555 1_555
H30 C35 1_555 1_555
H31 C35 1_555 1_555
C36 C35 1_555 1_555
H32 C36 1_555 1_555
H33 C36 1_555 1_555
C37 C36 1_555 1_555
H34 C37 1_555 1_555
H35 C37 1_555 1_555
C38 C37 1_555 1_555
H36 C38 1_555 1_555
H37 C38 1_555 1_555
C39 C38 1_555 1_555
H38 C39 1_555 1_555
H39 C39 1_555 1_555
C40 C39 1_555 1_555
H40 C40 1_555 1_555
H41 C40 1_555 1_555
C41 H42 1_555 1_555
C42 C41 1_555 1_555
C43 C42 1_555 1_555
H43 C43 1_555 1_555
C44 C43 1_555 1_555
H44 C44 1_555 1_555
C45 N4 1_555 1_555
C46 C41 1_555 1_555
C47 C46 1_555 1_555
C48 C47 1_555 1_555
C49 N4 1_555 1_555
C50 C49 1_555 1_555
H45 C50 1_555 1_555
C51 C50 1_555 1_555
H46 C51 1_555 1_555
C52 C51 1_555 1_555
C53 C48 1_555 1_555
H47 C53 1_555 1_555
C54 C42 1_555 1_555
C55 C54 1_555 1_555
C56 N5 1_555 1_555
H48 C56 1_555 1_555
C57 C55 1_555 1_555
C58 C57 1_555 1_555
H49 C58 1_555 1_555
C59 C58 1_555 1_555
H50 C59 1_555 1_555
C60 N5 1_555 1_555
H51 C60 1_555 1_555
C61 C52 1_555 1_555
C62 C61 1_555 1_555
C63 N6 1_555 1_555
H52 C63 1_555 1_555
C64 C62 1_555 1_555
C65 C64 1_555 1_555
H53 C65 1_555 1_555
C66 C34 1_555 1_555
H54 C66 1_555 1_555
O2 C47 1_555 1_555
C67 H55 1_555 1_555
N7 C73 1_555 1_555
N8 Pd2 1_555 1_555
C68 H56 1_555 1_555
H57 C68 1_555 1_555
H58 C68 1_555 1_555
C69 C68 1_555 1_555
H59 C69 1_555 1_555
H60 C69 1_555 1_555
C70 C69 1_555 1_555
H61 C70 1_555 1_555
H62 C70 1_555 1_555
C71 C70 1_555 1_555
H63 C71 1_555 1_555
H64 C71 1_555 1_555
C72 C71 1_555 1_555
H65 C72 1_555 1_555
H66 C72 1_555 1_555
C73 C72 1_555 1_555
H67 C73 1_555 1_555
H68 C73 1_555 1_555
C74 H69 1_555 1_555
C75 C74 1_555 1_555
C76 C75 1_555 1_555
H70 C76 1_555 1_555
C77 C76 1_555 1_555
H71 C77 1_555 1_555
C78 N7 1_555 1_555
C79 C74 1_555 1_555
C80 C79 1_555 1_555
C81 C80 1_555 1_555
C82 N7 1_555 1_555
C83 C82 1_555 1_555
H72 C83 1_555 1_555
C84 C83 1_555 1_555
H73 C84 1_555 1_555
C85 C84 1_555 1_555
C86 C81 1_555 1_555
H74 C86 1_555 1_555
C87 C75 1_555 1_555
C88 C87 1_555 1_555
C89 N8 1_555 1_555
H75 C89 1_555 1_555
C90 C88 1_555 1_555
C91 C90 1_555 1_555
H76 C91 1_555 1_555
C92 C91 1_555 1_555
H77 C92 1_555 1_555
C93 N8 1_555 1_555
H78 C93 1_555 1_555
C94 C85 1_555 1_555
C95 C94 1_555 1_555
C96 H79 1_555 1_555
C97 C95 1_555 1_555
C98 C97 1_555 1_555
H80 C98 1_555 1_555
C99 C67 1_555 1_555
H81 C99 1_555 1_555
N9 Pd1 1_555 1_555
O3 C80 1_555 1_555
C100 H82 1_555 1_555
N10 C106 1_555 1_555
N11 Pd2 1_555 1_555
N12 Pd1 1_555 1_555
C101 H83 1_555 1_555
H84 C101 1_555 1_555
H85 C101 1_555 1_555
C102 C101 1_555 1_555
H86 C102 1_555 1_555
H87 C102 1_555 1_555
C103 C102 1_555 1_555
H88 C103 1_555 1_555
H89 C103 1_555 1_555
C104 C103 1_555 1_555
H90 C104 1_555 1_555
H91 C104 1_555 1_555
C105 C104 1_555 1_555
H92 C105 1_555 1_555
H93 C105 1_555 1_555
C106 C105 1_555 1_555
H94 C106 1_555 1_555
H95 C106 1_555 1_555
C107 H96 1_555 1_555
C108 C107 1_555 1_555
C109 C108 1_555 1_555
H97 C109 1_555 1_555
C110 C109 1_555 1_555
H98 C110 1_555 1_555
C111 N10 1_555 1_555
C112 C107 1_555 1_555
C113 C112 1_555 1_555
C114 C113 1_555 1_555
C115 N10 1_555 1_555
C116 C115 1_555 1_555
H99 C116 1_555 1_555
C117 C116 1_555 1_555
H100 C117 1_555 1_555
C118 C117 1_555 1_555
C119 C114 1_555 1_555
H101 C119 1_555 1_555
C120 C108 1_555 1_555
C121 C120 1_555 1_555
C122 N11 1_555 1_555
H102 C122 1_555 1_555
C123 C121 1_555 1_555
C124 C123 1_555 1_555
H103 C124 1_555 1_555
C125 C124 1_555 1_555
H104 C125 1_555 1_555
C126 N11 1_555 1_555
H105 C126 1_555 1_555
C127 C118 1_555 1_555
C128 C127 1_555 1_555
C129 N12 1_555 1_555
H106 C129 1_555 1_555
C130 C128 1_555 1_555
C131 C130 1_555 1_555
H107 C131 1_555 1_555
C132 C100 1_555 1_555
H108 C132 1_555 1_555
O4 C113 1_555 1_555
Pd3 N14 1_555 1_555
Pd4 N15 1_555 1_555
C133 H109 1_555 1_555
N13 C139 1_555 1_555
N14 C155 1_555 1_555
N15 C133 1_555 1_555
C134 H110 1_555 1_555
H111 C134 1_555 1_555
H112 C134 1_555 1_555
C135 C134 1_555 1_555
H113 C135 1_555 1_555
H114 C135 1_555 1_555
C136 C135 1_555 1_555
H115 C136 1_555 1_555
H116 C136 1_555 1_555
C137 C136 1_555 1_555
H117 C137 1_555 1_555
H118 C137 1_555 1_555
C138 C137 1_555 1_555
H119 C138 1_555 1_555
H120 C138 1_555 1_555
C139 C138 1_555 1_555
H121 C139 1_555 1_555
H122 C139 1_555 1_555
C140 H123 1_555 1_555
C141 C140 1_555 1_555
C142 C141 1_555 1_555
H124 C142 1_555 1_555
C143 C142 1_555 1_555
H125 C143 1_555 1_555
C144 N13 1_555 1_555
C145 C140 1_555 1_555
C146 C145 1_555 1_555
C147 C146 1_555 1_555
C148 N13 1_555 1_555
C149 C148 1_555 1_555
H126 C149 1_555 1_555
C150 C149 1_555 1_555
H127 C150 1_555 1_555
C151 C150 1_555 1_555
C152 C147 1_555 1_555
H128 C152 1_555 1_555
C153 C141 1_555 1_555
C154 C153 1_555 1_555
C155 H129 1_555 1_555
C156 C154 1_555 1_555
C157 C156 1_555 1_555
H130 C157 1_555 1_555
C158 C157 1_555 1_555
H131 C158 1_555 1_555
C159 N14 1_555 1_555
H132 C159 1_555 1_555
C160 C151 1_555 1_555
C161 C160 1_555 1_555
C162 N15 1_555 1_555
H133 C162 1_555 1_555
C163 C161 1_555 1_555
C164 C163 1_555 1_555
H134 C164 1_555 1_555
C165 C133 1_555 1_555
H135 C165 1_555 1_555
O5 C146 1_555 1_555
C166 H136 1_555 1_555
N16 C172 1_555 1_555
N17 Pd3 1_555 1_555
N18 Pd4 1_555 1_555
C167 H137 1_555 1_555
H138 C167 1_555 1_555
H139 C167 1_555 1_555
C168 C167 1_555 1_555
H140 C168 1_555 1_555
H141 C168 1_555 1_555
C169 C168 1_555 1_555
H142 C169 1_555 1_555
H143 C169 1_555 1_555
C170 C169 1_555 1_555
H144 C170 1_555 1_555
H145 C170 1_555 1_555
C171 C170 1_555 1_555
H146 C171 1_555 1_555
H147 C171 1_555 1_555
C172 C171 1_555 1_555
H148 C172 1_555 1_555
H149 C172 1_555 1_555
C173 H150 1_555 1_555
C174 C173 1_555 1_555
C175 C174 1_555 1_555
H151 C175 1_555 1_555
C176 C175 1_555 1_555
H152 C176 1_555 1_555
C177 N16 1_555 1_555
C178 C173 1_555 1_555
C179 C178 1_555 1_555
C180 C179 1_555 1_555
C181 N16 1_555 1_555
C182 C181 1_555 1_555
H153 C182 1_555 1_555
C183 C182 1_555 1_555
H154 C183 1_555 1_555
C184 C183 1_555 1_555
C185 C180 1_555 1_555
H155 C185 1_555 1_555
C186 C174 1_555 1_555
C187 C186 1_555 1_555
C188 N17 1_555 1_555
H156 C188 1_555 1_555
C189 C187 1_555 1_555
C190 C189 1_555 1_555
H157 C190 1_555 1_555
C191 C190 1_555 1_555
H158 C191 1_555 1_555
C192 N17 1_555 1_555
H159 C192 1_555 1_555
C193 C184 1_555 1_555
C194 C193 1_555 1_555
C195 N18 1_555 1_555
H160 C195 1_555 1_555
C196 C194 1_555 1_555
C197 C196 1_555 1_555
H161 C197 1_555 1_555
C198 C166 1_555 1_555
H162 C198 1_555 1_555
O6 C179 1_555 1_555
C199 H163 1_555 1_555
N19 C205 1_555 1_555
N20 Pd3 1_555 1_555
N21 Pd4 1_555 1_555
C200 H164 1_555 1_555
H165 C200 1_555 1_555
H166 C200 1_555 1_555
C201 C200 1_555 1_555
H167 C201 1_555 1_555
H168 C201 1_555 1_555
C202 C201 1_555 1_555
H169 C202 1_555 1_555
H170 C202 1_555 1_555
C203 C202 1_555 1_555
H171 C203 1_555 1_555
H172 C203 1_555 1_555
C204 C203 1_555 1_555
H173 C204 1_555 1_555
H174 C204 1_555 1_555
C205 C204 1_555 1_555
H175 C205 1_555 1_555
H176 C205 1_555 1_555
C206 H177 1_555 1_555
C207 C206 1_555 1_555
C208 C207 1_555 1_555
H178 C208 1_555 1_555
C209 C208 1_555 1_555
H179 C209 1_555 1_555
C210 N19 1_555 1_555
C211 C206 1_555 1_555
C212 C211 1_555 1_555
C213 C212 1_555 1_555
C214 N19 1_555 1_555
C215 C214 1_555 1_555
H180 C215 1_555 1_555
C216 C215 1_555 1_555
H181 C216 1_555 1_555
C217 C216 1_555 1_555
C218 C213 1_555 1_555
H182 C218 1_555 1_555
C219 C207 1_555 1_555
C220 C219 1_555 1_555
C221 N20 1_555 1_555
H183 C221 1_555 1_555
C222 C220 1_555 1_555
C223 C222 1_555 1_555
H184 C223 1_555 1_555
C224 C223 1_555 1_555
H185 C224 1_555 1_555
C225 N20 1_555 1_555
H186 C225 1_555 1_555
C226 C217 1_555 1_555
C227 C226 1_555 1_555
C228 N21 1_555 1_555
H187 C228 1_555 1_555
C229 C227 1_555 1_555
C230 C229 1_555 1_555
H188 C230 1_555 1_555
C231 C199 1_555 1_555
H189 C231 1_555 1_555
O7 C212 1_555 1_555
C232 H190 1_555 1_555
N22 C238 1_555 1_555
N23 Pd3 1_555 1_555
N24 Pd4 1_555 1_555
C233 H191 1_555 1_555
H192 C233 1_555 1_555
H193 C233 1_555 1_555
C234 C233 1_555 1_555
H194 C234 1_555 1_555
H195 C234 1_555 1_555
C235 C234 1_555 1_555
H196 C235 1_555 1_555
H197 C235 1_555 1_555
C236 C235 1_555 1_555
H198 C236 1_555 1_555
H199 C236 1_555 1_555
C237 C236 1_555 1_555
H200 C237 1_555 1_555
H201 C237 1_555 1_555
C238 C237 1_555 1_555
H202 C238 1_555 1_555
H203 C238 1_555 1_555
C239 H204 1_555 1_555
C240 C239 1_555 1_555
C241 C240 1_555 1_555
H205 C241 1_555 1_555
C242 C241 1_555 1_555
H206 C242 1_555 1_555
C243 N22 1_555 1_555
C244 C239 1_555 1_555
C245 C244 1_555 1_555
C246 C245 1_555 1_555
C247 N22 1_555 1_555
C248 C247 1_555 1_555
H207 C248 1_555 1_555
C249 C248 1_555 1_555
H208 C249 1_555 1_555
C250 C249 1_555 1_555
C251 C246 1_555 1_555
H209 C251 1_555 1_555
C252 C240 1_555 1_555
C253 C252 1_555 1_555
C254 N23 1_555 1_555
H210 C254 1_555 1_555
C255 C253 1_555 1_555
C256 C255 1_555 1_555
H211 C256 1_555 1_555
C257 C256 1_555 1_555
H212 C257 1_555 1_555
C258 N23 1_555 1_555
H213 C258 1_555 1_555
C259 C250 1_555 1_555
C260 C259 1_555 1_555
C261 N24 1_555 1_555
H214 C261 1_555 1_555
C262 C260 1_555 1_555
C263 C262 1_555 1_555
H215 C263 1_555 1_555
C264 C232 1_555 1_555
H216 C264 1_555 1_555
O8 C245 1_555 1_555
C265 H217 1_555 1_555
C266 C265 1_555 1_555
H218 C266 1_555 1_555
C267 C266 1_555 1_555
H219 C267 1_555 1_555
C268 C267 1_555 1_555
H220 C268 1_555 1_555
C269 C268 1_555 1_555
H221 C269 1_555 1_555
C270 C265 1_555 1_555
H222 C270 1_555 1_555
C271 H223 1_555 1_555
C272 C271 1_555 1_555
H224 C272 1_555 1_555
C273 C272 1_555 1_555
H225 C273 1_555 1_555
C274 C273 1_555 1_555
H226 C274 1_555 1_555
C275 C274 1_555 1_555
H227 C275 1_555 1_555
C276 C271 1_555 1_555
H228 C276 1_555 1_555
B1 F1 1_555 1_555
F2 B1 1_555 1_555
F3 B1 1_555 1_555
F4 B1 1_555 1_555
B2 F5 1_555 1_555
F6 B2 1_555 1_555
F7 B2 1_555 1_555
F8 B2 1_555 1_555
B3 F9 1_555 1_555
F10 B3 1_555 1_555
F11 B3 1_555 1_555
F12 B3 1_555 1_555
B4 F13 1_555 1_555
F14 B4 1_555 1_555
F15 B4 1_555 1_555
F16 B4 1_555 1_555
B5 F17 1_555 1_555
F18 B5 1_555 1_555
F19 B5 1_555 1_555
F20 B5 1_555 1_555
B6 F21 1_555 1_555
F22 B6 1_555 1_555
F23 B6 1_555 1_555
F24 B6 1_555 1_555
C11 C12 1_555 1_555
C12 C13 1_555 1_555
C15 C16 1_555 1_555
C19 C20 1_555 1_555
C23 C24 1_555 1_555
C26 C27 1_555 1_555
C30 C31 1_555 1_555
C32 C33 1_555 1_555
C34 N6 1_555 1_555
C44 C45 1_555 1_555
C45 C46 1_555 1_555
C48 C49 1_555 1_555
C52 C53 1_555 1_555
C56 C57 1_555 1_555
C59 C60 1_555 1_555
C63 C64 1_555 1_555
C65 C66 1_555 1_555
C67 N9 1_555 1_555
C77 C78 1_555 1_555
C78 C79 1_555 1_555
C81 C82 1_555 1_555
C85 C86 1_555 1_555
C89 C90 1_555 1_555
C92 C93 1_555 1_555
C96 C97 1_555 1_555
C96 N9 1_555 1_555
C98 C99 1_555 1_555
C100 N12 1_555 1_555
C110 C111 1_555 1_555
C111 C112 1_555 1_555
C114 C115 1_555 1_555
C118 C119 1_555 1_555
C122 C123 1_555 1_555
C125 C126 1_555 1_555
C129 C130 1_555 1_555
C131 C132 1_555 1_555
C143 C144 1_555 1_555
C144 C145 1_555 1_555
C147 C148 1_555 1_555
C151 C152 1_555 1_555
C155 C156 1_555 1_555
C158 C159 1_555 1_555
C162 C163 1_555 1_555
C164 C165 1_555 1_555
C166 N18 1_555 1_555
C176 C177 1_555 1_555
C177 C178 1_555 1_555
C180 C181 1_555 1_555
C184 C185 1_555 1_555
C188 C189 1_555 1_555
C191 C192 1_555 1_555
C195 C196 1_555 1_555
C197 C198 1_555 1_555
C199 N21 1_555 1_555
C209 C210 1_555 1_555
C210 C211 1_555 1_555
C213 C214 1_555 1_555
C217 C218 1_555 1_555
C221 C222 1_555 1_555
C224 C225 1_555 1_555
C228 C229 1_555 1_555
C230 C231 1_555 1_555
C232 N24 1_555 1_555
C242 C243 1_555 1_555
C243 C244 1_555 1_555
C246 C247 1_555 1_555
C250 C251 1_555 1_555
C254 C255 1_555 1_555
C257 C258 1_555 1_555
C261 C262 1_555 1_555
C263 C264 1_555 1_555
C269 C270 1_555 1_555
C275 C276 1_555 1_555

#END
