# generated using pymatgen
data_B11H228Pd2C252N12(OF11)4
_symmetry_space_group_name_H-M   'P 1'
_cell_length_a   22.06500000
_cell_length_b   22.06500000
_cell_length_c   33.49100000
_cell_angle_alpha   90.00000000
_cell_angle_beta   90.00000000
_cell_angle_gamma   90.00000000
_symmetry_Int_Tables_number   1
_chemical_formula_structural   B11H228Pd2C252N12(OF11)4
_chemical_formula_sum   'B44 H912 Pd8 C1008 N48 O16 F176'
_cell_volume   16305.56975948
_cell_formula_units_Z   4
loop_
 _symmetry_equiv_pos_site_id
 _symmetry_equiv_pos_as_xyz
  1  'x, y, z'
loop_
 _atom_site_type_symbol
 _atom_site_label
 _atom_site_symmetry_multiplicity
 _atom_site_fract_x
 _atom_site_fract_y
 _atom_site_fract_z
 _atom_site_occupancy
  B  B1  1  0.750000  0.250000  0.000000  1
  B  B2  1  0.250000  0.750000  0.000000  1
  B  B3  1  0.250000  0.750000  0.500000  1
  B  B4  1  0.750000  0.250000  0.500000  1
  B  B5  1  0.756800  0.725800  0.746900  1
  B  B6  1  0.743200  0.774200  0.746900  1
  B  B7  1  0.774200  0.756800  0.746900  1
  B  B8  1  0.725800  0.743200  0.746900  1
  B  B9  1  0.243200  0.274200  0.253100  1
  B  B10  1  0.256800  0.225800  0.253100  1
  B  B11  1  0.225800  0.243200  0.253100  1
  B  B12  1  0.274200  0.256800  0.253100  1
  B  B13  1  0.753100  0.722300  0.998900  1
  B  B14  1  0.746900  0.777700  0.998900  1
  B  B15  1  0.777700  0.753100  0.998900  1
  B  B16  1  0.722300  0.746900  0.998900  1
  B  B17  1  0.246900  0.277700  0.001100  1
  B  B18  1  0.253100  0.222300  0.001100  1
  B  B19  1  0.222300  0.246900  0.001100  1
  B  B20  1  0.277700  0.253100  0.001100  1
  B  B21  1  0.726700  0.742600  0.490400  1
  B  B22  1  0.773300  0.757400  0.490400  1
  B  B23  1  0.757400  0.726700  0.490400  1
  B  B24  1  0.742600  0.773300  0.490400  1
  B  B25  1  0.273300  0.257400  0.509600  1
  B  B26  1  0.226700  0.242600  0.509600  1
  B  B27  1  0.242600  0.273300  0.509600  1
  B  B28  1  0.257400  0.226700  0.509600  1
  B  B29  1  0.766900  0.750700  0.245300  1
  B  B30  1  0.733100  0.749300  0.245300  1
  B  B31  1  0.749300  0.766900  0.245300  1
  B  B32  1  0.750700  0.733100  0.245300  1
  B  B33  1  0.233100  0.249300  0.754700  1
  B  B34  1  0.266900  0.250700  0.754700  1
  B  B35  1  0.250700  0.233100  0.754700  1
  B  B36  1  0.249300  0.266900  0.754700  1
  B  B37  1  0.248000  0.754300  0.744800  1
  B  B38  1  0.252000  0.745700  0.744800  1
  B  B39  1  0.745700  0.248000  0.744800  1
  B  B40  1  0.754300  0.252000  0.744800  1
  B  B41  1  0.752000  0.245700  0.255200  1
  B  B42  1  0.748000  0.254300  0.255200  1
  B  B43  1  0.254300  0.752000  0.255200  1
  B  B44  1  0.245700  0.748000  0.255200  1
  H  H45  1  0.450200  0.948200  0.551800  1
  H  H46  1  0.049800  0.551800  0.551800  1
  H  H47  1  0.551800  0.450200  0.551800  1
  H  H48  1  0.948200  0.049800  0.551800  1
  H  H49  1  0.549800  0.051800  0.448200  1
  H  H50  1  0.950200  0.448200  0.448200  1
  H  H51  1  0.448200  0.549800  0.448200  1
  H  H52  1  0.051800  0.950200  0.448200  1
  H  H53  1  0.541300  0.952900  0.516200  1
  H  H54  1  0.958700  0.547100  0.516200  1
  H  H55  1  0.547100  0.541300  0.516200  1
  H  H56  1  0.952900  0.958700  0.516200  1
  H  H57  1  0.458700  0.047100  0.483800  1
  H  H58  1  0.041300  0.452900  0.483800  1
  H  H59  1  0.452900  0.458700  0.483800  1
  H  H60  1  0.047100  0.041300  0.483800  1
  H  H61  1  0.566500  0.875700  0.471200  1
  H  H62  1  0.933500  0.624300  0.471200  1
  H  H63  1  0.624300  0.566500  0.471200  1
  H  H64  1  0.875700  0.933500  0.471200  1
  H  H65  1  0.433500  0.124300  0.528800  1
  H  H66  1  0.066500  0.375700  0.528800  1
  H  H67  1  0.375700  0.433500  0.528800  1
  H  H68  1  0.124300  0.066500  0.528800  1
  H  H69  1  0.500500  0.793900  0.461900  1
  H  H70  1  0.999500  0.706100  0.461900  1
  H  H71  1  0.706100  0.500500  0.461900  1
  H  H72  1  0.793900  0.999500  0.461900  1
  H  H73  1  0.499500  0.206100  0.538100  1
  H  H74  1  0.000500  0.293900  0.538100  1
  H  H75  1  0.293900  0.499500  0.538100  1
  H  H76  1  0.206100  0.000500  0.538100  1
  H  H77  1  0.409400  0.789200  0.497500  1
  H  H78  1  0.090600  0.710800  0.497500  1
  H  H79  1  0.710800  0.409400  0.497500  1
  H  H80  1  0.789200  0.090600  0.497500  1
  H  H81  1  0.590600  0.210800  0.502500  1
  H  H82  1  0.909400  0.289200  0.502500  1
  H  H83  1  0.289200  0.590600  0.502500  1
  H  H84  1  0.210800  0.909400  0.502500  1
  H  H85  1  0.384200  0.866300  0.542500  1
  H  H86  1  0.115800  0.633700  0.542500  1
  H  H87  1  0.633700  0.384200  0.542500  1
  H  H88  1  0.866300  0.115800  0.542500  1
  H  H89  1  0.615800  0.133700  0.457500  1
  H  H90  1  0.884200  0.366300  0.457500  1
  H  H91  1  0.366300  0.615800  0.457500  1
  H  H92  1  0.133700  0.884200  0.457500  1
  H  H93  1  0.964800  0.019600  0.427200  1
  H  H94  1  0.535200  0.480400  0.427200  1
  H  H95  1  0.480400  0.964800  0.427200  1
  H  H96  1  0.019600  0.535200  0.427200  1
  H  H97  1  0.035200  0.980400  0.572800  1
  H  H98  1  0.464800  0.519600  0.572800  1
  H  H99  1  0.519600  0.035200  0.572800  1
  H  H100  1  0.980400  0.464800  0.572800  1
  H  H101  1  0.053800  0.017100  0.389200  1
  H  H102  1  0.446200  0.482900  0.389200  1
  H  H103  1  0.482900  0.053800  0.389200  1
  H  H104  1  0.017100  0.446200  0.389200  1
  H  H105  1  0.946200  0.982900  0.610800  1
  H  H106  1  0.553800  0.517100  0.610800  1
  H  H107  1  0.517100  0.946200  0.610800  1
  H  H108  1  0.982900  0.553800  0.610800  1
  H  H109  1  0.048400  0.011500  0.319600  1
  H  H110  1  0.451600  0.488500  0.319600  1
  H  H111  1  0.488500  0.048400  0.319600  1
  H  H112  1  0.011500  0.451600  0.319600  1
  H  H113  1  0.951600  0.988500  0.680400  1
  H  H114  1  0.548400  0.511500  0.680400  1
  H  H115  1  0.511500  0.951600  0.680400  1
  H  H116  1  0.988500  0.548400  0.680400  1
  H  H117  1  0.953900  0.008600  0.287800  1
  H  H118  1  0.546100  0.491400  0.287800  1
  H  H119  1  0.491400  0.953900  0.287800  1
  H  H120  1  0.008600  0.546100  0.287800  1
  H  H121  1  0.046100  0.991400  0.712200  1
  H  H122  1  0.453900  0.508600  0.712200  1
  H  H123  1  0.508600  0.046100  0.712200  1
  H  H124  1  0.991400  0.453900  0.712200  1
  H  H125  1  0.864900  0.011100  0.325800  1
  H  H126  1  0.635100  0.488900  0.325800  1
  H  H127  1  0.488900  0.864900  0.325800  1
  H  H128  1  0.011100  0.635100  0.325800  1
  H  H129  1  0.135100  0.988900  0.674200  1
  H  H130  1  0.364900  0.511100  0.674200  1
  H  H131  1  0.511100  0.135100  0.674200  1
  H  H132  1  0.988900  0.364900  0.674200  1
  H  H133  1  0.870400  0.016700  0.395500  1
  H  H134  1  0.629600  0.483300  0.395500  1
  H  H135  1  0.483300  0.870400  0.395500  1
  H  H136  1  0.016700  0.629600  0.395500  1
  H  H137  1  0.129600  0.983300  0.604500  1
  H  H138  1  0.370400  0.516700  0.604500  1
  H  H139  1  0.516700  0.129600  0.604500  1
  H  H140  1  0.983300  0.370400  0.604500  1
  H  H141  1  0.933000  0.043700  0.535700  1
  H  H142  1  0.567000  0.456300  0.535700  1
  H  H143  1  0.456300  0.933000  0.535700  1
  H  H144  1  0.043700  0.567000  0.535700  1
  H  H145  1  0.067000  0.956300  0.464300  1
  H  H146  1  0.433000  0.543700  0.464300  1
  H  H147  1  0.543700  0.067000  0.464300  1
  H  H148  1  0.956300  0.433000  0.464300  1
  H  H149  1  0.950300  0.942800  0.517400  1
  H  H150  1  0.549700  0.557200  0.517400  1
  H  H151  1  0.557200  0.950300  0.517400  1
  H  H152  1  0.942800  0.549700  0.517400  1
  H  H153  1  0.049700  0.057200  0.482600  1
  H  H154  1  0.450300  0.442800  0.482600  1
  H  H155  1  0.442800  0.049700  0.482600  1
  H  H156  1  0.057200  0.450300  0.482600  1
  H  H157  1  0.880700  0.892100  0.476600  1
  H  H158  1  0.619300  0.607900  0.476600  1
  H  H159  1  0.607900  0.880700  0.476600  1
  H  H160  1  0.892100  0.619300  0.476600  1
  H  H161  1  0.119300  0.107900  0.523400  1
  H  H162  1  0.380700  0.392100  0.523400  1
  H  H163  1  0.392100  0.119300  0.523400  1
  H  H164  1  0.107900  0.380700  0.523400  1
  H  H165  1  0.793800  0.942400  0.454000  1
  H  H166  1  0.706200  0.557600  0.454000  1
  H  H167  1  0.557600  0.793800  0.454000  1
  H  H168  1  0.942400  0.706200  0.454000  1
  H  H169  1  0.206200  0.057600  0.546000  1
  H  H170  1  0.293800  0.442400  0.546000  1
  H  H171  1  0.442400  0.206200  0.546000  1
  H  H172  1  0.057600  0.293800  0.546000  1
  H  H173  1  0.776500  0.043200  0.472300  1
  H  H174  1  0.723500  0.456800  0.472300  1
  H  H175  1  0.456800  0.776500  0.472300  1
  H  H176  1  0.043200  0.723500  0.472300  1
  H  H177  1  0.223500  0.956800  0.527700  1
  H  H178  1  0.276500  0.543200  0.527700  1
  H  H179  1  0.543200  0.223500  0.527700  1
  H  H180  1  0.956800  0.276500  0.527700  1
  H  H181  1  0.846100  0.093900  0.513100  1
  H  H182  1  0.653900  0.406100  0.513100  1
  H  H183  1  0.406100  0.846100  0.513100  1
  H  H184  1  0.093900  0.653900  0.513100  1
  H  H185  1  0.153900  0.906100  0.486900  1
  H  H186  1  0.346100  0.593900  0.486900  1
  H  H187  1  0.593900  0.153900  0.486900  1
  H  H188  1  0.906100  0.346100  0.486900  1
  H  H189  1  0.698500  0.885800  0.246900  1
  H  H190  1  0.801500  0.614200  0.246900  1
  H  H191  1  0.614200  0.698500  0.246900  1
  H  H192  1  0.885800  0.801500  0.246900  1
  H  H193  1  0.301500  0.114200  0.753100  1
  H  H194  1  0.198500  0.385800  0.753100  1
  H  H195  1  0.385800  0.301500  0.753100  1
  H  H196  1  0.114200  0.198500  0.753100  1
  H  H197  1  0.791700  0.930200  0.262800  1
  H  H198  1  0.708300  0.569800  0.262800  1
  H  H199  1  0.569800  0.791700  0.262800  1
  H  H200  1  0.930200  0.708300  0.262800  1
  H  H201  1  0.208300  0.069800  0.737200  1
  H  H202  1  0.291700  0.430200  0.737200  1
  H  H203  1  0.430200  0.208300  0.737200  1
  H  H204  1  0.069800  0.291700  0.737200  1
  H  H205  1  0.800700  0.035800  0.265300  1
  H  H206  1  0.699300  0.464200  0.265300  1
  H  H207  1  0.464200  0.800700  0.265300  1
  H  H208  1  0.035800  0.699300  0.265300  1
  H  H209  1  0.199300  0.964200  0.734700  1
  H  H210  1  0.300700  0.535800  0.734700  1
  H  H211  1  0.535800  0.199300  0.734700  1
  H  H212  1  0.964200  0.300700  0.734700  1
  H  H213  1  0.716500  0.097000  0.251900  1
  H  H214  1  0.783500  0.403000  0.251900  1
  H  H215  1  0.403000  0.716500  0.251900  1
  H  H216  1  0.097000  0.783500  0.251900  1
  H  H217  1  0.283500  0.903000  0.748100  1
  H  H218  1  0.216500  0.597000  0.748100  1
  H  H219  1  0.597000  0.283500  0.748100  1
  H  H220  1  0.903000  0.216500  0.748100  1
  H  H221  1  0.623300  0.052600  0.236100  1
  H  H222  1  0.876700  0.447400  0.236100  1
  H  H223  1  0.447400  0.623300  0.236100  1
  H  H224  1  0.052600  0.876700  0.236100  1
  H  H225  1  0.376700  0.947400  0.763900  1
  H  H226  1  0.123300  0.552600  0.763900  1
  H  H227  1  0.552600  0.376700  0.763900  1
  H  H228  1  0.947400  0.123300  0.763900  1
  H  H229  1  0.614300  0.947000  0.233500  1
  H  H230  1  0.885700  0.553000  0.233500  1
  H  H231  1  0.553000  0.614300  0.233500  1
  H  H232  1  0.947000  0.885700  0.233500  1
  H  H233  1  0.385700  0.053000  0.766500  1
  H  H234  1  0.114300  0.447000  0.766500  1
  H  H235  1  0.447000  0.385700  0.766500  1
  H  H236  1  0.053000  0.114300  0.766500  1
  H  H237  1  0.578600  0.051400  0.226600  1
  H  H238  1  0.921400  0.448600  0.226600  1
  H  H239  1  0.448600  0.578600  0.226600  1
  H  H240  1  0.051400  0.921400  0.226600  1
  H  H241  1  0.421400  0.948600  0.773400  1
  H  H242  1  0.078600  0.551400  0.773400  1
  H  H243  1  0.551400  0.421400  0.773400  1
  H  H244  1  0.948600  0.078600  0.773400  1
  H  H245  1  0.641800  0.966200  0.225700  1
  H  H246  1  0.858200  0.533800  0.225700  1
  H  H247  1  0.533800  0.641800  0.225700  1
  H  H248  1  0.966200  0.858200  0.225700  1
  H  H249  1  0.358200  0.033800  0.774300  1
  H  H250  1  0.141800  0.466200  0.774300  1
  H  H251  1  0.466200  0.358200  0.774300  1
  H  H252  1  0.033800  0.141800  0.774300  1
  H  H253  1  0.601100  0.870300  0.212800  1
  H  H254  1  0.898900  0.629700  0.212800  1
  H  H255  1  0.629700  0.601100  0.212800  1
  H  H256  1  0.870300  0.898900  0.212800  1
  H  H257  1  0.398900  0.129700  0.787200  1
  H  H258  1  0.101100  0.370300  0.787200  1
  H  H259  1  0.370300  0.398900  0.787200  1
  H  H260  1  0.129700  0.101100  0.787200  1
  H  H261  1  0.497200  0.859400  0.200900  1
  H  H262  1  0.002800  0.640600  0.200900  1
  H  H263  1  0.640600  0.497200  0.200900  1
  H  H264  1  0.859400  0.002800  0.200900  1
  H  H265  1  0.502800  0.140600  0.799100  1
  H  H266  1  0.997200  0.359400  0.799100  1
  H  H267  1  0.359400  0.502800  0.799100  1
  H  H268  1  0.140600  0.997200  0.799100  1
  H  H269  1  0.434000  0.944600  0.201800  1
  H  H270  1  0.066000  0.555400  0.201800  1
  H  H271  1  0.555400  0.434000  0.201800  1
  H  H272  1  0.944600  0.066000  0.201800  1
  H  H273  1  0.566000  0.055400  0.798200  1
  H  H274  1  0.934000  0.444600  0.798200  1
  H  H275  1  0.444600  0.566000  0.798200  1
  H  H276  1  0.055400  0.934000  0.798200  1
  H  H277  1  0.474700  0.040500  0.214700  1
  H  H278  1  0.025300  0.459500  0.214700  1
  H  H279  1  0.459500  0.474700  0.214700  1
  H  H280  1  0.040500  0.025300  0.214700  1
  H  H281  1  0.525300  0.959500  0.785300  1
  H  H282  1  0.974700  0.540500  0.785300  1
  H  H283  1  0.540500  0.525300  0.785300  1
  H  H284  1  0.959500  0.974700  0.785300  1
  H  H285  1  0.479300  0.049700  0.189600  1
  H  H286  1  0.020700  0.450300  0.189600  1
  H  H287  1  0.450300  0.479300  0.189600  1
  H  H288  1  0.049700  0.020700  0.189600  1
  H  H289  1  0.520700  0.950300  0.810400  1
  H  H290  1  0.979300  0.549700  0.810400  1
  H  H291  1  0.549700  0.520700  0.810400  1
  H  H292  1  0.950300  0.979300  0.810400  1
  H  H293  1  0.453700  0.951900  0.210600  1
  H  H294  1  0.046300  0.548100  0.210600  1
  H  H295  1  0.548100  0.453700  0.210600  1
  H  H296  1  0.951900  0.046300  0.210600  1
  H  H297  1  0.546300  0.048100  0.789400  1
  H  H298  1  0.953700  0.451900  0.789400  1
  H  H299  1  0.451900  0.546300  0.789400  1
  H  H300  1  0.048100  0.953700  0.789400  1
  H  H301  1  0.506600  0.868200  0.185600  1
  H  H302  1  0.993400  0.631800  0.185600  1
  H  H303  1  0.631800  0.506600  0.185600  1
  H  H304  1  0.868200  0.993400  0.185600  1
  H  H305  1  0.493400  0.131800  0.814400  1
  H  H306  1  0.006600  0.368200  0.814400  1
  H  H307  1  0.368200  0.493400  0.814400  1
  H  H308  1  0.131800  0.006600  0.814400  1
  H  H309  1  0.585100  0.882300  0.139600  1
  H  H310  1  0.914900  0.617700  0.139600  1
  H  H311  1  0.617700  0.585100  0.139600  1
  H  H312  1  0.882300  0.914900  0.139600  1
  H  H313  1  0.414900  0.117700  0.860400  1
  H  H314  1  0.085100  0.382300  0.860400  1
  H  H315  1  0.382300  0.414900  0.860400  1
  H  H316  1  0.117700  0.085100  0.860400  1
  H  H317  1  0.610800  0.980100  0.118600  1
  H  H318  1  0.889200  0.519900  0.118600  1
  H  H319  1  0.519900  0.610800  0.118600  1
  H  H320  1  0.980100  0.889200  0.118600  1
  H  H321  1  0.389200  0.019900  0.881400  1
  H  H322  1  0.110800  0.480100  0.881400  1
  H  H323  1  0.480100  0.389200  0.881400  1
  H  H324  1  0.019900  0.110800  0.881400  1
  H  H325  1  0.557900  0.063800  0.143600  1
  H  H326  1  0.942100  0.436200  0.143600  1
  H  H327  1  0.436200  0.557900  0.143600  1
  H  H328  1  0.063800  0.942100  0.143600  1
  H  H329  1  0.442100  0.936200  0.856400  1
  H  H330  1  0.057900  0.563800  0.856400  1
  H  H331  1  0.563800  0.442100  0.856400  1
  H  H332  1  0.936200  0.057900  0.856400  1
  H  H333  1  0.729400  0.094900  0.268100  1
  H  H334  1  0.770600  0.405100  0.268100  1
  H  H335  1  0.405100  0.729400  0.268100  1
  H  H336  1  0.094900  0.770600  0.268100  1
  H  H337  1  0.270600  0.905100  0.731900  1
  H  H338  1  0.229400  0.594900  0.731900  1
  H  H339  1  0.594900  0.270600  0.731900  1
  H  H340  1  0.905100  0.229400  0.731900  1
  H  H341  1  0.825600  0.102000  0.239100  1
  H  H342  1  0.674400  0.398000  0.239100  1
  H  H343  1  0.398000  0.825600  0.239100  1
  H  H344  1  0.102000  0.674400  0.239100  1
  H  H345  1  0.174400  0.898000  0.760900  1
  H  H346  1  0.325600  0.602000  0.760900  1
  H  H347  1  0.602000  0.174400  0.760900  1
  H  H348  1  0.898000  0.325600  0.760900  1
  H  H349  1  0.881300  0.014100  0.225800  1
  H  H350  1  0.618700  0.485900  0.225800  1
  H  H351  1  0.485900  0.881300  0.225800  1
  H  H352  1  0.014100  0.618700  0.225800  1
  H  H353  1  0.118700  0.985900  0.774200  1
  H  H354  1  0.381300  0.514100  0.774200  1
  H  H355  1  0.514100  0.118700  0.774200  1
  H  H356  1  0.985900  0.381300  0.774200  1
  H  H357  1  0.840900  0.919000  0.241500  1
  H  H358  1  0.659100  0.581000  0.241500  1
  H  H359  1  0.581000  0.840900  0.241500  1
  H  H360  1  0.919000  0.659100  0.241500  1
  H  H361  1  0.159100  0.081000  0.758500  1
  H  H362  1  0.340900  0.419000  0.758500  1
  H  H363  1  0.419000  0.159100  0.758500  1
  H  H364  1  0.081000  0.340900  0.758500  1
  H  H365  1  0.744700  0.911900  0.270600  1
  H  H366  1  0.755300  0.588100  0.270600  1
  H  H367  1  0.588100  0.744700  0.270600  1
  H  H368  1  0.911900  0.755300  0.270600  1
  H  H369  1  0.255300  0.088100  0.729400  1
  H  H370  1  0.244700  0.411900  0.729400  1
  H  H371  1  0.411900  0.255300  0.729400  1
  H  H372  1  0.088100  0.244700  0.729400  1
  H  H373  1  0.689000  0.999800  0.283900  1
  H  H374  1  0.811000  0.500200  0.283900  1
  H  H375  1  0.500200  0.689000  0.283900  1
  H  H376  1  0.999800  0.811000  0.283900  1
  H  H377  1  0.311000  0.000200  0.716100  1
  H  H378  1  0.189000  0.499800  0.716100  1
  H  H379  1  0.499800  0.311000  0.716100  1
  H  H380  1  0.000200  0.189000  0.716100  1
  H  H381  1  0.587800  0.066900  0.113700  1
  H  H382  1  0.912200  0.433100  0.113700  1
  H  H383  1  0.433100  0.587800  0.113700  1
  H  H384  1  0.066900  0.912200  0.113700  1
  H  H385  1  0.412200  0.933100  0.886300  1
  H  H386  1  0.087800  0.566900  0.886300  1
  H  H387  1  0.566900  0.412200  0.886300  1
  H  H388  1  0.933100  0.087800  0.886300  1
  H  H389  1  0.543300  0.976800  0.136000  1
  H  H390  1  0.956700  0.523200  0.136000  1
  H  H391  1  0.523200  0.543300  0.136000  1
  H  H392  1  0.976800  0.956700  0.136000  1
  H  H393  1  0.456700  0.023200  0.864000  1
  H  H394  1  0.043300  0.476800  0.864000  1
  H  H395  1  0.476800  0.456700  0.864000  1
  H  H396  1  0.023200  0.043300  0.864000  1
  H  H397  1  0.548400  0.889400  0.096600  1
  H  H398  1  0.951600  0.610600  0.096600  1
  H  H399  1  0.610600  0.548400  0.096600  1
  H  H400  1  0.889400  0.951600  0.096600  1
  H  H401  1  0.451600  0.110600  0.903400  1
  H  H402  1  0.048400  0.389400  0.903400  1
  H  H403  1  0.389400  0.451600  0.903400  1
  H  H404  1  0.110600  0.048400  0.903400  1
  H  H405  1  0.598100  0.892000  0.034900  1
  H  H406  1  0.901900  0.608000  0.034900  1
  H  H407  1  0.608000  0.598100  0.034900  1
  H  H408  1  0.892000  0.901900  0.034900  1
  H  H409  1  0.401900  0.108000  0.965100  1
  H  H410  1  0.098100  0.392000  0.965100  1
  H  H411  1  0.392000  0.401900  0.965100  1
  H  H412  1  0.108000  0.098100  0.965100  1
  H  H413  1  0.642700  0.982100  0.012600  1
  H  H414  1  0.857300  0.517900  0.012600  1
  H  H415  1  0.517900  0.642700  0.012600  1
  H  H416  1  0.982100  0.857300  0.012600  1
  H  H417  1  0.357300  0.017900  0.987400  1
  H  H418  1  0.142700  0.482100  0.987400  1
  H  H419  1  0.482100  0.357300  0.987400  1
  H  H420  1  0.017900  0.142700  0.987400  1
  H  H421  1  0.637600  0.069500  0.052000  1
  H  H422  1  0.862400  0.430500  0.052000  1
  H  H423  1  0.430500  0.637600  0.052000  1
  H  H424  1  0.069500  0.862400  0.052000  1
  H  H425  1  0.362400  0.930500  0.948000  1
  H  H426  1  0.137600  0.569500  0.948000  1
  H  H427  1  0.569500  0.362400  0.948000  1
  H  H428  1  0.930500  0.137600  0.948000  1
  H  H429  1  0.671900  0.952400  0.012000  1
  H  H430  1  0.828100  0.547600  0.012000  1
  H  H431  1  0.547600  0.671900  0.012000  1
  H  H432  1  0.952400  0.828100  0.012000  1
  H  H433  1  0.328100  0.047600  0.988000  1
  H  H434  1  0.171900  0.452400  0.988000  1
  H  H435  1  0.452400  0.328100  0.988000  1
  H  H436  1  0.047600  0.171900  0.988000  1
  H  H437  1  0.656700  0.048900  0.039100  1
  H  H438  1  0.843300  0.451100  0.039100  1
  H  H439  1  0.451100  0.656700  0.039100  1
  H  H440  1  0.048900  0.843300  0.039100  1
  H  H441  1  0.343300  0.951100  0.960900  1
  H  H442  1  0.156700  0.548900  0.960900  1
  H  H443  1  0.548900  0.343300  0.960900  1
  H  H444  1  0.951100  0.156700  0.960900  1
  H  H445  1  0.559000  0.080500  0.056400  1
  H  H446  1  0.941000  0.419500  0.056400  1
  H  H447  1  0.419500  0.559000  0.056400  1
  H  H448  1  0.080500  0.941000  0.056400  1
  H  H449  1  0.441000  0.919500  0.943600  1
  H  H450  1  0.059000  0.580500  0.943600  1
  H  H451  1  0.580500  0.441000  0.943600  1
  H  H452  1  0.919500  0.059000  0.943600  1
  H  H453  1  0.476400  0.015600  0.046700  1
  H  H454  1  0.023600  0.484400  0.046700  1
  H  H455  1  0.484400  0.476400  0.046700  1
  H  H456  1  0.015600  0.023600  0.046700  1
  H  H457  1  0.523600  0.984400  0.953300  1
  H  H458  1  0.976400  0.515600  0.953300  1
  H  H459  1  0.515600  0.523600  0.953300  1
  H  H460  1  0.984400  0.976400  0.953300  1
  H  H461  1  0.491700  0.919000  0.019600  1
  H  H462  1  0.008300  0.581000  0.019600  1
  H  H463  1  0.581000  0.491700  0.019600  1
  H  H464  1  0.919000  0.008300  0.019600  1
  H  H465  1  0.508300  0.081000  0.980400  1
  H  H466  1  0.991700  0.419000  0.980400  1
  H  H467  1  0.419000  0.508300  0.980400  1
  H  H468  1  0.081000  0.991700  0.980400  1
  H  H469  1  0.589400  0.887400  0.002200  1
  H  H470  1  0.910600  0.612600  0.002200  1
  H  H471  1  0.612600  0.589400  0.002200  1
  H  H472  1  0.887400  0.910600  0.002200  1
  H  H473  1  0.410600  0.112600  0.997800  1
  H  H474  1  0.089400  0.387400  0.997800  1
  H  H475  1  0.387400  0.410600  0.997800  1
  H  H476  1  0.112600  0.089400  0.997800  1
  H  H477  1  0.983500  0.033800  0.375100  1
  H  H478  1  0.516500  0.466200  0.375100  1
  H  H479  1  0.466200  0.983500  0.375100  1
  H  H480  1  0.033800  0.516500  0.375100  1
  H  H481  1  0.016500  0.966200  0.624900  1
  H  H482  1  0.483500  0.533800  0.624900  1
  H  H483  1  0.533800  0.016500  0.624900  1
  H  H484  1  0.966200  0.483500  0.624900  1
  H  H485  1  0.937400  0.002500  0.434500  1
  H  H486  1  0.562600  0.497500  0.434500  1
  H  H487  1  0.497500  0.937400  0.434500  1
  H  H488  1  0.002500  0.562600  0.434500  1
  H  H489  1  0.062600  0.997500  0.565500  1
  H  H490  1  0.437400  0.502500  0.565500  1
  H  H491  1  0.502500  0.062600  0.565500  1
  H  H492  1  0.997500  0.437400  0.565500  1
  H  H493  1  0.839700  0.961400  0.433300  1
  H  H494  1  0.660300  0.538600  0.433300  1
  H  H495  1  0.538600  0.839700  0.433300  1
  H  H496  1  0.961400  0.660300  0.433300  1
  H  H497  1  0.160300  0.038600  0.566700  1
  H  H498  1  0.339700  0.461400  0.566700  1
  H  H499  1  0.461400  0.160300  0.566700  1
  H  H500  1  0.038600  0.339700  0.566700  1
  H  H501  1  0.788000  0.951500  0.372700  1
  H  H502  1  0.712000  0.548500  0.372700  1
  H  H503  1  0.548500  0.788000  0.372700  1
  H  H504  1  0.951500  0.712000  0.372700  1
  H  H505  1  0.212000  0.048500  0.627300  1
  H  H506  1  0.288000  0.451500  0.627300  1
  H  H507  1  0.451500  0.212000  0.627300  1
  H  H508  1  0.048500  0.288000  0.627300  1
  H  H509  1  0.834000  0.982700  0.313200  1
  H  H510  1  0.666000  0.517300  0.313200  1
  H  H511  1  0.517300  0.834000  0.313200  1
  H  H512  1  0.982700  0.666000  0.313200  1
  H  H513  1  0.166000  0.017300  0.686800  1
  H  H514  1  0.334000  0.482700  0.686800  1
  H  H515  1  0.482700  0.166000  0.686800  1
  H  H516  1  0.017300  0.334000  0.686800  1
  H  H517  1  0.931800  0.023900  0.314400  1
  H  H518  1  0.568200  0.476100  0.314400  1
  H  H519  1  0.476100  0.931800  0.314400  1
  H  H520  1  0.023900  0.568200  0.314400  1
  H  H521  1  0.068200  0.976100  0.685600  1
  H  H522  1  0.431800  0.523900  0.685600  1
  H  H523  1  0.523900  0.068200  0.685600  1
  H  H524  1  0.976100  0.431800  0.685600  1
  H  H525  1  0.813100  0.152800  0.794500  1.0
  H  H526  1  0.686900  0.347200  0.794500  1.0
  H  H527  1  0.347200  0.813100  0.794500  1.0
  H  H528  1  0.152800  0.686900  0.794500  1.0
  H  H529  1  0.186900  0.847200  0.205500  1.0
  H  H530  1  0.313100  0.652800  0.205500  1.0
  H  H531  1  0.652800  0.186900  0.205500  1.0
  H  H532  1  0.847200  0.313100  0.205500  1.0
  H  H533  1  0.816500  0.101100  0.735700  1.0
  H  H534  1  0.683500  0.398900  0.735700  1.0
  H  H535  1  0.398900  0.816500  0.735700  1.0
  H  H536  1  0.101100  0.683500  0.735700  1.0
  H  H537  1  0.183500  0.898900  0.264300  1.0
  H  H538  1  0.316500  0.601100  0.264300  1.0
  H  H539  1  0.601100  0.183500  0.264300  1.0
  H  H540  1  0.898900  0.316500  0.264300  1.0
  H  H541  1  0.819300  0.941900  0.796700  1.0
  H  H542  1  0.680700  0.558100  0.796700  1.0
  H  H543  1  0.558100  0.819300  0.796700  1.0
  H  H544  1  0.941900  0.680700  0.796700  1.0
  H  H545  1  0.180700  0.058100  0.203300  1.0
  H  H546  1  0.319300  0.441900  0.203300  1.0
  H  H547  1  0.441900  0.180700  0.203300  1.0
  H  H548  1  0.058100  0.319300  0.203300  1.0
  H  H549  1  0.781600  0.845400  0.677400  1.0
  H  H550  1  0.718400  0.654600  0.677400  1.0
  H  H551  1  0.654600  0.781600  0.677400  1.0
  H  H552  1  0.845400  0.718400  0.677400  1.0
  H  H553  1  0.218400  0.154600  0.322600  1.0
  H  H554  1  0.281600  0.345400  0.322600  1.0
  H  H555  1  0.345400  0.218400  0.322600  1.0
  H  H556  1  0.154600  0.281600  0.322600  1.0
  H  H557  1  0.824000  0.998000  0.617800  1.0
  H  H558  1  0.676000  0.502000  0.617800  1.0
  H  H559  1  0.502000  0.824000  0.617800  1.0
  H  H560  1  0.998000  0.676000  0.617800  1.0
  H  H561  1  0.176000  0.002000  0.382200  1.0
  H  H562  1  0.324000  0.498000  0.382200  1.0
  H  H563  1  0.498000  0.176000  0.382200  1.0
  H  H564  1  0.002000  0.324000  0.382200  1.0
  H  H565  1  0.808000  0.947500  0.557400  1.0
  H  H566  1  0.692000  0.552500  0.557400  1.0
  H  H567  1  0.552500  0.808000  0.557400  1.0
  H  H568  1  0.947500  0.692000  0.557400  1.0
  H  H569  1  0.192000  0.052500  0.442600  1.0
  H  H570  1  0.308000  0.447500  0.442600  1.0
  H  H571  1  0.447500  0.192000  0.442600  1.0
  H  H572  1  0.052500  0.308000  0.442600  1.0
  H  H573  1  0.779500  0.845900  0.558800  1.0
  H  H574  1  0.720500  0.654100  0.558800  1.0
  H  H575  1  0.654100  0.779500  0.558800  1.0
  H  H576  1  0.845900  0.720500  0.558800  1.0
  H  H577  1  0.220500  0.154100  0.441200  1.0
  H  H578  1  0.279500  0.345900  0.441200  1.0
  H  H579  1  0.345900  0.220500  0.441200  1.0
  H  H580  1  0.154100  0.279500  0.441200  1.0
  H  H581  1  0.808000  0.157600  0.940300  1.0
  H  H582  1  0.692000  0.342400  0.940300  1.0
  H  H583  1  0.342400  0.808000  0.940300  1.0
  H  H584  1  0.157600  0.692000  0.940300  1.0
  H  H585  1  0.192000  0.842400  0.059700  1.0
  H  H586  1  0.308000  0.657600  0.059700  1.0
  H  H587  1  0.657600  0.192000  0.059700  1.0
  H  H588  1  0.842400  0.308000  0.059700  1.0
  H  H589  1  0.794900  0.107700  0.999300  1.0
  H  H590  1  0.705100  0.392300  0.999300  1.0
  H  H591  1  0.392300  0.794900  0.999300  1.0
  H  H592  1  0.107700  0.705100  0.999300  1.0
  H  H593  1  0.205100  0.892300  0.000700  1.0
  H  H594  1  0.294900  0.607700  0.000700  1.0
  H  H595  1  0.607700  0.205100  0.000700  1.0
  H  H596  1  0.892300  0.294900  0.000700  1.0
  H  H597  1  0.804200  0.946200  0.942800  1.0
  H  H598  1  0.695800  0.553800  0.942800  1.0
  H  H599  1  0.553800  0.804200  0.942800  1.0
  H  H600  1  0.946200  0.695800  0.942800  1.0
  H  H601  1  0.195800  0.053800  0.057200  1.0
  H  H602  1  0.304200  0.446200  0.057200  1.0
  H  H603  1  0.446200  0.195800  0.057200  1.0
  H  H604  1  0.053800  0.304200  0.057200  1.0
  H  H605  1  0.776900  0.849300  0.061800  1.0
  H  H606  1  0.723100  0.650700  0.061800  1.0
  H  H607  1  0.650700  0.776900  0.061800  1.0
  H  H608  1  0.849300  0.723100  0.061800  1.0
  H  H609  1  0.223100  0.150700  0.938200  1.0
  H  H610  1  0.276900  0.349300  0.938200  1.0
  H  H611  1  0.349300  0.223100  0.938200  1.0
  H  H612  1  0.150700  0.276900  0.938200  1.0
  H  H613  1  0.762000  0.007700  0.119200  1.0
  H  H614  1  0.738000  0.492300  0.119200  1.0
  H  H615  1  0.492300  0.762000  0.119200  1.0
  H  H616  1  0.007700  0.738000  0.119200  1.0
  H  H617  1  0.238000  0.992300  0.880800  1.0
  H  H618  1  0.262000  0.507700  0.880800  1.0
  H  H619  1  0.507700  0.238000  0.880800  1.0
  H  H620  1  0.992300  0.262000  0.880800  1.0
  H  H621  1  0.739100  0.957000  0.177900  1.0
  H  H622  1  0.760900  0.543000  0.177900  1.0
  H  H623  1  0.543000  0.739100  0.177900  1.0
  H  H624  1  0.957000  0.760900  0.177900  1.0
  H  H625  1  0.260900  0.043000  0.822100  1.0
  H  H626  1  0.239100  0.457000  0.822100  1.0
  H  H627  1  0.457000  0.260900  0.822100  1.0
  H  H628  1  0.043000  0.239100  0.822100  1.0
  H  H629  1  0.734500  0.850800  0.176200  1.0
  H  H630  1  0.765500  0.649200  0.176200  1.0
  H  H631  1  0.649200  0.734500  0.176200  1.0
  H  H632  1  0.850800  0.765500  0.176200  1.0
  H  H633  1  0.265500  0.149200  0.823800  1.0
  H  H634  1  0.234500  0.350800  0.823800  1.0
  H  H635  1  0.350800  0.265500  0.823800  1.0
  H  H636  1  0.149200  0.234500  0.823800  1.0
  H  H637  1  0.783500  0.193700  0.841700  1.0
  H  H638  1  0.716500  0.306300  0.841700  1.0
  H  H639  1  0.306300  0.783500  0.841700  1.0
  H  H640  1  0.193700  0.716500  0.841700  1.0
  H  H641  1  0.216500  0.806300  0.158300  1.0
  H  H642  1  0.283500  0.693700  0.158300  1.0
  H  H643  1  0.693700  0.216500  0.158300  1.0
  H  H644  1  0.806300  0.283500  0.158300  1.0
  H  H645  1  0.787900  0.197200  0.889400  1.0
  H  H646  1  0.712100  0.302800  0.889400  1.0
  H  H647  1  0.302800  0.787900  0.889400  1.0
  H  H648  1  0.197200  0.712100  0.889400  1.0
  H  H649  1  0.212100  0.802800  0.110600  1.0
  H  H650  1  0.287900  0.697200  0.110600  1.0
  H  H651  1  0.697200  0.212100  0.110600  1.0
  H  H652  1  0.802800  0.287900  0.110600  1.0
  H  H653  1  0.890800  0.187700  0.838600  1.0
  H  H654  1  0.609200  0.312300  0.838600  1.0
  H  H655  1  0.312300  0.890800  0.838600  1.0
  H  H656  1  0.187700  0.609200  0.838600  1.0
  H  H657  1  0.109200  0.812300  0.161400  1.0
  H  H658  1  0.390800  0.687700  0.161400  1.0
  H  H659  1  0.687700  0.109200  0.161400  1.0
  H  H660  1  0.812300  0.390800  0.161400  1.0
  H  H661  1  0.893400  0.195600  0.886100  1.0
  H  H662  1  0.606600  0.304400  0.886100  1.0
  H  H663  1  0.304400  0.893400  0.886100  1.0
  H  H664  1  0.195600  0.606600  0.886100  1.0
  H  H665  1  0.106600  0.804400  0.113900  1.0
  H  H666  1  0.393400  0.695600  0.113900  1.0
  H  H667  1  0.695600  0.106600  0.113900  1.0
  H  H668  1  0.804400  0.393400  0.113900  1.0
  H  H669  1  0.906600  0.289700  0.842700  1.0
  H  H670  1  0.593400  0.210300  0.842700  1.0
  H  H671  1  0.210300  0.906600  0.842700  1.0
  H  H672  1  0.289700  0.593400  0.842700  1.0
  H  H673  1  0.093400  0.710300  0.157300  1.0
  H  H674  1  0.406600  0.789700  0.157300  1.0
  H  H675  1  0.789700  0.093400  0.157300  1.0
  H  H676  1  0.710300  0.406600  0.157300  1.0
  H  H677  1  0.834200  0.288400  0.839800  1.0
  H  H678  1  0.665800  0.211600  0.839800  1.0
  H  H679  1  0.211600  0.834200  0.839800  1.0
  H  H680  1  0.288400  0.665800  0.839800  1.0
  H  H681  1  0.165800  0.711600  0.160200  1.0
  H  H682  1  0.334200  0.788400  0.160200  1.0
  H  H683  1  0.788400  0.165800  0.160200  1.0
  H  H684  1  0.711600  0.334200  0.160200  1.0
  H  H685  1  0.898700  0.294500  0.911600  1.0
  H  H686  1  0.601300  0.205500  0.911600  1.0
  H  H687  1  0.205500  0.898700  0.911600  1.0
  H  H688  1  0.294500  0.601300  0.911600  1.0
  H  H689  1  0.101300  0.705500  0.088400  1.0
  H  H690  1  0.398700  0.794500  0.088400  1.0
  H  H691  1  0.794500  0.101300  0.088400  1.0
  H  H692  1  0.705500  0.398700  0.088400  1.0
  H  H693  1  0.826700  0.296900  0.907300  1.0
  H  H694  1  0.673300  0.203100  0.907300  1.0
  H  H695  1  0.203100  0.826700  0.907300  1.0
  H  H696  1  0.296900  0.673300  0.907300  1.0
  H  H697  1  0.173300  0.703100  0.092700  1.0
  H  H698  1  0.326700  0.796900  0.092700  1.0
  H  H699  1  0.796900  0.173300  0.092700  1.0
  H  H700  1  0.703100  0.326700  0.092700  1.0
  H  H701  1  0.905700  0.389400  0.877900  1.0
  H  H702  1  0.594300  0.110600  0.877900  1.0
  H  H703  1  0.110600  0.905700  0.877900  1.0
  H  H704  1  0.389400  0.594300  0.877900  1.0
  H  H705  1  0.094300  0.610600  0.122100  1.0
  H  H706  1  0.405700  0.889400  0.122100  1.0
  H  H707  1  0.889400  0.094300  0.122100  1.0
  H  H708  1  0.610600  0.405700  0.122100  1.0
  H  H709  1  0.833400  0.391900  0.875300  1.0
  H  H710  1  0.666600  0.108100  0.875300  1.0
  H  H711  1  0.108100  0.833400  0.875300  1.0
  H  H712  1  0.391900  0.666600  0.875300  1.0
  H  H713  1  0.166600  0.608100  0.124700  1.0
  H  H714  1  0.333400  0.891900  0.124700  1.0
  H  H715  1  0.891900  0.166600  0.124700  1.0
  H  H716  1  0.608100  0.333400  0.124700  1.0
  H  H717  1  0.867500  0.451000  0.926900  1.0
  H  H718  1  0.632500  0.049000  0.926900  1.0
  H  H719  1  0.049000  0.867500  0.926900  1.0
  H  H720  1  0.451000  0.632500  0.926900  1.0
  H  H721  1  0.132500  0.549000  0.073100  1.0
  H  H722  1  0.367500  0.951000  0.073100  1.0
  H  H723  1  0.951000  0.132500  0.073100  1.0
  H  H724  1  0.549000  0.367500  0.073100  1.0
  H  H725  1  0.827800  0.396200  0.944100  1.0
  H  H726  1  0.672200  0.103800  0.944100  1.0
  H  H727  1  0.103800  0.827800  0.944100  1.0
  H  H728  1  0.396200  0.672200  0.944100  1.0
  H  H729  1  0.172200  0.603800  0.055900  1.0
  H  H730  1  0.327800  0.896200  0.055900  1.0
  H  H731  1  0.896200  0.172200  0.055900  1.0
  H  H732  1  0.603800  0.327800  0.055900  1.0
  H  H733  1  0.900200  0.393600  0.946700  1.0
  H  H734  1  0.599800  0.106400  0.946700  1.0
  H  H735  1  0.106400  0.900200  0.946700  1.0
  H  H736  1  0.393600  0.599800  0.946700  1.0
  H  H737  1  0.099800  0.606400  0.053300  1.0
  H  H738  1  0.400200  0.893600  0.053300  1.0
  H  H739  1  0.893600  0.099800  0.053300  1.0
  H  H740  1  0.606400  0.400200  0.053300  1.0
  H  H741  1  0.143900  0.810200  0.548500  1.0
  H  H742  1  0.356100  0.689800  0.548500  1.0
  H  H743  1  0.689800  0.143900  0.548500  1.0
  H  H744  1  0.810200  0.356100  0.548500  1.0
  H  H745  1  0.856100  0.189800  0.451500  1.0
  H  H746  1  0.643900  0.310200  0.451500  1.0
  H  H747  1  0.310200  0.856100  0.451500  1.0
  H  H748  1  0.189800  0.643900  0.451500  1.0
  H  H749  1  0.094500  0.817000  0.489300  1.0
  H  H750  1  0.405500  0.683000  0.489300  1.0
  H  H751  1  0.683000  0.094500  0.489300  1.0
  H  H752  1  0.817000  0.405500  0.489300  1.0
  H  H753  1  0.905500  0.183000  0.510700  1.0
  H  H754  1  0.594500  0.317000  0.510700  1.0
  H  H755  1  0.317000  0.905500  0.510700  1.0
  H  H756  1  0.183000  0.594500  0.510700  1.0
  H  H757  1  0.935200  0.842000  0.545900  1.0
  H  H758  1  0.564800  0.658000  0.545900  1.0
  H  H759  1  0.658000  0.935200  0.545900  1.0
  H  H760  1  0.842000  0.564800  0.545900  1.0
  H  H761  1  0.064800  0.158000  0.454100  1.0
  H  H762  1  0.435200  0.342000  0.454100  1.0
  H  H763  1  0.342000  0.064800  0.454100  1.0
  H  H764  1  0.158000  0.435200  0.454100  1.0
  H  H765  1  0.849900  0.778900  0.427600  1.0
  H  H766  1  0.650100  0.721100  0.427600  1.0
  H  H767  1  0.721100  0.849900  0.427600  1.0
  H  H768  1  0.778900  0.650100  0.427600  1.0
  H  H769  1  0.150100  0.221100  0.572400  1.0
  H  H770  1  0.349900  0.278900  0.572400  1.0
  H  H771  1  0.278900  0.150100  0.572400  1.0
  H  H772  1  0.221100  0.349900  0.572400  1.0
  H  H773  1  0.977400  0.873500  0.370400  1.0
  H  H774  1  0.522600  0.626500  0.370400  1.0
  H  H775  1  0.626500  0.977400  0.370400  1.0
  H  H776  1  0.873500  0.522600  0.370400  1.0
  H  H777  1  0.022600  0.126500  0.629600  1.0
  H  H778  1  0.477400  0.373500  0.629600  1.0
  H  H779  1  0.373500  0.022600  0.629600  1.0
  H  H780  1  0.126500  0.477400  0.629600  1.0
  H  H781  1  0.918600  0.870100  0.313000  1.0
  H  H782  1  0.581400  0.629900  0.313000  1.0
  H  H783  1  0.629900  0.918600  0.313000  1.0
  H  H784  1  0.870100  0.581400  0.313000  1.0
  H  H785  1  0.081400  0.129900  0.687000  1.0
  H  H786  1  0.418600  0.370100  0.687000  1.0
  H  H787  1  0.370100  0.081400  0.687000  1.0
  H  H788  1  0.129900  0.418600  0.687000  1.0
  H  H789  1  0.824100  0.821600  0.314800  1.0
  H  H790  1  0.675900  0.678400  0.314800  1.0
  H  H791  1  0.678400  0.824100  0.314800  1.0
  H  H792  1  0.821600  0.675900  0.314800  1.0
  H  H793  1  0.175900  0.178400  0.685200  1.0
  H  H794  1  0.324100  0.321600  0.685200  1.0
  H  H795  1  0.321600  0.175900  0.685200  1.0
  H  H796  1  0.178400  0.324100  0.685200  1.0
  H  H797  1  0.141300  0.820000  0.694500  1.0
  H  H798  1  0.358700  0.680000  0.694500  1.0
  H  H799  1  0.680000  0.141300  0.694500  1.0
  H  H800  1  0.820000  0.358700  0.694500  1.0
  H  H801  1  0.858700  0.180000  0.305500  1.0
  H  H802  1  0.641300  0.320000  0.305500  1.0
  H  H803  1  0.320000  0.858700  0.305500  1.0
  H  H804  1  0.180000  0.641300  0.305500  1.0
  H  H805  1  0.090400  0.830100  0.753500  1.0
  H  H806  1  0.409600  0.669900  0.753500  1.0
  H  H807  1  0.669900  0.090400  0.753500  1.0
  H  H808  1  0.830100  0.409600  0.753500  1.0
  H  H809  1  0.909600  0.169900  0.246500  1.0
  H  H810  1  0.590400  0.330100  0.246500  1.0
  H  H811  1  0.330100  0.909600  0.246500  1.0
  H  H812  1  0.169900  0.590400  0.246500  1.0
  H  H813  1  0.932600  0.845500  0.693500  1.0
  H  H814  1  0.567400  0.654500  0.693500  1.0
  H  H815  1  0.654500  0.932600  0.693500  1.0
  H  H816  1  0.845500  0.567400  0.693500  1.0
  H  H817  1  0.067400  0.154500  0.306500  1.0
  H  H818  1  0.432600  0.345500  0.306500  1.0
  H  H819  1  0.345500  0.067400  0.306500  1.0
  H  H820  1  0.154500  0.432600  0.306500  1.0
  H  H821  1  0.841400  0.789400  0.813800  1.0
  H  H822  1  0.658600  0.710600  0.813800  1.0
  H  H823  1  0.710600  0.841400  0.813800  1.0
  H  H824  1  0.789400  0.658600  0.813800  1.0
  H  H825  1  0.158600  0.210600  0.186200  1.0
  H  H826  1  0.341400  0.289400  0.186200  1.0
  H  H827  1  0.289400  0.158600  0.186200  1.0
  H  H828  1  0.210600  0.341400  0.186200  1.0
  H  H829  1  0.985200  0.857000  0.872800  1.0
  H  H830  1  0.514800  0.643000  0.872800  1.0
  H  H831  1  0.643000  0.985200  0.872800  1.0
  H  H832  1  0.857000  0.514800  0.872800  1.0
  H  H833  1  0.014800  0.143000  0.127200  1.0
  H  H834  1  0.485200  0.357000  0.127200  1.0
  H  H835  1  0.357000  0.014800  0.127200  1.0
  H  H836  1  0.143000  0.485200  0.127200  1.0
  H  H837  1  0.933400  0.844100  0.932300  1.0
  H  H838  1  0.566600  0.655900  0.932300  1.0
  H  H839  1  0.655900  0.933400  0.932300  1.0
  H  H840  1  0.844100  0.566600  0.932300  1.0
  H  H841  1  0.066600  0.155900  0.067700  1.0
  H  H842  1  0.433400  0.344100  0.067700  1.0
  H  H843  1  0.344100  0.066600  0.067700  1.0
  H  H844  1  0.155900  0.433400  0.067700  1.0
  H  H845  1  0.838000  0.798200  0.931300  1.0
  H  H846  1  0.662000  0.701800  0.931300  1.0
  H  H847  1  0.701800  0.838000  0.931300  1.0
  H  H848  1  0.798200  0.662000  0.931300  1.0
  H  H849  1  0.162000  0.201800  0.068700  1.0
  H  H850  1  0.338000  0.298200  0.068700  1.0
  H  H851  1  0.298200  0.162000  0.068700  1.0
  H  H852  1  0.201800  0.338000  0.068700  1.0
  H  H853  1  0.175900  0.777500  0.600000  1.0
  H  H854  1  0.324100  0.722500  0.600000  1.0
  H  H855  1  0.722500  0.175900  0.600000  1.0
  H  H856  1  0.777500  0.324100  0.600000  1.0
  H  H857  1  0.824100  0.222500  0.400000  1.0
  H  H858  1  0.675900  0.277500  0.400000  1.0
  H  H859  1  0.277500  0.824100  0.400000  1.0
  H  H860  1  0.222500  0.675900  0.400000  1.0
  H  H861  1  0.173400  0.780900  0.647800  1.0
  H  H862  1  0.326600  0.719100  0.647800  1.0
  H  H863  1  0.719100  0.173400  0.647800  1.0
  H  H864  1  0.780900  0.326600  0.647800  1.0
  H  H865  1  0.826600  0.219100  0.352200  1.0
  H  H866  1  0.673400  0.280900  0.352200  1.0
  H  H867  1  0.280900  0.826600  0.352200  1.0
  H  H868  1  0.219100  0.673400  0.352200  1.0
  H  H869  1  0.189400  0.887000  0.644800  1.0
  H  H870  1  0.310600  0.613000  0.644800  1.0
  H  H871  1  0.613000  0.189400  0.644800  1.0
  H  H872  1  0.887000  0.310600  0.644800  1.0
  H  H873  1  0.810600  0.113000  0.355200  1.0
  H  H874  1  0.689400  0.387000  0.355200  1.0
  H  H875  1  0.387000  0.810600  0.355200  1.0
  H  H876  1  0.113000  0.689400  0.355200  1.0
  H  H877  1  0.192500  0.883200  0.597000  1.0
  H  H878  1  0.307500  0.616800  0.597000  1.0
  H  H879  1  0.616800  0.192500  0.597000  1.0
  H  H880  1  0.883200  0.307500  0.597000  1.0
  H  H881  1  0.807500  0.116800  0.403000  1.0
  H  H882  1  0.692500  0.383200  0.403000  1.0
  H  H883  1  0.383200  0.807500  0.403000  1.0
  H  H884  1  0.116800  0.692500  0.403000  1.0
  H  H885  1  0.279400  0.828900  0.651200  1.0
  H  H886  1  0.220600  0.671100  0.651200  1.0
  H  H887  1  0.671100  0.279400  0.651200  1.0
  H  H888  1  0.828900  0.220600  0.651200  1.0
  H  H889  1  0.720600  0.171100  0.348800  1.0
  H  H890  1  0.779400  0.328900  0.348800  1.0
  H  H891  1  0.328900  0.720600  0.348800  1.0
  H  H892  1  0.171100  0.779400  0.348800  1.0
  H  H893  1  0.279800  0.813700  0.604400  1.0
  H  H894  1  0.220200  0.686300  0.604400  1.0
  H  H895  1  0.686300  0.279800  0.604400  1.0
  H  H896  1  0.813700  0.220200  0.604400  1.0
  H  H897  1  0.720200  0.186300  0.395600  1.0
  H  H898  1  0.779800  0.313700  0.395600  1.0
  H  H899  1  0.313700  0.720200  0.395600  1.0
  H  H900  1  0.186300  0.779800  0.395600  1.0
  H  H901  1  0.297400  0.928800  0.638300  1.0
  H  H902  1  0.202600  0.571200  0.638300  1.0
  H  H903  1  0.571200  0.297400  0.638300  1.0
  H  H904  1  0.928800  0.202600  0.638300  1.0
  H  H905  1  0.702600  0.071200  0.361700  1.0
  H  H906  1  0.797400  0.428800  0.361700  1.0
  H  H907  1  0.428800  0.702600  0.361700  1.0
  H  H908  1  0.071200  0.797400  0.361700  1.0
  H  H909  1  0.292600  0.916900  0.591300  1.0
  H  H910  1  0.207400  0.583100  0.591300  1.0
  H  H911  1  0.583100  0.292600  0.591300  1.0
  H  H912  1  0.916900  0.207400  0.591300  1.0
  H  H913  1  0.707400  0.083100  0.408700  1.0
  H  H914  1  0.792600  0.416900  0.408700  1.0
  H  H915  1  0.416900  0.707400  0.408700  1.0
  H  H916  1  0.083100  0.792600  0.408700  1.0
  H  H917  1  0.382700  0.848700  0.600800  1.0
  H  H918  1  0.117300  0.651300  0.600800  1.0
  H  H919  1  0.651300  0.382700  0.600800  1.0
  H  H920  1  0.848700  0.117300  0.600800  1.0
  H  H921  1  0.617300  0.151300  0.399200  1.0
  H  H922  1  0.882700  0.348700  0.399200  1.0
  H  H923  1  0.348700  0.617300  0.399200  1.0
  H  H924  1  0.151300  0.882700  0.399200  1.0
  H  H925  1  0.395900  0.920700  0.603400  1.0
  H  H926  1  0.104100  0.579300  0.603400  1.0
  H  H927  1  0.579300  0.395900  0.603400  1.0
  H  H928  1  0.920700  0.104100  0.603400  1.0
  H  H929  1  0.604100  0.079300  0.396600  1.0
  H  H930  1  0.895900  0.420700  0.396600  1.0
  H  H931  1  0.420700  0.604100  0.396600  1.0
  H  H932  1  0.079300  0.895900  0.396600  1.0
  H  H933  1  0.427700  0.872500  0.662900  1.0
  H  H934  1  0.072300  0.627500  0.662900  1.0
  H  H935  1  0.627500  0.427700  0.662900  1.0
  H  H936  1  0.872500  0.072300  0.662900  1.0
  H  H937  1  0.572300  0.127500  0.337100  1.0
  H  H938  1  0.927700  0.372500  0.337100  1.0
  H  H939  1  0.372500  0.572300  0.337100  1.0
  H  H940  1  0.127500  0.927700  0.337100  1.0
  H  H941  1  0.373400  0.918600  0.671800  1.0
  H  H942  1  0.126600  0.581400  0.671800  1.0
  H  H943  1  0.581400  0.373400  0.671800  1.0
  H  H944  1  0.918600  0.126600  0.671800  1.0
  H  H945  1  0.626600  0.081400  0.328200  1.0
  H  H946  1  0.873400  0.418600  0.328200  1.0
  H  H947  1  0.418600  0.626600  0.328200  1.0
  H  H948  1  0.081400  0.873400  0.328200  1.0
  H  H949  1  0.360400  0.847400  0.669200  1.0
  H  H950  1  0.139600  0.652600  0.669200  1.0
  H  H951  1  0.652600  0.360400  0.669200  1.0
  H  H952  1  0.847400  0.139600  0.669200  1.0
  H  H953  1  0.639600  0.152600  0.330800  1.0
  H  H954  1  0.860400  0.347400  0.330800  1.0
  H  H955  1  0.347400  0.639600  0.330800  1.0
  H  H956  1  0.152600  0.860400  0.330800  1.0
  Pd  Pd957  1  0.750000  0.750000  0.119410  1
  Pd  Pd958  1  0.250000  0.250000  0.880590  1
  Pd  Pd959  1  0.750000  0.750000  0.618880  1
  Pd  Pd960  1  0.250000  0.250000  0.381120  1
  Pd  Pd961  1  0.750000  0.750000  0.872160  1
  Pd  Pd962  1  0.250000  0.250000  0.127840  1
  Pd  Pd963  1  0.750000  0.750000  0.371160  1
  Pd  Pd964  1  0.250000  0.250000  0.628840  1
  C  C965  1  0.460400  0.916800  0.533600  1
  C  C966  1  0.039600  0.583200  0.533600  1
  C  C967  1  0.583200  0.460400  0.533600  1
  C  C968  1  0.916800  0.039600  0.533600  1
  C  C969  1  0.539600  0.083200  0.466400  1
  C  C970  1  0.960400  0.416800  0.466400  1
  C  C971  1  0.416800  0.539600  0.466400  1
  C  C972  1  0.083200  0.960400  0.466400  1
  C  C973  1  0.514500  0.919600  0.512400  1
  C  C974  1  0.985500  0.580400  0.512400  1
  C  C975  1  0.580400  0.514500  0.512400  1
  C  C976  1  0.919600  0.985500  0.512400  1
  C  C977  1  0.485500  0.080400  0.487600  1
  C  C978  1  0.014500  0.419600  0.487600  1
  C  C979  1  0.419600  0.485500  0.487600  1
  C  C980  1  0.080400  0.014500  0.487600  1
  C  C981  1  0.529500  0.873800  0.485700  1
  C  C982  1  0.970500  0.626200  0.485700  1
  C  C983  1  0.626200  0.529500  0.485700  1
  C  C984  1  0.873800  0.970500  0.485700  1
  C  C985  1  0.470500  0.126200  0.514300  1
  C  C986  1  0.029500  0.373800  0.514300  1
  C  C987  1  0.373800  0.470500  0.514300  1
  C  C988  1  0.126200  0.029500  0.514300  1
  C  C989  1  0.490300  0.825200  0.480100  1
  C  C990  1  0.009700  0.674800  0.480100  1
  C  C991  1  0.674800  0.490300  0.480100  1
  C  C992  1  0.825200  0.009700  0.480100  1
  C  C993  1  0.509700  0.174800  0.519900  1
  C  C994  1  0.990300  0.325200  0.519900  1
  C  C995  1  0.325200  0.509700  0.519900  1
  C  C996  1  0.174800  0.990300  0.519900  1
  C  C997  1  0.436200  0.822400  0.501300  1
  C  C998  1  0.063800  0.677600  0.501300  1
  C  C999  1  0.677600  0.436200  0.501300  1
  C  C1000  1  0.822400  0.063800  0.501300  1
  C  C1001  1  0.563800  0.177600  0.498700  1
  C  C1002  1  0.936200  0.322400  0.498700  1
  C  C1003  1  0.322400  0.563800  0.498700  1
  C  C1004  1  0.177600  0.936200  0.498700  1
  C  C1005  1  0.421200  0.868200  0.528000  1
  C  C1006  1  0.078800  0.631800  0.528000  1
  C  C1007  1  0.631800  0.421200  0.528000  1
  C  C1008  1  0.868200  0.078800  0.528000  1
  C  C1009  1  0.578800  0.131800  0.472000  1
  C  C1010  1  0.921200  0.368200  0.472000  1
  C  C1011  1  0.368200  0.578800  0.472000  1
  C  C1012  1  0.131800  0.921200  0.472000  1
  C  C1013  1  0.962600  0.017400  0.398900  1
  C  C1014  1  0.537400  0.482600  0.398900  1
  C  C1015  1  0.482600  0.962600  0.398900  1
  C  C1016  1  0.017400  0.537400  0.398900  1
  C  C1017  1  0.037400  0.982600  0.601100  1
  C  C1018  1  0.462600  0.517400  0.601100  1
  C  C1019  1  0.517400  0.037400  0.601100  1
  C  C1020  1  0.982600  0.462600  0.601100  1
  C  C1021  1  0.015500  0.015900  0.376400  1
  C  C1022  1  0.484500  0.484100  0.376400  1
  C  C1023  1  0.484100  0.015500  0.376400  1
  C  C1024  1  0.015900  0.484500  0.376400  1
  C  C1025  1  0.984500  0.984100  0.623600  1
  C  C1026  1  0.515500  0.515900  0.623600  1
  C  C1027  1  0.515900  0.984500  0.623600  1
  C  C1028  1  0.984100  0.515500  0.623600  1
  C  C1029  1  0.012200  0.012600  0.335000  1
  C  C1030  1  0.487800  0.487400  0.335000  1
  C  C1031  1  0.487400  0.012200  0.335000  1
  C  C1032  1  0.012600  0.487800  0.335000  1
  C  C1033  1  0.987800  0.987400  0.665000  1
  C  C1034  1  0.512200  0.512600  0.665000  1
  C  C1035  1  0.512600  0.987800  0.665000  1
  C  C1036  1  0.987400  0.512200  0.665000  1
  C  C1037  1  0.956100  0.010800  0.316100  1
  C  C1038  1  0.543900  0.489200  0.316100  1
  C  C1039  1  0.489200  0.956100  0.316100  1
  C  C1040  1  0.010800  0.543900  0.316100  1
  C  C1041  1  0.043900  0.989200  0.683900  1
  C  C1042  1  0.456100  0.510800  0.683900  1
  C  C1043  1  0.510800  0.043900  0.683900  1
  C  C1044  1  0.989200  0.456100  0.683900  1
  C  C1045  1  0.903300  0.012300  0.338700  1
  C  C1046  1  0.596700  0.487700  0.338700  1
  C  C1047  1  0.487700  0.903300  0.338700  1
  C  C1048  1  0.012300  0.596700  0.338700  1
  C  C1049  1  0.096700  0.987700  0.661300  1
  C  C1050  1  0.403300  0.512300  0.661300  1
  C  C1051  1  0.512300  0.096700  0.661300  1
  C  C1052  1  0.987700  0.403300  0.661300  1
  C  C1053  1  0.906500  0.015600  0.380100  1
  C  C1054  1  0.593500  0.484400  0.380100  1
  C  C1055  1  0.484400  0.906500  0.380100  1
  C  C1056  1  0.015600  0.593500  0.380100  1
  C  C1057  1  0.093500  0.984400  0.619900  1
  C  C1058  1  0.406500  0.515600  0.619900  1
  C  C1059  1  0.515600  0.093500  0.619900  1
  C  C1060  1  0.984400  0.406500  0.619900  1
  C  C1061  1  0.904700  0.023100  0.519100  1
  C  C1062  1  0.595300  0.476900  0.519100  1
  C  C1063  1  0.476900  0.904700  0.519100  1
  C  C1064  1  0.023100  0.595300  0.519100  1
  C  C1065  1  0.095300  0.976900  0.480900  1
  C  C1066  1  0.404700  0.523100  0.480900  1
  C  C1067  1  0.523100  0.095300  0.480900  1
  C  C1068  1  0.976900  0.404700  0.480900  1
  C  C1069  1  0.915000  0.963200  0.508300  1
  C  C1070  1  0.585000  0.536800  0.508300  1
  C  C1071  1  0.536800  0.915000  0.508300  1
  C  C1072  1  0.963200  0.585000  0.508300  1
  C  C1073  1  0.085000  0.036800  0.491700  1
  C  C1074  1  0.415000  0.463200  0.491700  1
  C  C1075  1  0.463200  0.085000  0.491700  1
  C  C1076  1  0.036800  0.415000  0.491700  1
  C  C1077  1  0.873700  0.933100  0.484000  1
  C  C1078  1  0.626300  0.566900  0.484000  1
  C  C1079  1  0.566900  0.873700  0.484000  1
  C  C1080  1  0.933100  0.626300  0.484000  1
  C  C1081  1  0.126300  0.066900  0.516000  1
  C  C1082  1  0.373700  0.433100  0.516000  1
  C  C1083  1  0.433100  0.126300  0.516000  1
  C  C1084  1  0.066900  0.373700  0.516000  1
  C  C1085  1  0.822100  0.962900  0.470600  1
  C  C1086  1  0.677900  0.537100  0.470600  1
  C  C1087  1  0.537100  0.822100  0.470600  1
  C  C1088  1  0.962900  0.677900  0.470600  1
  C  C1089  1  0.177900  0.037100  0.529400  1
  C  C1090  1  0.322100  0.462900  0.529400  1
  C  C1091  1  0.462900  0.177900  0.529400  1
  C  C1092  1  0.037100  0.322100  0.529400  1
  C  C1093  1  0.811800  0.022900  0.481400  1
  C  C1094  1  0.688200  0.477100  0.481400  1
  C  C1095  1  0.477100  0.811800  0.481400  1
  C  C1096  1  0.022900  0.688200  0.481400  1
  C  C1097  1  0.188200  0.977100  0.518600  1
  C  C1098  1  0.311800  0.522900  0.518600  1
  C  C1099  1  0.522900  0.188200  0.518600  1
  C  C1100  1  0.977100  0.311800  0.518600  1
  C  C1101  1  0.853100  0.052900  0.505700  1
  C  C1102  1  0.646900  0.447100  0.505700  1
  C  C1103  1  0.447100  0.853100  0.505700  1
  C  C1104  1  0.052900  0.646900  0.505700  1
  C  C1105  1  0.146900  0.947100  0.494300  1
  C  C1106  1  0.353100  0.552900  0.494300  1
  C  C1107  1  0.552900  0.146900  0.494300  1
  C  C1108  1  0.947100  0.353100  0.494300  1
  C  C1109  1  0.702200  0.928700  0.247900  1
  C  C1110  1  0.797800  0.571300  0.247900  1
  C  C1111  1  0.571300  0.702200  0.247900  1
  C  C1112  1  0.928700  0.797800  0.247900  1
  C  C1113  1  0.297800  0.071300  0.752100  1
  C  C1114  1  0.202200  0.428700  0.752100  1
  C  C1115  1  0.428700  0.297800  0.752100  1
  C  C1116  1  0.071300  0.202200  0.752100  1
  C  C1117  1  0.757500  0.955100  0.257300  1
  C  C1118  1  0.742500  0.544900  0.257300  1
  C  C1119  1  0.544900  0.757500  0.257300  1
  C  C1120  1  0.955100  0.742500  0.257300  1
  C  C1121  1  0.242500  0.044900  0.742700  1
  C  C1122  1  0.257500  0.455100  0.742700  1
  C  C1123  1  0.455100  0.242500  0.742700  1
  C  C1124  1  0.044900  0.257500  0.742700  1
  C  C1125  1  0.762900  0.017800  0.258800  1
  C  C1126  1  0.737100  0.482200  0.258800  1
  C  C1127  1  0.482200  0.762900  0.258800  1
  C  C1128  1  0.017800  0.737100  0.258800  1
  C  C1129  1  0.237100  0.982200  0.741200  1
  C  C1130  1  0.262900  0.517800  0.741200  1
  C  C1131  1  0.517800  0.237100  0.741200  1
  C  C1132  1  0.982200  0.262900  0.741200  1
  C  C1133  1  0.712900  0.054100  0.250900  1
  C  C1134  1  0.787100  0.445900  0.250900  1
  C  C1135  1  0.445900  0.712900  0.250900  1
  C  C1136  1  0.054100  0.787100  0.250900  1
  C  C1137  1  0.287100  0.945900  0.749100  1
  C  C1138  1  0.212900  0.554100  0.749100  1
  C  C1139  1  0.554100  0.287100  0.749100  1
  C  C1140  1  0.945900  0.212900  0.749100  1
  C  C1141  1  0.657500  0.027800  0.241500  1
  C  C1142  1  0.842500  0.472200  0.241500  1
  C  C1143  1  0.472200  0.657500  0.241500  1
  C  C1144  1  0.027800  0.842500  0.241500  1
  C  C1145  1  0.342500  0.972200  0.758500  1
  C  C1146  1  0.157500  0.527800  0.758500  1
  C  C1147  1  0.527800  0.342500  0.758500  1
  C  C1148  1  0.972200  0.157500  0.758500  1
  C  C1149  1  0.652100  0.965000  0.240000  1
  C  C1150  1  0.847900  0.535000  0.240000  1
  C  C1151  1  0.535000  0.652100  0.240000  1
  C  C1152  1  0.965000  0.847900  0.240000  1
  C  C1153  1  0.347900  0.035000  0.760000  1
  C  C1154  1  0.152100  0.465000  0.760000  1
  C  C1155  1  0.465000  0.347900  0.760000  1
  C  C1156  1  0.035000  0.152100  0.760000  1
  C  C1157  1  0.562000  0.012400  0.221400  1
  C  C1158  1  0.938000  0.487600  0.221400  1
  C  C1159  1  0.487600  0.562000  0.221400  1
  C  C1160  1  0.012400  0.938000  0.221400  1
  C  C1161  1  0.438000  0.987600  0.778600  1
  C  C1162  1  0.062000  0.512400  0.778600  1
  C  C1163  1  0.512400  0.438000  0.778600  1
  C  C1164  1  0.987600  0.062000  0.778600  1
  C  C1165  1  0.599600  0.962000  0.220800  1
  C  C1166  1  0.900400  0.538000  0.220800  1
  C  C1167  1  0.538000  0.599600  0.220800  1
  C  C1168  1  0.962000  0.900400  0.220800  1
  C  C1169  1  0.400400  0.038000  0.779200  1
  C  C1170  1  0.099600  0.462000  0.779200  1
  C  C1171  1  0.462000  0.400400  0.779200  1
  C  C1172  1  0.038000  0.099600  0.779200  1
  C  C1173  1  0.575000  0.904800  0.213200  1
  C  C1174  1  0.925000  0.595200  0.213200  1
  C  C1175  1  0.595200  0.575000  0.213200  1
  C  C1176  1  0.904800  0.925000  0.213200  1
  C  C1177  1  0.425000  0.095200  0.786800  1
  C  C1178  1  0.075000  0.404800  0.786800  1
  C  C1179  1  0.404800  0.425000  0.786800  1
  C  C1180  1  0.095200  0.075000  0.786800  1
  C  C1181  1  0.514000  0.898400  0.206100  1
  C  C1182  1  0.986000  0.601600  0.206100  1
  C  C1183  1  0.601600  0.514000  0.206100  1
  C  C1184  1  0.898400  0.986000  0.206100  1
  C  C1185  1  0.486000  0.101600  0.793900  1
  C  C1186  1  0.014000  0.398400  0.793900  1
  C  C1187  1  0.398400  0.486000  0.793900  1
  C  C1188  1  0.101600  0.014000  0.793900  1
  C  C1189  1  0.476200  0.949000  0.206700  1
  C  C1190  1  0.023800  0.551000  0.206700  1
  C  C1191  1  0.551000  0.476200  0.206700  1
  C  C1192  1  0.949000  0.023800  0.206700  1
  C  C1193  1  0.523800  0.051000  0.793300  1
  C  C1194  1  0.976200  0.449000  0.793300  1
  C  C1195  1  0.449000  0.523800  0.793300  1
  C  C1196  1  0.051000  0.976200  0.793300  1
  C  C1197  1  0.500300  0.006000  0.214300  1
  C  C1198  1  0.999700  0.494000  0.214300  1
  C  C1199  1  0.494000  0.500300  0.214300  1
  C  C1200  1  0.006000  0.999700  0.214300  1
  C  C1201  1  0.499700  0.994000  0.785700  1
  C  C1202  1  0.000300  0.506000  0.785700  1
  C  C1203  1  0.506000  0.499700  0.785700  1
  C  C1204  1  0.994000  0.000300  0.785700  1
  C  C1205  1  0.500800  0.015700  0.179400  1
  C  C1206  1  0.999200  0.484300  0.179400  1
  C  C1207  1  0.484300  0.500800  0.179400  1
  C  C1208  1  0.015700  0.999200  0.179400  1
  C  C1209  1  0.499200  0.984300  0.820600  1
  C  C1210  1  0.000800  0.515700  0.820600  1
  C  C1211  1  0.515700  0.499200  0.820600  1
  C  C1212  1  0.984300  0.000800  0.820600  1
  C  C1213  1  0.485600  0.957600  0.191900  1
  C  C1214  1  0.014400  0.542400  0.191900  1
  C  C1215  1  0.542400  0.485600  0.191900  1
  C  C1216  1  0.957600  0.014400  0.191900  1
  C  C1217  1  0.514400  0.042400  0.808100  1
  C  C1218  1  0.985600  0.457600  0.808100  1
  C  C1219  1  0.457600  0.514400  0.808100  1
  C  C1220  1  0.042400  0.985600  0.808100  1
  C  C1221  1  0.517000  0.907900  0.177100  1
  C  C1222  1  0.983000  0.592100  0.177100  1
  C  C1223  1  0.592100  0.517000  0.177100  1
  C  C1224  1  0.907900  0.983000  0.177100  1
  C  C1225  1  0.483000  0.092100  0.822900  1
  C  C1226  1  0.017000  0.407900  0.822900  1
  C  C1227  1  0.407900  0.483000  0.822900  1
  C  C1228  1  0.092100  0.017000  0.822900  1
  C  C1229  1  0.563700  0.916300  0.149700  1
  C  C1230  1  0.936300  0.583700  0.149700  1
  C  C1231  1  0.583700  0.563700  0.149700  1
  C  C1232  1  0.916300  0.936300  0.149700  1
  C  C1233  1  0.436300  0.083700  0.850300  1
  C  C1234  1  0.063700  0.416300  0.850300  1
  C  C1235  1  0.416300  0.436300  0.850300  1
  C  C1236  1  0.083700  0.063700  0.850300  1
  C  C1237  1  0.578900  0.974400  0.137200  1
  C  C1238  1  0.921100  0.525600  0.137200  1
  C  C1239  1  0.525600  0.578900  0.137200  1
  C  C1240  1  0.974400  0.921100  0.137200  1
  C  C1241  1  0.421100  0.025600  0.862800  1
  C  C1242  1  0.078900  0.474400  0.862800  1
  C  C1243  1  0.474400  0.421100  0.862800  1
  C  C1244  1  0.025600  0.078900  0.862800  1
  C  C1245  1  0.547500  0.024100  0.152100  1
  C  C1246  1  0.952500  0.475900  0.152100  1
  C  C1247  1  0.475900  0.547500  0.152100  1
  C  C1248  1  0.024100  0.952500  0.152100  1
  C  C1249  1  0.452500  0.975900  0.847900  1
  C  C1250  1  0.047500  0.524100  0.847900  1
  C  C1251  1  0.524100  0.452500  0.847900  1
  C  C1252  1  0.975900  0.047500  0.847900  1
  C  C1253  1  0.752100  0.059200  0.262700  1
  C  C1254  1  0.747900  0.440800  0.262700  1
  C  C1255  1  0.440800  0.752100  0.262700  1
  C  C1256  1  0.059200  0.747900  0.262700  1
  C  C1257  1  0.247900  0.940800  0.737300  1
  C  C1258  1  0.252100  0.559200  0.737300  1
  C  C1259  1  0.559200  0.247900  0.737300  1
  C  C1260  1  0.940800  0.252100  0.737300  1
  C  C1261  1  0.809200  0.063400  0.245500  1
  C  C1262  1  0.690800  0.436600  0.245500  1
  C  C1263  1  0.436600  0.809200  0.245500  1
  C  C1264  1  0.063400  0.690800  0.245500  1
  C  C1265  1  0.190800  0.936600  0.754500  1
  C  C1266  1  0.309200  0.563400  0.754500  1
  C  C1267  1  0.563400  0.190800  0.754500  1
  C  C1268  1  0.936600  0.309200  0.754500  1
  C  C1269  1  0.842300  0.011000  0.237600  1
  C  C1270  1  0.657700  0.489000  0.237600  1
  C  C1271  1  0.489000  0.842300  0.237600  1
  C  C1272  1  0.011000  0.657700  0.237600  1
  C  C1273  1  0.157700  0.989000  0.762400  1
  C  C1274  1  0.342300  0.511000  0.762400  1
  C  C1275  1  0.511000  0.157700  0.762400  1
  C  C1276  1  0.989000  0.342300  0.762400  1
  C  C1277  1  0.818300  0.954700  0.246900  1
  C  C1278  1  0.681700  0.545300  0.246900  1
  C  C1279  1  0.545300  0.818300  0.246900  1
  C  C1280  1  0.954700  0.681700  0.246900  1
  C  C1281  1  0.181700  0.045300  0.753100  1
  C  C1282  1  0.318300  0.454700  0.753100  1
  C  C1283  1  0.454700  0.181700  0.753100  1
  C  C1284  1  0.045300  0.318300  0.753100  1
  C  C1285  1  0.761100  0.950400  0.264200  1
  C  C1286  1  0.738900  0.549600  0.264200  1
  C  C1287  1  0.549600  0.761100  0.264200  1
  C  C1288  1  0.950400  0.738900  0.264200  1
  C  C1289  1  0.238900  0.049600  0.735800  1
  C  C1290  1  0.261100  0.450400  0.735800  1
  C  C1291  1  0.450400  0.238900  0.735800  1
  C  C1292  1  0.049600  0.261100  0.735800  1
  C  C1293  1  0.728000  0.002700  0.272100  1
  C  C1294  1  0.772000  0.497300  0.272100  1
  C  C1295  1  0.497300  0.728000  0.272100  1
  C  C1296  1  0.002700  0.772000  0.272100  1
  C  C1297  1  0.272000  0.997300  0.727900  1
  C  C1298  1  0.228000  0.502700  0.727900  1
  C  C1299  1  0.502700  0.272000  0.727900  1
  C  C1300  1  0.997300  0.228000  0.727900  1
  C  C1301  1  0.590000  0.031000  0.097700  1
  C  C1302  1  0.910000  0.469000  0.097700  1
  C  C1303  1  0.469000  0.590000  0.097700  1
  C  C1304  1  0.031000  0.910000  0.097700  1
  C  C1305  1  0.410000  0.969000  0.902300  1
  C  C1306  1  0.090000  0.531000  0.902300  1
  C  C1307  1  0.531000  0.410000  0.902300  1
  C  C1308  1  0.969000  0.090000  0.902300  1
  C  C1309  1  0.563000  0.978000  0.110900  1
  C  C1310  1  0.937000  0.522000  0.110900  1
  C  C1311  1  0.522000  0.563000  0.110900  1
  C  C1312  1  0.978000  0.937000  0.110900  1
  C  C1313  1  0.437000  0.022000  0.889100  1
  C  C1314  1  0.063000  0.478000  0.889100  1
  C  C1315  1  0.478000  0.437000  0.889100  1
  C  C1316  1  0.022000  0.063000  0.889100  1
  C  C1317  1  0.566000  0.926000  0.087500  1
  C  C1318  1  0.934000  0.574000  0.087500  1
  C  C1319  1  0.574000  0.566000  0.087500  1
  C  C1320  1  0.926000  0.934000  0.087500  1
  C  C1321  1  0.434000  0.074000  0.912500  1
  C  C1322  1  0.066000  0.426000  0.912500  1
  C  C1323  1  0.426000  0.434000  0.912500  1
  C  C1324  1  0.074000  0.066000  0.912500  1
  C  C1325  1  0.596000  0.928000  0.050900  1
  C  C1326  1  0.904000  0.572000  0.050900  1
  C  C1327  1  0.572000  0.596000  0.050900  1
  C  C1328  1  0.928000  0.904000  0.050900  1
  C  C1329  1  0.404000  0.072000  0.949100  1
  C  C1330  1  0.096000  0.428000  0.949100  1
  C  C1331  1  0.428000  0.404000  0.949100  1
  C  C1332  1  0.072000  0.096000  0.949100  1
  C  C1333  1  0.623000  0.981000  0.037700  1
  C  C1334  1  0.877000  0.519000  0.037700  1
  C  C1335  1  0.519000  0.623000  0.037700  1
  C  C1336  1  0.981000  0.877000  0.037700  1
  C  C1337  1  0.377000  0.019000  0.962300  1
  C  C1338  1  0.123000  0.481000  0.962300  1
  C  C1339  1  0.481000  0.377000  0.962300  1
  C  C1340  1  0.019000  0.123000  0.962300  1
  C  C1341  1  0.619000  0.033000  0.061100  1
  C  C1342  1  0.881000  0.467000  0.061100  1
  C  C1343  1  0.467000  0.619000  0.061100  1
  C  C1344  1  0.033000  0.881000  0.061100  1
  C  C1345  1  0.381000  0.967000  0.938900  1
  C  C1346  1  0.119000  0.533000  0.938900  1
  C  C1347  1  0.533000  0.381000  0.938900  1
  C  C1348  1  0.967000  0.119000  0.938900  1
  C  C1349  1  0.632300  0.965200  0.019000  1
  C  C1350  1  0.867700  0.534800  0.019000  1
  C  C1351  1  0.534800  0.632300  0.019000  1
  C  C1352  1  0.965200  0.867700  0.019000  1
  C  C1353  1  0.367700  0.034800  0.981000  1
  C  C1354  1  0.132300  0.465200  0.981000  1
  C  C1355  1  0.465200  0.367700  0.981000  1
  C  C1356  1  0.034800  0.132300  0.981000  1
  C  C1357  1  0.623200  0.022600  0.035100  1
  C  C1358  1  0.876800  0.477400  0.035100  1
  C  C1359  1  0.477400  0.623200  0.035100  1
  C  C1360  1  0.022600  0.876800  0.035100  1
  C  C1361  1  0.376800  0.977400  0.964900  1
  C  C1362  1  0.123200  0.522600  0.964900  1
  C  C1363  1  0.522600  0.376800  0.964900  1
  C  C1364  1  0.977400  0.123200  0.964900  1
  C  C1365  1  0.565100  0.041300  0.045400  1
  C  C1366  1  0.934900  0.458700  0.045400  1
  C  C1367  1  0.458700  0.565100  0.045400  1
  C  C1368  1  0.041300  0.934900  0.045400  1
  C  C1369  1  0.434900  0.958700  0.954600  1
  C  C1370  1  0.065100  0.541300  0.954600  1
  C  C1371  1  0.541300  0.434900  0.954600  1
  C  C1372  1  0.958700  0.065100  0.954600  1
  C  C1373  1  0.516100  0.002700  0.039600  1
  C  C1374  1  0.983900  0.497300  0.039600  1
  C  C1375  1  0.497300  0.516100  0.039600  1
  C  C1376  1  0.002700  0.983900  0.039600  1
  C  C1377  1  0.483900  0.997300  0.960400  1
  C  C1378  1  0.016100  0.502700  0.960400  1
  C  C1379  1  0.502700  0.483900  0.960400  1
  C  C1380  1  0.997300  0.016100  0.960400  1
  C  C1381  1  0.525200  0.945400  0.023500  1
  C  C1382  1  0.974800  0.554600  0.023500  1
  C  C1383  1  0.554600  0.525200  0.023500  1
  C  C1384  1  0.945400  0.974800  0.023500  1
  C  C1385  1  0.474800  0.054600  0.976500  1
  C  C1386  1  0.025200  0.445400  0.976500  1
  C  C1387  1  0.445400  0.474800  0.976500  1
  C  C1388  1  0.054600  0.025200  0.976500  1
  C  C1389  1  0.583200  0.926600  0.013200  1
  C  C1390  1  0.916800  0.573400  0.013200  1
  C  C1391  1  0.573400  0.583200  0.013200  1
  C  C1392  1  0.926600  0.916800  0.013200  1
  C  C1393  1  0.416800  0.073400  0.986800  1
  C  C1394  1  0.083200  0.426600  0.986800  1
  C  C1395  1  0.426600  0.416800  0.986800  1
  C  C1396  1  0.073400  0.083200  0.986800  1
  C  C1397  1  0.943800  0.017000  0.374600  1
  C  C1398  1  0.556200  0.483000  0.374600  1
  C  C1399  1  0.483000  0.943800  0.374600  1
  C  C1400  1  0.017000  0.556200  0.374600  1
  C  C1401  1  0.056200  0.983000  0.625400  1
  C  C1402  1  0.443800  0.517000  0.625400  1
  C  C1403  1  0.517000  0.056200  0.625400  1
  C  C1404  1  0.983000  0.443800  0.625400  1
  C  C1405  1  0.916000  0.999000  0.409900  1
  C  C1406  1  0.584000  0.501000  0.409900  1
  C  C1407  1  0.501000  0.916000  0.409900  1
  C  C1408  1  0.999000  0.584000  0.409900  1
  C  C1409  1  0.084000  0.001000  0.590100  1
  C  C1410  1  0.416000  0.499000  0.590100  1
  C  C1411  1  0.499000  0.084000  0.590100  1
  C  C1412  1  0.001000  0.416000  0.590100  1
  C  C1413  1  0.858000  0.974000  0.409200  1
  C  C1414  1  0.642000  0.526000  0.409200  1
  C  C1415  1  0.526000  0.858000  0.409200  1
  C  C1416  1  0.974000  0.642000  0.409200  1
  C  C1417  1  0.142000  0.026000  0.590800  1
  C  C1418  1  0.358000  0.474000  0.590800  1
  C  C1419  1  0.474000  0.142000  0.590800  1
  C  C1420  1  0.026000  0.358000  0.590800  1
  C  C1421  1  0.827700  0.968000  0.373200  1
  C  C1422  1  0.672300  0.532000  0.373200  1
  C  C1423  1  0.532000  0.827700  0.373200  1
  C  C1424  1  0.968000  0.672300  0.373200  1
  C  C1425  1  0.172300  0.032000  0.626800  1
  C  C1426  1  0.327700  0.468000  0.626800  1
  C  C1427  1  0.468000  0.172300  0.626800  1
  C  C1428  1  0.032000  0.327700  0.626800  1
  C  C1429  1  0.855000  0.987000  0.337800  1
  C  C1430  1  0.645000  0.513000  0.337800  1
  C  C1431  1  0.513000  0.855000  0.337800  1
  C  C1432  1  0.987000  0.645000  0.337800  1
  C  C1433  1  0.145000  0.013000  0.662200  1
  C  C1434  1  0.355000  0.487000  0.662200  1
  C  C1435  1  0.487000  0.145000  0.662200  1
  C  C1436  1  0.013000  0.355000  0.662200  1
  C  C1437  1  0.913000  0.011000  0.338500  1
  C  C1438  1  0.587000  0.489000  0.338500  1
  C  C1439  1  0.489000  0.913000  0.338500  1
  C  C1440  1  0.011000  0.587000  0.338500  1
  C  C1441  1  0.087000  0.989000  0.661500  1
  C  C1442  1  0.413000  0.511000  0.661500  1
  C  C1443  1  0.511000  0.087000  0.661500  1
  C  C1444  1  0.989000  0.413000  0.661500  1
  C  C1445  1  0.811900  0.983100  0.869800  1.0
  C  C1446  1  0.688100  0.516900  0.869800  1.0
  C  C1447  1  0.516900  0.811900  0.869800  1.0
  C  C1448  1  0.983100  0.688100  0.869800  1.0
  C  C1449  1  0.188100  0.016900  0.130200  1.0
  C  C1450  1  0.311900  0.483100  0.130200  1.0
  C  C1451  1  0.483100  0.188100  0.130200  1.0
  C  C1452  1  0.016900  0.311900  0.130200  1.0
  C  C1453  1  0.813700  0.016700  0.832600  1.0
  C  C1454  1  0.686300  0.483300  0.832600  1.0
  C  C1455  1  0.483300  0.813700  0.832600  1.0
  C  C1456  1  0.016700  0.686300  0.832600  1.0
  C  C1457  1  0.186300  0.983300  0.167400  1.0
  C  C1458  1  0.313700  0.516700  0.167400  1.0
  C  C1459  1  0.516700  0.186300  0.167400  1.0
  C  C1460  1  0.983300  0.313700  0.167400  1.0
  C  C1461  1  0.812100  0.080800  0.831700  1.0
  C  C1462  1  0.687900  0.419200  0.831700  1.0
  C  C1463  1  0.419200  0.812100  0.831700  1.0
  C  C1464  1  0.080800  0.687900  0.831700  1.0
  C  C1465  1  0.187900  0.919200  0.168300  1.0
  C  C1466  1  0.312100  0.580800  0.168300  1.0
  C  C1467  1  0.580800  0.187900  0.168300  1.0
  C  C1468  1  0.919200  0.312100  0.168300  1.0
  C  C1469  1  0.813700  0.109800  0.795100  1.0
  C  C1470  1  0.686300  0.390200  0.795100  1.0
  C  C1471  1  0.390200  0.813700  0.795100  1.0
  C  C1472  1  0.109800  0.686300  0.795100  1.0
  C  C1473  1  0.186300  0.890200  0.204900  1.0
  C  C1474  1  0.313700  0.609800  0.204900  1.0
  C  C1475  1  0.609800  0.186300  0.204900  1.0
  C  C1476  1  0.890200  0.313700  0.204900  1.0
  C  C1477  1  0.816000  0.079400  0.760200  1.0
  C  C1478  1  0.684000  0.420600  0.760200  1.0
  C  C1479  1  0.420600  0.816000  0.760200  1.0
  C  C1480  1  0.079400  0.684000  0.760200  1.0
  C  C1481  1  0.184000  0.920600  0.239800  1.0
  C  C1482  1  0.316000  0.579400  0.239800  1.0
  C  C1483  1  0.579400  0.184000  0.239800  1.0
  C  C1484  1  0.920600  0.316000  0.239800  1.0
  C  C1485  1  0.817700  0.014900  0.760100  1.0
  C  C1486  1  0.682300  0.485100  0.760100  1.0
  C  C1487  1  0.485100  0.817700  0.760100  1.0
  C  C1488  1  0.014900  0.682300  0.760100  1.0
  C  C1489  1  0.182300  0.985100  0.239900  1.0
  C  C1490  1  0.317700  0.514900  0.239900  1.0
  C  C1491  1  0.514900  0.182300  0.239900  1.0
  C  C1492  1  0.985100  0.317700  0.239900  1.0
  C  C1493  1  0.817200  0.984900  0.796300  1.0
  C  C1494  1  0.682800  0.515100  0.796300  1.0
  C  C1495  1  0.515100  0.817200  0.796300  1.0
  C  C1496  1  0.984900  0.682800  0.796300  1.0
  C  C1497  1  0.182800  0.015100  0.203700  1.0
  C  C1498  1  0.317200  0.484900  0.203700  1.0
  C  C1499  1  0.484900  0.182800  0.203700  1.0
  C  C1500  1  0.015100  0.317200  0.203700  1.0
  C  C1501  1  0.816900  0.982600  0.722800  1.0
  C  C1502  1  0.683100  0.517400  0.722800  1.0
  C  C1503  1  0.517400  0.816900  0.722800  1.0
  C  C1504  1  0.982600  0.683100  0.722800  1.0
  C  C1505  1  0.183100  0.017400  0.277200  1.0
  C  C1506  1  0.316900  0.482600  0.277200  1.0
  C  C1507  1  0.482600  0.183100  0.277200  1.0
  C  C1508  1  0.017400  0.316900  0.277200  1.0
  C  C1509  1  0.814100  0.957000  0.691500  1.0
  C  C1510  1  0.685900  0.543000  0.691500  1.0
  C  C1511  1  0.543000  0.814100  0.691500  1.0
  C  C1512  1  0.957000  0.685900  0.691500  1.0
  C  C1513  1  0.185900  0.043000  0.308500  1.0
  C  C1514  1  0.314100  0.457000  0.308500  1.0
  C  C1515  1  0.457000  0.185900  0.308500  1.0
  C  C1516  1  0.043000  0.314100  0.308500  1.0
  C  C1517  1  0.806500  0.927000  0.653900  1.0
  C  C1518  1  0.693500  0.573000  0.653900  1.0
  C  C1519  1  0.573000  0.806500  0.653900  1.0
  C  C1520  1  0.927000  0.693500  0.653900  1.0
  C  C1521  1  0.193500  0.073000  0.346100  1.0
  C  C1522  1  0.306500  0.427000  0.346100  1.0
  C  C1523  1  0.427000  0.193500  0.346100  1.0
  C  C1524  1  0.073000  0.306500  0.346100  1.0
  C  C1525  1  0.787500  0.866400  0.653000  1.0
  C  C1526  1  0.712500  0.633600  0.653000  1.0
  C  C1527  1  0.633600  0.787500  0.653000  1.0
  C  C1528  1  0.866400  0.712500  0.653000  1.0
  C  C1529  1  0.212500  0.133600  0.347000  1.0
  C  C1530  1  0.287500  0.366400  0.347000  1.0
  C  C1531  1  0.366400  0.212500  0.347000  1.0
  C  C1532  1  0.133600  0.287500  0.347000  1.0
  C  C1533  1  0.812700  0.956400  0.618000  1.0
  C  C1534  1  0.687300  0.543600  0.618000  1.0
  C  C1535  1  0.543600  0.812700  0.618000  1.0
  C  C1536  1  0.956400  0.687300  0.618000  1.0
  C  C1537  1  0.187300  0.043600  0.382000  1.0
  C  C1538  1  0.312700  0.456400  0.382000  1.0
  C  C1539  1  0.456400  0.187300  0.382000  1.0
  C  C1540  1  0.043600  0.312700  0.382000  1.0
  C  C1541  1  0.803000  0.926900  0.582100  1.0
  C  C1542  1  0.697000  0.573100  0.582100  1.0
  C  C1543  1  0.573100  0.803000  0.582100  1.0
  C  C1544  1  0.926900  0.697000  0.582100  1.0
  C  C1545  1  0.197000  0.073100  0.417900  1.0
  C  C1546  1  0.303000  0.426900  0.417900  1.0
  C  C1547  1  0.426900  0.197000  0.417900  1.0
  C  C1548  1  0.073100  0.303000  0.417900  1.0
  C  C1549  1  0.785700  0.867000  0.583200  1.0
  C  C1550  1  0.714300  0.633000  0.583200  1.0
  C  C1551  1  0.633000  0.785700  0.583200  1.0
  C  C1552  1  0.867000  0.714300  0.583200  1.0
  C  C1553  1  0.214300  0.133000  0.416800  1.0
  C  C1554  1  0.285700  0.367000  0.416800  1.0
  C  C1555  1  0.367000  0.214300  0.416800  1.0
  C  C1556  1  0.133000  0.285700  0.416800  1.0
  C  C1557  1  0.807700  0.019100  0.905900  1.0
  C  C1558  1  0.692300  0.480900  0.905900  1.0
  C  C1559  1  0.480900  0.807700  0.905900  1.0
  C  C1560  1  0.019100  0.692300  0.905900  1.0
  C  C1561  1  0.192300  0.980900  0.094100  1.0
  C  C1562  1  0.307700  0.519100  0.094100  1.0
  C  C1563  1  0.519100  0.192300  0.094100  1.0
  C  C1564  1  0.980900  0.307700  0.094100  1.0
  C  C1565  1  0.808000  0.082400  0.904100  1.0
  C  C1566  1  0.692000  0.417600  0.904100  1.0
  C  C1567  1  0.417600  0.808000  0.904100  1.0
  C  C1568  1  0.082400  0.692000  0.904100  1.0
  C  C1569  1  0.192000  0.917600  0.095900  1.0
  C  C1570  1  0.308000  0.582400  0.095900  1.0
  C  C1571  1  0.582400  0.192000  0.095900  1.0
  C  C1572  1  0.917600  0.308000  0.095900  1.0
  C  C1573  1  0.805400  0.114600  0.940500  1.0
  C  C1574  1  0.694600  0.385400  0.940500  1.0
  C  C1575  1  0.385400  0.805400  0.940500  1.0
  C  C1576  1  0.114600  0.694600  0.940500  1.0
  C  C1577  1  0.194600  0.885400  0.059500  1.0
  C  C1578  1  0.305400  0.614600  0.059500  1.0
  C  C1579  1  0.614600  0.194600  0.059500  1.0
  C  C1580  1  0.885400  0.305400  0.059500  1.0
  C  C1581  1  0.799400  0.084900  0.975400  1.0
  C  C1582  1  0.700600  0.415100  0.975400  1.0
  C  C1583  1  0.415100  0.799400  0.975400  1.0
  C  C1584  1  0.084900  0.700600  0.975400  1.0
  C  C1585  1  0.200600  0.915100  0.024600  1.0
  C  C1586  1  0.299400  0.584900  0.024600  1.0
  C  C1587  1  0.584900  0.200600  0.024600  1.0
  C  C1588  1  0.915100  0.299400  0.024600  1.0
  C  C1589  1  0.799500  0.021100  0.977800  1.0
  C  C1590  1  0.700500  0.478900  0.977800  1.0
  C  C1591  1  0.478900  0.799500  0.977800  1.0
  C  C1592  1  0.021100  0.700500  0.977800  1.0
  C  C1593  1  0.200500  0.978900  0.022200  1.0
  C  C1594  1  0.299500  0.521100  0.022200  1.0
  C  C1595  1  0.521100  0.200500  0.022200  1.0
  C  C1596  1  0.978900  0.299500  0.022200  1.0
  C  C1597  1  0.803900  0.989300  0.942300  1.0
  C  C1598  1  0.696100  0.510700  0.942300  1.0
  C  C1599  1  0.510700  0.803900  0.942300  1.0
  C  C1600  1  0.989300  0.696100  0.942300  1.0
  C  C1601  1  0.196100  0.010700  0.057700  1.0
  C  C1602  1  0.303900  0.489300  0.057700  1.0
  C  C1603  1  0.489300  0.196100  0.057700  1.0
  C  C1604  1  0.010700  0.303900  0.057700  1.0
  C  C1605  1  0.793500  0.990800  0.015900  1.0
  C  C1606  1  0.706500  0.509200  0.015900  1.0
  C  C1607  1  0.509200  0.793500  0.015900  1.0
  C  C1608  1  0.990800  0.706500  0.015900  1.0
  C  C1609  1  0.206500  0.009200  0.984100  1.0
  C  C1610  1  0.293500  0.490800  0.984100  1.0
  C  C1611  1  0.490800  0.206500  0.984100  1.0
  C  C1612  1  0.009200  0.293500  0.984100  1.0
  C  C1613  1  0.782900  0.964800  0.046600  1.0
  C  C1614  1  0.717100  0.535200  0.046600  1.0
  C  C1615  1  0.535200  0.782900  0.046600  1.0
  C  C1616  1  0.964800  0.717100  0.046600  1.0
  C  C1617  1  0.217100  0.035200  0.953400  1.0
  C  C1618  1  0.282900  0.464800  0.953400  1.0
  C  C1619  1  0.464800  0.217100  0.953400  1.0
  C  C1620  1  0.035200  0.282900  0.953400  1.0
  C  C1621  1  0.770700  0.934800  0.083600  1.0
  C  C1622  1  0.729300  0.565200  0.083600  1.0
  C  C1623  1  0.565200  0.770700  0.083600  1.0
  C  C1624  1  0.934800  0.729300  0.083600  1.0
  C  C1625  1  0.229300  0.065200  0.916400  1.0
  C  C1626  1  0.270700  0.434800  0.916400  1.0
  C  C1627  1  0.434800  0.229300  0.916400  1.0
  C  C1628  1  0.065200  0.270700  0.916400  1.0
  C  C1629  1  0.769100  0.871700  0.085500  1.0
  C  C1630  1  0.730900  0.628300  0.085500  1.0
  C  C1631  1  0.628300  0.769100  0.085500  1.0
  C  C1632  1  0.871700  0.730900  0.085500  1.0
  C  C1633  1  0.230900  0.128300  0.914500  1.0
  C  C1634  1  0.269100  0.371700  0.914500  1.0
  C  C1635  1  0.371700  0.230900  0.914500  1.0
  C  C1636  1  0.128300  0.269100  0.914500  1.0
  C  C1637  1  0.760000  0.964600  0.119000  1.0
  C  C1638  1  0.740000  0.535400  0.119000  1.0
  C  C1639  1  0.535400  0.760000  0.119000  1.0
  C  C1640  1  0.964600  0.740000  0.119000  1.0
  C  C1641  1  0.240000  0.035400  0.881000  1.0
  C  C1642  1  0.260000  0.464600  0.881000  1.0
  C  C1643  1  0.464600  0.240000  0.881000  1.0
  C  C1644  1  0.035400  0.260000  0.881000  1.0
  C  C1645  1  0.746700  0.935400  0.154000  1.0
  C  C1646  1  0.753300  0.564600  0.154000  1.0
  C  C1647  1  0.564600  0.746700  0.154000  1.0
  C  C1648  1  0.935400  0.753300  0.154000  1.0
  C  C1649  1  0.253300  0.064600  0.846000  1.0
  C  C1650  1  0.246700  0.435400  0.846000  1.0
  C  C1651  1  0.435400  0.253300  0.846000  1.0
  C  C1652  1  0.064600  0.246700  0.846000  1.0
  C  C1653  1  0.744800  0.872600  0.152700  1.0
  C  C1654  1  0.755200  0.627400  0.152700  1.0
  C  C1655  1  0.627400  0.744800  0.152700  1.0
  C  C1656  1  0.872600  0.755200  0.152700  1.0
  C  C1657  1  0.255200  0.127400  0.847300  1.0
  C  C1658  1  0.244800  0.372600  0.847300  1.0
  C  C1659  1  0.372600  0.255200  0.847300  1.0
  C  C1660  1  0.127400  0.244800  0.847300  1.0
  C  C1661  1  0.807700  0.180800  0.865100  1.0
  C  C1662  1  0.692300  0.319200  0.865100  1.0
  C  C1663  1  0.319200  0.807700  0.865100  1.0
  C  C1664  1  0.180800  0.692300  0.865100  1.0
  C  C1665  1  0.192300  0.819200  0.134900  1.0
  C  C1666  1  0.307700  0.680800  0.134900  1.0
  C  C1667  1  0.680800  0.192300  0.134900  1.0
  C  C1668  1  0.819200  0.307700  0.134900  1.0
  C  C1669  1  0.870100  0.206200  0.861800  1.0
  C  C1670  1  0.629900  0.293800  0.861800  1.0
  C  C1671  1  0.293800  0.870100  0.861800  1.0
  C  C1672  1  0.206200  0.629900  0.861800  1.0
  C  C1673  1  0.129900  0.793800  0.138200  1.0
  C  C1674  1  0.370100  0.706200  0.138200  1.0
  C  C1675  1  0.706200  0.129900  0.138200  1.0
  C  C1676  1  0.793800  0.370100  0.138200  1.0
  C  C1677  1  0.869200  0.276900  0.856700  1.0
  C  C1678  1  0.630800  0.223100  0.856700  1.0
  C  C1679  1  0.223100  0.869200  0.856700  1.0
  C  C1680  1  0.276900  0.630800  0.856700  1.0
  C  C1681  1  0.130800  0.723100  0.143300  1.0
  C  C1682  1  0.369200  0.776900  0.143300  1.0
  C  C1683  1  0.776900  0.130800  0.143300  1.0
  C  C1684  1  0.723100  0.369200  0.143300  1.0
  C  C1685  1  0.865200  0.308500  0.894200  1.0
  C  C1686  1  0.634800  0.191500  0.894200  1.0
  C  C1687  1  0.191500  0.865200  0.894200  1.0
  C  C1688  1  0.308500  0.634800  0.894200  1.0
  C  C1689  1  0.134800  0.691500  0.105800  1.0
  C  C1690  1  0.365200  0.808500  0.105800  1.0
  C  C1691  1  0.808500  0.134800  0.105800  1.0
  C  C1692  1  0.691500  0.365200  0.105800  1.0
  C  C1693  1  0.867800  0.377400  0.891700  1.0
  C  C1694  1  0.632200  0.122600  0.891700  1.0
  C  C1695  1  0.122600  0.867800  0.891700  1.0
  C  C1696  1  0.377400  0.632200  0.891700  1.0
  C  C1697  1  0.132200  0.622600  0.108300  1.0
  C  C1698  1  0.367800  0.877400  0.108300  1.0
  C  C1699  1  0.877400  0.132200  0.108300  1.0
  C  C1700  1  0.622600  0.367800  0.108300  1.0
  C  C1701  1  0.865700  0.407000  0.930500  1.0
  C  C1702  1  0.634300  0.093000  0.930500  1.0
  C  C1703  1  0.093000  0.865700  0.930500  1.0
  C  C1704  1  0.407000  0.634300  0.930500  1.0
  C  C1705  1  0.134300  0.593000  0.069500  1.0
  C  C1706  1  0.365700  0.907000  0.069500  1.0
  C  C1707  1  0.907000  0.134300  0.069500  1.0
  C  C1708  1  0.593000  0.365700  0.069500  1.0
  C  C1709  1  0.972200  0.838600  0.619800  1.0
  C  C1710  1  0.527800  0.661400  0.619800  1.0
  C  C1711  1  0.661400  0.972200  0.619800  1.0
  C  C1712  1  0.838600  0.527800  0.619800  1.0
  C  C1713  1  0.027800  0.161400  0.380200  1.0
  C  C1714  1  0.472200  0.338600  0.380200  1.0
  C  C1715  1  0.338600  0.027800  0.380200  1.0
  C  C1716  1  0.161400  0.472200  0.380200  1.0
  C  C1717  1  0.007100  0.832000  0.583400  1.0
  C  C1718  1  0.492900  0.668000  0.583400  1.0
  C  C1719  1  0.668000  0.007100  0.583400  1.0
  C  C1720  1  0.832000  0.492900  0.583400  1.0
  C  C1721  1  0.992900  0.168000  0.416600  1.0
  C  C1722  1  0.507100  0.332000  0.416600  1.0
  C  C1723  1  0.332000  0.992900  0.416600  1.0
  C  C1724  1  0.168000  0.507100  0.416600  1.0
  C  C1725  1  0.070300  0.823200  0.584100  1.0
  C  C1726  1  0.429700  0.676800  0.584100  1.0
  C  C1727  1  0.676800  0.070300  0.584100  1.0
  C  C1728  1  0.823200  0.429700  0.584100  1.0
  C  C1729  1  0.929700  0.176800  0.415900  1.0
  C  C1730  1  0.570300  0.323200  0.415900  1.0
  C  C1731  1  0.323200  0.929700  0.415900  1.0
  C  C1732  1  0.176800  0.570300  0.415900  1.0
  C  C1733  1  0.101400  0.816800  0.548300  1.0
  C  C1734  1  0.398600  0.683200  0.548300  1.0
  C  C1735  1  0.683200  0.101400  0.548300  1.0
  C  C1736  1  0.816800  0.398600  0.548300  1.0
  C  C1737  1  0.898600  0.183200  0.451700  1.0
  C  C1738  1  0.601400  0.316800  0.451700  1.0
  C  C1739  1  0.316800  0.898600  0.451700  1.0
  C  C1740  1  0.183200  0.601400  0.451700  1.0
  C  C1741  1  0.071900  0.819900  0.513400  1.0
  C  C1742  1  0.428100  0.680100  0.513400  1.0
  C  C1743  1  0.680100  0.071900  0.513400  1.0
  C  C1744  1  0.819900  0.428100  0.513400  1.0
  C  C1745  1  0.928100  0.180100  0.486600  1.0
  C  C1746  1  0.571900  0.319900  0.486600  1.0
  C  C1747  1  0.319900  0.928100  0.486600  1.0
  C  C1748  1  0.180100  0.571900  0.486600  1.0
  C  C1749  1  0.008700  0.827200  0.511200  1.0
  C  C1750  1  0.491300  0.672800  0.511200  1.0
  C  C1751  1  0.672800  0.008700  0.511200  1.0
  C  C1752  1  0.827200  0.491300  0.511200  1.0
  C  C1753  1  0.991300  0.172800  0.488800  1.0
  C  C1754  1  0.508700  0.327200  0.488800  1.0
  C  C1755  1  0.327200  0.991300  0.488800  1.0
  C  C1756  1  0.172800  0.508700  0.488800  1.0
  C  C1757  1  0.977600  0.834800  0.546600  1.0
  C  C1758  1  0.522400  0.665200  0.546600  1.0
  C  C1759  1  0.665200  0.977600  0.546600  1.0
  C  C1760  1  0.834800  0.522400  0.546600  1.0
  C  C1761  1  0.022400  0.165200  0.453400  1.0
  C  C1762  1  0.477600  0.334800  0.453400  1.0
  C  C1763  1  0.334800  0.022400  0.453400  1.0
  C  C1764  1  0.165200  0.477600  0.453400  1.0
  C  C1765  1  0.976900  0.828600  0.473700  1.0
  C  C1766  1  0.523100  0.671400  0.473700  1.0
  C  C1767  1  0.671400  0.976900  0.473700  1.0
  C  C1768  1  0.828600  0.523100  0.473700  1.0
  C  C1769  1  0.023100  0.171400  0.526300  1.0
  C  C1770  1  0.476900  0.328600  0.526300  1.0
  C  C1771  1  0.328600  0.023100  0.526300  1.0
  C  C1772  1  0.171400  0.476900  0.526300  1.0
  C  C1773  1  0.952700  0.829000  0.442300  1.0
  C  C1774  1  0.547300  0.671000  0.442300  1.0
  C  C1775  1  0.671000  0.952700  0.442300  1.0
  C  C1776  1  0.829000  0.547300  0.442300  1.0
  C  C1777  1  0.047300  0.171000  0.557700  1.0
  C  C1778  1  0.452700  0.329000  0.557700  1.0
  C  C1779  1  0.329000  0.047300  0.557700  1.0
  C  C1780  1  0.171000  0.452700  0.557700  1.0
  C  C1781  1  0.918600  0.828800  0.406000  1.0
  C  C1782  1  0.581400  0.671200  0.406000  1.0
  C  C1783  1  0.671200  0.918600  0.406000  1.0
  C  C1784  1  0.828800  0.581400  0.406000  1.0
  C  C1785  1  0.081400  0.171200  0.594000  1.0
  C  C1786  1  0.418600  0.328800  0.594000  1.0
  C  C1787  1  0.328800  0.081400  0.594000  1.0
  C  C1788  1  0.171200  0.418600  0.594000  1.0
  C  C1789  1  0.864100  0.798000  0.404000  1.0
  C  C1790  1  0.635900  0.702000  0.404000  1.0
  C  C1791  1  0.702000  0.864100  0.404000  1.0
  C  C1792  1  0.798000  0.635900  0.404000  1.0
  C  C1793  1  0.135900  0.202000  0.596000  1.0
  C  C1794  1  0.364100  0.298000  0.596000  1.0
  C  C1795  1  0.298000  0.135900  0.596000  1.0
  C  C1796  1  0.202000  0.364100  0.596000  1.0
  C  C1797  1  0.939000  0.854100  0.371000  1.0
  C  C1798  1  0.561000  0.645900  0.371000  1.0
  C  C1799  1  0.645900  0.939000  0.371000  1.0
  C  C1800  1  0.854100  0.561000  0.371000  1.0
  C  C1801  1  0.061000  0.145900  0.629000  1.0
  C  C1802  1  0.439000  0.354100  0.629000  1.0
  C  C1803  1  0.354100  0.061000  0.629000  1.0
  C  C1804  1  0.145900  0.439000  0.629000  1.0
  C  C1805  1  0.904600  0.851700  0.336900  1.0
  C  C1806  1  0.595400  0.648300  0.336900  1.0
  C  C1807  1  0.648300  0.904600  0.336900  1.0
  C  C1808  1  0.851700  0.595400  0.336900  1.0
  C  C1809  1  0.095400  0.148300  0.663100  1.0
  C  C1810  1  0.404600  0.351700  0.663100  1.0
  C  C1811  1  0.351700  0.095400  0.663100  1.0
  C  C1812  1  0.148300  0.404600  0.663100  1.0
  C  C1813  1  0.849000  0.821900  0.337900  1.0
  C  C1814  1  0.651000  0.678100  0.337900  1.0
  C  C1815  1  0.678100  0.849000  0.337900  1.0
  C  C1816  1  0.821900  0.651000  0.337900  1.0
  C  C1817  1  0.151000  0.178100  0.662100  1.0
  C  C1818  1  0.349000  0.321900  0.662100  1.0
  C  C1819  1  0.321900  0.151000  0.662100  1.0
  C  C1820  1  0.178100  0.349000  0.662100  1.0
  C  C1821  1  0.005700  0.835700  0.657100  1.0
  C  C1822  1  0.494300  0.664300  0.657100  1.0
  C  C1823  1  0.664300  0.005700  0.657100  1.0
  C  C1824  1  0.835700  0.494300  0.657100  1.0
  C  C1825  1  0.994300  0.164300  0.342900  1.0
  C  C1826  1  0.505700  0.335700  0.342900  1.0
  C  C1827  1  0.335700  0.994300  0.342900  1.0
  C  C1828  1  0.164300  0.505700  0.342900  1.0
  C  C1829  1  0.069200  0.826700  0.657400  1.0
  C  C1830  1  0.430800  0.673300  0.657400  1.0
  C  C1831  1  0.673300  0.069200  0.657400  1.0
  C  C1832  1  0.826700  0.430800  0.657400  1.0
  C  C1833  1  0.930800  0.173300  0.342600  1.0
  C  C1834  1  0.569200  0.326700  0.342600  1.0
  C  C1835  1  0.326700  0.930800  0.342600  1.0
  C  C1836  1  0.173300  0.569200  0.342600  1.0
  C  C1837  1  0.098500  0.825200  0.694000  1.0
  C  C1838  1  0.401500  0.674800  0.694000  1.0
  C  C1839  1  0.674800  0.098500  0.694000  1.0
  C  C1840  1  0.825200  0.401500  0.694000  1.0
  C  C1841  1  0.901500  0.174800  0.306000  1.0
  C  C1842  1  0.598500  0.325200  0.306000  1.0
  C  C1843  1  0.325200  0.901500  0.306000  1.0
  C  C1844  1  0.174800  0.598500  0.306000  1.0
  C  C1845  1  0.068500  0.830800  0.729100  1.0
  C  C1846  1  0.431500  0.669200  0.729100  1.0
  C  C1847  1  0.669200  0.068500  0.729100  1.0
  C  C1848  1  0.830800  0.431500  0.729100  1.0
  C  C1849  1  0.931500  0.169200  0.270900  1.0
  C  C1850  1  0.568500  0.330800  0.270900  1.0
  C  C1851  1  0.330800  0.931500  0.270900  1.0
  C  C1852  1  0.169200  0.568500  0.270900  1.0
  C  C1853  1  0.004700  0.837600  0.729600  1.0
  C  C1854  1  0.495300  0.662400  0.729600  1.0
  C  C1855  1  0.662400  0.004700  0.729600  1.0
  C  C1856  1  0.837600  0.495300  0.729600  1.0
  C  C1857  1  0.995300  0.162400  0.270400  1.0
  C  C1858  1  0.504700  0.337600  0.270400  1.0
  C  C1859  1  0.337600  0.995300  0.270400  1.0
  C  C1860  1  0.162400  0.504700  0.270400  1.0
  C  C1861  1  0.975300  0.840300  0.693700  1.0
  C  C1862  1  0.524700  0.659700  0.693700  1.0
  C  C1863  1  0.659700  0.975300  0.693700  1.0
  C  C1864  1  0.840300  0.524700  0.693700  1.0
  C  C1865  1  0.024700  0.159700  0.306300  1.0
  C  C1866  1  0.475300  0.340300  0.306300  1.0
  C  C1867  1  0.340300  0.024700  0.306300  1.0
  C  C1868  1  0.159700  0.475300  0.306300  1.0
  C  C1869  1  0.973400  0.838900  0.767100  1.0
  C  C1870  1  0.526600  0.661100  0.767100  1.0
  C  C1871  1  0.661100  0.973400  0.767100  1.0
  C  C1872  1  0.838900  0.526600  0.767100  1.0
  C  C1873  1  0.026600  0.161100  0.232900  1.0
  C  C1874  1  0.473400  0.338900  0.232900  1.0
  C  C1875  1  0.338900  0.026600  0.232900  1.0
  C  C1876  1  0.161100  0.473400  0.232900  1.0
  C  C1877  1  0.947900  0.835800  0.798600  1.0
  C  C1878  1  0.552100  0.664200  0.798600  1.0
  C  C1879  1  0.664200  0.947900  0.798600  1.0
  C  C1880  1  0.835800  0.552100  0.798600  1.0
  C  C1881  1  0.052100  0.164200  0.201400  1.0
  C  C1882  1  0.447900  0.335800  0.201400  1.0
  C  C1883  1  0.335800  0.052100  0.201400  1.0
  C  C1884  1  0.164200  0.447900  0.201400  1.0
  C  C1885  1  0.917900  0.827700  0.836200  1.0
  C  C1886  1  0.582100  0.672300  0.836200  1.0
  C  C1887  1  0.672300  0.917900  0.836200  1.0
  C  C1888  1  0.827700  0.582100  0.836200  1.0
  C  C1889  1  0.082100  0.172300  0.163800  1.0
  C  C1890  1  0.417900  0.327700  0.163800  1.0
  C  C1891  1  0.327700  0.082100  0.163800  1.0
  C  C1892  1  0.172300  0.417900  0.163800  1.0
  C  C1893  1  0.860800  0.800800  0.837900  1.0
  C  C1894  1  0.639200  0.699200  0.837900  1.0
  C  C1895  1  0.699200  0.860800  0.837900  1.0
  C  C1896  1  0.800800  0.639200  0.837900  1.0
  C  C1897  1  0.139200  0.199200  0.162100  1.0
  C  C1898  1  0.360800  0.300800  0.162100  1.0
  C  C1899  1  0.300800  0.139200  0.162100  1.0
  C  C1900  1  0.199200  0.360800  0.162100  1.0
  C  C1901  1  0.945100  0.841200  0.872500  1.0
  C  C1902  1  0.554900  0.658800  0.872500  1.0
  C  C1903  1  0.658800  0.945100  0.872500  1.0
  C  C1904  1  0.841200  0.554900  0.872500  1.0
  C  C1905  1  0.054900  0.158800  0.127500  1.0
  C  C1906  1  0.445100  0.341200  0.127500  1.0
  C  C1907  1  0.341200  0.054900  0.127500  1.0
  C  C1908  1  0.158800  0.445100  0.127500  1.0
  C  C1909  1  0.915400  0.832300  0.907700  1.0
  C  C1910  1  0.584600  0.667700  0.907700  1.0
  C  C1911  1  0.667700  0.915400  0.907700  1.0
  C  C1912  1  0.832300  0.584600  0.907700  1.0
  C  C1913  1  0.084600  0.167700  0.092300  1.0
  C  C1914  1  0.415400  0.332300  0.092300  1.0
  C  C1915  1  0.332300  0.084600  0.092300  1.0
  C  C1916  1  0.167700  0.415400  0.092300  1.0
  C  C1917  1  0.858700  0.805700  0.906900  1.0
  C  C1918  1  0.641300  0.694300  0.906900  1.0
  C  C1919  1  0.694300  0.858700  0.906900  1.0
  C  C1920  1  0.805700  0.641300  0.906900  1.0
  C  C1921  1  0.141300  0.194300  0.093100  1.0
  C  C1922  1  0.358700  0.305700  0.093100  1.0
  C  C1923  1  0.305700  0.141300  0.093100  1.0
  C  C1924  1  0.194300  0.358700  0.093100  1.0
  C  C1925  1  0.164400  0.803500  0.622900  1.0
  C  C1926  1  0.335600  0.696500  0.622900  1.0
  C  C1927  1  0.696500  0.164400  0.622900  1.0
  C  C1928  1  0.803500  0.335600  0.622900  1.0
  C  C1929  1  0.835600  0.196500  0.377100  1.0
  C  C1930  1  0.664400  0.303500  0.377100  1.0
  C  C1931  1  0.303500  0.835600  0.377100  1.0
  C  C1932  1  0.196500  0.664400  0.377100  1.0
  C  C1933  1  0.200900  0.860800  0.622000  1.0
  C  C1934  1  0.299100  0.639200  0.622000  1.0
  C  C1935  1  0.639200  0.200900  0.622000  1.0
  C  C1936  1  0.860800  0.299100  0.622000  1.0
  C  C1937  1  0.799100  0.139200  0.378000  1.0
  C  C1938  1  0.700900  0.360800  0.378000  1.0
  C  C1939  1  0.360800  0.799100  0.378000  1.0
  C  C1940  1  0.139200  0.700900  0.378000  1.0
  C  C1941  1  0.269800  0.845200  0.624400  1.0
  C  C1942  1  0.230200  0.654800  0.624400  1.0
  C  C1943  1  0.654800  0.269800  0.624400  1.0
  C  C1944  1  0.845200  0.230200  0.624400  1.0
  C  C1945  1  0.730200  0.154800  0.375600  1.0
  C  C1946  1  0.769800  0.345200  0.375600  1.0
  C  C1947  1  0.345200  0.730200  0.375600  1.0
  C  C1948  1  0.154800  0.769800  0.375600  1.0
  C  C1949  1  0.305500  0.898800  0.617000  1.0
  C  C1950  1  0.194500  0.601200  0.617000  1.0
  C  C1951  1  0.601200  0.305500  0.617000  1.0
  C  C1952  1  0.898800  0.194500  0.617000  1.0
  C  C1953  1  0.694500  0.101200  0.383000  1.0
  C  C1954  1  0.805500  0.398800  0.383000  1.0
  C  C1955  1  0.398800  0.694500  0.383000  1.0
  C  C1956  1  0.101200  0.805500  0.383000  1.0
  C  C1957  1  0.373200  0.886500  0.615400  1.0
  C  C1958  1  0.126800  0.613500  0.615400  1.0
  C  C1959  1  0.613500  0.373200  0.615400  1.0
  C  C1960  1  0.886500  0.126800  0.615400  1.0
  C  C1961  1  0.626800  0.113500  0.384600  1.0
  C  C1962  1  0.873200  0.386500  0.384600  1.0
  C  C1963  1  0.386500  0.626800  0.384600  1.0
  C  C1964  1  0.113500  0.873200  0.384600  1.0
  C  C1965  1  0.384600  0.880800  0.658400  1.0
  C  C1966  1  0.115400  0.619200  0.658400  1.0
  C  C1967  1  0.619200  0.384600  0.658400  1.0
  C  C1968  1  0.880800  0.115400  0.658400  1.0
  C  C1969  1  0.615400  0.119200  0.341600  1.0
  C  C1970  1  0.884600  0.380800  0.341600  1.0
  C  C1971  1  0.380800  0.615400  0.341600  1.0
  C  C1972  1  0.119200  0.884600  0.341600  1.0
  N  N1973  1  0.808600  0.112000  0.867300  1.0
  N  N1974  1  0.691400  0.388000  0.867300  1.0
  N  N1975  1  0.388000  0.808600  0.867300  1.0
  N  N1976  1  0.112000  0.691400  0.867300  1.0
  N  N1977  1  0.191400  0.888000  0.132700  1.0
  N  N1978  1  0.308600  0.612000  0.132700  1.0
  N  N1979  1  0.612000  0.191400  0.132700  1.0
  N  N1980  1  0.888000  0.308600  0.132700  1.0
  N  N1981  1  0.777400  0.837400  0.618300  1.0
  N  N1982  1  0.722600  0.662600  0.618300  1.0
  N  N1983  1  0.662600  0.777400  0.618300  1.0
  N  N1984  1  0.837400  0.722600  0.618300  1.0
  N  N1985  1  0.222600  0.162600  0.381700  1.0
  N  N1986  1  0.277400  0.337400  0.381700  1.0
  N  N1987  1  0.337400  0.222600  0.381700  1.0
  N  N1988  1  0.162600  0.277400  0.381700  1.0
  N  N1989  1  0.757200  0.841500  0.118900  1.0
  N  N1990  1  0.742800  0.658500  0.118900  1.0
  N  N1991  1  0.658500  0.757200  0.118900  1.0
  N  N1992  1  0.841500  0.742800  0.118900  1.0
  N  N1993  1  0.242800  0.158500  0.881100  1.0
  N  N1994  1  0.257200  0.341500  0.881100  1.0
  N  N1995  1  0.341500  0.242800  0.881100  1.0
  N  N1996  1  0.158500  0.257200  0.881100  1.0
  N  N1997  1  0.098800  0.817300  0.621000  1.0
  N  N1998  1  0.401200  0.682700  0.621000  1.0
  N  N1999  1  0.682700  0.098800  0.621000  1.0
  N  N2000  1  0.817300  0.401200  0.621000  1.0
  N  N2001  1  0.901200  0.182700  0.379000  1.0
  N  N2002  1  0.598800  0.317300  0.379000  1.0
  N  N2003  1  0.317300  0.901200  0.379000  1.0
  N  N2004  1  0.182700  0.598800  0.379000  1.0
  N  N2005  1  0.830300  0.793400  0.371200  1.0
  N  N2006  1  0.669700  0.706600  0.371200  1.0
  N  N2007  1  0.706600  0.830300  0.371200  1.0
  N  N2008  1  0.793400  0.669700  0.371200  1.0
  N  N2009  1  0.169700  0.206600  0.628800  1.0
  N  N2010  1  0.330300  0.293400  0.628800  1.0
  N  N2011  1  0.293400  0.169700  0.628800  1.0
  N  N2012  1  0.206600  0.330300  0.628800  1.0
  N  N2013  1  0.832700  0.790600  0.872700  1.0
  N  N2014  1  0.667300  0.709400  0.872700  1.0
  N  N2015  1  0.709400  0.832700  0.872700  1.0
  N  N2016  1  0.790600  0.667300  0.872700  1.0
  N  N2017  1  0.167300  0.209400  0.127300  1.0
  N  N2018  1  0.332700  0.290600  0.127300  1.0
  N  N2019  1  0.290600  0.167300  0.127300  1.0
  N  N2020  1  0.209400  0.332700  0.127300  1.0
  O  O2021  1  0.815300  0.927300  0.870400  1.0
  O  O2022  1  0.684700  0.572700  0.870400  1.0
  O  O2023  1  0.572700  0.815300  0.870400  1.0
  O  O2024  1  0.927300  0.684700  0.870400  1.0
  O  O2025  1  0.184700  0.072700  0.129600  1.0
  O  O2026  1  0.315300  0.427300  0.129600  1.0
  O  O2027  1  0.427300  0.184700  0.129600  1.0
  O  O2028  1  0.072700  0.315300  0.129600  1.0
  O  O2029  1  0.916400  0.845100  0.619100  1.0
  O  O2030  1  0.583600  0.654900  0.619100  1.0
  O  O2031  1  0.654900  0.916400  0.619100  1.0
  O  O2032  1  0.845100  0.583600  0.619100  1.0
  O  O2033  1  0.083600  0.154900  0.380900  1.0
  O  O2034  1  0.416400  0.345100  0.380900  1.0
  O  O2035  1  0.345100  0.083600  0.380900  1.0
  O  O2036  1  0.154900  0.416400  0.380900  1.0
  F  F2037  1  0.739700  0.750200  0.711500  1
  F  F2038  1  0.760300  0.749800  0.711500  1
  F  F2039  1  0.749800  0.739700  0.711500  1
  F  F2040  1  0.750200  0.760300  0.711500  1
  F  F2041  1  0.260300  0.249800  0.288500  1
  F  F2042  1  0.239700  0.250200  0.288500  1
  F  F2043  1  0.250200  0.260300  0.288500  1
  F  F2044  1  0.249800  0.239700  0.288500  1
  F  F2045  1  0.755000  0.761100  0.779800  1
  F  F2046  1  0.745000  0.738900  0.779800  1
  F  F2047  1  0.738900  0.755000  0.779800  1
  F  F2048  1  0.761100  0.745000  0.779800  1
  F  F2049  1  0.245000  0.238900  0.220200  1
  F  F2050  1  0.255000  0.261100  0.220200  1
  F  F2051  1  0.261100  0.245000  0.220200  1
  F  F2052  1  0.238900  0.255000  0.220200  1
  F  F2053  1  0.724500  0.673700  0.754200  1
  F  F2054  1  0.775500  0.826300  0.754200  1
  F  F2055  1  0.826300  0.724500  0.754200  1
  F  F2056  1  0.673700  0.775500  0.754200  1
  F  F2057  1  0.275500  0.326300  0.245800  1
  F  F2058  1  0.224500  0.173700  0.245800  1
  F  F2059  1  0.173700  0.275500  0.245800  1
  F  F2060  1  0.326300  0.224500  0.245800  1
  F  F2061  1  0.815200  0.704900  0.742600  1
  F  F2062  1  0.684800  0.795100  0.742600  1
  F  F2063  1  0.795100  0.815200  0.742600  1
  F  F2064  1  0.704900  0.684800  0.742600  1
  F  F2065  1  0.184800  0.295100  0.257400  1
  F  F2066  1  0.315200  0.204900  0.257400  1
  F  F2067  1  0.204900  0.184800  0.257400  1
  F  F2068  1  0.295100  0.315200  0.257400  1
  F  F2069  1  0.757300  0.752700  0.963700  1
  F  F2070  1  0.742700  0.747300  0.963700  1
  F  F2071  1  0.747300  0.757300  0.963700  1
  F  F2072  1  0.752700  0.742700  0.963700  1
  F  F2073  1  0.242700  0.247300  0.036300  1
  F  F2074  1  0.257300  0.252700  0.036300  1
  F  F2075  1  0.252700  0.242700  0.036300  1
  F  F2076  1  0.247300  0.257300  0.036300  1
  F  F2077  1  0.747000  0.758800  0.031200  1
  F  F2078  1  0.753000  0.741200  0.031200  1
  F  F2079  1  0.741200  0.747000  0.031200  1
  F  F2080  1  0.758800  0.753000  0.031200  1
  F  F2081  1  0.253000  0.241200  0.968800  1
  F  F2082  1  0.247000  0.258800  0.968800  1
  F  F2083  1  0.258800  0.253000  0.968800  1
  F  F2084  1  0.241200  0.247000  0.968800  1
  F  F2085  1  0.706300  0.681800  0.994300  1
  F  F2086  1  0.793700  0.818200  0.994300  1
  F  F2087  1  0.818200  0.706300  0.994300  1
  F  F2088  1  0.681800  0.793700  0.994300  1
  F  F2089  1  0.293700  0.318200  0.005700  1
  F  F2090  1  0.206300  0.181800  0.005700  1
  F  F2091  1  0.181800  0.293700  0.005700  1
  F  F2092  1  0.318200  0.206300  0.005700  1
  F  F2093  1  0.801700  0.684100  0.004800  1
  F  F2094  1  0.698300  0.815900  0.004800  1
  F  F2095  1  0.815900  0.801700  0.004800  1
  F  F2096  1  0.684100  0.698300  0.004800  1
  F  F2097  1  0.198300  0.315900  0.995200  1
  F  F2098  1  0.301700  0.184100  0.995200  1
  F  F2099  1  0.184100  0.198300  0.995200  1
  F  F2100  1  0.315900  0.301700  0.995200  1
  F  F2101  1  0.764300  0.763000  0.460900  1
  F  F2102  1  0.735700  0.737000  0.460900  1
  F  F2103  1  0.737000  0.764300  0.460900  1
  F  F2104  1  0.763000  0.735700  0.460900  1
  F  F2105  1  0.235700  0.237000  0.539100  1
  F  F2106  1  0.264300  0.263000  0.539100  1
  F  F2107  1  0.263000  0.235700  0.539100  1
  F  F2108  1  0.237000  0.264300  0.539100  1
  F  F2109  1  0.753000  0.745000  0.527300  1
  F  F2110  1  0.747000  0.755000  0.527300  1
  F  F2111  1  0.755000  0.753000  0.527300  1
  F  F2112  1  0.745000  0.747000  0.527300  1
  F  F2113  1  0.247000  0.255000  0.472700  1
  F  F2114  1  0.253000  0.245000  0.472700  1
  F  F2115  1  0.245000  0.247000  0.472700  1
  F  F2116  1  0.255000  0.253000  0.472700  1
  F  F2117  1  0.675800  0.778200  0.489500  1
  F  F2118  1  0.824200  0.721800  0.489500  1
  F  F2119  1  0.721800  0.675800  0.489500  1
  F  F2120  1  0.778200  0.824200  0.489500  1
  F  F2121  1  0.324200  0.221800  0.510500  1
  F  F2122  1  0.175800  0.278200  0.510500  1
  F  F2123  1  0.278200  0.324200  0.510500  1
  F  F2124  1  0.221800  0.175800  0.510500  1
  F  F2125  1  0.708800  0.683800  0.484100  1
  F  F2126  1  0.791200  0.816200  0.484100  1
  F  F2127  1  0.816200  0.708800  0.484100  1
  F  F2128  1  0.683800  0.791200  0.484100  1
  F  F2129  1  0.291200  0.316200  0.515900  1
  F  F2130  1  0.208800  0.183800  0.515900  1
  F  F2131  1  0.183800  0.291200  0.515900  1
  F  F2132  1  0.316200  0.208800  0.515900  1
  F  F2133  1  0.730700  0.757000  0.212400  1
  F  F2134  1  0.769300  0.743000  0.212400  1
  F  F2135  1  0.743000  0.730700  0.212400  1
  F  F2136  1  0.757000  0.769300  0.212400  1
  F  F2137  1  0.269300  0.243000  0.787600  1
  F  F2138  1  0.230700  0.257000  0.787600  1
  F  F2139  1  0.257000  0.269300  0.787600  1
  F  F2140  1  0.243000  0.230700  0.787600  1
  F  F2141  1  0.737300  0.734600  0.279800  1
  F  F2142  1  0.762700  0.765400  0.279800  1
  F  F2143  1  0.765400  0.737300  0.279800  1
  F  F2144  1  0.734600  0.762700  0.279800  1
  F  F2145  1  0.262700  0.265400  0.720200  1
  F  F2146  1  0.237300  0.234600  0.720200  1
  F  F2147  1  0.234600  0.262700  0.720200  1
  F  F2148  1  0.265400  0.237300  0.720200  1
  F  F2149  1  0.791500  0.806600  0.252200  1
  F  F2150  1  0.708500  0.693400  0.252200  1
  F  F2151  1  0.693400  0.791500  0.252200  1
  F  F2152  1  0.806600  0.708500  0.252200  1
  F  F2153  1  0.208500  0.193400  0.747800  1
  F  F2154  1  0.291500  0.306600  0.747800  1
  F  F2155  1  0.306600  0.208500  0.747800  1
  F  F2156  1  0.193400  0.291500  0.747800  1
  F  F2157  1  0.809500  0.707100  0.238600  1
  F  F2158  1  0.690500  0.792900  0.238600  1
  F  F2159  1  0.792900  0.809500  0.238600  1
  F  F2160  1  0.707100  0.690500  0.238600  1
  F  F2161  1  0.190500  0.292900  0.761400  1
  F  F2162  1  0.309500  0.207100  0.761400  1
  F  F2163  1  0.207100  0.190500  0.761400  1
  F  F2164  1  0.292900  0.309500  0.761400  1
  F  F2165  1  0.214300  0.717200  0.720600  1
  F  F2166  1  0.285700  0.782800  0.720600  1
  F  F2167  1  0.782800  0.214300  0.720600  1
  F  F2168  1  0.717200  0.285700  0.720600  1
  F  F2169  1  0.785700  0.282800  0.279400  1
  F  F2170  1  0.714300  0.217200  0.279400  1
  F  F2171  1  0.217200  0.785700  0.279400  1
  F  F2172  1  0.282800  0.714300  0.279400  1
  F  F2173  1  0.210400  0.799000  0.759100  1
  F  F2174  1  0.289600  0.701000  0.759100  1
  F  F2175  1  0.701000  0.210400  0.759100  1
  F  F2176  1  0.799000  0.289600  0.759100  1
  F  F2177  1  0.789600  0.201000  0.240900  1
  F  F2178  1  0.710400  0.299000  0.240900  1
  F  F2179  1  0.299000  0.789600  0.240900  1
  F  F2180  1  0.201000  0.710400  0.240900  1
  F  F2181  1  0.297700  0.769500  0.722700  1
  F  F2182  1  0.202300  0.730500  0.722700  1
  F  F2183  1  0.730500  0.297700  0.722700  1
  F  F2184  1  0.769500  0.202300  0.722700  1
  F  F2185  1  0.702300  0.230500  0.277300  1
  F  F2186  1  0.797700  0.269500  0.277300  1
  F  F2187  1  0.269500  0.702300  0.277300  1
  F  F2188  1  0.230500  0.797700  0.277300  1
  F  F2189  1  0.265800  0.724900  0.778700  1
  F  F2190  1  0.234200  0.775100  0.778700  1
  F  F2191  1  0.775100  0.265800  0.778700  1
  F  F2192  1  0.724900  0.234200  0.778700  1
  F  F2193  1  0.734200  0.275100  0.221300  1
  F  F2194  1  0.765800  0.224900  0.221300  1
  F  F2195  1  0.224900  0.734200  0.221300  1
  F  F2196  1  0.275100  0.765800  0.221300  1
  F  F2197  1  0.800100  0.249800  0.976000  1.0
  F  F2198  1  0.699900  0.250200  0.976000  1.0
  F  F2199  1  0.250200  0.800100  0.976000  1.0
  F  F2200  1  0.249800  0.699900  0.976000  1.0
  F  F2201  1  0.199900  0.750200  0.024000  1.0
  F  F2202  1  0.300100  0.749800  0.024000  1.0
  F  F2203  1  0.749800  0.199900  0.024000  1.0
  F  F2204  1  0.750200  0.300100  0.024000  1.0
  F  F2205  1  0.202100  0.759400  0.476100  1.0
  F  F2206  1  0.297900  0.740600  0.476100  1.0
  F  F2207  1  0.740600  0.202100  0.476100  1.0
  F  F2208  1  0.759400  0.297900  0.476100  1.0
  F  F2209  1  0.797900  0.240600  0.523900  1.0
  F  F2210  1  0.702100  0.259400  0.523900  1.0
  F  F2211  1  0.259400  0.797900  0.523900  1.0
  F  F2212  1  0.240600  0.702100  0.523900  1.0
