
#######################################################################
#
#                 Cambridge Crystallographic Data Centre
#                                CCDC 
#
#######################################################################
#
# If this CIF has been generated from an entry in the Cambridge 
# Structural Database, then it will include bibliographic, chemical, 
# crystal, experimental, refinement or atomic coordinate data resulting 
# from the CCDC's data processing and validation procedures.
#
#######################################################################

data_JOZNET
_chemical_formula_moiety         
'C132 H108 N12 O4 Pd2 4+,4(B1 F4 1-),7.5(C6 H6)'
_chemical_name_systematic        
'tetrakis(\m-10-hexyl-2,7-bis(pyridin-3-ylethynyl)acridin-9(10H)-one)-di-palladium tetrakis(tetrafluoroborate) benzene solvate'
_symmetry_cell_setting           tetragonal
_symmetry_space_group_name_H-M   'P 4/n'
_symmetry_Int_Tables_number      85
_space_group_name_Hall           '-P 4a'
loop_
_symmetry_equiv_pos_site_id
_symmetry_equiv_pos_as_xyz
1 x,y,z
2 1/2-x,1/2-y,z
3 1/2-y,x,z
4 y,1/2-x,z
5 -x,-y,-z
6 1/2+x,1/2+y,-z
7 1/2+y,-x,-z
8 -y,1/2+x,-z
_cell_length_a                   22.065(4)
_cell_length_b                   22.065(4)
_cell_length_c                   33.491(5)
_cell_angle_alpha                90
_cell_angle_beta                 90
_cell_angle_gamma                90
_cell_volume                     16305.6
_exptl_crystal_colour            colorless
_exptl_crystal_description       block
_cell_formula_units_Z            6
loop_
_atom_site_label
_atom_site_type_symbol
_atom_site_fract_x
_atom_site_fract_y
_atom_site_fract_z
Pd1 Pd 0.7500 0.7500 1.11941(4)
Pd2 Pd 0.7500 0.7500 0.61888(4)
N1 N 0.8086(5) 1.1120(4) 0.8673(3)
O1 O 0.8153(5) 0.9273(4) 0.8704(2)
C1 C 0.8119(6) 0.9831(5) 0.8698(2)
C2 C 0.8137(5) 1.0167(4) 0.8326(3)
C3 C 0.8121(5) 1.0808(4) 0.8317(3)
C4 C 0.8137(5) 1.1098(4) 0.7951(3)
H1 H 0.8131 1.1528 0.7945
C5 C 0.8160(5) 1.0794(4) 0.7602(3)
H2 H 0.8165 1.1011 0.7357
C6 C 0.8177(5) 1.0149(4) 0.7601(3)
C7 C 0.8172(5) 0.9849(4) 0.7963(3)
H3 H 0.8193 0.9419 0.7967
C8 C 0.8169(5) 0.9826(4) 0.7228(3)
C9 C 0.8141(5) 0.9570(4) 0.6915(3)
C10 C 0.8065(5) 0.9270(4) 0.6539(3)
C11 C 0.7875(4) 0.8664(4) 0.6530(3)
H4 H 0.7816 0.8454 0.6774
C12 C 0.8127(6) 0.9564(5) 0.6180(3)
H5 H 0.8240 0.9980 0.6178
C13 C 0.8030(5) 0.9269(5) 0.5821(3)
H6 H 0.8080 0.9475 0.5574
C14 C 0.7857(5) 0.8670(4) 0.5832(3)
H7 H 0.7795 0.8459 0.5588
N2 N 0.7774(4) 0.8374(4) 0.6183(2)
C15 C 0.8077(5) 1.0191(4) 0.9059(3)
C16 C 0.8080(5) 1.0824(4) 0.9041(3)
C17 C 0.8054(6) 1.1146(5) 0.9405(3)
H8 H 0.8080 1.1576 0.9403
C18 C 0.7994(6) 1.0849(4) 0.9754(3)
H9 H 0.7949 1.1077 0.9993
C19 C 0.7995(6) 1.0211(4) 0.9778(3)
C20 C 0.8039(6) 0.9893(4) 0.9423(3)
H10 H 0.8042 0.9462 0.9428
C21 C 0.7935(7) 0.9908(5) 1.0159(3)
C22 C 0.7829(7) 0.9648(5) 1.0466(3)
C23 C 0.7707(7) 0.9348(5) 1.0836(3)
C24 C 0.7691(6) 0.8717(5) 1.0855(3)
H11 H 0.7769 0.8493 1.0618
C25 C 0.7600(10) 0.9646(6) 1.1190(3)
H12 H 0.7620 1.0077 1.1192
C26 C 0.7467(11) 0.9354(6) 1.1540(4)
H13 H 0.7391 0.9570 1.1779
C27 C 0.7448(10) 0.8726(5) 1.1527(3)
H14 H 0.7345 0.8508 1.1762
N3 N 0.7572(6) 0.8415(4) 1.1189(2)
C28 C 0.8077(6) 1.1808(5) 0.8651(3)
H15 H 0.7835 1.1937 0.8417
H16 H 0.7879 1.1972 0.8894
C29 C 0.8701(7) 1.2062(6) 0.8618(5)
H17 H 0.8908 1.1877 0.8386
H18 H 0.8934 1.1956 0.8861
C30 C 0.8692(8) 1.2769(6) 0.8567(4)
H19 H 0.9066 1.2897 0.8427
H20 H 0.8342 1.2884 0.8398
C31 C 0.8652(7) 1.3085(5) 0.8942(4)
H21 H 0.8987 1.2945 0.9116
H22 H 0.8267 1.2969 0.9073
C32 C 0.8678(8) 1.3774(6) 0.8917(4)
H23 H 0.9057 1.3894 0.8779
H24 H 0.8334 1.3919 0.8753
C33 C 0.8657(8) 1.4070(6) 0.9305(4)
H25 H 0.8675 1.4510 0.9269
H26 H 0.8278 1.3962 0.9441
H27 H 0.9002 1.3936 0.9467
N1A N 0.6914(5) 0.3880(4) 0.8673(3)
O1A O 0.6847(5) 0.5727(4) 0.8704(2)
C1A C 0.6881(6) 0.5169(5) 0.8698(2)
C2A C 0.6863(5) 0.4833(4) 0.8326(3)
C3A C 0.6879(5) 0.4192(4) 0.8317(3)
C4A C 0.6863(5) 0.3902(4) 0.7951(3)
H1A H 0.6869 0.3472 0.7945
C5A C 0.6840(5) 0.4206(4) 0.7602(3)
H2A H 0.6835 0.3989 0.7357
C6A C 0.6823(5) 0.4851(4) 0.7601(3)
C7A C 0.6828(5) 0.5151(4) 0.7963(3)
H3A H 0.6807 0.5581 0.7967
C8A C 0.6831(5) 0.5174(4) 0.7228(3)
C9A C 0.6859(5) 0.5430(4) 0.6915(3)
C10A C 0.6935(5) 0.5730(4) 0.6539(3)
C11A C 0.7125(4) 0.6336(4) 0.6530(3)
H4A H 0.7184 0.6546 0.6774
C12A C 0.6873(6) 0.5436(5) 0.6180(3)
H5A H 0.6760 0.5020 0.6178
C13A C 0.6970(5) 0.5731(5) 0.5821(3)
H6A H 0.6920 0.5525 0.5574
C14A C 0.7143(5) 0.6330(4) 0.5832(3)
H7A H 0.7205 0.6541 0.5588
N2A N 0.7226(4) 0.6626(4) 0.6183(2)
C15A C 0.6923(5) 0.4809(4) 0.9059(3)
C16A C 0.6920(5) 0.4176(4) 0.9041(3)
C17A C 0.6946(6) 0.3854(5) 0.9405(3)
H8A H 0.6920 0.3424 0.9403
C18A C 0.7006(6) 0.4151(4) 0.9754(3)
H9A H 0.7051 0.3923 0.9993
C19A C 0.7005(6) 0.4789(4) 0.9778(3)
C20A C 0.6961(6) 0.5107(4) 0.9423(3)
H10A H 0.6958 0.5538 0.9428
C21A C 0.7065(7) 0.5092(5) 1.0159(3)
C22A C 0.7171(7) 0.5352(5) 1.0466(3)
C23A C 0.7293(7) 0.5652(5) 1.0836(3)
C24A C 0.7309(6) 0.6283(5) 1.0855(3)
H11A H 0.7231 0.6507 1.0618
C25A C 0.7400(10) 0.5354(6) 1.1190(3)
H12A H 0.7380 0.4923 1.1192
C26A C 0.7533(11) 0.5646(6) 1.1540(4)
H13A H 0.7609 0.5430 1.1779
C27A C 0.7552(10) 0.6274(5) 1.1527(3)
H14A H 0.7655 0.6492 1.1762
N3A N 0.7428(6) 0.6585(4) 1.1189(2)
C28A C 0.6923(6) 0.3192(5) 0.8651(3)
H15A H 0.7165 0.3063 0.8417
H16A H 0.7121 0.3028 0.8894
C29A C 0.6299(7) 0.2938(6) 0.8618(5)
H17A H 0.6092 0.3123 0.8386
H18A H 0.6066 0.3044 0.8861
C30A C 0.6308(8) 0.2231(6) 0.8567(4)
H19A H 0.5934 0.2103 0.8427
H20A H 0.6658 0.2116 0.8398
C31A C 0.6348(7) 0.1915(5) 0.8942(4)
H21A H 0.6013 0.2055 0.9116
H22A H 0.6733 0.2031 0.9073
C32A C 0.6322(8) 0.1226(6) 0.8917(4)
H23A H 0.5943 0.1106 0.8779
H24A H 0.6666 0.1081 0.8753
C33A C 0.6343(8) 0.0930(6) 0.9305(4)
H25A H 0.6325 0.0490 0.9269
H26A H 0.6722 0.1038 0.9441
H27A H 0.5998 0.1064 0.9467
N1B N 0.3880(4) 0.8086(5) 0.8673(3)
O1B O 0.5727(4) 0.8153(5) 0.8704(2)
C1B C 0.5169(5) 0.8119(6) 0.8698(2)
C2B C 0.4833(4) 0.8137(5) 0.8326(3)
C3B C 0.4192(4) 0.8121(5) 0.8317(3)
C4B C 0.3902(4) 0.8137(5) 0.7951(3)
H1B H 0.3472 0.8131 0.7945
C5B C 0.4206(4) 0.8160(5) 0.7602(3)
H2B H 0.3989 0.8165 0.7357
C6B C 0.4851(4) 0.8177(5) 0.7601(3)
C7B C 0.5151(4) 0.8172(5) 0.7963(3)
H3B H 0.5581 0.8193 0.7967
C8B C 0.5174(4) 0.8169(5) 0.7228(3)
C9B C 0.5430(4) 0.8141(5) 0.6915(3)
C10B C 0.5730(4) 0.8065(5) 0.6539(3)
C11B C 0.6336(4) 0.7875(4) 0.6530(3)
H4B H 0.6546 0.7816 0.6774
C12B C 0.5436(5) 0.8127(6) 0.6180(3)
H5B H 0.5020 0.8240 0.6178
C13B C 0.5731(5) 0.8030(5) 0.5821(3)
H6B H 0.5525 0.8080 0.5574
C14B C 0.6330(4) 0.7857(5) 0.5832(3)
H7B H 0.6541 0.7795 0.5588
N2B N 0.6626(4) 0.7774(4) 0.6183(2)
C15B C 0.4809(4) 0.8077(5) 0.9059(3)
C16B C 0.4176(4) 0.8080(5) 0.9041(3)
C17B C 0.3854(5) 0.8054(6) 0.9405(3)
H8B H 0.3424 0.8080 0.9403
C18B C 0.4151(4) 0.7994(6) 0.9754(3)
H9B H 0.3923 0.7949 0.9993
C19B C 0.4789(4) 0.7995(6) 0.9778(3)
C20B C 0.5107(4) 0.8039(6) 0.9423(3)
H10B H 0.5538 0.8042 0.9428
C21B C 0.5092(5) 0.7935(7) 1.0159(3)
C22B C 0.5352(5) 0.7829(7) 1.0466(3)
C23B C 0.5652(5) 0.7707(7) 1.0836(3)
C24B C 0.6283(5) 0.7691(6) 1.0855(3)
H11B H 0.6507 0.7769 1.0618
C25B C 0.5354(6) 0.7600(10) 1.1190(3)
H12B H 0.4923 0.7620 1.1192
C26B C 0.5646(6) 0.7467(11) 1.1540(4)
H13B H 0.5430 0.7391 1.1779
C27B C 0.6274(5) 0.7448(10) 1.1527(3)
H14B H 0.6492 0.7345 1.1762
N3B N 0.6585(4) 0.7572(6) 1.1189(2)
C28B C 0.3192(5) 0.8077(6) 0.8651(3)
H15B H 0.3063 0.7835 0.8417
H16B H 0.3028 0.7879 0.8894
C29B C 0.2938(6) 0.8701(7) 0.8618(5)
H17B H 0.3123 0.8908 0.8386
H18B H 0.3044 0.8934 0.8861
C30B C 0.2231(6) 0.8692(8) 0.8567(4)
H19B H 0.2103 0.9066 0.8427
H20B H 0.2116 0.8342 0.8398
C31B C 0.1915(5) 0.8652(7) 0.8942(4)
H21B H 0.2055 0.8987 0.9116
H22B H 0.2031 0.8267 0.9073
C32B C 0.1226(6) 0.8678(8) 0.8917(4)
H23B H 0.1106 0.9057 0.8779
H24B H 0.1081 0.8334 0.8753
C33B C 0.0930(6) 0.8657(8) 0.9305(4)
H25B H 0.0490 0.8675 0.9269
H26B H 0.1038 0.8278 0.9441
H27B H 0.1064 0.9002 0.9467
N1C N 1.1120(4) 0.6914(5) 0.8673(3)
O1C O 0.9273(4) 0.6847(5) 0.8704(2)
C1C C 0.9831(5) 0.6881(6) 0.8698(2)
C2C C 1.0167(4) 0.6863(5) 0.8326(3)
C3C C 1.0808(4) 0.6879(5) 0.8317(3)
C4C C 1.1098(4) 0.6863(5) 0.7951(3)
H1C H 1.1528 0.6869 0.7945
C5C C 1.0794(4) 0.6840(5) 0.7602(3)
H2C H 1.1011 0.6835 0.7357
C6C C 1.0149(4) 0.6823(5) 0.7601(3)
C7C C 0.9849(4) 0.6828(5) 0.7963(3)
H3C H 0.9419 0.6807 0.7967
C8C C 0.9826(4) 0.6831(5) 0.7228(3)
C9C C 0.9570(4) 0.6859(5) 0.6915(3)
C10C C 0.9270(4) 0.6935(5) 0.6539(3)
C11C C 0.8664(4) 0.7125(4) 0.6530(3)
H4C H 0.8454 0.7184 0.6774
C12C C 0.9564(5) 0.6873(6) 0.6180(3)
H5C H 0.9980 0.6760 0.6178
C13C C 0.9269(5) 0.6970(5) 0.5821(3)
H6C H 0.9475 0.6920 0.5574
C14C C 0.8670(4) 0.7143(5) 0.5832(3)
H7C H 0.8459 0.7205 0.5588
N2C N 0.8374(4) 0.7226(4) 0.6183(2)
C15C C 1.0191(4) 0.6923(5) 0.9059(3)
C16C C 1.0824(4) 0.6920(5) 0.9041(3)
C17C C 1.1146(5) 0.6946(6) 0.9405(3)
H8C H 1.1576 0.6920 0.9403
C18C C 1.0849(4) 0.7006(6) 0.9754(3)
H9C H 1.1077 0.7051 0.9993
C19C C 1.0211(4) 0.7005(6) 0.9778(3)
C20C C 0.9893(4) 0.6961(6) 0.9423(3)
H10C H 0.9462 0.6958 0.9428
C21C C 0.9908(5) 0.7065(7) 1.0159(3)
C22C C 0.9648(5) 0.7171(7) 1.0466(3)
C23C C 0.9348(5) 0.7293(7) 1.0836(3)
C24C C 0.8717(5) 0.7309(6) 1.0855(3)
H11C H 0.8493 0.7231 1.0618
C25C C 0.9646(6) 0.7400(10) 1.1190(3)
H12C H 1.0077 0.7380 1.1192
C26C C 0.9354(6) 0.7533(11) 1.1540(4)
H13C H 0.9570 0.7609 1.1779
C27C C 0.8726(5) 0.7552(10) 1.1527(3)
H14C H 0.8508 0.7655 1.1762
N3C N 0.8415(4) 0.7428(6) 1.1189(2)
C28C C 1.1808(5) 0.6923(6) 0.8651(3)
H15C H 1.1937 0.7165 0.8417
H16C H 1.1972 0.7121 0.8894
C29C C 1.2062(6) 0.6299(7) 0.8618(5)
H17C H 1.1877 0.6092 0.8386
H18C H 1.1956 0.6066 0.8861
C30C C 1.2769(6) 0.6308(8) 0.8567(4)
H19C H 1.2897 0.5934 0.8427
H20C H 1.2884 0.6658 0.8398
C31C C 1.3085(5) 0.6348(7) 0.8942(4)
H21C H 1.2945 0.6013 0.9116
H22C H 1.2969 0.6733 0.9073
C32C C 1.3774(6) 0.6322(8) 0.8917(4)
H23C H 1.3894 0.5943 0.8779
H24C H 1.3919 0.6666 0.8753
C33C C 1.4070(6) 0.6343(8) 0.9305(4)
H25C H 1.4510 0.6325 0.9269
H26C H 1.3962 0.6722 0.9441
H27C H 1.3936 0.5998 0.9467
Pd3 Pd 0.7500 0.7500 0.87216(3)
Pd4 Pd 0.7500 0.7500 0.37116(4)
N4 N 1.0988(5) 0.8173(6) 0.6210(3)
O2 O 0.9164(4) 0.8451(4) 0.6191(2)
C34 C 0.9722(5) 0.8386(6) 0.6198(3)
C35 C 1.0071(5) 0.8320(7) 0.5834(3)
C36 C 1.0703(5) 0.8232(7) 0.5841(3)
C37 C 1.1014(6) 0.8168(9) 0.5483(3)
H28 H 1.1439 0.8102 0.5485
C38 C 1.0719(6) 0.8199(9) 0.5134(4)
H29 H 1.0945 0.8170 0.4893
C39 C 1.0087(5) 0.8272(9) 0.5112(3)
C40 C 0.9776(5) 0.8348(7) 0.5466(3)
H30 H 0.9352 0.8420 0.5459
C41 C 0.9769(6) 0.8286(9) 0.4737(3)
C42 C 0.9527(6) 0.8290(8) 0.4423(4)
C43 C 0.9186(6) 0.8288(7) 0.4060(3)
C44 C 0.8641(5) 0.7980(6) 0.4040(3)
H31 H 0.8499 0.7789 0.4276
C45 C 0.9390(8) 0.8541(9) 0.3710(3)
H32 H 0.9774 0.8735 0.3704
C46 C 0.9046(7) 0.8517(9) 0.3369(4)
H33 H 0.9186 0.8701 0.3130
C47 C 0.8490(7) 0.8219(8) 0.3379(3)
H34 H 0.8241 0.8216 0.3148
N5 N 0.8303(5) 0.7934(5) 0.3712(2)
C48 C 1.0057(4) 0.8357(5) 0.6571(3)
C49 C 1.0692(4) 0.8267(6) 0.6574(3)
C50 C 1.0985(5) 0.8252(6) 0.6940(3)
H35 H 1.1413 0.8200 0.6945
C51 C 1.0685(4) 0.8308(5) 0.7291(3)
H36 H 1.0904 0.8301 0.7535
C52 C 1.0047(4) 0.8376(5) 0.7296(3)
C53 C 0.9753(5) 0.8403(5) 0.6937(3)
H37 H 0.9326 0.8455 0.6935
C54 C 0.9734(5) 0.8389(5) 0.7671(3)
C55 C 0.9479(5) 0.8358(5) 0.7986(3)
C56 C 0.9179(4) 0.8277(5) 0.8362(3)
C57 C 0.8608(4) 0.8008(4) 0.8379(2)
H38 H 0.8414 0.7894 0.8138
C58 C 0.9451(6) 0.8412(7) 0.8725(3)
H39 H 0.9852 0.8570 0.8728
C59 C 0.9154(5) 0.8323(6) 0.9077(3)
H40 H 0.9334 0.8441 0.9323
C60 C 0.8587(5) 0.8057(5) 0.9069(3)
H41 H 0.8380 0.7982 0.9313
N6 N 0.8327(4) 0.7906(4) 0.8727(2)
C61 C 1.1644(6) 0.8035(7) 0.6229(4)
H42 H 1.1759 0.7775 0.6000
H43 H 1.1734 0.7809 0.6478
C62 C 1.2009(6) 0.8608(8) 0.6220(5)
H44 H 1.1894 0.8870 0.6448
H45 H 1.1925 0.8832 0.5970
C63 C 1.2698(6) 0.8452(9) 0.6244(6)
H46 H 1.2794 0.8289 0.6512
H47 H 1.2798 0.8137 0.6044
C64 C 1.3055(8) 0.8988(9) 0.6170(6)
H48 H 1.2974 0.9288 0.6383
H49 H 1.2926 0.9169 0.5913
C65 C 1.3732(8) 0.8865(12) 0.6154(6)
H50 H 1.3827 0.8487 0.6008
H51 H 1.3959 0.9207 0.6034
C66 C 1.3846(9) 0.8808(11) 0.6584(6)
H52 H 1.4277 0.8725 0.6629
H53 H 1.3734 0.9186 0.6718
H54 H 1.3604 0.8474 0.6692
N4A N 0.4012(5) 0.6827(6) 0.6210(3)
O2A O 0.5836(4) 0.6549(4) 0.6191(2)
C34A C 0.5278(5) 0.6614(6) 0.6198(3)
C35A C 0.4929(5) 0.6680(7) 0.5834(3)
C36A C 0.4297(5) 0.6768(7) 0.5841(3)
C37A C 0.3986(6) 0.6832(9) 0.5483(3)
H28A H 0.3561 0.6898 0.5485
C38A C 0.4281(6) 0.6801(9) 0.5134(4)
H29A H 0.4055 0.6830 0.4893
C39A C 0.4913(5) 0.6728(9) 0.5112(3)
C40A C 0.5224(5) 0.6652(7) 0.5466(3)
H30A H 0.5648 0.6580 0.5459
C41A C 0.5231(6) 0.6714(9) 0.4737(3)
C42A C 0.5473(6) 0.6710(8) 0.4423(4)
C43A C 0.5814(6) 0.6712(7) 0.4060(3)
C44A C 0.6359(5) 0.7020(6) 0.4040(3)
H31A H 0.6501 0.7211 0.4276
C45A C 0.5610(8) 0.6459(9) 0.3710(3)
H32A H 0.5226 0.6265 0.3704
C46A C 0.5954(7) 0.6483(9) 0.3369(4)
H33A H 0.5814 0.6299 0.3130
C47A C 0.6510(7) 0.6781(8) 0.3379(3)
H34A H 0.6759 0.6784 0.3148
N5A N 0.6697(5) 0.7066(5) 0.3712(2)
C48A C 0.4943(4) 0.6643(5) 0.6571(3)
C49A C 0.4308(4) 0.6733(6) 0.6574(3)
C50A C 0.4015(5) 0.6748(6) 0.6940(3)
H35A H 0.3587 0.6800 0.6945
C51A C 0.4315(4) 0.6692(5) 0.7291(3)
H36A H 0.4096 0.6699 0.7535
C52A C 0.4953(4) 0.6624(5) 0.7296(3)
C53A C 0.5247(5) 0.6597(5) 0.6937(3)
H37A H 0.5674 0.6545 0.6935
C54A C 0.5266(5) 0.6611(5) 0.7671(3)
C55A C 0.5521(5) 0.6642(5) 0.7986(3)
C56A C 0.5821(4) 0.6723(5) 0.8362(3)
C57A C 0.6392(4) 0.6992(4) 0.8379(2)
H38A H 0.6586 0.7106 0.8138
C58A C 0.5549(6) 0.6588(7) 0.8725(3)
H39A H 0.5148 0.6430 0.8728
C59A C 0.5846(5) 0.6677(6) 0.9077(3)
H40A H 0.5666 0.6559 0.9323
C60A C 0.6413(5) 0.6943(5) 0.9069(3)
H41A H 0.6620 0.7018 0.9313
N6A N 0.6673(4) 0.7094(4) 0.8727(2)
C61A C 0.3356(6) 0.6965(7) 0.6229(4)
H42A H 0.3241 0.7225 0.6000
H43A H 0.3266 0.7191 0.6478
C62A C 0.2991(6) 0.6392(8) 0.6220(5)
H44A H 0.3106 0.6130 0.6448
H45A H 0.3075 0.6168 0.5970
C63A C 0.2302(6) 0.6548(9) 0.6244(6)
H46A H 0.2206 0.6711 0.6512
H47A H 0.2202 0.6863 0.6044
C64A C 0.1945(8) 0.6012(9) 0.6170(6)
H48A H 0.2026 0.5712 0.6383
H49A H 0.2074 0.5831 0.5913
C65A C 0.1268(8) 0.6135(12) 0.6154(6)
H50A H 0.1173 0.6513 0.6008
H51A H 0.1041 0.5793 0.6034
C66A C 0.1154(9) 0.6192(11) 0.6584(6)
H52A H 0.0723 0.6275 0.6629
H53A H 0.1266 0.5814 0.6718
H54A H 0.1396 0.6526 0.6692
N4B N 0.6827(6) 1.0988(5) 0.6210(3)
O2B O 0.6549(4) 0.9164(4) 0.6191(2)
C34B C 0.6614(6) 0.9722(5) 0.6198(3)
C35B C 0.6680(7) 1.0071(5) 0.5834(3)
C36B C 0.6768(7) 1.0703(5) 0.5841(3)
C37B C 0.6832(9) 1.1014(6) 0.5483(3)
H28B H 0.6898 1.1439 0.5485
C38B C 0.6801(9) 1.0719(6) 0.5134(4)
H29B H 0.6830 1.0945 0.4893
C39B C 0.6728(9) 1.0087(5) 0.5112(3)
C40B C 0.6652(7) 0.9776(5) 0.5466(3)
H30B H 0.6580 0.9352 0.5459
C41B C 0.6714(9) 0.9769(6) 0.4737(3)
C42B C 0.6710(8) 0.9527(6) 0.4423(4)
C43B C 0.6712(7) 0.9186(6) 0.4060(3)
C44B C 0.7020(6) 0.8641(5) 0.4040(3)
H31B H 0.7211 0.8499 0.4276
C45B C 0.6459(9) 0.9390(8) 0.3710(3)
H32B H 0.6265 0.9774 0.3704
C46B C 0.6483(9) 0.9046(7) 0.3369(4)
H33B H 0.6299 0.9186 0.3130
C47B C 0.6781(8) 0.8490(7) 0.3379(3)
H34B H 0.6784 0.8241 0.3148
N5B N 0.7066(5) 0.8303(5) 0.3712(2)
C48B C 0.6643(5) 1.0057(4) 0.6571(3)
C49B C 0.6733(6) 1.0692(4) 0.6574(3)
C50B C 0.6748(6) 1.0985(5) 0.6940(3)
H35B H 0.6800 1.1413 0.6945
C51B C 0.6692(5) 1.0685(4) 0.7291(3)
H36B H 0.6699 1.0904 0.7535
C52B C 0.6624(5) 1.0047(4) 0.7296(3)
C53B C 0.6597(5) 0.9753(5) 0.6937(3)
H37B H 0.6545 0.9326 0.6935
C54B C 0.6611(5) 0.9734(5) 0.7671(3)
C55B C 0.6642(5) 0.9479(5) 0.7986(3)
C56B C 0.6723(5) 0.9179(4) 0.8362(3)
C57B C 0.6992(4) 0.8608(4) 0.8379(2)
H38B H 0.7106 0.8414 0.8138
C58B C 0.6588(7) 0.9451(6) 0.8725(3)
H39B H 0.6430 0.9852 0.8728
C59B C 0.6677(6) 0.9154(5) 0.9077(3)
H40B H 0.6559 0.9334 0.9323
C60B C 0.6943(5) 0.8587(5) 0.9069(3)
H41B H 0.7018 0.8380 0.9313
N6B N 0.7094(4) 0.8327(4) 0.8727(2)
C61B C 0.6965(7) 1.1644(6) 0.6229(4)
H42B H 0.7225 1.1759 0.6000
H43B H 0.7191 1.1734 0.6478
C62B C 0.6392(8) 1.2009(6) 0.6220(5)
H44B H 0.6130 1.1894 0.6448
H45B H 0.6168 1.1925 0.5970
C63B C 0.6548(9) 1.2698(6) 0.6244(6)
H46B H 0.6711 1.2794 0.6512
H47B H 0.6863 1.2798 0.6044
C64B C 0.6012(9) 1.3055(8) 0.6170(6)
H48B H 0.5712 1.2974 0.6383
H49B H 0.5831 1.2926 0.5913
C65B C 0.6135(12) 1.3732(8) 0.6154(6)
H50B H 0.6513 1.3827 0.6008
H51B H 0.5793 1.3959 0.6034
C66B C 0.6192(11) 1.3846(9) 0.6584(6)
H52B H 0.6275 1.4277 0.6629
H53B H 0.5814 1.3734 0.6718
H54B H 0.6526 1.3604 0.6692
N4C N 0.8173(6) 0.4012(5) 0.6210(3)
O2C O 0.8451(4) 0.5836(4) 0.6191(2)
C34C C 0.8386(6) 0.5278(5) 0.6198(3)
C35C C 0.8320(7) 0.4929(5) 0.5834(3)
C36C C 0.8232(7) 0.4297(5) 0.5841(3)
C37C C 0.8168(9) 0.3986(6) 0.5483(3)
H28C H 0.8102 0.3561 0.5485
C38C C 0.8199(9) 0.4281(6) 0.5134(4)
H29C H 0.8170 0.4055 0.4893
C39C C 0.8272(9) 0.4913(5) 0.5112(3)
C40C C 0.8348(7) 0.5224(5) 0.5466(3)
H30C H 0.8420 0.5648 0.5459
C41C C 0.8286(9) 0.5231(6) 0.4737(3)
C42C C 0.8290(8) 0.5473(6) 0.4423(4)
C43C C 0.8288(7) 0.5814(6) 0.4060(3)
C44C C 0.7980(6) 0.6359(5) 0.4040(3)
H31C H 0.7789 0.6501 0.4276
C45C C 0.8541(9) 0.5610(8) 0.3710(3)
H32C H 0.8735 0.5226 0.3704
C46C C 0.8517(9) 0.5954(7) 0.3369(4)
H33C H 0.8701 0.5814 0.3130
C47C C 0.8219(8) 0.6510(7) 0.3379(3)
H34C H 0.8216 0.6759 0.3148
N5C N 0.7934(5) 0.6697(5) 0.3712(2)
C48C C 0.8357(5) 0.4943(4) 0.6571(3)
C49C C 0.8267(6) 0.4308(4) 0.6574(3)
C50C C 0.8252(6) 0.4015(5) 0.6940(3)
H35C H 0.8200 0.3587 0.6945
C51C C 0.8308(5) 0.4315(4) 0.7291(3)
H36C H 0.8301 0.4096 0.7535
C52C C 0.8376(5) 0.4953(4) 0.7296(3)
C53C C 0.8403(5) 0.5247(5) 0.6937(3)
H37C H 0.8455 0.5674 0.6935
C54C C 0.8389(5) 0.5266(5) 0.7671(3)
C55C C 0.8358(5) 0.5521(5) 0.7986(3)
C56C C 0.8277(5) 0.5821(4) 0.8362(3)
C57C C 0.8008(4) 0.6392(4) 0.8379(2)
H38C H 0.7894 0.6586 0.8138
C58C C 0.8412(7) 0.5549(6) 0.8725(3)
H39C H 0.8570 0.5148 0.8728
C59C C 0.8323(6) 0.5846(5) 0.9077(3)
H40C H 0.8441 0.5666 0.9323
C60C C 0.8057(5) 0.6413(5) 0.9069(3)
H41C H 0.7982 0.6620 0.9313
N6C N 0.7906(4) 0.6673(4) 0.8727(2)
C61C C 0.8035(7) 0.3356(6) 0.6229(4)
H42C H 0.7775 0.3241 0.6000
H43C H 0.7809 0.3266 0.6478
C62C C 0.8608(8) 0.2991(6) 0.6220(5)
H44C H 0.8870 0.3106 0.6448
H45C H 0.8832 0.3075 0.5970
C63C C 0.8452(9) 0.2302(6) 0.6244(6)
H46C H 0.8289 0.2206 0.6512
H47C H 0.8137 0.2202 0.6044
C64C C 0.8988(9) 0.1945(8) 0.6170(6)
H48C H 0.9288 0.2026 0.6383
H49C H 0.9169 0.2074 0.5913
C65C C 0.8865(12) 0.1268(8) 0.6154(6)
H50C H 0.8487 0.1173 0.6008
H51C H 0.9207 0.1041 0.6034
C66C C 0.8808(11) 0.1154(9) 0.6584(6)
H52C H 0.8725 0.0723 0.6629
H53C H 0.9186 0.1266 0.6718
H54C H 0.8474 0.1396 0.6692
B1 B 0.7500 1.2500 1.0000
F1 F 0.8001(4) 1.2498(4) 0.9760(2)
F1A F 0.6999(4) 1.2502(4) 0.9760(2)
F1F F 0.7498(4) 1.1999(4) 1.0240(2)
F1G F 0.7502(4) 1.3001(4) 1.0240(2)
B2 B 1.2500 0.7500 0.5000
F2 F 1.2021(4) 0.7594(5) 0.4761(2)
F2A F 1.2979(4) 0.7406(5) 0.4761(2)
F2F F 1.2594(5) 0.7979(4) 0.5239(2)
F2G F 1.2406(5) 0.7021(4) 0.5239(2)
C67 C 1.4604(17) 0.9168(16) 0.5336(9)
H55 H 1.4502 0.9482 0.5518
C68 C 1.5145(16) 0.9196(14) 0.5124(11)
H56 H 1.5413 0.9529 0.5162
C69 C 1.5295(12) 0.8738(16) 0.4857(9)
H57 H 1.5665 0.8757 0.4712
C70 C 1.4903(17) 0.8252(14) 0.4801(10)
H58 H 1.5005 0.7939 0.4619
C71 C 1.4362(16) 0.8224(15) 0.5013(10)
H59 H 1.4094 0.7892 0.4975
C72 C 1.4212(13) 0.8682(18) 0.5280(6)
H60 H 1.3842 0.8663 0.5425
loop_
_geom_bond_atom_site_label_1
_geom_bond_atom_site_label_2
_geom_bond_site_symmetry_1
_geom_bond_site_symmetry_2
Pd1 N3 1_555 1_555
Pd2 N2 1_555 1_555
N1 C3 1_555 1_555
O1 C1 1_555 1_555
C1 C2 1_555 1_555
C2 C3 1_555 1_555
C3 C4 1_555 1_555
C4 H1 1_555 1_555
C5 C4 1_555 1_555
H2 C5 1_555 1_555
C6 C5 1_555 1_555
C7 C2 1_555 1_555
H3 C7 1_555 1_555
C8 C6 1_555 1_555
C9 C8 1_555 1_555
C10 C9 1_555 1_555
C11 C10 1_555 1_555
H4 C11 1_555 1_555
C12 C10 1_555 1_555
H5 C12 1_555 1_555
C13 C12 1_555 1_555
H6 C13 1_555 1_555
C14 C13 1_555 1_555
H7 C14 1_555 1_555
N2 C11 1_555 1_555
C15 C1 1_555 1_555
C16 N1 1_555 1_555
C17 C16 1_555 1_555
H8 C17 1_555 1_555
C18 C17 1_555 1_555
H9 C18 1_555 1_555
C19 C18 1_555 1_555
C20 C15 1_555 1_555
H10 C20 1_555 1_555
C21 C19 1_555 1_555
C22 C21 1_555 1_555
C23 C22 1_555 1_555
C24 C23 1_555 1_555
H11 C24 1_555 1_555
C25 C23 1_555 1_555
H12 C25 1_555 1_555
C26 C25 1_555 1_555
H13 C26 1_555 1_555
C27 C26 1_555 1_555
H14 C27 1_555 1_555
N3 C24 1_555 1_555
C28 N1 1_555 1_555
H15 C28 1_555 1_555
H16 C28 1_555 1_555
C29 C28 1_555 1_555
H17 C29 1_555 1_555
H18 C29 1_555 1_555
C30 C29 1_555 1_555
H19 C30 1_555 1_555
H20 C30 1_555 1_555
C31 C30 1_555 1_555
H21 C31 1_555 1_555
H22 C31 1_555 1_555
C32 C31 1_555 1_555
H23 C32 1_555 1_555
H24 C32 1_555 1_555
C33 C32 1_555 1_555
H25 C33 1_555 1_555
H26 C33 1_555 1_555
H27 C33 1_555 1_555
Pd3 N6 1_555 1_555
Pd4 N5 1_555 1_555
N4 C36 1_555 1_555
O2 C34 1_555 1_555
C34 C35 1_555 1_555
C35 C36 1_555 1_555
C36 C37 1_555 1_555
C37 H28 1_555 1_555
C38 C37 1_555 1_555
H29 C38 1_555 1_555
C39 C38 1_555 1_555
C40 C35 1_555 1_555
H30 C40 1_555 1_555
C41 C39 1_555 1_555
C42 C41 1_555 1_555
C43 C42 1_555 1_555
C44 C43 1_555 1_555
H31 C44 1_555 1_555
C45 C43 1_555 1_555
H32 C45 1_555 1_555
C46 C45 1_555 1_555
H33 C46 1_555 1_555
C47 C46 1_555 1_555
H34 C47 1_555 1_555
N5 C44 1_555 1_555
C48 C34 1_555 1_555
C49 N4 1_555 1_555
C50 C49 1_555 1_555
H35 C50 1_555 1_555
C51 C50 1_555 1_555
H36 C51 1_555 1_555
C52 C51 1_555 1_555
C53 C48 1_555 1_555
H37 C53 1_555 1_555
C54 C52 1_555 1_555
C55 C54 1_555 1_555
C56 C55 1_555 1_555
C57 C56 1_555 1_555
H38 C57 1_555 1_555
C58 C56 1_555 1_555
H39 C58 1_555 1_555
C59 C58 1_555 1_555
H40 C59 1_555 1_555
C60 C59 1_555 1_555
H41 C60 1_555 1_555
N6 C57 1_555 1_555
C61 N4 1_555 1_555
H42 C61 1_555 1_555
H43 C61 1_555 1_555
C62 C61 1_555 1_555
H44 C62 1_555 1_555
H45 C62 1_555 1_555
C63 C62 1_555 1_555
H46 C63 1_555 1_555
H47 C63 1_555 1_555
C64 C63 1_555 1_555
H48 C64 1_555 1_555
H49 C64 1_555 1_555
C65 C64 1_555 1_555
H50 C65 1_555 1_555
H51 C65 1_555 1_555
C66 C65 1_555 1_555
H52 C66 1_555 1_555
H53 C66 1_555 1_555
H54 C66 1_555 1_555
B1 F1 1_555 1_555
B2 F2 1_555 1_555
C67 H55 1_555 1_555
C68 C67 1_555 1_555
H56 C68 1_555 1_555
C69 C68 1_555 1_555
H57 C69 1_555 1_555
C70 C69 1_555 1_555
H58 C70 1_555 1_555
C71 C70 1_555 1_555
H59 C71 1_555 1_555
C72 C67 1_555 1_555
H60 C72 1_555 1_555
N1A C3A 1_555 1_555
O1A C1A 1_555 1_555
C1A C2A 1_555 1_555
C2A C3A 1_555 1_555
C3A C4A 1_555 1_555
C4A H1A 1_555 1_555
C5A C4A 1_555 1_555
H2A C5A 1_555 1_555
C6A C5A 1_555 1_555
C7A C2A 1_555 1_555
H3A C7A 1_555 1_555
C8A C6A 1_555 1_555
C9A C8A 1_555 1_555
C10A C9A 1_555 1_555
C11A C10A 1_555 1_555
H4A C11A 1_555 1_555
C12A C10A 1_555 1_555
H5A C12A 1_555 1_555
C13A C12A 1_555 1_555
H6A C13A 1_555 1_555
C14A C13A 1_555 1_555
H7A C14A 1_555 1_555
N2A Pd2 1_555 1_555
C15A C1A 1_555 1_555
C16A N1A 1_555 1_555
C17A C16A 1_555 1_555
H8A C17A 1_555 1_555
C18A C17A 1_555 1_555
H9A C18A 1_555 1_555
C19A C18A 1_555 1_555
C20A C15A 1_555 1_555
H10A C20A 1_555 1_555
C21A C19A 1_555 1_555
C22A C21A 1_555 1_555
C23A C22A 1_555 1_555
C24A C23A 1_555 1_555
H11A C24A 1_555 1_555
C25A C23A 1_555 1_555
H12A C25A 1_555 1_555
C26A C25A 1_555 1_555
H13A C26A 1_555 1_555
C27A C26A 1_555 1_555
H14A C27A 1_555 1_555
N3A Pd1 1_555 1_555
C28A N1A 1_555 1_555
H15A C28A 1_555 1_555
H16A C28A 1_555 1_555
C29A C28A 1_555 1_555
H17A C29A 1_555 1_555
H18A C29A 1_555 1_555
C30A C29A 1_555 1_555
H19A C30A 1_555 1_555
H20A C30A 1_555 1_555
C31A C30A 1_555 1_555
H21A C31A 1_555 1_555
H22A C31A 1_555 1_555
C32A C31A 1_555 1_555
H23A C32A 1_555 1_555
H24A C32A 1_555 1_555
C33A C32A 1_555 1_555
H25A C33A 1_555 1_555
H26A C33A 1_555 1_555
H27A C33A 1_555 1_555
N1B C3B 1_555 1_555
O1B C1B 1_555 1_555
C1B C2B 1_555 1_555
C2B C3B 1_555 1_555
C3B C4B 1_555 1_555
C4B H1B 1_555 1_555
C5B C4B 1_555 1_555
H2B C5B 1_555 1_555
C6B C5B 1_555 1_555
C7B C2B 1_555 1_555
H3B C7B 1_555 1_555
C8B C6B 1_555 1_555
C9B C8B 1_555 1_555
C10B C9B 1_555 1_555
C11B C10B 1_555 1_555
H4B C11B 1_555 1_555
C12B C10B 1_555 1_555
H5B C12B 1_555 1_555
C13B C12B 1_555 1_555
H6B C13B 1_555 1_555
C14B C13B 1_555 1_555
H7B C14B 1_555 1_555
N2B Pd2 1_555 1_555
C15B C1B 1_555 1_555
C16B N1B 1_555 1_555
C17B C16B 1_555 1_555
H8B C17B 1_555 1_555
C18B C17B 1_555 1_555
H9B C18B 1_555 1_555
C19B C18B 1_555 1_555
C20B C15B 1_555 1_555
H10B C20B 1_555 1_555
C21B C19B 1_555 1_555
C22B C21B 1_555 1_555
C23B C22B 1_555 1_555
C24B C23B 1_555 1_555
H11B C24B 1_555 1_555
C25B C23B 1_555 1_555
H12B C25B 1_555 1_555
C26B C25B 1_555 1_555
H13B C26B 1_555 1_555
C27B C26B 1_555 1_555
H14B C27B 1_555 1_555
N3B Pd1 1_555 1_555
C28B N1B 1_555 1_555
H15B C28B 1_555 1_555
H16B C28B 1_555 1_555
C29B C28B 1_555 1_555
H17B C29B 1_555 1_555
H18B C29B 1_555 1_555
C30B C29B 1_555 1_555
H19B C30B 1_555 1_555
H20B C30B 1_555 1_555
C31B C30B 1_555 1_555
H21B C31B 1_555 1_555
H22B C31B 1_555 1_555
C32B C31B 1_555 1_555
H23B C32B 1_555 1_555
H24B C32B 1_555 1_555
C33B C32B 1_555 1_555
H25B C33B 1_555 1_555
H26B C33B 1_555 1_555
H27B C33B 1_555 1_555
N1C C3C 1_555 1_555
O1C C1C 1_555 1_555
C1C C2C 1_555 1_555
C2C C3C 1_555 1_555
C3C C4C 1_555 1_555
C4C H1C 1_555 1_555
C5C C4C 1_555 1_555
H2C C5C 1_555 1_555
C6C C5C 1_555 1_555
C7C C2C 1_555 1_555
H3C C7C 1_555 1_555
C8C C6C 1_555 1_555
C9C C8C 1_555 1_555
C10C C9C 1_555 1_555
C11C C10C 1_555 1_555
H4C C11C 1_555 1_555
C12C C10C 1_555 1_555
H5C C12C 1_555 1_555
C13C C12C 1_555 1_555
H6C C13C 1_555 1_555
C14C C13C 1_555 1_555
H7C C14C 1_555 1_555
N2C Pd2 1_555 1_555
C15C C1C 1_555 1_555
C16C N1C 1_555 1_555
C17C C16C 1_555 1_555
H8C C17C 1_555 1_555
C18C C17C 1_555 1_555
H9C C18C 1_555 1_555
C19C C18C 1_555 1_555
C20C C15C 1_555 1_555
H10C C20C 1_555 1_555
C21C C19C 1_555 1_555
C22C C21C 1_555 1_555
C23C C22C 1_555 1_555
C24C C23C 1_555 1_555
H11C C24C 1_555 1_555
C25C C23C 1_555 1_555
H12C C25C 1_555 1_555
C26C C25C 1_555 1_555
H13C C26C 1_555 1_555
C27C C26C 1_555 1_555
H14C C27C 1_555 1_555
N3C Pd1 1_555 1_555
C28C N1C 1_555 1_555
H15C C28C 1_555 1_555
H16C C28C 1_555 1_555
C29C C28C 1_555 1_555
H17C C29C 1_555 1_555
H18C C29C 1_555 1_555
C30C C29C 1_555 1_555
H19C C30C 1_555 1_555
H20C C30C 1_555 1_555
C31C C30C 1_555 1_555
H21C C31C 1_555 1_555
H22C C31C 1_555 1_555
C32C C31C 1_555 1_555
H23C C32C 1_555 1_555
H24C C32C 1_555 1_555
C33C C32C 1_555 1_555
H25C C33C 1_555 1_555
H26C C33C 1_555 1_555
H27C C33C 1_555 1_555
N4A C36A 1_555 1_555
O2A C34A 1_555 1_555
C34A C35A 1_555 1_555
C35A C36A 1_555 1_555
C36A C37A 1_555 1_555
C37A H28A 1_555 1_555
C38A C37A 1_555 1_555
H29A C38A 1_555 1_555
C39A C38A 1_555 1_555
C40A C35A 1_555 1_555
H30A C40A 1_555 1_555
C41A C39A 1_555 1_555
C42A C41A 1_555 1_555
C43A C42A 1_555 1_555
C44A C43A 1_555 1_555
H31A C44A 1_555 1_555
C45A C43A 1_555 1_555
H32A C45A 1_555 1_555
C46A C45A 1_555 1_555
H33A C46A 1_555 1_555
C47A C46A 1_555 1_555
H34A C47A 1_555 1_555
N5A Pd4 1_555 1_555
C48A C34A 1_555 1_555
C49A N4A 1_555 1_555
C50A C49A 1_555 1_555
H35A C50A 1_555 1_555
C51A C50A 1_555 1_555
H36A C51A 1_555 1_555
C52A C51A 1_555 1_555
C53A C48A 1_555 1_555
H37A C53A 1_555 1_555
C54A C52A 1_555 1_555
C55A C54A 1_555 1_555
C56A C55A 1_555 1_555
C57A C56A 1_555 1_555
H38A C57A 1_555 1_555
C58A C56A 1_555 1_555
H39A C58A 1_555 1_555
C59A C58A 1_555 1_555
H40A C59A 1_555 1_555
C60A C59A 1_555 1_555
H41A C60A 1_555 1_555
N6A Pd3 1_555 1_555
C61A N4A 1_555 1_555
H42A C61A 1_555 1_555
H43A C61A 1_555 1_555
C62A C61A 1_555 1_555
H44A C62A 1_555 1_555
H45A C62A 1_555 1_555
C63A C62A 1_555 1_555
H46A C63A 1_555 1_555
H47A C63A 1_555 1_555
C64A C63A 1_555 1_555
H48A C64A 1_555 1_555
H49A C64A 1_555 1_555
C65A C64A 1_555 1_555
H50A C65A 1_555 1_555
H51A C65A 1_555 1_555
C66A C65A 1_555 1_555
H52A C66A 1_555 1_555
H53A C66A 1_555 1_555
H54A C66A 1_555 1_555
N4B C36B 1_555 1_555
O2B C34B 1_555 1_555
C34B C35B 1_555 1_555
C35B C36B 1_555 1_555
C36B C37B 1_555 1_555
C37B H28B 1_555 1_555
C38B C37B 1_555 1_555
H29B C38B 1_555 1_555
C39B C38B 1_555 1_555
C40B C35B 1_555 1_555
H30B C40B 1_555 1_555
C41B C39B 1_555 1_555
C42B C41B 1_555 1_555
C43B C42B 1_555 1_555
C44B C43B 1_555 1_555
H31B C44B 1_555 1_555
C45B C43B 1_555 1_555
H32B C45B 1_555 1_555
C46B C45B 1_555 1_555
H33B C46B 1_555 1_555
C47B C46B 1_555 1_555
H34B C47B 1_555 1_555
N5B Pd4 1_555 1_555
C48B C34B 1_555 1_555
C49B N4B 1_555 1_555
C50B C49B 1_555 1_555
H35B C50B 1_555 1_555
C51B C50B 1_555 1_555
H36B C51B 1_555 1_555
C52B C51B 1_555 1_555
C53B C48B 1_555 1_555
H37B C53B 1_555 1_555
C54B C52B 1_555 1_555
C55B C54B 1_555 1_555
C56B C55B 1_555 1_555
C57B C56B 1_555 1_555
H38B C57B 1_555 1_555
C58B C56B 1_555 1_555
H39B C58B 1_555 1_555
C59B C58B 1_555 1_555
H40B C59B 1_555 1_555
C60B C59B 1_555 1_555
H41B C60B 1_555 1_555
N6B Pd3 1_555 1_555
C61B N4B 1_555 1_555
H42B C61B 1_555 1_555
H43B C61B 1_555 1_555
C62B C61B 1_555 1_555
H44B C62B 1_555 1_555
H45B C62B 1_555 1_555
C63B C62B 1_555 1_555
H46B C63B 1_555 1_555
H47B C63B 1_555 1_555
C64B C63B 1_555 1_555
H48B C64B 1_555 1_555
H49B C64B 1_555 1_555
C65B C64B 1_555 1_555
H50B C65B 1_555 1_555
H51B C65B 1_555 1_555
C66B C65B 1_555 1_555
H52B C66B 1_555 1_555
H53B C66B 1_555 1_555
H54B C66B 1_555 1_555
N4C C36C 1_555 1_555
O2C C34C 1_555 1_555
C34C C35C 1_555 1_555
C35C C36C 1_555 1_555
C36C C37C 1_555 1_555
C37C H28C 1_555 1_555
C38C C37C 1_555 1_555
H29C C38C 1_555 1_555
C39C C38C 1_555 1_555
C40C C35C 1_555 1_555
H30C C40C 1_555 1_555
C41C C39C 1_555 1_555
C42C C41C 1_555 1_555
C43C C42C 1_555 1_555
C44C C43C 1_555 1_555
H31C C44C 1_555 1_555
C45C C43C 1_555 1_555
H32C C45C 1_555 1_555
C46C C45C 1_555 1_555
H33C C46C 1_555 1_555
C47C C46C 1_555 1_555
H34C C47C 1_555 1_555
N5C Pd4 1_555 1_555
C48C C34C 1_555 1_555
C49C N4C 1_555 1_555
C50C C49C 1_555 1_555
H35C C50C 1_555 1_555
C51C C50C 1_555 1_555
H36C C51C 1_555 1_555
C52C C51C 1_555 1_555
C53C C48C 1_555 1_555
H37C C53C 1_555 1_555
C54C C52C 1_555 1_555
C55C C54C 1_555 1_555
C56C C55C 1_555 1_555
C57C C56C 1_555 1_555
H38C C57C 1_555 1_555
C58C C56C 1_555 1_555
H39C C58C 1_555 1_555
C59C C58C 1_555 1_555
H40C C59C 1_555 1_555
C60C C59C 1_555 1_555
H41C C60C 1_555 1_555
N6C Pd3 1_555 1_555
C61C N4C 1_555 1_555
H42C C61C 1_555 1_555
H43C C61C 1_555 1_555
C62C C61C 1_555 1_555
H44C C62C 1_555 1_555
H45C C62C 1_555 1_555
C63C C62C 1_555 1_555
H46C C63C 1_555 1_555
H47C C63C 1_555 1_555
C64C C63C 1_555 1_555
H48C C64C 1_555 1_555
H49C C64C 1_555 1_555
C65C C64C 1_555 1_555
H50C C65C 1_555 1_555
H51C C65C 1_555 1_555
C66C C65C 1_555 1_555
H52C C66C 1_555 1_555
H53C C66C 1_555 1_555
H54C C66C 1_555 1_555
F1A B1 1_555 1_555
F1F B1 1_555 1_555
F1G B1 1_555 1_555
F2A B2 1_555 1_555
F2F B2 1_555 1_555
F2G B2 1_555 1_555
C6 C7 1_555 1_555
C14 N2 1_555 1_555
C15 C16 1_555 1_555
C19 C20 1_555 1_555
C27 N3 1_555 1_555
C39 C40 1_555 1_555
C47 N5 1_555 1_555
C48 C49 1_555 1_555
C52 C53 1_555 1_555
C60 N6 1_555 1_555
C71 C72 1_555 1_555
C6A C7A 1_555 1_555
C11A N2A 1_555 1_555
C14A N2A 1_555 1_555
C15A C16A 1_555 1_555
C19A C20A 1_555 1_555
C24A N3A 1_555 1_555
C27A N3A 1_555 1_555
C6B C7B 1_555 1_555
C11B N2B 1_555 1_555
C14B N2B 1_555 1_555
C15B C16B 1_555 1_555
C19B C20B 1_555 1_555
C24B N3B 1_555 1_555
C27B N3B 1_555 1_555
C6C C7C 1_555 1_555
C11C N2C 1_555 1_555
C14C N2C 1_555 1_555
C15C C16C 1_555 1_555
C19C C20C 1_555 1_555
C24C N3C 1_555 1_555
C27C N3C 1_555 1_555
C39A C40A 1_555 1_555
C44A N5A 1_555 1_555
C47A N5A 1_555 1_555
C48A C49A 1_555 1_555
C52A C53A 1_555 1_555
C57A N6A 1_555 1_555
C60A N6A 1_555 1_555
C39B C40B 1_555 1_555
C44B N5B 1_555 1_555
C47B N5B 1_555 1_555
C48B C49B 1_555 1_555
C52B C53B 1_555 1_555
C57B N6B 1_555 1_555
C60B N6B 1_555 1_555
C39C C40C 1_555 1_555
C44C N5C 1_555 1_555
C47C N5C 1_555 1_555
C48C C49C 1_555 1_555
C52C C53C 1_555 1_555
C57C N6C 1_555 1_555
C60C N6C 1_555 1_555

#END
