# generated using pymatgen
data_B6H228Pd4C276N24Cl2(O3F8)3
_symmetry_space_group_name_H-M   'P 1'
_cell_length_a   19.94000000
_cell_length_b   28.77900000
_cell_length_c   44.37600000
_cell_angle_alpha   90.00000000
_cell_angle_beta   90.00000000
_cell_angle_gamma   108.92000000
_symmetry_Int_Tables_number   1
_chemical_formula_structural   B6H228Pd4C276N24Cl2(O3F8)3
_chemical_formula_sum   'B24 H912 Pd16 C1104 N96 Cl8 O36 F96'
_cell_volume   24089.47829998
_cell_formula_units_Z   4
loop_
 _symmetry_equiv_pos_site_id
 _symmetry_equiv_pos_as_xyz
  1  'x, y, z'
loop_
 _atom_site_type_symbol
 _atom_site_label
 _atom_site_symmetry_multiplicity
 _atom_site_fract_x
 _atom_site_fract_y
 _atom_site_fract_z
 _atom_site_occupancy
  B  B1  1  0.371000  0.956600  0.130300  1
  B  B2  1  0.129000  0.543400  0.630300  1
  B  B3  1  0.629000  0.043400  0.869700  1
  B  B4  1  0.871000  0.456600  0.369700  1
  B  B5  1  0.526600  0.968000  0.687600  1
  B  B6  1  0.973400  0.532000  0.187600  1
  B  B7  1  0.473400  0.032000  0.312400  1
  B  B8  1  0.026600  0.468000  0.812400  1
  B  B9  1  0.151800  0.966500  0.498600  1
  B  B10  1  0.348200  0.533500  0.998600  1
  B  B11  1  0.848200  0.033500  0.501400  1
  B  B12  1  0.651800  0.466500  0.001400  1
  B  B13  1  0.924300  0.726600  0.196900  1
  B  B14  1  0.575700  0.773400  0.696900  1
  B  B15  1  0.075700  0.273400  0.803100  1
  B  B16  1  0.424300  0.226600  0.303100  1
  B  B17  1  0.419200  0.605000  0.832900  1
  B  B18  1  0.080800  0.895000  0.332900  1
  B  B19  1  0.580800  0.395000  0.167100  1
  B  B20  1  0.919200  0.105000  0.667100  1
  B  B21  1  0.596900  0.806300  0.991600  1
  B  B22  1  0.903100  0.693700  0.491600  1
  B  B23  1  0.403100  0.193700  0.008400  1
  B  B24  1  0.096900  0.306300  0.508400  1
  H  H25  1  0.855300  0.671000  0.148600  1
  H  H26  1  0.644700  0.829000  0.648600  1
  H  H27  1  0.144700  0.329000  0.851400  1
  H  H28  1  0.355300  0.171000  0.351400  1
  H  H29  1  0.380400  0.741600  0.992600  1
  H  H30  1  0.119600  0.758400  0.492600  1
  H  H31  1  0.619600  0.258400  0.007400  1
  H  H32  1  0.880400  0.241600  0.507400  1
  H  H33  1  0.361700  0.695300  0.013600  1
  H  H34  1  0.138300  0.804700  0.513600  1
  H  H35  1  0.638300  0.304700  0.986400  1
  H  H36  1  0.861700  0.195300  0.486400  1
  H  H37  1  0.308700  0.698700  0.988300  1
  H  H38  1  0.191300  0.801300  0.488300  1
  H  H39  1  0.691300  0.301300  0.011700  1
  H  H40  1  0.808700  0.198700  0.511700  1
  H  H41  1  0.370300  0.647600  0.974400  1
  H  H42  1  0.129700  0.852400  0.474400  1
  H  H43  1  0.629700  0.352400  0.025600  1
  H  H44  1  0.870300  0.147600  0.525600  1
  H  H45  1  0.441600  0.690900  0.978200  1
  H  H46  1  0.058400  0.809100  0.478200  1
  H  H47  1  0.558400  0.309100  0.021800  1
  H  H48  1  0.941600  0.190900  0.521800  1
  H  H49  1  0.413800  0.732300  0.938500  1
  H  H50  1  0.086200  0.767700  0.438500  1
  H  H51  1  0.586200  0.267700  0.061500  1
  H  H52  1  0.913800  0.232300  0.561500  1
  H  H53  1  0.338600  0.692900  0.935700  1
  H  H54  1  0.161400  0.807100  0.435700  1
  H  H55  1  0.661400  0.307100  0.064300  1
  H  H56  1  0.838600  0.192900  0.564300  1
  H  H57  1  0.403800  0.634900  0.923100  1
  H  H58  1  0.096200  0.865100  0.423100  1
  H  H59  1  0.596200  0.365100  0.076900  1
  H  H60  1  0.903800  0.134900  0.576900  1
  H  H61  1  0.397200  0.671200  0.897700  1
  H  H62  1  0.102800  0.828800  0.397700  1
  H  H63  1  0.602800  0.328800  0.102300  1
  H  H64  1  0.897200  0.171200  0.602300  1
  H  H65  1  0.510200  0.719900  0.903300  1
  H  H66  1  0.989800  0.780100  0.403300  1
  H  H67  1  0.489800  0.280100  0.096700  1
  H  H68  1  0.010200  0.219900  0.596700  1
  H  H69  1  0.515000  0.701400  0.936500  1
  H  H70  1  0.985000  0.798600  0.436500  1
  H  H71  1  0.485000  0.298600  0.063500  1
  H  H72  1  0.015000  0.201400  0.563500  1
  H  H73  1  0.507800  0.645500  0.883600  1
  H  H74  1  0.992200  0.854500  0.383600  1
  H  H75  1  0.492200  0.354500  0.116400  1
  H  H76  1  0.007800  0.145500  0.616400  1
  H  H77  1  0.499700  0.621700  0.915700  1
  H  H78  1  0.000300  0.878300  0.415700  1
  H  H79  1  0.500300  0.378300  0.084300  1
  H  H80  1  0.999700  0.121700  0.584300  1
  H  H81  1  0.821800  0.726100  0.867600  1
  H  H82  1  0.678200  0.773900  0.367600  1
  H  H83  1  0.178200  0.273900  0.132400  1
  H  H84  1  0.321800  0.226100  0.632400  1
  H  H85  1  0.658100  0.727200  0.814600  1
  H  H86  1  0.841900  0.772800  0.314600  1
  H  H87  1  0.341900  0.272800  0.185400  1
  H  H88  1  0.158100  0.227200  0.685400  1
  H  H89  1  0.579400  0.689300  0.852700  1
  H  H90  1  0.920600  0.810700  0.352700  1
  H  H91  1  0.420600  0.310700  0.147300  1
  H  H92  1  0.079400  0.189300  0.647300  1
  H  H93  1  0.535000  0.621500  0.953900  1
  H  H94  1  0.965000  0.878500  0.453900  1
  H  H95  1  0.465000  0.378500  0.046100  1
  H  H96  1  0.035000  0.121500  0.546100  1
  H  H97  1  0.577200  0.611900  0.001600  1
  H  H98  1  0.922800  0.888100  0.501600  1
  H  H99  1  0.422800  0.388100  0.998400  1
  H  H100  1  0.077200  0.111900  0.498400  1
  H  H101  1  0.777500  0.677400  0.972800  1
  H  H102  1  0.722500  0.822600  0.472800  1
  H  H103  1  0.222500  0.322600  0.027200  1
  H  H104  1  0.277500  0.177400  0.527200  1
  H  H105  1  0.963800  0.814100  0.777700  1
  H  H106  1  0.536200  0.685900  0.277700  1
  H  H107  1  0.036200  0.185900  0.222300  1
  H  H108  1  0.463800  0.314100  0.722300  1
  H  H109  1  0.773100  0.777700  0.738800  1
  H  H110  1  0.726900  0.722300  0.238800  1
  H  H111  1  0.226900  0.222300  0.261200  1
  H  H112  1  0.273100  0.277700  0.761200  1
  H  H113  1  0.826200  0.820600  0.696100  1
  H  H114  1  0.673800  0.679400  0.196100  1
  H  H115  1  0.173800  0.179400  0.303900  1
  H  H116  1  0.326200  0.320600  0.803900  1
  H  H117  1  0.946500  0.856700  0.695700  1
  H  H118  1  0.553500  0.643300  0.195700  1
  H  H119  1  0.053500  0.143300  0.304300  1
  H  H120  1  0.446500  0.356700  0.804300  1
  H  H121  1  0.857500  0.700500  0.063500  1
  H  H122  1  0.642500  0.799500  0.563500  1
  H  H123  1  0.142500  0.299500  0.936500  1
  H  H124  1  0.357500  0.200500  0.436500  1
  H  H125  1  0.681000  0.610700  0.100100  1
  H  H126  1  0.819000  0.889300  0.600100  1
  H  H127  1  0.319000  0.389300  0.899900  1
  H  H128  1  0.181000  0.110700  0.399900  1
  H  H129  1  0.738800  0.621600  0.146500  1
  H  H130  1  0.761200  0.878400  0.646500  1
  H  H131  1  0.261200  0.378400  0.853500  1
  H  H132  1  0.238800  0.121600  0.353500  1
  H  H133  1  0.982500  0.649500  0.141300  1
  H  H134  1  0.517500  0.850500  0.641300  1
  H  H135  1  0.017500  0.350500  0.858700  1
  H  H136  1  0.482500  0.149500  0.358700  1
  H  H137  1  0.140800  0.475300  0.980100  1
  H  H138  1  0.359200  0.024700  0.480100  1
  H  H139  1  0.859200  0.524700  0.019900  1
  H  H140  1  0.640800  0.975300  0.519900  1
  H  H141  1  0.083700  0.423600  0.985000  1
  H  H142  1  0.416300  0.076400  0.485000  1
  H  H143  1  0.916300  0.576400  0.015000  1
  H  H144  1  0.583700  0.923600  0.515000  1
  H  H145  1  0.070900  0.459800  0.961000  1
  H  H146  1  0.429100  0.040200  0.461000  1
  H  H147  1  0.929100  0.540200  0.039000  1
  H  H148  1  0.570900  0.959800  0.539000  1
  H  H149  1  0.105900  0.406500  0.933000  1
  H  H150  1  0.394100  0.093500  0.433000  1
  H  H151  1  0.894100  0.593500  0.067000  1
  H  H152  1  0.605900  0.906500  0.567000  1
  H  H153  1  0.164000  0.405200  0.956400  1
  H  H154  1  0.336000  0.094800  0.456400  1
  H  H155  1  0.836000  0.594800  0.043600  1
  H  H156  1  0.664000  0.905200  0.543600  1
  H  H157  1  0.228000  0.488900  0.940500  1
  H  H158  1  0.272000  0.011100  0.440500  1
  H  H159  1  0.772000  0.511100  0.059500  1
  H  H160  1  0.728000  0.988900  0.559500  1
  H  H161  1  0.228300  0.446800  0.918100  1
  H  H162  1  0.271700  0.053200  0.418100  1
  H  H163  1  0.771700  0.553200  0.081900  1
  H  H164  1  0.728300  0.946800  0.581900  1
  H  H165  1  0.137800  0.461200  0.890600  1
  H  H166  1  0.362200  0.038800  0.390600  1
  H  H167  1  0.862200  0.538800  0.109400  1
  H  H168  1  0.637800  0.961200  0.609400  1
  H  H169  1  0.137800  0.503100  0.912900  1
  H  H170  1  0.362200  0.996900  0.412900  1
  H  H171  1  0.862200  0.496900  0.087100  1
  H  H172  1  0.637800  0.003100  0.587100  1
  H  H173  1  0.185600  0.529500  0.867300  1
  H  H174  1  0.314400  0.970500  0.367300  1
  H  H175  1  0.814400  0.470500  0.132700  1
  H  H176  1  0.685600  0.029500  0.632700  1
  H  H177  1  0.246300  0.507700  0.874000  1
  H  H178  1  0.253700  0.992300  0.374000  1
  H  H179  1  0.753700  0.492300  0.126000  1
  H  H180  1  0.746300  0.007700  0.626000  1
  H  H181  1  0.275700  0.566100  0.916700  1
  H  H182  1  0.224300  0.933900  0.416700  1
  H  H183  1  0.724300  0.433900  0.083300  1
  H  H184  1  0.775700  0.066100  0.583300  1
  H  H185  1  0.299900  0.586800  0.884400  1
  H  H186  1  0.200100  0.913200  0.384400  1
  H  H187  1  0.700100  0.413200  0.115600  1
  H  H188  1  0.799900  0.086800  0.615600  1
  H  H189  1  0.126200  0.709400  0.852400  1
  H  H190  1  0.373800  0.790600  0.352400  1
  H  H191  1  0.873800  0.290600  0.147600  1
  H  H192  1  0.626200  0.209400  0.647600  1
  H  H193  1  0.238500  0.643900  0.802700  1
  H  H194  1  0.261500  0.856100  0.302700  1
  H  H195  1  0.761500  0.356100  0.197300  1
  H  H196  1  0.738500  0.143900  0.697300  1
  H  H197  1  0.257000  0.602400  0.845100  1
  H  H198  1  0.243000  0.897600  0.345100  1
  H  H199  1  0.743000  0.397600  0.154900  1
  H  H200  1  0.757000  0.102400  0.654900  1
  H  H201  1  0.231600  0.569400  0.951300  1
  H  H202  1  0.268400  0.930600  0.451300  1
  H  H203  1  0.768400  0.430600  0.048700  1
  H  H204  1  0.731600  0.069400  0.548700  1
  H  H205  1  0.180900  0.575800  0.997400  1
  H  H206  1  0.319100  0.924200  0.497400  1
  H  H207  1  0.819100  0.424200  0.002600  1
  H  H208  1  0.680900  0.075800  0.502600  1
  H  H209  1  0.095900  0.672800  0.961500  1
  H  H210  1  0.404100  0.827200  0.461500  1
  H  H211  1  0.904100  0.327200  0.038500  1
  H  H212  1  0.595900  0.172800  0.538500  1
  H  H213  1  0.099200  0.797000  0.770900  1
  H  H214  1  0.400800  0.703000  0.270900  1
  H  H215  1  0.900800  0.203000  0.229100  1
  H  H216  1  0.599200  0.297000  0.729100  1
  H  H217  1  0.168600  0.712800  0.716300  1
  H  H218  1  0.331400  0.787200  0.216300  1
  H  H219  1  0.831400  0.287200  0.283700  1
  H  H220  1  0.668600  0.212800  0.783700  1
  H  H221  1  0.148400  0.756800  0.675200  1
  H  H222  1  0.351600  0.743200  0.175200  1
  H  H223  1  0.851600  0.243200  0.324800  1
  H  H224  1  0.648400  0.256800  0.824800  1
  H  H225  1  0.105900  0.821300  0.684400  1
  H  H226  1  0.394100  0.678700  0.184400  1
  H  H227  1  0.894100  0.178700  0.315600  1
  H  H228  1  0.605900  0.321300  0.815600  1
  H  H229  1  0.026300  0.697700  0.059300  1
  H  H230  1  0.473700  0.802300  0.559300  1
  H  H231  1  0.973700  0.302300  0.940700  1
  H  H232  1  0.526300  0.197700  0.440700  1
  H  H233  1  0.066500  0.576500  0.084700  1
  H  H234  1  0.433500  0.923500  0.584700  1
  H  H235  1  0.933500  0.423500  0.915300  1
  H  H236  1  0.566500  0.076500  0.415300  1
  H  H237  1  0.022500  0.584800  0.132400  1
  H  H238  1  0.477500  0.915200  0.632400  1
  H  H239  1  0.977500  0.415200  0.867600  1
  H  H240  1  0.522500  0.084800  0.367600  1
  H  H241  1  0.079500  0.777300  0.156000  1
  H  H242  1  0.420500  0.722700  0.656000  1
  H  H243  1  0.920500  0.222700  0.844000  1
  H  H244  1  0.579500  0.277300  0.344000  1
  H  H245  1  0.693600  0.242900  0.910500  1
  H  H246  1  0.806400  0.257100  0.410500  1
  H  H247  1  0.306400  0.757100  0.089500  1
  H  H248  1  0.193600  0.742900  0.589500  1
  H  H249  1  0.635900  0.198500  0.895400  1
  H  H250  1  0.864100  0.301500  0.395400  1
  H  H251  1  0.364100  0.801500  0.104600  1
  H  H252  1  0.135900  0.698500  0.604600  1
  H  H253  1  0.709000  0.193600  0.904900  1
  H  H254  1  0.791000  0.306400  0.404900  1
  H  H255  1  0.291000  0.806400  0.095100  1
  H  H256  1  0.209000  0.693600  0.595100  1
  H  H257  1  0.674800  0.177100  0.953800  1
  H  H258  1  0.825200  0.322900  0.453800  1
  H  H259  1  0.325200  0.822900  0.046200  1
  H  H260  1  0.174800  0.677100  0.546200  1
  H  H261  1  0.632700  0.214800  0.953800  1
  H  H262  1  0.867300  0.285200  0.453800  1
  H  H263  1  0.367300  0.785200  0.046200  1
  H  H264  1  0.132700  0.714800  0.546200  1
  H  H265  1  0.539600  0.158200  0.926400  1
  H  H266  1  0.960400  0.341800  0.426400  1
  H  H267  1  0.460400  0.841800  0.073600  1
  H  H268  1  0.039600  0.658200  0.573600  1
  H  H269  1  0.581600  0.120700  0.926300  1
  H  H270  1  0.918400  0.379300  0.426300  1
  H  H271  1  0.418400  0.879300  0.073700  1
  H  H272  1  0.081600  0.620700  0.573700  1
  H  H273  1  0.536200  0.152000  0.978600  1
  H  H274  1  0.963800  0.348000  0.478600  1
  H  H275  1  0.463800  0.848000  0.021400  1
  H  H276  1  0.036200  0.652000  0.521400  1
  H  H277  1  0.567300  0.108800  0.975400  1
  H  H278  1  0.932700  0.391200  0.475400  1
  H  H279  1  0.432700  0.891200  0.024600  1
  H  H280  1  0.067300  0.608800  0.524600  1
  H  H281  1  0.429500  0.083700  0.979700  1
  H  H282  1  0.070500  0.416300  0.479700  1
  H  H283  1  0.570500  0.916300  0.020300  1
  H  H284  1  0.929500  0.583700  0.520300  1
  H  H285  1  0.432700  0.095200  0.944700  1
  H  H286  1  0.067300  0.404800  0.444700  1
  H  H287  1  0.567300  0.904800  0.055300  1
  H  H288  1  0.932700  0.595200  0.555300  1
  H  H289  1  0.492400  0.032600  0.973400  1
  H  H290  1  0.007600  0.467400  0.473400  1
  H  H291  1  0.507600  0.967400  0.026600  1
  H  H292  1  0.992400  0.532600  0.526600  1
  H  H293  1  0.505900  0.047700  0.938900  1
  H  H294  1  0.994100  0.452300  0.438900  1
  H  H295  1  0.494100  0.952300  0.061100  1
  H  H296  1  0.005900  0.547700  0.561100  1
  H  H297  1  0.249200  0.926400  0.873500  1
  H  H298  1  0.250800  0.573600  0.373500  1
  H  H299  1  0.750800  0.073600  0.126500  1
  H  H300  1  0.749200  0.426400  0.626500  1
  H  H301  1  0.412000  0.046000  0.850400  1
  H  H302  1  0.088000  0.454000  0.350400  1
  H  H303  1  0.588000  0.954000  0.149600  1
  H  H304  1  0.912000  0.546000  0.649600  1
  H  H305  1  0.447100  0.057700  0.900500  1
  H  H306  1  0.052900  0.442300  0.400500  1
  H  H307  1  0.552900  0.942300  0.099500  1
  H  H308  1  0.947100  0.557700  0.599500  1
  H  H309  1  0.420200  0.009300  0.003100  1
  H  H310  1  0.079800  0.490700  0.503100  1
  H  H311  1  0.579800  0.990700  0.996900  1
  H  H312  1  0.920200  0.509300  0.496900  1
  H  H313  1  0.355200  0.963000  0.042500  1
  H  H314  1  0.144800  0.537000  0.542500  1
  H  H315  1  0.644800  0.037000  0.957500  1
  H  H316  1  0.855200  0.463000  0.457500  1
  H  H317  1  0.208300  0.885000  0.983400  1
  H  H318  1  0.291700  0.615000  0.483400  1
  H  H319  1  0.791700  0.115000  0.016600  1
  H  H320  1  0.708300  0.385000  0.516600  1
  H  H321  1  0.176800  0.916900  0.781100  1
  H  H322  1  0.323200  0.583100  0.281100  1
  H  H323  1  0.823200  0.083100  0.218900  1
  H  H324  1  0.676800  0.416900  0.718900  1
  H  H325  1  0.361600  0.992900  0.743600  1
  H  H326  1  0.138400  0.507100  0.243600  1
  H  H327  1  0.638400  0.007100  0.256400  1
  H  H328  1  0.861600  0.492900  0.756400  1
  H  H329  1  0.311600  0.972200  0.696500  1
  H  H330  1  0.188400  0.527800  0.196500  1
  H  H331  1  0.688400  0.027800  0.303500  1
  H  H332  1  0.811600  0.472200  0.803500  1
  H  H333  1  0.194200  0.924500  0.693100  1
  H  H334  1  0.305800  0.575500  0.193100  1
  H  H335  1  0.805800  0.075500  0.306900  1
  H  H336  1  0.694200  0.424500  0.806900  1
  H  H337  1  0.082600  0.800500  0.069300  1
  H  H338  1  0.417400  0.699500  0.569300  1
  H  H339  1  0.917400  0.199500  0.930700  1
  H  H340  1  0.582600  0.300500  0.430700  1
  H  H341  1  0.245700  0.878800  0.119300  1
  H  H342  1  0.254300  0.621200  0.619300  1
  H  H343  1  0.754300  0.121200  0.880700  1
  H  H344  1  0.745700  0.378800  0.380700  1
  H  H345  1  0.188900  0.836000  0.161700  1
  H  H346  1  0.311100  0.664000  0.661700  1
  H  H347  1  0.811100  0.164000  0.838300  1
  H  H348  1  0.688900  0.336000  0.338300  1
  H  H349  1  0.954600  0.815200  0.158100  1
  H  H350  1  0.545400  0.684800  0.658100  1
  H  H351  1  0.045400  0.184800  0.841900  1
  H  H352  1  0.454600  0.315200  0.341900  1
  H  H353  1  0.383600  0.872200  0.956700  1
  H  H354  1  0.116400  0.627800  0.456700  1
  H  H355  1  0.616400  0.127800  0.043300  1
  H  H356  1  0.883600  0.372200  0.543300  1
  H  H357  1  0.463400  0.900800  0.963600  1
  H  H358  1  0.036600  0.599200  0.463600  1
  H  H359  1  0.536600  0.099200  0.036400  1
  H  H360  1  0.963400  0.400800  0.536400  1
  H  H361  1  0.437500  0.843400  0.961100  1
  H  H362  1  0.062500  0.656600  0.461100  1
  H  H363  1  0.562500  0.156600  0.038900  1
  H  H364  1  0.937500  0.343400  0.538900  1
  H  H365  1  0.439600  0.906400  0.914100  1
  H  H366  1  0.060400  0.593600  0.414100  1
  H  H367  1  0.560400  0.093600  0.085900  1
  H  H368  1  0.939600  0.406400  0.585900  1
  H  H369  1  0.412800  0.849000  0.911600  1
  H  H370  1  0.087200  0.651000  0.411600  1
  H  H371  1  0.587200  0.151000  0.088400  1
  H  H372  1  0.912800  0.349000  0.588400  1
  H  H373  1  0.528900  0.848600  0.922500  1
  H  H374  1  0.971100  0.651400  0.422500  1
  H  H375  1  0.471100  0.151400  0.077500  1
  H  H376  1  0.028900  0.348600  0.577500  1
  H  H377  1  0.524700  0.875000  0.892100  1
  H  H378  1  0.975300  0.625000  0.392100  1
  H  H379  1  0.475300  0.125000  0.107900  1
  H  H380  1  0.024700  0.375000  0.607900  1
  H  H381  1  0.577100  0.923500  0.945500  1
  H  H382  1  0.922900  0.576500  0.445500  1
  H  H383  1  0.422900  0.076500  0.054500  1
  H  H384  1  0.077100  0.423500  0.554500  1
  H  H385  1  0.573400  0.949800  0.914900  1
  H  H386  1  0.926600  0.550200  0.414900  1
  H  H387  1  0.426600  0.050200  0.085100  1
  H  H388  1  0.073400  0.449800  0.585100  1
  H  H389  1  0.659700  0.890300  0.924000  1
  H  H390  1  0.840300  0.609700  0.424000  1
  H  H391  1  0.340300  0.109700  0.076000  1
  H  H392  1  0.159700  0.390300  0.576000  1
  H  H393  1  0.657100  0.918400  0.893900  1
  H  H394  1  0.842900  0.581600  0.393900  1
  H  H395  1  0.342900  0.081600  0.106100  1
  H  H396  1  0.157100  0.418400  0.606100  1
  H  H397  1  0.697200  0.971700  0.947700  1
  H  H398  1  0.802800  0.528300  0.447700  1
  H  H399  1  0.302800  0.028300  0.052300  1
  H  H400  1  0.197200  0.471700  0.552300  1
  H  H401  1  0.712300  0.992600  0.914900  1
  H  H402  1  0.787700  0.507400  0.414900  1
  H  H403  1  0.287700  0.007400  0.085100  1
  H  H404  1  0.212300  0.492600  0.585100  1
  H  H405  1  0.981700  0.974100  0.877500  1
  H  H406  1  0.518300  0.525900  0.377500  1
  H  H407  1  0.018300  0.025900  0.122500  1
  H  H408  1  0.481700  0.474100  0.622500  1
  H  H409  1  0.830200  0.012500  0.834500  1
  H  H410  1  0.669800  0.487500  0.334500  1
  H  H411  1  0.169800  0.987500  0.165500  1
  H  H412  1  0.330200  0.512500  0.665500  1
  H  H413  1  0.758300  0.991700  0.877000  1
  H  H414  1  0.741700  0.508300  0.377000  1
  H  H415  1  0.241700  0.008300  0.123000  1
  H  H416  1  0.258300  0.491700  0.623000  1
  H  H417  1  0.711500  0.920600  0.976400  1
  H  H418  1  0.788500  0.579400  0.476400  1
  H  H419  1  0.288500  0.079400  0.023600  1
  H  H420  1  0.211500  0.420600  0.523600  1
  H  H421  1  0.751200  0.896900  0.021200  1
  H  H422  1  0.748800  0.603100  0.521200  1
  H  H423  1  0.248800  0.103100  0.978800  1
  H  H424  1  0.251200  0.396900  0.478800  1
  H  H425  1  0.945000  0.923100  0.985100  1
  H  H426  1  0.555000  0.576900  0.485100  1
  H  H427  1  0.055000  0.076900  0.014900  1
  H  H428  1  0.445000  0.423100  0.514900  1
  H  H429  1  0.023500  0.931400  0.783500  1
  H  H430  1  0.476500  0.568600  0.283500  1
  H  H431  1  0.976500  0.068600  0.216500  1
  H  H432  1  0.523500  0.431400  0.716500  1
  H  H433  1  0.997300  0.050900  0.747400  1
  H  H434  1  0.502700  0.449100  0.247400  1
  H  H435  1  0.002700  0.949100  0.252600  1
  H  H436  1  0.497300  0.550900  0.752600  1
  H  H437  1  0.030500  0.029000  0.700800  1
  H  H438  1  0.469500  0.471000  0.200800  1
  H  H439  1  0.969500  0.971000  0.299200  1
  H  H440  1  0.530500  0.529000  0.799200  1
  H  H441  1  0.058300  0.957200  0.697200  1
  H  H442  1  0.441700  0.542800  0.197200  1
  H  H443  1  0.941700  0.042800  0.302800  1
  H  H444  1  0.558300  0.457200  0.802800  1
  H  H445  1  0.920600  0.802400  0.071500  1
  H  H446  1  0.579400  0.697600  0.571500  1
  H  H447  1  0.079400  0.197600  0.928500  1
  H  H448  1  0.420600  0.302400  0.428500  1
  H  H449  1  0.914200  0.922700  0.113500  1
  H  H450  1  0.585800  0.577300  0.613500  1
  H  H451  1  0.085800  0.077300  0.886500  1
  H  H452  1  0.414200  0.422700  0.386500  1
  H  H453  1  0.940100  0.890500  0.158600  1
  H  H454  1  0.559900  0.609500  0.658600  1
  H  H455  1  0.059900  0.109500  0.841400  1
  H  H456  1  0.440100  0.390500  0.341400  1
  H  H457  1  0.017200  0.873600  0.533500  1
  H  H458  1  0.482800  0.626400  0.033500  1
  H  H459  1  0.982800  0.126400  0.466500  1
  H  H460  1  0.517200  0.373600  0.966500  1
  H  H461  1  0.340500  0.541800  0.757600  1
  H  H462  1  0.159500  0.958200  0.257600  1
  H  H463  1  0.659500  0.458200  0.242400  1
  H  H464  1  0.840500  0.041800  0.742400  1
  H  H465  1  0.344900  0.515600  0.727000  1
  H  H466  1  0.155100  0.984400  0.227000  1
  H  H467  1  0.655100  0.484400  0.273000  1
  H  H468  1  0.844900  0.015600  0.773000  1
  H  H469  1  0.272300  0.520000  0.737800  1
  H  H470  1  0.227700  0.980000  0.237800  1
  H  H471  1  0.727700  0.480000  0.262200  1
  H  H472  1  0.772300  0.020000  0.762200  1
  H  H473  1  0.341900  0.583600  0.698700  1
  H  H474  1  0.158100  0.916400  0.198700  1
  H  H475  1  0.658100  0.416400  0.301300  1
  H  H476  1  0.841900  0.083600  0.801300  1
  H  H477  1  0.380500  0.611900  0.728200  1
  H  H478  1  0.119500  0.888100  0.228200  1
  H  H479  1  0.619500  0.388100  0.271800  1
  H  H480  1  0.880500  0.111900  0.771800  1
  H  H481  1  0.267900  0.621700  0.725500  1
  H  H482  1  0.232100  0.878300  0.225500  1
  H  H483  1  0.732100  0.378300  0.274500  1
  H  H484  1  0.767900  0.121700  0.774500  1
  H  H485  1  0.273900  0.592200  0.753700  1
  H  H486  1  0.226100  0.907800  0.253700  1
  H  H487  1  0.726100  0.407800  0.246300  1
  H  H488  1  0.773900  0.092200  0.746300  1
  H  H489  1  0.180300  0.541400  0.709500  1
  H  H490  1  0.319700  0.958600  0.209500  1
  H  H491  1  0.819700  0.458600  0.290500  1
  H  H492  1  0.680300  0.041400  0.790500  1
  H  H493  1  0.175200  0.533300  0.744600  1
  H  H494  1  0.324800  0.966700  0.244600  1
  H  H495  1  0.824800  0.466700  0.255400  1
  H  H496  1  0.675200  0.033300  0.755400  1
  H  H497  1  0.156400  0.614800  0.715200  1
  H  H498  1  0.343600  0.885200  0.215200  1
  H  H499  1  0.843600  0.385200  0.284800  1
  H  H500  1  0.656400  0.114800  0.784800  1
  H  H501  1  0.153900  0.608400  0.750200  1
  H  H502  1  0.346100  0.891600  0.250200  1
  H  H503  1  0.846100  0.391600  0.249800  1
  H  H504  1  0.653900  0.108400  0.749800  1
  H  H505  1  0.051600  0.546000  0.710600  1
  H  H506  1  0.448400  0.954000  0.210600  1
  H  H507  1  0.948400  0.454000  0.289400  1
  H  H508  1  0.551600  0.046000  0.789400  1
  H  H509  1  0.049000  0.539700  0.745800  1
  H  H510  1  0.451000  0.960300  0.245800  1
  H  H511  1  0.951000  0.460300  0.254200  1
  H  H512  1  0.549000  0.039700  0.754200  1
  H  H513  1  0.935700  0.687700  0.795100  1
  H  H514  1  0.564300  0.812300  0.295100  1
  H  H515  1  0.064300  0.312300  0.204900  1
  H  H516  1  0.435700  0.187700  0.704900  1
  H  H517  1  0.999200  0.580900  0.831400  1
  H  H518  1  0.500800  0.919100  0.331400  1
  H  H519  1  0.000800  0.419100  0.168600  1
  H  H520  1  0.499200  0.080900  0.668600  1
  H  H521  1  0.032700  0.562100  0.784300  1
  H  H522  1  0.467300  0.937900  0.284300  1
  H  H523  1  0.967300  0.437900  0.215700  1
  H  H524  1  0.532700  0.062100  0.715700  1
  H  H525  1  0.055100  0.590800  0.676200  1
  H  H526  1  0.444900  0.909200  0.176200  1
  H  H527  1  0.944900  0.409200  0.323800  1
  H  H528  1  0.555100  0.090800  0.823800  1
  H  H529  1  0.037800  0.633400  0.633800  1
  H  H530  1  0.462200  0.866600  0.133800  1
  H  H531  1  0.962200  0.366600  0.366200  1
  H  H532  1  0.537800  0.133400  0.866200  1
  H  H533  1  0.970800  0.722500  0.687300  1
  H  H534  1  0.529200  0.777500  0.187300  1
  H  H535  1  0.029200  0.277500  0.312700  1
  H  H536  1  0.470800  0.222500  0.812700  1
  H  H537  1  0.984200  0.742200  0.906300  1
  H  H538  1  0.515800  0.757800  0.406300  1
  H  H539  1  0.015800  0.257800  0.093700  1
  H  H540  1  0.484200  0.242200  0.593700  1
  H  H541  1  0.909100  0.597500  0.920400  1
  H  H542  1  0.590900  0.902500  0.420400  1
  H  H543  1  0.090900  0.402500  0.079600  1
  H  H544  1  0.409100  0.097500  0.579600  1
  H  H545  1  0.907100  0.611500  0.971500  1
  H  H546  1  0.592900  0.888500  0.471500  1
  H  H547  1  0.092900  0.388500  0.028500  1
  H  H548  1  0.407100  0.111500  0.528500  1
  H  H549  1  0.944600  0.691800  0.988800  1
  H  H550  1  0.555400  0.808200  0.488800  1
  H  H551  1  0.055400  0.308200  0.011200  1
  H  H552  1  0.444600  0.191800  0.511200  1
  H  H553  1  0.044200  0.834200  0.614400  1
  H  H554  1  0.455800  0.665800  0.114400  1
  H  H555  1  0.955800  0.165800  0.385600  1
  H  H556  1  0.544200  0.334200  0.885600  1
  H  H557  1  0.950800  0.731000  0.554400  1
  H  H558  1  0.549200  0.769000  0.054400  1
  H  H559  1  0.049200  0.269000  0.445600  1
  H  H560  1  0.450800  0.231000  0.945600  1
  H  H561  1  0.964200  0.793400  0.518400  1
  H  H562  1  0.535800  0.706600  0.018400  1
  H  H563  1  0.035800  0.206600  0.481600  1
  H  H564  1  0.464200  0.293400  0.981600  1
  H  H565  1  0.038200  0.979500  0.547800  1
  H  H566  1  0.461800  0.520500  0.047800  1
  H  H567  1  0.961800  0.020500  0.452200  1
  H  H568  1  0.538200  0.479500  0.952200  1
  H  H569  1  0.464600  0.930500  0.859600  1
  H  H570  1  0.035400  0.569500  0.359600  1
  H  H571  1  0.535400  0.069500  0.140400  1
  H  H572  1  0.964600  0.430500  0.640400  1
  H  H573  1  0.479800  0.894200  0.836300  1
  H  H574  1  0.020200  0.605800  0.336300  1
  H  H575  1  0.520200  0.105800  0.163700  1
  H  H576  1  0.979800  0.394200  0.663700  1
  H  H577  1  0.404000  0.899300  0.838300  1
  H  H578  1  0.096000  0.600700  0.338300  1
  H  H579  1  0.596000  0.100700  0.161700  1
  H  H580  1  0.904000  0.399300  0.661700  1
  H  H581  1  0.526100  0.973100  0.816700  1
  H  H582  1  0.973900  0.526900  0.316700  1
  H  H583  1  0.473900  0.026900  0.183300  1
  H  H584  1  0.026100  0.473100  0.683300  1
  H  H585  1  0.452900  0.981900  0.821100  1
  H  H586  1  0.047100  0.518100  0.321100  1
  H  H587  1  0.547100  0.018100  0.178900  1
  H  H588  1  0.952900  0.481900  0.678900  1
  H  H589  1  0.399600  0.917600  0.784800  1
  H  H590  1  0.100400  0.582400  0.284800  1
  H  H591  1  0.600400  0.082400  0.215200  1
  H  H592  1  0.899600  0.417600  0.715200  1
  H  H593  1  0.460600  0.960200  0.769600  1
  H  H594  1  0.039400  0.539800  0.269600  1
  H  H595  1  0.539400  0.039800  0.230400  1
  H  H596  1  0.960600  0.460200  0.730400  1
  H  H597  1  0.468400  0.883700  0.756800  1
  H  H598  1  0.031600  0.616300  0.256800  1
  H  H599  1  0.531600  0.116300  0.243200  1
  H  H600  1  0.968400  0.383700  0.743200  1
  H  H601  1  0.474900  0.871900  0.790800  1
  H  H602  1  0.025100  0.628100  0.290800  1
  H  H603  1  0.525100  0.128100  0.209200  1
  H  H604  1  0.974900  0.371900  0.709200  1
  H  H605  1  0.585800  0.947000  0.760700  1
  H  H606  1  0.914200  0.553000  0.260700  1
  H  H607  1  0.414200  0.053000  0.239300  1
  H  H608  1  0.085800  0.447000  0.739300  1
  H  H609  1  0.592200  0.926300  0.793000  1
  H  H610  1  0.907800  0.573700  0.293000  1
  H  H611  1  0.407800  0.073700  0.207000  1
  H  H612  1  0.092200  0.426300  0.707000  1
  H  H613  1  0.584800  0.875700  0.738000  1
  H  H614  1  0.915200  0.624300  0.238000  1
  H  H615  1  0.415200  0.124300  0.262000  1
  H  H616  1  0.084800  0.375700  0.762000  1
  H  H617  1  0.571100  0.847000  0.768700  1
  H  H618  1  0.928900  0.653000  0.268700  1
  H  H619  1  0.428900  0.153000  0.231300  1
  H  H620  1  0.071100  0.347000  0.731300  1
  H  H621  1  0.849200  0.879700  0.823900  1
  H  H622  1  0.650800  0.620300  0.323900  1
  H  H623  1  0.150800  0.120300  0.176100  1
  H  H624  1  0.349200  0.379700  0.676100  1
  H  H625  1  0.653400  0.841400  0.859700  1
  H  H626  1  0.846600  0.658600  0.359700  1
  H  H627  1  0.346600  0.158600  0.140300  1
  H  H628  1  0.153400  0.341400  0.640300  1
  H  H629  1  0.610300  0.861900  0.815000  1
  H  H630  1  0.889700  0.638100  0.315000  1
  H  H631  1  0.389700  0.138100  0.185000  1
  H  H632  1  0.110300  0.361900  0.685000  1
  H  H633  1  0.650400  0.932000  0.715200  1
  H  H634  1  0.849600  0.568000  0.215200  1
  H  H635  1  0.349600  0.068000  0.284800  1
  H  H636  1  0.150400  0.432000  0.784800  1
  H  H637  1  0.722300  0.957700  0.673200  1
  H  H638  1  0.777700  0.542300  0.173200  1
  H  H639  1  0.277700  0.042300  0.326800  1
  H  H640  1  0.222300  0.457700  0.826800  1
  H  H641  1  0.883900  0.933200  0.717600  1
  H  H642  1  0.616100  0.566800  0.217600  1
  H  H643  1  0.116100  0.066800  0.282400  1
  H  H644  1  0.383900  0.433200  0.782400  1
  H  H645  1  0.925000  0.823500  0.917300  1
  H  H646  1  0.575000  0.676500  0.417300  1
  H  H647  1  0.075000  0.176500  0.082700  1
  H  H648  1  0.425000  0.323500  0.582700  1
  H  H649  1  0.730200  0.809200  0.946500  1
  H  H650  1  0.769800  0.690800  0.446500  1
  H  H651  1  0.269800  0.190800  0.053500  1
  H  H652  1  0.230200  0.309200  0.553500  1
  H  H653  1  0.757600  0.780900  0.992200  1
  H  H654  1  0.742400  0.719100  0.492200  1
  H  H655  1  0.242400  0.219100  0.007800  1
  H  H656  1  0.257600  0.280900  0.507800  1
  H  H657  1  0.870700  0.776400  0.998700  1
  H  H658  1  0.629300  0.723600  0.498700  1
  H  H659  1  0.129300  0.223600  0.001300  1
  H  H660  1  0.370700  0.276400  0.501300  1
  H  H661  1  0.998000  0.939300  0.630700  1
  H  H662  1  0.502000  0.560700  0.130700  1
  H  H663  1  0.002000  0.060700  0.369300  1
  H  H664  1  0.498000  0.439300  0.869300  1
  H  H665  1  0.881100  0.010400  0.590400  1
  H  H666  1  0.618900  0.489600  0.090400  1
  H  H667  1  0.118900  0.989600  0.409600  1
  H  H668  1  0.381100  0.510400  0.909600  1
  H  H669  1  0.948300  0.014800  0.546900  1
  H  H670  1  0.551700  0.485200  0.046900  1
  H  H671  1  0.051700  0.985200  0.453100  1
  H  H672  1  0.448300  0.514800  0.953100  1
  H  H673  1  0.199200  0.020400  0.561800  1
  H  H674  1  0.300800  0.479600  0.061800  1
  H  H675  1  0.800800  0.979600  0.438200  1
  H  H676  1  0.699200  0.520400  0.938200  1
  H  H677  1  0.288000  0.255600  0.950000  1
  H  H678  1  0.212000  0.244400  0.450000  1
  H  H679  1  0.712000  0.744400  0.050000  1
  H  H680  1  0.788000  0.755600  0.550000  1
  H  H681  1  0.301100  0.205600  0.944200  1
  H  H682  1  0.198900  0.294400  0.444200  1
  H  H683  1  0.698900  0.794400  0.055800  1
  H  H684  1  0.801100  0.705600  0.555800  1
  H  H685  1  0.224300  0.206300  0.950900  1
  H  H686  1  0.275700  0.293700  0.450900  1
  H  H687  1  0.775700  0.793700  0.049100  1
  H  H688  1  0.724300  0.706300  0.549100  1
  H  H689  1  0.233800  0.195600  0.899000  1
  H  H690  1  0.266200  0.304400  0.399000  1
  H  H691  1  0.766200  0.804400  0.101000  1
  H  H692  1  0.733800  0.695600  0.601000  1
  H  H693  1  0.223700  0.246600  0.904500  1
  H  H694  1  0.276300  0.253400  0.404500  1
  H  H695  1  0.776300  0.753400  0.095500  1
  H  H696  1  0.723700  0.746600  0.595500  1
  H  H697  1  0.347900  0.285500  0.897500  1
  H  H698  1  0.152100  0.214500  0.397500  1
  H  H699  1  0.652100  0.714500  0.102500  1
  H  H700  1  0.847900  0.785500  0.602500  1
  H  H701  1  0.355300  0.233900  0.890100  1
  H  H702  1  0.144700  0.266100  0.390100  1
  H  H703  1  0.644700  0.766100  0.109900  1
  H  H704  1  0.855300  0.733900  0.609900  1
  H  H705  1  0.273700  0.279100  0.856300  1
  H  H706  1  0.226300  0.220900  0.356300  1
  H  H707  1  0.726300  0.720900  0.143700  1
  H  H708  1  0.773700  0.779100  0.643700  1
  H  H709  1  0.346100  0.275100  0.845600  1
  H  H710  1  0.153900  0.224900  0.345600  1
  H  H711  1  0.653900  0.724900  0.154400  1
  H  H712  1  0.846100  0.775100  0.654400  1
  H  H713  1  0.241800  0.220400  0.822000  1
  H  H714  1  0.258200  0.279600  0.322000  1
  H  H715  1  0.758200  0.779600  0.178000  1
  H  H716  1  0.741800  0.720400  0.678000  1
  H  H717  1  0.228100  0.190600  0.852300  1
  H  H718  1  0.271900  0.309400  0.352300  1
  H  H719  1  0.771900  0.809400  0.147700  1
  H  H720  1  0.728100  0.690600  0.647700  1
  H  H721  1  0.340500  0.201300  0.811800  1
  H  H722  1  0.159500  0.298700  0.311800  1
  H  H723  1  0.659500  0.798700  0.188200  1
  H  H724  1  0.840500  0.701300  0.688200  1
  H  H725  1  0.347700  0.185700  0.845100  1
  H  H726  1  0.152300  0.314300  0.345100  1
  H  H727  1  0.652300  0.814300  0.154900  1
  H  H728  1  0.847700  0.685700  0.654900  1
  H  H729  1  0.151800  0.989900  0.860700  1
  H  H730  1  0.348200  0.510100  0.360700  1
  H  H731  1  0.848200  0.010100  0.139300  1
  H  H732  1  0.651800  0.489900  0.639300  1
  H  H733  1  0.261900  0.095200  0.918000  1
  H  H734  1  0.238100  0.404800  0.418000  1
  H  H735  1  0.738100  0.904800  0.082000  1
  H  H736  1  0.761900  0.595200  0.582000  1
  H  H737  1  0.304300  0.148300  0.877900  1
  H  H738  1  0.195700  0.351700  0.377900  1
  H  H739  1  0.695700  0.851700  0.122100  1
  H  H740  1  0.804300  0.648300  0.622100  1
  H  H741  1  0.315700  0.183600  0.772900  1
  H  H742  1  0.184300  0.316400  0.272900  1
  H  H743  1  0.684300  0.816400  0.227100  1
  H  H744  1  0.815700  0.683600  0.727100  1
  H  H745  1  0.299400  0.158600  0.722800  1
  H  H746  1  0.200600  0.341400  0.222800  1
  H  H747  1  0.700600  0.841400  0.277200  1
  H  H748  1  0.799400  0.658600  0.777200  1
  H  H749  1  0.181400  0.022800  0.749600  1
  H  H750  1  0.318600  0.477200  0.249600  1
  H  H751  1  0.818600  0.977200  0.250400  1
  H  H752  1  0.681400  0.522800  0.750400  1
  H  H753  1  0.076700  0.889600  0.936800  1
  H  H754  1  0.423300  0.610400  0.436800  1
  H  H755  1  0.923300  0.110400  0.063200  1
  H  H756  1  0.576700  0.389600  0.563200  1
  H  H757  1  0.138200  0.992200  0.000000  1
  H  H758  1  0.361800  0.507800  0.500000  1
  H  H759  1  0.861800  0.007800  0.000000  1
  H  H760  1  0.638200  0.492200  0.500000  1
  H  H761  1  0.084400  0.934500  0.036400  1
  H  H762  1  0.415600  0.565500  0.536400  1
  H  H763  1  0.915600  0.065500  0.963600  1
  H  H764  1  0.584400  0.434500  0.463600  1
  H  H765  1  0.027900  0.854500  0.021600  1
  H  H766  1  0.472100  0.645500  0.521600  1
  H  H767  1  0.972100  0.145500  0.978400  1
  H  H768  1  0.527900  0.354500  0.478400  1
  H  H769  1  0.151600  0.982000  0.645400  1
  H  H770  1  0.348400  0.518000  0.145400  1
  H  H771  1  0.848400  0.018000  0.354600  1
  H  H772  1  0.651600  0.482000  0.854600  1
  H  H773  1  0.286200  0.115100  0.627300  1
  H  H774  1  0.213800  0.384900  0.127300  1
  H  H775  1  0.713800  0.884900  0.372700  1
  H  H776  1  0.786200  0.615100  0.872700  1
  H  H777  1  0.272700  0.096100  0.576100  1
  H  H778  1  0.227300  0.403900  0.076100  1
  H  H779  1  0.727300  0.903900  0.423900  1
  H  H780  1  0.772700  0.596100  0.923900  1
  H  H781  1  0.188200  0.888100  0.547900  1
  H  H782  1  0.311800  0.611900  0.047900  1
  H  H783  1  0.811800  0.111900  0.452100  1
  H  H784  1  0.688200  0.388100  0.952100  1
  H  H785  1  0.609200  0.678600  0.716000  1
  H  H786  1  0.890800  0.821400  0.216000  1
  H  H787  1  0.390800  0.321400  0.284000  1
  H  H788  1  0.109200  0.178600  0.784000  1
  H  H789  1  0.548500  0.629700  0.723600  1
  H  H790  1  0.951500  0.870300  0.223600  1
  H  H791  1  0.451500  0.370300  0.276400  1
  H  H792  1  0.048500  0.129700  0.776400  1
  H  H793  1  0.627000  0.630000  0.721100  1
  H  H794  1  0.873000  0.870000  0.221100  1
  H  H795  1  0.373000  0.370000  0.278900  1
  H  H796  1  0.127000  0.130000  0.778900  1
  H  H797  1  0.657700  0.675900  0.765000  1
  H  H798  1  0.842300  0.824100  0.265000  1
  H  H799  1  0.342300  0.324100  0.235000  1
  H  H800  1  0.157700  0.175900  0.735000  1
  H  H801  1  0.590900  0.630300  0.772500  1
  H  H802  1  0.909100  0.869700  0.272500  1
  H  H803  1  0.409100  0.369700  0.227500  1
  H  H804  1  0.090900  0.130300  0.727500  1
  H  H805  1  0.573500  0.702700  0.790500  1
  H  H806  1  0.926500  0.797300  0.290500  1
  H  H807  1  0.426500  0.297300  0.209500  1
  H  H808  1  0.073500  0.202700  0.709500  1
  H  H809  1  0.588000  0.726200  0.758700  1
  H  H810  1  0.912000  0.773800  0.258700  1
  H  H811  1  0.412000  0.273800  0.241300  1
  H  H812  1  0.088000  0.226200  0.741300  1
  H  H813  1  0.465200  0.657800  0.777300  1
  H  H814  1  0.034800  0.842200  0.277300  1
  H  H815  1  0.534800  0.342200  0.222700  1
  H  H816  1  0.965200  0.157800  0.722700  1
  H  H817  1  0.479500  0.677000  0.743900  1
  H  H818  1  0.020500  0.823000  0.243900  1
  H  H819  1  0.520500  0.323000  0.256100  1
  H  H820  1  0.979500  0.177000  0.756100  1
  H  H821  1  0.492200  0.750500  0.794900  1
  H  H822  1  0.007800  0.749500  0.294900  1
  H  H823  1  0.507800  0.249500  0.205100  1
  H  H824  1  0.992200  0.250500  0.705100  1
  H  H825  1  0.489700  0.764400  0.760100  1
  H  H826  1  0.010300  0.735600  0.260100  1
  H  H827  1  0.510300  0.235600  0.239900  1
  H  H828  1  0.989700  0.264400  0.739900  1
  H  H829  1  0.382300  0.687000  0.790800  1
  H  H830  1  0.117700  0.813000  0.290800  1
  H  H831  1  0.617700  0.313000  0.209200  1
  H  H832  1  0.882300  0.187000  0.709200  1
  H  H833  1  0.383000  0.692800  0.755000  1
  H  H834  1  0.117000  0.807200  0.255000  1
  H  H835  1  0.617000  0.307200  0.245000  1
  H  H836  1  0.883000  0.192800  0.745000  1
  H  H837  1  0.255600  0.823500  0.841300  1
  H  H838  1  0.244400  0.676500  0.341300  1
  H  H839  1  0.744400  0.176500  0.158700  1
  H  H840  1  0.755600  0.323500  0.658700  1
  H  H841  1  0.359200  0.737100  0.875900  1
  H  H842  1  0.140800  0.762900  0.375900  1
  H  H843  1  0.640800  0.262900  0.124100  1
  H  H844  1  0.859200  0.237100  0.624100  1
  H  H845  1  0.406300  0.731400  0.828500  1
  H  H846  1  0.093700  0.768600  0.328500  1
  H  H847  1  0.593700  0.268600  0.171500  1
  H  H848  1  0.906300  0.231400  0.671500  1
  H  H849  1  0.420700  0.760600  0.723700  1
  H  H850  1  0.079300  0.739400  0.223700  1
  H  H851  1  0.579300  0.239400  0.276300  1
  H  H852  1  0.920700  0.260600  0.776300  1
  H  H853  1  0.387000  0.791800  0.680200  1
  H  H854  1  0.113000  0.708200  0.180200  1
  H  H855  1  0.613000  0.208200  0.319800  1
  H  H856  1  0.887000  0.291800  0.819800  1
  H  H857  1  0.267300  0.852200  0.729300  1
  H  H858  1  0.232700  0.647800  0.229300  1
  H  H859  1  0.732700  0.147800  0.270700  1
  H  H860  1  0.767300  0.352200  0.770700  1
  H  H861  1  0.125800  0.795200  0.924800  1
  H  H862  1  0.374200  0.704800  0.424800  1
  H  H863  1  0.874200  0.204800  0.075200  1
  H  H864  1  0.625800  0.295200  0.575200  1
  H  H865  1  0.282200  0.775300  0.973000  1
  H  H866  1  0.217800  0.724700  0.473000  1
  H  H867  1  0.717800  0.224700  0.027000  1
  H  H868  1  0.782200  0.275300  0.527000  1
  H  H869  1  0.213600  0.768700  0.016300  1
  H  H870  1  0.286400  0.731300  0.516300  1
  H  H871  1  0.786400  0.231300  0.983700  1
  H  H872  1  0.713600  0.268700  0.483700  1
  H  H873  1  0.103100  0.775900  0.011400  1
  H  H874  1  0.396900  0.724100  0.511400  1
  H  H875  1  0.896900  0.224100  0.988600  1
  H  H876  1  0.603100  0.275900  0.488600  1
  H  H877  1  0.196100  0.902500  0.635300  1
  H  H878  1  0.303900  0.597500  0.135300  1
  H  H879  1  0.803900  0.097500  0.364700  1
  H  H880  1  0.696100  0.402500  0.864700  1
  H  H881  1  0.306900  0.826800  0.595400  1
  H  H882  1  0.193100  0.673200  0.095400  1
  H  H883  1  0.693100  0.173200  0.404600  1
  H  H884  1  0.806900  0.326800  0.904600  1
  H  H885  1  0.264200  0.842500  0.549000  1
  H  H886  1  0.235800  0.657500  0.049000  1
  H  H887  1  0.735800  0.157500  0.451000  1
  H  H888  1  0.764200  0.342500  0.951000  1
  H  H889  1  0.068000  0.765200  0.834300  1
  H  H890  1  0.432000  0.734800  0.334300  1
  H  H891  1  0.932000  0.234800  0.165700  1
  H  H892  1  0.568000  0.265200  0.665700  1
  H  H893  1  0.952000  0.755000  0.843900  1
  H  H894  1  0.548000  0.745000  0.343900  1
  H  H895  1  0.048000  0.245000  0.156100  1
  H  H896  1  0.452000  0.255000  0.656100  1
  H  H897  1  0.915500  0.821400  0.849800  1
  H  H898  1  0.584500  0.678600  0.349800  1
  H  H899  1  0.084500  0.178600  0.150200  1
  H  H900  1  0.415500  0.321400  0.650200  1
  H  H901  1  0.997400  0.897700  0.853900  1
  H  H902  1  0.502600  0.602300  0.353900  1
  H  H903  1  0.002600  0.102300  0.146100  1
  H  H904  1  0.497400  0.397700  0.646100  1
  H  H905  1  0.109500  0.908900  0.835000  1
  H  H906  1  0.390500  0.591100  0.335000  1
  H  H907  1  0.890500  0.091100  0.165000  1
  H  H908  1  0.609500  0.408900  0.665000  1
  H  H909  1  0.147600  0.842200  0.831800  1
  H  H910  1  0.352400  0.657800  0.331800  1
  H  H911  1  0.852400  0.157800  0.168200  1
  H  H912  1  0.647600  0.342200  0.668200  1
  H  H913  1  0.034100  0.540700  0.941800  1
  H  H914  1  0.465900  0.959300  0.441800  1
  H  H915  1  0.965900  0.459300  0.058200  1
  H  H916  1  0.534100  0.040700  0.558200  1
  H  H917  1  0.933800  0.512100  0.970300  1
  H  H918  1  0.566200  0.987900  0.470300  1
  H  H919  1  0.066200  0.487900  0.029700  1
  H  H920  1  0.433800  0.012100  0.529700  1
  H  H921  1  0.825600  0.482300  0.947600  1
  H  H922  1  0.674400  0.017700  0.447600  1
  H  H923  1  0.174400  0.517700  0.052400  1
  H  H924  1  0.325600  0.982300  0.552400  1
  H  H925  1  0.817400  0.481300  0.896400  1
  H  H926  1  0.682600  0.018700  0.396400  1
  H  H927  1  0.182600  0.518700  0.103600  1
  H  H928  1  0.317400  0.981300  0.603600  1
  H  H929  1  0.917300  0.510200  0.867800  1
  H  H930  1  0.582700  0.989800  0.367800  1
  H  H931  1  0.082700  0.489800  0.132200  1
  H  H932  1  0.417300  0.010200  0.632200  1
  H  H933  1  0.026100  0.538000  0.890200  1
  H  H934  1  0.473900  0.962000  0.390200  1
  H  H935  1  0.973900  0.462000  0.109800  1
  H  H936  1  0.526100  0.038000  0.609800  1
  Pd  Pd937  1  0.968390  0.738660  0.109560  1
  Pd  Pd938  1  0.531610  0.761340  0.609560  1
  Pd  Pd939  1  0.031610  0.261340  0.890440  1
  Pd  Pd940  1  0.468390  0.238660  0.390440  1
  Pd  Pd941  1  0.071560  0.876360  0.734080  1
  Pd  Pd942  1  0.428440  0.623640  0.234080  1
  Pd  Pd943  1  0.928440  0.123640  0.265920  1
  Pd  Pd944  1  0.571560  0.376360  0.765920  1
  Pd  Pd945  1  0.004620  0.792620  0.964290  1
  Pd  Pd946  1  0.495380  0.707380  0.464290  1
  Pd  Pd947  1  0.995380  0.207380  0.035710  1
  Pd  Pd948  1  0.504620  0.292620  0.535710  1
  Pd  Pd949  1  0.103090  0.927710  0.588970  1
  Pd  Pd950  1  0.396910  0.572290  0.088970  1
  Pd  Pd951  1  0.896910  0.072290  0.411030  1
  Pd  Pd952  1  0.603090  0.427710  0.911030  1
  C  C953  1  0.832000  0.667300  0.130200  1
  C  C954  1  0.668000  0.832700  0.630200  1
  C  C955  1  0.168000  0.332700  0.869800  1
  C  C956  1  0.332000  0.167300  0.369800  1
  C  C957  1  0.357900  0.706600  0.993500  1
  C  C958  1  0.142100  0.793400  0.493500  1
  C  C959  1  0.642100  0.293400  0.006500  1
  C  C960  1  0.857900  0.206600  0.506500  1
  C  C961  1  0.392000  0.682900  0.972700  1
  C  C962  1  0.108000  0.817100  0.472700  1
  C  C963  1  0.608000  0.317100  0.027300  1
  C  C964  1  0.892000  0.182900  0.527300  1
  C  C965  1  0.388000  0.697600  0.940600  1
  C  C966  1  0.112000  0.802400  0.440600  1
  C  C967  1  0.612000  0.302400  0.059400  1
  C  C968  1  0.888000  0.197600  0.559400  1
  C  C969  1  0.417000  0.669200  0.917400  1
  C  C970  1  0.083000  0.830800  0.417400  1
  C  C971  1  0.583000  0.330800  0.082600  1
  C  C972  1  0.917000  0.169200  0.582600  1
  C  C973  1  0.496100  0.691400  0.916500  1
  C  C974  1  0.003900  0.808600  0.416500  1
  C  C975  1  0.503900  0.308600  0.083500  1
  C  C976  1  0.996100  0.191400  0.583500  1
  C  C977  1  0.522400  0.651700  0.904500  1
  C  C978  1  0.977600  0.848300  0.404500  1
  C  C979  1  0.477600  0.348300  0.095500  1
  C  C980  1  0.022400  0.151700  0.595500  1
  C  C981  1  0.773500  0.720000  0.864800  1
  C  C982  1  0.726500  0.780000  0.364800  1
  C  C983  1  0.226500  0.280000  0.135200  1
  C  C984  1  0.273500  0.220000  0.635200  1
  C  C985  1  0.748300  0.730600  0.837300  1
  C  C986  1  0.751700  0.769400  0.337300  1
  C  C987  1  0.251700  0.269400  0.162700  1
  C  C988  1  0.248300  0.230600  0.662700  1
  C  C989  1  0.675100  0.719800  0.832900  1
  C  C990  1  0.824900  0.780200  0.332900  1
  C  C991  1  0.324900  0.280200  0.167100  1
  C  C992  1  0.175100  0.219800  0.667100  1
  C  C993  1  0.628000  0.697800  0.855900  1
  C  C994  1  0.872000  0.802200  0.355900  1
  C  C995  1  0.372000  0.302200  0.144100  1
  C  C996  1  0.128000  0.197800  0.644100  1
  C  C997  1  0.653400  0.688600  0.883600  1
  C  C998  1  0.846600  0.811400  0.383600  1
  C  C999  1  0.346600  0.311400  0.116400  1
  C  C1000  1  0.153400  0.188600  0.616400  1
  C  C1001  1  0.726500  0.700200  0.888200  1
  C  C1002  1  0.773500  0.799800  0.388200  1
  C  C1003  1  0.273500  0.299800  0.111800  1
  C  C1004  1  0.226500  0.200200  0.611800  1
  C  C1005  1  0.753200  0.690800  0.918300  1
  C  C1006  1  0.746800  0.809200  0.418300  1
  C  C1007  1  0.246800  0.309200  0.081700  1
  C  C1008  1  0.253200  0.190800  0.581700  1
  C  C1009  1  0.703800  0.671100  0.940500  1
  C  C1010  1  0.796200  0.828900  0.440500  1
  C  C1011  1  0.296200  0.328900  0.059500  1
  C  C1012  1  0.203800  0.171100  0.559500  1
  C  C1013  1  0.630600  0.656700  0.935100  1
  C  C1014  1  0.869400  0.843300  0.435100  1
  C  C1015  1  0.369400  0.343300  0.064900  1
  C  C1016  1  0.130600  0.156700  0.564900  1
  C  C1017  1  0.583500  0.633100  0.957800  1
  C  C1018  1  0.916500  0.866900  0.457800  1
  C  C1019  1  0.416500  0.366900  0.042200  1
  C  C1020  1  0.083500  0.133100  0.542200  1
  C  C1021  1  0.608800  0.626900  0.986300  1
  C  C1022  1  0.891200  0.873100  0.486300  1
  C  C1023  1  0.391200  0.373100  0.013700  1
  C  C1024  1  0.108800  0.126900  0.513700  1
  C  C1025  1  0.681900  0.643200  0.991900  1
  C  C1026  1  0.818100  0.856800  0.491900  1
  C  C1027  1  0.318100  0.356800  0.008100  1
  C  C1028  1  0.181900  0.143200  0.508100  1
  C  C1029  1  0.729100  0.665800  0.969000  1
  C  C1030  1  0.770900  0.834200  0.469000  1
  C  C1031  1  0.270900  0.334200  0.031000  1
  C  C1032  1  0.229100  0.165800  0.531000  1
  C  C1033  1  0.793800  0.749000  0.811400  1
  C  C1034  1  0.706200  0.751000  0.311400  1
  C  C1035  1  0.206200  0.251000  0.188600  1
  C  C1036  1  0.293800  0.249000  0.688600  1
  C  C1037  1  0.829000  0.766900  0.790800  1
  C  C1038  1  0.671000  0.733100  0.290800  1
  C  C1039  1  0.171000  0.233100  0.209200  1
  C  C1040  1  0.329000  0.266900  0.709200  1
  C  C1041  1  0.935000  0.813800  0.761100  1
  C  C1042  1  0.565000  0.686200  0.261100  1
  C  C1043  1  0.065000  0.186200  0.238900  1
  C  C1044  1  0.435000  0.313800  0.738900  1
  C  C1045  1  0.862100  0.790700  0.763400  1
  C  C1046  1  0.637900  0.709300  0.263400  1
  C  C1047  1  0.137900  0.209300  0.236600  1
  C  C1048  1  0.362100  0.290700  0.736600  1
  C  C1049  1  0.821900  0.793200  0.738300  1
  C  C1050  1  0.678100  0.706800  0.238300  1
  C  C1051  1  0.178100  0.206800  0.261700  1
  C  C1052  1  0.321900  0.293200  0.761700  1
  C  C1053  1  0.853200  0.818200  0.712800  1
  C  C1054  1  0.646800  0.681800  0.212800  1
  C  C1055  1  0.146800  0.181800  0.287200  1
  C  C1056  1  0.353200  0.318200  0.787200  1
  C  C1057  1  0.926000  0.839400  0.712800  1
  C  C1058  1  0.574000  0.660600  0.212800  1
  C  C1059  1  0.074000  0.160600  0.287200  1
  C  C1060  1  0.426000  0.339400  0.787200  1
  C  C1061  1  0.706900  0.641200  0.022300  1
  C  C1062  1  0.793100  0.858800  0.522300  1
  C  C1063  1  0.293100  0.358800  0.977700  1
  C  C1064  1  0.206900  0.141200  0.477700  1
  C  C1065  1  0.730700  0.647100  0.047500  1
  C  C1066  1  0.769300  0.852900  0.547500  1
  C  C1067  1  0.269300  0.352900  0.952500  1
  C  C1068  1  0.230700  0.147100  0.452500  1
  C  C1069  1  0.833400  0.684200  0.080400  1
  C  C1070  1  0.666600  0.815800  0.580400  1
  C  C1071  1  0.166600  0.315800  0.919600  1
  C  C1072  1  0.333400  0.184200  0.419600  1
  C  C1073  1  0.764000  0.654200  0.076500  1
  C  C1074  1  0.736000  0.845800  0.576500  1
  C  C1075  1  0.236000  0.345800  0.923500  1
  C  C1076  1  0.264000  0.154200  0.423500  1
  C  C1077  1  0.728000  0.630700  0.101700  1
  C  C1078  1  0.772000  0.869300  0.601700  1
  C  C1079  1  0.272000  0.369300  0.898300  1
  C  C1080  1  0.228000  0.130700  0.398300  1
  C  C1081  1  0.762100  0.637100  0.129300  1
  C  C1082  1  0.737900  0.862900  0.629300  1
  C  C1083  1  0.237900  0.362900  0.870700  1
  C  C1084  1  0.262100  0.137100  0.370700  1
  C  C1085  1  0.001100  0.646900  0.122400  1
  C  C1086  1  0.498900  0.853100  0.622400  1
  C  C1087  1  0.998900  0.353100  0.877600  1
  C  C1088  1  0.501100  0.146900  0.377600  1
  C  C1089  1  0.106000  0.448400  0.970400  1
  C  C1090  1  0.394000  0.051600  0.470400  1
  C  C1091  1  0.894000  0.551600  0.029600  1
  C  C1092  1  0.606000  0.948400  0.529600  1
  C  C1093  1  0.142100  0.426600  0.946400  1
  C  C1094  1  0.357900  0.073400  0.446400  1
  C  C1095  1  0.857900  0.573400  0.053600  1
  C  C1096  1  0.642100  0.926600  0.553600  1
  C  C1097  1  0.198000  0.463500  0.927400  1
  C  C1098  1  0.302000  0.036500  0.427400  1
  C  C1099  1  0.802000  0.536500  0.072600  1
  C  C1100  1  0.698000  0.963500  0.572600  1
  C  C1101  1  0.168000  0.487300  0.903100  1
  C  C1102  1  0.332000  0.012700  0.403100  1
  C  C1103  1  0.832000  0.512700  0.096900  1
  C  C1104  1  0.668000  0.987300  0.596900  1
  C  C1105  1  0.214300  0.522700  0.883200  1
  C  C1106  1  0.285700  0.977300  0.383200  1
  C  C1107  1  0.785700  0.477300  0.116800  1
  C  C1108  1  0.714300  0.022700  0.616800  1
  C  C1109  1  0.258900  0.571700  0.897000  1
  C  C1110  1  0.241100  0.928300  0.397000  1
  C  C1111  1  0.741100  0.428300  0.103000  1
  C  C1112  1  0.758900  0.071700  0.603000  1
  C  C1113  1  0.151100  0.687200  0.850900  1
  C  C1114  1  0.348900  0.812800  0.350900  1
  C  C1115  1  0.848900  0.312800  0.149100  1
  C  C1116  1  0.651100  0.187200  0.649100  1
  C  C1117  1  0.176800  0.678400  0.823000  1
  C  C1118  1  0.323200  0.821600  0.323000  1
  C  C1119  1  0.823200  0.321600  0.177000  1
  C  C1120  1  0.676800  0.178400  0.677000  1
  C  C1121  1  0.218600  0.648000  0.821100  1
  C  C1122  1  0.281400  0.852000  0.321100  1
  C  C1123  1  0.781400  0.352000  0.178900  1
  C  C1124  1  0.718600  0.148000  0.678900  1
  C  C1125  1  0.230500  0.623600  0.846500  1
  C  C1126  1  0.269500  0.876400  0.346500  1
  C  C1127  1  0.769500  0.376400  0.153500  1
  C  C1128  1  0.730500  0.123600  0.653500  1
  C  C1129  1  0.202700  0.631100  0.874300  1
  C  C1130  1  0.297300  0.868900  0.374300  1
  C  C1131  1  0.797300  0.368900  0.125700  1
  C  C1132  1  0.702700  0.131100  0.625700  1
  C  C1133  1  0.162800  0.662700  0.876500  1
  C  C1134  1  0.337200  0.837300  0.376500  1
  C  C1135  1  0.837200  0.337300  0.123500  1
  C  C1136  1  0.662800  0.162700  0.623500  1
  C  C1137  1  0.137000  0.671600  0.909200  1
  C  C1138  1  0.363000  0.828400  0.409200  1
  C  C1139  1  0.863000  0.328400  0.090800  1
  C  C1140  1  0.637000  0.171600  0.590800  1
  C  C1141  1  0.148100  0.644600  0.931200  1
  C  C1142  1  0.351900  0.855400  0.431200  1
  C  C1143  1  0.851900  0.355400  0.068800  1
  C  C1144  1  0.648100  0.144600  0.568800  1
  C  C1145  1  0.188600  0.613400  0.928000  1
  C  C1146  1  0.311400  0.886600  0.428000  1
  C  C1147  1  0.811400  0.386600  0.072000  1
  C  C1148  1  0.688600  0.113400  0.572000  1
  C  C1149  1  0.202700  0.588900  0.953200  1
  C  C1150  1  0.297300  0.911100  0.453200  1
  C  C1151  1  0.797300  0.411100  0.046800  1
  C  C1152  1  0.702700  0.088900  0.546800  1
  C  C1153  1  0.173700  0.593700  0.981000  1
  C  C1154  1  0.326300  0.906300  0.481000  1
  C  C1155  1  0.826300  0.406300  0.019000  1
  C  C1156  1  0.673700  0.093700  0.519000  1
  C  C1157  1  0.133700  0.625300  0.984300  1
  C  C1158  1  0.366300  0.874700  0.484300  1
  C  C1159  1  0.866300  0.374700  0.015700  1
  C  C1160  1  0.633700  0.125300  0.515700  1
  C  C1161  1  0.121600  0.651200  0.959300  1
  C  C1162  1  0.378400  0.848800  0.459300  1
  C  C1163  1  0.878400  0.348800  0.040700  1
  C  C1164  1  0.621600  0.151200  0.540700  1
  C  C1165  1  0.163000  0.702300  0.795800  1
  C  C1166  1  0.337000  0.797700  0.295800  1
  C  C1167  1  0.837000  0.297700  0.204200  1
  C  C1168  1  0.663000  0.202300  0.704200  1
  C  C1169  1  0.150700  0.725100  0.774500  1
  C  C1170  1  0.349300  0.774900  0.274500  1
  C  C1171  1  0.849300  0.274900  0.225500  1
  C  C1172  1  0.650700  0.225100  0.725500  1
  C  C1173  1  0.110700  0.789400  0.751600  1
  C  C1174  1  0.389300  0.710600  0.251600  1
  C  C1175  1  0.889300  0.210600  0.248400  1
  C  C1176  1  0.610700  0.289400  0.748400  1
  C  C1177  1  0.139000  0.751500  0.748500  1
  C  C1178  1  0.361000  0.748500  0.248500  1
  C  C1179  1  0.861000  0.248500  0.251500  1
  C  C1180  1  0.639000  0.251500  0.751500  1
  C  C1181  1  0.151600  0.739000  0.719400  1
  C  C1182  1  0.348400  0.761000  0.219400  1
  C  C1183  1  0.848400  0.261000  0.280600  1
  C  C1184  1  0.651600  0.239000  0.780600  1
  C  C1185  1  0.139500  0.764900  0.694800  1
  C  C1186  1  0.360500  0.735100  0.194800  1
  C  C1187  1  0.860500  0.235100  0.305200  1
  C  C1188  1  0.639500  0.264900  0.805200  1
  C  C1189  1  0.113700  0.803100  0.700500  1
  C  C1190  1  0.386300  0.696900  0.200500  1
  C  C1191  1  0.886300  0.196900  0.299500  1
  C  C1192  1  0.613700  0.303100  0.799500  1
  C  C1193  1  0.105000  0.631400  0.013300  1
  C  C1194  1  0.395000  0.868600  0.513300  1
  C  C1195  1  0.895000  0.368600  0.986700  1
  C  C1196  1  0.605000  0.131400  0.486700  1
  C  C1197  1  0.079800  0.634200  0.037500  1
  C  C1198  1  0.420200  0.865800  0.537500  1
  C  C1199  1  0.920200  0.365800  0.962500  1
  C  C1200  1  0.579800  0.134200  0.462500  1
  C  C1201  1  0.027300  0.675400  0.074300  1
  C  C1202  1  0.472700  0.824600  0.574300  1
  C  C1203  1  0.972700  0.324600  0.925700  1
  C  C1204  1  0.527300  0.175400  0.425700  1
  C  C1205  1  0.053100  0.637600  0.067000  1
  C  C1206  1  0.446900  0.862400  0.567000  1
  C  C1207  1  0.946900  0.362400  0.933000  1
  C  C1208  1  0.553100  0.137600  0.433000  1
  C  C1209  1  0.050600  0.602800  0.089000  1
  C  C1210  1  0.449400  0.897200  0.589000  1
  C  C1211  1  0.949400  0.397200  0.911000  1
  C  C1212  1  0.550600  0.102800  0.411000  1
  C  C1213  1  0.024300  0.607600  0.117300  1
  C  C1214  1  0.475700  0.892400  0.617300  1
  C  C1215  1  0.975700  0.392400  0.882700  1
  C  C1216  1  0.524300  0.107600  0.382700  1
  C  C1217  1  0.101800  0.794800  0.139100  1
  C  C1218  1  0.398200  0.705200  0.639100  1
  C  C1219  1  0.898200  0.205200  0.860900  1
  C  C1220  1  0.601800  0.294800  0.360900  1
  C  C1221  1  0.673000  0.207800  0.910100  1
  C  C1222  1  0.827000  0.292200  0.410100  1
  C  C1223  1  0.327000  0.792200  0.089900  1
  C  C1224  1  0.173000  0.707800  0.589900  1
  C  C1225  1  0.641400  0.188500  0.942600  1
  C  C1226  1  0.858600  0.311500  0.442600  1
  C  C1227  1  0.358600  0.811500  0.057400  1
  C  C1228  1  0.141400  0.688500  0.557400  1
  C  C1229  1  0.572000  0.146200  0.938000  1
  C  C1230  1  0.928000  0.353800  0.438000  1
  C  C1231  1  0.428000  0.853800  0.062000  1
  C  C1232  1  0.072000  0.646200  0.562000  1
  C  C1233  1  0.538300  0.125500  0.965500  1
  C  C1234  1  0.961700  0.374500  0.465500  1
  C  C1235  1  0.461700  0.874500  0.034500  1
  C  C1236  1  0.038300  0.625500  0.534500  1
  C  C1237  1  0.457300  0.086400  0.961500  1
  C  C1238  1  0.042700  0.413600  0.461500  1
  C  C1239  1  0.542700  0.913600  0.038500  1
  C  C1240  1  0.957300  0.586400  0.538500  1
  C  C1241  1  0.473600  0.044000  0.955800  1
  C  C1242  1  0.026400  0.456000  0.455800  1
  C  C1243  1  0.526400  0.956000  0.044200  1
  C  C1244  1  0.973600  0.544000  0.544200  1
  C  C1245  1  0.289300  0.952300  0.878800  1
  C  C1246  1  0.210700  0.547700  0.378800  1
  C  C1247  1  0.710700  0.047700  0.121200  1
  C  C1248  1  0.789300  0.452300  0.621200  1
  C  C1249  1  0.328700  0.983700  0.856800  1
  C  C1250  1  0.171300  0.516300  0.356800  1
  C  C1251  1  0.671300  0.016300  0.143200  1
  C  C1252  1  0.828700  0.483700  0.643200  1
  C  C1253  1  0.387000  0.024100  0.865000  1
  C  C1254  1  0.113000  0.475900  0.365000  1
  C  C1255  1  0.613000  0.975900  0.135000  1
  C  C1256  1  0.887000  0.524100  0.635000  1
  C  C1257  1  0.407600  0.031400  0.895100  1
  C  C1258  1  0.092400  0.468600  0.395100  1
  C  C1259  1  0.592400  0.968600  0.104900  1
  C  C1260  1  0.907600  0.531400  0.604900  1
  C  C1261  1  0.368800  0.999100  0.917200  1
  C  C1262  1  0.131200  0.500900  0.417200  1
  C  C1263  1  0.631200  0.000900  0.082800  1
  C  C1264  1  0.868800  0.499100  0.582800  1
  C  C1265  1  0.309800  0.959700  0.909100  1
  C  C1266  1  0.190200  0.540300  0.409100  1
  C  C1267  1  0.690200  0.040300  0.090900  1
  C  C1268  1  0.809800  0.459700  0.590900  1
  C  C1269  1  0.262600  0.924800  0.930900  1
  C  C1270  1  0.237400  0.575200  0.430900  1
  C  C1271  1  0.737400  0.075200  0.069100  1
  C  C1272  1  0.762600  0.424800  0.569100  1
  C  C1273  1  0.290100  0.937800  0.963600  1
  C  C1274  1  0.209900  0.562200  0.463600  1
  C  C1275  1  0.709900  0.062200  0.036400  1
  C  C1276  1  0.790100  0.437800  0.536400  1
  C  C1277  1  0.350700  0.977800  0.970100  1
  C  C1278  1  0.149300  0.522200  0.470100  1
  C  C1279  1  0.649300  0.022200  0.029900  1
  C  C1280  1  0.850700  0.477800  0.529900  1
  C  C1281  1  0.377000  0.985200  0.999300  1
  C  C1282  1  0.123000  0.514800  0.499300  1
  C  C1283  1  0.623000  0.014800  0.000700  1
  C  C1284  1  0.877000  0.485200  0.500700  1
  C  C1285  1  0.338900  0.956600  0.022800  1
  C  C1286  1  0.161100  0.543400  0.522800  1
  C  C1287  1  0.661100  0.043400  0.977200  1
  C  C1288  1  0.838900  0.456600  0.477200  1
  C  C1289  1  0.276200  0.918500  0.016900  1
  C  C1290  1  0.223800  0.581500  0.516900  1
  C  C1291  1  0.723800  0.081500  0.983100  1
  C  C1292  1  0.776200  0.418500  0.483100  1
  C  C1293  1  0.251000  0.909600  0.987400  1
  C  C1294  1  0.249000  0.590400  0.487400  1
  C  C1295  1  0.749000  0.090400  0.012600  1
  C  C1296  1  0.751000  0.409600  0.512600  1
  C  C1297  1  0.309200  0.976000  0.825600  1
  C  C1298  1  0.190800  0.524000  0.325600  1
  C  C1299  1  0.690800  0.024000  0.174400  1
  C  C1300  1  0.809200  0.476000  0.674400  1
  C  C1301  1  0.297500  0.967300  0.798600  1
  C  C1302  1  0.202500  0.532700  0.298600  1
  C  C1303  1  0.702500  0.032700  0.201400  1
  C  C1304  1  0.797500  0.467300  0.701400  1
  C  C1305  1  0.204800  0.928500  0.764200  1
  C  C1306  1  0.295200  0.571500  0.264200  1
  C  C1307  1  0.795200  0.071500  0.235800  1
  C  C1308  1  0.704800  0.428500  0.735800  1
  C  C1309  1  0.274300  0.958100  0.767800  1
  C  C1310  1  0.225700  0.541900  0.267800  1
  C  C1311  1  0.725700  0.041900  0.232200  1
  C  C1312  1  0.774300  0.458100  0.732200  1
  C  C1313  1  0.314200  0.973700  0.741900  1
  C  C1314  1  0.185800  0.526300  0.241900  1
  C  C1315  1  0.685800  0.026300  0.258100  1
  C  C1316  1  0.814200  0.473700  0.758100  1
  C  C1317  1  0.284900  0.961400  0.713800  1
  C  C1318  1  0.215100  0.538600  0.213800  1
  C  C1319  1  0.715100  0.038600  0.286200  1
  C  C1320  1  0.784900  0.461400  0.786200  1
  C  C1321  1  0.214900  0.932600  0.712000  1
  C  C1322  1  0.285100  0.567400  0.212000  1
  C  C1323  1  0.785100  0.067400  0.288000  1
  C  C1324  1  0.714900  0.432600  0.788000  1
  C  C1325  1  0.236300  0.888500  0.041000  1
  C  C1326  1  0.263700  0.611500  0.541000  1
  C  C1327  1  0.763700  0.111500  0.959000  1
  C  C1328  1  0.736300  0.388500  0.459000  1
  C  C1329  1  0.204600  0.866800  0.062600  1
  C  C1330  1  0.295400  0.633200  0.562600  1
  C  C1331  1  0.795400  0.133200  0.937400  1
  C  C1332  1  0.704600  0.366800  0.437400  1
  C  C1333  1  0.103500  0.808400  0.088200  1
  C  C1334  1  0.396500  0.691600  0.588200  1
  C  C1335  1  0.896500  0.191600  0.911800  1
  C  C1336  1  0.603500  0.308400  0.411800  1
  C  C1337  1  0.168900  0.843900  0.089600  1
  C  C1338  1  0.331100  0.656100  0.589600  1
  C  C1339  1  0.831100  0.156100  0.910400  1
  C  C1340  1  0.668900  0.343900  0.410400  1
  C  C1341  1  0.201600  0.854800  0.117600  1
  C  C1342  1  0.298400  0.645200  0.617600  1
  C  C1343  1  0.798400  0.145200  0.882400  1
  C  C1344  1  0.701600  0.354800  0.382400  1
  C  C1345  1  0.167700  0.829600  0.142800  1
  C  C1346  1  0.332300  0.670400  0.642800  1
  C  C1347  1  0.832300  0.170400  0.857200  1
  C  C1348  1  0.667700  0.329600  0.357200  1
  C  C1349  1  0.944700  0.827400  0.139900  1
  C  C1350  1  0.555300  0.672600  0.639900  1
  C  C1351  1  0.055300  0.172600  0.860100  1
  C  C1352  1  0.444700  0.327400  0.360100  1
  C  C1353  1  0.431000  0.872900  0.953400  1
  C  C1354  1  0.069000  0.627100  0.453400  1
  C  C1355  1  0.569000  0.127100  0.046600  1
  C  C1356  1  0.931000  0.372900  0.546600  1
  C  C1357  1  0.446500  0.876700  0.921700  1
  C  C1358  1  0.053500  0.623300  0.421700  1
  C  C1359  1  0.553500  0.123300  0.078300  1
  C  C1360  1  0.946500  0.376700  0.578300  1
  C  C1361  1  0.521700  0.877600  0.913800  1
  C  C1362  1  0.978300  0.622400  0.413800  1
  C  C1363  1  0.478300  0.122400  0.086200  1
  C  C1364  1  0.021700  0.377600  0.586200  1
  C  C1365  1  0.579900  0.920700  0.923700  1
  C  C1366  1  0.920100  0.579300  0.423700  1
  C  C1367  1  0.420100  0.079300  0.076300  1
  C  C1368  1  0.079900  0.420700  0.576300  1
  C  C1369  1  0.653000  0.919700  0.915600  1
  C  C1370  1  0.847000  0.580300  0.415600  1
  C  C1371  1  0.347000  0.080300  0.084400  1
  C  C1372  1  0.153000  0.419700  0.584400  1
  C  C1373  1  0.710300  0.964700  0.927600  1
  C  C1374  1  0.789700  0.535300  0.427600  1
  C  C1375  1  0.289700  0.035300  0.072400  1
  C  C1376  1  0.210300  0.464700  0.572400  1
  C  C1377  1  0.937200  0.978000  0.877500  1
  C  C1378  1  0.562800  0.522000  0.377500  1
  C  C1379  1  0.062800  0.022000  0.122500  1
  C  C1380  1  0.437200  0.478000  0.622500  1
  C  C1381  1  0.912800  0.994900  0.851700  1
  C  C1382  1  0.587200  0.505100  0.351700  1
  C  C1383  1  0.087200  0.005100  0.148300  1
  C  C1384  1  0.412800  0.494900  0.648300  1
  C  C1385  1  0.846200  0.000600  0.851700  1
  C  C1386  1  0.653800  0.499400  0.351700  1
  C  C1387  1  0.153800  0.999400  0.148300  1
  C  C1388  1  0.346200  0.500600  0.648300  1
  C  C1389  1  0.803300  0.988600  0.877200  1
  C  C1390  1  0.696700  0.511400  0.377200  1
  C  C1391  1  0.196700  0.011400  0.122800  1
  C  C1392  1  0.303300  0.488600  0.622800  1
  C  C1393  1  0.827900  0.972000  0.903200  1
  C  C1394  1  0.672100  0.528000  0.403200  1
  C  C1395  1  0.172100  0.028000  0.096800  1
  C  C1396  1  0.327900  0.472000  0.596800  1
  C  C1397  1  0.895200  0.966800  0.903300  1
  C  C1398  1  0.604800  0.533200  0.403300  1
  C  C1399  1  0.104800  0.033200  0.096700  1
  C  C1400  1  0.395200  0.466800  0.596700  1
  C  C1401  1  0.924000  0.948400  0.930200  1
  C  C1402  1  0.576000  0.551600  0.430200  1
  C  C1403  1  0.076000  0.051600  0.069800  1
  C  C1404  1  0.424000  0.448400  0.569800  1
  C  C1405  1  0.875200  0.938200  0.956500  1
  C  C1406  1  0.624800  0.561800  0.456500  1
  C  C1407  1  0.124800  0.061800  0.043500  1
  C  C1408  1  0.375200  0.438200  0.543500  1
  C  C1409  1  0.805800  0.939100  0.954200  1
  C  C1410  1  0.694200  0.560900  0.454200  1
  C  C1411  1  0.194200  0.060900  0.045800  1
  C  C1412  1  0.305800  0.439100  0.545800  1
  C  C1413  1  0.758500  0.922000  0.978300  1
  C  C1414  1  0.741500  0.578000  0.478300  1
  C  C1415  1  0.241500  0.078000  0.021700  1
  C  C1416  1  0.258500  0.422000  0.521700  1
  C  C1417  1  0.782200  0.907200  0.005000  1
  C  C1418  1  0.717800  0.592800  0.505000  1
  C  C1419  1  0.217800  0.092800  0.995000  1
  C  C1420  1  0.282200  0.407200  0.495000  1
  C  C1421  1  0.852300  0.907700  0.007600  1
  C  C1422  1  0.647700  0.592300  0.507600  1
  C  C1423  1  0.147700  0.092300  0.992400  1
  C  C1424  1  0.352300  0.407700  0.492400  1
  C  C1425  1  0.898500  0.922900  0.983400  1
  C  C1426  1  0.601500  0.577100  0.483400  1
  C  C1427  1  0.101500  0.077100  0.016600  1
  C  C1428  1  0.398500  0.422900  0.516600  1
  C  C1429  1  0.950200  0.999600  0.823400  1
  C  C1430  1  0.549800  0.500400  0.323400  1
  C  C1431  1  0.049800  0.000400  0.176600  1
  C  C1432  1  0.450200  0.499600  0.676600  1
  C  C1433  1  0.981700  0.000100  0.800200  1
  C  C1434  1  0.518300  0.499900  0.300200  1
  C  C1435  1  0.018300  0.999900  0.199800  1
  C  C1436  1  0.481700  0.500100  0.699800  1
  C  C1437  1  0.025700  0.951500  0.766900  1
  C  C1438  1  0.474300  0.548500  0.266900  1
  C  C1439  1  0.974300  0.048500  0.233100  1
  C  C1440  1  0.525700  0.451500  0.733100  1
  C  C1441  1  0.007700  0.993700  0.770600  1
  C  C1442  1  0.492300  0.506300  0.270600  1
  C  C1443  1  0.992300  0.006300  0.229400  1
  C  C1444  1  0.507700  0.493700  0.729400  1
  C  C1445  1  0.009400  0.022500  0.745600  1
  C  C1446  1  0.490600  0.477500  0.245600  1
  C  C1447  1  0.990600  0.977500  0.254400  1
  C  C1448  1  0.509400  0.522500  0.754400  1
  C  C1449  1  0.029000  0.009600  0.717700  1
  C  C1450  1  0.471000  0.490400  0.217700  1
  C  C1451  1  0.971000  0.990400  0.282300  1
  C  C1452  1  0.529000  0.509600  0.782300  1
  C  C1453  1  0.046200  0.967000  0.715900  1
  C  C1454  1  0.453800  0.533000  0.215900  1
  C  C1455  1  0.953800  0.033000  0.284100  1
  C  C1456  1  0.546200  0.467000  0.784100  1
  C  C1457  1  0.877900  0.896700  0.036400  1
  C  C1458  1  0.622100  0.603300  0.536400  1
  C  C1459  1  0.122100  0.103300  0.963600  1
  C  C1460  1  0.377900  0.396700  0.463600  1
  C  C1461  1  0.896800  0.882800  0.059400  1
  C  C1462  1  0.603200  0.617200  0.559400  1
  C  C1463  1  0.103200  0.117200  0.940600  1
  C  C1464  1  0.396800  0.382800  0.440600  1
  C  C1465  1  0.924500  0.820000  0.089400  1
  C  C1466  1  0.575500  0.680000  0.589400  1
  C  C1467  1  0.075500  0.180000  0.910600  1
  C  C1468  1  0.424500  0.320000  0.410600  1
  C  C1469  1  0.913800  0.865100  0.087500  1
  C  C1470  1  0.586200  0.634900  0.587500  1
  C  C1471  1  0.086200  0.134900  0.912500  1
  C  C1472  1  0.413800  0.365100  0.412500  1
  C  C1473  1  0.920300  0.892000  0.113800  1
  C  C1474  1  0.579700  0.608000  0.613800  1
  C  C1475  1  0.079700  0.108000  0.886200  1
  C  C1476  1  0.420300  0.392000  0.386200  1
  C  C1477  1  0.935800  0.873100  0.140700  1
  C  C1478  1  0.564200  0.626900  0.640700  1
  C  C1479  1  0.064200  0.126900  0.859300  1
  C  C1480  1  0.435800  0.373100  0.359300  1
  C  C1481  1  0.013400  0.848400  0.547100  1
  C  C1482  1  0.486600  0.651600  0.047100  1
  C  C1483  1  0.986600  0.151600  0.452900  1
  C  C1484  1  0.513400  0.348400  0.952900  1
  C  C1485  1  0.323000  0.536100  0.737300  1
  C  C1486  1  0.177000  0.963900  0.237300  1
  C  C1487  1  0.677000  0.463900  0.262700  1
  C  C1488  1  0.823000  0.036100  0.762700  1
  C  C1489  1  0.339000  0.586300  0.720400  1
  C  C1490  1  0.161000  0.913700  0.220400  1
  C  C1491  1  0.661000  0.413700  0.279600  1
  C  C1492  1  0.839000  0.086300  0.779600  1
  C  C1493  1  0.267000  0.589400  0.732100  1
  C  C1494  1  0.233000  0.910600  0.232100  1
  C  C1495  1  0.733000  0.410600  0.267900  1
  C  C1496  1  0.767000  0.089400  0.767900  1
  C  C1497  1  0.188000  0.558000  0.728900  1
  C  C1498  1  0.312000  0.942000  0.228900  1
  C  C1499  1  0.812000  0.442000  0.271100  1
  C  C1500  1  0.688000  0.058000  0.771100  1
  C  C1501  1  0.143400  0.590700  0.731300  1
  C  C1502  1  0.356600  0.909300  0.231300  1
  C  C1503  1  0.856600  0.409300  0.268700  1
  C  C1504  1  0.643400  0.090700  0.768700  1
  C  C1505  1  0.063200  0.563400  0.729600  1
  C  C1506  1  0.436800  0.936600  0.229600  1
  C  C1507  1  0.936800  0.436600  0.270400  1
  C  C1508  1  0.563200  0.063400  0.770400  1
  C  C1509  1  0.956500  0.663300  0.793000  1
  C  C1510  1  0.543500  0.836700  0.293000  1
  C  C1511  1  0.043500  0.336700  0.207000  1
  C  C1512  1  0.456500  0.163300  0.707000  1
  C  C1513  1  0.969100  0.638700  0.818400  1
  C  C1514  1  0.530900  0.861300  0.318400  1
  C  C1515  1  0.030900  0.361300  0.181600  1
  C  C1516  1  0.469100  0.138700  0.681600  1
  C  C1517  1  0.994700  0.599200  0.814800  1
  C  C1518  1  0.505300  0.900800  0.314800  1
  C  C1519  1  0.005300  0.400800  0.185200  1
  C  C1520  1  0.494700  0.099200  0.685200  1
  C  C1521  1  0.013400  0.587300  0.786500  1
  C  C1522  1  0.486600  0.912700  0.286500  1
  C  C1523  1  0.986600  0.412700  0.213500  1
  C  C1524  1  0.513400  0.087300  0.713500  1
  C  C1525  1  0.003300  0.613000  0.761100  1
  C  C1526  1  0.496700  0.887000  0.261100  1
  C  C1527  1  0.996700  0.387000  0.238900  1
  C  C1528  1  0.503300  0.113000  0.738900  1
  C  C1529  1  0.975200  0.651200  0.764500  1
  C  C1530  1  0.524800  0.848800  0.264500  1
  C  C1531  1  0.024800  0.348800  0.235500  1
  C  C1532  1  0.475200  0.151200  0.735500  1
  C  C1533  1  0.968500  0.683100  0.738100  1
  C  C1534  1  0.531500  0.816900  0.238100  1
  C  C1535  1  0.031500  0.316900  0.261900  1
  C  C1536  1  0.468500  0.183100  0.761900  1
  C  C1537  1  0.985500  0.665200  0.709600  1
  C  C1538  1  0.514500  0.834800  0.209600  1
  C  C1539  1  0.014500  0.334800  0.290400  1
  C  C1540  1  0.485500  0.165200  0.790400  1
  C  C1541  1  0.014100  0.627000  0.706600  1
  C  C1542  1  0.485900  0.873000  0.206600  1
  C  C1543  1  0.985900  0.373000  0.293400  1
  C  C1544  1  0.514100  0.127000  0.793400  1
  C  C1545  1  0.035400  0.615800  0.678200  1
  C  C1546  1  0.464600  0.884200  0.178200  1
  C  C1547  1  0.964600  0.384200  0.321800  1
  C  C1548  1  0.535400  0.115800  0.821800  1
  C  C1549  1  0.027100  0.642400  0.652900  1
  C  C1550  1  0.472900  0.857600  0.152900  1
  C  C1551  1  0.972900  0.357600  0.347100  1
  C  C1552  1  0.527100  0.142400  0.847100  1
  C  C1553  1  0.002700  0.682400  0.656300  1
  C  C1554  1  0.497300  0.817600  0.156300  1
  C  C1555  1  0.997300  0.317600  0.343700  1
  C  C1556  1  0.502700  0.182400  0.843700  1
  C  C1557  1  0.984100  0.694700  0.684800  1
  C  C1558  1  0.515900  0.805300  0.184800  1
  C  C1559  1  0.015900  0.305300  0.315200  1
  C  C1560  1  0.484100  0.194700  0.815200  1
  C  C1561  1  0.953700  0.650600  0.848900  1
  C  C1562  1  0.546300  0.849400  0.348900  1
  C  C1563  1  0.046300  0.349400  0.151100  1
  C  C1564  1  0.453700  0.150600  0.651100  1
  C  C1565  1  0.946900  0.657800  0.875900  1
  C  C1566  1  0.553100  0.842200  0.375900  1
  C  C1567  1  0.053100  0.342200  0.124100  1
  C  C1568  1  0.446900  0.157800  0.624100  1
  C  C1569  1  0.967900  0.715400  0.919200  1
  C  C1570  1  0.532100  0.784600  0.419200  1
  C  C1571  1  0.032100  0.284600  0.080800  1
  C  C1572  1  0.467900  0.215400  0.580800  1
  C  C1573  1  0.945600  0.668600  0.907500  1
  C  C1574  1  0.554400  0.831400  0.407500  1
  C  C1575  1  0.054400  0.331400  0.092500  1
  C  C1576  1  0.445600  0.168600  0.592500  1
  C  C1577  1  0.923400  0.629500  0.927600  1
  C  C1578  1  0.576600  0.870500  0.427600  1
  C  C1579  1  0.076600  0.370500  0.072400  1
  C  C1580  1  0.423400  0.129500  0.572400  1
  C  C1581  1  0.922500  0.637700  0.958100  1
  C  C1582  1  0.577500  0.862300  0.458100  1
  C  C1583  1  0.077500  0.362300  0.041900  1
  C  C1584  1  0.422500  0.137700  0.541900  1
  C  C1585  1  0.944600  0.685200  0.968300  1
  C  C1586  1  0.555400  0.814800  0.468300  1
  C  C1587  1  0.055400  0.314800  0.031700  1
  C  C1588  1  0.444600  0.185200  0.531700  1
  C  C1589  1  0.995400  0.710500  0.630200  1
  C  C1590  1  0.504600  0.789500  0.130200  1
  C  C1591  1  0.004600  0.289500  0.369800  1
  C  C1592  1  0.495400  0.210500  0.869800  1
  C  C1593  1  0.997000  0.738200  0.609800  1
  C  C1594  1  0.503000  0.761800  0.109800  1
  C  C1595  1  0.003000  0.261800  0.390200  1
  C  C1596  1  0.497000  0.238200  0.890200  1
  C  C1597  1  0.030300  0.825400  0.594600  1
  C  C1598  1  0.469700  0.674600  0.094600  1
  C  C1599  1  0.969700  0.174600  0.405400  1
  C  C1600  1  0.530300  0.325400  0.905400  1
  C  C1601  1  0.000100  0.775700  0.588200  1
  C  C1602  1  0.499900  0.724300  0.088200  1
  C  C1603  1  0.999900  0.224300  0.411800  1
  C  C1604  1  0.500100  0.275700  0.911800  1
  C  C1605  1  0.973500  0.763700  0.559500  1
  C  C1606  1  0.526500  0.736300  0.059500  1
  C  C1607  1  0.026500  0.236300  0.440500  1
  C  C1608  1  0.473500  0.263700  0.940500  1
  C  C1609  1  0.980800  0.800800  0.538000  1
  C  C1610  1  0.519200  0.699200  0.038000  1
  C  C1611  1  0.019200  0.199200  0.462000  1
  C  C1612  1  0.480800  0.300800  0.962000  1
  C  C1613  1  0.010300  0.978100  0.564800  1
  C  C1614  1  0.489700  0.521900  0.064800  1
  C  C1615  1  0.989700  0.021900  0.435200  1
  C  C1616  1  0.510300  0.478100  0.935200  1
  C  C1617  1  0.454000  0.916600  0.839800  1
  C  C1618  1  0.046000  0.583400  0.339800  1
  C  C1619  1  0.546000  0.083400  0.160200  1
  C  C1620  1  0.954000  0.416600  0.660200  1
  C  C1621  1  0.475100  0.957400  0.816500  1
  C  C1622  1  0.024900  0.542600  0.316500  1
  C  C1623  1  0.524900  0.042600  0.183500  1
  C  C1624  1  0.975100  0.457400  0.683500  1
  C  C1625  1  0.450400  0.934200  0.784500  1
  C  C1626  1  0.049600  0.565800  0.284500  1
  C  C1627  1  0.549600  0.065800  0.215500  1
  C  C1628  1  0.950400  0.434200  0.715500  1
  C  C1629  1  0.487500  0.898200  0.776000  1
  C  C1630  1  0.012500  0.601800  0.276000  1
  C  C1631  1  0.512500  0.101800  0.224000  1
  C  C1632  1  0.987500  0.398200  0.724000  1
  C  C1633  1  0.571100  0.917800  0.773200  1
  C  C1634  1  0.928900  0.582200  0.273200  1
  C  C1635  1  0.428900  0.082200  0.226800  1
  C  C1636  1  0.071100  0.417800  0.726800  1
  C  C1637  1  0.595500  0.878400  0.759400  1
  C  C1638  1  0.904500  0.621600  0.259400  1
  C  C1639  1  0.404500  0.121600  0.240600  1
  C  C1640  1  0.095500  0.378400  0.740600  1
  C  C1641  1  0.801200  0.875800  0.822100  1
  C  C1642  1  0.698800  0.624200  0.322100  1
  C  C1643  1  0.198800  0.124200  0.177900  1
  C  C1644  1  0.301200  0.375800  0.677900  1
  C  C1645  1  0.756000  0.859200  0.846600  1
  C  C1646  1  0.744000  0.640800  0.346600  1
  C  C1647  1  0.244000  0.140800  0.153400  1
  C  C1648  1  0.256000  0.359200  0.653400  1
  C  C1649  1  0.684000  0.853200  0.843600  1
  C  C1650  1  0.816000  0.646800  0.343600  1
  C  C1651  1  0.316000  0.146800  0.156400  1
  C  C1652  1  0.184000  0.353200  0.656400  1
  C  C1653  1  0.658000  0.865000  0.816600  1
  C  C1654  1  0.842000  0.635000  0.316600  1
  C  C1655  1  0.342000  0.135000  0.183400  1
  C  C1656  1  0.158000  0.365000  0.683400  1
  C  C1657  1  0.703400  0.881400  0.792000  1
  C  C1658  1  0.796600  0.618600  0.292000  1
  C  C1659  1  0.296600  0.118600  0.208000  1
  C  C1660  1  0.203400  0.381400  0.708000  1
  C  C1661  1  0.775000  0.886600  0.794900  1
  C  C1662  1  0.725000  0.613400  0.294900  1
  C  C1663  1  0.225000  0.113400  0.205100  1
  C  C1664  1  0.275000  0.386600  0.705100  1
  C  C1665  1  0.821000  0.901000  0.768800  1
  C  C1666  1  0.679000  0.599000  0.268800  1
  C  C1667  1  0.179000  0.099000  0.231200  1
  C  C1668  1  0.321000  0.401000  0.731200  1
  C  C1669  1  0.793500  0.916600  0.742000  1
  C  C1670  1  0.706500  0.583400  0.242000  1
  C  C1671  1  0.206500  0.083400  0.258000  1
  C  C1672  1  0.293500  0.416600  0.758000  1
  C  C1673  1  0.722200  0.913300  0.740600  1
  C  C1674  1  0.777800  0.586700  0.240600  1
  C  C1675  1  0.277800  0.086700  0.259400  1
  C  C1676  1  0.222200  0.413300  0.759400  1
  C  C1677  1  0.696600  0.931200  0.715400  1
  C  C1678  1  0.803400  0.568800  0.215400  1
  C  C1679  1  0.303400  0.068800  0.284600  1
  C  C1680  1  0.196600  0.431200  0.784600  1
  C  C1681  1  0.740300  0.947700  0.690500  1
  C  C1682  1  0.759700  0.552300  0.190500  1
  C  C1683  1  0.259700  0.052300  0.309500  1
  C  C1684  1  0.240300  0.447700  0.809500  1
  C  C1685  1  0.811100  0.949400  0.691300  1
  C  C1686  1  0.688900  0.550600  0.191300  1
  C  C1687  1  0.188900  0.050600  0.308700  1
  C  C1688  1  0.311100  0.449400  0.808700  1
  C  C1689  1  0.837300  0.933000  0.717100  1
  C  C1690  1  0.662700  0.567000  0.217100  1
  C  C1691  1  0.162700  0.067000  0.282900  1
  C  C1692  1  0.337300  0.433000  0.782900  1
  C  C1693  1  0.784700  0.847400  0.874400  1
  C  C1694  1  0.715300  0.652600  0.374400  1
  C  C1695  1  0.215300  0.152600  0.125600  1
  C  C1696  1  0.284700  0.347400  0.625600  1
  C  C1697  1  0.800700  0.836200  0.899000  1
  C  C1698  1  0.699300  0.663800  0.399000  1
  C  C1699  1  0.199300  0.163800  0.101000  1
  C  C1700  1  0.300700  0.336200  0.601000  1
  C  C1701  1  0.891100  0.816000  0.932600  1
  C  C1702  1  0.608900  0.684000  0.432600  1
  C  C1703  1  0.108900  0.184000  0.067400  1
  C  C1704  1  0.391100  0.316000  0.567400  1
  C  C1705  1  0.825200  0.820900  0.926800  1
  C  C1706  1  0.674800  0.679100  0.426800  1
  C  C1707  1  0.174800  0.179100  0.073200  1
  C  C1708  1  0.325200  0.320900  0.573200  1
  C  C1709  1  0.775200  0.807100  0.949700  1
  C  C1710  1  0.724800  0.692900  0.449700  1
  C  C1711  1  0.224800  0.192900  0.050300  1
  C  C1712  1  0.275200  0.307100  0.550300  1
  C  C1713  1  0.791000  0.790300  0.976800  1
  C  C1714  1  0.709000  0.709700  0.476800  1
  C  C1715  1  0.209000  0.209700  0.023200  1
  C  C1716  1  0.291000  0.290300  0.523200  1
  C  C1717  1  0.859300  0.787800  0.980500  1
  C  C1718  1  0.640700  0.712200  0.480500  1
  C  C1719  1  0.140700  0.212200  0.019500  1
  C  C1720  1  0.359300  0.287800  0.519500  1
  C  C1721  1  0.855000  0.963700  0.664800  1
  C  C1722  1  0.645000  0.536300  0.164800  1
  C  C1723  1  0.145000  0.036300  0.335200  1
  C  C1724  1  0.355000  0.463700  0.835200  1
  C  C1725  1  0.890200  0.969900  0.642200  1
  C  C1726  1  0.609800  0.530100  0.142200  1
  C  C1727  1  0.109800  0.030100  0.357800  1
  C  C1728  1  0.390200  0.469900  0.857800  1
  C  C1729  1  0.986700  0.954200  0.613800  1
  C  C1730  1  0.513300  0.545800  0.113800  1
  C  C1731  1  0.013300  0.045800  0.386200  1
  C  C1732  1  0.486700  0.454200  0.886200  1
  C  C1733  1  0.932600  0.974200  0.615500  1
  C  C1734  1  0.567400  0.525800  0.115500  1
  C  C1735  1  0.067400  0.025800  0.384500  1
  C  C1736  1  0.432600  0.474200  0.884500  1
  C  C1737  1  0.917600  0.996900  0.590100  1
  C  C1738  1  0.582400  0.503100  0.090100  1
  C  C1739  1  0.082400  0.003100  0.409900  1
  C  C1740  1  0.417600  0.496900  0.909900  1
  C  C1741  1  0.957100  0.999300  0.564200  1
  C  C1742  1  0.542900  0.500700  0.064200  1
  C  C1743  1  0.042900  0.000700  0.435800  1
  C  C1744  1  0.457100  0.499300  0.935800  1
  C  C1745  1  0.203500  0.027700  0.582200  1
  C  C1746  1  0.296500  0.472300  0.082200  1
  C  C1747  1  0.796500  0.972300  0.417800  1
  C  C1748  1  0.703500  0.527700  0.917800  1
  C  C1749  1  0.268600  0.223500  0.941300  1
  C  C1750  1  0.231400  0.276500  0.441300  1
  C  C1751  1  0.731400  0.776500  0.058700  1
  C  C1752  1  0.768600  0.723500  0.558700  1
  C  C1753  1  0.256300  0.228200  0.907200  1
  C  C1754  1  0.243700  0.271800  0.407200  1
  C  C1755  1  0.743700  0.771800  0.092800  1
  C  C1756  1  0.756300  0.728200  0.592800  1
  C  C1757  1  0.323500  0.253200  0.889100  1
  C  C1758  1  0.176500  0.246800  0.389100  1
  C  C1759  1  0.676500  0.746800  0.110900  1
  C  C1760  1  0.823500  0.753200  0.610900  1
  C  C1761  1  0.303100  0.258100  0.856600  1
  C  C1762  1  0.196900  0.241900  0.356600  1
  C  C1763  1  0.696900  0.741900  0.143400  1
  C  C1764  1  0.803100  0.758100  0.643400  1
  C  C1765  1  0.264700  0.211900  0.839500  1
  C  C1766  1  0.235300  0.288100  0.339500  1
  C  C1767  1  0.735300  0.788100  0.160500  1
  C  C1768  1  0.764700  0.711900  0.660500  1
  C  C1769  1  0.313900  0.184400  0.829100  1
  C  C1770  1  0.186100  0.315600  0.329100  1
  C  C1771  1  0.686100  0.815600  0.170900  1
  C  C1772  1  0.813900  0.684400  0.670900  1
  C  C1773  1  0.181400  0.021900  0.864100  1
  C  C1774  1  0.318600  0.478100  0.364100  1
  C  C1775  1  0.818600  0.978100  0.135900  1
  C  C1776  1  0.681400  0.521900  0.635900  1
  C  C1777  1  0.198900  0.038400  0.893400  1
  C  C1778  1  0.301100  0.461600  0.393400  1
  C  C1779  1  0.801100  0.961600  0.106600  1
  C  C1780  1  0.698900  0.538400  0.606600  1
  C  C1781  1  0.247300  0.085100  0.898500  1
  C  C1782  1  0.252700  0.414900  0.398500  1
  C  C1783  1  0.752700  0.914900  0.101500  1
  C  C1784  1  0.747300  0.585100  0.601500  1
  C  C1785  1  0.273700  0.116600  0.874400  1
  C  C1786  1  0.226300  0.383400  0.374400  1
  C  C1787  1  0.726300  0.883400  0.125600  1
  C  C1788  1  0.773700  0.616600  0.625600  1
  C  C1789  1  0.254400  0.100700  0.844900  1
  C  C1790  1  0.245600  0.399300  0.344900  1
  C  C1791  1  0.745600  0.899300  0.155100  1
  C  C1792  1  0.754400  0.600700  0.655100  1
  C  C1793  1  0.208300  0.053100  0.839800  1
  C  C1794  1  0.291700  0.446900  0.339800  1
  C  C1795  1  0.791700  0.946900  0.160200  1
  C  C1796  1  0.708300  0.553100  0.660200  1
  C  C1797  1  0.189200  0.033800  0.809500  1
  C  C1798  1  0.310800  0.466200  0.309500  1
  C  C1799  1  0.810800  0.966200  0.190500  1
  C  C1800  1  0.689200  0.533800  0.690500  1
  C  C1801  1  0.222000  0.069400  0.784400  1
  C  C1802  1  0.278000  0.430600  0.284400  1
  C  C1803  1  0.778000  0.930600  0.215600  1
  C  C1804  1  0.722000  0.569400  0.715600  1
  C  C1805  1  0.264200  0.117400  0.791200  1
  C  C1806  1  0.235800  0.382600  0.291200  1
  C  C1807  1  0.735800  0.882600  0.208800  1
  C  C1808  1  0.764200  0.617400  0.708800  1
  C  C1809  1  0.290500  0.151100  0.768300  1
  C  C1810  1  0.209500  0.348900  0.268300  1
  C  C1811  1  0.709500  0.848900  0.231700  1
  C  C1812  1  0.790500  0.651100  0.731700  1
  C  C1813  1  0.279400  0.136400  0.738200  1
  C  C1814  1  0.220600  0.363600  0.238200  1
  C  C1815  1  0.720600  0.863600  0.261800  1
  C  C1816  1  0.779400  0.636400  0.761800  1
  C  C1817  1  0.238200  0.088100  0.731200  1
  C  C1818  1  0.261800  0.411900  0.231200  1
  C  C1819  1  0.761800  0.911900  0.268800  1
  C  C1820  1  0.738200  0.588100  0.768800  1
  C  C1821  1  0.209200  0.054700  0.754200  1
  C  C1822  1  0.290800  0.445300  0.254200  1
  C  C1823  1  0.790800  0.945300  0.245800  1
  C  C1824  1  0.709200  0.554700  0.745800  1
  C  C1825  1  0.168000  0.005900  0.918100  1
  C  C1826  1  0.332000  0.494100  0.418100  1
  C  C1827  1  0.832000  0.994100  0.081900  1
  C  C1828  1  0.668000  0.505900  0.581900  1
  C  C1829  1  0.141700  0.980000  0.940000  1
  C  C1830  1  0.358300  0.520000  0.440000  1
  C  C1831  1  0.858300  0.020000  0.060000  1
  C  C1832  1  0.641700  0.480000  0.560000  1
  C  C1833  1  0.078300  0.898200  0.957100  1
  C  C1834  1  0.421700  0.601800  0.457100  1
  C  C1835  1  0.921700  0.101800  0.042900  1
  C  C1836  1  0.578300  0.398200  0.542900  1
  C  C1837  1  0.113300  0.946700  0.964700  1
  C  C1838  1  0.386700  0.553300  0.464700  1
  C  C1839  1  0.886700  0.053300  0.035300  1
  C  C1840  1  0.613300  0.446700  0.535300  1
  C  C1841  1  0.115100  0.959800  0.994400  1
  C  C1842  1  0.384900  0.540200  0.494400  1
  C  C1843  1  0.884900  0.040200  0.005600  1
  C  C1844  1  0.615100  0.459800  0.505600  1
  C  C1845  1  0.083200  0.925600  0.016200  1
  C  C1846  1  0.416800  0.574400  0.516200  1
  C  C1847  1  0.916800  0.074400  0.983800  1
  C  C1848  1  0.583200  0.425600  0.483800  1
  C  C1849  1  0.049600  0.877800  0.007100  1
  C  C1850  1  0.450400  0.622200  0.507100  1
  C  C1851  1  0.950400  0.122200  0.992900  1
  C  C1852  1  0.549600  0.377800  0.492900  1
  C  C1853  1  0.228700  0.072100  0.700000  1
  C  C1854  1  0.271300  0.427900  0.200000  1
  C  C1855  1  0.771300  0.927900  0.300000  1
  C  C1856  1  0.728700  0.572100  0.800000  1
  C  C1857  1  0.224100  0.061000  0.673800  1
  C  C1858  1  0.275900  0.439000  0.173800  1
  C  C1859  1  0.775900  0.939000  0.326200  1
  C  C1860  1  0.724100  0.561000  0.826200  1
  C  C1861  1  0.175600  0.005800  0.631500  1
  C  C1862  1  0.324400  0.494200  0.131500  1
  C  C1863  1  0.824400  0.994200  0.368500  1
  C  C1864  1  0.675600  0.505800  0.868500  1
  C  C1865  1  0.218300  0.050900  0.641900  1
  C  C1866  1  0.281700  0.449100  0.141900  1
  C  C1867  1  0.781700  0.949100  0.358100  1
  C  C1868  1  0.718300  0.550900  0.858100  1
  C  C1869  1  0.255800  0.084700  0.621000  1
  C  C1870  1  0.244200  0.415300  0.121000  1
  C  C1871  1  0.744200  0.915300  0.379000  1
  C  C1872  1  0.755800  0.584700  0.879000  1
  C  C1873  1  0.248300  0.073500  0.590500  1
  C  C1874  1  0.251700  0.426500  0.090500  1
  C  C1875  1  0.751700  0.926500  0.409500  1
  C  C1876  1  0.748300  0.573500  0.909500  1
  C  C1877  1  0.205200  0.881800  0.566400  1
  C  C1878  1  0.294800  0.618200  0.066400  1
  C  C1879  1  0.794800  0.118200  0.433600  1
  C  C1880  1  0.705200  0.381800  0.933600  1
  C  C1881  1  0.597000  0.648500  0.727300  1
  C  C1882  1  0.903000  0.851500  0.227300  1
  C  C1883  1  0.403000  0.351500  0.272700  1
  C  C1884  1  0.097000  0.148500  0.772700  1
  C  C1885  1  0.608000  0.660300  0.760700  1
  C  C1886  1  0.892000  0.839700  0.260700  1
  C  C1887  1  0.392000  0.339700  0.239300  1
  C  C1888  1  0.108000  0.160300  0.739300  1
  C  C1889  1  0.565000  0.695600  0.769200  1
  C  C1890  1  0.935000  0.804400  0.269200  1
  C  C1891  1  0.435000  0.304400  0.230800  1
  C  C1892  1  0.065000  0.195600  0.730800  1
  C  C1893  1  0.492000  0.685100  0.764800  1
  C  C1894  1  0.008000  0.814900  0.264800  1
  C  C1895  1  0.508000  0.314900  0.235200  1
  C  C1896  1  0.992000  0.185100  0.735200  1
  C  C1897  1  0.475000  0.738400  0.775000  1
  C  C1898  1  0.025000  0.761600  0.275000  1
  C  C1899  1  0.525000  0.261600  0.225000  1
  C  C1900  1  0.975000  0.238400  0.725000  1
  C  C1901  1  0.398000  0.709600  0.774000  1
  C  C1902  1  0.102000  0.790400  0.274000  1
  C  C1903  1  0.602000  0.290400  0.226000  1
  C  C1904  1  0.898000  0.209600  0.726000  1
  C  C1905  1  0.286000  0.805300  0.838700  1
  C  C1906  1  0.214000  0.694700  0.338700  1
  C  C1907  1  0.714000  0.194700  0.161300  1
  C  C1908  1  0.786000  0.305300  0.661300  1
  C  C1909  1  0.307600  0.784300  0.863500  1
  C  C1910  1  0.192400  0.715700  0.363500  1
  C  C1911  1  0.692400  0.215700  0.136500  1
  C  C1912  1  0.807600  0.284300  0.636500  1
  C  C1913  1  0.349000  0.754000  0.859600  1
  C  C1914  1  0.151000  0.746000  0.359600  1
  C  C1915  1  0.651000  0.246000  0.140400  1
  C  C1916  1  0.849000  0.254000  0.640400  1
  C  C1917  1  0.375100  0.749200  0.831000  1
  C  C1918  1  0.124900  0.750800  0.331000  1
  C  C1919  1  0.624900  0.250800  0.169000  1
  C  C1920  1  0.875100  0.249200  0.669000  1
  C  C1921  1  0.354800  0.770900  0.806100  1
  C  C1922  1  0.145200  0.729100  0.306100  1
  C  C1923  1  0.645200  0.229100  0.193900  1
  C  C1924  1  0.854800  0.270900  0.693900  1
  C  C1925  1  0.310200  0.798900  0.809900  1
  C  C1926  1  0.189800  0.701100  0.309900  1
  C  C1927  1  0.689800  0.201100  0.190100  1
  C  C1928  1  0.810200  0.298900  0.690100  1
  C  C1929  1  0.289000  0.821200  0.784000  1
  C  C1930  1  0.211000  0.678800  0.284000  1
  C  C1931  1  0.711000  0.178800  0.216000  1
  C  C1932  1  0.789000  0.321200  0.716000  1
  C  C1933  1  0.316800  0.813900  0.754500  1
  C  C1934  1  0.183200  0.686100  0.254500  1
  C  C1935  1  0.683200  0.186100  0.245500  1
  C  C1936  1  0.816800  0.313900  0.745500  1
  C  C1937  1  0.358800  0.783500  0.752300  1
  C  C1938  1  0.141200  0.716500  0.252300  1
  C  C1939  1  0.641200  0.216500  0.247700  1
  C  C1940  1  0.858800  0.283500  0.747700  1
  C  C1941  1  0.388400  0.777800  0.724800  1
  C  C1942  1  0.111600  0.722200  0.224800  1
  C  C1943  1  0.611600  0.222200  0.275200  1
  C  C1944  1  0.888400  0.277800  0.775200  1
  C  C1945  1  0.369800  0.797700  0.698800  1
  C  C1946  1  0.130200  0.702300  0.198800  1
  C  C1947  1  0.630200  0.202300  0.301200  1
  C  C1948  1  0.869800  0.297700  0.801200  1
  C  C1949  1  0.325500  0.826400  0.700500  1
  C  C1950  1  0.174500  0.673600  0.200500  1
  C  C1951  1  0.674500  0.173600  0.299500  1
  C  C1952  1  0.825500  0.326400  0.799500  1
  C  C1953  1  0.298100  0.833900  0.728200  1
  C  C1954  1  0.201900  0.666100  0.228200  1
  C  C1955  1  0.701900  0.166100  0.271800  1
  C  C1956  1  0.798100  0.333900  0.771800  1
  C  C1957  1  0.274800  0.785600  0.892000  1
  C  C1958  1  0.225200  0.714400  0.392000  1
  C  C1959  1  0.725200  0.214400  0.108000  1
  C  C1960  1  0.774800  0.285600  0.608000  1
  C  C1961  1  0.253800  0.790500  0.917000  1
  C  C1962  1  0.246200  0.709500  0.417000  1
  C  C1963  1  0.746200  0.209500  0.083000  1
  C  C1964  1  0.753800  0.290500  0.583000  1
  C  C1965  1  0.143000  0.789000  0.943300  1
  C  C1966  1  0.357000  0.711000  0.443300  1
  C  C1967  1  0.857000  0.211000  0.056700  1
  C  C1968  1  0.643000  0.289000  0.556700  1
  C  C1969  1  0.210500  0.785000  0.943500  1
  C  C1970  1  0.289500  0.715000  0.443500  1
  C  C1971  1  0.789500  0.215000  0.056500  1
  C  C1972  1  0.710500  0.285000  0.556500  1
  C  C1973  1  0.236800  0.777600  0.971700  1
  C  C1974  1  0.263200  0.722400  0.471700  1
  C  C1975  1  0.763200  0.222400  0.028300  1
  C  C1976  1  0.736800  0.277600  0.528300  1
  C  C1977  1  0.196600  0.773800  0.997500  1
  C  C1978  1  0.303400  0.726200  0.497500  1
  C  C1979  1  0.803400  0.226200  0.002500  1
  C  C1980  1  0.696600  0.273800  0.502500  1
  C  C1981  1  0.129700  0.777900  0.993900  1
  C  C1982  1  0.370300  0.722100  0.493900  1
  C  C1983  1  0.870300  0.222100  0.006100  1
  C  C1984  1  0.629700  0.277900  0.506100  1
  C  C1985  1  0.303400  0.845300  0.673300  1
  C  C1986  1  0.196600  0.654700  0.173300  1
  C  C1987  1  0.696600  0.154700  0.326700  1
  C  C1988  1  0.803400  0.345300  0.826700  1
  C  C1989  1  0.281000  0.854600  0.649400  1
  C  C1990  1  0.219000  0.645400  0.149400  1
  C  C1991  1  0.719000  0.145400  0.350600  1
  C  C1992  1  0.781000  0.354600  0.850600  1
  C  C1993  1  0.210600  0.890500  0.617900  1
  C  C1994  1  0.289400  0.609500  0.117900  1
  C  C1995  1  0.789400  0.109500  0.382100  1
  C  C1996  1  0.710600  0.390500  0.882100  1
  C  C1997  1  0.257700  0.864700  0.620300  1
  C  C1998  1  0.242300  0.635300  0.120300  1
  C  C1999  1  0.742300  0.135300  0.379700  1
  C  C2000  1  0.757700  0.364700  0.879700  1
  C  C2001  1  0.276800  0.845600  0.594300  1
  C  C2002  1  0.223200  0.654400  0.094300  1
  C  C2003  1  0.723200  0.154400  0.405700  1
  C  C2004  1  0.776800  0.345600  0.905700  1
  C  C2005  1  0.251100  0.854500  0.566800  1
  C  C2006  1  0.248900  0.645500  0.066800  1
  C  C2007  1  0.748900  0.145500  0.433200  1
  C  C2008  1  0.751100  0.354500  0.933200  1
  C  C2009  1  0.053200  0.792400  0.837100  1
  C  C2010  1  0.446800  0.707600  0.337100  1
  C  C2011  1  0.946800  0.207600  0.162900  1
  C  C2012  1  0.553200  0.292400  0.662900  1
  C  C2013  1  0.984800  0.786500  0.842800  1
  C  C2014  1  0.515200  0.713500  0.342800  1
  C  C2015  1  0.015200  0.213500  0.157200  1
  C  C2016  1  0.484800  0.286500  0.657200  1
  C  C2017  1  0.963400  0.825800  0.847100  1
  C  C2018  1  0.536600  0.674200  0.347100  1
  C  C2019  1  0.036600  0.174200  0.152900  1
  C  C2020  1  0.463400  0.325800  0.652900  1
  C  C2021  1  0.010700  0.871100  0.847600  1
  C  C2022  1  0.489300  0.628900  0.347600  1
  C  C2023  1  0.989300  0.128900  0.152400  1
  C  C2024  1  0.510700  0.371100  0.652400  1
  C  C2025  1  0.078400  0.877600  0.838700  1
  C  C2026  1  0.421600  0.622400  0.338700  1
  C  C2027  1  0.921600  0.122400  0.161300  1
  C  C2028  1  0.578400  0.377600  0.661300  1
  C  C2029  1  0.100000  0.837900  0.835300  1
  C  C2030  1  0.400000  0.662100  0.335300  1
  C  C2031  1  0.900000  0.162100  0.164700  1
  C  C2032  1  0.600000  0.337900  0.664700  1
  C  C2033  1  0.990000  0.528400  0.932500  1
  C  C2034  1  0.510000  0.971600  0.432500  1
  C  C2035  1  0.010000  0.471600  0.067500  1
  C  C2036  1  0.490000  0.028400  0.567500  1
  C  C2037  1  0.930600  0.511600  0.949400  1
  C  C2038  1  0.569400  0.988400  0.449400  1
  C  C2039  1  0.069400  0.488400  0.050600  1
  C  C2040  1  0.430600  0.011600  0.550600  1
  C  C2041  1  0.866400  0.494000  0.935900  1
  C  C2042  1  0.633600  0.006000  0.435900  1
  C  C2043  1  0.133600  0.506000  0.064100  1
  C  C2044  1  0.366400  0.994000  0.564100  1
  C  C2045  1  0.861500  0.493300  0.905600  1
  C  C2046  1  0.638500  0.006700  0.405600  1
  C  C2047  1  0.138500  0.506700  0.094400  1
  C  C2048  1  0.361500  0.993300  0.594400  1
  C  C2049  1  0.920800  0.510200  0.888700  1
  C  C2050  1  0.579200  0.989800  0.388700  1
  C  C2051  1  0.079200  0.489800  0.111300  1
  C  C2052  1  0.420800  0.010200  0.611300  1
  C  C2053  1  0.985300  0.527200  0.902000  1
  C  C2054  1  0.514700  0.972800  0.402000  1
  C  C2055  1  0.014700  0.472800  0.098000  1
  C  C2056  1  0.485300  0.027200  0.598000  1
  N  N2057  1  0.605300  0.663600  0.906300  1
  N  N2058  1  0.894700  0.836400  0.406300  1
  N  N2059  1  0.394700  0.336400  0.093700  1
  N  N2060  1  0.105300  0.163600  0.593700  1
  N  N2061  1  0.966500  0.837500  0.733500  1
  N  N2062  1  0.533500  0.662500  0.233500  1
  N  N2063  1  0.033500  0.162500  0.266500  1
  N  N2064  1  0.466500  0.337500  0.766500  1
  N  N2065  1  0.868300  0.691400  0.106600  1
  N  N2066  1  0.631700  0.808600  0.606600  1
  N  N2067  1  0.131700  0.308600  0.893400  1
  N  N2068  1  0.368300  0.191400  0.393400  1
  N  N2069  1  0.215100  0.605800  0.899800  1
  N  N2070  1  0.284900  0.894200  0.399800  1
  N  N2071  1  0.784900  0.394200  0.100200  1
  N  N2072  1  0.715100  0.105800  0.600200  1
  N  N2073  1  0.099300  0.815200  0.728800  1
  N  N2074  1  0.400700  0.684800  0.228800  1
  N  N2075  1  0.900700  0.184800  0.271200  1
  N  N2076  1  0.599300  0.315200  0.771200  1
  N  N2077  1  0.003400  0.681800  0.102000  1
  N  N2078  1  0.496600  0.818200  0.602000  1
  N  N2079  1  0.996600  0.318200  0.898000  1
  N  N2080  1  0.503400  0.181800  0.398000  1
  N  N2081  1  0.390700  0.008000  0.947400  1
  N  N2082  1  0.109300  0.492000  0.447400  1
  N  N2083  1  0.609300  0.992000  0.052600  1
  N  N2084  1  0.890700  0.508000  0.552600  1
  N  N2085  1  0.176500  0.916200  0.736100  1
  N  N2086  1  0.323500  0.583800  0.236100  1
  N  N2087  1  0.823500  0.083800  0.263900  1
  N  N2088  1  0.676500  0.416200  0.763900  1
  N  N2089  1  0.067400  0.784400  0.112200  1
  N  N2090  1  0.432600  0.715600  0.612200  1
  N  N2091  1  0.932600  0.215600  0.887800  1
  N  N2092  1  0.567400  0.284400  0.387800  1
  N  N2093  1  0.783500  0.959600  0.928900  1
  N  N2094  1  0.716500  0.540400  0.428900  1
  N  N2095  1  0.216500  0.040400  0.071100  1
  N  N2096  1  0.283500  0.459600  0.571100  1
  N  N2097  1  0.045900  0.938500  0.740800  1
  N  N2098  1  0.454100  0.561500  0.240800  1
  N  N2099  1  0.954100  0.061500  0.259200  1
  N  N2100  1  0.545900  0.438500  0.759200  1
  N  N2101  1  0.940500  0.798400  0.115100  1
  N  N2102  1  0.559500  0.701600  0.615100  1
  N  N2103  1  0.059500  0.201600  0.884900  1
  N  N2104  1  0.440500  0.298400  0.384900  1
  N  N2105  1  0.023500  0.601000  0.732200  1
  N  N2106  1  0.476500  0.899000  0.232200  1
  N  N2107  1  0.976500  0.399000  0.267800  1
  N  N2108  1  0.523500  0.101000  0.767800  1
  N  N2109  1  0.966600  0.722500  0.948300  1
  N  N2110  1  0.533400  0.777500  0.448300  1
  N  N2111  1  0.033400  0.277500  0.051700  1
  N  N2112  1  0.466600  0.222500  0.551700  1
  N  N2113  1  0.040300  0.859900  0.575300  1
  N  N2114  1  0.459700  0.640100  0.075300  1
  N  N2115  1  0.959700  0.140100  0.424700  1
  N  N2116  1  0.540300  0.359900  0.924700  1
  N  N2117  1  0.675900  0.891900  0.764300  1
  N  N2118  1  0.824100  0.608100  0.264300  1
  N  N2119  1  0.324100  0.108100  0.235700  1
  N  N2120  1  0.175900  0.391900  0.735700  1
  N  N2121  1  0.907800  0.800600  0.959800  1
  N  N2122  1  0.592200  0.699400  0.459800  1
  N  N2123  1  0.092200  0.199400  0.040200  1
  N  N2124  1  0.407800  0.300600  0.540200  1
  N  N2125  1  0.021500  0.955800  0.589400  1
  N  N2126  1  0.478500  0.544200  0.089400  1
  N  N2127  1  0.978500  0.044200  0.410600  1
  N  N2128  1  0.521500  0.455800  0.910600  1
  N  N2129  1  0.279800  0.134100  0.821200  1
  N  N2130  1  0.220200  0.365900  0.321200  1
  N  N2131  1  0.720200  0.865900  0.178800  1
  N  N2132  1  0.779800  0.634100  0.678800  1
  N  N2133  1  0.046600  0.863000  0.976800  1
  N  N2134  1  0.453400  0.637000  0.476800  1
  N  N2135  1  0.953400  0.137000  0.023200  1
  N  N2136  1  0.546600  0.363000  0.523200  1
  N  N2137  1  0.167400  0.994700  0.600500  1
  N  N2138  1  0.332600  0.505300  0.100500  1
  N  N2139  1  0.832600  0.005300  0.399500  1
  N  N2140  1  0.667400  0.494700  0.899500  1
  N  N2141  1  0.377100  0.760900  0.777700  1
  N  N2142  1  0.122900  0.739100  0.277700  1
  N  N2143  1  0.622900  0.239100  0.222300  1
  N  N2144  1  0.877100  0.260900  0.722300  1
  N  N2145  1  0.099000  0.784600  0.967800  1
  N  N2146  1  0.401000  0.715400  0.467800  1
  N  N2147  1  0.901000  0.215400  0.032200  1
  N  N2148  1  0.599000  0.284600  0.532200  1
  N  N2149  1  0.184300  0.899100  0.590600  1
  N  N2150  1  0.315700  0.600900  0.090600  1
  N  N2151  1  0.815700  0.100900  0.409400  1
  N  N2152  1  0.684300  0.399100  0.909400  1
  Cl  Cl2153  1  0.970800  0.755400  0.033410  1
  Cl  Cl2154  1  0.529200  0.744600  0.533410  1
  Cl  Cl2155  1  0.029200  0.244600  0.966590  1
  Cl  Cl2156  1  0.470800  0.255400  0.466590  1
  Cl  Cl2157  1  0.067600  0.890700  0.660500  1
  Cl  Cl2158  1  0.432400  0.609300  0.160500  1
  Cl  Cl2159  1  0.932400  0.109300  0.339500  1
  Cl  Cl2160  1  0.567600  0.390700  0.839500  1
  O  O2161  1  0.817200  0.702800  0.921400  1
  O  O2162  1  0.682800  0.797200  0.421400  1
  O  O2163  1  0.182800  0.297200  0.078600  1
  O  O2164  1  0.317200  0.202800  0.578600  1
  O  O2165  1  0.101400  0.700400  0.906600  1
  O  O2166  1  0.398600  0.799600  0.406600  1
  O  O2167  1  0.898600  0.299600  0.093400  1
  O  O2168  1  0.601400  0.200400  0.593400  1
  O  O2169  1  0.211900  0.891700  0.925200  1
  O  O2170  1  0.288100  0.608300  0.425200  1
  O  O2171  1  0.788100  0.108300  0.074800  1
  O  O2172  1  0.711900  0.391700  0.574800  1
  O  O2173  1  0.979000  0.940500  0.929300  1
  O  O2174  1  0.521000  0.559500  0.429300  1
  O  O2175  1  0.021000  0.059500  0.070700  1
  O  O2176  1  0.479000  0.440500  0.570700  1
  O  O2177  1  0.949200  0.717100  0.743200  1
  O  O2178  1  0.550800  0.782900  0.243200  1
  O  O2179  1  0.050800  0.282900  0.256800  1
  O  O2180  1  0.449200  0.217100  0.756800  1
  O  O2181  1  0.883300  0.901000  0.770500  1
  O  O2182  1  0.616700  0.599000  0.270500  1
  O  O2183  1  0.116700  0.099000  0.229500  1
  O  O2184  1  0.383300  0.401000  0.729500  1
  O  O2185  1  0.149300  0.993700  0.804500  1
  O  O2186  1  0.350700  0.506300  0.304500  1
  O  O2187  1  0.850700  0.006300  0.195500  1
  O  O2188  1  0.649300  0.493700  0.695500  1
  O  O2189  1  0.248500  0.844300  0.785300  1
  O  O2190  1  0.251500  0.655700  0.285300  1
  O  O2191  1  0.751500  0.155700  0.214700  1
  O  O2192  1  0.748500  0.344300  0.714700  1
  O  O2193  1  0.566000  0.569100  0.861400  1
  O  O2194  1  0.934000  0.930900  0.361400  1
  O  O2195  1  0.434000  0.430900  0.138600  1
  O  O2196  1  0.066000  0.069100  0.638600  1
  F  F2197  1  0.342400  0.945200  0.102700  1
  F  F2198  1  0.157600  0.554800  0.602700  1
  F  F2199  1  0.657600  0.054800  0.897300  1
  F  F2200  1  0.842400  0.445200  0.397300  1
  F  F2201  1  0.339800  0.919800  0.149300  1
  F  F2202  1  0.160200  0.580200  0.649300  1
  F  F2203  1  0.660200  0.080200  0.850700  1
  F  F2204  1  0.839800  0.419800  0.350700  1
  F  F2205  1  0.440800  0.963800  0.129900  1
  F  F2206  1  0.059200  0.536200  0.629900  1
  F  F2207  1  0.559200  0.036200  0.870100  1
  F  F2208  1  0.940800  0.463800  0.370100  1
  F  F2209  1  0.360100  0.998500  0.139400  1
  F  F2210  1  0.139900  0.501500  0.639400  1
  F  F2211  1  0.639900  0.001500  0.860600  1
  F  F2212  1  0.860100  0.498500  0.360600  1
  F  F2213  1  0.533500  0.923500  0.684100  1
  F  F2214  1  0.966500  0.576500  0.184100  1
  F  F2215  1  0.466500  0.076500  0.315900  1
  F  F2216  1  0.033500  0.423500  0.815900  1
  F  F2217  1  0.564000  0.989700  0.712000  1
  F  F2218  1  0.936000  0.510300  0.212000  1
  F  F2219  1  0.436000  0.010300  0.288000  1
  F  F2220  1  0.064000  0.489700  0.788000  1
  F  F2221  1  0.457600  0.963300  0.691100  1
  F  F2222  1  0.042400  0.536700  0.191100  1
  F  F2223  1  0.542400  0.036700  0.308900  1
  F  F2224  1  0.957600  0.463300  0.808900  1
  F  F2225  1  0.551600  0.995800  0.663200  1
  F  F2226  1  0.948400  0.504200  0.163200  1
  F  F2227  1  0.448400  0.004200  0.336800  1
  F  F2228  1  0.051600  0.495800  0.836800  1
  F  F2229  1  0.160000  0.958900  0.469000  1
  F  F2230  1  0.340000  0.541100  0.969000  1
  F  F2231  1  0.840000  0.041100  0.531000  1
  F  F2232  1  0.660000  0.458900  0.031000  1
  F  F2233  1  0.202900  0.956000  0.514300  1
  F  F2234  1  0.297100  0.544000  0.014300  1
  F  F2235  1  0.797100  0.044000  0.485700  1
  F  F2236  1  0.702900  0.456000  0.985700  1
  F  F2237  1  0.088100  0.937500  0.507700  1
  F  F2238  1  0.411900  0.562500  0.007700  1
  F  F2239  1  0.911900  0.062500  0.492300  1
  F  F2240  1  0.588100  0.437500  0.992300  1
  F  F2241  1  0.156600  0.013500  0.503600  1
  F  F2242  1  0.343400  0.486500  0.003600  1
  F  F2243  1  0.843400  0.986500  0.496400  1
  F  F2244  1  0.656600  0.513500  0.996400  1
  F  F2245  1  0.907100  0.710400  0.225300  1
  F  F2246  1  0.592900  0.789600  0.725300  1
  F  F2247  1  0.092900  0.289600  0.774700  1
  F  F2248  1  0.407100  0.210400  0.274700  1
  F  F2249  1  0.939900  0.691800  0.181000  1
  F  F2250  1  0.560100  0.808200  0.681000  1
  F  F2251  1  0.060100  0.308200  0.819000  1
  F  F2252  1  0.439900  0.191800  0.319000  1
  F  F2253  1  0.982000  0.767300  0.197200  1
  F  F2254  1  0.518000  0.732700  0.697200  1
  F  F2255  1  0.018000  0.232700  0.802800  1
  F  F2256  1  0.482000  0.267300  0.302800  1
  F  F2257  1  0.869300  0.737100  0.184600  1
  F  F2258  1  0.630700  0.762900  0.684600  1
  F  F2259  1  0.130700  0.262900  0.815400  1
  F  F2260  1  0.369300  0.237100  0.315400  1
  F  F2261  1  0.442600  0.653900  0.837600  1
  F  F2262  1  0.057400  0.846100  0.337600  1
  F  F2263  1  0.557400  0.346100  0.162400  1
  F  F2264  1  0.942600  0.153900  0.662400  1
  F  F2265  1  0.362600  0.592400  0.814500  1
  F  F2266  1  0.137400  0.907600  0.314500  1
  F  F2267  1  0.637400  0.407600  0.185500  1
  F  F2268  1  0.862600  0.092400  0.685500  1
  F  F2269  1  0.401200  0.581800  0.859300  1
  F  F2270  1  0.098800  0.918200  0.359300  1
  F  F2271  1  0.598800  0.418200  0.140700  1
  F  F2272  1  0.901200  0.081800  0.640700  1
  F  F2273  1  0.471900  0.591200  0.820400  1
  F  F2274  1  0.028100  0.908800  0.320400  1
  F  F2275  1  0.528100  0.408800  0.179600  1
  F  F2276  1  0.971900  0.091200  0.679600  1
  F  F2277  1  0.626800  0.770200  0.991500  1
  F  F2278  1  0.873200  0.729800  0.491500  1
  F  F2279  1  0.373200  0.229800  0.008500  1
  F  F2280  1  0.126800  0.270200  0.508500  1
  F  F2281  1  0.620000  0.834400  0.016300  1
  F  F2282  1  0.880000  0.665600  0.516300  1
  F  F2283  1  0.380000  0.165600  0.983700  1
  F  F2284  1  0.120000  0.334400  0.483700  1
  F  F2285  1  0.525400  0.786100  0.992800  1
  F  F2286  1  0.974600  0.713900  0.492800  1
  F  F2287  1  0.474600  0.213900  0.007200  1
  F  F2288  1  0.025400  0.286100  0.507200  1
  F  F2289  1  0.615700  0.833200  0.966600  1
  F  F2290  1  0.884300  0.666800  0.466600  1
  F  F2291  1  0.384300  0.166800  0.033400  1
  F  F2292  1  0.115700  0.333200  0.533400  1
