
#######################################################################
#
#                 Cambridge Crystallographic Data Centre
#                                CCDC 
#
#######################################################################
#
# If this CIF has been generated from an entry in the Cambridge 
# Structural Database, then it will include bibliographic, chemical, 
# crystal, experimental, refinement or atomic coordinate data resulting 
# from the CCDC's data processing and validation procedures.
#
#######################################################################

data_JOZVUR
_chemical_formula_moiety         
'C172 H114 Cd4 Co2 N16 O10 4+,4(C2 F6 N1 O4 S2 1-),2(C6 H6),4(C2 H3 N1)'
_chemical_name_systematic        
"bis(\m~5~-\h^4^-N,N',N'',N'''-(cyclobuta-1,3-diene-1,2,3,4-tetrayltetrabiphenyl-4',3-diyl)tetrakis(1-(pyridin-2-yl)methanimine))-bis(\m~2~-3,4,5-trioxocyclopent-1-ene-1,2-diolato)-bis(\h^5^-cyclopentadienyl)-di-cobalt-tetra-cadmium tetrakis(bis((trifluoromethyl)sulfonyl)azanide) acetonitrile benzene solvate"
_symmetry_cell_setting           triclinic
_symmetry_space_group_name_H-M   'P -1'
_symmetry_Int_Tables_number      2
_space_group_name_Hall           '-P 1'
loop_
_symmetry_equiv_pos_site_id
_symmetry_equiv_pos_as_xyz
1 x,y,z
2 -x,-y,-z
_cell_length_a                   11.8627(11)
_cell_length_b                   21.3198(18)
_cell_length_c                   22.347(2)
_cell_angle_alpha                111.383(5)
_cell_angle_beta                 102.126(5)
_cell_angle_gamma                100.709(5)
_cell_volume                     4926.94
_exptl_crystal_colour            yellow
_exptl_crystal_description       block
_cell_formula_units_Z            1
loop_
_atom_site_label
_atom_site_type_symbol
_atom_site_fract_x
_atom_site_fract_y
_atom_site_fract_z
Co1 Co 1.17729(19) 0.00288(16) 0.37852(12)
Cd1 Cd 0.41582(15) 0.19986(8) 0.27749(10)
Cd2 Cd 0.21890(14) -0.19053(7) 0.11569(9)
N1 N 0.1607(15) -0.2405(9) -0.0026(5)
N2 N 0.3328(15) -0.2729(9) 0.0785(9)
N3 N 0.6059(15) 0.2861(8) 0.3071(10)
N4 N 1.9844(9) 0.1944(9) 0.8903(10)
N5 N 1.8469(16) 0.2522(9) 0.8218(10)
N6 N 1.5853(17) -0.2593(9) 0.6086(11)
N7 N 1.7808(10) -0.2018(8) 0.7200(8)
C1 C 0.0838(19) -0.2233(10) -0.0431(7)
H1 H 0.0520 -0.1860 -0.0227
C2 C 0.0484(19) -0.2566(11) -0.1126(7)
H2 H -0.0046 -0.2419 -0.1393
C3 C 0.092(2) -0.3117(11) -0.1421(5)
H3 H 0.0638 -0.3388 -0.1895
C4 C 0.1782(19) -0.3273(10) -0.1020(7)
H4 H 0.2164 -0.3614 -0.1218
C5 C 0.2078(18) -0.2922(10) -0.0322(6)
C6 C 0.2946(18) -0.3087(12) 0.0149(11)
H5 H 0.3227 -0.3482 -0.0038
C7 C 0.4179(10) -0.2904(6) 0.1179(7)
C8 C 0.4020(10) -0.3597(5) 0.1094(7)
H6 H 0.3310 -0.3952 0.0780
C9 C 0.4901(12) -0.3771(5) 0.1469(7)
H7 H 0.4792 -0.4244 0.1411
C10 C 0.5941(10) -0.3252(6) 0.1928(7)
H8 H 0.6542 -0.3370 0.2184
C11 C 0.6100(9) -0.2559(5) 0.2013(7)
C12 C 0.5219(11) -0.2385(5) 0.1638(7)
H9 H 0.5328 -0.1911 0.1696
C13 C 0.7220(12) -0.1970(7) 0.2512(8)
C14 C 0.7134(12) -0.1299(8) 0.2852(12)
H10 H 0.6383 -0.1201 0.2758
C15 C 0.8145(15) -0.0770(7) 0.3329(11)
H11 H 0.8086 -0.0311 0.3562
C16 C 0.9244(12) -0.0912(7) 0.3467(8)
C17 C 0.9331(12) -0.1584(8) 0.3127(11)
H12 H 1.0081 -0.1681 0.3222
C18 C 0.8319(14) -0.2113(7) 0.2650(11)
H13 H 0.8378 -0.2572 0.2418
C19 C 1.0270(18) -0.0345(10) 0.4013(11)
C20 C 1.0763(18) 0.0445(10) 0.4301(11)
C21 C 1.0143(13) 0.0981(7) 0.4265(9)
C22 C 0.934(2) 0.0885(8) 0.3667(8)
H14 H 0.9112 0.0451 0.3281
C23 C 0.886(2) 0.1425(9) 0.3635(8)
H15 H 0.8312 0.1360 0.3226
C24 C 0.9192(13) 0.2061(6) 0.4200(9)
C25 C 1.000(2) 0.2156(8) 0.4798(8)
H16 H 1.0223 0.2590 0.5185
C26 C 1.047(2) 0.1616(9) 0.4831(8)
H17 H 1.1023 0.1682 0.5239
C27 C 0.8659(11) 0.2642(5) 0.4148(7)
C28 C 0.9266(10) 0.3332(6) 0.4608(7)
H18 H 0.9995 0.3432 0.4945
C29 C 0.8805(11) 0.3877(5) 0.4575(7)
H19 H 0.9220 0.4348 0.4890
C30 C 0.7738(11) 0.3731(5) 0.4082(7)
H20 H 0.7423 0.4103 0.4059
C31 C 0.7131(10) 0.3041(6) 0.3622(6)
C32 C 0.7592(10) 0.2497(5) 0.3655(7)
H21 H 0.7178 0.2025 0.3340
C33 C 0.599(2) 0.3242(12) 0.2752(13)
H22 H 0.6697 0.3599 0.2840
C34 C 0.490(3) 0.317(2) 0.2258(18)
C35 C 0.487(2) 0.3599(17) 0.1922(19)
H23 H 0.5563 0.3974 0.2025
C36 C 0.383(3) 0.3469(19) 0.1433(19)
H24 H 0.3789 0.3747 0.1184
C37 C 0.283(2) 0.2931(18) 0.1307(18)
H25 H 0.2108 0.2829 0.0964
C38 C 0.291(3) 0.2543(18) 0.169(2)
H26 H 0.2222 0.2173 0.1602
N8 N 0.392(3) 0.2675(18) 0.2179(17)
C39 C 2.0525(12) 0.1652(11) 0.9220(12)
H27 H 2.0136 0.1317 0.9352
C40 C 2.1764(12) 0.1815(11) 0.9363(13)
H28 H 2.2206 0.1563 0.9544
C41 C 2.2335(9) 0.2353(12) 0.9235(13)
H29 H 2.3189 0.2510 0.9368
C42 C 2.1660(12) 0.2665(10) 0.8912(13)
H30 H 2.2041 0.3019 0.8797
C43 C 2.0413(11) 0.2452(10) 0.8757(12)
C44 C 1.963(2) 0.2707(12) 0.8353(12)
H31 H 1.9987 0.3018 0.8185
C45 C 1.7721(11) 0.2772(6) 0.7813(7)
C46 C 1.8023(10) 0.3466(6) 0.7894(7)
H32 H 1.8739 0.3796 0.8230
C47 C 1.7279(11) 0.3678(5) 0.7485(7)
H33 H 1.7485 0.4153 0.7541
C48 C 1.6232(10) 0.3196(6) 0.6995(7)
H34 H 1.5723 0.3341 0.6715
C49 C 1.5929(9) 0.2502(5) 0.6914(6)
C50 C 1.6674(11) 0.2290(5) 0.7323(7)
H35 H 1.6468 0.1816 0.7268
C51 C 1.4858(11) 0.1950(6) 0.6336(7)
C52 C 1.4967(11) 0.1306(8) 0.5931(10)
H36 H 1.5721 0.1209 0.6008
C53 C 1.3973(13) 0.0803(7) 0.5413(9)
H37 H 1.4047 0.0362 0.5137
C54 C 1.2869(11) 0.0944(6) 0.5301(7)
C55 C 1.2760(11) 0.1589(8) 0.5706(10)
H38 H 1.2006 0.1686 0.5629
C56 C 1.3754(13) 0.2092(7) 0.6223(9)
H39 H 1.3680 0.2532 0.6500
C57 C 1.1811(18) 0.0412(10) 0.4725(11)
C58 C 1.1426(18) -0.0362(9) 0.4461(11)
C59 C 1.1904(13) -0.0944(6) 0.4540(8)
C60 C 1.1755(19) -0.1567(9) 0.3991(6)
H40 H 1.1332 -0.1639 0.3550
C61 C 1.2224(19) -0.2086(7) 0.4089(7)
H41 H 1.2122 -0.2511 0.3714
C62 C 1.2843(13) -0.1981(6) 0.4735(8)
C63 C 1.2992(19) -0.1358(9) 0.5283(6)
H42 H 1.3415 -0.1287 0.5725
C64 C 1.2522(19) -0.0840(7) 0.5186(7)
H43 H 1.2624 -0.0414 0.5561
C65 C 1.3370(12) -0.2536(5) 0.4847(7)
C66 C 1.2914(11) -0.3233(6) 0.4377(6)
H44 H 1.2236 -0.3368 0.3996
C67 C 1.3451(12) -0.3733(5) 0.4463(7)
H45 H 1.3139 -0.4210 0.4141
C68 C 1.4443(12) -0.3536(5) 0.5021(7)
H46 H 1.4810 -0.3878 0.5080
C69 C 1.4899(11) -0.2839(6) 0.5491(6)
C70 C 1.4362(11) -0.2338(5) 0.5405(6)
H47 H 1.4673 -0.1862 0.5727
C71 C 1.682(2) -0.2792(13) 0.6042(14)
H48 H 1.6830 -0.3134 0.5628
C72 C 1.7891(11) -0.2488(9) 0.6627(7)
C73 C 1.8911(14) -0.2702(10) 0.6579(8)
H49 H 1.8908 -0.3072 0.6179
C74 C 1.9932(12) -0.2363(12) 0.7126(9)
H50 H 2.0664 -0.2474 0.7099
C75 C 1.9885(11) -0.1861(11) 0.7715(8)
H51 H 2.0575 -0.1635 0.8102
C76 C 1.8811(13) -0.1692(10) 0.7733(7)
H52 H 1.8785 -0.1335 0.8133
C77 C 0.4632(18) 0.0655(10) 0.2613(12)
C78 C 0.3630(19) 0.0448(10) 0.2066(12)
C79 C 0.3226(19) -0.0326(10) 0.1738(12)
C80 C 0.4099(18) -0.0547(10) 0.2137(11)
C81 C 0.5031(14) 0.0042(11) 0.2664(9)
C82 C 1.194(4) -0.0560(15) 0.2816(18)
H53 H 1.1499 -0.1034 0.2518
C83 C 1.160(2) 0.005(3) 0.2817(17)
H54 H 1.0908 0.0050 0.2518
C84 C 1.250(5) 0.0647(14) 0.334(2)
H55 H 1.2504 0.1123 0.3456
C85 C 1.338(2) 0.041(3) 0.3666(13)
H56 H 1.4081 0.0702 0.4035
C86 C 1.303(4) -0.033(3) 0.334(2)
H57 H 1.3460 -0.0631 0.3455
O1 O 0.5179(12) 0.1300(7) 0.2997(8)
O2 O 0.5884(10) 0.0038(8) 0.3080(7)
O3 O 0.3937(12) -0.1205(6) 0.1987(8)
O4 O 0.2287(13) -0.0755(7) 0.1246(8)
O5 O 0.3144(13) 0.0874(7) 0.1911(8)
Co1A Co 0.82271(19) -0.00288(16) 0.62148(12)
Cd1A Cd 1.58418(15) -0.19986(8) 0.72251(10)
Cd2A Cd 1.78110(14) 0.19053(7) 0.88431(9)
N1A N 1.8393(15) 0.2405(9) 1.0026(5)
N2A N 1.6672(15) 0.2729(9) 0.9215(9)
N3A N 1.3941(15) -0.2861(8) 0.6929(10)
N4A N 0.0156(9) -0.1944(9) 0.1097(10)
N5A N 0.1531(16) -0.2522(9) 0.1782(10)
N6A N 0.4147(17) 0.2593(9) 0.3914(11)
N7A N 0.2192(10) 0.2018(8) 0.2800(8)
C1A C 1.9162(19) 0.2233(10) 1.0431(7)
H1A H 1.9480 0.1860 1.0227
C2A C 1.9516(19) 0.2566(11) 1.1126(7)
H2A H 2.0046 0.2419 1.1393
C3A C 1.908(2) 0.3117(11) 1.1421(5)
H3A H 1.9362 0.3388 1.1895
C4A C 1.8218(19) 0.3273(10) 1.1020(7)
H4A H 1.7836 0.3614 1.1218
C5A C 1.7922(18) 0.2922(10) 1.0322(6)
C6A C 1.7054(18) 0.3087(12) 0.9851(11)
H5A H 1.6773 0.3482 1.0038
C7A C 1.5821(10) 0.2904(6) 0.8821(7)
C8A C 1.5980(10) 0.3597(5) 0.8906(7)
H6A H 1.6690 0.3952 0.9220
C9A C 1.5099(12) 0.3771(5) 0.8531(7)
H7A H 1.5208 0.4244 0.8589
C10A C 1.4059(10) 0.3252(6) 0.8072(7)
H8A H 1.3458 0.3370 0.7816
C11A C 1.3900(9) 0.2559(5) 0.7987(7)
C12A C 1.4781(11) 0.2385(5) 0.8362(7)
H9A H 1.4672 0.1911 0.8304
C13A C 1.2780(12) 0.1970(7) 0.7488(8)
C14A C 1.2866(12) 0.1299(8) 0.7148(12)
H10A H 1.3617 0.1201 0.7242
C15A C 1.1855(15) 0.0770(7) 0.6671(11)
H11A H 1.1914 0.0311 0.6438
C16A C 1.0756(12) 0.0912(7) 0.6533(8)
C17A C 1.0669(12) 0.1584(8) 0.6873(11)
H12A H 0.9919 0.1681 0.6778
C18A C 1.1681(14) 0.2113(7) 0.7350(11)
H13A H 1.1622 0.2572 0.7582
C19A C 0.9730(18) 0.0345(10) 0.5987(11)
C20A C 0.9237(18) -0.0445(10) 0.5699(11)
C21A C 0.9857(13) -0.0981(7) 0.5735(9)
C22A C 1.066(2) -0.0885(8) 0.6333(8)
H14A H 1.0888 -0.0451 0.6719
C23A C 1.114(2) -0.1425(9) 0.6365(8)
H15A H 1.1688 -0.1360 0.6774
C24A C 1.0808(13) -0.2061(6) 0.5800(9)
C25A C 1.000(2) -0.2156(8) 0.5202(8)
H16A H 0.9777 -0.2590 0.4815
C26A C 0.953(2) -0.1616(9) 0.5169(8)
H17A H 0.8977 -0.1682 0.4761
C27A C 1.1341(11) -0.2642(5) 0.5852(7)
C28A C 1.0734(10) -0.3332(6) 0.5392(7)
H18A H 1.0005 -0.3432 0.5055
C29A C 1.1195(11) -0.3877(5) 0.5425(7)
H19A H 1.0780 -0.4348 0.5110
C30A C 1.2262(11) -0.3731(5) 0.5918(7)
H20A H 1.2577 -0.4103 0.5941
C31A C 1.2869(10) -0.3041(6) 0.6378(6)
C32A C 1.2408(10) -0.2497(5) 0.6345(7)
H21A H 1.2822 -0.2025 0.6660
C33A C 1.401(2) -0.3242(12) 0.7248(13)
H22A H 1.3303 -0.3599 0.7160
C34A C 1.510(3) -0.317(2) 0.7742(18)
C35A C 1.513(2) -0.3599(17) 0.8078(19)
H23A H 1.4437 -0.3974 0.7975
C36A C 1.617(3) -0.3469(19) 0.8567(19)
H24A H 1.6211 -0.3747 0.8816
C37A C 1.717(2) -0.2931(18) 0.8693(18)
H25A H 1.7892 -0.2829 0.9036
C38A C 1.709(3) -0.2543(18) 0.831(2)
H26A H 1.7778 -0.2173 0.8398
N8A N 1.608(3) -0.2675(18) 0.7821(17)
C39A C -0.0525(12) -0.1652(11) 0.0780(12)
H27A H -0.0136 -0.1317 0.0648
C40A C -0.1764(12) -0.1815(11) 0.0637(13)
H28A H -0.2206 -0.1563 0.0456
C41A C -0.2335(9) -0.2353(12) 0.0765(13)
H29A H -0.3189 -0.2510 0.0632
C42A C -0.1660(12) -0.2665(10) 0.1088(13)
H30A H -0.2041 -0.3019 0.1203
C43A C -0.0413(11) -0.2452(10) 0.1243(12)
C44A C 0.037(2) -0.2707(12) 0.1647(12)
H31A H 0.0013 -0.3018 0.1815
C45A C 0.2279(11) -0.2772(6) 0.2187(7)
C46A C 0.1977(10) -0.3466(6) 0.2106(7)
H32A H 0.1261 -0.3796 0.1770
C47A C 0.2721(11) -0.3678(5) 0.2515(7)
H33A H 0.2515 -0.4153 0.2459
C48A C 0.3768(10) -0.3196(6) 0.3005(7)
H34A H 0.4277 -0.3341 0.3285
C49A C 0.4071(9) -0.2502(5) 0.3086(6)
C50A C 0.3326(11) -0.2290(5) 0.2677(7)
H35A H 0.3532 -0.1816 0.2732
C51A C 0.5142(11) -0.1950(6) 0.3664(7)
C52A C 0.5033(11) -0.1306(8) 0.4069(10)
H36A H 0.4279 -0.1209 0.3992
C53A C 0.6027(13) -0.0803(7) 0.4587(9)
H37A H 0.5953 -0.0362 0.4863
C54A C 0.7131(11) -0.0944(6) 0.4699(7)
C55A C 0.7240(11) -0.1589(8) 0.4294(10)
H38A H 0.7994 -0.1686 0.4371
C56A C 0.6246(13) -0.2092(7) 0.3777(9)
H39A H 0.6320 -0.2532 0.3500
C57A C 0.8189(18) -0.0412(10) 0.5275(11)
C58A C 0.8574(18) 0.0362(9) 0.5539(11)
C59A C 0.8096(13) 0.0944(6) 0.5460(8)
C60A C 0.8245(19) 0.1567(9) 0.6009(6)
H40A H 0.8668 0.1639 0.6450
C61A C 0.7776(19) 0.2086(7) 0.5911(7)
H41A H 0.7878 0.2511 0.6286
C62A C 0.7157(13) 0.1981(6) 0.5265(8)
C63A C 0.7008(19) 0.1358(9) 0.4717(6)
H42A H 0.6585 0.1287 0.4275
C64A C 0.7478(19) 0.0840(7) 0.4814(7)
H43A H 0.7376 0.0414 0.4439
C65A C 0.6630(12) 0.2536(5) 0.5153(7)
C66A C 0.7086(11) 0.3233(6) 0.5623(6)
H44A H 0.7764 0.3368 0.6004
C67A C 0.6549(12) 0.3733(5) 0.5537(7)
H45A H 0.6861 0.4210 0.5859
C68A C 0.5557(12) 0.3536(5) 0.4979(7)
H46A H 0.5190 0.3878 0.4920
C69A C 0.5101(11) 0.2839(6) 0.4509(6)
C70A C 0.5638(11) 0.2338(5) 0.4595(6)
H47A H 0.5327 0.1862 0.4273
C71A C 0.318(2) 0.2792(13) 0.3958(14)
H48A H 0.3170 0.3134 0.4372
C72A C 0.2109(11) 0.2488(9) 0.3373(7)
C73A C 0.1089(14) 0.2702(10) 0.3421(8)
H49A H 0.1092 0.3072 0.3821
C74A C 0.0068(12) 0.2363(12) 0.2874(9)
H50A H -0.0664 0.2474 0.2901
C75A C 0.0115(11) 0.1861(11) 0.2285(8)
H51A H -0.0575 0.1635 0.1898
C76A C 0.1189(13) 0.1692(10) 0.2267(7)
H52A H 0.1215 0.1335 0.1867
C77A C 1.5368(18) -0.0655(10) 0.7387(12)
C78A C 1.6370(19) -0.0448(10) 0.7934(12)
C79A C 1.6774(19) 0.0326(10) 0.8262(12)
C80A C 1.5901(18) 0.0547(10) 0.7863(11)
C81A C 1.4969(14) -0.0042(11) 0.7336(9)
C82A C 0.806(4) 0.0560(15) 0.7184(18)
H53A H 0.8501 0.1034 0.7482
C83A C 0.840(2) -0.005(3) 0.7183(17)
H54A H 0.9092 -0.0050 0.7482
C84A C 0.750(5) -0.0647(14) 0.666(2)
H55A H 0.7496 -0.1123 0.6544
C85A C 0.662(2) -0.041(3) 0.6334(13)
H56A H 0.5919 -0.0702 0.5965
C86A C 0.697(4) 0.033(3) 0.666(2)
H57A H 0.6540 0.0631 0.6545
O1A O 1.4821(12) -0.1300(7) 0.7003(8)
O2A O 1.4116(10) -0.0038(8) 0.6920(7)
O3A O 1.6063(12) 0.1205(6) 0.8013(8)
O4A O 1.7713(13) 0.0755(7) 0.8754(8)
O5A O 1.6856(13) -0.0874(7) 0.8089(8)
S1 S 0.8240(14) 0.5013(8) 0.2695(8)
S2 S 0.7336(17) 0.5505(9) 0.3799(9)
N9 N 0.8465(19) 0.5447(15) 0.3500(9)
O6 O 0.7171(19) 0.5031(14) 0.2272(14)
O7 O 0.850(2) 0.4362(9) 0.2590(13)
C87 C 0.9459(18) 0.5563(12) 0.2564(12)
F1 F 1.0497(19) 0.5642(14) 0.2987(13)
F2 F 0.931(3) 0.6205(12) 0.2701(16)
F3 F 0.944(2) 0.5315(13) 0.1938(11)
O8 O 0.631(2) 0.4903(13) 0.3447(17)
F4 F 0.606(2) 0.6391(15) 0.4079(14)
F5 F 0.780(2) 0.6766(12) 0.3924(14)
O9 O 0.783(3) 0.5751(15) 0.4518(10)
F6 F 0.623(2) 0.6101(13) 0.3115(11)
C88 C 0.682(2) 0.6239(11) 0.3733(13)
C89 C 0.3165(18) 0.4360(11) 0.3197(10)
H58 H 0.3555 0.4317 0.2860
C90 C 0.3783(14) 0.4405(10) 0.3820(12)
H59 H 0.4597 0.4394 0.3909
C91 C 0.3211(19) 0.4467(11) 0.4313(9)
H60 H 0.3634 0.4499 0.4739
C92 C 0.2021(19) 0.4484(11) 0.4183(10)
H61 H 0.1631 0.4526 0.4520
C93 C 0.1403(14) 0.4438(11) 0.3560(12)
H62 H 0.0589 0.4449 0.3471
C94 C 0.1974(18) 0.4376(11) 0.3067(10)
H63 H 0.1552 0.4345 0.2641
N10 N 0.472(3) 0.4132(19) 0.036(2)
C95 C 0.554(3) 0.456(2) 0.045(2)
C96 C 0.663(3) 0.514(2) 0.063(2)
H64 H 0.6927 0.5386 0.1121
H65 H 0.6417 0.5465 0.0438
H66 H 0.7249 0.4957 0.0457
N11 N -0.082(3) -0.1079(15) -0.0488(19)
C97 C -0.131(4) -0.065(2) -0.037(3)
C98 C -0.188(4) -0.007(2) -0.025(3)
H67 H -0.1735 0.0199 0.0232
H68 H -0.2752 -0.0274 -0.0477
H69 H -0.1551 0.0242 -0.0443
C99? C 0.753(3) -0.1377(13) 0.2416(17)
H70? H 0.7075 -0.1303 0.2056
C100? C 0.857(3) -0.0893(17) 0.2894(14)
H71? H 0.8863 -0.0492 0.2819
C101? C 0.782(2) -0.2150(15) 0.3006(14)
H72? H 0.7562 -0.2580 0.3042
C102? C 0.887(3) -0.1601(12) 0.3443(18)
H73? H 0.9397 -0.1700 0.3758
C103? C 0.8908(19) 0.0791(14) 0.4012(19)
H74? H 0.8397 0.0335 0.3884
C104? C 0.850(2) 0.1349(10) 0.3966(19)
H75? H 0.7658 0.1242 0.3756
C105? C 1.0407(19) 0.2125(15) 0.4405(18)
H76? H 1.0940 0.2585 0.4577
C106? C 1.094(2) 0.1593(11) 0.4388(19)
H77? H 1.1777 0.1652 0.4455
C107? C 0.501(4) 0.306(3) 0.217(2)
C108? C 0.508(3) 0.345(2) 0.179(2)
H78? H 0.5747 0.3854 0.1933
C109? C 0.414(4) 0.325(2) 0.122(2)
H79? H 0.4230 0.3410 0.0881
C110? C 0.306(3) 0.279(2) 0.114(2)
H80? H 0.2323 0.2765 0.0843
C111? C 0.309(3) 0.238(2) 0.150(2)
H81? H 0.2421 0.1983 0.1364
N12? N 0.404(4) 0.254(2) 0.204(2)
C112? C 1.439(3) 0.1359(12) 0.6420(16)
H82? H 1.4675 0.1297 0.6819
C113? C 1.344(3) 0.0860(16) 0.5863(13)
H83? H 1.3161 0.0416 0.5869
C114? C 1.338(3) 0.1622(11) 0.5354(17)
H84? H 1.3000 0.1734 0.5005
C115? C 1.437(3) 0.2141(15) 0.5846(13)
H85? H 1.4676 0.2584 0.5843
C116? C 1.104(2) -0.1534(12) 0.4438(18)
H86? H 1.0198 -0.1601 0.4311
C117? C 1.1607(19) -0.2018(15) 0.4550(17)
H87? H 1.1073 -0.2442 0.4493
C118? C 1.355(2) -0.1294(11) 0.4882(18)
H88? H 1.4391 -0.1195 0.5059
C119? C 1.3143(18) -0.0750(13) 0.4797(17)
H89? H 1.3657 -0.0301 0.4902
C120? C 1.297(4) 0.0672(11) 0.354(2)
H90? H 1.3363 0.1161 0.3789
C121? C 1.184(3) 0.036(3) 0.302(2)
H91? H 1.1352 0.0612 0.2869
C122? C 1.158(2) -0.038(2) 0.2780(13)
H92? H 1.0887 -0.0714 0.2434
C123? C 1.255(4) -0.0530(14) 0.314(2)
H93? H 1.2610 -0.0985 0.3086
C124? C 1.3405(18) 0.012(3) 0.3614(16)
H94? H 1.4140 0.0174 0.3923
S3? S 0.810(3) 0.5021(17) 0.2558(16)
S4? S 0.738(2) 0.5462(13) 0.3714(13)
F7? F 0.634(5) 0.583(3) 0.467(2)
N13? N 0.737(4) 0.550(2) 0.2997(17)
C125? C 0.668(3) 0.6053(17) 0.4229(17)
O10? O 0.855(3) 0.557(3) 0.413(2)
F8? F 0.565(4) 0.603(3) 0.383(2)
F9? F 0.739(4) 0.6696(18) 0.457(2)
O11? O 0.738(4) 0.470(2) 0.1867(17)
O12? O 0.853(5) 0.461(3) 0.288(3)
C126? C 0.945(3) 0.5619(18) 0.2578(19)
O13? O 0.648(4) 0.4811(17) 0.354(3)
F10? F 1.002(4) 0.525(2) 0.221(2)
F11? F 0.909(4) 0.605(2) 0.233(3)
F12? F 1.018(4) 0.600(2) 0.3202(19)
O14? O 0.096(4) -0.417(2) 0.017(2)
F13? F -0.077(4) -0.409(3) -0.107(3)
S5? S -0.3629(18) 0.0050(11) 0.0970(10)
S6? S -0.355(3) 0.1505(15) 0.128(2)
C127? C -0.282(3) -0.002(2) 0.1727(14)
O15? O -0.262(4) 0.207(2) 0.182(2)
O16? O -0.480(3) 0.006(3) 0.102(3)
O17? O -0.339(5) -0.048(2) 0.0441(18)
F14? F -0.173(3) -0.002(3) 0.168(2)
O18? O -0.481(3) 0.127(3) 0.115(3)
F15? F -0.269(4) 0.059(2) 0.2229(17)
N14? N -0.301(4) 0.0831(14) 0.101(2)
C128? C -0.394(9) 0.163(5) 0.059(6)
F16? F -0.495(5) 0.185(3) 0.043(2)
F17? F -0.495(3) -0.1327(18) 0.027(2)
F18? F -0.095(6) -0.002(5) 0.137(4)
F19? F -0.497(8) 0.239(5) 0.027(5)
F20? F -0.501(19) 0.054(11) -0.033(11)
O19? O -0.599(4) -0.137(2) 0.049(2)
F21? F -0.437(9) 0.054(5) 0.049(5)
F22? F -0.291(17) -0.030(9) 0.155(10)
S7? S -0.0127(7) -0.4329(4) 0.0153(4)
O20? O -0.083(3) -0.4356(19) 0.0591(15)
F23? F -0.128(2) -0.3809(10) -0.0540(12)
N15? N 0.067(3) -0.4885(17) -0.001(2)
F24? F -0.2183(16) -0.4881(10) -0.0811(11)
C129? C -0.1131(16) -0.4431(11) -0.0636(8)
O21? O 0.071(2) -0.3642(10) 0.0361(15)
F25? F -0.074(2) -0.4700(15) -0.1153(12)
loop_
_geom_bond_atom_site_label_1
_geom_bond_atom_site_label_2
_geom_bond_site_symmetry_1
_geom_bond_site_symmetry_2
Co1 C19 1_555 1_555
Cd1 N3 1_555 1_555
Cd2 N1 1_555 1_555
N1 C1 1_555 1_555
N2 Cd2 1_555 1_555
N3 C31 1_555 1_555
N4 C39 1_555 1_555
N5 C44 1_555 1_555
N6 C69 1_555 1_555
N7 C72 1_555 1_555
C1 H1 1_555 1_555
C2 C1 1_555 1_555
H2 C2 1_555 1_555
C3 C2 1_555 1_555
H3 C3 1_555 1_555
C4 C3 1_555 1_555
H4 C4 1_555 1_555
C5 N1 1_555 1_555
C6 N2 1_555 1_555
H5 C6 1_555 1_555
C7 N2 1_555 1_555
C8 C7 1_555 1_555
H6 C8 1_555 1_555
C9 C8 1_555 1_555
H7 C9 1_555 1_555
C10 C9 1_555 1_555
H8 C10 1_555 1_555
C11 C10 1_555 1_555
C12 C7 1_555 1_555
H9 C12 1_555 1_555
C13 C11 1_555 1_555
C14 C13 1_555 1_555
H10 C14 1_555 1_555
C15 C14 1_555 1_555
H11 C15 1_555 1_555
C16 C15 1_555 1_555
C17 C16 1_555 1_555
H12 C17 1_555 1_555
C18 C13 1_555 1_555
H13 C18 1_555 1_555
C19 C16 1_555 1_555
C20 Co1 1_555 1_555
C21 C20 1_555 1_555
C22 C21 1_555 1_555
H14 C22 1_555 1_555
C23 C22 1_555 1_555
H15 C23 1_555 1_555
C24 C23 1_555 1_555
C25 C24 1_555 1_555
H16 C25 1_555 1_555
C26 C21 1_555 1_555
H17 C26 1_555 1_555
C27 C24 1_555 1_555
C28 C27 1_555 1_555
H18 C28 1_555 1_555
C29 C28 1_555 1_555
H19 C29 1_555 1_555
C30 C29 1_555 1_555
H20 C30 1_555 1_555
C31 C30 1_555 1_555
C32 C27 1_555 1_555
H21 C32 1_555 1_555
C33 N3 1_555 1_555
H22 C33 1_555 1_555
C34 C33 1_555 1_555
C35 C34 1_555 1_555
H23 C35 1_555 1_555
C36 C35 1_555 1_555
H24 C36 1_555 1_555
C37 C36 1_555 1_555
H25 C37 1_555 1_555
C38 C37 1_555 1_555
H26 C38 1_555 1_555
N8 Cd1 1_555 1_555
C39 H27 1_555 1_555
C40 C39 1_555 1_555
H28 C40 1_555 1_555
C41 C40 1_555 1_555
H29 C41 1_555 1_555
C42 C41 1_555 1_555
H30 C42 1_555 1_555
C43 N4 1_555 1_555
C44 C43 1_555 1_555
H31 C44 1_555 1_555
C45 N5 1_555 1_555
C46 C45 1_555 1_555
H32 C46 1_555 1_555
C47 C46 1_555 1_555
H33 C47 1_555 1_555
C48 C47 1_555 1_555
H34 C48 1_555 1_555
C49 C48 1_555 1_555
C50 C45 1_555 1_555
H35 C50 1_555 1_555
C51 C49 1_555 1_555
C52 C51 1_555 1_555
H36 C52 1_555 1_555
C53 C52 1_555 1_555
H37 C53 1_555 1_555
C54 C53 1_555 1_555
C55 C54 1_555 1_555
H38 C55 1_555 1_555
C56 C51 1_555 1_555
H39 C56 1_555 1_555
C57 Co1 1_555 1_555
C58 Co1 1_555 1_555
C59 C58 1_555 1_555
C60 C59 1_555 1_555
H40 C60 1_555 1_555
C61 C60 1_555 1_555
H41 C61 1_555 1_555
C62 C61 1_555 1_555
C63 C62 1_555 1_555
H42 C63 1_555 1_555
C64 C59 1_555 1_555
H43 C64 1_555 1_555
C65 C62 1_555 1_555
C66 C65 1_555 1_555
H44 C66 1_555 1_555
C67 C66 1_555 1_555
H45 C67 1_555 1_555
C68 C67 1_555 1_555
H46 C68 1_555 1_555
C69 C68 1_555 1_555
C70 C65 1_555 1_555
H47 C70 1_555 1_555
C71 N6 1_555 1_555
H48 C71 1_555 1_555
C72 C71 1_555 1_555
C73 C72 1_555 1_555
H49 C73 1_555 1_555
C74 C73 1_555 1_555
H50 C74 1_555 1_555
C75 C74 1_555 1_555
H51 C75 1_555 1_555
C76 N7 1_555 1_555
H52 C76 1_555 1_555
C77 C78 1_555 1_555
C78 C79 1_555 1_555
C79 C80 1_555 1_555
C80 C81 1_555 1_555
C81 C77 1_555 1_555
C82 Co1 1_555 1_555
H53 C82 1_555 1_555
C83 Co1 1_555 1_555
H54 C83 1_555 1_555
C84 Co1 1_555 1_555
H55 C84 1_555 1_555
C85 Co1 1_555 1_555
H56 C85 1_555 1_555
C86 Co1 1_555 1_555
H57 C86 1_555 1_555
O1 Cd1 1_555 1_555
O2 C81 1_555 1_555
O3 Cd2 1_555 1_555
O4 Cd2 1_555 1_555
O5 Cd1 1_555 1_555
S1 N9 1_555 1_555
S2 N9 1_555 1_555
O6 S1 1_555 1_555
O7 S1 1_555 1_555
C87 S1 1_555 1_555
F1 C87 1_555 1_555
F2 C87 1_555 1_555
F3 C87 1_555 1_555
O8 S2 1_555 1_555
F4 C88 1_555 1_555
F5 C88 1_555 1_555
O9 S2 1_555 1_555
F6 C88 1_555 1_555
C88 S2 1_555 1_555
C89 H58 1_555 1_555
C90 C89 1_555 1_555
H59 C90 1_555 1_555
C91 C90 1_555 1_555
H60 C91 1_555 1_555
C92 C91 1_555 1_555
H61 C92 1_555 1_555
C93 C92 1_555 1_555
H62 C93 1_555 1_555
C94 C89 1_555 1_555
H63 C94 1_555 1_555
N10 C95 1_555 1_555
C95 C96 1_555 1_555
C96 H64 1_555 1_555
H65 C96 1_555 1_555
H66 C96 1_555 1_555
N11 C97 1_555 1_555
C97 C98 1_555 1_555
C98 H67 1_555 1_555
H68 C98 1_555 1_555
H69 C98 1_555 1_555
Co1A C19A 1_555 1_555
Cd1A N6 1_555 1_555
Cd2A N4 1_555 1_555
N1A Cd2A 1_555 1_555
N2A Cd2A 1_555 1_555
N3A Cd1A 1_555 1_555
N4A Cd2 1_555 1_555
N5A Cd2 1_555 1_555
N6A Cd1 1_555 1_555
N7A Cd1 1_555 1_555
C1A N1A 1_555 1_555
H1A C1A 1_555 1_555
C2A C1A 1_555 1_555
H2A C2A 1_555 1_555
C3A C2A 1_555 1_555
H3A C3A 1_555 1_555
C4A C3A 1_555 1_555
H4A C4A 1_555 1_555
C5A N1A 1_555 1_555
C6A N2A 1_555 1_555
H5A C6A 1_555 1_555
C7A N2A 1_555 1_555
C8A C7A 1_555 1_555
H6A C8A 1_555 1_555
C9A C8A 1_555 1_555
H7A C9A 1_555 1_555
C10A C9A 1_555 1_555
H8A C10A 1_555 1_555
C11A C10A 1_555 1_555
C12A C7A 1_555 1_555
H9A C12A 1_555 1_555
C13A C11A 1_555 1_555
C14A C13A 1_555 1_555
H10A C14A 1_555 1_555
C15A C14A 1_555 1_555
H11A C15A 1_555 1_555
C16A C15A 1_555 1_555
C17A C16A 1_555 1_555
H12A C17A 1_555 1_555
C18A C13A 1_555 1_555
H13A C18A 1_555 1_555
C19A C16A 1_555 1_555
C20A Co1A 1_555 1_555
C21A C20A 1_555 1_555
C22A C21A 1_555 1_555
H14A C22A 1_555 1_555
C23A C22A 1_555 1_555
H15A C23A 1_555 1_555
C24A C23A 1_555 1_555
C25A C24A 1_555 1_555
H16A C25A 1_555 1_555
C26A C21A 1_555 1_555
H17A C26A 1_555 1_555
C27A C24A 1_555 1_555
C28A C27A 1_555 1_555
H18A C28A 1_555 1_555
C29A C28A 1_555 1_555
H19A C29A 1_555 1_555
C30A C29A 1_555 1_555
H20A C30A 1_555 1_555
C31A N3A 1_555 1_555
C32A C27A 1_555 1_555
H21A C32A 1_555 1_555
C33A N3A 1_555 1_555
H22A C33A 1_555 1_555
C34A C33A 1_555 1_555
C35A C34A 1_555 1_555
H23A C35A 1_555 1_555
C36A C35A 1_555 1_555
H24A C36A 1_555 1_555
C37A C36A 1_555 1_555
H25A C37A 1_555 1_555
C38A C37A 1_555 1_555
H26A C38A 1_555 1_555
N8A Cd1A 1_555 1_555
C39A N4A 1_555 1_555
H27A C39A 1_555 1_555
C40A C39A 1_555 1_555
H28A C40A 1_555 1_555
C41A C40A 1_555 1_555
H29A C41A 1_555 1_555
C42A C41A 1_555 1_555
H30A C42A 1_555 1_555
C43A N4A 1_555 1_555
C44A N5A 1_555 1_555
H31A C44A 1_555 1_555
C45A N5A 1_555 1_555
C46A C45A 1_555 1_555
H32A C46A 1_555 1_555
C47A C46A 1_555 1_555
H33A C47A 1_555 1_555
C48A C47A 1_555 1_555
H34A C48A 1_555 1_555
C49A C48A 1_555 1_555
C50A C45A 1_555 1_555
H35A C50A 1_555 1_555
C51A C49A 1_555 1_555
C52A C51A 1_555 1_555
H36A C52A 1_555 1_555
C53A C52A 1_555 1_555
H37A C53A 1_555 1_555
C54A C53A 1_555 1_555
C55A C54A 1_555 1_555
H38A C55A 1_555 1_555
C56A C51A 1_555 1_555
H39A C56A 1_555 1_555
C57A Co1A 1_555 1_555
C58A Co1A 1_555 1_555
C59A C58A 1_555 1_555
C60A C59A 1_555 1_555
H40A C60A 1_555 1_555
C61A C60A 1_555 1_555
H41A C61A 1_555 1_555
C62A C61A 1_555 1_555
C63A C62A 1_555 1_555
H42A C63A 1_555 1_555
C64A C59A 1_555 1_555
H43A C64A 1_555 1_555
C65A C62A 1_555 1_555
C66A C65A 1_555 1_555
H44A C66A 1_555 1_555
C67A C66A 1_555 1_555
H45A C67A 1_555 1_555
C68A C67A 1_555 1_555
H46A C68A 1_555 1_555
C69A N6A 1_555 1_555
C70A C65A 1_555 1_555
H47A C70A 1_555 1_555
C71A N6A 1_555 1_555
H48A C71A 1_555 1_555
C72A N7A 1_555 1_555
C73A C72A 1_555 1_555
H49A C73A 1_555 1_555
C74A C73A 1_555 1_555
H50A C74A 1_555 1_555
C75A C74A 1_555 1_555
H51A C75A 1_555 1_555
C76A N7A 1_555 1_555
H52A C76A 1_555 1_555
C77A C78A 1_555 1_555
C78A C79A 1_555 1_555
C79A C80A 1_555 1_555
C80A C81A 1_555 1_555
C81A C77A 1_555 1_555
C82A Co1A 1_555 1_555
H53A C82A 1_555 1_555
C83A Co1A 1_555 1_555
H54A C83A 1_555 1_555
C84A Co1A 1_555 1_555
H55A C84A 1_555 1_555
C85A Co1A 1_555 1_555
H56A C85A 1_555 1_555
C86A Co1A 1_555 1_555
H57A C86A 1_555 1_555
O1A Cd1A 1_555 1_555
O2A C81A 1_555 1_555
O3A Cd2A 1_555 1_555
O4A Cd2A 1_555 1_555
O5A Cd1A 1_555 1_555
N5 Cd2A 1_555 1_555
N7 Cd1A 1_555 1_555
C4 C5 1_555 1_555
C5 C6 1_555 1_555
C11 C12 1_555 1_555
C17 C18 1_555 1_555
C19 C20 1_555 1_555
C19 C58 1_555 1_555
C20 C57 1_555 1_555
C25 C26 1_555 1_555
C31 C32 1_555 1_555
C34 N8 1_555 1_555
C38 N8 1_555 1_555
C42 C43 1_555 1_555
C49 C50 1_555 1_555
C54 C57 1_555 1_555
C55 C56 1_555 1_555
C57 C58 1_555 1_555
C63 C64 1_555 1_555
C69 C70 1_555 1_555
C75 C76 1_555 1_555
C77 O1 1_555 1_555
C78 O5 1_555 1_555
C79 O4 1_555 1_555
C80 O3 1_555 1_555
C82 C83 1_555 1_555
C82 C86 1_555 1_555
C83 C84 1_555 1_555
C84 C85 1_555 1_555
C85 C86 1_555 1_555
C93 C94 1_555 1_555
C4A C5A 1_555 1_555
C5A C6A 1_555 1_555
C11A C12A 1_555 1_555
C17A C18A 1_555 1_555
C19A C20A 1_555 1_555
C19A C58A 1_555 1_555
C20A C57A 1_555 1_555
C25A C26A 1_555 1_555
C30A C31A 1_555 1_555
C31A C32A 1_555 1_555
C34A N8A 1_555 1_555
C38A N8A 1_555 1_555
C42A C43A 1_555 1_555
C43A C44A 1_555 1_555
C49A C50A 1_555 1_555
C54A C57A 1_555 1_555
C55A C56A 1_555 1_555
C57A C58A 1_555 1_555
C63A C64A 1_555 1_555
C68A C69A 1_555 1_555
C69A C70A 1_555 1_555
C71A C72A 1_555 1_555
C75A C76A 1_555 1_555
C77A O1A 1_555 1_555
C78A O5A 1_555 1_555
C79A O4A 1_555 1_555
C80A O3A 1_555 1_555
C82A C83A 1_555 1_555
C82A C86A 1_555 1_555
C83A C84A 1_555 1_555
C84A C85A 1_555 1_555
C85A C86A 1_555 1_555

#END
