# generated using pymatgen
data_Cd8Co4H287C402S31N61(O17F23)4
_symmetry_space_group_name_H-M   'P 1'
_cell_length_a   24.43500000
_cell_length_b   28.08000000
_cell_length_c   37.60800000
_cell_angle_alpha   90.01800000
_cell_angle_beta   99.19800000
_cell_angle_gamma   106.88800000
_symmetry_Int_Tables_number   1
_chemical_formula_structural   Cd8Co4H287C402S31N61(O17F23)4
_chemical_formula_sum   'Cd16 Co8 H574 C804 S62 N122 O136 F184'
_cell_volume   24343.98272255
_cell_formula_units_Z   2
loop_
 _symmetry_equiv_pos_site_id
 _symmetry_equiv_pos_as_xyz
  1  'x, y, z'
loop_
 _atom_site_type_symbol
 _atom_site_label
 _atom_site_symmetry_multiplicity
 _atom_site_fract_x
 _atom_site_fract_y
 _atom_site_fract_z
 _atom_site_occupancy
  Cd  Cd1  1  0.802990  0.506750  0.019030  1
  Cd  Cd2  1  0.197010  0.493250  0.980970  1
  Cd  Cd3  1  0.403060  0.663590  0.338540  1
  Cd  Cd4  1  0.596940  0.336410  0.661460  1
  Cd  Cd5  1  0.393010  0.079150  0.341190  1
  Cd  Cd6  1  0.606990  0.920850  0.658810  1
  Cd  Cd7  1  0.810110  0.936080  0.012920  1
  Cd  Cd8  1  0.189890  0.063920  0.987080  1
  Cd  Cd9  1  0.613170  0.376940  0.153130  1
  Cd  Cd10  1  0.386830  0.623060  0.846870  1
  Cd  Cd11  1  0.606410  0.957990  0.145440  1
  Cd  Cd12  1  0.393590  0.042010  0.854560  1
  Cd  Cd13  1  0.201520  0.104160  0.481100  1
  Cd  Cd14  1  0.798480  0.895840  0.518900  1
  Cd  Cd15  1  0.183300  0.530590  0.482570  1
  Cd  Cd16  1  0.816700  0.469410  0.517430  1
  Co  Co17  1  0.003130  0.270550  0.253130  1
  Co  Co18  1  0.996870  0.729450  0.746870  1
  Co  Co19  1  0.204730  0.325840  0.104000  1
  Co  Co20  1  0.795270  0.674160  0.896000  1
  Co  Co21  1  0.995460  0.771470  0.247690  1
  Co  Co22  1  0.004540  0.228530  0.752310  1
  Co  Co23  1  0.788760  0.719410  0.395610  1
  Co  Co24  1  0.211240  0.280590  0.604390  1
  H  H25  1  0.843500  0.632200  0.027800  1
  H  H26  1  0.156500  0.367800  0.972200  1
  H  H27  1  0.926100  0.700100  0.037200  1
  H  H28  1  0.073900  0.299900  0.962800  1
  H  H29  1  0.016400  0.686700  0.036800  1
  H  H30  1  0.983600  0.313300  0.963200  1
  H  H31  1  0.022200  0.604800  0.038200  1
  H  H32  1  0.977800  0.395200  0.961800  1
  H  H33  1  0.971400  0.513000  0.031100  1
  H  H34  1  0.028600  0.487000  0.968900  1
  H  H35  1  0.965000  0.441000  0.054100  1
  H  H36  1  0.035000  0.559000  0.945900  1
  H  H37  1  0.895300  0.302600  0.006000  1
  H  H38  1  0.104700  0.697400  0.994000  1
  H  H39  1  0.822600  0.329200  0.970900  1
  H  H40  1  0.177400  0.670800  0.029100  1
  H  H41  1  0.821100  0.411700  0.977400  1
  H  H42  1  0.178900  0.588300  0.022600  1
  H  H43  1  0.048100  0.424700  0.056000  1
  H  H44  1  0.951900  0.575300  0.944000  1
  H  H45  1  0.124800  0.402700  0.090600  1
  H  H46  1  0.875200  0.597300  0.909400  1
  H  H47  1  0.019800  0.262200  0.094700  1
  H  H48  1  0.980200  0.737800  0.905300  1
  H  H49  1  0.943100  0.284200  0.060100  1
  H  H50  1  0.056900  0.715800  0.939900  1
  H  H51  1  0.284400  0.404600  0.172500  1
  H  H52  1  0.715600  0.595400  0.827500  1
  H  H53  1  0.317700  0.484600  0.200400  1
  H  H54  1  0.682300  0.515400  0.799600  1
  H  H55  1  0.152000  0.490000  0.190600  1
  H  H56  1  0.848000  0.510000  0.809400  1
  H  H57  1  0.118700  0.410000  0.162800  1
  H  H58  1  0.881300  0.590000  0.837200  1
  H  H59  1  0.328400  0.532300  0.246300  1
  H  H60  1  0.671600  0.467700  0.753700  1
  H  H61  1  0.321700  0.673800  0.258500  1
  H  H62  1  0.678300  0.326200  0.741500  1
  H  H63  1  0.236700  0.655200  0.215700  1
  H  H64  1  0.763300  0.344800  0.784300  1
  H  H65  1  0.197600  0.575100  0.188200  1
  H  H66  1  0.802400  0.424900  0.811800  1
  H  H67  1  0.427400  0.570100  0.270200  1
  H  H68  1  0.572600  0.429900  0.729800  1
  H  H69  1  0.515600  0.547200  0.296600  1
  H  H70  1  0.484400  0.452800  0.703400  1
  H  H71  1  0.602600  0.573700  0.338100  1
  H  H72  1  0.397400  0.426300  0.661900  1
  H  H73  1  0.605400  0.622700  0.389300  1
  H  H74  1  0.394600  0.377300  0.610700  1
  H  H75  1  0.527400  0.653900  0.392800  1
  H  H76  1  0.472600  0.346100  0.607200  1
  H  H77  1  0.247200  0.342500  0.219100  1
  H  H78  1  0.752800  0.657500  0.780900  1
  H  H79  1  0.312600  0.317700  0.262200  1
  H  H80  1  0.687400  0.682300  0.737800  1
  H  H81  1  0.311300  0.206900  0.192700  1
  H  H82  1  0.688700  0.793100  0.807300  1
  H  H83  1  0.246000  0.231700  0.149600  1
  H  H84  1  0.754000  0.768300  0.850400  1
  H  H85  1  0.318900  0.168200  0.244300  1
  H  H86  1  0.681100  0.831800  0.755700  1
  H  H87  1  0.456200  0.193200  0.325500  1
  H  H88  1  0.543800  0.806800  0.674500  1
  H  H89  1  0.468400  0.278900  0.324100  1
  H  H90  1  0.531600  0.721100  0.675900  1
  H  H91  1  0.405800  0.309300  0.282700  1
  H  H92  1  0.594200  0.690700  0.717300  1
  H  H93  1  0.352100  0.104400  0.235500  1
  H  H94  1  0.647900  0.895600  0.764500  1
  H  H95  1  0.325400  0.022000  0.206700  1
  H  H96  1  0.674600  0.978000  0.793300  1
  H  H97  1  0.323600  0.938100  0.209800  1
  H  H98  1  0.676400  0.061900  0.790200  1
  H  H99  1  0.337100  0.905000  0.266700  1
  H  H100  1  0.662900  0.095000  0.733300  1
  H  H101  1  0.369500  0.959000  0.317800  1
  H  H102  1  0.630500  0.041000  0.682200  1
  H  H103  1  0.134900  0.189500  0.160900  1
  H  H104  1  0.865100  0.810500  0.839100  1
  H  H105  1  0.088600  0.106700  0.140400  1
  H  H106  1  0.911400  0.893300  0.859600  1
  H  H107  1  0.048900  0.152100  0.039800  1
  H  H108  1  0.951100  0.847900  0.960200  1
  H  H109  1  0.095200  0.235000  0.060300  1
  H  H110  1  0.904800  0.765000  0.939700  1
  H  H111  1  0.966000  0.085000  0.038700  1
  H  H112  1  0.034000  0.915000  0.961300  1
  H  H113  1  0.950500  0.937400  0.041000  1
  H  H114  1  0.049500  0.062600  0.959000  1
  H  H115  1  0.034000  0.954200  0.084900  1
  H  H116  1  0.966000  0.045800  0.915100  1
  H  H117  1  0.083500  0.036400  0.105700  1
  H  H118  1  0.916500  0.963600  0.894300  1
  H  H119  1  0.926900  0.058200  0.980900  1
  H  H120  1  0.073100  0.941800  0.019100  1
  H  H121  1  0.870300  0.074700  0.924300  1
  H  H122  1  0.129700  0.925300  0.075700  1
  H  H123  1  0.782500  0.060400  0.884400  1
  H  H124  1  0.217500  0.939600  0.115600  1
  H  H125  1  0.704500  0.990900  0.891300  1
  H  H126  1  0.295500  0.009100  0.108700  1
  H  H127  1  0.709400  0.948500  0.944700  1
  H  H128  1  0.290600  0.051500  0.055300  1
  H  H129  1  0.324900  0.367400  0.114800  1
  H  H130  1  0.675100  0.632600  0.885200  1
  H  H131  1  0.282400  0.282800  0.081600  1
  H  H132  1  0.717600  0.717200  0.918400  1
  H  H133  1  0.193200  0.285200  0.037400  1
  H  H134  1  0.806800  0.714800  0.962600  1
  H  H135  1  0.180700  0.371300  0.043400  1
  H  H136  1  0.819300  0.628700  0.956600  1
  H  H137  1  0.262100  0.422100  0.091200  1
  H  H138  1  0.737900  0.577900  0.908800  1
  H  H139  1  0.621600  0.155300  0.347900  1
  H  H140  1  0.378400  0.844700  0.652100  1
  H  H141  1  0.610700  0.115400  0.315200  1
  H  H142  1  0.389300  0.884600  0.684800  1
  H  H143  1  0.617300  0.098400  0.355900  1
  H  H144  1  0.382700  0.901600  0.644100  1
  H  H145  1  0.698500  0.646100  0.989800  1
  H  H146  1  0.301500  0.353900  0.010200  1
  H  H147  1  0.657600  0.618100  0.017300  1
  H  H148  1  0.342400  0.381900  0.982700  1
  H  H149  1  0.642700  0.600000  0.975600  1
  H  H150  1  0.357300  0.400000  0.024400  1
  H  H151  1  0.796800  0.464800  0.878900  1
  H  H152  1  0.203200  0.535200  0.121100  1
  H  H153  1  0.750200  0.495300  0.872800  1
  H  H154  1  0.249800  0.504700  0.127200  1
  H  H155  1  0.731900  0.439400  0.885700  1
  H  H156  1  0.268100  0.560600  0.114300  1
  H  H157  1  0.421500  0.930700  0.430200  1
  H  H158  1  0.578500  0.069300  0.569800  1
  H  H159  1  0.479000  0.942300  0.412400  1
  H  H160  1  0.521000  0.057700  0.587600  1
  H  H161  1  0.418100  0.909800  0.390100  1
  H  H162  1  0.581900  0.090200  0.609900  1
  H  H163  1  0.586800  0.910400  0.015400  1
  H  H164  1  0.413200  0.089600  0.984600  1
  H  H165  1  0.582300  0.852600  0.011100  1
  H  H166  1  0.417700  0.147400  0.988900  1
  H  H167  1  0.579500  0.884900  0.976200  1
  H  H168  1  0.420500  0.115100  0.023800  1
  H  H169  1  0.722400  0.820800  0.904900  1
  H  H170  1  0.277600  0.179200  0.095100  1
  H  H171  1  0.778800  0.804100  0.901500  1
  H  H172  1  0.221200  0.195900  0.098500  1
  H  H173  1  0.773900  0.856700  0.887300  1
  H  H174  1  0.226100  0.143300  0.112700  1
  H  H175  1  0.685200  0.441900  0.968500  1
  H  H176  1  0.314800  0.558100  0.031500  1
  H  H177  1  0.605300  0.372600  0.967600  1
  H  H178  1  0.394700  0.627400  0.032400  1
  H  H179  1  0.599700  0.323600  0.018000  1
  H  H180  1  0.400300  0.676400  0.982000  1
  H  H181  1  0.676700  0.343600  0.066700  1
  H  H182  1  0.323300  0.656400  0.933300  1
  H  H183  1  0.777500  0.402800  0.093700  1
  H  H184  1  0.222500  0.597200  0.906300  1
  H  H185  1  0.870100  0.412900  0.110500  1
  H  H186  1  0.129900  0.587100  0.889500  1
  H  H187  1  0.979700  0.519200  0.182400  1
  H  H188  1  0.020300  0.480800  0.817600  1
  H  H189  1  0.936100  0.578000  0.157000  1
  H  H190  1  0.063900  0.422000  0.843000  1
  H  H191  1  0.859500  0.554300  0.108300  1
  H  H192  1  0.140500  0.445700  0.891700  1
  H  H193  1  0.969300  0.448800  0.217600  1
  H  H194  1  0.030700  0.551200  0.782400  1
  H  H195  1  0.010300  0.388500  0.243200  1
  H  H196  1  0.989700  0.611500  0.756800  1
  H  H197  1  0.990800  0.323200  0.144000  1
  H  H198  1  0.009200  0.676800  0.856000  1
  H  H199  1  0.949800  0.383500  0.118400  1
  H  H200  1  0.050200  0.616500  0.881600  1
  H  H201  1  0.115100  0.408900  0.233600  1
  H  H202  1  0.884900  0.591100  0.766400  1
  H  H203  1  0.188500  0.467100  0.269800  1
  H  H204  1  0.811500  0.532900  0.730200  1
  H  H205  1  0.232000  0.362600  0.328800  1
  H  H206  1  0.768000  0.637400  0.671200  1
  H  H207  1  0.159600  0.301800  0.296100  1
  H  H208  1  0.840400  0.698200  0.703900  1
  H  H209  1  0.238000  0.517100  0.307700  1
  H  H210  1  0.762000  0.482900  0.692300  1
  H  H211  1  0.392900  0.563200  0.374500  1
  H  H212  1  0.607100  0.436800  0.625500  1
  H  H213  1  0.391800  0.480300  0.382000  1
  H  H214  1  0.608200  0.519700  0.618000  1
  H  H215  1  0.313800  0.415700  0.352300  1
  H  H216  1  0.686200  0.584300  0.647700  1
  H  H217  1  0.239400  0.586900  0.339500  1
  H  H218  1  0.760600  0.413100  0.660500  1
  H  H219  1  0.189600  0.652100  0.334500  1
  H  H220  1  0.810400  0.347900  0.665500  1
  H  H221  1  0.194900  0.736600  0.331900  1
  H  H222  1  0.805100  0.263400  0.668100  1
  H  H223  1  0.286900  0.796300  0.340700  1
  H  H224  1  0.713100  0.203700  0.659300  1
  H  H225  1  0.366300  0.769100  0.331700  1
  H  H226  1  0.633700  0.230900  0.668300  1
  H  H227  1  0.176700  0.261500  0.246500  1
  H  H228  1  0.823300  0.738500  0.753500  1
  H  H229  1  0.222000  0.201200  0.266300  1
  H  H230  1  0.778000  0.798800  0.733700  1
  H  H231  1  0.064600  0.098700  0.261300  1
  H  H232  1  0.935400  0.901300  0.738700  1
  H  H233  1  0.019300  0.159000  0.241500  1
  H  H234  1  0.980700  0.841000  0.758500  1
  H  H235  1  0.242900  0.153800  0.314100  1
  H  H236  1  0.757100  0.846200  0.685900  1
  H  H237  1  0.246800  0.010500  0.317000  1
  H  H238  1  0.753200  0.989500  0.683000  1
  H  H239  1  0.161500  0.986400  0.274500  1
  H  H240  1  0.838500  0.013600  0.725500  1
  H  H241  1  0.116800  0.045900  0.251800  1
  H  H242  1  0.883200  0.954100  0.748200  1
  H  H243  1  0.282000  0.144800  0.375800  1
  H  H244  1  0.718000  0.855200  0.624200  1
  H  H245  1  0.335000  0.184700  0.432700  1
  H  H246  1  0.665000  0.815300  0.567300  1
  H  H247  1  0.419600  0.201500  0.475900  1
  H  H248  1  0.580400  0.798500  0.524100  1
  H  H249  1  0.501000  0.182900  0.460600  1
  H  H250  1  0.499000  0.817100  0.539400  1
  H  H251  1  0.487200  0.128200  0.410800  1
  H  H252  1  0.512800  0.871800  0.589200  1
  H  H253  1  0.026400  0.176400  0.173000  1
  H  H254  1  0.973600  0.823600  0.827000  1
  H  H255  1  0.961500  0.117100  0.130700  1
  H  H256  1  0.038500  0.882900  0.869300  1
  H  H257  1  0.844500  0.194800  0.126800  1
  H  H258  1  0.155500  0.805200  0.873200  1
  H  H259  1  0.909500  0.254100  0.169100  1
  H  H260  1  0.090500  0.745900  0.830900  1
  H  H261  1  0.887900  0.054500  0.112200  1
  H  H262  1  0.112100  0.945500  0.887800  1
  H  H263  1  0.744000  0.014800  0.035300  1
  H  H264  1  0.256000  0.985200  0.964700  1
  H  H265  1  0.737300  0.096200  0.038000  1
  H  H266  1  0.262700  0.903800  0.962000  1
  H  H267  1  0.806000  0.156700  0.077700  1
  H  H268  1  0.194000  0.843300  0.922300  1
  H  H269  1  0.848400  0.970300  0.119700  1
  H  H270  1  0.151600  0.029700  0.880300  1
  H  H271  1  0.867500  0.896100  0.143900  1
  H  H272  1  0.132500  0.103900  0.856100  1
  H  H273  1  0.889700  0.821600  0.133800  1
  H  H274  1  0.110300  0.178400  0.866200  1
  H  H275  1  0.855100  0.780400  0.076500  1
  H  H276  1  0.144900  0.219600  0.923500  1
  H  H277  1  0.837000  0.828300  0.027500  1
  H  H278  1  0.163000  0.171700  0.972500  1
  H  H279  1  0.892700  0.280300  0.251000  1
  H  H280  1  0.107300  0.719700  0.749000  1
  H  H281  1  0.903100  0.192900  0.251300  1
  H  H282  1  0.096900  0.807100  0.748700  1
  H  H283  1  0.991900  0.193700  0.296900  1
  H  H284  1  0.008100  0.806300  0.703100  1
  H  H285  1  0.036500  0.281500  0.324800  1
  H  H286  1  0.963500  0.718500  0.675200  1
  H  H287  1  0.975200  0.335000  0.296400  1
  H  H288  1  0.024800  0.665000  0.703600  1
  H  H289  1  0.522000  0.377000  0.078900  1
  H  H290  1  0.478000  0.623000  0.921100  1
  H  H291  1  0.512100  0.420100  0.026900  1
  H  H292  1  0.487900  0.579900  0.973100  1
  H  H293  1  0.591100  0.486200  0.016300  1
  H  H294  1  0.408900  0.513800  0.983700  1
  H  H295  1  0.670100  0.516400  0.063100  1
  H  H296  1  0.329900  0.483600  0.936900  1
  H  H297  1  0.723100  0.500700  0.125400  1
  H  H298  1  0.276900  0.499300  0.874600  1
  H  H299  1  0.759100  0.531300  0.183100  1
  H  H300  1  0.240900  0.468700  0.816900  1
  H  H301  1  0.885300  0.490500  0.248000  1
  H  H302  1  0.114700  0.509500  0.752000  1
  H  H303  1  0.843800  0.408000  0.225300  1
  H  H304  1  0.156200  0.592000  0.774700  1
  H  H305  1  0.760000  0.387200  0.181500  1
  H  H306  1  0.240000  0.612800  0.818500  1
  H  H307  1  0.776500  0.589300  0.227800  1
  H  H308  1  0.223500  0.410700  0.772200  1
  H  H309  1  0.818000  0.672700  0.248100  1
  H  H310  1  0.182000  0.327300  0.751900  1
  H  H311  1  0.977800  0.653000  0.261800  1
  H  H312  1  0.022200  0.347000  0.738200  1
  H  H313  1  0.936200  0.569500  0.241600  1
  H  H314  1  0.063800  0.430500  0.758400  1
  H  H315  1  0.879700  0.852100  0.262300  1
  H  H316  1  0.120300  0.147900  0.737700  1
  H  H317  1  0.811800  0.877800  0.221900  1
  H  H318  1  0.188200  0.122200  0.778100  1
  H  H319  1  0.779600  0.752100  0.159100  1
  H  H320  1  0.220400  0.247900  0.840900  1
  H  H321  1  0.847500  0.726500  0.199500  1
  H  H322  1  0.152500  0.273500  0.800500  1
  H  H323  1  0.764100  0.903000  0.185700  1
  H  H324  1  0.235900  0.097000  0.814300  1
  H  H325  1  0.658900  0.887100  0.088800  1
  H  H326  1  0.341100  0.112900  0.911200  1
  H  H327  1  0.667000  0.807100  0.080100  1
  H  H328  1  0.333000  0.192900  0.919900  1
  H  H329  1  0.723700  0.775000  0.124300  1
  H  H330  1  0.276300  0.225000  0.875700  1
  H  H331  1  0.779300  0.987400  0.159100  1
  H  H332  1  0.220700  0.012600  0.840900  1
  H  H333  1  0.813200  0.076900  0.170200  1
  H  H334  1  0.186800  0.923100  0.829800  1
  H  H335  1  0.793100  0.151400  0.183000  1
  H  H336  1  0.206900  0.848600  0.817000  1
  H  H337  1  0.696800  0.154100  0.168000  1
  H  H338  1  0.303200  0.845900  0.832000  1
  H  H339  1  0.622400  0.078400  0.162100  1
  H  H340  1  0.377600  0.921600  0.837900  1
  H  H341  1  0.987000  0.887100  0.257300  1
  H  H342  1  0.013000  0.112900  0.742700  1
  H  H343  1  0.031300  0.967900  0.282700  1
  H  H344  1  0.968700  0.032100  0.717300  1
  H  H345  1  0.051500  0.912100  0.381800  1
  H  H346  1  0.948500  0.087900  0.618200  1
  H  H347  1  0.007100  0.831400  0.356300  1
  H  H348  1  0.992900  0.168600  0.643700  1
  H  H349  1  0.132300  0.980400  0.390000  1
  H  H350  1  0.867700  0.019600  0.610000  1
  H  H351  1  0.148700  0.128300  0.391600  1
  H  H352  1  0.851300  0.871700  0.608400  1
  H  H353  1  0.071200  0.114500  0.343600  1
  H  H354  1  0.928800  0.885500  0.656400  1
  H  H355  1  0.024200  0.033700  0.318900  1
  H  H356  1  0.975800  0.966300  0.681100  1
  H  H357  1  0.233000  0.023700  0.400800  1
  H  H358  1  0.767000  0.976300  0.599200  1
  H  H359  1  0.330300  0.013200  0.427500  1
  H  H360  1  0.669700  0.986800  0.572500  1
  H  H361  1  0.410500  0.032400  0.474200  1
  H  H362  1  0.589500  0.967600  0.525800  1
  H  H363  1  0.405000  0.071300  0.528000  1
  H  H364  1  0.595000  0.928700  0.472000  1
  H  H365  1  0.323600  0.097100  0.532000  1
  H  H366  1  0.676400  0.902900  0.468000  1
  H  H367  1  0.083300  0.802300  0.331800  1
  H  H368  1  0.916700  0.197700  0.668200  1
  H  H369  1  0.147500  0.776000  0.374600  1
  H  H370  1  0.852500  0.224000  0.625400  1
  H  H371  1  0.030800  0.639000  0.369800  1
  H  H372  1  0.969200  0.361000  0.630200  1
  H  H373  1  0.966600  0.665300  0.327000  1
  H  H374  1  0.033400  0.334700  0.673000  1
  H  H375  1  0.104400  0.613200  0.386800  1
  H  H376  1  0.895600  0.386800  0.613200  1
  H  H377  1  0.247000  0.644100  0.464500  1
  H  H378  1  0.753000  0.355900  0.535500  1
  H  H379  1  0.251800  0.728600  0.464800  1
  H  H380  1  0.748200  0.271400  0.535200  1
  H  H381  1  0.182900  0.755300  0.426100  1
  H  H382  1  0.817100  0.244700  0.573900  1
  H  H383  1  0.151900  0.554800  0.376300  1
  H  H384  1  0.848100  0.445200  0.623700  1
  H  H385  1  0.135800  0.470800  0.348600  1
  H  H386  1  0.864200  0.529200  0.651400  1
  H  H387  1  0.148800  0.391200  0.354400  1
  H  H388  1  0.851200  0.608800  0.645600  1
  H  H389  1  0.149400  0.357200  0.411500  1
  H  H390  1  0.850600  0.642800  0.588500  1
  H  H391  1  0.169000  0.411100  0.462300  1
  H  H392  1  0.831000  0.588900  0.537700  1
  H  H393  1  0.088000  0.858100  0.244200  1
  H  H394  1  0.912000  0.141900  0.755800  1
  H  H395  1  0.112500  0.779100  0.263400  1
  H  H396  1  0.887500  0.220900  0.736600  1
  H  H397  1  0.045700  0.707500  0.221800  1
  H  H398  1  0.954300  0.292500  0.778200  1
  H  H399  1  0.979900  0.742200  0.176800  1
  H  H400  1  0.020100  0.257800  0.823200  1
  H  H401  1  0.006100  0.835300  0.190700  1
  H  H402  1  0.993900  0.164700  0.809300  1
  H  H403  1  0.583100  0.192400  0.098400  1
  H  H404  1  0.416900  0.807600  0.901600  1
  H  H405  1  0.572500  0.215400  0.059800  1
  H  H406  1  0.427500  0.784600  0.940200  1
  H  H407  1  0.520500  0.197700  0.082400  1
  H  H408  1  0.479500  0.802300  0.917600  1
  H  H409  1  0.252900  0.417500  0.582300  1
  H  H410  1  0.747100  0.582500  0.417700  1
  H  H411  1  0.207100  0.430200  0.603900  1
  H  H412  1  0.792900  0.569800  0.396100  1
  H  H413  1  0.265900  0.472300  0.600100  1
  H  H414  1  0.734100  0.527700  0.399900  1
  H  H415  1  0.309900  0.297900  0.514300  1
  H  H416  1  0.690100  0.702100  0.485700  1
  H  H417  1  0.344000  0.292200  0.482400  1
  H  H418  1  0.656000  0.707800  0.517600  1
  H  H419  1  0.366900  0.279900  0.522600  1
  H  H420  1  0.633100  0.720100  0.477400  1
  H  H421  1  0.265300  0.065800  0.620600  1
  H  H422  1  0.734700  0.934200  0.379400  1
  H  H423  1  0.257100  0.118900  0.628900  1
  H  H424  1  0.742900  0.881100  0.371100  1
  H  H425  1  0.314700  0.115700  0.615200  1
  H  H426  1  0.685300  0.884300  0.384800  1
  H  H427  1  0.392400  0.527300  0.507200  1
  H  H428  1  0.607600  0.472700  0.492800  1
  H  H429  1  0.411600  0.584400  0.497100  1
  H  H430  1  0.588400  0.415600  0.502900  1
  H  H431  1  0.389200  0.541200  0.465800  1
  H  H432  1  0.610800  0.458800  0.534200  1
  H  H433  1  0.393300  0.300600  0.175500  1
  H  H434  1  0.606700  0.699400  0.824500  1
  H  H435  1  0.387300  0.282300  0.134400  1
  H  H436  1  0.612700  0.717700  0.865600  1
  H  H437  1  0.377500  0.334500  0.143700  1
  H  H438  1  0.622500  0.665500  0.856300  1
  H  H439  1  0.639400  0.269000  0.176400  1
  H  H440  1  0.360600  0.731000  0.823600  1
  H  H441  1  0.667000  0.229700  0.227400  1
  H  H442  1  0.333000  0.770300  0.772600  1
  H  H443  1  0.680200  0.269800  0.284100  1
  H  H444  1  0.319800  0.730200  0.715900  1
  H  H445  1  0.675300  0.351800  0.287500  1
  H  H446  1  0.324700  0.648200  0.712500  1
  H  H447  1  0.650700  0.421200  0.258600  1
  H  H448  1  0.349300  0.578800  0.741400  1
  H  H449  1  0.678500  0.498800  0.254600  1
  H  H450  1  0.321500  0.501200  0.745400  1
  H  H451  1  0.596100  0.598000  0.213900  1
  H  H452  1  0.403900  0.402000  0.786100  1
  H  H453  1  0.539400  0.538600  0.168900  1
  H  H454  1  0.460600  0.461400  0.831100  1
  H  H455  1  0.552300  0.459300  0.166700  1
  H  H456  1  0.447700  0.540700  0.833300  1
  H  H457  1  0.687600  0.653100  0.235900  1
  H  H458  1  0.312400  0.346900  0.764100  1
  H  H459  1  0.748200  0.712000  0.280100  1
  H  H460  1  0.251800  0.288000  0.719900  1
  H  H461  1  0.746300  0.602800  0.350800  1
  H  H462  1  0.253700  0.397200  0.649200  1
  H  H463  1  0.685600  0.543900  0.306600  1
  H  H464  1  0.314400  0.456100  0.693400  1
  H  H465  1  0.870900  0.845100  0.336600  1
  H  H466  1  0.129100  0.154900  0.663400  1
  H  H467  1  0.837400  0.905900  0.305100  1
  H  H468  1  0.162600  0.094100  0.694900  1
  H  H469  1  0.672400  0.815100  0.294700  1
  H  H470  1  0.327600  0.184900  0.705300  1
  H  H471  1  0.705900  0.754400  0.326100  1
  H  H472  1  0.294100  0.245600  0.673900  1
  H  H473  1  0.669000  0.851500  0.238000  1
  H  H474  1  0.331000  0.148500  0.762000  1
  H  H475  1  0.663100  0.993300  0.225000  1
  H  H476  1  0.336900  0.006700  0.775000  1
  H  H477  1  0.737000  0.020600  0.274900  1
  H  H478  1  0.263000  0.979400  0.725100  1
  H  H479  1  0.776800  0.963300  0.306300  1
  H  H480  1  0.223200  0.036700  0.693700  1
  H  H481  1  0.588200  0.835700  0.201900  1
  H  H482  1  0.411800  0.164300  0.798100  1
  H  H483  1  0.519400  0.766100  0.153500  1
  H  H484  1  0.480600  0.233900  0.846500  1
  H  H485  1  0.464700  0.750000  0.095300  1
  H  H486  1  0.535300  0.250000  0.904700  1
  H  H487  1  0.460100  0.816800  0.058800  1
  H  H488  1  0.539900  0.183200  0.941200  1
  H  H489  1  0.518900  0.896900  0.078700  1
  H  H490  1  0.481100  0.103100  0.921300  1
  H  H491  1  0.870700  0.839700  0.410100  1
  H  H492  1  0.129300  0.160300  0.589900  1
  H  H493  1  0.948900  0.899100  0.444600  1
  H  H494  1  0.051100  0.100900  0.555400  1
  H  H495  1  0.051500  0.810400  0.436700  1
  H  H496  1  0.948500  0.189600  0.563300  1
  H  H497  1  0.973200  0.751100  0.402100  1
  H  H498  1  0.026800  0.248900  0.597900  1
  H  H499  1  0.033100  0.959200  0.445500  1
  H  H500  1  0.966900  0.040800  0.554500  1
  H  H501  1  0.179500  0.998200  0.520300  1
  H  H502  1  0.820500  0.001800  0.479700  1
  H  H503  1  0.173700  0.914100  0.526600  1
  H  H504  1  0.826300  0.085900  0.473400  1
  H  H505  1  0.097500  0.852500  0.492300  1
  H  H506  1  0.902500  0.147500  0.507700  1
  H  H507  1  0.028900  0.028900  0.472900  1
  H  H508  1  0.971100  0.971100  0.527100  1
  H  H509  1  0.985600  0.097500  0.464500  1
  H  H510  1  0.014400  0.902500  0.535500  1
  H  H511  1  0.994300  0.182800  0.464400  1
  H  H512  1  0.005700  0.817200  0.535600  1
  H  H513  1  0.086100  0.240300  0.466100  1
  H  H514  1  0.913900  0.759700  0.533900  1
  H  H515  1  0.167400  0.211600  0.470600  1
  H  H516  1  0.832600  0.788400  0.529400  1
  H  H517  1  0.899400  0.686100  0.438700  1
  H  H518  1  0.100600  0.313900  0.561300  1
  H  H519  1  0.947100  0.627500  0.459000  1
  H  H520  1  0.052900  0.372500  0.541000  1
  H  H521  1  0.905000  0.560300  0.358900  1
  H  H522  1  0.095000  0.439700  0.641100  1
  H  H523  1  0.857300  0.618900  0.338600  1
  H  H524  1  0.142700  0.381100  0.661400  1
  H  H525  1  0.026700  0.601000  0.458300  1
  H  H526  1  0.973300  0.399000  0.541700  1
  H  H527  1  0.043400  0.461600  0.457400  1
  H  H528  1  0.956600  0.538400  0.542600  1
  H  H529  1  0.958700  0.434600  0.414600  1
  H  H530  1  0.041300  0.565400  0.585400  1
  H  H531  1  0.908000  0.490800  0.393600  1
  H  H532  1  0.092000  0.509200  0.606400  1
  H  H533  1  0.069200  0.590200  0.517500  1
  H  H534  1  0.930800  0.409800  0.482500  1
  H  H535  1  0.130400  0.643700  0.572100  1
  H  H536  1  0.869600  0.356300  0.427900  1
  H  H537  1  0.219200  0.668500  0.611700  1
  H  H538  1  0.780800  0.331500  0.388300  1
  H  H539  1  0.298900  0.647500  0.596100  1
  H  H540  1  0.701100  0.352500  0.403900  1
  H  H541  1  0.281500  0.585400  0.550700  1
  H  H542  1  0.718500  0.414600  0.449300  1
  H  H543  1  0.676300  0.719800  0.391400  1
  H  H544  1  0.323700  0.280200  0.608600  1
  H  H545  1  0.755500  0.792300  0.425300  1
  H  H546  1  0.244500  0.207700  0.574700  1
  H  H547  1  0.826800  0.757200  0.465400  1
  H  H548  1  0.173200  0.242800  0.534600  1
  H  H549  1  0.791600  0.663000  0.456300  1
  H  H550  1  0.208400  0.337000  0.543700  1
  H  H551  1  0.698600  0.639900  0.410600  1
  H  H552  1  0.301400  0.360100  0.589400  1
  H  H553  1  0.426500  0.597000  0.245300  1
  H  H554  1  0.573500  0.403000  0.754700  1
  H  H555  1  0.528800  0.583500  0.265800  1
  H  H556  1  0.471200  0.416500  0.734200  1
  H  H557  1  0.604200  0.590000  0.314700  1
  H  H558  1  0.395800  0.410000  0.685300  1
  H  H559  1  0.614700  0.646800  0.363000  1
  H  H560  1  0.385300  0.353200  0.637000  1
  H  H561  1  0.540200  0.682400  0.366500  1
  H  H562  1  0.459800  0.317600  0.633500  1
  H  H563  1  0.307400  0.310900  0.103400  1
  H  H564  1  0.692600  0.689100  0.896600  1
  H  H565  1  0.221500  0.256500  0.060200  1
  H  H566  1  0.778500  0.743500  0.939800  1
  H  H567  1  0.164600  0.312100  0.029700  1
  H  H568  1  0.835400  0.687900  0.970300  1
  H  H569  1  0.215400  0.400800  0.054100  1
  H  H570  1  0.784600  0.599200  0.945900  1
  H  H571  1  0.303600  0.400100  0.099700  1
  H  H572  1  0.696400  0.599900  0.900300  1
  H  H573  1  0.024800  0.239700  0.320500  1
  H  H574  1  0.975200  0.760300  0.679500  1
  H  H575  1  0.943400  0.181700  0.276300  1
  H  H576  1  0.056600  0.818300  0.723700  1
  H  H577  1  0.884300  0.233300  0.242400  1
  H  H578  1  0.115700  0.766700  0.757600  1
  H  H579  1  0.929100  0.323300  0.265800  1
  H  H580  1  0.070900  0.676700  0.734200  1
  H  H581  1  0.015900  0.327200  0.314100  1
  H  H582  1  0.984100  0.672800  0.685900  1
  H  H583  1  0.105900  0.828500  0.256800  1
  H  H584  1  0.894100  0.171500  0.743200  1
  H  H585  1  0.086600  0.734900  0.249800  1
  H  H586  1  0.913400  0.265100  0.750200  1
  H  H587  1  0.000900  0.701500  0.199600  1
  H  H588  1  0.999100  0.298500  0.800400  1
  H  H589  1  0.967200  0.774500  0.175500  1
  H  H590  1  0.032800  0.225500  0.824500  1
  H  H591  1  0.032100  0.852900  0.210900  1
  H  H592  1  0.967900  0.147100  0.789100  1
  H  H593  1  0.220600  0.115300  0.625400  1
  H  H594  1  0.779400  0.884700  0.374600  1
  H  H595  1  0.266800  0.086500  0.620500  1
  H  H596  1  0.733200  0.913500  0.379500  1
  H  H597  1  0.199700  0.056200  0.617800  1
  H  H598  1  0.800300  0.943800  0.382200  1
  C  C599  1  0.880300  0.626600  0.029200  1
  C  C600  1  0.119700  0.373400  0.970800  1
  C  C601  1  0.929100  0.667400  0.034400  1
  C  C602  1  0.070900  0.332600  0.965600  1
  C  C603  1  0.982300  0.659300  0.035600  1
  C  C604  1  0.017700  0.340700  0.964400  1
  C  C605  1  0.985600  0.611100  0.035000  1
  C  C606  1  0.014400  0.388900  0.965000  1
  C  C607  1  0.934500  0.571800  0.029600  1
  C  C608  1  0.065500  0.428200  0.970400  1
  C  C609  1  0.935000  0.519600  0.026700  1
  C  C610  1  0.065000  0.480400  0.973300  1
  C  C611  1  0.892900  0.434100  0.016300  1
  C  C612  1  0.107100  0.565900  0.983700  1
  C  C613  1  0.936100  0.418300  0.037200  1
  C  C614  1  0.063900  0.581700  0.962800  1
  C  C615  1  0.937000  0.369300  0.033300  1
  C  C616  1  0.063000  0.630700  0.966700  1
  C  C617  1  0.894700  0.336100  0.008600  1
  C  C618  1  0.105300  0.663900  0.991400  1
  C  C619  1  0.851500  0.351900  0.987800  1
  C  C620  1  0.148500  0.648100  0.012200  1
  C  C621  1  0.850600  0.400900  0.991600  1
  C  C622  1  0.149400  0.599100  0.008400  1
  C  C623  1  0.988400  0.356500  0.054800  1
  C  C624  1  0.011600  0.643500  0.945200  1
  C  C625  1  0.042400  0.391700  0.063900  1
  C  C626  1  0.957600  0.608300  0.936100  1
  C  C627  1  0.087900  0.378700  0.084400  1
  C  C628  1  0.912100  0.621300  0.915600  1
  C  C629  1  0.079500  0.330400  0.095900  1
  C  C630  1  0.920500  0.669600  0.904100  1
  C  C631  1  0.025500  0.295200  0.086900  1
  C  C632  1  0.974500  0.704800  0.913100  1
  C  C633  1  0.980000  0.308200  0.066300  1
  C  C634  1  0.020000  0.691800  0.933700  1
  C  C635  1  0.127500  0.319700  0.119400  1
  C  C636  1  0.872500  0.680300  0.880600  1
  C  C637  1  0.176900  0.347800  0.146000  1
  C  C638  1  0.823100  0.652200  0.854000  1
  C  C639  1  0.198500  0.399700  0.165000  1
  C  C640  1  0.801500  0.600300  0.835000  1
  C  C641  1  0.257500  0.421900  0.176200  1
  C  C642  1  0.742500  0.578100  0.823800  1
  C  C643  1  0.277300  0.469500  0.192700  1
  C  C644  1  0.722700  0.530500  0.807300  1
  C  C645  1  0.238000  0.494900  0.198100  1
  C  C646  1  0.762000  0.505100  0.801900  1
  C  C647  1  0.178900  0.472700  0.186900  1
  C  C648  1  0.821100  0.527300  0.813100  1
  C  C649  1  0.159100  0.425100  0.170400  1
  C  C650  1  0.840900  0.574900  0.829600  1
  C  C651  1  0.259300  0.546200  0.214600  1
  C  C652  1  0.740700  0.453800  0.785400  1
  C  C653  1  0.309800  0.557300  0.240100  1
  C  C654  1  0.690200  0.442700  0.759900  1
  C  C655  1  0.333000  0.604800  0.256400  1
  C  C656  1  0.667000  0.395200  0.743600  1
  C  C657  1  0.305800  0.641300  0.247400  1
  C  C658  1  0.694200  0.358700  0.752600  1
  C  C659  1  0.255300  0.630200  0.221900  1
  C  C660  1  0.744700  0.369800  0.778100  1
  C  C661  1  0.232100  0.582700  0.205600  1
  C  C662  1  0.767900  0.417300  0.794400  1
  C  C663  1  0.431000  0.594000  0.288900  1
  C  C664  1  0.569000  0.406000  0.711100  1
  C  C665  1  0.479800  0.596000  0.316800  1
  C  C666  1  0.520200  0.404000  0.683200  1
  C  C667  1  0.521100  0.572100  0.315000  1
  C  C668  1  0.478900  0.427900  0.685000  1
  C  C669  1  0.570500  0.585000  0.340700  1
  C  C670  1  0.429500  0.415000  0.659300  1
  C  C671  1  0.573000  0.616000  0.370300  1
  C  C672  1  0.427000  0.384000  0.629700  1
  C  C673  1  0.527000  0.635000  0.371700  1
  C  C674  1  0.473000  0.365000  0.628300  1
  C  C675  1  0.240500  0.289500  0.180300  1
  C  C676  1  0.759500  0.710500  0.819700  1
  C  C677  1  0.260300  0.315000  0.213800  1
  C  C678  1  0.739700  0.685000  0.786200  1
  C  C679  1  0.299100  0.300300  0.239300  1
  C  C680  1  0.700900  0.699700  0.760700  1
  C  C681  1  0.318100  0.260000  0.231500  1
  C  C682  1  0.681900  0.740000  0.768500  1
  C  C683  1  0.298300  0.234500  0.198000  1
  C  C684  1  0.701700  0.765500  0.802000  1
  C  C685  1  0.259500  0.249200  0.172500  1
  C  C686  1  0.740500  0.750800  0.827500  1
  C  C687  1  0.356500  0.241600  0.259600  1
  C  C688  1  0.643500  0.758400  0.740400  1
  C  C689  1  0.349200  0.190700  0.260500  1
  C  C690  1  0.650800  0.809300  0.739500  1
  C  C691  1  0.386400  0.172600  0.285000  1
  C  C692  1  0.613600  0.827400  0.715000  1
  C  C693  1  0.430800  0.205500  0.308700  1
  C  C694  1  0.569200  0.794500  0.691300  1
  C  C695  1  0.438000  0.256500  0.307900  1
  C  C696  1  0.562000  0.743500  0.692100  1
  C  C697  1  0.400900  0.274500  0.283300  1
  C  C698  1  0.599100  0.725500  0.716700  1
  C  C699  1  0.362300  0.091400  0.258100  1
  C  C700  1  0.637700  0.908600  0.741900  1
  C  C701  1  0.357400  0.038800  0.260200  1
  C  C702  1  0.642600  0.961200  0.739800  1
  C  C703  1  0.336700  0.008700  0.229000  1
  C  C704  1  0.663300  0.991300  0.771000  1
  C  C705  1  0.332900  0.959000  0.231100  1
  C  C706  1  0.667100  0.041000  0.768900  1
  C  C707  1  0.342800  0.939700  0.264500  1
  C  C708  1  0.657200  0.060300  0.735500  1
  C  C709  1  0.361300  0.972000  0.295000  1
  C  C710  1  0.638700  0.028000  0.705000  1
  C  C711  1  0.195000  0.303600  0.153400  1
  C  C712  1  0.805000  0.696400  0.846600  1
  C  C713  1  0.146400  0.274200  0.125000  1
  C  C714  1  0.853600  0.725800  0.875000  1
  C  C715  1  0.119400  0.220000  0.112500  1
  C  C716  1  0.880600  0.780000  0.887500  1
  C  C717  1  0.117500  0.181900  0.136300  1
  C  C718  1  0.882500  0.818100  0.863700  1
  C  C719  1  0.090000  0.132700  0.124100  1
  C  C720  1  0.910000  0.867300  0.875900  1
  C  C721  1  0.064400  0.121600  0.088200  1
  C  C722  1  0.935600  0.878400  0.911800  1
  C  C723  1  0.066400  0.159700  0.064400  1
  C  C724  1  0.933600  0.840300  0.935600  1
  C  C725  1  0.093900  0.208900  0.076500  1
  C  C726  1  0.906100  0.791100  0.923500  1
  C  C727  1  0.029400  0.068400  0.074200  1
  C  C728  1  0.970600  0.931600  0.925800  1
  C  C729  1  0.979800  0.058500  0.048100  1
  C  C730  1  0.020200  0.941500  0.951900  1
  C  C731  1  0.950400  0.009600  0.035700  1
  C  C732  1  0.049600  0.990400  0.964300  1
  C  C733  1  0.970600  0.970800  0.049400  1
  C  C734  1  0.029400  0.029200  0.950600  1
  C  C735  1  0.020200  0.980700  0.075500  1
  C  C736  1  0.979800  0.019300  0.924500  1
  C  C737  1  0.049600  0.029600  0.087900  1
  C  C738  1  0.950400  0.970400  0.912100  1
  C  C739  1  0.894600  0.030600  0.983400  1
  C  C740  1  0.105400  0.969400  0.016600  1
  C  C741  1  0.837800  0.020500  0.957900  1
  C  C742  1  0.162200  0.979500  0.042100  1
  C  C743  1  0.836700  0.049200  0.928100  1
  C  C744  1  0.163300  0.950800  0.071900  1
  C  C745  1  0.785600  0.039800  0.904100  1
  C  C746  1  0.214400  0.960200  0.095900  1
  C  C747  1  0.738700  0.000100  0.909000  1
  C  C748  1  0.261300  0.999900  0.091000  1
  C  C749  1  0.742600  0.973900  0.940300  1
  C  C750  1  0.257400  0.026100  0.059700  1
  C  C751  1  0.291400  0.357900  0.096700  1
  C  C752  1  0.708600  0.642100  0.903300  1
  C  C753  1  0.267500  0.310500  0.078100  1
  C  C754  1  0.732500  0.689500  0.921900  1
  C  C755  1  0.217600  0.311900  0.053400  1
  C  C756  1  0.782400  0.688100  0.946600  1
  C  C757  1  0.210600  0.360100  0.056700  1
  C  C758  1  0.789400  0.639900  0.943300  1
  C  C759  1  0.256200  0.388500  0.083500  1
  C  C760  1  0.743800  0.611500  0.916500  1
  C  C761  1  0.537100  0.108800  0.337800  1
  C  C762  1  0.462900  0.891200  0.662200  1
  C  C763  1  0.602500  0.120500  0.339400  1
  C  C764  1  0.397500  0.879500  0.660600  1
  C  C765  1  0.710300  0.578800  0.003400  1
  C  C766  1  0.289700  0.421200  0.996600  1
  C  C767  1  0.674200  0.613800  0.995900  1
  C  C768  1  0.325800  0.386200  0.004100  1
  C  C769  1  0.780900  0.490000  0.926400  1
  C  C770  1  0.219100  0.510000  0.073600  1
  C  C771  1  0.763400  0.470700  0.887500  1
  C  C772  1  0.236600  0.529300  0.112500  1
  C  C773  1  0.425700  0.984600  0.393000  1
  C  C774  1  0.574300  0.015400  0.607000  1
  C  C775  1  0.437100  0.937700  0.407700  1
  C  C776  1  0.562900  0.062300  0.592300  1
  C  C777  1  0.662900  0.899100  0.004700  1
  C  C778  1  0.337100  0.100900  0.995300  1
  C  C779  1  0.597000  0.885600  0.001600  1
  C  C780  1  0.403000  0.114400  0.998400  1
  C  C781  1  0.793400  0.857000  0.942800  1
  C  C782  1  0.206600  0.143000  0.057200  1
  C  C783  1  0.764500  0.832500  0.905800  1
  C  C784  1  0.235500  0.167500  0.094200  1
  C  C785  1  0.683300  0.421800  0.988800  1
  C  C786  1  0.316700  0.578200  0.011200  1
  C  C787  1  0.635300  0.380700  0.988000  1
  C  C788  1  0.364700  0.619300  0.012000  1
  C  C789  1  0.632400  0.351800  0.017500  1
  C  C790  1  0.367600  0.648200  0.982500  1
  C  C791  1  0.677100  0.364200  0.046600  1
  C  C792  1  0.322900  0.635800  0.953400  1
  C  C793  1  0.722900  0.407300  0.046000  1
  C  C794  1  0.277100  0.592700  0.954000  1
  C  C795  1  0.772200  0.424500  0.075000  1
  C  C796  1  0.227800  0.575500  0.925000  1
  C  C797  1  0.857600  0.481400  0.104800  1
  C  C798  1  0.142400  0.518600  0.895200  1
  C  C799  1  0.883500  0.446500  0.119900  1
  C  C800  1  0.116500  0.553500  0.880100  1
  C  C801  1  0.929000  0.460500  0.148800  1
  C  C802  1  0.071000  0.539500  0.851200  1
  C  C803  1  0.948600  0.509600  0.162600  1
  C  C804  1  0.051400  0.490400  0.837400  1
  C  C805  1  0.922700  0.544500  0.147600  1
  C  C806  1  0.077300  0.455500  0.852400  1
  C  C807  1  0.877200  0.530400  0.118700  1
  C  C808  1  0.122800  0.469600  0.881300  1
  C  C809  1  0.955700  0.421800  0.165600  1
  C  C810  1  0.044300  0.578200  0.834400  1
  C  C811  1  0.973700  0.423300  0.202700  1
  C  C812  1  0.026300  0.576700  0.797300  1
  C  C813  1  0.998100  0.387500  0.217900  1
  C  C814  1  0.001900  0.612500  0.782100  1
  C  C815  1  0.004400  0.350200  0.196000  1
  C  C816  1  0.995600  0.649800  0.804000  1
  C  C817  1  0.986500  0.348700  0.159000  1
  C  C818  1  0.013500  0.651300  0.841000  1
  C  C819  1  0.962100  0.384500  0.143800  1
  C  C820  1  0.037900  0.615500  0.856200  1
  C  C821  1  0.029100  0.311200  0.211700  1
  C  C822  1  0.970900  0.688800  0.788300  1
  C  C823  1  0.079100  0.308900  0.239000  1
  C  C824  1  0.920900  0.691100  0.761000  1
  C  C825  1  0.124200  0.346700  0.262200  1
  C  C826  1  0.875800  0.653300  0.737800  1
  C  C827  1  0.137400  0.398700  0.253600  1
  C  C828  1  0.862600  0.601300  0.746400  1
  C  C829  1  0.182600  0.433000  0.274900  1
  C  C830  1  0.817400  0.567000  0.725100  1
  C  C831  1  0.222400  0.421800  0.304500  1
  C  C832  1  0.777600  0.578200  0.695500  1
  C  C833  1  0.208300  0.372800  0.309600  1
  C  C834  1  0.791700  0.627200  0.690400  1
  C  C835  1  0.163800  0.335500  0.290400  1
  C  C836  1  0.836200  0.664500  0.709600  1
  C  C837  1  0.268500  0.460300  0.327200  1
  C  C838  1  0.731500  0.539700  0.672800  1
  C  C839  1  0.269200  0.509600  0.322700  1
  C  C840  1  0.730800  0.490400  0.677300  1
  C  C841  1  0.315600  0.548000  0.340400  1
  C  C842  1  0.684400  0.452000  0.659600  1
  C  C843  1  0.361200  0.537000  0.362400  1
  C  C844  1  0.638800  0.463000  0.637600  1
  C  C845  1  0.360500  0.487700  0.366900  1
  C  C846  1  0.639500  0.512300  0.633100  1
  C  C847  1  0.314200  0.449400  0.349300  1
  C  C848  1  0.685800  0.550600  0.650700  1
  C  C849  1  0.275700  0.611700  0.340600  1
  C  C850  1  0.724300  0.388300  0.659400  1
  C  C851  1  0.276700  0.664000  0.338000  1
  C  C852  1  0.723300  0.336000  0.662000  1
  C  C853  1  0.225900  0.676900  0.335500  1
  C  C854  1  0.774100  0.323100  0.664500  1
  C  C855  1  0.229200  0.726600  0.334600  1
  C  C856  1  0.770800  0.273400  0.665400  1
  C  C857  1  0.283000  0.761900  0.337500  1
  C  C858  1  0.717000  0.238100  0.662500  1
  C  C859  1  0.331200  0.745600  0.335600  1
  C  C860  1  0.668800  0.254400  0.664400  1
  C  C861  1  0.093700  0.215900  0.242100  1
  C  C862  1  0.906300  0.784100  0.757900  1
  C  C863  1  0.153900  0.228400  0.249500  1
  C  C864  1  0.846100  0.771600  0.750500  1
  C  C865  1  0.180800  0.192600  0.261300  1
  C  C866  1  0.819200  0.807400  0.738700  1
  C  C867  1  0.147600  0.144300  0.265700  1
  C  C868  1  0.852400  0.855700  0.734300  1
  C  C869  1  0.087400  0.131800  0.258300  1
  C  C870  1  0.912600  0.868200  0.741700  1
  C  C871  1  0.060500  0.167600  0.246500  1
  C  C872  1  0.939500  0.832400  0.753500  1
  C  C873  1  0.175600  0.105400  0.280800  1
  C  C874  1  0.824400  0.894600  0.719200  1
  C  C875  1  0.226400  0.119800  0.306100  1
  C  C876  1  0.773600  0.880200  0.693900  1
  C  C877  1  0.252900  0.084500  0.319500  1
  C  C878  1  0.747100  0.915500  0.680500  1
  C  C879  1  0.228700  0.034700  0.307800  1
  C  C880  1  0.771300  0.965300  0.692200  1
  C  C881  1  0.178000  0.020300  0.282500  1
  C  C882  1  0.822000  0.979700  0.717500  1
  C  C883  1  0.151500  0.055700  0.269000  1
  C  C884  1  0.848500  0.944300  0.731000  1
  C  C885  1  0.312800  0.131500  0.373100  1
  C  C886  1  0.687200  0.868500  0.626900  1
  C  C887  1  0.364100  0.146600  0.397500  1
  C  C888  1  0.635900  0.853400  0.602500  1
  C  C889  1  0.366900  0.173900  0.428600  1
  C  C890  1  0.633100  0.826100  0.571400  1
  C  C891  1  0.417200  0.184900  0.453400  1
  C  C892  1  0.582800  0.815100  0.546600  1
  C  C893  1  0.464300  0.171700  0.445400  1
  C  C894  1  0.535700  0.828300  0.554600  1
  C  C895  1  0.456900  0.141600  0.414500  1
  C  C896  1  0.543100  0.858400  0.585500  1
  C  C897  1  0.064900  0.255900  0.231000  1
  C  C898  1  0.935100  0.744100  0.769000  1
  C  C899  1  0.015000  0.256900  0.202200  1
  C  C900  1  0.985000  0.743100  0.797800  1
  C  C901  1  0.974100  0.220800  0.175000  1
  C  C902  1  0.025900  0.779200  0.825000  1
  C  C903  1  0.989500  0.180100  0.163600  1
  C  C904  1  0.010500  0.819900  0.836400  1
  C  C905  1  0.950900  0.144900  0.138500  1
  C  C906  1  0.049100  0.855100  0.861500  1
  C  C907  1  0.896900  0.150400  0.124800  1
  C  C908  1  0.103100  0.849600  0.875200  1
  C  C909  1  0.881400  0.191000  0.136200  1
  C  C910  1  0.118600  0.809000  0.863800  1
  C  C911  1  0.920000  0.226300  0.161300  1
  C  C912  1  0.080000  0.773700  0.838700  1
  C  C913  1  0.853400  0.111300  0.098700  1
  C  C914  1  0.146600  0.888700  0.901300  1
  C  C915  1  0.857300  0.063000  0.097100  1
  C  C916  1  0.142700  0.937000  0.902900  1
  C  C917  1  0.816600  0.027000  0.073500  1
  C  C918  1  0.183400  0.973000  0.926500  1
  C  C919  1  0.771900  0.039400  0.051500  1
  C  C920  1  0.228100  0.960600  0.948500  1
  C  C921  1  0.767900  0.087700  0.053100  1
  C  C922  1  0.232100  0.912300  0.946900  1
  C  C923  1  0.808700  0.123700  0.076700  1
  C  C924  1  0.191300  0.876300  0.923300  1
  C  C925  1  0.839900  0.954800  0.096200  1
  C  C926  1  0.160100  0.045200  0.903800  1
  C  C927  1  0.848300  0.907300  0.090300  1
  C  C928  1  0.151700  0.092700  0.909700  1
  C  C929  1  0.863500  0.882400  0.120200  1
  C  C930  1  0.136500  0.117600  0.879800  1
  C  C931  1  0.872600  0.837000  0.114500  1
  C  C932  1  0.127400  0.163000  0.885500  1
  C  C933  1  0.856500  0.814300  0.080200  1
  C  C934  1  0.143500  0.185700  0.919800  1
  C  C935  1  0.842400  0.841900  0.051400  1
  C  C936  1  0.157600  0.158100  0.948600  1
  C  C937  1  0.922300  0.270000  0.265600  1
  C  C938  1  0.077700  0.730000  0.734400  1
  C  C939  1  0.928100  0.221000  0.265800  1
  C  C940  1  0.071900  0.779000  0.734200  1
  C  C941  1  0.978000  0.221400  0.291300  1
  C  C942  1  0.022000  0.778600  0.708700  1
  C  C943  1  0.002800  0.270600  0.306900  1
  C  C944  1  0.997200  0.729400  0.693100  1
  C  C945  1  0.968000  0.300500  0.291000  1
  C  C946  1  0.032000  0.699500  0.709000  1
  C  C947  1  0.552800  0.405500  0.075500  1
  C  C948  1  0.447200  0.594500  0.924500  1
  C  C949  1  0.546700  0.430300  0.044100  1
  C  C950  1  0.453300  0.569700  0.955900  1
  C  C951  1  0.592300  0.470200  0.038600  1
  C  C952  1  0.407700  0.529800  0.961400  1
  C  C953  1  0.639800  0.487100  0.065600  1
  C  C954  1  0.360200  0.512900  0.934400  1
  C  C955  1  0.642600  0.460300  0.096600  1
  C  C956  1  0.357400  0.539700  0.903400  1
  C  C957  1  0.693100  0.470300  0.125700  1
  C  C958  1  0.306900  0.529700  0.874300  1
  C  C959  1  0.751700  0.457300  0.178200  1
  C  C960  1  0.248300  0.542700  0.821800  1
  C  C961  1  0.776300  0.506300  0.191600  1
  C  C962  1  0.223700  0.493700  0.808400  1
  C  C963  1  0.826100  0.518600  0.217600  1
  C  C964  1  0.173900  0.481400  0.782400  1
  C  C965  1  0.851300  0.482000  0.230200  1
  C  C966  1  0.148700  0.518000  0.769800  1
  C  C967  1  0.826600  0.433000  0.216700  1
  C  C968  1  0.173400  0.567000  0.783300  1
  C  C969  1  0.776800  0.420700  0.190700  1
  C  C970  1  0.223200  0.579300  0.809300  1
  C  C971  1  0.852500  0.571500  0.232800  1
  C  C972  1  0.147500  0.428500  0.767200  1
  C  C973  1  0.817300  0.602200  0.234700  1
  C  C974  1  0.182700  0.397800  0.765300  1
  C  C975  1  0.842000  0.651800  0.246800  1
  C  C976  1  0.158000  0.348200  0.753200  1
  C  C977  1  0.901800  0.670700  0.256900  1
  C  C978  1  0.098200  0.329300  0.743100  1
  C  C979  1  0.936900  0.640000  0.254900  1
  C  C980  1  0.063100  0.360000  0.745100  1
  C  C981  1  0.912200  0.590400  0.242900  1
  C  C982  1  0.087800  0.409600  0.757100  1
  C  C983  1  0.931500  0.725800  0.268400  1
  C  C984  1  0.068500  0.274200  0.731600  1
  C  C985  1  0.919600  0.774200  0.260100  1
  C  C986  1  0.080400  0.225800  0.739900  1
  C  C987  1  0.870000  0.786900  0.234700  1
  C  C988  1  0.130000  0.213100  0.765300  1
  C  C989  1  0.859400  0.831800  0.241400  1
  C  C990  1  0.140600  0.168200  0.758600  1
  C  C991  1  0.819000  0.847100  0.217400  1
  C  C992  1  0.181000  0.152900  0.782600  1
  C  C993  1  0.789300  0.817400  0.186700  1
  C  C994  1  0.210700  0.182600  0.813300  1
  C  C995  1  0.799900  0.772400  0.180100  1
  C  C996  1  0.200100  0.227600  0.819900  1
  C  C997  1  0.840300  0.757200  0.204100  1
  C  C998  1  0.159700  0.242800  0.795900  1
  C  C999  1  0.749200  0.836000  0.159100  1
  C  C1000  1  0.250800  0.164000  0.840900  1
  C  C1001  1  0.744400  0.883500  0.164200  1
  C  C1002  1  0.255600  0.116500  0.835800  1
  C  C1003  1  0.710700  0.902600  0.138000  1
  C  C1004  1  0.289300  0.097400  0.862000  1
  C  C1005  1  0.681900  0.874100  0.106700  1
  C  C1006  1  0.318100  0.125900  0.893300  1
  C  C1007  1  0.686700  0.826500  0.101600  1
  C  C1008  1  0.313300  0.173500  0.898400  1
  C  C1009  1  0.720400  0.807500  0.127800  1
  C  C1010  1  0.279600  0.192500  0.872200  1
  C  C1011  1  0.740300  0.988500  0.153800  1
  C  C1012  1  0.259700  0.011500  0.846200  1
  C  C1013  1  0.728000  0.036100  0.158000  1
  C  C1014  1  0.272000  0.963900  0.842000  1
  C  C1015  1  0.774400  0.078200  0.168000  1
  C  C1016  1  0.225600  0.921800  0.832000  1
  C  C1017  1  0.762500  0.122100  0.174400  1
  C  C1018  1  0.237500  0.877900  0.825600  1
  C  C1019  1  0.705600  0.123300  0.168300  1
  C  C1020  1  0.294400  0.876700  0.831700  1
  C  C1021  1  0.661400  0.078300  0.162600  1
  C  C1022  1  0.338600  0.921700  0.837400  1
  C  C1023  1  0.992900  0.851600  0.304400  1
  C  C1024  1  0.007100  0.148400  0.695600  1
  C  C1025  1  0.000000  0.892200  0.282500  1
  C  C1026  1  0.000000  0.107800  0.717500  1
  C  C1027  1  0.026400  0.940200  0.297700  1
  C  C1028  1  0.973600  0.059800  0.702300  1
  C  C1029  1  0.045500  0.947600  0.334700  1
  C  C1030  1  0.954500  0.052400  0.665300  1
  C  C1031  1  0.038400  0.907100  0.356500  1
  C  C1032  1  0.961600  0.092900  0.643500  1
  C  C1033  1  0.012000  0.859100  0.341300  1
  C  C1034  1  0.988000  0.140900  0.658700  1
  C  C1035  1  0.073800  0.999500  0.352100  1
  C  C1036  1  0.926200  0.000500  0.647900  1
  C  C1037  1  0.119900  0.007600  0.380600  1
  C  C1038  1  0.880100  0.992400  0.619400  1
  C  C1039  1  0.147800  0.055600  0.395300  1
  C  C1040  1  0.852200  0.944400  0.604700  1
  C  C1041  1  0.129600  0.095500  0.381500  1
  C  C1042  1  0.870400  0.904500  0.618500  1
  C  C1043  1  0.083600  0.087300  0.353000  1
  C  C1044  1  0.916400  0.912700  0.647000  1
  C  C1045  1  0.055600  0.039300  0.338300  1
  C  C1046  1  0.944400  0.960700  0.661700  1
  C  C1047  1  0.235200  0.043600  0.421700  1
  C  C1048  1  0.764800  0.956400  0.578300  1
  C  C1049  1  0.284600  0.049500  0.452500  1
  C  C1050  1  0.715400  0.950500  0.547500  1
  C  C1051  1  0.330600  0.031800  0.448700  1
  C  C1052  1  0.669400  0.968200  0.551300  1
  C  C1053  1  0.376900  0.041700  0.476600  1
  C  C1054  1  0.623100  0.958300  0.523400  1
  C  C1055  1  0.374100  0.065400  0.508200  1
  C  C1056  1  0.625900  0.934600  0.491800  1
  C  C1057  1  0.325300  0.080600  0.510400  1
  C  C1058  1  0.674700  0.919400  0.489600  1
  C  C1059  1  0.967400  0.799500  0.288400  1
  C  C1060  1  0.032600  0.200500  0.711600  1
  C  C1061  1  0.979100  0.750300  0.296900  1
  C  C1062  1  0.020900  0.249700  0.703100  1
  C  C1063  1  0.018900  0.736300  0.325400  1
  C  C1064  1  0.981100  0.263700  0.674600  1
  C  C1065  1  0.072600  0.769200  0.339500  1
  C  C1066  1  0.927400  0.230800  0.660500  1
  C  C1067  1  0.110800  0.753500  0.365000  1
  C  C1068  1  0.889200  0.246500  0.635000  1
  C  C1069  1  0.095200  0.705000  0.376300  1
  C  C1070  1  0.904800  0.295000  0.623700  1
  C  C1071  1  0.041500  0.672100  0.362100  1
  C  C1072  1  0.958500  0.327900  0.637900  1
  C  C1073  1  0.003300  0.687800  0.336700  1
  C  C1074  1  0.996700  0.312200  0.663300  1
  C  C1075  1  0.137200  0.686800  0.402800  1
  C  C1076  1  0.862800  0.313200  0.597200  1
  C  C1077  1  0.134300  0.636600  0.402700  1
  C  C1078  1  0.865700  0.363400  0.597300  1
  C  C1079  1  0.175300  0.620700  0.425700  1
  C  C1080  1  0.824700  0.379300  0.574300  1
  C  C1081  1  0.219000  0.655000  0.448800  1
  C  C1082  1  0.781000  0.345000  0.551200  1
  C  C1083  1  0.221900  0.705100  0.449000  1
  C  C1084  1  0.778100  0.294900  0.551000  1
  C  C1085  1  0.180900  0.721100  0.426000  1
  C  C1086  1  0.819100  0.278900  0.574000  1
  C  C1087  1  0.160400  0.541700  0.399200  1
  C  C1088  1  0.839600  0.458300  0.600800  1
  C  C1089  1  0.156100  0.488300  0.402700  1
  C  C1090  1  0.843900  0.511700  0.597300  1
  C  C1091  1  0.145300  0.458600  0.371600  1
  C  C1092  1  0.854700  0.541400  0.628400  1
  C  C1093  1  0.149000  0.410800  0.375000  1
  C  C1094  1  0.851000  0.589200  0.625000  1
  C  C1095  1  0.153000  0.391500  0.408900  1
  C  C1096  1  0.847000  0.608500  0.591100  1
  C  C1097  1  0.162400  0.423500  0.439000  1
  C  C1098  1  0.837600  0.576500  0.561000  1
  C  C1099  1  0.069700  0.825600  0.233300  1
  C  C1100  1  0.930300  0.174400  0.766700  1
  C  C1101  1  0.083400  0.781400  0.244000  1
  C  C1102  1  0.916600  0.218600  0.756000  1
  C  C1103  1  0.046000  0.741300  0.220700  1
  C  C1104  1  0.954000  0.258700  0.779300  1
  C  C1105  1  0.009200  0.760800  0.195600  1
  C  C1106  1  0.990800  0.239200  0.804400  1
  C  C1107  1  0.023800  0.812900  0.203300  1
  C  C1108  1  0.976200  0.187100  0.796700  1
  C  C1109  1  0.579400  0.264400  0.102100  1
  C  C1110  1  0.420600  0.735600  0.897900  1
  C  C1111  1  0.562400  0.213000  0.084100  1
  C  C1112  1  0.437600  0.787000  0.915900  1
  C  C1113  1  0.464300  0.337400  0.152200  1
  C  C1114  1  0.535700  0.662600  0.847800  1
  C  C1115  1  0.205700  0.458800  0.553700  1
  C  C1116  1  0.794300  0.541200  0.446300  1
  C  C1117  1  0.235500  0.443300  0.588000  1
  C  C1118  1  0.764500  0.556700  0.412000  1
  C  C1119  1  0.295000  0.224300  0.497500  1
  C  C1120  1  0.705000  0.775700  0.502500  1
  C  C1121  1  0.332300  0.278400  0.504900  1
  C  C1122  1  0.667700  0.721600  0.495100  1
  C  C1123  1  0.244000  0.101000  0.574500  1
  C  C1124  1  0.756000  0.899000  0.425500  1
  C  C1125  1  0.273000  0.100000  0.613300  1
  C  C1126  1  0.727000  0.900000  0.386700  1
  C  C1127  1  0.322000  0.553000  0.488700  1
  C  C1128  1  0.678000  0.447000  0.511300  1
  C  C1129  1  0.384000  0.551000  0.489800  1
  C  C1130  1  0.616000  0.449000  0.510200  1
  C  C1131  1  0.399900  0.311400  0.151400  1
  C  C1132  1  0.600100  0.688600  0.848600  1
  C  C1133  1  0.645100  0.285500  0.199400  1
  C  C1134  1  0.354900  0.714500  0.800600  1
  C  C1135  1  0.661900  0.261800  0.229600  1
  C  C1136  1  0.338100  0.738200  0.770400  1
  C  C1137  1  0.671100  0.285900  0.262700  1
  C  C1138  1  0.328900  0.714100  0.737300  1
  C  C1139  1  0.667000  0.333900  0.264800  1
  C  C1140  1  0.333000  0.666100  0.735200  1
  C  C1141  1  0.650400  0.355500  0.233200  1
  C  C1142  1  0.349600  0.644500  0.766800  1
  C  C1143  1  0.641900  0.403500  0.235800  1
  C  C1144  1  0.358100  0.596500  0.764200  1
  C  C1145  1  0.616600  0.471600  0.210500  1
  C  C1146  1  0.383400  0.528400  0.789500  1
  C  C1147  1  0.650300  0.506900  0.237200  1
  C  C1148  1  0.349700  0.493100  0.762800  1
  C  C1149  1  0.642600  0.554000  0.238500  1
  C  C1150  1  0.357400  0.446000  0.761500  1
  C  C1151  1  0.601300  0.565800  0.213000  1
  C  C1152  1  0.398700  0.434200  0.787000  1
  C  C1153  1  0.567600  0.530500  0.186300  1
  C  C1154  1  0.432400  0.469500  0.813700  1
  C  C1155  1  0.575300  0.483400  0.185000  1
  C  C1156  1  0.424700  0.516600  0.815000  1
  C  C1157  1  0.680900  0.593000  0.267100  1
  C  C1158  1  0.319100  0.407000  0.732900  1
  C  C1159  1  0.699500  0.642900  0.259200  1
  C  C1160  1  0.300500  0.357100  0.740800  1
  C  C1161  1  0.735500  0.677900  0.285400  1
  C  C1162  1  0.264500  0.322100  0.714600  1
  C  C1163  1  0.752900  0.662900  0.319600  1
  C  C1164  1  0.247100  0.337100  0.680400  1
  C  C1165  1  0.734400  0.613000  0.327400  1
  C  C1166  1  0.265600  0.387000  0.672600  1
  C  C1167  1  0.698300  0.578000  0.301200  1
  C  C1168  1  0.301700  0.422000  0.698800  1
  C  C1169  1  0.795700  0.699900  0.347100  1
  C  C1170  1  0.204300  0.300100  0.652900  1
  C  C1171  1  0.814500  0.755100  0.354300  1
  C  C1172  1  0.185500  0.244900  0.645700  1
  C  C1173  1  0.791600  0.794100  0.334300  1
  C  C1174  1  0.208400  0.205900  0.665700  1
  C  C1175  1  0.830600  0.839100  0.328100  1
  C  C1176  1  0.169400  0.160900  0.671900  1
  C  C1177  1  0.810700  0.875100  0.309400  1
  C  C1178  1  0.189300  0.124900  0.690600  1
  C  C1179  1  0.751800  0.866200  0.297000  1
  C  C1180  1  0.248200  0.133800  0.703000  1
  C  C1181  1  0.712700  0.821200  0.303200  1
  C  C1182  1  0.287300  0.178800  0.696800  1
  C  C1183  1  0.732600  0.785200  0.321900  1
  C  C1184  1  0.267400  0.214800  0.678100  1
  C  C1185  1  0.726600  0.902000  0.275100  1
  C  C1186  1  0.273400  0.098000  0.724900  1
  C  C1187  1  0.682800  0.885800  0.245500  1
  C  C1188  1  0.317200  0.114200  0.754500  1
  C  C1189  1  0.659100  0.919900  0.226800  1
  C  C1190  1  0.340900  0.080100  0.773200  1
  C  C1191  1  0.679300  0.970100  0.237800  1
  C  C1192  1  0.320700  0.029900  0.762200  1
  C  C1193  1  0.723200  0.986300  0.267400  1
  C  C1194  1  0.276800  0.013700  0.732600  1
  C  C1195  1  0.746800  0.952200  0.286100  1
  C  C1196  1  0.253200  0.047800  0.713900  1
  C  C1197  1  0.585400  0.859200  0.184100  1
  C  C1198  1  0.414600  0.140800  0.815900  1
  C  C1199  1  0.544700  0.841600  0.149800  1
  C  C1200  1  0.455300  0.158400  0.850200  1
  C  C1201  1  0.516800  0.792600  0.138200  1
  C  C1202  1  0.483200  0.207400  0.861800  1
  C  C1203  1  0.485200  0.783200  0.103900  1
  C  C1204  1  0.514800  0.216800  0.896100  1
  C  C1205  1  0.483500  0.822400  0.082000  1
  C  C1206  1  0.516500  0.177600  0.918000  1
  C  C1207  1  0.516700  0.870400  0.094600  1
  C  C1208  1  0.483300  0.129600  0.905400  1
  C  C1209  1  0.914600  0.789800  0.402900  1
  C  C1210  1  0.085400  0.210200  0.597100  1
  C  C1211  1  0.907400  0.833800  0.415500  1
  C  C1212  1  0.092600  0.166200  0.584500  1
  C  C1213  1  0.953900  0.869000  0.436000  1
  C  C1214  1  0.046100  0.131000  0.564000  1
  C  C1215  1  0.007600  0.860300  0.443900  1
  C  C1216  1  0.992400  0.139700  0.556100  1
  C  C1217  1  0.014800  0.816400  0.431300  1
  C  C1218  1  0.985200  0.183600  0.568700  1
  C  C1219  1  0.968300  0.781100  0.410800  1
  C  C1220  1  0.031700  0.218900  0.589200  1
  C  C1221  1  0.058100  0.900100  0.465700  1
  C  C1222  1  0.941900  0.099900  0.534300  1
  C  C1223  1  0.061600  0.950100  0.461900  1
  C  C1224  1  0.938400  0.049900  0.538100  1
  C  C1225  1  0.106800  0.986600  0.482300  1
  C  C1226  1  0.893200  0.013400  0.517700  1
  C  C1227  1  0.148600  0.973200  0.506400  1
  C  C1228  1  0.851400  0.026800  0.493600  1
  C  C1229  1  0.145100  0.923200  0.510100  1
  C  C1230  1  0.854900  0.076800  0.489900  1
  C  C1231  1  0.099900  0.886700  0.489700  1
  C  C1232  1  0.900100  0.113300  0.510300  1
  C  C1233  1  0.066100  0.052700  0.474900  1
  C  C1234  1  0.933900  0.947300  0.525100  1
  C  C1235  1  0.072700  0.107300  0.470800  1
  C  C1236  1  0.927300  0.892700  0.529200  1
  C  C1237  1  0.022600  0.121600  0.466700  1
  C  C1238  1  0.977400  0.878400  0.533300  1
  C  C1239  1  0.027800  0.171700  0.465900  1
  C  C1240  1  0.972200  0.828300  0.534100  1
  C  C1241  1  0.081900  0.205700  0.467200  1
  C  C1242  1  0.918100  0.794300  0.532800  1
  C  C1243  1  0.130200  0.188300  0.470200  1
  C  C1244  1  0.869800  0.811700  0.529800  1
  C  C1245  1  0.864400  0.752400  0.379700  1
  C  C1246  1  0.135600  0.247600  0.620300  1
  C  C1247  1  0.846700  0.697900  0.373200  1
  C  C1248  1  0.153300  0.302100  0.626800  1
  C  C1249  1  0.873800  0.658000  0.386700  1
  C  C1250  1  0.126200  0.342000  0.613300  1
  C  C1251  1  0.900500  0.660600  0.422500  1
  C  C1252  1  0.099500  0.339400  0.577500  1
  C  C1253  1  0.928800  0.625800  0.434600  1
  C  C1254  1  0.071200  0.374200  0.565400  1
  C  C1255  1  0.930500  0.588400  0.410900  1
  C  C1256  1  0.069500  0.411600  0.589100  1
  C  C1257  1  0.903800  0.585800  0.375100  1
  C  C1258  1  0.096200  0.414200  0.624900  1
  C  C1259  1  0.875500  0.620600  0.363000  1
  C  C1260  1  0.124500  0.379400  0.637000  1
  C  C1261  1  0.962600  0.551200  0.423900  1
  C  C1262  1  0.037400  0.448800  0.576100  1
  C  C1263  1  0.012900  0.567200  0.449400  1
  C  C1264  1  0.987100  0.432800  0.550600  1
  C  C1265  1  0.043000  0.533800  0.461900  1
  C  C1266  1  0.957000  0.466200  0.538100  1
  C  C1267  1  0.022800  0.484400  0.448900  1
  C  C1268  1  0.977200  0.515600  0.551100  1
  C  C1269  1  0.972500  0.468400  0.423500  1
  C  C1270  1  0.027500  0.531600  0.576500  1
  C  C1271  1  0.942400  0.501800  0.411000  1
  C  C1272  1  0.057600  0.498200  0.589000  1
  C  C1273  1  0.102000  0.580400  0.513600  1
  C  C1274  1  0.898000  0.419600  0.486400  1
  C  C1275  1  0.157700  0.602400  0.538100  1
  C  C1276  1  0.842300  0.397600  0.461900  1
  C  C1277  1  0.162400  0.633200  0.567700  1
  C  C1278  1  0.837600  0.366800  0.432300  1
  C  C1279  1  0.214800  0.648400  0.590600  1
  C  C1280  1  0.785200  0.351600  0.409400  1
  C  C1281  1  0.261200  0.634000  0.582400  1
  C  C1282  1  0.738800  0.366000  0.417600  1
  C  C1283  1  0.251600  0.599500  0.553900  1
  C  C1284  1  0.748400  0.400500  0.446100  1
  C  C1285  1  0.708700  0.717500  0.408300  1
  C  C1286  1  0.291300  0.282500  0.591700  1
  C  C1287  1  0.753000  0.758000  0.427300  1
  C  C1288  1  0.247000  0.242000  0.572700  1
  C  C1289  1  0.792900  0.738400  0.449700  1
  C  C1290  1  0.207100  0.261600  0.550300  1
  C  C1291  1  0.773200  0.685700  0.444600  1
  C  C1292  1  0.226800  0.314300  0.555400  1
  C  C1293  1  0.721100  0.672700  0.419000  1
  C  C1294  1  0.278900  0.327300  0.581000  1
  C  C1295  1  0.301500  0.245000  0.990000  1
  C  C1296  1  0.698500  0.755000  0.010000  1
  C  C1297  1  0.461400  0.297100  0.963700  1
  C  C1298  1  0.538600  0.702900  0.036300  1
  C  C1299  1  0.796600  0.287500  0.177800  1
  C  C1300  1  0.203400  0.712500  0.822200  1
  C  C1301  1  0.731100  0.248500  0.040000  1
  C  C1302  1  0.268900  0.751500  0.960000  1
  C  C1303  1  0.448700  0.505800  0.072900  1
  C  C1304  1  0.551300  0.494200  0.927100  1
  C  C1305  1  0.437400  0.644600  0.139100  1
  C  C1306  1  0.562600  0.355400  0.860900  1
  C  C1307  1  0.419600  0.794200  0.448400  1
  C  C1308  1  0.580400  0.205800  0.551600  1
  C  C1309  1  0.614600  0.824400  0.396100  1
  C  C1310  1  0.385400  0.175600  0.603900  1
  C  C1311  1  0.123100  0.740400  0.503400  1
  C  C1312  1  0.876900  0.259600  0.496600  1
  C  C1313  1  0.994900  0.684900  0.594700  1
  C  C1314  1  0.005100  0.315100  0.405300  1
  C  C1315  1  0.899200  0.062900  0.247000  1
  C  C1316  1  0.100800  0.937100  0.753000  1
  C  C1317  1  0.002600  0.954100  0.186500  1
  C  C1318  1  0.997400  0.045900  0.813500  1
  C  C1319  1  0.008300  0.810300  0.096200  1
  C  C1320  1  0.991700  0.189700  0.903800  1
  C  C1321  1  0.143100  0.828100  0.008300  1
  C  C1322  1  0.856900  0.171900  0.991700  1
  C  C1323  1  0.270800  0.889700  0.458400  1
  C  C1324  1  0.729200  0.110300  0.541600  1
  C  C1325  1  0.203100  0.887400  0.320400  1
  C  C1326  1  0.796900  0.112600  0.679600  1
  C  C1327  1  0.996000  0.450000  0.313800  1
  C  C1328  1  0.004000  0.550000  0.686200  1
  C  C1329  1  0.094000  0.613800  0.259500  1
  C  C1330  1  0.906000  0.386200  0.740500  1
  C  C1331  1  0.635800  0.621100  0.107300  1
  C  C1332  1  0.364200  0.378900  0.892700  1
  C  C1333  1  0.855600  0.664600  0.125900  1
  C  C1334  1  0.144400  0.335400  0.874100  1
  C  C1335  1  0.377800  0.308200  0.396100  1
  C  C1336  1  0.622200  0.691800  0.603900  1
  C  C1337  1  0.150400  0.239400  0.371200  1
  C  C1338  1  0.849600  0.760600  0.628800  1
  C  C1339  1  0.401100  0.146700  0.109600  1
  C  C1340  1  0.598900  0.853300  0.890400  1
  C  C1341  1  0.534000  0.122100  0.228700  1
  C  C1342  1  0.466000  0.877900  0.771300  1
  C  C1343  1  0.430700  0.609600  0.269300  1
  C  C1344  1  0.569300  0.390400  0.730700  1
  C  C1345  1  0.485000  0.618600  0.293500  1
  C  C1346  1  0.515000  0.381400  0.706500  1
  C  C1347  1  0.529900  0.600300  0.288000  1
  C  C1348  1  0.470100  0.399700  0.712000  1
  C  C1349  1  0.576100  0.607100  0.315600  1
  C  C1350  1  0.423900  0.392900  0.684400  1
  C  C1351  1  0.581100  0.638900  0.344800  1
  C  C1352  1  0.418900  0.361100  0.655200  1
  C  C1353  1  0.536200  0.659300  0.347100  1
  C  C1354  1  0.463800  0.340700  0.652900  1
  C  C1355  1  0.278800  0.322000  0.088500  1
  C  C1356  1  0.721200  0.678000  0.911500  1
  C  C1357  1  0.231000  0.291500  0.064200  1
  C  C1358  1  0.769000  0.708500  0.935800  1
  C  C1359  1  0.198900  0.322600  0.047200  1
  C  C1360  1  0.801100  0.677400  0.952800  1
  C  C1361  1  0.227000  0.372300  0.060900  1
  C  C1362  1  0.773000  0.627700  0.939100  1
  C  C1363  1  0.276700  0.371900  0.086400  1
  C  C1364  1  0.723300  0.628100  0.913600  1
  C  C1365  1  0.996000  0.249000  0.304400  1
  C  C1366  1  0.004000  0.751000  0.695600  1
  C  C1367  1  0.951000  0.216600  0.279600  1
  C  C1368  1  0.049000  0.783400  0.720400  1
  C  C1369  1  0.917400  0.246000  0.260600  1
  C  C1370  1  0.082600  0.754000  0.739400  1
  C  C1371  1  0.943000  0.295900  0.273700  1
  C  C1372  1  0.057000  0.704100  0.726300  1
  C  C1373  1  0.991000  0.298100  0.300700  1
  C  C1374  1  0.009000  0.701900  0.699300  1
  C  C1375  1  0.076300  0.806500  0.239900  1
  C  C1376  1  0.923700  0.193500  0.760100  1
  C  C1377  1  0.065000  0.754100  0.236000  1
  C  C1378  1  0.935000  0.245900  0.764000  1
  C  C1379  1  0.017000  0.735400  0.207900  1
  C  C1380  1  0.983000  0.264600  0.792100  1
  C  C1381  1  0.998600  0.776200  0.194400  1
  C  C1382  1  0.001400  0.223800  0.805600  1
  C  C1383  1  0.035000  0.820200  0.214200  1
  C  C1384  1  0.965000  0.179800  0.785800  1
  C  C1385  1  0.218000  0.094500  0.573900  1
  C  C1386  1  0.782000  0.905500  0.426100  1
  C  C1387  1  0.227000  0.087600  0.612600  1
  C  C1388  1  0.773000  0.912400  0.387400  1
  C  C1389  1  0.430000  0.512000  0.079000  1
  C  C1390  1  0.570000  0.488000  0.921000  1
  C  C1391  1  0.427000  0.660000  0.441000  1
  C  C1392  1  0.573000  0.340000  0.559000  1
  C  C1393  1  0.586000  0.802000  0.385600  1
  C  C1394  1  0.414000  0.198000  0.614400  1
  C  C1395  1  0.011800  0.810100  0.091800  1
  C  C1396  1  0.988200  0.189900  0.908200  1
  C  C1397  1  0.112300  0.833800  0.982700  1
  C  C1398  1  0.887700  0.166200  0.017300  1
  C  C1399  1  0.394100  0.856100  0.146400  1
  C  C1400  1  0.605900  0.143900  0.853600  1
  C  C1401  1  0.243200  0.787900  0.231400  1
  C  C1402  1  0.756800  0.212100  0.768600  1
  S  S1403  1  0.361300  0.252300  0.027800  1
  S  S1404  1  0.638700  0.747700  0.972200  1
  S  S1405  1  0.468000  0.261100  0.003900  1
  S  S1406  1  0.532000  0.738900  0.996100  1
  S  S1407  1  0.740100  0.271000  0.137600  1
  S  S1408  1  0.259900  0.729000  0.862400  1
  S  S1409  1  0.793500  0.276400  0.075800  1
  S  S1410  1  0.206500  0.723600  0.924200  1
  S  S1411  1  0.403800  0.506300  0.107500  1
  S  S1412  1  0.596200  0.493700  0.892500  1
  S  S1413  1  0.428400  0.585600  0.161900  1
  S  S1414  1  0.571600  0.414400  0.838100  1
  S  S1415  1  0.472000  0.824600  0.419700  1
  S  S1416  1  0.528000  0.175400  0.580300  1
  S  S1417  1  0.569700  0.785000  0.425500  1
  S  S1418  1  0.430300  0.215000  0.574500  1
  S  S1419  1  0.105600  0.754800  0.546900  1
  S  S1420  1  0.894400  0.245200  0.453100  1
  S  S1421  1  0.996500  0.680600  0.546000  1
  S  S1422  1  0.003500  0.319400  0.454000  1
  S  S1423  1  0.905300  0.000600  0.237100  1
  S  S1424  1  0.094700  0.999400  0.762900  1
  S  S1425  1  0.987100  0.014300  0.187200  1
  S  S1426  1  0.012900  0.985700  0.812800  1
  S  S1427  1  0.014100  0.820800  0.048500  1
  S  S1428  1  0.985900  0.179200  0.951500  1
  S  S1429  1  0.124400  0.801700  0.050600  1
  S  S1430  1  0.875600  0.198300  0.949400  1
  S  S1431  1  0.208600  0.883700  0.423900  1
  S  S1432  1  0.791400  0.116300  0.576100  1
  S  S1433  1  0.261600  0.903400  0.361900  1
  S  S1434  1  0.738400  0.096600  0.638100  1
  S  S1435  1  0.004600  0.516600  0.313300  1
  S  S1436  1  0.995400  0.483400  0.686700  1
  S  S1437  1  0.089400  0.545900  0.269000  1
  S  S1438  1  0.910600  0.454100  0.731000  1
  S  S1439  1  0.701200  0.631400  0.139700  1
  S  S1440  1  0.298800  0.368600  0.860300  1
  S  S1441  1  0.786900  0.646200  0.096580  1
  S  S1442  1  0.213100  0.353800  0.903420  1
  S  S1443  1  0.311900  0.287400  0.360700  1
  S  S1444  1  0.688100  0.712600  0.639300  1
  S  S1445  1  0.224300  0.259000  0.403060  1
  S  S1446  1  0.775700  0.741000  0.596940  1
  S  S1447  1  0.525600  0.139000  0.181600  1
  S  S1448  1  0.474400  0.861000  0.818400  1
  S  S1449  1  0.407400  0.136800  0.158000  1
  S  S1450  1  0.592600  0.863200  0.842000  1
  S  S1451  1  0.432100  0.608000  0.128200  1
  S  S1452  1  0.567900  0.392000  0.871800  1
  S  S1453  1  0.436000  0.727100  0.438200  1
  S  S1454  1  0.564000  0.272900  0.561800  1
  S  S1455  1  0.549000  0.780000  0.423400  1
  S  S1456  1  0.451000  0.220000  0.576600  1
  S  S1457  1  0.990200  0.818800  0.043900  1
  S  S1458  1  0.009800  0.181200  0.956100  1
  S  S1459  1  0.097000  0.807700  0.025900  1
  S  S1460  1  0.903000  0.192300  0.974100  1
  S  S1461  1  0.323800  0.855600  0.158100  1
  S  S1462  1  0.676200  0.144400  0.841900  1
  S  S1463  1  0.317600  0.799200  0.223300  1
  S  S1464  1  0.682400  0.200800  0.776700  1
  N  N1465  1  0.889100  0.482600  0.018600  1
  N  N1466  1  0.110900  0.517400  0.981400  1
  N  N1467  1  0.881900  0.579400  0.025900  1
  N  N1468  1  0.118100  0.420600  0.974100  1
  N  N1469  1  0.384500  0.619800  0.281700  1
  N  N1470  1  0.615500  0.380200  0.718300  1
  N  N1471  1  0.380900  0.121200  0.287300  1
  N  N1472  1  0.619100  0.878800  0.712700  1
  N  N1473  1  0.367800  0.021200  0.293100  1
  N  N1474  1  0.632200  0.978800  0.706900  1
  N  N1475  1  0.897700  0.998600  0.010300  1
  N  N1476  1  0.102300  0.001400  0.989700  1
  N  N1477  1  0.791900  0.983600  0.964400  1
  N  N1478  1  0.208100  0.016400  0.035600  1
  N  N1479  1  0.810100  0.469300  0.076300  1
  N  N1480  1  0.189900  0.530700  0.923700  1
  N  N1481  1  0.727300  0.434900  0.016800  1
  N  N1482  1  0.272700  0.565100  0.983200  1
  N  N1483  1  0.319900  0.598900  0.344100  1
  N  N1484  1  0.680100  0.401100  0.655900  1
  N  N1485  1  0.329200  0.697400  0.339100  1
  N  N1486  1  0.670800  0.302600  0.660900  1
  N  N1487  1  0.306100  0.098700  0.346100  1
  N  N1488  1  0.693900  0.901300  0.653900  1
  N  N1489  1  0.408100  0.130900  0.389800  1
  N  N1490  1  0.591900  0.869100  0.610200  1
  N  N1491  1  0.819600  0.976400  0.067600  1
  N  N1492  1  0.180400  0.023600  0.932400  1
  N  N1493  1  0.836100  0.887400  0.056300  1
  N  N1494  1  0.163900  0.112600  0.943700  1
  N  N1495  1  0.740200  0.553600  0.009700  1
  N  N1496  1  0.259800  0.446400  0.990300  1
  N  N1497  1  0.791200  0.500000  0.957200  1
  N  N1498  1  0.208800  0.500000  0.042800  1
  N  N1499  1  0.488600  0.100900  0.340700  1
  N  N1500  1  0.511400  0.899100  0.659300  1
  N  N1501  1  0.413000  0.019000  0.381400  1
  N  N1502  1  0.587000  0.981000  0.618600  1
  N  N1503  1  0.713000  0.907500  0.010000  1
  N  N1504  1  0.287000  0.092500  0.990000  1
  N  N1505  1  0.809800  0.877200  0.970700  1
  N  N1506  1  0.190200  0.122800  0.029300  1
  N  N1507  1  0.483000  0.628800  0.344000  1
  N  N1508  1  0.517000  0.371200  0.656000  1
  N  N1509  1  0.699800  0.442500  0.150200  1
  N  N1510  1  0.300200  0.557500  0.849800  1
  N  N1511  1  0.599800  0.419400  0.101500  1
  N  N1512  1  0.400200  0.580600  0.898500  1
  N  N1513  1  0.700100  0.948800  0.143200  1
  N  N1514  1  0.299900  0.051200  0.856800  1
  N  N1515  1  0.672400  0.034700  0.157700  1
  N  N1516  1  0.327600  0.965300  0.842300  1
  N  N1517  1  0.194100  0.066400  0.423500  1
  N  N1518  1  0.805900  0.933600  0.576500  1
  N  N1519  1  0.280600  0.072500  0.482900  1
  N  N1520  1  0.719400  0.927500  0.517100  1
  N  N1521  1  0.175500  0.568900  0.427200  1
  N  N1522  1  0.824500  0.431100  0.572800  1
  N  N1523  1  0.162400  0.471300  0.436100  1
  N  N1524  1  0.837600  0.528700  0.563900  1
  N  N1525  1  0.620500  0.424500  0.204900  1
  N  N1526  1  0.379500  0.575500  0.795100  1
  N  N1527  1  0.636500  0.330600  0.200800  1
  N  N1528  1  0.363500  0.669400  0.799200  1
  N  N1529  1  0.619200  0.907700  0.191600  1
  N  N1530  1  0.380800  0.092300  0.808400  1
  N  N1531  1  0.545800  0.880300  0.128600  1
  N  N1532  1  0.454200  0.119700  0.871400  1
  N  N1533  1  0.112700  0.039500  0.481200  1
  N  N1534  1  0.887300  0.960500  0.518800  1
  N  N1535  1  0.126100  0.139600  0.472600  1
  N  N1536  1  0.873900  0.860400  0.527400  1
  N  N1537  1  0.095500  0.548400  0.487000  1
  N  N1538  1  0.904500  0.451600  0.513000  1
  N  N1539  1  0.201100  0.585600  0.530600  1
  N  N1540  1  0.798900  0.414400  0.469400  1
  N  N1541  1  0.594400  0.303600  0.117700  1
  N  N1542  1  0.405600  0.696400  0.882300  1
  N  N1543  1  0.512500  0.353400  0.149800  1
  N  N1544  1  0.487500  0.646600  0.850200  1
  N  N1545  1  0.216600  0.102500  0.545900  1
  N  N1546  1  0.783400  0.897500  0.454100  1
  N  N1547  1  0.267200  0.183400  0.491200  1
  N  N1548  1  0.732800  0.816600  0.508800  1
  N  N1549  1  0.273000  0.545500  0.486000  1
  N  N1550  1  0.727000  0.454500  0.514000  1
  N  N1551  1  0.186400  0.470300  0.525600  1
  N  N1552  1  0.813600  0.529700  0.474400  1
  N  N1553  1  0.404100  0.227200  0.009900  1
  N  N1554  1  0.595900  0.772800  0.990100  1
  N  N1555  1  0.774000  0.247800  0.111600  1
  N  N1556  1  0.226000  0.752200  0.888400  1
  N  N1557  1  0.447200  0.549300  0.136200  1
  N  N1558  1  0.552800  0.450700  0.863800  1
  N  N1559  1  0.502600  0.783100  0.408800  1
  N  N1560  1  0.497400  0.216900  0.591200  1
  N  N1561  1  0.034100  0.736700  0.538800  1
  N  N1562  1  0.965900  0.263300  0.461200  1
  N  N1563  1  0.970800  0.015200  0.227600  1
  N  N1564  1  0.029200  0.984800  0.772400  1
  N  N1565  1  0.053300  0.783100  0.043000  1
  N  N1566  1  0.946700  0.216900  0.957000  1
  N  N1567  1  0.231300  0.866900  0.388700  1
  N  N1568  1  0.768700  0.133100  0.611300  1
  N  N1569  1  0.026400  0.525000  0.275700  1
  N  N1570  1  0.973600  0.475000  0.724300  1
  N  N1571  1  0.748000  0.663900  0.119100  1
  N  N1572  1  0.252000  0.336100  0.880900  1
  N  N1573  1  0.263300  0.298100  0.380400  1
  N  N1574  1  0.736700  0.701900  0.619600  1
  N  N1575  1  0.474100  0.166800  0.176800  1
  N  N1576  1  0.525900  0.833200  0.823200  1
  N  N1577  1  0.487000  0.647300  0.322600  1
  N  N1578  1  0.513000  0.352700  0.677400  1
  N  N1579  1  0.738000  0.259200  0.096300  1
  N  N1580  1  0.262000  0.740800  0.903700  1
  N  N1581  1  0.479000  0.752000  0.409200  1
  N  N1582  1  0.521000  0.248000  0.590800  1
  N  N1583  1  0.025800  0.794600  0.019700  1
  N  N1584  1  0.974200  0.205400  0.980300  1
  N  N1585  1  0.333500  0.851900  0.202300  1
  N  N1586  1  0.666500  0.148100  0.797700  1
  O  O1587  1  0.437000  0.680000  0.398000  1
  O  O1588  1  0.563000  0.320000  0.602000  1
  O  O1589  1  0.457000  0.741000  0.329100  1
  O  O1590  1  0.543000  0.259000  0.670900  1
  O  O1591  1  0.532000  0.988000  0.161000  1
  O  O1592  1  0.468000  0.012000  0.839000  1
  O  O1593  1  0.594000  0.996000  0.075600  1
  O  O1594  1  0.406000  0.004000  0.924400  1
  O  O1595  1  0.337500  0.218300  0.053800  1
  O  O1596  1  0.662500  0.781700  0.946200  1
  O  O1597  1  0.386200  0.304400  0.037100  1
  O  O1598  1  0.613800  0.695600  0.962900  1
  O  O1599  1  0.491800  0.297800  0.032900  1
  O  O1600  1  0.508200  0.702200  0.967100  1
  O  O1601  1  0.499800  0.229400  0.993000  1
  O  O1602  1  0.500200  0.770600  0.007000  1
  O  O1603  1  0.728400  0.315900  0.126500  1
  O  O1604  1  0.271600  0.684100  0.873500  1
  O  O1605  1  0.695100  0.230400  0.147700  1
  O  O1606  1  0.304900  0.769600  0.852300  1
  O  O1607  1  0.802500  0.328900  0.074500  1
  O  O1608  1  0.197500  0.671100  0.925500  1
  O  O1609  1  0.836200  0.256600  0.065200  1
  O  O1610  1  0.163800  0.743400  0.934800  1
  O  O1611  1  0.353600  0.515800  0.089300  1
  O  O1612  1  0.646400  0.484200  0.910700  1
  O  O1613  1  0.405900  0.460900  0.125000  1
  O  O1614  1  0.594100  0.539100  0.875000  1
  O  O1615  1  0.369300  0.574300  0.166200  1
  O  O1616  1  0.630700  0.425700  0.833800  1
  O  O1617  1  0.472900  0.600000  0.193400  1
  O  O1618  1  0.527100  0.400000  0.806600  1
  O  O1619  1  0.438100  0.832100  0.386300  1
  O  O1620  1  0.561900  0.167900  0.613700  1
  O  O1621  1  0.512100  0.865200  0.441900  1
  O  O1622  1  0.487900  0.134800  0.558100  1
  O  O1623  1  0.586000  0.809200  0.460500  1
  O  O1624  1  0.414000  0.190800  0.539500  1
  O  O1625  1  0.575000  0.736600  0.418300  1
  O  O1626  1  0.425000  0.263400  0.581700  1
  O  O1627  1  0.118300  0.808200  0.551300  1
  O  O1628  1  0.881700  0.191800  0.448700  1
  O  O1629  1  0.133500  0.730900  0.574500  1
  O  O1630  1  0.866500  0.269100  0.425500  1
  O  O1631  1  0.025500  0.644200  0.543100  1
  O  O1632  1  0.974500  0.355800  0.456900  1
  O  O1633  1  0.938200  0.674400  0.528600  1
  O  O1634  1  0.061800  0.325600  0.471400  1
  O  O1635  1  0.904900  0.976000  0.270100  1
  O  O1636  1  0.095100  0.024000  0.729900  1
  O  O1637  1  0.863600  0.981800  0.205000  1
  O  O1638  1  0.136400  0.018200  0.795000  1
  O  O1639  1  0.939600  0.009800  0.158600  1
  O  O1640  1  0.060400  0.990200  0.841400  1
  O  O1641  1  0.042700  0.050600  0.188400  1
  O  O1642  1  0.957300  0.949400  0.811600  1
  O  O1643  1  0.050000  0.871400  0.050600  1
  O  O1644  1  0.950000  0.128600  0.949400  1
  O  O1645  1  0.962200  0.799600  0.024500  1
  O  O1646  1  0.037800  0.200400  0.975500  1
  O  O1647  1  0.150300  0.838900  0.078900  1
  O  O1648  1  0.849700  0.161100  0.921100  1
  O  O1649  1  0.139400  0.755700  0.054400  1
  O  O1650  1  0.860600  0.244300  0.945600  1
  O  O1651  1  0.164000  0.843400  0.432700  1
  O  O1652  1  0.836000  0.156600  0.567300  1
  O  O1653  1  0.200700  0.932100  0.423500  1
  O  O1654  1  0.799300  0.067900  0.576500  1
  O  O1655  1  0.271900  0.954900  0.369900  1
  O  O1656  1  0.728100  0.045100  0.630100  1
  O  O1657  1  0.306100  0.885200  0.350400  1
  O  O1658  1  0.693900  0.114800  0.649600  1
  O  O1659  1  0.952200  0.527000  0.311300  1
  O  O1660  1  0.047800  0.473000  0.688700  1
  O  O1661  1  0.049400  0.532700  0.346000  1
  O  O1662  1  0.950600  0.467300  0.654000  1
  O  O1663  1  0.093600  0.527000  0.235400  1
  O  O1664  1  0.906400  0.473000  0.764600  1
  O  O1665  1  0.134700  0.548300  0.300600  1
  O  O1666  1  0.865300  0.451700  0.699400  1
  O  O1667  1  0.697300  0.658200  0.171600  1
  O  O1668  1  0.302700  0.341800  0.828400  1
  O  O1669  1  0.699900  0.579600  0.142600  1
  O  O1670  1  0.300100  0.420400  0.857400  1
  O  O1671  1  0.774800  0.594400  0.090200  1
  O  O1672  1  0.225200  0.405600  0.909800  1
  O  O1673  1  0.797300  0.679200  0.066400  1
  O  O1674  1  0.202700  0.320800  0.933600  1
  O  O1675  1  0.320900  0.320200  0.331200  1
  O  O1676  1  0.679100  0.679800  0.668800  1
  O  O1677  1  0.310800  0.238100  0.353500  1
  O  O1678  1  0.689200  0.761900  0.646500  1
  O  O1679  1  0.214700  0.284400  0.433000  1
  O  O1680  1  0.785300  0.715600  0.567000  1
  O  O1681  1  0.236700  0.212300  0.408100  1
  O  O1682  1  0.763300  0.787700  0.591900  1
  O  O1683  1  0.396000  0.084500  0.161700  1
  O  O1684  1  0.604000  0.915500  0.838300  1
  O  O1685  1  0.503000  0.092400  0.161200  1
  O  O1686  1  0.497000  0.907600  0.838800  1
  O  O1687  1  0.578600  0.173900  0.176700  1
  O  O1688  1  0.421400  0.826100  0.823300  1
  O  O1689  1  0.368400  0.160100  0.169800  1
  O  O1690  1  0.631600  0.839900  0.830200  1
  O  O1691  1  0.550000  0.987000  0.196000  1
  O  O1692  1  0.450000  0.013000  0.804000  1
  O  O1693  1  0.616000  0.961000  0.044000  1
  O  O1694  1  0.384000  0.039000  0.956000  1
  O  O1695  1  0.517000  0.989000  0.122000  1
  O  O1696  1  0.483000  0.011000  0.878000  1
  O  O1697  1  0.447000  0.753000  0.309000  1
  O  O1698  1  0.553000  0.247000  0.691000  1
  O  O1699  1  0.380000  0.731000  0.425000  1
  O  O1700  1  0.620000  0.269000  0.575000  1
  O  O1701  1  0.467000  0.747000  0.473200  1
  O  O1702  1  0.533000  0.253000  0.526800  1
  O  O1703  1  0.552000  0.823000  0.444000  1
  O  O1704  1  0.448000  0.177000  0.556000  1
  O  O1705  1  0.573000  0.741000  0.437000  1
  O  O1706  1  0.427000  0.259000  0.563000  1
  O  O1707  1  0.000000  0.870900  0.039300  1
  O  O1708  1  0.000000  0.129100  0.960700  1
  O  O1709  1  0.930600  0.789000  0.034900  1
  O  O1710  1  0.069400  0.211000  0.965100  1
  O  O1711  1  0.123000  0.847300  0.052400  1
  O  O1712  1  0.877000  0.152700  0.947600  1
  O  O1713  1  0.107000  0.760000  0.026000  1
  O  O1714  1  0.893000  0.240000  0.974000  1
  O  O1715  1  0.285000  0.809600  0.142000  1
  O  O1716  1  0.715000  0.190400  0.858000  1
  O  O1717  1  0.317000  0.902700  0.147900  1
  O  O1718  1  0.683000  0.097300  0.852100  1
  O  O1719  1  0.355800  0.809800  0.256900  1
  O  O1720  1  0.644200  0.190200  0.743100  1
  O  O1721  1  0.316000  0.759100  0.199600  1
  O  O1722  1  0.684000  0.240900  0.800400  1
  F  F1723  1  0.254700  0.253000  0.997500  1
  F  F1724  1  0.745300  0.747000  0.002500  1
  F  F1725  1  0.321800  0.272000  0.963100  1
  F  F1726  1  0.678200  0.728000  0.036900  1
  F  F1727  1  0.283500  0.197900  0.976200  1
  F  F1728  1  0.716500  0.802100  0.023800  1
  F  F1729  1  0.439900  0.332600  0.970900  1
  F  F1730  1  0.560100  0.667400  0.029100  1
  F  F1731  1  0.427000  0.267600  0.936900  1
  F  F1732  1  0.573000  0.732400  0.063100  1
  F  F1733  1  0.512800  0.313200  0.954000  1
  F  F1734  1  0.487200  0.686800  0.046000  1
  F  F1735  1  0.777600  0.304100  0.204300  1
  F  F1736  1  0.222400  0.695900  0.795700  1
  F  F1737  1  0.845000  0.320800  0.171800  1
  F  F1738  1  0.155000  0.679200  0.828200  1
  F  F1739  1  0.811400  0.246900  0.189400  1
  F  F1740  1  0.188600  0.753100  0.810600  1
  F  F1741  1  0.683000  0.253200  0.049600  1
  F  F1742  1  0.317000  0.746800  0.950400  1
  F  F1743  1  0.736800  0.266200  0.007500  1
  F  F1744  1  0.263200  0.733800  0.992500  1
  F  F1745  1  0.723000  0.198900  0.036700  1
  F  F1746  1  0.277000  0.801100  0.963300  1
  F  F1747  1  0.421900  0.467400  0.050900  1
  F  F1748  1  0.578100  0.532600  0.949100  1
  F  F1749  1  0.498300  0.501400  0.090800  1
  F  F1750  1  0.501700  0.498600  0.909200  1
  F  F1751  1  0.459100  0.548900  0.058400  1
  F  F1752  1  0.540900  0.451100  0.941600  1
  F  F1753  1  0.425000  0.674600  0.161100  1
  F  F1754  1  0.575000  0.325400  0.838900  1
  F  F1755  1  0.400000  0.634100  0.108700  1
  F  F1756  1  0.600000  0.365900  0.891300  1
  F  F1757  1  0.490700  0.659300  0.133000  1
  F  F1758  1  0.509300  0.340700  0.867000  1
  F  F1759  1  0.382000  0.753500  0.432100  1
  F  F1760  1  0.618000  0.246500  0.567900  1
  F  F1761  1  0.391500  0.824500  0.456900  1
  F  F1762  1  0.608500  0.175500  0.543100  1
  F  F1763  1  0.447700  0.781700  0.478100  1
  F  F1764  1  0.552300  0.218300  0.521900  1
  F  F1765  1  0.668400  0.825500  0.407400  1
  F  F1766  1  0.331600  0.174500  0.592600  1
  F  F1767  1  0.607000  0.869200  0.395700  1
  F  F1768  1  0.393000  0.130800  0.604300  1
  F  F1769  1  0.596300  0.802800  0.363500  1
  F  F1770  1  0.403700  0.197200  0.636500  1
  F  F1771  1  0.086100  0.750300  0.476200  1
  F  F1772  1  0.913900  0.249700  0.523800  1
  F  F1773  1  0.176300  0.764900  0.500100  1
  F  F1774  1  0.823700  0.235100  0.499900  1
  F  F1775  1  0.113800  0.690900  0.499400  1
  F  F1776  1  0.886200  0.309100  0.500600  1
  F  F1777  1  0.963400  0.713900  0.601500  1
  F  F1778  1  0.036600  0.286100  0.398500  1
  F  F1779  1  0.047400  0.704900  0.613200  1
  F  F1780  1  0.952600  0.295100  0.386800  1
  F  F1781  1  0.972500  0.643000  0.609400  1
  F  F1782  1  0.027500  0.357000  0.390600  1
  F  F1783  1  0.940800  0.085100  0.274400  1
  F  F1784  1  0.059200  0.914900  0.725600  1
  F  F1785  1  0.847300  0.058500  0.253600  1
  F  F1786  1  0.152700  0.941500  0.746400  1
  F  F1787  1  0.910300  0.092100  0.219500  1
  F  F1788  1  0.089700  0.907900  0.780500  1
  F  F1789  1  0.047400  0.954700  0.211900  1
  F  F1790  1  0.952600  0.045300  0.788100  1
  F  F1791  1  0.956300  0.917000  0.192000  1
  F  F1792  1  0.043700  0.083000  0.808000  1
  F  F1793  1  0.016000  0.944400  0.155000  1
  F  F1794  1  0.984000  0.055600  0.845000  1
  F  F1795  1  0.059000  0.809000  0.114300  1
  F  F1796  1  0.941000  0.191000  0.885700  1
  F  F1797  1  0.997800  0.846900  0.113000  1
  F  F1798  1  0.002200  0.153100  0.887000  1
  F  F1799  1  0.971600  0.767100  0.102100  1
  F  F1800  1  0.028400  0.232900  0.897900  1
  F  F1801  1  0.128000  0.870500  0.006300  1
  F  F1802  1  0.872000  0.129500  0.993700  1
  F  F1803  1  0.110300  0.799000  0.980000  1
  F  F1804  1  0.889700  0.201000  0.020000  1
  F  F1805  1  0.198100  0.836900  0.006600  1
  F  F1806  1  0.801900  0.163100  0.993400  1
  F  F1807  1  0.262500  0.903800  0.489200  1
  F  F1808  1  0.737500  0.096200  0.510800  1
  F  F1809  1  0.282500  0.844700  0.462800  1
  F  F1810  1  0.717500  0.155300  0.537200  1
  F  F1811  1  0.320600  0.919000  0.451300  1
  F  F1812  1  0.679400  0.081000  0.548700  1
  F  F1813  1  0.187000  0.839800  0.311000  1
  F  F1814  1  0.813000  0.160200  0.689000  1
  F  F1815  1  0.222100  0.914300  0.294800  1
  F  F1816  1  0.777900  0.085700  0.705200  1
  F  F1817  1  0.156400  0.899600  0.328500  1
  F  F1818  1  0.843600  0.100400  0.671500  1
  F  F1819  1  0.947100  0.426500  0.287400  1
  F  F1820  1  0.052900  0.573500  0.712600  1
  F  F1821  1  0.972000  0.430800  0.345400  1
  F  F1822  1  0.028000  0.569200  0.654600  1
  F  F1823  1  0.037800  0.435300  0.310300  1
  F  F1824  1  0.962200  0.564700  0.689700  1
  F  F1825  1  0.055800  0.616400  0.231000  1
  F  F1826  1  0.944200  0.383600  0.769000  1
  F  F1827  1  0.087000  0.634300  0.289600  1
  F  F1828  1  0.913000  0.365700  0.710400  1
  F  F1829  1  0.148200  0.637600  0.256300  1
  F  F1830  1  0.851800  0.362400  0.743700  1
  F  F1831  1  0.630000  0.670200  0.104200  1
  F  F1832  1  0.370000  0.329800  0.895800  1
  F  F1833  1  0.587200  0.602200  0.119800  1
  F  F1834  1  0.412800  0.397800  0.880200  1
  F  F1835  1  0.635100  0.603900  0.075800  1
  F  F1836  1  0.364900  0.396100  0.924200  1
  F  F1837  1  0.853900  0.643100  0.157200  1
  F  F1838  1  0.146100  0.356900  0.842800  1
  F  F1839  1  0.874900  0.712900  0.133400  1
  F  F1840  1  0.125100  0.287100  0.866600  1
  F  F1841  1  0.897700  0.654500  0.111500  1
  F  F1842  1  0.102300  0.345500  0.888500  1
  F  F1843  1  0.424900  0.308900  0.382300  1
  F  F1844  1  0.575100  0.691100  0.617700  1
  F  F1845  1  0.388600  0.361900  0.401500  1
  F  F1846  1  0.611400  0.638100  0.598500  1
  F  F1847  1  0.372700  0.290300  0.425000  1
  F  F1848  1  0.627300  0.709700  0.575000  1
  F  F1849  1  0.160600  0.222500  0.340900  1
  F  F1850  1  0.839400  0.777500  0.659100  1
  F  F1851  1  0.136600  0.281300  0.364400  1
  F  F1852  1  0.863400  0.718700  0.635600  1
  F  F1853  1  0.113000  0.210100  0.386600  1
  F  F1854  1  0.887000  0.789900  0.613400  1
  F  F1855  1  0.432000  0.122000  0.096100  1
  F  F1856  1  0.568000  0.878000  0.903900  1
  F  F1857  1  0.347500  0.132000  0.092600  1
  F  F1858  1  0.652500  0.868000  0.907400  1
  F  F1859  1  0.422000  0.195000  0.104500  1
  F  F1860  1  0.578000  0.805000  0.895500  1
  F  F1861  1  0.484000  0.091000  0.234200  1
  F  F1862  1  0.516000  0.909000  0.765800  1
  F  F1863  1  0.576000  0.102000  0.237300  1
  F  F1864  1  0.424000  0.898000  0.762700  1
  F  F1865  1  0.543000  0.162000  0.250400  1
  F  F1866  1  0.457000  0.838000  0.749600  1
  F  F1867  1  0.669000  0.199600  0.027500  1
  F  F1868  1  0.331000  0.800400  0.972500  1
  F  F1869  1  0.441000  0.644000  0.411000  1
  F  F1870  1  0.559000  0.356000  0.589000  1
  F  F1871  1  0.373000  0.636000  0.443000  1
  F  F1872  1  0.627000  0.364000  0.557000  1
  F  F1873  1  0.461000  0.651000  0.469000  1
  F  F1874  1  0.539000  0.349000  0.531000  1
  F  F1875  1  0.639000  0.831000  0.399000  1
  F  F1876  1  0.361000  0.169000  0.601000  1
  F  F1877  1  0.558000  0.828000  0.364000  1
  F  F1878  1  0.442000  0.172000  0.636000  1
  F  F1879  1  0.590000  0.764000  0.367000  1
  F  F1880  1  0.410000  0.236000  0.633000  1
  F  F1881  1  0.026000  0.748000  0.603000  1
  F  F1882  1  0.974000  0.252000  0.397000  1
  F  F1883  1  0.059600  0.843000  0.108100  1
  F  F1884  1  0.940400  0.157000  0.891900  1
  F  F1885  1  0.021000  0.766000  0.097400  1
  F  F1886  1  0.979000  0.234000  0.902600  1
  F  F1887  1  0.973000  0.813000  0.112000  1
  F  F1888  1  0.027000  0.187000  0.888000  1
  F  F1889  1  0.133000  0.882700  0.986500  1
  F  F1890  1  0.867000  0.117300  0.013500  1
  F  F1891  1  0.060600  0.823600  0.962200  1
  F  F1892  1  0.939400  0.176400  0.037800  1
  F  F1893  1  0.148000  0.813000  0.971200  1
  F  F1894  1  0.852000  0.187000  0.028800  1
  F  F1895  1  0.396000  0.868000  0.112800  1
  F  F1896  1  0.604000  0.132000  0.887200  1
  F  F1897  1  0.436200  0.887000  0.169100  1
  F  F1898  1  0.563800  0.113000  0.830900  1
  F  F1899  1  0.402000  0.812100  0.152400  1
  F  F1900  1  0.598000  0.187900  0.847600  1
  F  F1901  1  0.228700  0.748700  0.250400  1
  F  F1902  1  0.771300  0.251300  0.749600  1
  F  F1903  1  0.206100  0.782700  0.201000  1
  F  F1904  1  0.793900  0.217300  0.799000  1
  F  F1905  1  0.237400  0.826100  0.249500  1
  F  F1906  1  0.762600  0.173900  0.750500  1
