
#######################################################################
#
#                 Cambridge Crystallographic Data Centre
#                                CCDC 
#
#######################################################################
#
# If this CIF has been generated from an entry in the Cambridge 
# Structural Database, then it will include bibliographic, chemical, 
# crystal, experimental, refinement or atomic coordinate data resulting 
# from the CCDC's data processing and validation procedures.
#
#######################################################################

data_JOZWAY
_chemical_formula_moiety         
'C174 H136 Cd4 Co2 N22 O2 8+,8(C2 F6 N1 O4 S2 1-)'
_chemical_name_systematic        
"bis(\m~5~-\h^4^-N,N',N'',N'''-(cyclobuta-1,3-diene-1,2,3,4-tetrayltetrabiphenyl-4',3-diyl)tetrakis(1-(pyridin-2-yl)methanimine))-bis(\h^5^-cyclopentadienyl)-diaqua-hexakis(acetonitrile)-di-cobalt-tetra-cadmium octakis(bis((trifluoromethyl)sulfonyl)azanide) unknown solvate"
_symmetry_cell_setting           triclinic
_symmetry_space_group_name_H-M   'P -1'
_symmetry_Int_Tables_number      2
_space_group_name_Hall           '-P 1'
loop_
_symmetry_equiv_pos_site_id
_symmetry_equiv_pos_as_xyz
1 x,y,z
2 -x,-y,-z
_cell_length_a                   24.435(2)
_cell_length_b                   28.080(2)
_cell_length_c                   37.608(3)
_cell_angle_alpha                90.018(4)
_cell_angle_beta                 99.198(4)
_cell_angle_gamma                106.888(3)
_cell_volume                     24344
_exptl_crystal_colour            yellow
_exptl_crystal_description       needle
_cell_formula_units_Z            4
loop_
_atom_site_label
_atom_site_type_symbol
_atom_site_fract_x
_atom_site_fract_y
_atom_site_fract_z
Cd1 Cd -0.19701(9) 0.50675(7) 0.01903(5)
Cd2 Cd 0.40306(13) 0.66359(11) 0.33854(11)
Cd3 Cd 0.39301(10) 0.07915(8) 0.34119(6)
Cd4 Cd -0.18989(11) -0.06392(8) 0.01292(6)
Co1 Co 0.00313(14) 0.27055(11) 0.25313(8)
Co2 Co 0.20473(15) 0.32584(12) 0.10400(8)
N1 N -0.1109(9) 0.4826(7) 0.0186(5)
N2 N -0.1181(5) 0.5794(4) 0.0259(5)
N3 N 0.3845(10) 0.6198(9) 0.2817(6)
N4 N 0.3809(10) 0.1212(8) 0.2873(6)
N5 N 0.3678(10) 0.0212(6) 0.2931(5)
N6 N -0.1023(10) -0.0014(8) 0.0103(5)
N7 N -0.2081(10) -0.0164(8) -0.0356(4)
N8 N -0.1899(9) 0.4693(7) 0.0763(5)
N9 N -0.2727(6) 0.4349(5) 0.0168(5)
N10 N 0.3199(13) 0.5989(9) 0.3441(8)
N11 N 0.3292(8) 0.6974(7) 0.3391(7)
N12 N 0.3061(9) 0.0987(7) 0.3461(5)
N13 N 0.4081(8) 0.1309(7) 0.3898(4)
N14 N -0.1804(10) -0.0236(8) 0.0676(6)
N15 N -0.1639(10) -0.1126(6) 0.0563(4)
N16 N -0.2598(8) 0.5536(6) 0.0097(5)
N17 N -0.2088(9) 0.5000(8) -0.0428(5)
N18 N 0.4886(13) 0.1009(14) 0.3407(10)
N19 N 0.4130(12) 0.0190(9) 0.3814(8)
N20 N -0.2870(16) -0.0925(13) 0.0100(10)
N21 N -0.1902(12) -0.1228(9) -0.0293(6)
O1 O 0.437(3) 0.680(3) 0.398(2)
O2 O 0.457(2) 0.741(2) 0.3291(14)
C1 C -0.1197(5) 0.6266(5) 0.0292(6)
H1 H -0.1565 0.6322 0.0278
C2 C -0.0709(7) 0.6674(4) 0.0344(6)
H2 H -0.0739 0.7001 0.0372
C3 C -0.0177(6) 0.6593(5) 0.0356(6)
H3 H 0.0164 0.6867 0.0368
C4 C -0.0144(5) 0.6111(6) 0.0350(6)
H4 H 0.0222 0.6048 0.0382
C5 C -0.0655(7) 0.5718(4) 0.0296(6)
C6 C -0.0650(12) 0.5196(9) 0.0267(6)
H5 H -0.0286 0.5130 0.0311
C7 C -0.1071(7) 0.4341(4) 0.0163(4)
C8 C -0.0639(6) 0.4183(5) 0.0372(4)
H6 H -0.0350 0.4410 0.0541
C9 C -0.0630(6) 0.3693(5) 0.0333(4)
C10 C -0.1053(6) 0.3361(4) 0.0086(4)
H7 H -0.1047 0.3026 0.0060
C11 C -0.1485(6) 0.3519(5) -0.0122(3)
H8 H -0.1774 0.3292 -0.0291
C12 C -0.1494(6) 0.4009(5) -0.0084(4)
H9 H -0.1789 0.4117 -0.0226
C13 C -0.0116(6) 0.3565(6) 0.0548(3)
C14 C 0.0424(7) 0.3917(4) 0.0639(4)
H10 H 0.0481 0.4247 0.0560
C15 C 0.0879(5) 0.3787(5) 0.0844(4)
H11 H 0.1248 0.4027 0.0906
C16 C 0.0795(6) 0.3304(6) 0.0959(3)
C17 C 0.0255(7) 0.2952(4) 0.0869(4)
H12 H 0.0198 0.2622 0.0947
C18 C -0.0200(5) 0.3082(5) 0.0663(4)
H13 H -0.0569 0.2842 0.0601
C19 C 0.1275(11) 0.3197(8) 0.1194(6)
C20 C 0.1769(11) 0.3478(9) 0.1460(6)
C21 C 0.1985(7) 0.3997(5) 0.1650(4)
C22 C 0.2575(7) 0.4219(6) 0.1762(4)
H14 H 0.2844 0.4046 0.1725
C23 C 0.2773(6) 0.4695(6) 0.1927(4)
H15 H 0.3177 0.4846 0.2004
C24 C 0.2380(7) 0.4949(5) 0.1981(4)
C25 C 0.1789(7) 0.4727(6) 0.1869(4)
H16 H 0.1520 0.4900 0.1906
C26 C 0.1591(6) 0.4251(6) 0.1704(4)
H17 H 0.1187 0.4100 0.1628
C27 C 0.2593(8) 0.5462(5) 0.2146(5)
C28 C 0.3098(8) 0.5573(6) 0.2401(5)
H18 H 0.3284 0.5323 0.2463
C29 C 0.3330(7) 0.6048(7) 0.2564(4)
C30 C 0.3058(8) 0.6413(5) 0.2474(5)
H19 H 0.3217 0.6738 0.2585
C31 C 0.2553(8) 0.6302(6) 0.2219(5)
H20 H 0.2367 0.6552 0.2157
C32 C 0.2321(7) 0.5827(7) 0.2056(4)
H21 H 0.1976 0.5751 0.1882
C33 C 0.431(2) 0.594(3) 0.2889(17)
H22 H 0.4274 0.5701 0.2702
N22 N 0.4830(17) 0.6288(17) 0.3440(13)
C34 C 0.4798(18) 0.596(2) 0.3168(12)
C35 C 0.5211(19) 0.5721(18) 0.3150(12)
H23 H 0.5156 0.5472 0.2966
C36 C 0.5705(17) 0.585(2) 0.3407(14)
H24 H 0.6026 0.5737 0.3381
C37 C 0.5730(18) 0.616(2) 0.3703(12)
H25 H 0.6054 0.6227 0.3893
C38 C 0.527(2) 0.635(2) 0.3717(11)
H26 H 0.5274 0.6539 0.3928
C39 C 0.2405(6) 0.2895(6) 0.1803(4)
C40 C 0.2603(7) 0.3150(5) 0.2138(4)
H27 H 0.2472 0.3425 0.2191
C41 C 0.2991(7) 0.3003(6) 0.2393(3)
H28 H 0.3126 0.3177 0.2622
C42 C 0.3181(6) 0.2600(6) 0.2315(4)
C43 C 0.2983(7) 0.2345(5) 0.1980(4)
H29 H 0.3113 0.2069 0.1927
C44 C 0.2595(7) 0.2492(5) 0.1725(3)
H30 H 0.2460 0.2317 0.1496
C45 C 0.3565(7) 0.2416(6) 0.2596(4)
C46 C 0.3492(7) 0.1907(6) 0.2605(4)
H31 H 0.3189 0.1682 0.2443
C47 C 0.3864(8) 0.1726(5) 0.2850(5)
C48 C 0.4308(7) 0.2055(6) 0.3087(4)
H32 H 0.4562 0.1932 0.3255
C49 C 0.4380(7) 0.2565(6) 0.3079(4)
H33 H 0.4684 0.2789 0.3241
C50 C 0.4009(8) 0.2745(5) 0.2833(5)
H34 H 0.4058 0.3093 0.2827
C51 C 0.3623(12) 0.0914(10) 0.2581(8)
H35 H 0.3521 0.1044 0.2355
C52 C 0.3574(12) 0.0388(5) 0.2602(6)
C53 C 0.3367(12) 0.0087(8) 0.2290(4)
H36 H 0.3254 0.0220 0.2067
C54 C 0.3329(13) -0.0410(7) 0.2311(5)
H37 H 0.3236 -0.0619 0.2098
C55 C 0.3428(13) -0.0603(5) 0.2645(6)
H38 H 0.3371 -0.0950 0.2667
C56 C 0.3613(12) -0.0280(7) 0.2950(4)
H39 H 0.3695 -0.0410 0.3178
C57 C 0.1950(9) 0.3036(8) 0.1534(6)
C58 C 0.1464(9) 0.2742(6) 0.1250(5)
C59 C 0.1194(7) 0.2200(4) 0.1125(4)
C60 C 0.1175(7) 0.1819(5) 0.1363(3)
H40 H 0.1349 0.1895 0.1609
C61 C 0.0900(7) 0.1327(5) 0.1241(4)
H41 H 0.0886 0.1067 0.1404
C62 C 0.0644(7) 0.1216(4) 0.0882(4)
C63 C 0.0664(7) 0.1597(6) 0.0644(3)
H42 H 0.0489 0.1521 0.0398
C64 C 0.0939(7) 0.2089(5) 0.0765(4)
H43 H 0.0952 0.2350 0.0603
C65 C 0.0294(7) 0.0684(4) 0.0742(4)
C66 C -0.0202(8) 0.0585(5) 0.0481(4)
H44 H -0.0340 0.0850 0.0387
C67 C -0.0496(6) 0.0096(7) 0.0357(4)
C68 C -0.0294(7) -0.0292(5) 0.0494(4)
H45 H -0.0495 -0.0626 0.0410
C69 C 0.0202(8) -0.0193(5) 0.0755(4)
H46 H 0.0340 -0.0458 0.0849
C70 C 0.0496(6) 0.0296(6) 0.0879(4)
H47 H 0.0835 0.0364 0.1057
C71 C -0.1054(10) 0.0306(10) -0.0166(6)
H48 H -0.0731 0.0582 -0.0191
C72 C -0.1622(8) 0.0205(9) -0.0421(5)
C73 C -0.1633(8) 0.0492(8) -0.0719(6)
H49 H -0.1297 0.0747 -0.0757
C74 C -0.2144(11) 0.0398(9) -0.0959(6)
H50 H -0.2175 0.0604 -0.1156
C75 C -0.2613(9) 0.0001(10) -0.0910(6)
H51 H -0.2955 -0.0091 -0.1087
C76 C -0.2574(8) -0.0261(9) -0.0597(6)
H52 H -0.2906 -0.0515 -0.0553
C77 C 0.2914(12) 0.3579(15) 0.0967(8)
H53 H 0.3249 0.3674 0.1148
C78 C 0.2675(17) 0.3105(12) 0.0781(10)
H54 H 0.2824 0.2828 0.0816
C79 C 0.2176(14) 0.3119(11) 0.0534(9)
H55 H 0.1932 0.2852 0.0374
C80 C 0.2106(14) 0.3601(14) 0.0567(9)
H56 H 0.1807 0.3713 0.0434
C81 C 0.2562(16) 0.3885(9) 0.0835(10)
H57 H 0.2621 0.4221 0.0912
C82 C 0.5371(14) 0.1088(19) 0.3378(14)
C83 C 0.6025(13) 0.1205(19) 0.3394(14)
H58 H 0.6216 0.1553 0.3479
H59 H 0.6107 0.1154 0.3152
H60 H 0.6173 0.0984 0.3559
C84 C -0.2897(10) 0.5788(8) 0.0034(6)
C85 C -0.3258(10) 0.6138(8) -0.0041(6)
H61 H -0.3015 0.6461 -0.0102
H62 H -0.3424 0.6181 0.0173
H63 H -0.3573 0.6000 -0.0244
C86 C -0.2191(12) 0.4900(11) -0.0736(6)
C87 C -0.2366(14) 0.4707(12) -0.1125(6)
H64 H -0.2032 0.4648 -0.1211
H65 H -0.2498 0.4953 -0.1272
H66 H -0.2681 0.4394 -0.1143
C88 C 0.4257(16) -0.0154(11) 0.3930(10)
C89 C 0.4371(15) -0.0623(11) 0.4077(10)
H67 H 0.4215 -0.0693 0.4302
H68 H 0.4790 -0.0577 0.4124
H69 H 0.4181 -0.0902 0.3901
C90 C -0.3371(17) -0.1009(18) 0.0047(13)
C91 C -0.4030(16) -0.1144(15) 0.0016(11)
H70 H -0.4132 -0.0896 0.0154
H71 H -0.4177 -0.1474 0.0111
H72 H -0.4205 -0.1151 -0.0238
C92 C -0.2066(13) -0.1430(12) -0.0572(7)
C93 C -0.2355(14) -0.1675(12) -0.0942(7)
H73 H -0.2776 -0.1792 -0.0951
H74 H -0.2212 -0.1959 -0.0985
H75 H -0.2261 -0.1433 -0.1127
C94 C -0.3167(8) 0.4218(7) -0.0112(4)
H76 H -0.3148 0.4419 -0.0315
C95 C -0.3647(8) 0.3807(7) -0.0120(4)
H77 H -0.3947 0.3726 -0.0324
C96 C -0.3676(7) 0.3518(6) 0.0175(5)
H78 H -0.4003 0.3236 0.0180
C97 C -0.3229(8) 0.3642(7) 0.0466(4)
H79 H -0.3233 0.3436 0.0667
C98 C -0.2771(7) 0.4073(6) 0.0460(4)
C99 C -0.2278(11) 0.4245(9) 0.0750(6)
H80 H -0.2225 0.4028 0.0937
C100 C -0.1424(6) 0.4814(5) 0.1048(4)
C101 C -0.1165(7) 0.4465(4) 0.1199(4)
H81 H -0.1299 0.4129 0.1105
C102 C -0.0710(7) 0.4605(5) 0.1488(4)
C103 C -0.0514(6) 0.5096(5) 0.1626(4)
H82 H -0.0203 0.5192 0.1824
C104 C -0.0773(7) 0.5445(4) 0.1476(4)
H83 H -0.0639 0.5780 0.1570
C105 C -0.1228(7) 0.5304(5) 0.1187(4)
H84 H -0.1405 0.5543 0.1083
C106 C -0.0443(7) 0.4218(5) 0.1656(3)
C107 C -0.0263(7) 0.4233(5) 0.2027(3)
H85 H -0.0307 0.4488 0.2176
C108 C -0.0019(7) 0.3875(5) 0.2179(3)
H86 H 0.0103 0.3885 0.2432
C109 C 0.0044(7) 0.3502(5) 0.1960(3)
C110 C -0.0135(7) 0.3487(5) 0.1590(3)
H87 H -0.0092 0.3232 0.1440
C111 C -0.0379(7) 0.3845(5) 0.1438(3)
H88 H -0.0502 0.3835 0.1184
C112 C 0.0291(10) 0.3112(8) 0.2117(6)
C113 C 0.0791(10) 0.3089(8) 0.2390(6)
C114 C 0.1242(11) 0.3467(9) 0.2622(7)
C115 C 0.1374(12) 0.3987(9) 0.2536(7)
H89 H 0.1151 0.4089 0.2336
C116 C 0.1826(13) 0.4330(10) 0.2749(8)
H90 H 0.1885 0.4671 0.2698
C117 C 0.2224(14) 0.4218(10) 0.3045(9)
C118 C 0.2083(13) 0.3728(10) 0.3096(8)
H91 H 0.2320 0.3626 0.3288
C119 C 0.1638(12) 0.3355(9) 0.2904(7)
H92 H 0.1596 0.3018 0.2961
C120 C 0.2685(9) 0.4603(6) 0.3272(7)
C121 C 0.2692(9) 0.5096(7) 0.3227(6)
H93 H 0.2380 0.5171 0.3077
C122 C 0.3156(10) 0.5480(5) 0.3404(7)
C123 C 0.3612(9) 0.5370(7) 0.3624(7)
H94 H 0.3929 0.5632 0.3745
C124 C 0.3605(9) 0.4877(8) 0.3669(7)
H95 H 0.3918 0.4803 0.3820
C125 C 0.3142(10) 0.4494(6) 0.3493(7)
H96 H 0.3138 0.4157 0.3523
C126 C 0.2757(17) 0.6117(11) 0.3406(9)
H97 H 0.2394 0.5869 0.3395
C127 C 0.2767(9) 0.6640(5) 0.3380(10)
C128 C 0.2259(8) 0.6769(7) 0.3355(9)
H98 H 0.1896 0.6521 0.3345
C129 C 0.2292(8) 0.7266(8) 0.3346(9)
H99 H 0.1949 0.7366 0.3319
C130 C 0.2830(10) 0.7619(5) 0.3375(9)
H100 H 0.2869 0.7963 0.3407
C131 C 0.3312(8) 0.7456(6) 0.3356(9)
H101 H 0.3663 0.7691 0.3317
C132 C 0.0937(6) 0.2159(4) 0.2421(4)
C133 C 0.1539(6) 0.2284(4) 0.2495(4)
H102 H 0.1767 0.2615 0.2465
C134 C 0.1808(5) 0.1926(5) 0.2613(4)
H103 H 0.2220 0.2012 0.2663
C135 C 0.1476(6) 0.1443(4) 0.2657(4)
C136 C 0.0874(6) 0.1318(4) 0.2583(4)
H104 H 0.0646 0.0987 0.2613
C137 C 0.0605(5) 0.1676(5) 0.2465(4)
H105 H 0.0193 0.1590 0.2415
C138 C 0.1756(6) 0.1054(5) 0.2808(4)
C139 C 0.2264(6) 0.1198(4) 0.3061(4)
H106 H 0.2429 0.1538 0.3141
C140 C 0.2529(6) 0.0845(5) 0.3195(4)
C141 C 0.2287(7) 0.0347(5) 0.3078(4)
H107 H 0.2468 0.0105 0.3170
C142 C 0.1780(7) 0.0203(4) 0.2825(4)
H108 H 0.1615 -0.0136 0.2745
C143 C 0.1515(6) 0.0557(5) 0.2690(4)
H109 H 0.1168 0.0459 0.2518
C144 C 0.3128(12) 0.1315(9) 0.3731(7)
H110 H 0.2820 0.1448 0.3758
C145 C 0.3641(7) 0.1466(9) 0.3975(5)
C146 C 0.3669(8) 0.1739(9) 0.4286(6)
H111 H 0.3350 0.1847 0.4327
C147 C 0.4172(9) 0.1849(9) 0.4534(5)
H112 H 0.4196 0.2015 0.4759
C148 C 0.4643(8) 0.1717(9) 0.4454(5)
H113 H 0.5010 0.1829 0.4606
C149 C 0.4569(8) 0.1416(9) 0.4145(6)
H114 H 0.4872 0.1282 0.4108
C150 C 0.0649(10) 0.2559(8) 0.2310(6)
C151 C 0.0150(10) 0.2569(8) 0.2022(6)
C152 C -0.0259(6) 0.2208(5) 0.1750(4)
C153 C -0.0105(5) 0.1801(6) 0.1636(4)
H115 H 0.0264 0.1764 0.1730
C154 C -0.0491(7) 0.1449(5) 0.1385(4)
H116 H -0.0385 0.1171 0.1307
C155 C -0.1031(6) 0.1504(5) 0.1248(4)
C156 C -0.1186(5) 0.1910(6) 0.1362(4)
H117 H -0.1555 0.1948 0.1268
C157 C -0.0800(7) 0.2263(5) 0.1613(4)
H118 H -0.0905 0.2541 0.1691
C158 C -0.1466(7) 0.1113(5) 0.0987(4)
C159 C -0.1427(7) 0.0630(6) 0.0971(4)
H119 H -0.1121 0.0545 0.1122
C160 C -0.1834(8) 0.0270(4) 0.0735(5)
C161 C -0.2281(7) 0.0394(5) 0.0515(4)
H120 H -0.2560 0.0148 0.0353
C162 C -0.2321(7) 0.0877(6) 0.0531(4)
H121 H -0.2627 0.0962 0.0380
C163 C -0.1913(8) 0.1237(5) 0.0767(5)
H122 H -0.1940 0.1567 0.0777
C164 C -0.1601(13) -0.0452(10) 0.0962(8)
H123 H -0.1516 -0.0297 0.1197
C165 C -0.1517(13) -0.0927(6) 0.0903(5)
C166 C -0.1365(12) -0.1176(8) 0.1202(4)
H124 H -0.1325 -0.1039 0.1439
C167 C -0.1274(12) -0.1630(8) 0.1145(4)
H125 H -0.1103 -0.1784 0.1338
C168 C -0.1435(13) -0.1857(6) 0.0802(5)
H126 H -0.1449 -0.2196 0.0765
C169 C -0.1576(13) -0.1581(7) 0.0514(4)
H127 H -0.1630 -0.1717 0.0275
C170 C -0.0777(16) 0.270(2) 0.2656(10)
H128 H -0.1073 0.2803 0.2510
C171 C -0.0719(16) 0.2210(15) 0.2658(11)
H129 H -0.0969 0.1929 0.2513
C172 C -0.022(2) 0.2214(13) 0.2913(12)
H130 H -0.0081 0.1937 0.2969
C173 C 0.0028(13) 0.2706(19) 0.3069(9)
H131 H 0.0365 0.2815 0.3248
C174 C -0.032(2) 0.3005(8) 0.2910(13)
H132 H -0.0248 0.3350 0.2964
Cd5 Cd 0.61317(10) 0.37694(8) 0.15313(6)
Cd6 Cd 0.60641(15) 0.95799(12) 0.14544(10)
Cd7 Cd 1.20152(9) 1.10416(7) 0.48110(5)
Cd8 Cd 1.18330(12) 0.53059(9) 0.48257(6)
Co3 Co 0.99546(15) 0.77147(11) 0.24769(8)
Co4 Co 0.78876(15) 0.71941(12) 0.39561(8)
N23 N 0.6998(9) 0.4425(7) 0.1502(6)
N24 N 0.5998(9) 0.4194(7) 0.1015(4)
N25 N 0.7001(12) 0.9488(10) 0.1432(7)
N26 N 0.6724(9) 1.0347(6) 0.1577(7)
N27 N 1.1941(9) 1.0664(6) 0.4235(5)
N28 N 1.2806(7) 1.0725(7) 0.4829(5)
N29 N 1.1755(10) 0.5689(8) 0.4272(6)
N30 N 1.1624(10) 0.4713(6) 0.4361(4)
N31 N 0.6205(10) 0.4245(8) 0.2049(6)
N32 N 0.6365(12) 0.3306(8) 0.2008(5)
N33 N 0.6192(12) 0.9077(10) 0.1916(8)
N34 N 0.5458(14) 0.8803(7) 0.1286(8)
N35 N 1.1127(9) 1.0395(7) 0.4812(5)
N36 N 1.1261(6) 1.1396(6) 0.4726(5)
N37 N 1.0955(10) 0.5484(7) 0.4870(5)
N38 N 1.2011(9) 0.5856(8) 0.5306(5)
N39 N 0.5944(10) 0.3036(7) 0.1177(7)
N40 N 0.5125(13) 0.3534(15) 0.1498(10)
N41 N 1.2166(10) 1.1025(8) 0.5459(7)
N42 N 1.2672(8) 1.1834(6) 0.4912(5)
N43 N 1.273(2) 0.5455(17) 0.4860(13)
N44 N 1.1864(14) 0.4703(12) 0.5256(8)
O3 O 0.532(4) 0.988(3) 0.161(3)
C175 C 0.5528(8) 0.4055(7) 0.0755(6)
H133 H 0.5220 0.3770 0.0789
C176 C 0.5467(8) 0.4303(8) 0.0441(5)
H134 H 0.5121 0.4201 0.0269
C177 C 0.5923(10) 0.4702(8) 0.0386(5)
H135 H 0.5911 0.4862 0.0163
C178 C 0.6398(8) 0.4871(7) 0.0656(6)
H136 H 0.6701 0.5164 0.0631
C179 C 0.6426(8) 0.4603(8) 0.0966(5)
C180 C 0.6931(12) 0.4703(10) 0.1257(7)
H137 H 0.7231 0.5007 0.1254
C181 C 0.7517(6) 0.4573(5) 0.1782(4)
C182 C 0.7763(7) 0.5063(5) 0.1916(4)
H138 H 0.7591 0.5313 0.1831
C183 C 0.8261(7) 0.5186(4) 0.2176(4)
C184 C 0.8513(6) 0.4820(5) 0.2302(4)
H139 H 0.8853 0.4905 0.2480
C185 C 0.8266(7) 0.4330(5) 0.2167(4)
H140 H 0.8438 0.4080 0.2253
C186 C 0.7768(7) 0.4207(4) 0.1907(4)
H141 H 0.7600 0.3872 0.1815
C187 C 0.8525(7) 0.5715(4) 0.2328(4)
C188 C 0.8173(5) 0.6022(5) 0.2347(4)
H142 H 0.7765 0.5893 0.2278
C189 C 0.8420(6) 0.6518(5) 0.2468(4)
H143 H 0.8180 0.6727 0.2481
C190 C 0.9018(7) 0.6707(4) 0.2569(4)
C191 C 0.9369(5) 0.6400(5) 0.2549(4)
H144 H 0.9778 0.6530 0.2618
C192 C 0.9122(7) 0.5904(5) 0.2429(4)
H145 H 0.9362 0.5695 0.2416
C193 C 0.9315(11) 0.7258(7) 0.2684(6)
C194 C 0.9196(11) 0.7742(7) 0.2601(6)
C195 C 0.8700(7) 0.7869(6) 0.2347(4)
C196 C 0.8594(7) 0.8318(5) 0.2414(4)
H146 H 0.8797 0.8521 0.2623
C197 C 0.8190(8) 0.8471(5) 0.2174(4)
H147 H 0.8118 0.8778 0.2219
C198 C 0.7893(7) 0.8174(6) 0.1867(4)
C199 C 0.7999(7) 0.7724(6) 0.1801(4)
H148 H 0.7796 0.7521 0.1591
C200 C 0.8403(7) 0.7572(5) 0.2041(4)
H149 H 0.8475 0.7265 0.1995
C201 C 0.7492(8) 0.8360(7) 0.1591(4)
C202 C 0.7444(8) 0.8835(7) 0.1642(4)
H150 H 0.7641 0.9030 0.1857
C203 C 0.7107(9) 0.9026(6) 0.1380(5)
C204 C 0.6819(9) 0.8741(7) 0.1067(5)
H151 H 0.6589 0.8871 0.0888
C205 C 0.6867(8) 0.8265(7) 0.1016(4)
H152 H 0.6670 0.8071 0.0801
C206 C 0.7204(9) 0.8075(6) 0.1278(5)
H153 H 0.7237 0.7750 0.1243
C207 C 0.7403(17) 0.9885(12) 0.1538(8)
H154 H 0.7793 0.9874 0.1591
C208 C 0.7280(10) 1.0361(7) 0.1580(8)
C209 C 0.7744(8) 1.0782(9) 0.1680(8)
H155 H 0.8132 1.0769 0.1702
C210 C 0.7625(9) 1.1221(7) 0.1744(8)
H156 H 0.7931 1.1514 0.1830
C211 C 0.7056(11) 1.1233(6) 0.1683(9)
H157 H 0.6968 1.1541 0.1680
C212 C 0.6614(8) 1.0783(8) 0.1626(9)
H158 H 0.6224 1.0784 0.1621
C213 C 0.9929(6) 0.8516(4) 0.3044(4)
C214 C 1.0000(7) 0.8922(5) 0.2825(3)
H159 H 0.9870 0.8871 0.2573
C215 C 1.0264(7) 0.9402(4) 0.2977(4)
H160 H 1.0313 0.9679 0.2827
C216 C 1.0455(6) 0.9476(4) 0.3347(4)
C217 C 1.0384(7) 0.9071(5) 0.3565(3)
H161 H 1.0515 0.9121 0.3818
C218 C 1.0120(7) 0.8591(4) 0.3413(3)
H162 H 1.0071 0.8314 0.3563
C219 C 1.0738(6) 0.9995(4) 0.3521(4)
C220 C 1.1199(7) 1.0076(4) 0.3806(4)
H163 H 1.1323 0.9804 0.3900
C221 C 1.1478(6) 1.0556(5) 0.3953(3)
C222 C 1.1296(6) 1.0955(4) 0.3815(4)
H164 H 1.1487 1.1283 0.3916
C223 C 1.0836(7) 1.0873(4) 0.3530(4)
H165 H 1.0712 1.1145 0.3436
C224 C 1.0556(6) 1.0393(5) 0.3383(4)
H166 H 1.0242 1.0337 0.3189
C225 C 1.2352(9) 1.0436(8) 0.4217(6)
H167 H 1.2330 1.0237 0.4008
C226 C 1.2846(7) 1.0495(9) 0.4525(4)
C227 C 1.3306(9) 1.0318(9) 0.4487(4)
H168 H 1.3303 1.0132 0.4275
C228 C 1.3769(7) 1.0417(9) 0.4766(5)
H169 H 1.4105 1.0324 0.4742
C229 C 1.3741(8) 1.0654(9) 0.5082(5)
H170 H 1.4050 1.0713 0.5280
C230 C 1.3253(9) 1.0806(9) 0.5104(4)
H171 H 1.3236 1.0971 0.5320
C231 C 0.9674(11) 0.7995(8) 0.2884(6)
C232 C 0.9791(11) 0.7503(8) 0.2969(6)
C233 C 1.0189(7) 0.7363(6) 0.3254(4)
C234 C 1.0726(7) 0.7692(4) 0.3395(4)
H172 H 1.0833 0.8023 0.3318
C235 C 1.1108(6) 0.7535(5) 0.3650(4)
H173 H 1.1475 0.7760 0.3746
C236 C 1.0952(7) 0.7050(6) 0.3763(4)
C237 C 1.0415(7) 0.6721(4) 0.3621(4)
H174 H 1.0308 0.6390 0.3698
C238 C 1.0033(6) 0.6878(5) 0.3367(4)
H175 H 0.9666 0.6653 0.3270
C239 C 1.1372(7) 0.6868(6) 0.4028(4)
C240 C 1.1343(7) 0.6366(6) 0.4027(4)
H176 H 1.1044 0.6132 0.3868
C241 C 1.1753(8) 0.6207(5) 0.4257(5)
C242 C 1.2190(7) 0.6550(6) 0.4488(5)
H177 H 1.2470 0.6441 0.4645
C243 C 1.2219(7) 0.7051(6) 0.4490(5)
H178 H 1.2518 0.7286 0.4648
C244 C 1.1809(8) 0.7211(5) 0.4260(5)
H179 H 1.1829 0.7553 0.4261
C245 C 1.1604(13) 0.5417(10) 0.3992(9)
H180 H 1.1519 0.5548 0.3763
C246 C 1.1561(13) 0.4883(6) 0.4027(5)
C247 C 1.1453(13) 0.4586(8) 0.3716(4)
H181 H 1.1358 0.4708 0.3486
C248 C 1.1490(14) 0.4108(7) 0.3750(5)
H182 H 1.1488 0.3912 0.3544
C249 C 1.1530(14) 0.3915(5) 0.4089(6)
H183 H 1.1494 0.3572 0.4115
C250 C 1.1624(13) 0.4235(7) 0.4390(4)
H184 H 1.1690 0.4111 0.4623
C251 C 1.0697(17) 0.8256(11) 0.2333(10)
H185 H 1.0880 0.8581 0.2442
C252 C 1.0834(15) 0.7814(18) 0.2440(8)
H186 H 1.1125 0.7791 0.2634
C253 C 1.046(2) 0.7413(10) 0.2207(11)
H187 H 1.0457 0.7075 0.2218
C254 C 1.0092(15) 0.7608(13) 0.1956(9)
H188 H 0.9799 0.7422 0.1768
C255 C 1.0238(17) 0.8129(13) 0.2033(10)
H189 H 1.0061 0.8353 0.1907
C256 C 0.5794(13) 0.2644(9) 0.1021(9)
C257 C 0.5624(15) 0.2130(8) 0.0841(9)
H190 H 0.5831 0.1924 0.0984
H191 H 0.5725 0.2154 0.0598
H192 H 0.5205 0.1977 0.0824
C258 C 0.4643(15) 0.3374(19) 0.1522(14)
C259 C 1.2057(17) 0.4588(16) 0.5537(9)
C260 C 1.2355(16) 0.4433(14) 0.5880(9)
H193 H 1.2529 0.4175 0.5823
H194 H 1.2071 0.4302 0.6039
H195 H 1.2659 0.4723 0.6001
C261 C 1.2950(10) 1.2243(7) 0.4975(6)
C262 C 1.3323(11) 1.2784(7) 0.5049(6)
H196 H 1.3099 1.2979 0.5143
H197 H 1.3440 1.2922 0.4824
H198 H 1.3669 1.2799 0.5226
C263 C 1.244(5) 1.101(4) 0.5745(14)
C264 C 1.273(5) 1.100(4) 0.6133(14)
H199 H 1.2653 1.0658 0.6206
H200 H 1.2571 1.1189 0.6289
H201 H 1.3147 1.1157 0.6152
C265 C 1.322(2) 0.553(2) 0.4887(17)
C266 C 1.384(2) 0.551(2) 0.4898(18)
H202 H 1.3924 0.5273 0.5072
H203 H 1.4116 0.5844 0.4971
H204 H 1.3892 0.5412 0.4658
C267 C 0.3999(14) 0.3114(18) 0.1514(14)
H205 H 0.3933 0.3006 0.1755
H206 H 0.3873 0.2823 0.1344
H207 H 0.3775 0.3345 0.1437
C268 C 0.6451(15) 0.2855(8) 0.1994(5)
H208 H 0.6394 0.2690 0.1764
C269 C 0.6619(16) 0.2618(7) 0.2296(6)
H209 H 0.6670 0.2297 0.2274
C270 C 0.6711(16) 0.2859(9) 0.2627(5)
H210 H 0.6802 0.2698 0.2841
C271 C 0.6670(16) 0.3339(9) 0.2648(5)
H211 H 0.6753 0.3518 0.2875
C272 C 0.6504(15) 0.3555(7) 0.2332(6)
C273 C 0.6419(14) 0.4035(10) 0.2358(9)
H212 H 0.6507 0.4212 0.2586
C274 C 0.6166(8) 0.4716(5) 0.2105(5)
C275 C 0.6503(7) 0.5069(6) 0.2372(4)
H213 H 0.6785 0.4988 0.2546
C276 C 0.6426(7) 0.5540(5) 0.2385(4)
C277 C 0.6013(7) 0.5658(5) 0.2130(4)
H214 H 0.5961 0.5980 0.2139
C278 C 0.5676(7) 0.5305(6) 0.1863(4)
H215 H 0.5394 0.5386 0.1689
C279 C 0.5753(7) 0.4834(5) 0.1850(4)
H216 H 0.5523 0.4593 0.1667
C280 C 0.6809(6) 0.5930(5) 0.2671(3)
C281 C 0.6995(7) 0.6429(6) 0.2592(3)
H217 H 0.6876 0.6531 0.2359
C282 C 0.7355(7) 0.6779(4) 0.2854(4)
H218 H 0.7482 0.7120 0.2801
C283 C 0.7529(6) 0.6629(5) 0.3196(3)
C284 C 0.7344(7) 0.6130(6) 0.3274(3)
H219 H 0.7463 0.6028 0.3508
C285 C 0.6983(7) 0.5780(4) 0.3012(4)
H220 H 0.6856 0.5439 0.3066
C286 C 0.7957(10) 0.6999(7) 0.3471(6)
C287 C 0.8145(10) 0.7551(7) 0.3543(6)
C288 C 0.7916(7) 0.7941(5) 0.3343(4)
C289 C 0.8306(6) 0.8391(6) 0.3281(4)
H221 H 0.8709 0.8451 0.3366
C290 C 0.8107(7) 0.8751(5) 0.3094(4)
H222 H 0.8374 0.9059 0.3051
C291 C 0.7518(8) 0.8662(5) 0.2970(4)
C292 C 0.7127(6) 0.8212(6) 0.3032(4)
H223 H 0.6724 0.8151 0.2947
C293 C 0.7326(7) 0.7852(5) 0.3219(4)
H224 H 0.7059 0.7544 0.3261
C294 C 0.7266(8) 0.9020(6) 0.2751(5)
C295 C 0.6828(9) 0.8858(5) 0.2455(5)
H225 H 0.6690 0.8515 0.2380
C296 C 0.6591(8) 0.9199(7) 0.2268(5)
C297 C 0.6793(9) 0.9701(7) 0.2378(5)
H226 H 0.6631 0.9933 0.2250
C298 C 0.7232(9) 0.9863(5) 0.2674(5)
H227 H 0.7370 1.0206 0.2749
C299 C 0.7468(8) 0.9522(7) 0.2861(5)
H228 H 0.7768 0.9633 0.3063
C300 C 0.5854(15) 0.8592(14) 0.1841(8)
H229 H 0.5882 0.8357 0.2019
C301 C 0.5447(16) 0.8416(11) 0.1498(6)
C302 C 0.5168(17) 0.7926(9) 0.1382(8)
H230 H 0.5194 0.7661 0.1535
C303 C 0.4852(16) 0.7832(8) 0.1039(8)
H231 H 0.4647 0.7500 0.0953
C304 C 0.4835(16) 0.8224(11) 0.0820(6)
H232 H 0.4601 0.8168 0.0588
C305 C 0.5167(17) 0.8704(9) 0.0946(7)
H233 H 0.5189 0.8969 0.0787
C306 C 0.9146(6) 0.7898(5) 0.4029(3)
C307 C 0.9074(5) 0.8338(5) 0.4155(4)
H234 H 0.8707 0.8397 0.4101
C308 C 0.9539(7) 0.8690(4) 0.4360(4)
H235 H 0.9489 0.8991 0.4446
C309 C 1.0076(6) 0.8603(5) 0.4439(4)
C310 C 1.0148(5) 0.8164(5) 0.4313(4)
H236 H 1.0515 0.8104 0.4367
C311 C 0.9683(7) 0.7811(4) 0.4108(4)
H237 H 0.9732 0.7511 0.4021
C312 C 1.0581(6) 0.9001(5) 0.4657(4)
C313 C 1.0616(6) 0.9501(6) 0.4619(4)
H238 H 1.0331 0.9592 0.4455
C314 C 1.1068(7) 0.9866(4) 0.4823(4)
C315 C 1.1486(6) 0.9732(5) 0.5064(4)
H239 H 1.1795 0.9982 0.5203
C316 C 1.1451(6) 0.9232(6) 0.5101(4)
H240 H 1.1737 0.9141 0.5266
C317 C 1.0999(7) 0.8867(4) 0.4897(4)
H241 H 1.0975 0.8525 0.4923
C318 C 1.0661(12) 1.0527(7) 0.4749(6)
H242 H 1.0289 1.0289 0.4729
C319 C 1.0727(7) 1.1073(4) 0.4708(6)
C320 C 1.0226(6) 1.1216(5) 0.4667(6)
H243 H 0.9856 1.0975 0.4645
C321 C 1.0278(6) 1.1717(6) 0.4659(6)
H244 H 0.9943 1.1828 0.4644
C322 C 1.0819(8) 1.2057(4) 0.4672(6)
H245 H 1.0861 1.2403 0.4661
C323 C 1.1302(6) 1.1883(5) 0.4702(6)
H246 H 1.1674 1.2116 0.4706
C324 C 0.8644(11) 0.7524(8) 0.3797(6)
C325 C 0.8467(11) 0.6979(8) 0.3732(6)
C326 C 0.8738(7) 0.6580(5) 0.3867(4)
C327 C 0.9005(7) 0.6606(5) 0.4225(3)
H247 H 0.8994 0.6861 0.4387
C328 C 0.9288(6) 0.6258(5) 0.4346(3)
H248 H 0.9471 0.6275 0.4590
C329 C 0.9305(7) 0.5884(5) 0.4109(4)
C330 C 0.9038(7) 0.5858(5) 0.3751(3)
H249 H 0.9050 0.5603 0.3589
C331 C 0.8755(6) 0.6206(5) 0.3630(3)
H250 H 0.8573 0.6189 0.3386
C332 C 0.9626(7) 0.5512(5) 0.4239(4)
C333 C 1.0129(7) 0.5672(4) 0.4494(4)
H251 H 1.0267 0.6010 0.4583
C334 C 1.0430(6) 0.5338(6) 0.4619(4)
C335 C 1.0228(7) 0.4844(5) 0.4489(4)
H252 H 1.0434 0.4616 0.4574
C336 C 0.9725(7) 0.4684(4) 0.4235(4)
H253 H 0.9587 0.4346 0.4146
C337 C 0.9424(6) 0.5018(6) 0.4110(4)
H254 H 0.9080 0.4908 0.3936
C338 C 1.1020(13) 0.5804(10) 0.5136(7)
H255 H 1.0692 0.5902 0.5175
C339 C 1.1577(8) 0.6024(9) 0.5381(6)
C340 C 1.1624(8) 0.6332(10) 0.5677(6)
H256 H 1.1304 0.6437 0.5721
C341 C 1.2148(10) 0.6484(10) 0.5906(6)
H257 H 1.2192 0.6685 0.6117
C342 C 1.2612(8) 0.6340(10) 0.5824(6)
H258 H 1.2989 0.6475 0.5961
C343 C 1.2516(8) 0.5995(10) 0.5539(6)
H259 H 1.2815 0.5854 0.5507
C344 C 0.7087(8) 0.7175(9) 0.4083(4)
H260 H 0.6763 0.7198 0.3914
C345 C 0.7530(10) 0.7580(6) 0.4273(5)
H261 H 0.7555 0.7923 0.4253
C346 C 0.7929(7) 0.7384(8) 0.4497(4)
H262 H 0.8268 0.7572 0.4654
C347 C 0.7732(9) 0.6857(8) 0.4446(5)
H263 H 0.7916 0.6630 0.4563
C348 C 0.7211(9) 0.6727(6) 0.4190(5)
H264 H 0.6986 0.6399 0.4106
O4 O 0.594(3) 0.996(2) 0.0756(17)
S1 S 0.3613(6) 0.2523(5) 0.0278(3)
S2 S 0.4680(6) 0.2611(6) 0.0039(4)
N45 N 0.4041(8) 0.2272(8) 0.0099(8)
O5 O 0.3375(17) 0.2183(13) 0.0538(9)
O6 O 0.3862(12) 0.3044(7) 0.0371(8)
O7 O 0.4918(14) 0.2978(11) 0.0329(7)
O8 O 0.4998(12) 0.2294(10) -0.0070(8)
F1 F 0.2547(11) 0.2530(11) -0.0025(8)
F2 F 0.3218(13) 0.2720(11) -0.0369(7)
F3 F 0.2835(12) 0.1979(10) -0.0238(8)
F4 F 0.4399(15) 0.3326(11) -0.0291(9)
F5 F 0.4270(13) 0.2676(11) -0.0631(8)
F6 F 0.5128(13) 0.3132(13) -0.0460(9)
C349 C 0.3015(10) 0.2450(11) -0.0100(6)
C350 C 0.4614(13) 0.2971(10) -0.0363(6)
S3 S 0.7401(4) 0.2710(3) 0.1376(3)
S4 S 0.7935(4) 0.2764(3) 0.0758(2)
N46 N 0.7740(10) 0.2478(7) 0.1116(5)
O9 O 0.7284(8) 0.3159(6) 0.1265(5)
O10 O 0.6951(7) 0.2304(6) 0.1477(5)
O11 O 0.8025(7) 0.3289(5) 0.0745(4)
O12 O 0.8362(7) 0.2566(6) 0.0652(4)
C351 C 0.7966(8) 0.2875(8) 0.1778(4)
C352 C 0.7311(8) 0.2485(9) 0.0400(5)
F7 F 0.7776(8) 0.3041(7) 0.2043(5)
F8 F 0.8450(8) 0.3208(7) 0.1718(5)
F9 F 0.8114(8) 0.2469(7) 0.1894(5)
F10 F 0.6830(8) 0.2532(7) 0.0496(5)
F11 F 0.7368(10) 0.2662(8) 0.0075(5)
F12 F 0.7230(10) 0.1989(7) 0.0367(6)
S5 S 0.4038(7) 0.5063(7) 0.1075(5)
S6 S 0.4284(9) 0.5856(7) 0.1619(5)
N47 N 0.4472(11) 0.5493(11) 0.1362(8)
O13 O 0.3536(9) 0.5158(10) 0.0893(7)
O14 O 0.4059(16) 0.4609(10) 0.1250(9)
O15 O 0.3693(11) 0.5743(13) 0.1662(10)
O16 O 0.4729(14) 0.6000(14) 0.1934(8)
C353 C 0.4487(12) 0.5058(12) 0.0729(7)
C354 C 0.4374(16) 0.6446(10) 0.1391(9)
F13 F 0.4219(15) 0.4674(12) 0.0509(9)
F14 F 0.4983(12) 0.5014(13) 0.0908(9)
F15 F 0.4591(15) 0.5489(11) 0.0584(9)
F16 F 0.425(2) 0.6746(14) 0.1611(12)
F17 F 0.400(2) 0.6341(18) 0.1087(10)
F18 F 0.4907(16) 0.6593(17) 0.1330(13)
S7 S 0.4720(10) 0.8246(9) 0.4197(7)
S8 S 0.5697(10) 0.7850(10) 0.4255(7)
N48 N 0.5026(12) 0.7831(13) 0.4088(11)
O17 O 0.4381(19) 0.8321(18) 0.3863(9)
O18 O 0.5121(17) 0.8652(14) 0.4419(12)
O19 O 0.586(2) 0.8092(17) 0.4605(9)
O20 O 0.575(2) 0.7366(12) 0.4183(13)
C355 C 0.4196(14) 0.7942(13) 0.4484(9)
C356 C 0.6146(14) 0.8244(13) 0.3961(9)
F19 F 0.3820(17) 0.7535(14) 0.4321(12)
F20 F 0.3915(18) 0.8245(16) 0.4569(12)
F21 F 0.4477(19) 0.7817(18) 0.4781(10)
F22 F 0.6684(14) 0.8255(17) 0.4074(12)
F23 F 0.607(2) 0.8692(13) 0.3957(12)
F24 F 0.5963(19) 0.8028(16) 0.3635(9)
S9 S 0.1056(8) 0.7548(5) 0.5469(4)
S10 S -0.0035(5) 0.6806(4) 0.5460(3)
N49 N 0.0341(9) 0.7367(8) 0.5388(9)
O21 O 0.1183(14) 0.8082(7) 0.5513(9)
O22 O 0.1335(13) 0.7309(11) 0.5745(7)
O23 O 0.0255(12) 0.6442(9) 0.5431(8)
O24 O -0.0618(9) 0.6744(12) 0.5286(8)
C357 C 0.1231(13) 0.7404(11) 0.5034(5)
C358 C -0.0051(13) 0.6849(11) 0.5947(4)
F25 F 0.0861(13) 0.7503(11) 0.4762(7)
F26 F 0.1763(13) 0.7649(14) 0.5001(11)
F27 F 0.1138(12) 0.6909(9) 0.4994(7)
F28 F -0.0366(13) 0.7139(11) 0.6015(7)
F29 F 0.0474(11) 0.7049(12) 0.6132(7)
F30 F -0.0275(13) 0.6430(10) 0.6094(8)
S11 S 0.9053(5) 0.0006(3) 0.2371(4)
S12 S 0.9871(5) 0.0143(3) 0.1872(3)
N50 N 0.9708(7) 0.0152(7) 0.2276(4)
O25 O 0.9049(9) -0.0240(7) 0.2701(5)
O26 O 0.8636(10) -0.0182(7) 0.2050(6)
O27 O 0.9396(9) 0.0098(7) 0.1586(6)
O28 O 1.0427(7) 0.0506(6) 0.1884(5)
C359 C 0.8992(11) 0.0629(6) 0.2470(7)
C360 C 1.0026(10) -0.0459(5) 0.1865(6)
F31 F 0.9408(9) 0.0851(6) 0.2744(7)
F32 F 0.8473(9) 0.0585(7) 0.2536(8)
F33 F 0.9103(9) 0.0921(6) 0.2195(7)
F34 F 1.0474(8) -0.0453(5) 0.2119(4)
F35 F 0.9563(8) -0.0830(5) 0.1920(4)
F36 F 1.0160(11) -0.0556(7) 0.1550(5)
S13 S 0.0141(9) 0.8208(8) 0.0485(5)
S14 S 0.1244(8) 0.8017(8) 0.0506(5)
N51 N 0.0533(9) 0.7831(10) 0.0430(10)
O29 O 0.0500(16) 0.8714(9) 0.0506(10)
O30 O -0.0378(12) 0.7996(15) 0.0245(9)
O31 O 0.1503(16) 0.8389(13) 0.0789(9)
O32 O 0.1394(16) 0.7557(11) 0.0544(11)
C361 C 0.0083(13) 0.8103(11) 0.0962(5)
C362 C 0.1431(13) 0.8281(11) 0.0083(6)
F37 F 0.0590(13) 0.8090(14) 0.1143(8)
F38 F -0.0022(16) 0.8469(12) 0.1130(8)
F39 F -0.0284(14) 0.7671(12) 0.1021(9)
F40 F 0.1280(16) 0.8705(11) 0.0063(9)
F41 F 0.1103(15) 0.7990(12) -0.0200(8)
F42 F 0.1981(12) 0.8369(14) 0.0066(9)
S15 S 0.2086(4) 0.8837(3) 0.4239(2)
S16 S 0.2616(4) 0.9034(3) 0.3619(2)
N52 N 0.2313(10) 0.8669(7) 0.3887(6)
O33 O 0.1640(8) 0.8434(6) 0.4327(5)
O34 O 0.2007(9) 0.9321(6) 0.4235(5)
O35 O 0.2719(8) 0.9549(6) 0.3699(5)
O36 O 0.3061(9) 0.8852(6) 0.3504(5)
C363 C 0.2708(18) 0.8897(15) 0.4584(11)
C364 C 0.2031(15) 0.8874(11) 0.3204(9)
F43 F 0.2625(9) 0.9038(7) 0.4892(5)
F44 F 0.2825(8) 0.8447(7) 0.4628(5)
F45 F 0.3206(9) 0.9190(7) 0.4513(5)
F46 F 0.1870(7) 0.8398(5) 0.3110(4)
F47 F 0.2221(7) 0.9143(5) 0.2948(4)
F48 F 0.1564(7) 0.8996(5) 0.3285(4)
S17 S 1.0046(4) 0.5166(3) 0.3133(2)
S18 S 1.0894(4) 0.5459(3) 0.2690(3)
N53 N 1.0264(11) 0.5250(8) 0.2757(6)
O37 O 0.9522(10) 0.5270(7) 0.3113(5)
O38 O 1.0494(10) 0.5327(7) 0.3460(5)
O39 O 1.0936(8) 0.5270(7) 0.2354(6)
O40 O 1.1347(10) 0.5483(7) 0.3006(7)
C365 C 0.996(2) 0.4500(13) 0.3138(10)
C366 C 1.094(2) 0.6138(13) 0.2595(13)
F49 F 0.9471(9) 0.4265(6) 0.2874(5)
F50 F 0.9720(10) 0.4308(6) 0.3454(5)
F51 F 1.0378(9) 0.4353(6) 0.3103(5)
F52 F 1.0558(9) 0.6164(6) 0.2310(6)
F53 F 1.0870(8) 0.6343(6) 0.2896(6)
F54 F 1.1482(9) 0.6376(6) 0.2563(6)
S19 S 0.7012(4) 0.6314(3) 0.1397(2)
S20 S 0.7869(4) 0.6462(3) 0.09658(19)
N54 N 0.7480(10) 0.6639(8) 0.1191(5)
O41 O 0.6973(9) 0.6582(7) 0.1716(5)
O42 O 0.6999(9) 0.5796(7) 0.1426(5)
O43 O 0.7748(7) 0.5944(6) 0.0902(4)
O44 O 0.7973(8) 0.6792(6) 0.0664(4)
C367 C 0.6358(18) 0.6211(16) 0.1073(10)
C368 C 0.8556(14) 0.6646(11) 0.1259(8)
F55 F 0.6300(8) 0.6702(8) 0.1042(5)
F56 F 0.5872(9) 0.6022(8) 0.1198(5)
F57 F 0.6351(8) 0.6039(7) 0.0758(5)
F58 F 0.8539(7) 0.6431(5) 0.1572(4)
F59 F 0.8749(7) 0.7129(5) 0.1334(3)
F60 F 0.8977(7) 0.6545(5) 0.1115(3)
S21 S 0.3119(4) 0.2874(3) 0.3607(2)
S22 S 0.2243(4) 0.2590(3) 0.40306(19)
N55 N 0.2633(11) 0.2981(7) 0.3804(6)
O45 O 0.3209(9) 0.3202(7) 0.3312(5)
O46 O 0.3108(9) 0.2381(7) 0.3535(5)
O47 O 0.2147(8) 0.2844(6) 0.4330(4)
O48 O 0.2367(8) 0.2123(6) 0.4081(4)
C369 C 0.3778(19) 0.3082(17) 0.3961(12)
C370 C 0.1504(14) 0.2394(11) 0.3712(8)
F61 F 0.4249(10) 0.3089(8) 0.3823(5)
F62 F 0.3886(9) 0.3619(8) 0.4015(5)
F63 F 0.3727(9) 0.2903(8) 0.4250(5)
F64 F 0.1606(7) 0.2225(5) 0.3409(3)
F65 F 0.1366(7) 0.2813(5) 0.3644(3)
F66 F 0.1130(7) 0.2101(5) 0.3866(3)
S23 S 0.5256(10) 1.1390(10) 0.1816(6)
S24 S 0.4074(9) 1.1368(8) 0.1580(5)
F67 F 0.432(2) 1.122(2) 0.0961(12)
F68 F 0.3475(18) 1.132(2) 0.0926(12)
F69 F 0.422(2) 1.1950(15) 0.1045(13)
N56 N 0.4741(11) 1.1668(13) 0.1768(14)
O49 O 0.396(2) 1.0845(10) 0.1617(13)
O50 O 0.503(2) 1.0924(13) 0.1612(11)
O51 O 0.5786(14) 1.1739(16) 0.1767(13)
O52 O 0.3684(18) 1.1601(19) 0.1698(13)
F70 F 0.484(2) 1.091(2) 0.2342(16)
F71 F 0.576(3) 1.102(3) 0.2373(16)
F72 F 0.543(3) 1.162(2) 0.2504(13)
C371 C 0.4011(18) 1.1467(15) 0.1096(6)
C372 C 0.534(2) 1.1221(18) 0.2287(7)
O53? O 0.550(4) 0.987(3) 0.196(3)
O54? O 0.616(6) 0.961(5) 0.044(3)
O55? O 0.517(4) 0.989(3) 0.122(3)
O56? O 0.447(5) 0.753(4) 0.309(3)
C373? C 0.4307(19) 0.6096(18) 0.2693(15)
H265? H 0.4265 0.5970 0.2453
N57? N 0.4870(13) 0.6473(14) 0.3226(10)
C374? C 0.4850(13) 0.6186(17) 0.2935(10)
C375? C 0.5299(16) 0.6003(15) 0.2880(9)
H266? H 0.5288 0.5835 0.2658
C376? C 0.5761(14) 0.6071(16) 0.3156(11)
H267? H 0.6042 0.5900 0.3147
C377? C 0.5811(13) 0.6389(17) 0.3448(10)
H268? H 0.6147 0.6468 0.3630
C378? C 0.5362(16) 0.6593(16) 0.3471(10)
H269? H 0.5402 0.6824 0.3665
C379? C 0.2788(18) 0.3220(18) 0.0885(12)
H270? H 0.3074 0.3109 0.1034
C380? C 0.231(2) 0.2915(11) 0.0642(13)
H271? H 0.2215 0.2565 0.0602
C381? C 0.1989(16) 0.3226(17) 0.0472(11)
H272? H 0.1646 0.3121 0.0297
C382? C 0.227(2) 0.3723(14) 0.0609(14)
H273? H 0.2154 0.4008 0.0541
C383? C 0.2767(19) 0.3719(14) 0.0864(11)
H274? H 0.3036 0.4001 0.0997
C384? C -0.0040(18) 0.249(2) 0.3044(12)
H275? H 0.0248 0.2397 0.3205
C385? C -0.049(3) 0.2166(10) 0.2796(15)
H276? H -0.0566 0.1817 0.2763
C386? C -0.0826(16) 0.246(2) 0.2606(10)
H277? H -0.1157 0.2333 0.2424
C387? C -0.057(2) 0.2959(17) 0.2737(14)
H278? H -0.0709 0.3233 0.2658
C388? C -0.009(2) 0.2981(15) 0.3007(12)
H279? H 0.0159 0.3272 0.3141
C389? C 1.0763(17) 0.8065(18) 0.2399(10)
H280? H 1.1059 0.8285 0.2568
C390? C 1.065(2) 0.7541(18) 0.2360(12)
H281? H 1.0866 0.7349 0.2498
C391? C 1.017(2) 0.7354(10) 0.2079(12)
H282? H 1.0009 0.7015 0.1996
C392? C 0.9986(16) 0.7762(17) 0.1944(9)
H283? H 0.9672 0.7745 0.1755
C393? C 1.035(2) 0.8202(10) 0.2142(13)
H284? H 1.0321 0.8529 0.2109
C394? C 1.218(2) 1.0945(17) 0.5739(12)
C395? C 1.227(2) 1.0876(16) 0.6126(11)
H285? H 1.2206 1.1153 0.6254
H286? H 1.2668 1.0865 0.6205
H287? H 1.1997 1.0562 0.6178
F73? F 0.669(2) 0.1996(19) 0.0275(14)
N58? N 0.738(2) 0.2592(19) 0.0963(14)
S25? S 0.4321(19) 0.6080(17) 0.1282(13)
C396? C 0.430(7) 0.512(6) 0.079(4)
S26? S 0.436(2) 0.7271(19) 0.4382(18)
S27? S 0.549(2) 0.780(3) 0.4234(16)
O57? O 0.380(3) 0.731(3) 0.425(3)
O58? O 0.467(5) 0.747(3) 0.4732(19)
O59? O 0.552(5) 0.823(3) 0.444(3)
O60? O 0.573(4) 0.741(4) 0.437(3)
N59? N 0.479(3) 0.752(3) 0.4092(18)
C397? C 0.427(3) 0.660(2) 0.441(2)
C398? C 0.586(3) 0.802(3) 0.3856(19)
F74? F 0.441(5) 0.644(3) 0.411(3)
F75? F 0.373(4) 0.636(3) 0.443(3)
F76? F 0.461(5) 0.651(3) 0.469(3)
F77? F 0.639(3) 0.831(4) 0.399(3)
F78? F 0.558(4) 0.828(4) 0.364(3)
F79? F 0.590(5) 0.764(4) 0.367(3)
F80? F 0.026(4) 0.748(3) 0.603(2)
O61? O 0.000(3) 0.8709(14) 0.0393(14)
S28? S -0.0098(12) 0.8188(13) 0.0439(7)
S29? S 0.0970(12) 0.8077(12) 0.0259(8)
C399? C 0.0118(17) 0.8101(16) 0.0918(7)
C400? C 0.1123(17) 0.8338(15) -0.0173(9)
O62? O -0.0694(14) 0.789(2) 0.0349(14)
N60? N 0.0258(13) 0.7946(18) 0.0197(11)
O63? O 0.123(2) 0.8473(19) 0.0524(12)
O64? O 0.107(2) 0.7600(15) 0.0260(16)
F81? F 0.0596(19) 0.8430(19) 0.1081(12)
F82? F 0.021(3) 0.7660(17) 0.0974(13)
F83? F -0.027(2) 0.813(2) 0.1120(12)
F84? F 0.133(2) 0.8827(14) -0.0135(14)
F85? F 0.0606(18) 0.8236(19) -0.0378(11)
F86? F 0.148(2) 0.813(2) -0.0288(13)
S30? S 0.3238(9) 0.8556(9) 0.1581(6)
S31? S 0.3176(9) 0.7992(8) 0.2233(6)
N61? N 0.3335(17) 0.8519(10) 0.2023(6)
O65? O 0.285(2) 0.8096(16) 0.1420(16)
O66? O 0.317(2) 0.9027(13) 0.1479(12)
O67? O 0.3558(17) 0.8098(18) 0.2569(9)
O68? O 0.316(2) 0.7591(15) 0.1996(14)
C401? C 0.3941(13) 0.8561(17) 0.1464(11)
C402? C 0.2432(10) 0.7879(13) 0.2314(10)
F87? F 0.396(2) 0.868(3) 0.1128(12)
F88? F 0.4362(18) 0.887(2) 0.1691(16)
F89? F 0.402(2) 0.8121(19) 0.1524(17)
F90? F 0.2287(18) 0.7487(14) 0.2504(11)
F91? F 0.2061(16) 0.7827(17) 0.2010(10)
F92? F 0.2374(18) 0.8261(14) 0.2495(11)
loop_
_geom_bond_atom_site_label_1
_geom_bond_atom_site_label_2
_geom_bond_site_symmetry_1
_geom_bond_site_symmetry_2
Cd1 N1 1_555 1_555
Cd2 N3 1_555 1_555
Cd3 N4 1_555 1_555
Cd4 N6 1_555 1_555
Co1 C112 1_555 1_555
Co2 C19 1_555 1_555
N1 C6 1_555 1_555
N2 Cd1 1_555 1_555
N3 C29 1_555 1_555
N4 C47 1_555 1_555
N5 Cd3 1_555 1_555
N6 C67 1_555 1_555
N7 Cd4 1_555 1_555
N8 Cd1 1_555 1_555
N9 Cd1 1_555 1_555
N10 Cd2 1_555 1_555
N11 Cd2 1_555 1_555
N12 Cd3 1_555 1_555
N13 Cd3 1_555 1_555
N14 Cd4 1_555 1_555
N15 Cd4 1_555 1_555
N16 Cd1 1_555 1_555
N17 Cd1 1_555 1_555
N18 Cd3 1_555 1_555
N19 Cd3 1_555 1_555
N20 Cd4 1_555 1_555
N21 Cd4 1_555 1_555
O1 Cd2 1_555 1_555
O2 Cd2 1_555 1_555
C1 N2 1_555 1_555
H1 C1 1_555 1_555
C2 C1 1_555 1_555
H2 C2 1_555 1_555
C3 C2 1_555 1_555
H3 C3 1_555 1_555
C4 C3 1_555 1_555
H4 C4 1_555 1_555
C5 N2 1_555 1_555
C6 C5 1_555 1_555
H5 C6 1_555 1_555
C7 N1 1_555 1_555
C8 C7 1_555 1_555
H6 C8 1_555 1_555
C9 C8 1_555 1_555
C10 C9 1_555 1_555
H7 C10 1_555 1_555
C11 C10 1_555 1_555
H8 C11 1_555 1_555
C12 C7 1_555 1_555
H9 C12 1_555 1_555
C13 C9 1_555 1_555
C14 C13 1_555 1_555
H10 C14 1_555 1_555
C15 C14 1_555 1_555
H11 C15 1_555 1_555
C16 C15 1_555 1_555
C17 C16 1_555 1_555
H12 C17 1_555 1_555
C18 C13 1_555 1_555
H13 C18 1_555 1_555
C19 C16 1_555 1_555
C20 Co2 1_555 1_555
C21 C20 1_555 1_555
C22 C21 1_555 1_555
H14 C22 1_555 1_555
C23 C22 1_555 1_555
H15 C23 1_555 1_555
C24 C23 1_555 1_555
C25 C24 1_555 1_555
H16 C25 1_555 1_555
C26 C21 1_555 1_555
H17 C26 1_555 1_555
C27 C24 1_555 1_555
C28 C27 1_555 1_555
H18 C28 1_555 1_555
C29 C28 1_555 1_555
C30 C29 1_555 1_555
H19 C30 1_555 1_555
C31 C30 1_555 1_555
H20 C31 1_555 1_555
C32 C27 1_555 1_555
H21 C32 1_555 1_555
C33 N3 1_555 1_555
H22 C33 1_555 1_555
N22 Cd2 1_555 1_555
C34 C33 1_555 1_555
C35 C34 1_555 1_555
H23 C35 1_555 1_555
C36 C35 1_555 1_555
H24 C36 1_555 1_555
C37 C36 1_555 1_555
H25 C37 1_555 1_555
C38 N22 1_555 1_555
H26 C38 1_555 1_555
C39 C40 1_555 1_555
C40 H27 1_555 1_555
C41 C40 1_555 1_555
H28 C41 1_555 1_555
C42 C41 1_555 1_555
C43 C42 1_555 1_555
H29 C43 1_555 1_555
C44 C39 1_555 1_555
H30 C44 1_555 1_555
C45 C42 1_555 1_555
C46 C45 1_555 1_555
H31 C46 1_555 1_555
C47 C46 1_555 1_555
C48 C47 1_555 1_555
H32 C48 1_555 1_555
C49 C48 1_555 1_555
H33 C49 1_555 1_555
C50 C45 1_555 1_555
H34 C50 1_555 1_555
C51 N4 1_555 1_555
H35 C51 1_555 1_555
C52 N5 1_555 1_555
C53 C52 1_555 1_555
H36 C53 1_555 1_555
C54 C53 1_555 1_555
H37 C54 1_555 1_555
C55 C54 1_555 1_555
H38 C55 1_555 1_555
C56 N5 1_555 1_555
H39 C56 1_555 1_555
C57 Co2 1_555 1_555
C58 Co2 1_555 1_555
C59 C58 1_555 1_555
C60 C59 1_555 1_555
H40 C60 1_555 1_555
C61 C60 1_555 1_555
H41 C61 1_555 1_555
C62 C61 1_555 1_555
C63 C62 1_555 1_555
H42 C63 1_555 1_555
C64 C59 1_555 1_555
H43 C64 1_555 1_555
C65 C62 1_555 1_555
C66 C65 1_555 1_555
H44 C66 1_555 1_555
C67 C66 1_555 1_555
C68 C67 1_555 1_555
H45 C68 1_555 1_555
C69 C68 1_555 1_555
H46 C69 1_555 1_555
C70 C65 1_555 1_555
H47 C70 1_555 1_555
C71 N6 1_555 1_555
H48 C71 1_555 1_555
C72 N7 1_555 1_555
C73 C72 1_555 1_555
H49 C73 1_555 1_555
C74 C73 1_555 1_555
H50 C74 1_555 1_555
C75 C74 1_555 1_555
H51 C75 1_555 1_555
C76 N7 1_555 1_555
H52 C76 1_555 1_555
C77 Co2 1_555 1_555
H53 C77 1_555 1_555
C78 Co2 1_555 1_555
H54 C78 1_555 1_555
C79 Co2 1_555 1_555
H55 C79 1_555 1_555
C80 Co2 1_555 1_555
H56 C80 1_555 1_555
C81 Co2 1_555 1_555
H57 C81 1_555 1_555
C82 N18 1_555 1_555
C83 C82 1_555 1_555
H58 C83 1_555 1_555
H59 C83 1_555 1_555
H60 C83 1_555 1_555
C84 N16 1_555 1_555
C85 C84 1_555 1_555
H61 C85 1_555 1_555
H62 C85 1_555 1_555
H63 C85 1_555 1_555
C86 N17 1_555 1_555
C87 C86 1_555 1_555
H64 C87 1_555 1_555
H65 C87 1_555 1_555
H66 C87 1_555 1_555
C88 N19 1_555 1_555
C89 C88 1_555 1_555
H67 C89 1_555 1_555
H68 C89 1_555 1_555
H69 C89 1_555 1_555
C90 N20 1_555 1_555
C91 C90 1_555 1_555
H70 C91 1_555 1_555
H71 C91 1_555 1_555
H72 C91 1_555 1_555
C92 N21 1_555 1_555
C93 C92 1_555 1_555
H73 C93 1_555 1_555
H74 C93 1_555 1_555
H75 C93 1_555 1_555
C94 N9 1_555 1_555
H76 C94 1_555 1_555
C95 C94 1_555 1_555
H77 C95 1_555 1_555
C96 C95 1_555 1_555
H78 C96 1_555 1_555
C97 C96 1_555 1_555
H79 C97 1_555 1_555
C98 N9 1_555 1_555
C99 N8 1_555 1_555
H80 C99 1_555 1_555
C100 N8 1_555 1_555
C101 C100 1_555 1_555
H81 C101 1_555 1_555
C102 C101 1_555 1_555
C103 C102 1_555 1_555
H82 C103 1_555 1_555
C104 C103 1_555 1_555
H83 C104 1_555 1_555
C105 C100 1_555 1_555
H84 C105 1_555 1_555
C106 C102 1_555 1_555
C107 C106 1_555 1_555
H85 C107 1_555 1_555
C108 C107 1_555 1_555
H86 C108 1_555 1_555
C109 C108 1_555 1_555
C110 C109 1_555 1_555
H87 C110 1_555 1_555
C111 C106 1_555 1_555
H88 C111 1_555 1_555
C112 C109 1_555 1_555
C113 Co1 1_555 1_555
C114 C113 1_555 1_555
C115 C114 1_555 1_555
H89 C115 1_555 1_555
C116 C115 1_555 1_555
H90 C116 1_555 1_555
C117 C116 1_555 1_555
C118 C117 1_555 1_555
H91 C118 1_555 1_555
C119 C114 1_555 1_555
H92 C119 1_555 1_555
C120 C117 1_555 1_555
C121 C120 1_555 1_555
H93 C121 1_555 1_555
C122 N10 1_555 1_555
C123 C122 1_555 1_555
H94 C123 1_555 1_555
C124 C123 1_555 1_555
H95 C124 1_555 1_555
C125 C120 1_555 1_555
H96 C125 1_555 1_555
C126 N10 1_555 1_555
H97 C126 1_555 1_555
C127 N11 1_555 1_555
C128 C127 1_555 1_555
H98 C128 1_555 1_555
C129 C128 1_555 1_555
H99 C129 1_555 1_555
C130 C129 1_555 1_555
H100 C130 1_555 1_555
C131 N11 1_555 1_555
H101 C131 1_555 1_555
C132 C133 1_555 1_555
C133 H102 1_555 1_555
C134 C133 1_555 1_555
H103 C134 1_555 1_555
C135 C134 1_555 1_555
C136 C135 1_555 1_555
H104 C136 1_555 1_555
C137 C132 1_555 1_555
H105 C137 1_555 1_555
C138 C135 1_555 1_555
C139 C138 1_555 1_555
H106 C139 1_555 1_555
C140 N12 1_555 1_555
C141 C140 1_555 1_555
H107 C141 1_555 1_555
C142 C141 1_555 1_555
H108 C142 1_555 1_555
C143 C138 1_555 1_555
H109 C143 1_555 1_555
C144 N12 1_555 1_555
H110 C144 1_555 1_555
C145 N13 1_555 1_555
C146 C145 1_555 1_555
H111 C146 1_555 1_555
C147 C146 1_555 1_555
H112 C147 1_555 1_555
C148 C147 1_555 1_555
H113 C148 1_555 1_555
C149 N13 1_555 1_555
H114 C149 1_555 1_555
C150 Co1 1_555 1_555
C151 Co1 1_555 1_555
C152 C151 1_555 1_555
C153 C152 1_555 1_555
H115 C153 1_555 1_555
C154 C153 1_555 1_555
H116 C154 1_555 1_555
C155 C154 1_555 1_555
C156 C155 1_555 1_555
H117 C156 1_555 1_555
C157 C152 1_555 1_555
H118 C157 1_555 1_555
C158 C155 1_555 1_555
C159 C158 1_555 1_555
H119 C159 1_555 1_555
C160 N14 1_555 1_555
C161 C160 1_555 1_555
H120 C161 1_555 1_555
C162 C161 1_555 1_555
H121 C162 1_555 1_555
C163 C158 1_555 1_555
H122 C163 1_555 1_555
C164 N14 1_555 1_555
H123 C164 1_555 1_555
C165 N15 1_555 1_555
C166 C165 1_555 1_555
H124 C166 1_555 1_555
C167 C166 1_555 1_555
H125 C167 1_555 1_555
C168 C167 1_555 1_555
H126 C168 1_555 1_555
C169 N15 1_555 1_555
H127 C169 1_555 1_555
C170 Co1 1_555 1_555
H128 C170 1_555 1_555
C171 Co1 1_555 1_555
H129 C171 1_555 1_555
C172 Co1 1_555 1_555
H130 C172 1_555 1_555
C173 Co1 1_555 1_555
H131 C173 1_555 1_555
C174 Co1 1_555 1_555
H132 C174 1_555 1_555
Cd5 N23 1_555 1_555
Cd6 N25 1_555 1_555
Cd7 N27 1_555 1_555
Cd8 N29 1_555 1_555
Co3 C193 1_555 1_555
Co4 C286 1_555 1_555
N23 C180 1_555 1_555
N24 Cd5 1_555 1_555
N25 C203 1_555 1_555
N26 Cd6 1_555 1_555
N27 C221 1_555 1_555
N28 Cd7 1_555 1_555
N29 C241 1_555 1_555
N30 Cd8 1_555 1_555
N31 Cd5 1_555 1_555
N32 Cd5 1_555 1_555
N33 Cd6 1_555 1_555
N34 Cd6 1_555 1_555
N35 Cd7 1_555 1_555
N36 Cd7 1_555 1_555
N37 Cd8 1_555 1_555
N38 Cd8 1_555 1_555
N39 Cd5 1_555 1_555
N40 Cd5 1_555 1_555
N41 Cd7 1_555 1_555
N42 Cd7 1_555 1_555
N43 Cd8 1_555 1_555
N44 Cd8 1_555 1_555
O3 Cd6 1_555 1_555
C175 N24 1_555 1_555
H133 C175 1_555 1_555
C176 C175 1_555 1_555
H134 C176 1_555 1_555
C177 C176 1_555 1_555
H135 C177 1_555 1_555
C178 C177 1_555 1_555
H136 C178 1_555 1_555
C179 N24 1_555 1_555
C180 C179 1_555 1_555
H137 C180 1_555 1_555
C181 N23 1_555 1_555
C182 C181 1_555 1_555
H138 C182 1_555 1_555
C183 C182 1_555 1_555
C184 C183 1_555 1_555
H139 C184 1_555 1_555
C185 C184 1_555 1_555
H140 C185 1_555 1_555
C186 C181 1_555 1_555
H141 C186 1_555 1_555
C187 C183 1_555 1_555
C188 C187 1_555 1_555
H142 C188 1_555 1_555
C189 C188 1_555 1_555
H143 C189 1_555 1_555
C190 C189 1_555 1_555
C191 C190 1_555 1_555
H144 C191 1_555 1_555
C192 C187 1_555 1_555
H145 C192 1_555 1_555
C193 C190 1_555 1_555
C194 Co3 1_555 1_555
C195 C194 1_555 1_555
C196 C195 1_555 1_555
H146 C196 1_555 1_555
C197 C196 1_555 1_555
H147 C197 1_555 1_555
C198 C197 1_555 1_555
C199 C198 1_555 1_555
H148 C199 1_555 1_555
C200 C195 1_555 1_555
H149 C200 1_555 1_555
C201 C198 1_555 1_555
C202 C201 1_555 1_555
H150 C202 1_555 1_555
C203 C202 1_555 1_555
C204 C203 1_555 1_555
H151 C204 1_555 1_555
C205 C204 1_555 1_555
H152 C205 1_555 1_555
C206 C201 1_555 1_555
H153 C206 1_555 1_555
C207 N25 1_555 1_555
H154 C207 1_555 1_555
C208 N26 1_555 1_555
C209 C208 1_555 1_555
H155 C209 1_555 1_555
C210 C209 1_555 1_555
H156 C210 1_555 1_555
C211 C210 1_555 1_555
H157 C211 1_555 1_555
C212 N26 1_555 1_555
H158 C212 1_555 1_555
C213 C214 1_555 1_555
C214 H159 1_555 1_555
C215 C214 1_555 1_555
H160 C215 1_555 1_555
C216 C215 1_555 1_555
C217 C216 1_555 1_555
H161 C217 1_555 1_555
C218 C213 1_555 1_555
H162 C218 1_555 1_555
C219 C216 1_555 1_555
C220 C219 1_555 1_555
H163 C220 1_555 1_555
C221 C220 1_555 1_555
C222 C221 1_555 1_555
H164 C222 1_555 1_555
C223 C222 1_555 1_555
H165 C223 1_555 1_555
C224 C219 1_555 1_555
H166 C224 1_555 1_555
C225 N27 1_555 1_555
H167 C225 1_555 1_555
C226 N28 1_555 1_555
C227 C226 1_555 1_555
H168 C227 1_555 1_555
C228 C227 1_555 1_555
H169 C228 1_555 1_555
C229 C228 1_555 1_555
H170 C229 1_555 1_555
C230 N28 1_555 1_555
H171 C230 1_555 1_555
C231 Co3 1_555 1_555
C232 Co3 1_555 1_555
C233 C232 1_555 1_555
C234 C233 1_555 1_555
H172 C234 1_555 1_555
C235 C234 1_555 1_555
H173 C235 1_555 1_555
C236 C235 1_555 1_555
C237 C236 1_555 1_555
H174 C237 1_555 1_555
C238 C233 1_555 1_555
H175 C238 1_555 1_555
C239 C236 1_555 1_555
C240 C239 1_555 1_555
H176 C240 1_555 1_555
C241 C240 1_555 1_555
C242 C241 1_555 1_555
H177 C242 1_555 1_555
C243 C242 1_555 1_555
H178 C243 1_555 1_555
C244 C239 1_555 1_555
H179 C244 1_555 1_555
C245 N29 1_555 1_555
H180 C245 1_555 1_555
C246 N30 1_555 1_555
C247 C246 1_555 1_555
H181 C247 1_555 1_555
C248 C247 1_555 1_555
H182 C248 1_555 1_555
C249 C248 1_555 1_555
H183 C249 1_555 1_555
C250 N30 1_555 1_555
H184 C250 1_555 1_555
C251 Co3 1_555 1_555
H185 C251 1_555 1_555
C252 Co3 1_555 1_555
H186 C252 1_555 1_555
C253 Co3 1_555 1_555
H187 C253 1_555 1_555
C254 Co3 1_555 1_555
H188 C254 1_555 1_555
C255 Co3 1_555 1_555
H189 C255 1_555 1_555
C256 N39 1_555 1_555
C257 C256 1_555 1_555
H190 C257 1_555 1_555
H191 C257 1_555 1_555
H192 C257 1_555 1_555
C258 N40 1_555 1_555
C259 N44 1_555 1_555
C260 C259 1_555 1_555
H193 C260 1_555 1_555
H194 C260 1_555 1_555
H195 C260 1_555 1_555
C261 N42 1_555 1_555
C262 C261 1_555 1_555
H196 C262 1_555 1_555
H197 C262 1_555 1_555
H198 C262 1_555 1_555
C263 N41 1_555 1_555
C264 C263 1_555 1_555
H199 C264 1_555 1_555
H200 C264 1_555 1_555
H201 C264 1_555 1_555
C265 N43 1_555 1_555
C266 C265 1_555 1_555
H202 C266 1_555 1_555
H203 C266 1_555 1_555
H204 C266 1_555 1_555
C267 C258 1_555 1_555
H205 C267 1_555 1_555
H206 C267 1_555 1_555
H207 C267 1_555 1_555
C268 N32 1_555 1_555
H208 C268 1_555 1_555
C269 C268 1_555 1_555
H209 C269 1_555 1_555
C270 C269 1_555 1_555
H210 C270 1_555 1_555
C271 C270 1_555 1_555
H211 C271 1_555 1_555
C272 N32 1_555 1_555
C273 N31 1_555 1_555
H212 C273 1_555 1_555
C274 N31 1_555 1_555
C275 C274 1_555 1_555
H213 C275 1_555 1_555
C276 C275 1_555 1_555
C277 C276 1_555 1_555
H214 C277 1_555 1_555
C278 C277 1_555 1_555
H215 C278 1_555 1_555
C279 C274 1_555 1_555
H216 C279 1_555 1_555
C280 C276 1_555 1_555
C281 C280 1_555 1_555
H217 C281 1_555 1_555
C282 C281 1_555 1_555
H218 C282 1_555 1_555
C283 C282 1_555 1_555
C284 C283 1_555 1_555
H219 C284 1_555 1_555
C285 C280 1_555 1_555
H220 C285 1_555 1_555
C286 C283 1_555 1_555
C287 Co4 1_555 1_555
C288 C287 1_555 1_555
C289 C288 1_555 1_555
H221 C289 1_555 1_555
C290 C289 1_555 1_555
H222 C290 1_555 1_555
C291 C290 1_555 1_555
C292 C291 1_555 1_555
H223 C292 1_555 1_555
C293 C288 1_555 1_555
H224 C293 1_555 1_555
C294 C291 1_555 1_555
C295 C294 1_555 1_555
H225 C295 1_555 1_555
C296 N33 1_555 1_555
C297 C296 1_555 1_555
H226 C297 1_555 1_555
C298 C297 1_555 1_555
H227 C298 1_555 1_555
C299 C294 1_555 1_555
H228 C299 1_555 1_555
C300 N33 1_555 1_555
H229 C300 1_555 1_555
C301 N34 1_555 1_555
C302 C301 1_555 1_555
H230 C302 1_555 1_555
C303 C302 1_555 1_555
H231 C303 1_555 1_555
C304 C303 1_555 1_555
H232 C304 1_555 1_555
C305 N34 1_555 1_555
H233 C305 1_555 1_555
C306 C307 1_555 1_555
C307 H234 1_555 1_555
C308 C307 1_555 1_555
H235 C308 1_555 1_555
C309 C308 1_555 1_555
C310 C309 1_555 1_555
H236 C310 1_555 1_555
C311 C306 1_555 1_555
H237 C311 1_555 1_555
C312 C309 1_555 1_555
C313 C312 1_555 1_555
H238 C313 1_555 1_555
C314 N35 1_555 1_555
C315 C314 1_555 1_555
H239 C315 1_555 1_555
C316 C315 1_555 1_555
H240 C316 1_555 1_555
C317 C312 1_555 1_555
H241 C317 1_555 1_555
C318 N35 1_555 1_555
H242 C318 1_555 1_555
C319 N36 1_555 1_555
C320 C319 1_555 1_555
H243 C320 1_555 1_555
C321 C320 1_555 1_555
H244 C321 1_555 1_555
C322 C321 1_555 1_555
H245 C322 1_555 1_555
C323 N36 1_555 1_555
H246 C323 1_555 1_555
C324 Co4 1_555 1_555
C325 Co4 1_555 1_555
C326 C325 1_555 1_555
C327 C326 1_555 1_555
H247 C327 1_555 1_555
C328 C327 1_555 1_555
H248 C328 1_555 1_555
C329 C328 1_555 1_555
C330 C329 1_555 1_555
H249 C330 1_555 1_555
C331 C326 1_555 1_555
H250 C331 1_555 1_555
C332 C329 1_555 1_555
C333 C332 1_555 1_555
H251 C333 1_555 1_555
C334 N37 1_555 1_555
C335 C334 1_555 1_555
H252 C335 1_555 1_555
C336 C335 1_555 1_555
H253 C336 1_555 1_555
C337 C332 1_555 1_555
H254 C337 1_555 1_555
C338 N37 1_555 1_555
H255 C338 1_555 1_555
C339 N38 1_555 1_555
C340 C339 1_555 1_555
H256 C340 1_555 1_555
C341 C340 1_555 1_555
H257 C341 1_555 1_555
C342 C341 1_555 1_555
H258 C342 1_555 1_555
C343 N38 1_555 1_555
H259 C343 1_555 1_555
C344 Co4 1_555 1_555
H260 C344 1_555 1_555
C345 Co4 1_555 1_555
H261 C345 1_555 1_555
C346 Co4 1_555 1_555
H262 C346 1_555 1_555
C347 Co4 1_555 1_555
H263 C347 1_555 1_555
C348 Co4 1_555 1_555
H264 C348 1_555 1_555
O4 Cd6 1_555 1_555
S1 N45 1_555 1_555
S2 N45 1_555 1_555
O5 S1 1_555 1_555
O6 S1 1_555 1_555
O7 S2 1_555 1_555
O8 S2 1_555 1_555
F1 C349 1_555 1_555
F2 C349 1_555 1_555
F3 C349 1_555 1_555
F4 C350 1_555 1_555
F5 C350 1_555 1_555
F6 C350 1_555 1_555
C349 S1 1_555 1_555
C350 S2 1_555 1_555
S3 N46 1_555 1_555
S4 N46 1_555 1_555
O9 S3 1_555 1_555
O10 S3 1_555 1_555
O11 S4 1_555 1_555
O12 S4 1_555 1_555
C351 S3 1_555 1_555
C352 S4 1_555 1_555
F7 C351 1_555 1_555
F8 C351 1_555 1_555
F9 C351 1_555 1_555
F10 C352 1_555 1_555
F11 C352 1_555 1_555
F12 C352 1_555 1_555
S5 N47 1_555 1_555
S6 N47 1_555 1_555
O13 S5 1_555 1_555
O14 S5 1_555 1_555
O15 S6 1_555 1_555
O16 S6 1_555 1_555
C353 S5 1_555 1_555
C354 S6 1_555 1_555
F13 C353 1_555 1_555
F14 C353 1_555 1_555
F15 C353 1_555 1_555
F16 C354 1_555 1_555
F17 C354 1_555 1_555
F18 C354 1_555 1_555
S7 N48 1_555 1_555
S8 N48 1_555 1_555
O17 S7 1_555 1_555
O18 S7 1_555 1_555
O19 S8 1_555 1_555
O20 S8 1_555 1_555
C355 S7 1_555 1_555
C356 S8 1_555 1_555
F19 C355 1_555 1_555
F20 C355 1_555 1_555
F21 C355 1_555 1_555
F22 C356 1_555 1_555
F23 C356 1_555 1_555
F24 C356 1_555 1_555
S9 N49 1_555 1_555
S10 N49 1_555 1_555
O21 S9 1_555 1_555
O22 S9 1_555 1_555
O23 S10 1_555 1_555
O24 S10 1_555 1_555
C357 S9 1_555 1_555
C358 S10 1_555 1_555
F25 C357 1_555 1_555
F26 C357 1_555 1_555
F27 C357 1_555 1_555
F28 C358 1_555 1_555
F29 C358 1_555 1_555
F30 C358 1_555 1_555
S11 N50 1_555 1_555
S12 N50 1_555 1_555
O25 S11 1_555 1_555
O26 S11 1_555 1_555
O27 S12 1_555 1_555
O28 S12 1_555 1_555
C359 S11 1_555 1_555
C360 S12 1_555 1_555
F31 C359 1_555 1_555
F32 C359 1_555 1_555
F33 C359 1_555 1_555
F34 C360 1_555 1_555
F35 C360 1_555 1_555
F36 C360 1_555 1_555
S13 N51 1_555 1_555
S14 N51 1_555 1_555
O29 S13 1_555 1_555
O30 S13 1_555 1_555
O31 S14 1_555 1_555
O32 S14 1_555 1_555
C361 S13 1_555 1_555
C362 S14 1_555 1_555
F37 C361 1_555 1_555
F38 C361 1_555 1_555
F39 C361 1_555 1_555
F40 C362 1_555 1_555
F41 C362 1_555 1_555
F42 C362 1_555 1_555
S15 N52 1_555 1_555
S16 N52 1_555 1_555
O33 S15 1_555 1_555
O34 S15 1_555 1_555
O35 S16 1_555 1_555
O36 S16 1_555 1_555
C363 S15 1_555 1_555
C364 S16 1_555 1_555
F43 C363 1_555 1_555
F44 C363 1_555 1_555
F45 C363 1_555 1_555
F46 C364 1_555 1_555
F47 C364 1_555 1_555
F48 C364 1_555 1_555
S17 N53 1_555 1_555
S18 N53 1_555 1_555
O37 S17 1_555 1_555
O38 S17 1_555 1_555
O39 S18 1_555 1_555
O40 S18 1_555 1_555
C365 S17 1_555 1_555
C366 S18 1_555 1_555
F49 C365 1_555 1_555
F50 C365 1_555 1_555
F51 C365 1_555 1_555
F52 C366 1_555 1_555
F53 C366 1_555 1_555
F54 C366 1_555 1_555
S19 N54 1_555 1_555
S20 N54 1_555 1_555
O41 S19 1_555 1_555
O42 S19 1_555 1_555
O43 S20 1_555 1_555
O44 S20 1_555 1_555
C367 S19 1_555 1_555
C368 S20 1_555 1_555
F55 C367 1_555 1_555
F56 C367 1_555 1_555
F57 C367 1_555 1_555
F58 C368 1_555 1_555
F59 C368 1_555 1_555
F60 C368 1_555 1_555
S21 N55 1_555 1_555
S22 N55 1_555 1_555
O45 S21 1_555 1_555
O46 S21 1_555 1_555
O47 S22 1_555 1_555
O48 S22 1_555 1_555
C369 S21 1_555 1_555
C370 S22 1_555 1_555
F61 C369 1_555 1_555
F62 C369 1_555 1_555
F63 C369 1_555 1_555
F64 C370 1_555 1_555
F65 C370 1_555 1_555
F66 C370 1_555 1_555
S23 N56 1_555 1_555
S24 N56 1_555 1_555
F67 C371 1_555 1_555
F68 C371 1_555 1_555
F69 C371 1_555 1_555
O49 S24 1_555 1_555
O50 S23 1_555 1_555
O51 S23 1_555 1_555
O52 S24 1_555 1_555
F70 C372 1_555 1_555
F71 C372 1_555 1_555
F72 C372 1_555 1_555
C371 S24 1_555 1_555
C372 S23 1_555 1_555
C4 C5 1_555 1_555
C11 C12 1_555 1_555
C17 C18 1_555 1_555
C19 C20 1_555 1_555
C19 C58 1_555 1_555
C20 C57 1_555 1_555
C25 C26 1_555 1_555
C31 C32 1_555 1_555
N22 C34 1_555 1_555
C37 C38 1_555 1_555
C39 C57 1_555 1_555
C43 C44 1_555 1_555
C49 C50 1_555 1_555
C51 C52 1_555 1_555
C55 C56 1_555 1_555
C57 C58 1_555 1_555
C63 C64 1_555 1_555
C69 C70 1_555 1_555
C71 C72 1_555 1_555
C75 C76 1_555 1_555
C77 C78 1_555 1_555
C77 C81 1_555 1_555
C78 C79 1_555 1_555
C79 C80 1_555 1_555
C80 C81 1_555 1_555
C97 C98 1_555 1_555
C98 C99 1_555 1_555
C104 C105 1_555 1_555
C110 C111 1_555 1_555
C112 C113 1_555 1_555
C112 C151 1_555 1_555
C113 C150 1_555 1_555
C118 C119 1_555 1_555
C121 C122 1_555 1_555
C124 C125 1_555 1_555
C126 C127 1_555 1_555
C130 C131 1_555 1_555
C132 C150 1_555 1_555
C136 C137 1_555 1_555
C139 C140 1_555 1_555
C142 C143 1_555 1_555
C144 C145 1_555 1_555
C148 C149 1_555 1_555
C150 C151 1_555 1_555
C156 C157 1_555 1_555
C159 C160 1_555 1_555
C162 C163 1_555 1_555
C164 C165 1_555 1_555
C168 C169 1_555 1_555
C170 C171 1_555 1_555
C170 C174 1_555 1_555
C171 C172 1_555 1_555
C172 C173 1_555 1_555
C173 C174 1_555 1_555
C178 C179 1_555 1_555
C185 C186 1_555 1_555
C191 C192 1_555 1_555
C193 C194 1_555 1_555
C193 C232 1_555 1_555
C194 C231 1_555 1_555
C199 C200 1_555 1_555
C205 C206 1_555 1_555
C207 C208 1_555 1_555
C211 C212 1_555 1_555
C213 C231 1_555 1_555
C217 C218 1_555 1_555
C223 C224 1_555 1_555
C225 C226 1_555 1_555
C229 C230 1_555 1_555
C231 C232 1_555 1_555
C237 C238 1_555 1_555
C243 C244 1_555 1_555
C245 C246 1_555 1_555
C249 C250 1_555 1_555
C251 C252 1_555 1_555
C251 C255 1_555 1_555
C252 C253 1_555 1_555
C253 C254 1_555 1_555
C254 C255 1_555 1_555
C271 C272 1_555 1_555
C272 C273 1_555 1_555
C278 C279 1_555 1_555
C284 C285 1_555 1_555
C286 C287 1_555 1_555
C286 C325 1_555 1_555
C287 C324 1_555 1_555
C292 C293 1_555 1_555
C295 C296 1_555 1_555
C298 C299 1_555 1_555
C300 C301 1_555 1_555
C304 C305 1_555 1_555
C306 C324 1_555 1_555
C310 C311 1_555 1_555
C313 C314 1_555 1_555
C316 C317 1_555 1_555
C318 C319 1_555 1_555
C322 C323 1_555 1_555
C324 C325 1_555 1_555
C330 C331 1_555 1_555
C333 C334 1_555 1_555
C336 C337 1_555 1_555
C338 C339 1_555 1_555
C342 C343 1_555 1_555
C344 C345 1_555 1_555
C344 C348 1_555 1_555
C345 C346 1_555 1_555
C346 C347 1_555 1_555
C347 C348 1_555 1_555

#END
