# generated using pymatgen
data_FeCoBPH101C64N13OF12
_symmetry_space_group_name_H-M   'P 1'
_cell_length_a   19.67710000
_cell_length_b   24.56790000
_cell_length_c   30.15200000
_cell_angle_alpha   114.01800000
_cell_angle_beta   90.00000000
_cell_angle_gamma   90.00000000
_symmetry_Int_Tables_number   1
_chemical_formula_structural   FeCoBPH101C64N13OF12
_chemical_formula_sum   'Fe8 Co8 B8 P8 H808 C512 N104 O8 F96'
_cell_volume   13314.18673612
_cell_formula_units_Z   8
loop_
 _symmetry_equiv_pos_site_id
 _symmetry_equiv_pos_as_xyz
  1  'x, y, z'
loop_
 _atom_site_type_symbol
 _atom_site_label
 _atom_site_symmetry_multiplicity
 _atom_site_fract_x
 _atom_site_fract_y
 _atom_site_fract_z
 _atom_site_occupancy
  Fe  Fe1  1  0.669290  0.116180  0.013250  1.0
  Fe  Fe2  1  0.669290  0.883820  0.486750  1.0
  Fe  Fe3  1  0.169290  0.616180  0.013250  1.0
  Fe  Fe4  1  0.169290  0.383820  0.486750  1.0
  Fe  Fe5  1  0.330710  0.883820  0.986750  1.0
  Fe  Fe6  1  0.330710  0.116180  0.513250  1.0
  Fe  Fe7  1  0.830710  0.383820  0.986750  1.0
  Fe  Fe8  1  0.830710  0.616180  0.513250  1.0
  Co  Co9  1  0.608190  0.332570  0.047550  1.0
  Co  Co10  1  0.608190  0.667430  0.452450  1.0
  Co  Co11  1  0.108190  0.832570  0.047550  1.0
  Co  Co12  1  0.108190  0.167430  0.452450  1.0
  Co  Co13  1  0.391810  0.667430  0.952450  1.0
  Co  Co14  1  0.391810  0.332570  0.547550  1.0
  Co  Co15  1  0.891810  0.167430  0.952450  1.0
  Co  Co16  1  0.891810  0.832570  0.547550  1.0
  B  B17  1  0.623000  0.060600  0.082500  1.0
  B  B18  1  0.623000  0.939400  0.417500  1.0
  B  B19  1  0.123000  0.560600  0.082500  1.0
  B  B20  1  0.123000  0.439400  0.417500  1.0
  B  B21  1  0.377000  0.939400  0.917500  1.0
  B  B22  1  0.377000  0.060600  0.582500  1.0
  B  B23  1  0.877000  0.439400  0.917500  1.0
  B  B24  1  0.877000  0.560600  0.582500  1.0
  P  P25  1  0.250000  0.250000  1.000000  1
  P  P26  1  0.250000  0.750000  0.500000  1
  P  P27  1  0.750000  0.750000  0.000000  1
  P  P28  1  0.750000  0.250000  0.500000  1
  P  P29  1  0.996000  1.000000  0.750000  1
  P  P30  1  0.496000  0.500000  0.750000  1
  P  P31  1  0.004000  1.000000  0.250000  1
  P  P32  1  0.504000  0.500000  0.250000  1
  H  H33  1  0.924300  0.437800  0.160900  1
  H  H34  1  0.924300  0.562200  0.339100  1
  H  H35  1  0.424300  0.937800  0.160900  1
  H  H36  1  0.424300  0.062200  0.339100  1
  H  H37  1  0.075700  0.562200  0.839100  1
  H  H38  1  0.075700  0.437800  0.660900  1
  H  H39  1  0.575700  0.062200  0.839100  1
  H  H40  1  0.575700  0.937800  0.660900  1
  H  H41  1  0.054700  0.431700  0.199500  1
  H  H42  1  0.054700  0.568300  0.300500  1
  H  H43  1  0.554700  0.931700  0.199500  1
  H  H44  1  0.554700  0.068300  0.300500  1
  H  H45  1  0.945300  0.568300  0.800500  1
  H  H46  1  0.945300  0.431700  0.699500  1
  H  H47  1  0.445300  0.068300  0.800500  1
  H  H48  1  0.445300  0.931700  0.699500  1
  H  H49  1  0.020900  0.494400  0.214100  1
  H  H50  1  0.020900  0.505600  0.285900  1
  H  H51  1  0.520900  0.994400  0.214100  1
  H  H52  1  0.520900  0.005600  0.285900  1
  H  H53  1  0.979100  0.505600  0.785900  1
  H  H54  1  0.979100  0.494400  0.714100  1
  H  H55  1  0.479100  0.005600  0.785900  1
  H  H56  1  0.479100  0.994400  0.714100  1
  H  H57  1  0.044100  0.457700  0.160300  1
  H  H58  1  0.044100  0.542300  0.339700  1
  H  H59  1  0.544100  0.957700  0.160300  1
  H  H60  1  0.544100  0.042300  0.339700  1
  H  H61  1  0.955900  0.542300  0.839700  1
  H  H62  1  0.955900  0.457700  0.660300  1
  H  H63  1  0.455900  0.042300  0.839700  1
  H  H64  1  0.455900  0.957700  0.660300  1
  H  H65  1  0.317500  0.574700  0.144200  1
  H  H66  1  0.317500  0.425300  0.355800  1
  H  H67  1  0.817500  0.074700  0.144200  1
  H  H68  1  0.817500  0.925300  0.355800  1
  H  H69  1  0.682500  0.425300  0.855800  1
  H  H70  1  0.682500  0.574700  0.644200  1
  H  H71  1  0.182500  0.925300  0.855800  1
  H  H72  1  0.182500  0.074700  0.644200  1
  H  H73  1  0.380400  0.552200  0.163900  1
  H  H74  1  0.380400  0.447800  0.336100  1
  H  H75  1  0.880400  0.052200  0.163900  1
  H  H76  1  0.880400  0.947800  0.336100  1
  H  H77  1  0.619600  0.447800  0.836100  1
  H  H78  1  0.619600  0.552200  0.663900  1
  H  H79  1  0.119600  0.947800  0.836100  1
  H  H80  1  0.119600  0.052200  0.663900  1
  H  H81  1  0.332000  0.506200  0.125600  1
  H  H82  1  0.332000  0.493800  0.374400  1
  H  H83  1  0.832000  0.006200  0.125600  1
  H  H84  1  0.832000  0.993800  0.374400  1
  H  H85  1  0.668000  0.493800  0.874400  1
  H  H86  1  0.668000  0.506200  0.625600  1
  H  H87  1  0.168000  0.993800  0.874400  1
  H  H88  1  0.168000  0.006200  0.625600  1
  H  H89  1  0.366400  0.626100  0.152800  1
  H  H90  1  0.366400  0.373900  0.347200  1
  H  H91  1  0.866400  0.126100  0.152800  1
  H  H92  1  0.866400  0.873900  0.347200  1
  H  H93  1  0.633600  0.373900  0.847200  1
  H  H94  1  0.633600  0.626100  0.652800  1
  H  H95  1  0.133600  0.873900  0.847200  1
  H  H96  1  0.133600  0.126100  0.652800  1
  H  H97  1  0.445200  0.616100  0.150600  1
  H  H98  1  0.445200  0.383900  0.349400  1
  H  H99  1  0.945200  0.116100  0.150600  1
  H  H100  1  0.945200  0.883900  0.349400  1
  H  H101  1  0.554800  0.383900  0.849400  1
  H  H102  1  0.554800  0.616100  0.650600  1
  H  H103  1  0.054800  0.883900  0.849400  1
  H  H104  1  0.054800  0.116100  0.650600  1
  H  H105  1  0.398000  0.580400  0.171100  1
  H  H106  1  0.398000  0.419600  0.328900  1
  H  H107  1  0.898000  0.080400  0.171100  1
  H  H108  1  0.898000  0.919600  0.328900  1
  H  H109  1  0.602000  0.419600  0.828900  1
  H  H110  1  0.602000  0.580400  0.671100  1
  H  H111  1  0.102000  0.919600  0.828900  1
  H  H112  1  0.102000  0.080400  0.671100  1
  H  H113  1  0.329600  0.509100  0.046300  1
  H  H114  1  0.329600  0.490900  0.453700  1
  H  H115  1  0.829600  0.009100  0.046300  1
  H  H116  1  0.829600  0.990900  0.453700  1
  H  H117  1  0.670400  0.490900  0.953700  1
  H  H118  1  0.670400  0.509100  0.546300  1
  H  H119  1  0.170400  0.990900  0.953700  1
  H  H120  1  0.170400  0.009100  0.546300  1
  H  H121  1  0.378200  0.553200  0.035900  1
  H  H122  1  0.378200  0.446800  0.464100  1
  H  H123  1  0.878200  0.053200  0.035900  1
  H  H124  1  0.878200  0.946800  0.464100  1
  H  H125  1  0.621800  0.446800  0.964100  1
  H  H126  1  0.621800  0.553200  0.535900  1
  H  H127  1  0.121800  0.946800  0.964100  1
  H  H128  1  0.121800  0.053200  0.535900  1
  H  H129  1  0.319400  0.578100  0.073900  1
  H  H130  1  0.319400  0.421900  0.426100  1
  H  H131  1  0.819400  0.078100  0.073900  1
  H  H132  1  0.819400  0.921900  0.426100  1
  H  H133  1  0.680600  0.421900  0.926100  1
  H  H134  1  0.680600  0.578100  0.573900  1
  H  H135  1  0.180600  0.921900  0.926100  1
  H  H136  1  0.180600  0.078100  0.573900  1
  H  H137  1  0.472300  0.225600  0.217100  1
  H  H138  1  0.472300  0.774400  0.282900  1
  H  H139  1  0.972300  0.725600  0.217100  1
  H  H140  1  0.972300  0.274400  0.282900  1
  H  H141  1  0.527700  0.774400  0.782900  1
  H  H142  1  0.527700  0.225600  0.717100  1
  H  H143  1  0.027700  0.274400  0.782900  1
  H  H144  1  0.027700  0.725600  0.717100  1
  H  H145  1  0.473300  0.188600  0.160700  1
  H  H146  1  0.473300  0.811400  0.339300  1
  H  H147  1  0.973300  0.688600  0.160700  1
  H  H148  1  0.973300  0.311400  0.339300  1
  H  H149  1  0.526700  0.811400  0.839300  1
  H  H150  1  0.526700  0.188600  0.660700  1
  H  H151  1  0.026700  0.311400  0.839300  1
  H  H152  1  0.026700  0.688600  0.660700  1
  H  H153  1  0.414700  0.179200  0.192100  1
  H  H154  1  0.414700  0.820800  0.307900  1
  H  H155  1  0.914700  0.679200  0.192100  1
  H  H156  1  0.914700  0.320800  0.307900  1
  H  H157  1  0.585300  0.820800  0.807900  1
  H  H158  1  0.585300  0.179200  0.692100  1
  H  H159  1  0.085300  0.320800  0.807900  1
  H  H160  1  0.085300  0.679200  0.692100  1
  H  H161  1  0.309900  0.229900  0.185000  1
  H  H162  1  0.309900  0.770100  0.315000  1
  H  H163  1  0.809900  0.729900  0.185000  1
  H  H164  1  0.809900  0.270100  0.315000  1
  H  H165  1  0.690100  0.770100  0.815000  1
  H  H166  1  0.690100  0.229900  0.685000  1
  H  H167  1  0.190100  0.270100  0.815000  1
  H  H168  1  0.190100  0.729900  0.685000  1
  H  H169  1  0.343900  0.200900  0.133600  1
  H  H170  1  0.343900  0.799100  0.366400  1
  H  H171  1  0.843900  0.700900  0.133600  1
  H  H172  1  0.843900  0.299100  0.366400  1
  H  H173  1  0.656100  0.799100  0.866400  1
  H  H174  1  0.656100  0.200900  0.633600  1
  H  H175  1  0.156100  0.299100  0.866400  1
  H  H176  1  0.156100  0.700900  0.633600  1
  H  H177  1  0.309200  0.263600  0.150600  1
  H  H178  1  0.309200  0.736400  0.349400  1
  H  H179  1  0.809200  0.763600  0.150600  1
  H  H180  1  0.809200  0.236400  0.349400  1
  H  H181  1  0.690800  0.736400  0.849400  1
  H  H182  1  0.690800  0.263600  0.650600  1
  H  H183  1  0.190800  0.236400  0.849400  1
  H  H184  1  0.190800  0.763600  0.650600  1
  H  H185  1  0.378800  0.345300  0.234600  1
  H  H186  1  0.378800  0.654700  0.265400  1
  H  H187  1  0.878800  0.845300  0.234600  1
  H  H188  1  0.878800  0.154700  0.265400  1
  H  H189  1  0.621200  0.654700  0.765400  1
  H  H190  1  0.621200  0.345300  0.734600  1
  H  H191  1  0.121200  0.154700  0.765400  1
  H  H192  1  0.121200  0.845300  0.734600  1
  H  H193  1  0.442200  0.312800  0.244000  1
  H  H194  1  0.442200  0.687200  0.256000  1
  H  H195  1  0.942200  0.812800  0.244000  1
  H  H196  1  0.942200  0.187200  0.256000  1
  H  H197  1  0.557800  0.687200  0.756000  1
  H  H198  1  0.557800  0.312800  0.744000  1
  H  H199  1  0.057800  0.187200  0.756000  1
  H  H200  1  0.057800  0.812800  0.744000  1
  H  H201  1  0.368700  0.292700  0.250800  1
  H  H202  1  0.368700  0.707300  0.249200  1
  H  H203  1  0.868700  0.792700  0.250800  1
  H  H204  1  0.868700  0.207300  0.249200  1
  H  H205  1  0.631300  0.707300  0.749200  1
  H  H206  1  0.631300  0.292700  0.750800  1
  H  H207  1  0.131300  0.207300  0.749200  1
  H  H208  1  0.131300  0.792700  0.750800  1
  H  H209  1  0.843100  0.379700  0.230300  1
  H  H210  1  0.843100  0.620300  0.269700  1
  H  H211  1  0.343100  0.879700  0.230300  1
  H  H212  1  0.343100  0.120300  0.269700  1
  H  H213  1  0.156900  0.620300  0.769700  1
  H  H214  1  0.156900  0.379700  0.730300  1
  H  H215  1  0.656900  0.120300  0.769700  1
  H  H216  1  0.656900  0.879700  0.730300  1
  H  H217  1  0.813100  0.320300  0.229600  1
  H  H218  1  0.813100  0.679700  0.270400  1
  H  H219  1  0.313100  0.820300  0.229600  1
  H  H220  1  0.313100  0.179700  0.270400  1
  H  H221  1  0.186900  0.679700  0.770400  1
  H  H222  1  0.186900  0.320300  0.729600  1
  H  H223  1  0.686900  0.179700  0.770400  1
  H  H224  1  0.686900  0.820300  0.729600  1
  H  H225  1  0.838300  0.370300  0.278600  1
  H  H226  1  0.838300  0.629700  0.221400  1
  H  H227  1  0.338300  0.870300  0.278600  1
  H  H228  1  0.338300  0.129700  0.221400  1
  H  H229  1  0.161700  0.629700  0.721400  1
  H  H230  1  0.161700  0.370300  0.778600  1
  H  H231  1  0.661700  0.129700  0.721400  1
  H  H232  1  0.661700  0.870300  0.778600  1
  H  H233  1  0.747000  0.465000  0.318400  1
  H  H234  1  0.747000  0.535000  0.181600  1
  H  H235  1  0.247000  0.965000  0.318400  1
  H  H236  1  0.247000  0.035000  0.181600  1
  H  H237  1  0.253000  0.535000  0.681600  1
  H  H238  1  0.253000  0.465000  0.818400  1
  H  H239  1  0.753000  0.035000  0.681600  1
  H  H240  1  0.753000  0.965000  0.818400  1
  H  H241  1  0.712100  0.476000  0.276000  1
  H  H242  1  0.712100  0.524000  0.224000  1
  H  H243  1  0.212100  0.976000  0.276000  1
  H  H244  1  0.212100  0.024000  0.224000  1
  H  H245  1  0.287900  0.524000  0.724000  1
  H  H246  1  0.287900  0.476000  0.776000  1
  H  H247  1  0.787900  0.024000  0.724000  1
  H  H248  1  0.787900  0.976000  0.776000  1
  H  H249  1  0.791000  0.467000  0.275700  1
  H  H250  1  0.791000  0.533000  0.224300  1
  H  H251  1  0.291000  0.967000  0.275700  1
  H  H252  1  0.291000  0.033000  0.224300  1
  H  H253  1  0.209000  0.533000  0.724300  1
  H  H254  1  0.209000  0.467000  0.775700  1
  H  H255  1  0.709000  0.033000  0.724300  1
  H  H256  1  0.709000  0.967000  0.775700  1
  H  H257  1  0.719300  0.375500  0.317400  1
  H  H258  1  0.719300  0.624500  0.182600  1
  H  H259  1  0.219300  0.875500  0.317400  1
  H  H260  1  0.219300  0.124500  0.182600  1
  H  H261  1  0.280700  0.624500  0.682600  1
  H  H262  1  0.280700  0.375500  0.817400  1
  H  H263  1  0.780700  0.124500  0.682600  1
  H  H264  1  0.780700  0.875500  0.817400  1
  H  H265  1  0.702700  0.321200  0.268500  1
  H  H266  1  0.702700  0.678800  0.231500  1
  H  H267  1  0.202700  0.821200  0.268500  1
  H  H268  1  0.202700  0.178800  0.231500  1
  H  H269  1  0.297300  0.678800  0.731500  1
  H  H270  1  0.297300  0.321200  0.768500  1
  H  H271  1  0.797300  0.178800  0.731500  1
  H  H272  1  0.797300  0.821200  0.768500  1
  H  H273  1  0.653500  0.376100  0.288300  1
  H  H274  1  0.653500  0.623900  0.211700  1
  H  H275  1  0.153500  0.876100  0.288300  1
  H  H276  1  0.153500  0.123900  0.211700  1
  H  H277  1  0.346500  0.623900  0.711700  1
  H  H278  1  0.346500  0.376100  0.788300  1
  H  H279  1  0.846500  0.123900  0.711700  1
  H  H280  1  0.846500  0.876100  0.788300  1
  H  H281  1  0.415400  0.098900  0.034200  1.0
  H  H282  1  0.415400  0.901100  0.465800  1.0
  H  H283  1  0.915400  0.598900  0.034200  1.0
  H  H284  1  0.915400  0.401100  0.465800  1.0
  H  H285  1  0.584600  0.901100  0.965800  1.0
  H  H286  1  0.584600  0.098900  0.534200  1.0
  H  H287  1  0.084600  0.401100  0.965800  1.0
  H  H288  1  0.084600  0.598900  0.534200  1.0
  H  H289  1  0.743800  0.903100  0.973800  1.0
  H  H290  1  0.743800  0.096900  0.526200  1.0
  H  H291  1  0.243800  0.403100  0.973800  1.0
  H  H292  1  0.243800  0.596900  0.526200  1.0
  H  H293  1  0.256200  0.096900  0.026200  1.0
  H  H294  1  0.256200  0.903100  0.473800  1.0
  H  H295  1  0.756200  0.596900  0.026200  1.0
  H  H296  1  0.756200  0.403100  0.473800  1.0
  H  H297  1  0.751700  0.212500  0.187900  1.0
  H  H298  1  0.751700  0.787500  0.312100  1.0
  H  H299  1  0.251700  0.712500  0.187900  1.0
  H  H300  1  0.251700  0.287500  0.312100  1.0
  H  H301  1  0.248300  0.787500  0.812100  1.0
  H  H302  1  0.248300  0.212500  0.687900  1.0
  H  H303  1  0.748300  0.287500  0.812100  1.0
  H  H304  1  0.748300  0.712500  0.687900  1.0
  H  H305  1  0.454100  0.289100  0.044600  1.0
  H  H306  1  0.454100  0.710900  0.455400  1.0
  H  H307  1  0.954100  0.789100  0.044600  1.0
  H  H308  1  0.954100  0.210900  0.455400  1.0
  H  H309  1  0.545900  0.710900  0.955400  1.0
  H  H310  1  0.545900  0.289100  0.544600  1.0
  H  H311  1  0.045900  0.210900  0.955400  1.0
  H  H312  1  0.045900  0.789100  0.544600  1.0
  H  H313  1  0.380800  0.263800  0.091100  1.0
  H  H314  1  0.380800  0.736200  0.408900  1.0
  H  H315  1  0.880800  0.763800  0.091100  1.0
  H  H316  1  0.880800  0.236200  0.408900  1.0
  H  H317  1  0.619200  0.736200  0.908900  1.0
  H  H318  1  0.619200  0.263800  0.591100  1.0
  H  H319  1  0.119200  0.236200  0.908900  1.0
  H  H320  1  0.119200  0.763800  0.591100  1.0
  H  H321  1  0.522300  0.308600  0.194000  1.0
  H  H322  1  0.522300  0.691400  0.306000  1.0
  H  H323  1  0.022300  0.808600  0.194000  1.0
  H  H324  1  0.022300  0.191400  0.306000  1.0
  H  H325  1  0.477700  0.691400  0.806000  1.0
  H  H326  1  0.477700  0.308600  0.694000  1.0
  H  H327  1  0.977700  0.191400  0.806000  1.0
  H  H328  1  0.977700  0.808600  0.694000  1.0
  H  H329  1  0.621300  0.344800  0.216000  1.0
  H  H330  1  0.621300  0.655200  0.284000  1.0
  H  H331  1  0.121300  0.844800  0.216000  1.0
  H  H332  1  0.121300  0.155200  0.284000  1.0
  H  H333  1  0.378700  0.655200  0.784000  1.0
  H  H334  1  0.378700  0.344800  0.716000  1.0
  H  H335  1  0.878700  0.155200  0.784000  1.0
  H  H336  1  0.878700  0.844800  0.716000  1.0
  H  H337  1  0.789600  0.409300  0.180200  1.0
  H  H338  1  0.789600  0.590700  0.319800  1.0
  H  H339  1  0.289600  0.909300  0.180200  1.0
  H  H340  1  0.289600  0.090700  0.319800  1.0
  H  H341  1  0.210400  0.590700  0.819800  1.0
  H  H342  1  0.210400  0.409300  0.680200  1.0
  H  H343  1  0.710400  0.090700  0.819800  1.0
  H  H344  1  0.710400  0.909300  0.680200  1.0
  H  H345  1  0.740400  0.390100  0.106200  1.0
  H  H346  1  0.740400  0.609900  0.393800  1.0
  H  H347  1  0.240400  0.890100  0.106200  1.0
  H  H348  1  0.240400  0.109900  0.393800  1.0
  H  H349  1  0.259600  0.609900  0.893800  1.0
  H  H350  1  0.259600  0.390100  0.606200  1.0
  H  H351  1  0.759600  0.109900  0.893800  1.0
  H  H352  1  0.759600  0.890100  0.606200  1.0
  H  H353  1  0.588200  0.464600  0.123400  1.0
  H  H354  1  0.588200  0.535400  0.376600  1.0
  H  H355  1  0.088200  0.964600  0.123400  1.0
  H  H356  1  0.088200  0.035400  0.376600  1.0
  H  H357  1  0.411800  0.535400  0.876600  1.0
  H  H358  1  0.411800  0.464600  0.623400  1.0
  H  H359  1  0.911800  0.035400  0.876600  1.0
  H  H360  1  0.911800  0.964600  0.623400  1.0
  H  H361  1  0.510000  0.539500  0.142600  1.0
  H  H362  1  0.510000  0.460500  0.357400  1.0
  H  H363  1  0.010000  0.039500  0.142600  1.0
  H  H364  1  0.010000  0.960500  0.357400  1.0
  H  H365  1  0.490000  0.460500  0.857400  1.0
  H  H366  1  0.490000  0.539500  0.642600  1.0
  H  H367  1  0.990000  0.960500  0.857400  1.0
  H  H368  1  0.990000  0.039500  0.642600  1.0
  H  H369  1  0.414100  0.443500  0.018700  1.0
  H  H370  1  0.414100  0.556500  0.481300  1.0
  H  H371  1  0.914100  0.943500  0.018700  1.0
  H  H372  1  0.914100  0.056500  0.481300  1.0
  H  H373  1  0.585900  0.556500  0.981300  1.0
  H  H374  1  0.585900  0.443500  0.518700  1.0
  H  H375  1  0.085900  0.056500  0.981300  1.0
  H  H376  1  0.085900  0.943500  0.518700  1.0
  H  H377  1  0.417600  0.361600  0.950500  1.0
  H  H378  1  0.417600  0.638400  0.549500  1.0
  H  H379  1  0.917600  0.861600  0.950500  1.0
  H  H380  1  0.917600  0.138400  0.549500  1.0
  H  H381  1  0.582400  0.638400  0.049500  1.0
  H  H382  1  0.582400  0.361600  0.450500  1.0
  H  H383  1  0.082400  0.138400  0.049500  1.0
  H  H384  1  0.082400  0.861600  0.450500  1.0
  H  H385  1  0.513700  0.209700  0.878600  1.0
  H  H386  1  0.513700  0.790300  0.621400  1.0
  H  H387  1  0.013700  0.709700  0.878600  1.0
  H  H388  1  0.013700  0.290300  0.621400  1.0
  H  H389  1  0.486300  0.790300  0.121400  1.0
  H  H390  1  0.486300  0.209700  0.378600  1.0
  H  H391  1  0.986300  0.290300  0.121400  1.0
  H  H392  1  0.986300  0.709700  0.378600  1.0
  H  H393  1  0.588500  0.233300  0.941600  1.0
  H  H394  1  0.588500  0.766700  0.558400  1.0
  H  H395  1  0.088500  0.733300  0.941600  1.0
  H  H396  1  0.088500  0.266700  0.558400  1.0
  H  H397  1  0.411500  0.766700  0.058400  1.0
  H  H398  1  0.411500  0.233300  0.441600  1.0
  H  H399  1  0.911500  0.266700  0.058400  1.0
  H  H400  1  0.911500  0.733300  0.441600  1.0
  H  H401  1  0.502500  0.118800  0.949400  1.0
  H  H402  1  0.502500  0.881200  0.550600  1.0
  H  H403  1  0.002500  0.618800  0.949400  1.0
  H  H404  1  0.002500  0.381200  0.550600  1.0
  H  H405  1  0.497500  0.881200  0.050600  1.0
  H  H406  1  0.497500  0.118800  0.449400  1.0
  H  H407  1  0.997500  0.381200  0.050600  1.0
  H  H408  1  0.997500  0.618800  0.449400  1.0
  H  H409  1  0.535000  0.177300  0.987700  1.0
  H  H410  1  0.535000  0.822700  0.512300  1.0
  H  H411  1  0.035000  0.677300  0.987700  1.0
  H  H412  1  0.035000  0.322700  0.512300  1.0
  H  H413  1  0.465000  0.822700  0.012300  1.0
  H  H414  1  0.465000  0.177300  0.487700  1.0
  H  H415  1  0.965000  0.322700  0.012300  1.0
  H  H416  1  0.965000  0.677300  0.487700  1.0
  H  H417  1  0.456700  0.166400  0.988700  1.0
  H  H418  1  0.456700  0.833600  0.511300  1.0
  H  H419  1  0.956700  0.666400  0.988700  1.0
  H  H420  1  0.956700  0.333600  0.511300  1.0
  H  H421  1  0.543300  0.833600  0.011300  1.0
  H  H422  1  0.543300  0.166400  0.488700  1.0
  H  H423  1  0.043300  0.333600  0.011300  1.0
  H  H424  1  0.043300  0.666400  0.488700  1.0
  H  H425  1  0.417600  0.051900  0.101000  1.0
  H  H426  1  0.417600  0.948100  0.399000  1.0
  H  H427  1  0.917600  0.551900  0.101000  1.0
  H  H428  1  0.917600  0.448100  0.399000  1.0
  H  H429  1  0.582400  0.948100  0.899000  1.0
  H  H430  1  0.582400  0.051900  0.601000  1.0
  H  H431  1  0.082400  0.448100  0.899000  1.0
  H  H432  1  0.082400  0.551900  0.601000  1.0
  H  H433  1  0.488400  0.056600  0.126200  1.0
  H  H434  1  0.488400  0.943400  0.373800  1.0
  H  H435  1  0.988400  0.556600  0.126200  1.0
  H  H436  1  0.988400  0.443400  0.373800  1.0
  H  H437  1  0.511600  0.943400  0.873800  1.0
  H  H438  1  0.511600  0.056600  0.626200  1.0
  H  H439  1  0.011600  0.443400  0.873800  1.0
  H  H440  1  0.011600  0.556600  0.626200  1.0
  H  H441  1  0.470500  1.000000  0.079300  1.0
  H  H442  1  0.470500  1.000000  0.420700  1.0
  H  H443  1  0.970500  0.500000  0.079300  1.0
  H  H444  1  0.970500  0.500000  0.420700  1.0
  H  H445  1  0.529500  0.000000  0.920700  1.0
  H  H446  1  0.529500  0.000000  0.579300  1.0
  H  H447  1  0.029500  0.500000  0.920700  1.0
  H  H448  1  0.029500  0.500000  0.579300  1.0
  H  H449  1  0.795900  0.008300  0.936100  1.0
  H  H450  1  0.795900  0.991700  0.563900  1.0
  H  H451  1  0.295900  0.508300  0.936100  1.0
  H  H452  1  0.295900  0.491700  0.563900  1.0
  H  H453  1  0.204100  0.991700  0.063900  1.0
  H  H454  1  0.204100  0.008300  0.436100  1.0
  H  H455  1  0.704100  0.491700  0.063900  1.0
  H  H456  1  0.704100  0.508300  0.436100  1.0
  H  H457  1  0.724100  0.000700  0.911700  1.0
  H  H458  1  0.724100  0.999300  0.588300  1.0
  H  H459  1  0.224100  0.500700  0.911700  1.0
  H  H460  1  0.224100  0.499300  0.588300  1.0
  H  H461  1  0.275900  0.999300  0.088300  1.0
  H  H462  1  0.275900  0.000700  0.411700  1.0
  H  H463  1  0.775900  0.499300  0.088300  1.0
  H  H464  1  0.775900  0.500700  0.411700  1.0
  H  H465  1  0.766300  0.944400  0.906600  1.0
  H  H466  1  0.766300  0.055600  0.593400  1.0
  H  H467  1  0.266300  0.444400  0.906600  1.0
  H  H468  1  0.266300  0.555600  0.593400  1.0
  H  H469  1  0.233700  0.055600  0.093400  1.0
  H  H470  1  0.233700  0.944400  0.406600  1.0
  H  H471  1  0.733700  0.555600  0.093400  1.0
  H  H472  1  0.733700  0.444400  0.406600  1.0
  H  H473  1  0.626700  0.932400  0.073200  1.0
  H  H474  1  0.626700  0.067600  0.426800  1.0
  H  H475  1  0.126700  0.432400  0.073200  1.0
  H  H476  1  0.126700  0.567600  0.426800  1.0
  H  H477  1  0.373300  0.067600  0.926800  1.0
  H  H478  1  0.373300  0.932400  0.573200  1.0
  H  H479  1  0.873300  0.567600  0.926800  1.0
  H  H480  1  0.873300  0.432400  0.573200  1.0
  H  H481  1  0.699300  0.950600  0.095700  1.0
  H  H482  1  0.699300  0.049400  0.404300  1.0
  H  H483  1  0.199300  0.450600  0.095700  1.0
  H  H484  1  0.199300  0.549400  0.404300  1.0
  H  H485  1  0.300700  0.049400  0.904300  1.0
  H  H486  1  0.300700  0.950600  0.595700  1.0
  H  H487  1  0.800700  0.549400  0.904300  1.0
  H  H488  1  0.800700  0.450600  0.595700  1.0
  H  H489  1  0.688600  0.889700  0.051100  1.0
  H  H490  1  0.688600  0.110300  0.448900  1.0
  H  H491  1  0.188600  0.389700  0.051100  1.0
  H  H492  1  0.188600  0.610300  0.448900  1.0
  H  H493  1  0.311400  0.110300  0.948900  1.0
  H  H494  1  0.311400  0.889700  0.551100  1.0
  H  H495  1  0.811400  0.610300  0.948900  1.0
  H  H496  1  0.811400  0.389700  0.551100  1.0
  H  H497  1  0.749700  0.245300  0.082700  1.0
  H  H498  1  0.749700  0.754700  0.417300  1.0
  H  H499  1  0.249700  0.745300  0.082700  1.0
  H  H500  1  0.249700  0.254700  0.417300  1.0
  H  H501  1  0.250300  0.754700  0.917300  1.0
  H  H502  1  0.250300  0.245300  0.582700  1.0
  H  H503  1  0.750300  0.254700  0.917300  1.0
  H  H504  1  0.750300  0.745300  0.582700  1.0
  H  H505  1  0.814200  0.207500  0.081900  1.0
  H  H506  1  0.814200  0.792500  0.418100  1.0
  H  H507  1  0.314200  0.707500  0.081900  1.0
  H  H508  1  0.314200  0.292500  0.418100  1.0
  H  H509  1  0.185800  0.792500  0.918100  1.0
  H  H510  1  0.185800  0.207500  0.581900  1.0
  H  H511  1  0.685800  0.292500  0.918100  1.0
  H  H512  1  0.685800  0.707500  0.581900  1.0
  H  H513  1  0.792800  0.260900  0.130000  1.0
  H  H514  1  0.792800  0.739100  0.370000  1.0
  H  H515  1  0.292800  0.760900  0.130000  1.0
  H  H516  1  0.292800  0.239100  0.370000  1.0
  H  H517  1  0.207200  0.739100  0.870000  1.0
  H  H518  1  0.207200  0.260900  0.630000  1.0
  H  H519  1  0.707200  0.239100  0.870000  1.0
  H  H520  1  0.707200  0.760900  0.630000  1.0
  H  H521  1  0.669600  0.078100  0.181700  1.0
  H  H522  1  0.669600  0.921900  0.318300  1.0
  H  H523  1  0.169600  0.578100  0.181700  1.0
  H  H524  1  0.169600  0.421900  0.318300  1.0
  H  H525  1  0.330400  0.921900  0.818300  1.0
  H  H526  1  0.330400  0.078100  0.681700  1.0
  H  H527  1  0.830400  0.421900  0.818300  1.0
  H  H528  1  0.830400  0.578100  0.681700  1.0
  H  H529  1  0.617200  0.130600  0.201700  1.0
  H  H530  1  0.617200  0.869400  0.298300  1.0
  H  H531  1  0.117200  0.630600  0.201700  1.0
  H  H532  1  0.117200  0.369400  0.298300  1.0
  H  H533  1  0.382800  0.869400  0.798300  1.0
  H  H534  1  0.382800  0.130600  0.701700  1.0
  H  H535  1  0.882800  0.369400  0.798300  1.0
  H  H536  1  0.882800  0.630600  0.701700  1.0
  H  H537  1  0.691300  0.139400  0.222600  1.0
  H  H538  1  0.691300  0.860600  0.277400  1.0
  H  H539  1  0.191300  0.639400  0.222600  1.0
  H  H540  1  0.191300  0.360600  0.277400  1.0
  H  H541  1  0.308700  0.860600  0.777400  1.0
  H  H542  1  0.308700  0.139400  0.722600  1.0
  H  H543  1  0.808700  0.360600  0.777400  1.0
  H  H544  1  0.808700  0.639400  0.722600  1.0
  H  H545  1  0.608100  0.042700  0.104600  1.0
  H  H546  1  0.608100  0.957300  0.395400  1.0
  H  H547  1  0.108100  0.542700  0.104600  1.0
  H  H548  1  0.108100  0.457300  0.395400  1.0
  H  H549  1  0.391900  0.957300  0.895400  1.0
  H  H550  1  0.391900  0.042700  0.604600  1.0
  H  H551  1  0.891900  0.457300  0.895400  1.0
  H  H552  1  0.891900  0.542700  0.604600  1.0
  H  H553  1  0.356600  0.519200  0.026000  1.0
  H  H554  1  0.356600  0.480800  0.474000  1.0
  H  H555  1  0.856600  0.019200  0.026000  1.0
  H  H556  1  0.856600  0.980800  0.474000  1.0
  H  H557  1  0.643400  0.480800  0.974000  1.0
  H  H558  1  0.643400  0.519200  0.526000  1.0
  H  H559  1  0.143400  0.980800  0.974000  1.0
  H  H560  1  0.143400  0.019200  0.526000  1.0
  H  H561  1  0.409000  0.571400  0.038100  1.0
  H  H562  1  0.409000  0.428600  0.461900  1.0
  H  H563  1  0.909000  0.071400  0.038100  1.0
  H  H564  1  0.909000  0.928600  0.461900  1.0
  H  H565  1  0.591000  0.428600  0.961900  1.0
  H  H566  1  0.591000  0.571400  0.538100  1.0
  H  H567  1  0.091000  0.928600  0.961900  1.0
  H  H568  1  0.091000  0.071400  0.538100  1.0
  H  H569  1  0.334900  0.584700  0.058900  1.0
  H  H570  1  0.334900  0.415300  0.441100  1.0
  H  H571  1  0.834900  0.084700  0.058900  1.0
  H  H572  1  0.834900  0.915300  0.441100  1.0
  H  H573  1  0.665100  0.415300  0.941100  1.0
  H  H574  1  0.665100  0.584700  0.558900  1.0
  H  H575  1  0.165100  0.915300  0.941100  1.0
  H  H576  1  0.165100  0.084700  0.558900  1.0
  H  H577  1  0.453800  0.621700  0.109500  1.0
  H  H578  1  0.453800  0.378300  0.390500  1.0
  H  H579  1  0.953800  0.121700  0.109500  1.0
  H  H580  1  0.953800  0.878300  0.390500  1.0
  H  H581  1  0.546200  0.378300  0.890500  1.0
  H  H582  1  0.546200  0.621700  0.609500  1.0
  H  H583  1  0.046200  0.878300  0.890500  1.0
  H  H584  1  0.046200  0.121700  0.609500  1.0
  H  H585  1  0.444200  0.608600  0.155800  1.0
  H  H586  1  0.444200  0.391400  0.344200  1.0
  H  H587  1  0.944200  0.108600  0.155800  1.0
  H  H588  1  0.944200  0.891400  0.344200  1.0
  H  H589  1  0.555800  0.391400  0.844200  1.0
  H  H590  1  0.555800  0.608600  0.655800  1.0
  H  H591  1  0.055800  0.891400  0.844200  1.0
  H  H592  1  0.055800  0.108600  0.655800  1.0
  H  H593  1  0.384800  0.637400  0.138000  1.0
  H  H594  1  0.384800  0.362600  0.362000  1.0
  H  H595  1  0.884800  0.137400  0.138000  1.0
  H  H596  1  0.884800  0.862600  0.362000  1.0
  H  H597  1  0.615200  0.362600  0.862000  1.0
  H  H598  1  0.615200  0.637400  0.638000  1.0
  H  H599  1  0.115200  0.862600  0.862000  1.0
  H  H600  1  0.115200  0.137400  0.638000  1.0
  H  H601  1  0.296100  0.546500  0.117100  1.0
  H  H602  1  0.296100  0.453500  0.382900  1.0
  H  H603  1  0.796100  0.046500  0.117100  1.0
  H  H604  1  0.796100  0.953500  0.382900  1.0
  H  H605  1  0.703900  0.453500  0.882900  1.0
  H  H606  1  0.703900  0.546500  0.617100  1.0
  H  H607  1  0.203900  0.953500  0.882900  1.0
  H  H608  1  0.203900  0.046500  0.617100  1.0
  H  H609  1  0.346600  0.521300  0.144300  1.0
  H  H610  1  0.346600  0.478700  0.355700  1.0
  H  H611  1  0.846600  0.021300  0.144300  1.0
  H  H612  1  0.846600  0.978700  0.355700  1.0
  H  H613  1  0.653400  0.478700  0.855700  1.0
  H  H614  1  0.653400  0.521300  0.644300  1.0
  H  H615  1  0.153400  0.978700  0.855700  1.0
  H  H616  1  0.153400  0.021300  0.644300  1.0
  H  H617  1  0.326300  0.482300  0.090400  1.0
  H  H618  1  0.326300  0.517700  0.409600  1.0
  H  H619  1  0.826300  0.982300  0.090400  1.0
  H  H620  1  0.826300  0.017700  0.409600  1.0
  H  H621  1  0.673700  0.517700  0.909600  1.0
  H  H622  1  0.673700  0.482300  0.590400  1.0
  H  H623  1  0.173700  0.017700  0.909600  1.0
  H  H624  1  0.173700  0.982300  0.590400  1.0
  H  H625  1  0.336100  0.196000  0.835300  1.0
  H  H626  1  0.336100  0.804000  0.664700  1.0
  H  H627  1  0.836100  0.696000  0.835300  1.0
  H  H628  1  0.836100  0.304000  0.664700  1.0
  H  H629  1  0.663900  0.804000  0.164700  1.0
  H  H630  1  0.663900  0.196000  0.335300  1.0
  H  H631  1  0.163900  0.304000  0.164700  1.0
  H  H632  1  0.163900  0.696000  0.335300  1.0
  H  H633  1  0.353600  0.208300  0.889300  1.0
  H  H634  1  0.353600  0.791700  0.610700  1.0
  H  H635  1  0.853600  0.708300  0.889300  1.0
  H  H636  1  0.853600  0.291700  0.610700  1.0
  H  H637  1  0.646400  0.791700  0.110700  1.0
  H  H638  1  0.646400  0.208300  0.389300  1.0
  H  H639  1  0.146400  0.291700  0.110700  1.0
  H  H640  1  0.146400  0.708300  0.389300  1.0
  H  H641  1  0.406200  0.175400  0.847900  1.0
  H  H642  1  0.406200  0.824600  0.652100  1.0
  H  H643  1  0.906200  0.675400  0.847900  1.0
  H  H644  1  0.906200  0.324600  0.652100  1.0
  H  H645  1  0.593800  0.824600  0.152100  1.0
  H  H646  1  0.593800  0.175400  0.347900  1.0
  H  H647  1  0.093800  0.324600  0.152100  1.0
  H  H648  1  0.093800  0.675400  0.347900  1.0
  H  H649  1  0.479000  0.232000  0.814500  1.0
  H  H650  1  0.479000  0.768000  0.685500  1.0
  H  H651  1  0.979000  0.732000  0.814500  1.0
  H  H652  1  0.979000  0.268000  0.685500  1.0
  H  H653  1  0.521000  0.768000  0.185500  1.0
  H  H654  1  0.521000  0.232000  0.314500  1.0
  H  H655  1  0.021000  0.268000  0.185500  1.0
  H  H656  1  0.021000  0.732000  0.314500  1.0
  H  H657  1  0.460500  0.297900  0.824200  1.0
  H  H658  1  0.460500  0.702100  0.675800  1.0
  H  H659  1  0.960500  0.797900  0.824200  1.0
  H  H660  1  0.960500  0.202100  0.675800  1.0
  H  H661  1  0.539500  0.702100  0.175800  1.0
  H  H662  1  0.539500  0.297900  0.324200  1.0
  H  H663  1  0.039500  0.202100  0.175800  1.0
  H  H664  1  0.039500  0.797900  0.324200  1.0
  H  H665  1  0.412200  0.245700  0.792600  1.0
  H  H666  1  0.412200  0.754300  0.707400  1.0
  H  H667  1  0.912200  0.745700  0.792600  1.0
  H  H668  1  0.912200  0.254300  0.707400  1.0
  H  H669  1  0.587800  0.754300  0.207400  1.0
  H  H670  1  0.587800  0.245700  0.292600  1.0
  H  H671  1  0.087800  0.254300  0.207400  1.0
  H  H672  1  0.087800  0.745700  0.292600  1.0
  H  H673  1  0.363500  0.347100  0.879200  1.0
  H  H674  1  0.363500  0.652900  0.620800  1.0
  H  H675  1  0.863500  0.847100  0.879200  1.0
  H  H676  1  0.863500  0.152900  0.620800  1.0
  H  H677  1  0.636500  0.652900  0.120800  1.0
  H  H678  1  0.636500  0.347100  0.379200  1.0
  H  H679  1  0.136500  0.152900  0.120800  1.0
  H  H680  1  0.136500  0.847100  0.379200  1.0
  H  H681  1  0.325800  0.314700  0.907300  1.0
  H  H682  1  0.325800  0.685300  0.592700  1.0
  H  H683  1  0.825800  0.814700  0.907300  1.0
  H  H684  1  0.825800  0.185300  0.592700  1.0
  H  H685  1  0.674200  0.685300  0.092700  1.0
  H  H686  1  0.674200  0.314700  0.407300  1.0
  H  H687  1  0.174200  0.185300  0.092700  1.0
  H  H688  1  0.174200  0.814700  0.407300  1.0
  H  H689  1  0.313000  0.294900  0.851600  1.0
  H  H690  1  0.313000  0.705100  0.648400  1.0
  H  H691  1  0.813000  0.794900  0.851600  1.0
  H  H692  1  0.813000  0.205100  0.648400  1.0
  H  H693  1  0.687000  0.705100  0.148400  1.0
  H  H694  1  0.687000  0.294900  0.351600  1.0
  H  H695  1  0.187000  0.205100  0.148400  1.0
  H  H696  1  0.187000  0.794900  0.351600  1.0
  H  H697  1  0.747200  0.356400  0.305400  1.0
  H  H698  1  0.747200  0.643600  0.194600  1.0
  H  H699  1  0.247200  0.856400  0.305400  1.0
  H  H700  1  0.247200  0.143600  0.194600  1.0
  H  H701  1  0.252800  0.643600  0.694600  1.0
  H  H702  1  0.252800  0.356400  0.805400  1.0
  H  H703  1  0.752800  0.143600  0.694600  1.0
  H  H704  1  0.752800  0.856400  0.805400  1.0
  H  H705  1  0.765100  0.312300  0.252200  1.0
  H  H706  1  0.765100  0.687700  0.247800  1.0
  H  H707  1  0.265100  0.812300  0.252200  1.0
  H  H708  1  0.265100  0.187700  0.247800  1.0
  H  H709  1  0.234900  0.687700  0.747800  1.0
  H  H710  1  0.234900  0.312300  0.752200  1.0
  H  H711  1  0.734900  0.187700  0.747800  1.0
  H  H712  1  0.734900  0.812300  0.752200  1.0
  H  H713  1  0.689100  0.328500  0.267300  1.0
  H  H714  1  0.689100  0.671500  0.232700  1.0
  H  H715  1  0.189100  0.828500  0.267300  1.0
  H  H716  1  0.189100  0.171500  0.232700  1.0
  H  H717  1  0.310900  0.671500  0.732700  1.0
  H  H718  1  0.310900  0.328500  0.767300  1.0
  H  H719  1  0.810900  0.171500  0.732700  1.0
  H  H720  1  0.810900  0.828500  0.767300  1.0
  H  H721  1  0.815900  0.435800  0.304300  1.0
  H  H722  1  0.815900  0.564200  0.195700  1.0
  H  H723  1  0.315900  0.935800  0.304300  1.0
  H  H724  1  0.315900  0.064200  0.195700  1.0
  H  H725  1  0.184100  0.564200  0.695700  1.0
  H  H726  1  0.184100  0.435800  0.804300  1.0
  H  H727  1  0.684100  0.064200  0.695700  1.0
  H  H728  1  0.684100  0.935800  0.804300  1.0
  H  H729  1  0.802600  0.461200  0.265100  1.0
  H  H730  1  0.802600  0.538800  0.234900  1.0
  H  H731  1  0.302600  0.961200  0.265100  1.0
  H  H732  1  0.302600  0.038800  0.234900  1.0
  H  H733  1  0.197400  0.538800  0.734900  1.0
  H  H734  1  0.197400  0.461200  0.765100  1.0
  H  H735  1  0.697400  0.038800  0.734900  1.0
  H  H736  1  0.697400  0.961200  0.765100  1.0
  H  H737  1  0.841200  0.400600  0.250900  1.0
  H  H738  1  0.841200  0.599400  0.249100  1.0
  H  H739  1  0.341200  0.900600  0.250900  1.0
  H  H740  1  0.341200  0.099400  0.249100  1.0
  H  H741  1  0.158800  0.599400  0.749100  1.0
  H  H742  1  0.158800  0.400600  0.750900  1.0
  H  H743  1  0.658800  0.099400  0.749100  1.0
  H  H744  1  0.658800  0.900600  0.750900  1.0
  H  H745  1  0.643400  0.426600  0.294800  1.0
  H  H746  1  0.643400  0.573400  0.205200  1.0
  H  H747  1  0.143400  0.926600  0.294800  1.0
  H  H748  1  0.143400  0.073400  0.205200  1.0
  H  H749  1  0.356600  0.573400  0.705200  1.0
  H  H750  1  0.356600  0.426600  0.794800  1.0
  H  H751  1  0.856600  0.073400  0.705200  1.0
  H  H752  1  0.856600  0.926600  0.794800  1.0
  H  H753  1  0.684000  0.476500  0.286500  1.0
  H  H754  1  0.684000  0.523500  0.213500  1.0
  H  H755  1  0.184000  0.976500  0.286500  1.0
  H  H756  1  0.184000  0.023500  0.213500  1.0
  H  H757  1  0.316000  0.523500  0.713500  1.0
  H  H758  1  0.316000  0.476500  0.786500  1.0
  H  H759  1  0.816000  0.023500  0.713500  1.0
  H  H760  1  0.816000  0.976500  0.786500  1.0
  H  H761  1  0.705300  0.457500  0.328300  1.0
  H  H762  1  0.705300  0.542500  0.171700  1.0
  H  H763  1  0.205300  0.957500  0.328300  1.0
  H  H764  1  0.205300  0.042500  0.171700  1.0
  H  H765  1  0.294700  0.542500  0.671700  1.0
  H  H766  1  0.294700  0.457500  0.828300  1.0
  H  H767  1  0.794700  0.042500  0.671700  1.0
  H  H768  1  0.794700  0.957500  0.828300  1.0
  H  H769  1  0.338400  0.191100  0.170700  1.0
  H  H770  1  0.338400  0.808900  0.329300  1.0
  H  H771  1  0.838400  0.691100  0.170700  1.0
  H  H772  1  0.838400  0.308900  0.329300  1.0
  H  H773  1  0.661600  0.808900  0.829300  1.0
  H  H774  1  0.661600  0.191100  0.670700  1.0
  H  H775  1  0.161600  0.308900  0.829300  1.0
  H  H776  1  0.161600  0.691100  0.670700  1.0
  H  H777  1  0.395300  0.177600  0.131300  1.0
  H  H778  1  0.395300  0.822400  0.368700  1.0
  H  H779  1  0.895300  0.677600  0.131300  1.0
  H  H780  1  0.895300  0.322400  0.368700  1.0
  H  H781  1  0.604700  0.822400  0.868700  1.0
  H  H782  1  0.604700  0.177600  0.631300  1.0
  H  H783  1  0.104700  0.322400  0.868700  1.0
  H  H784  1  0.104700  0.677600  0.631300  1.0
  H  H785  1  0.329500  0.211800  0.128300  1.0
  H  H786  1  0.329500  0.788200  0.371700  1.0
  H  H787  1  0.829500  0.711800  0.128300  1.0
  H  H788  1  0.829500  0.288200  0.371700  1.0
  H  H789  1  0.670500  0.788200  0.871700  1.0
  H  H790  1  0.670500  0.211800  0.628300  1.0
  H  H791  1  0.170500  0.288200  0.871700  1.0
  H  H792  1  0.170500  0.711800  0.628300  1.0
  H  H793  1  0.383200  0.267800  0.247400  1.0
  H  H794  1  0.383200  0.732200  0.252600  1.0
  H  H795  1  0.883200  0.767800  0.247400  1.0
  H  H796  1  0.883200  0.232200  0.252600  1.0
  H  H797  1  0.616800  0.732200  0.752600  1.0
  H  H798  1  0.616800  0.267800  0.747400  1.0
  H  H799  1  0.116800  0.232200  0.752600  1.0
  H  H800  1  0.116800  0.767800  0.747400  1.0
  H  H801  1  0.438700  0.312200  0.245000  1.0
  H  H802  1  0.438700  0.687800  0.255000  1.0
  H  H803  1  0.938700  0.812200  0.245000  1.0
  H  H804  1  0.938700  0.187800  0.255000  1.0
  H  H805  1  0.561300  0.687800  0.755000  1.0
  H  H806  1  0.561300  0.312200  0.745000  1.0
  H  H807  1  0.061300  0.187800  0.755000  1.0
  H  H808  1  0.061300  0.812200  0.745000  1.0
  H  H809  1  0.454900  0.243900  0.225400  1.0
  H  H810  1  0.454900  0.756100  0.274600  1.0
  H  H811  1  0.954900  0.743900  0.225400  1.0
  H  H812  1  0.954900  0.256100  0.274600  1.0
  H  H813  1  0.545100  0.756100  0.774600  1.0
  H  H814  1  0.545100  0.243900  0.725400  1.0
  H  H815  1  0.045100  0.256100  0.774600  1.0
  H  H816  1  0.045100  0.743900  0.725400  1.0
  H  H817  1  0.295300  0.294500  0.177800  1.0
  H  H818  1  0.295300  0.705500  0.322200  1.0
  H  H819  1  0.795300  0.794500  0.177800  1.0
  H  H820  1  0.795300  0.205500  0.322200  1.0
  H  H821  1  0.704700  0.705500  0.822200  1.0
  H  H822  1  0.704700  0.294500  0.677800  1.0
  H  H823  1  0.204700  0.205500  0.822200  1.0
  H  H824  1  0.204700  0.794500  0.677800  1.0
  H  H825  1  0.349500  0.340900  0.177100  1.0
  H  H826  1  0.349500  0.659100  0.322900  1.0
  H  H827  1  0.849500  0.840900  0.177100  1.0
  H  H828  1  0.849500  0.159100  0.322900  1.0
  H  H829  1  0.650500  0.659100  0.822900  1.0
  H  H830  1  0.650500  0.340900  0.677100  1.0
  H  H831  1  0.150500  0.159100  0.822900  1.0
  H  H832  1  0.150500  0.840900  0.677100  1.0
  H  H833  1  0.332500  0.335300  0.225800  1.0
  H  H834  1  0.332500  0.664700  0.274200  1.0
  H  H835  1  0.832500  0.835300  0.225800  1.0
  H  H836  1  0.832500  0.164700  0.274200  1.0
  H  H837  1  0.667500  0.664700  0.774200  1.0
  H  H838  1  0.667500  0.335300  0.725800  1.0
  H  H839  1  0.167500  0.164700  0.774200  1.0
  H  H840  1  0.167500  0.835300  0.725800  1.0
  C  C841  1  0.025000  0.455100  0.188800  1
  C  C842  1  0.025000  0.544900  0.311200  1
  C  C843  1  0.525000  0.955100  0.188800  1
  C  C844  1  0.525000  0.044900  0.311200  1
  C  C845  1  0.975000  0.544900  0.811200  1
  C  C846  1  0.975000  0.455100  0.688800  1
  C  C847  1  0.475000  0.044900  0.811200  1
  C  C848  1  0.475000  0.955100  0.688800  1
  C  C849  1  0.352000  0.544900  0.136000  1
  C  C850  1  0.352000  0.455100  0.364000  1
  C  C851  1  0.852000  0.044900  0.136000  1
  C  C852  1  0.852000  0.955100  0.364000  1
  C  C853  1  0.648000  0.455100  0.864000  1
  C  C854  1  0.648000  0.544900  0.636000  1
  C  C855  1  0.148000  0.955100  0.864000  1
  C  C856  1  0.148000  0.044900  0.636000  1
  C  C857  1  0.401700  0.597200  0.147500  1
  C  C858  1  0.401700  0.402800  0.352500  1
  C  C859  1  0.901700  0.097200  0.147500  1
  C  C860  1  0.901700  0.902800  0.352500  1
  C  C861  1  0.598300  0.402800  0.852500  1
  C  C862  1  0.598300  0.597200  0.647500  1
  C  C863  1  0.098300  0.902800  0.852500  1
  C  C864  1  0.098300  0.097200  0.647500  1
  C  C865  1  0.352400  0.546900  0.060500  1
  C  C866  1  0.352400  0.453100  0.439500  1
  C  C867  1  0.852400  0.046900  0.060500  1
  C  C868  1  0.852400  0.953100  0.439500  1
  C  C869  1  0.647600  0.453100  0.939500  1
  C  C870  1  0.647600  0.546900  0.560500  1
  C  C871  1  0.147600  0.953100  0.939500  1
  C  C872  1  0.147600  0.046900  0.560500  1
  C  C873  1  0.444700  0.207900  0.188500  1
  C  C874  1  0.444700  0.792100  0.311500  1
  C  C875  1  0.944700  0.707900  0.188500  1
  C  C876  1  0.944700  0.292100  0.311500  1
  C  C877  1  0.555300  0.792100  0.811500  1
  C  C878  1  0.555300  0.207900  0.688500  1
  C  C879  1  0.055300  0.292100  0.811500  1
  C  C880  1  0.055300  0.707900  0.688500  1
  C  C881  1  0.335100  0.237700  0.160900  1
  C  C882  1  0.335100  0.762300  0.339100  1
  C  C883  1  0.835100  0.737700  0.160900  1
  C  C884  1  0.835100  0.262300  0.339100  1
  C  C885  1  0.664900  0.762300  0.839100  1
  C  C886  1  0.664900  0.237700  0.660900  1
  C  C887  1  0.164900  0.262300  0.839100  1
  C  C888  1  0.164900  0.737700  0.660900  1
  C  C889  1  0.396400  0.307600  0.232000  1
  C  C890  1  0.396400  0.692400  0.268000  1
  C  C891  1  0.896400  0.807600  0.232000  1
  C  C892  1  0.896400  0.192400  0.268000  1
  C  C893  1  0.603600  0.692400  0.768000  1
  C  C894  1  0.603600  0.307600  0.732000  1
  C  C895  1  0.103600  0.192400  0.768000  1
  C  C896  1  0.103600  0.807600  0.732000  1
  C  C897  1  0.816600  0.362600  0.248000  1
  C  C898  1  0.816600  0.637400  0.252000  1
  C  C899  1  0.316600  0.862600  0.248000  1
  C  C900  1  0.316600  0.137400  0.252000  1
  C  C901  1  0.183400  0.637400  0.752000  1
  C  C902  1  0.183400  0.362600  0.748000  1
  C  C903  1  0.683400  0.137400  0.752000  1
  C  C904  1  0.683400  0.862600  0.748000  1
  C  C905  1  0.748000  0.455300  0.284200  1
  C  C906  1  0.748000  0.544700  0.215800  1
  C  C907  1  0.248000  0.955300  0.284200  1
  C  C908  1  0.248000  0.044700  0.215800  1
  C  C909  1  0.252000  0.544700  0.715800  1
  C  C910  1  0.252000  0.455300  0.784200  1
  C  C911  1  0.752000  0.044700  0.715800  1
  C  C912  1  0.752000  0.955300  0.784200  1
  C  C913  1  0.700100  0.363700  0.285500  1
  C  C914  1  0.700100  0.636300  0.214500  1
  C  C915  1  0.200100  0.863700  0.285500  1
  C  C916  1  0.200100  0.136300  0.214500  1
  C  C917  1  0.299900  0.636300  0.714500  1
  C  C918  1  0.299900  0.363700  0.785500  1
  C  C919  1  0.799900  0.136300  0.714500  1
  C  C920  1  0.799900  0.863700  0.785500  1
  C  C921  1  0.741000  0.371800  0.005970  1.0
  C  C922  1  0.741000  0.628200  0.494030  1.0
  C  C923  1  0.241000  0.871800  0.005970  1.0
  C  C924  1  0.241000  0.128200  0.494030  1.0
  C  C925  1  0.259000  0.628200  0.994030  1.0
  C  C926  1  0.259000  0.371800  0.505970  1.0
  C  C927  1  0.759000  0.128200  0.994030  1.0
  C  C928  1  0.759000  0.871800  0.505970  1.0
  C  C929  1  0.652300  0.197100  0.021510  1.0
  C  C930  1  0.652300  0.802900  0.478490  1.0
  C  C931  1  0.152300  0.697100  0.021510  1.0
  C  C932  1  0.152300  0.302900  0.478490  1.0
  C  C933  1  0.347700  0.802900  0.978490  1.0
  C  C934  1  0.347700  0.197100  0.521510  1.0
  C  C935  1  0.847700  0.302900  0.978490  1.0
  C  C936  1  0.847700  0.697100  0.521510  1.0
  C  C937  1  0.646000  0.092900  0.945900  1.0
  C  C938  1  0.646000  0.907100  0.554100  1.0
  C  C939  1  0.146000  0.592900  0.945900  1.0
  C  C940  1  0.146000  0.407100  0.554100  1.0
  C  C941  1  0.354000  0.907100  0.054100  1.0
  C  C942  1  0.354000  0.092900  0.445900  1.0
  C  C943  1  0.854000  0.407100  0.054100  1.0
  C  C944  1  0.854000  0.592900  0.445900  1.0
  C  C945  1  0.511900  0.117600  0.015600  1.0
  C  C946  1  0.511900  0.882400  0.484400  1.0
  C  C947  1  0.011900  0.617600  0.015600  1.0
  C  C948  1  0.011900  0.382400  0.484400  1.0
  C  C949  1  0.488100  0.882400  0.984400  1.0
  C  C950  1  0.488100  0.117600  0.515600  1.0
  C  C951  1  0.988100  0.382400  0.984400  1.0
  C  C952  1  0.988100  0.617600  0.515600  1.0
  C  C953  1  0.462200  0.096500  0.037500  1.0
  C  C954  1  0.462200  0.903500  0.462500  1.0
  C  C955  1  0.962200  0.596500  0.037500  1.0
  C  C956  1  0.962200  0.403500  0.462500  1.0
  C  C957  1  0.537800  0.903500  0.962500  1.0
  C  C958  1  0.537800  0.096500  0.537500  1.0
  C  C959  1  0.037800  0.403500  0.962500  1.0
  C  C960  1  0.037800  0.596500  0.537500  1.0
  C  C961  1  0.494700  0.071900  0.064300  1.0
  C  C962  1  0.494700  0.928100  0.435700  1.0
  C  C963  1  0.994700  0.571900  0.064300  1.0
  C  C964  1  0.994700  0.428100  0.435700  1.0
  C  C965  1  0.505300  0.928100  0.935700  1.0
  C  C966  1  0.505300  0.071900  0.564300  1.0
  C  C967  1  0.005300  0.428100  0.935700  1.0
  C  C968  1  0.005300  0.571900  0.564300  1.0
  C  C969  1  0.723000  0.985500  0.972800  1.0
  C  C970  1  0.723000  0.014500  0.527200  1.0
  C  C971  1  0.223000  0.485500  0.972800  1.0
  C  C972  1  0.223000  0.514500  0.527200  1.0
  C  C973  1  0.277000  0.014500  0.027200  1.0
  C  C974  1  0.277000  0.985500  0.472800  1.0
  C  C975  1  0.777000  0.514500  0.027200  1.0
  C  C976  1  0.777000  0.485500  0.472800  1.0
  C  C977  1  0.723500  0.940300  0.989100  1.0
  C  C978  1  0.723500  0.059700  0.510900  1.0
  C  C979  1  0.223500  0.440300  0.989100  1.0
  C  C980  1  0.223500  0.559700  0.510900  1.0
  C  C981  1  0.276500  0.059700  0.010900  1.0
  C  C982  1  0.276500  0.940300  0.489100  1.0
  C  C983  1  0.776500  0.559700  0.010900  1.0
  C  C984  1  0.776500  0.440300  0.489100  1.0
  C  C985  1  0.688100  0.960800  0.032000  1.0
  C  C986  1  0.688100  0.039200  0.468000  1.0
  C  C987  1  0.188100  0.460800  0.032000  1.0
  C  C988  1  0.188100  0.539200  0.468000  1.0
  C  C989  1  0.311900  0.039200  0.968000  1.0
  C  C990  1  0.311900  0.960800  0.532000  1.0
  C  C991  1  0.811900  0.539200  0.968000  1.0
  C  C992  1  0.811900  0.460800  0.532000  1.0
  C  C993  1  0.734000  0.188600  0.114500  1.0
  C  C994  1  0.734000  0.811400  0.385500  1.0
  C  C995  1  0.234000  0.688600  0.114500  1.0
  C  C996  1  0.234000  0.311400  0.385500  1.0
  C  C997  1  0.266000  0.811400  0.885500  1.0
  C  C998  1  0.266000  0.188600  0.614500  1.0
  C  C999  1  0.766000  0.311400  0.885500  1.0
  C  C1000  1  0.766000  0.688600  0.614500  1.0
  C  C1001  1  0.729500  0.187100  0.159900  1.0
  C  C1002  1  0.729500  0.812900  0.340100  1.0
  C  C1003  1  0.229500  0.687100  0.159900  1.0
  C  C1004  1  0.229500  0.312900  0.340100  1.0
  C  C1005  1  0.270500  0.812900  0.840100  1.0
  C  C1006  1  0.270500  0.187100  0.659900  1.0
  C  C1007  1  0.770500  0.312900  0.840100  1.0
  C  C1008  1  0.770500  0.687100  0.659900  1.0
  C  C1009  1  0.686600  0.141700  0.155900  1.0
  C  C1010  1  0.686600  0.858300  0.344100  1.0
  C  C1011  1  0.186600  0.641700  0.155900  1.0
  C  C1012  1  0.186600  0.358300  0.344100  1.0
  C  C1013  1  0.313400  0.858300  0.844100  1.0
  C  C1014  1  0.313400  0.141700  0.655900  1.0
  C  C1015  1  0.813400  0.358300  0.844100  1.0
  C  C1016  1  0.813400  0.641700  0.655900  1.0
  C  C1017  1  0.468300  0.292800  0.075100  1.0
  C  C1018  1  0.468300  0.707200  0.424900  1.0
  C  C1019  1  0.968300  0.792800  0.075100  1.0
  C  C1020  1  0.968300  0.207200  0.424900  1.0
  C  C1021  1  0.531700  0.707200  0.924900  1.0
  C  C1022  1  0.531700  0.292800  0.575100  1.0
  C  C1023  1  0.031700  0.207200  0.924900  1.0
  C  C1024  1  0.031700  0.792800  0.575100  1.0
  C  C1025  1  0.424100  0.277500  0.102800  1.0
  C  C1026  1  0.424100  0.722500  0.397200  1.0
  C  C1027  1  0.924100  0.777500  0.102800  1.0
  C  C1028  1  0.924100  0.222500  0.397200  1.0
  C  C1029  1  0.575900  0.722500  0.897200  1.0
  C  C1030  1  0.575900  0.277500  0.602800  1.0
  C  C1031  1  0.075900  0.222500  0.897200  1.0
  C  C1032  1  0.075900  0.777500  0.602800  1.0
  C  C1033  1  0.443500  0.282200  0.148000  1.0
  C  C1034  1  0.443500  0.717800  0.352000  1.0
  C  C1035  1  0.943500  0.782200  0.148000  1.0
  C  C1036  1  0.943500  0.217800  0.352000  1.0
  C  C1037  1  0.556500  0.717800  0.852000  1.0
  C  C1038  1  0.556500  0.282200  0.648000  1.0
  C  C1039  1  0.056500  0.217800  0.852000  1.0
  C  C1040  1  0.056500  0.782200  0.648000  1.0
  C  C1041  1  0.507600  0.304000  0.163300  1.0
  C  C1042  1  0.507600  0.696000  0.336700  1.0
  C  C1043  1  0.007600  0.804000  0.163300  1.0
  C  C1044  1  0.007600  0.196000  0.336700  1.0
  C  C1045  1  0.492400  0.696000  0.836700  1.0
  C  C1046  1  0.492400  0.304000  0.663300  1.0
  C  C1047  1  0.992400  0.196000  0.836700  1.0
  C  C1048  1  0.992400  0.804000  0.663300  1.0
  C  C1049  1  0.550500  0.319300  0.134000  1.0
  C  C1050  1  0.550500  0.680700  0.366000  1.0
  C  C1051  1  0.050500  0.819300  0.134000  1.0
  C  C1052  1  0.050500  0.180700  0.366000  1.0
  C  C1053  1  0.449500  0.680700  0.866000  1.0
  C  C1054  1  0.449500  0.319300  0.634000  1.0
  C  C1055  1  0.949500  0.180700  0.866000  1.0
  C  C1056  1  0.949500  0.819300  0.634000  1.0
  C  C1057  1  0.619400  0.343900  0.149400  1.0
  C  C1058  1  0.619400  0.656100  0.350600  1.0
  C  C1059  1  0.119400  0.843900  0.149400  1.0
  C  C1060  1  0.119400  0.156100  0.350600  1.0
  C  C1061  1  0.380600  0.656100  0.850600  1.0
  C  C1062  1  0.380600  0.343900  0.649400  1.0
  C  C1063  1  0.880600  0.156100  0.850600  1.0
  C  C1064  1  0.880600  0.843900  0.649400  1.0
  C  C1065  1  0.646500  0.354300  0.194100  1.0
  C  C1066  1  0.646500  0.645700  0.305900  1.0
  C  C1067  1  0.146500  0.854300  0.194100  1.0
  C  C1068  1  0.146500  0.145700  0.305900  1.0
  C  C1069  1  0.353500  0.645700  0.805900  1.0
  C  C1070  1  0.353500  0.354300  0.694100  1.0
  C  C1071  1  0.853500  0.145700  0.805900  1.0
  C  C1072  1  0.853500  0.854300  0.694100  1.0
  C  C1073  1  0.711500  0.379100  0.207400  1.0
  C  C1074  1  0.711500  0.620900  0.292600  1.0
  C  C1075  1  0.211500  0.879100  0.207400  1.0
  C  C1076  1  0.211500  0.120900  0.292600  1.0
  C  C1077  1  0.288500  0.620900  0.792600  1.0
  C  C1078  1  0.288500  0.379100  0.707400  1.0
  C  C1079  1  0.788500  0.120900  0.792600  1.0
  C  C1080  1  0.788500  0.879100  0.707400  1.0
  C  C1081  1  0.746400  0.392600  0.173300  1.0
  C  C1082  1  0.746400  0.607400  0.326700  1.0
  C  C1083  1  0.246400  0.892600  0.173300  1.0
  C  C1084  1  0.246400  0.107400  0.326700  1.0
  C  C1085  1  0.253600  0.607400  0.826700  1.0
  C  C1086  1  0.253600  0.392600  0.673300  1.0
  C  C1087  1  0.753600  0.107400  0.826700  1.0
  C  C1088  1  0.753600  0.892600  0.673300  1.0
  C  C1089  1  0.716300  0.381000  0.128780  1.0
  C  C1090  1  0.716300  0.619000  0.371220  1.0
  C  C1091  1  0.216300  0.881000  0.128780  1.0
  C  C1092  1  0.216300  0.119000  0.371220  1.0
  C  C1093  1  0.283700  0.619000  0.871220  1.0
  C  C1094  1  0.283700  0.381000  0.628780  1.0
  C  C1095  1  0.783700  0.119000  0.871220  1.0
  C  C1096  1  0.783700  0.881000  0.628780  1.0
  C  C1097  1  0.552600  0.460200  0.101900  1.0
  C  C1098  1  0.552600  0.539800  0.398100  1.0
  C  C1099  1  0.052600  0.960200  0.101900  1.0
  C  C1100  1  0.052600  0.039800  0.398100  1.0
  C  C1101  1  0.447400  0.539800  0.898100  1.0
  C  C1102  1  0.447400  0.460200  0.601900  1.0
  C  C1103  1  0.947400  0.039800  0.898100  1.0
  C  C1104  1  0.947400  0.960200  0.601900  1.0
  C  C1105  1  0.505300  0.505600  0.113900  1.0
  C  C1106  1  0.505300  0.494400  0.386100  1.0
  C  C1107  1  0.005300  0.005600  0.113900  1.0
  C  C1108  1  0.005300  0.994400  0.386100  1.0
  C  C1109  1  0.494700  0.494400  0.886100  1.0
  C  C1110  1  0.494700  0.505600  0.613900  1.0
  C  C1111  1  0.994700  0.994400  0.886100  1.0
  C  C1112  1  0.994700  0.005600  0.613900  1.0
  C  C1113  1  0.451100  0.500800  0.083400  1.0
  C  C1114  1  0.451100  0.499200  0.416600  1.0
  C  C1115  1  0.951100  0.000800  0.083400  1.0
  C  C1116  1  0.951100  0.999200  0.416600  1.0
  C  C1117  1  0.548900  0.499200  0.916600  1.0
  C  C1118  1  0.548900  0.500800  0.583400  1.0
  C  C1119  1  0.048900  0.999200  0.916600  1.0
  C  C1120  1  0.048900  0.000800  0.583400  1.0
  C  C1121  1  0.449300  0.448800  0.040700  1.0
  C  C1122  1  0.449300  0.551200  0.459300  1.0
  C  C1123  1  0.949300  0.948800  0.040700  1.0
  C  C1124  1  0.949300  0.051200  0.459300  1.0
  C  C1125  1  0.550700  0.551200  0.959300  1.0
  C  C1126  1  0.550700  0.448800  0.540700  1.0
  C  C1127  1  0.050700  0.051200  0.959300  1.0
  C  C1128  1  0.050700  0.948800  0.540700  1.0
  C  C1129  1  0.498000  0.405300  0.030240  1.0
  C  C1130  1  0.498000  0.594700  0.469760  1.0
  C  C1131  1  0.998000  0.905300  0.030240  1.0
  C  C1132  1  0.998000  0.094700  0.469760  1.0
  C  C1133  1  0.502000  0.594700  0.969760  1.0
  C  C1134  1  0.502000  0.405300  0.530240  1.0
  C  C1135  1  0.002000  0.094700  0.969760  1.0
  C  C1136  1  0.002000  0.905300  0.530240  1.0
  C  C1137  1  0.498700  0.348700  0.985840  1.0
  C  C1138  1  0.498700  0.651300  0.514160  1.0
  C  C1139  1  0.998700  0.848700  0.985840  1.0
  C  C1140  1  0.998700  0.151300  0.514160  1.0
  C  C1141  1  0.501300  0.651300  0.014160  1.0
  C  C1142  1  0.501300  0.348700  0.485840  1.0
  C  C1143  1  0.001300  0.151300  0.014160  1.0
  C  C1144  1  0.001300  0.848700  0.485840  1.0
  C  C1145  1  0.452000  0.334700  0.948100  1.0
  C  C1146  1  0.452000  0.665300  0.551900  1.0
  C  C1147  1  0.952000  0.834700  0.948100  1.0
  C  C1148  1  0.952000  0.165300  0.551900  1.0
  C  C1149  1  0.548000  0.665300  0.051900  1.0
  C  C1150  1  0.548000  0.334700  0.448100  1.0
  C  C1151  1  0.048000  0.165300  0.051900  1.0
  C  C1152  1  0.048000  0.834700  0.448100  1.0
  C  C1153  1  0.455400  0.282500  0.907600  1.0
  C  C1154  1  0.455400  0.717500  0.592400  1.0
  C  C1155  1  0.955400  0.782500  0.907600  1.0
  C  C1156  1  0.955400  0.217500  0.592400  1.0
  C  C1157  1  0.544600  0.717500  0.092400  1.0
  C  C1158  1  0.544600  0.282500  0.407600  1.0
  C  C1159  1  0.044600  0.217500  0.092400  1.0
  C  C1160  1  0.044600  0.782500  0.407600  1.0
  C  C1161  1  0.508300  0.245200  0.905900  1.0
  C  C1162  1  0.508300  0.754800  0.594100  1.0
  C  C1163  1  0.008300  0.745200  0.905900  1.0
  C  C1164  1  0.008300  0.254800  0.594100  1.0
  C  C1165  1  0.491700  0.754800  0.094100  1.0
  C  C1166  1  0.491700  0.245200  0.405900  1.0
  C  C1167  1  0.991700  0.254800  0.094100  1.0
  C  C1168  1  0.991700  0.745200  0.405900  1.0
  C  C1169  1  0.553400  0.259600  0.943900  1.0
  C  C1170  1  0.553400  0.740400  0.556100  1.0
  C  C1171  1  0.053400  0.759600  0.943900  1.0
  C  C1172  1  0.053400  0.240400  0.556100  1.0
  C  C1173  1  0.446600  0.740400  0.056100  1.0
  C  C1174  1  0.446600  0.259600  0.443900  1.0
  C  C1175  1  0.946600  0.240400  0.056100  1.0
  C  C1176  1  0.946600  0.759600  0.443900  1.0
  C  C1177  1  0.500500  0.147700  0.982400  1.0
  C  C1178  1  0.500500  0.852300  0.517600  1.0
  C  C1179  1  0.000500  0.647700  0.982400  1.0
  C  C1180  1  0.000500  0.352300  0.517600  1.0
  C  C1181  1  0.499500  0.852300  0.017600  1.0
  C  C1182  1  0.499500  0.147700  0.482400  1.0
  C  C1183  1  0.999500  0.352300  0.017600  1.0
  C  C1184  1  0.999500  0.647700  0.482400  1.0
  C  C1185  1  0.465100  0.042400  0.095600  1.0
  C  C1186  1  0.465100  0.957600  0.404400  1.0
  C  C1187  1  0.965100  0.542400  0.095600  1.0
  C  C1188  1  0.965100  0.457600  0.404400  1.0
  C  C1189  1  0.534900  0.957600  0.904400  1.0
  C  C1190  1  0.534900  0.042400  0.595600  1.0
  C  C1191  1  0.034900  0.457600  0.904400  1.0
  C  C1192  1  0.034900  0.542400  0.595600  1.0
  C  C1193  1  0.755200  0.984600  0.927800  1.0
  C  C1194  1  0.755200  0.015400  0.572200  1.0
  C  C1195  1  0.255200  0.484600  0.927800  1.0
  C  C1196  1  0.255200  0.515400  0.572200  1.0
  C  C1197  1  0.244800  0.015400  0.072200  1.0
  C  C1198  1  0.244800  0.984600  0.427800  1.0
  C  C1199  1  0.744800  0.515400  0.072200  1.0
  C  C1200  1  0.744800  0.484600  0.427800  1.0
  C  C1201  1  0.674400  0.930600  0.066100  1.0
  C  C1202  1  0.674400  0.069400  0.433900  1.0
  C  C1203  1  0.174400  0.430600  0.066100  1.0
  C  C1204  1  0.174400  0.569400  0.433900  1.0
  C  C1205  1  0.325600  0.069400  0.933900  1.0
  C  C1206  1  0.325600  0.930600  0.566100  1.0
  C  C1207  1  0.825600  0.569400  0.933900  1.0
  C  C1208  1  0.825600  0.430600  0.566100  1.0
  C  C1209  1  0.776400  0.229100  0.101100  1.0
  C  C1210  1  0.776400  0.770900  0.398900  1.0
  C  C1211  1  0.276400  0.729100  0.101100  1.0
  C  C1212  1  0.276400  0.270900  0.398900  1.0
  C  C1213  1  0.223600  0.770900  0.898900  1.0
  C  C1214  1  0.223600  0.229100  0.601100  1.0
  C  C1215  1  0.723600  0.270900  0.898900  1.0
  C  C1216  1  0.723600  0.729100  0.601100  1.0
  C  C1217  1  0.664100  0.120500  0.193900  1.0
  C  C1218  1  0.664100  0.879500  0.306100  1.0
  C  C1219  1  0.164100  0.620500  0.193900  1.0
  C  C1220  1  0.164100  0.379500  0.306100  1.0
  C  C1221  1  0.335900  0.879500  0.806100  1.0
  C  C1222  1  0.335900  0.120500  0.693900  1.0
  C  C1223  1  0.835900  0.379500  0.806100  1.0
  C  C1224  1  0.835900  0.620500  0.693900  1.0
  C  C1225  1  0.395700  0.264700  0.180500  1.0
  C  C1226  1  0.395700  0.735300  0.319500  1.0
  C  C1227  1  0.895700  0.764700  0.180500  1.0
  C  C1228  1  0.895700  0.235300  0.319500  1.0
  C  C1229  1  0.604300  0.735300  0.819500  1.0
  C  C1230  1  0.604300  0.264700  0.680500  1.0
  C  C1231  1  0.104300  0.235300  0.819500  1.0
  C  C1232  1  0.104300  0.764700  0.680500  1.0
  C  C1233  1  0.739200  0.392500  0.257900  1.0
  C  C1234  1  0.739200  0.607500  0.242100  1.0
  C  C1235  1  0.239200  0.892500  0.257900  1.0
  C  C1236  1  0.239200  0.107500  0.242100  1.0
  C  C1237  1  0.260800  0.607500  0.742100  1.0
  C  C1238  1  0.260800  0.392500  0.757900  1.0
  C  C1239  1  0.760800  0.107500  0.742100  1.0
  C  C1240  1  0.760800  0.892500  0.757900  1.0
  C  C1241  1  0.394700  0.547400  0.096100  1.0
  C  C1242  1  0.394700  0.452600  0.403900  1.0
  C  C1243  1  0.894700  0.047400  0.096100  1.0
  C  C1244  1  0.894700  0.952600  0.403900  1.0
  C  C1245  1  0.605300  0.452600  0.903900  1.0
  C  C1246  1  0.605300  0.547400  0.596100  1.0
  C  C1247  1  0.105300  0.952600  0.903900  1.0
  C  C1248  1  0.105300  0.047400  0.596100  1.0
  C  C1249  1  0.403300  0.266100  0.866000  1.0
  C  C1250  1  0.403300  0.733900  0.634000  1.0
  C  C1251  1  0.903300  0.766100  0.866000  1.0
  C  C1252  1  0.903300  0.233900  0.634000  1.0
  C  C1253  1  0.596700  0.733900  0.134000  1.0
  C  C1254  1  0.596700  0.266100  0.366000  1.0
  C  C1255  1  0.096700  0.233900  0.134000  1.0
  C  C1256  1  0.096700  0.766100  0.366000  1.0
  C  C1257  1  0.371600  0.556600  0.050400  1.0
  C  C1258  1  0.371600  0.443400  0.449600  1.0
  C  C1259  1  0.871600  0.056600  0.050400  1.0
  C  C1260  1  0.871600  0.943400  0.449600  1.0
  C  C1261  1  0.628400  0.443400  0.949600  1.0
  C  C1262  1  0.628400  0.556600  0.550400  1.0
  C  C1263  1  0.128400  0.943400  0.949600  1.0
  C  C1264  1  0.128400  0.056600  0.550400  1.0
  C  C1265  1  0.421900  0.609600  0.127800  1.0
  C  C1266  1  0.421900  0.390400  0.372200  1.0
  C  C1267  1  0.921900  0.109600  0.127800  1.0
  C  C1268  1  0.921900  0.890400  0.372200  1.0
  C  C1269  1  0.578100  0.390400  0.872200  1.0
  C  C1270  1  0.578100  0.609600  0.627800  1.0
  C  C1271  1  0.078100  0.890400  0.872200  1.0
  C  C1272  1  0.078100  0.109600  0.627800  1.0
  C  C1273  1  0.335500  0.522000  0.113600  1.0
  C  C1274  1  0.335500  0.478000  0.386400  1.0
  C  C1275  1  0.835500  0.022000  0.113600  1.0
  C  C1276  1  0.835500  0.978000  0.386400  1.0
  C  C1277  1  0.664500  0.478000  0.886400  1.0
  C  C1278  1  0.664500  0.522000  0.613600  1.0
  C  C1279  1  0.164500  0.978000  0.886400  1.0
  C  C1280  1  0.164500  0.022000  0.613600  1.0
  C  C1281  1  0.371900  0.205800  0.858900  1.0
  C  C1282  1  0.371900  0.794200  0.641100  1.0
  C  C1283  1  0.871900  0.705800  0.858900  1.0
  C  C1284  1  0.871900  0.294200  0.641100  1.0
  C  C1285  1  0.628100  0.794200  0.141100  1.0
  C  C1286  1  0.628100  0.205800  0.358900  1.0
  C  C1287  1  0.128100  0.294200  0.141100  1.0
  C  C1288  1  0.128100  0.705800  0.358900  1.0
  C  C1289  1  0.442400  0.259800  0.820000  1.0
  C  C1290  1  0.442400  0.740200  0.680000  1.0
  C  C1291  1  0.942400  0.759800  0.820000  1.0
  C  C1292  1  0.942400  0.240200  0.680000  1.0
  C  C1293  1  0.557600  0.740200  0.180000  1.0
  C  C1294  1  0.557600  0.259800  0.320000  1.0
  C  C1295  1  0.057600  0.240200  0.180000  1.0
  C  C1296  1  0.057600  0.759800  0.320000  1.0
  C  C1297  1  0.346400  0.309600  0.877000  1.0
  C  C1298  1  0.346400  0.690400  0.623000  1.0
  C  C1299  1  0.846400  0.809600  0.877000  1.0
  C  C1300  1  0.846400  0.190400  0.623000  1.0
  C  C1301  1  0.653600  0.690400  0.123000  1.0
  C  C1302  1  0.653600  0.309600  0.377000  1.0
  C  C1303  1  0.153600  0.190400  0.123000  1.0
  C  C1304  1  0.153600  0.809600  0.377000  1.0
  C  C1305  1  0.734800  0.343400  0.271900  1.0
  C  C1306  1  0.734800  0.656600  0.228100  1.0
  C  C1307  1  0.234800  0.843400  0.271900  1.0
  C  C1308  1  0.234800  0.156600  0.228100  1.0
  C  C1309  1  0.265200  0.656600  0.728100  1.0
  C  C1310  1  0.265200  0.343400  0.771900  1.0
  C  C1311  1  0.765200  0.156600  0.728100  1.0
  C  C1312  1  0.765200  0.843400  0.771900  1.0
  C  C1313  1  0.805800  0.425500  0.270700  1.0
  C  C1314  1  0.805800  0.574500  0.229300  1.0
  C  C1315  1  0.305800  0.925500  0.270700  1.0
  C  C1316  1  0.305800  0.074500  0.229300  1.0
  C  C1317  1  0.194200  0.574500  0.729300  1.0
  C  C1318  1  0.194200  0.425500  0.770700  1.0
  C  C1319  1  0.694200  0.074500  0.729300  1.0
  C  C1320  1  0.694200  0.925500  0.770700  1.0
  C  C1321  1  0.687500  0.443700  0.295900  1.0
  C  C1322  1  0.687500  0.556300  0.204100  1.0
  C  C1323  1  0.187500  0.943700  0.295900  1.0
  C  C1324  1  0.187500  0.056300  0.204100  1.0
  C  C1325  1  0.312500  0.556300  0.704100  1.0
  C  C1326  1  0.312500  0.443700  0.795900  1.0
  C  C1327  1  0.812500  0.056300  0.704100  1.0
  C  C1328  1  0.812500  0.943700  0.795900  1.0
  C  C1329  1  0.361600  0.205900  0.149900  1.0
  C  C1330  1  0.361600  0.794100  0.350100  1.0
  C  C1331  1  0.861600  0.705900  0.149900  1.0
  C  C1332  1  0.861600  0.294100  0.350100  1.0
  C  C1333  1  0.638400  0.794100  0.850100  1.0
  C  C1334  1  0.638400  0.205900  0.649900  1.0
  C  C1335  1  0.138400  0.294100  0.850100  1.0
  C  C1336  1  0.138400  0.705900  0.649900  1.0
  C  C1337  1  0.420200  0.272900  0.228800  1.0
  C  C1338  1  0.420200  0.727100  0.271200  1.0
  C  C1339  1  0.920200  0.772900  0.228800  1.0
  C  C1340  1  0.920200  0.227100  0.271200  1.0
  C  C1341  1  0.579800  0.727100  0.771200  1.0
  C  C1342  1  0.579800  0.272900  0.728800  1.0
  C  C1343  1  0.079800  0.227100  0.771200  1.0
  C  C1344  1  0.079800  0.772900  0.728800  1.0
  C  C1345  1  0.337500  0.313700  0.191400  1.0
  C  C1346  1  0.337500  0.686300  0.308600  1.0
  C  C1347  1  0.837500  0.813700  0.191400  1.0
  C  C1348  1  0.837500  0.186300  0.308600  1.0
  C  C1349  1  0.662500  0.686300  0.808600  1.0
  C  C1350  1  0.662500  0.313700  0.691400  1.0
  C  C1351  1  0.162500  0.186300  0.808600  1.0
  C  C1352  1  0.162500  0.813700  0.691400  1.0
  N  N1353  1  0.690100  0.361370  0.019850  1.0
  N  N1354  1  0.690100  0.638630  0.480150  1.0
  N  N1355  1  0.190100  0.861370  0.019850  1.0
  N  N1356  1  0.190100  0.138630  0.480150  1.0
  N  N1357  1  0.309900  0.638630  0.980150  1.0
  N  N1358  1  0.309900  0.361370  0.519850  1.0
  N  N1359  1  0.809900  0.138630  0.980150  1.0
  N  N1360  1  0.809900  0.861370  0.519850  1.0
  N  N1361  1  0.643000  0.244900  0.026990  1.0
  N  N1362  1  0.643000  0.755100  0.473010  1.0
  N  N1363  1  0.143000  0.744900  0.026990  1.0
  N  N1364  1  0.143000  0.255100  0.473010  1.0
  N  N1365  1  0.357000  0.755100  0.973010  1.0
  N  N1366  1  0.357000  0.244900  0.526990  1.0
  N  N1367  1  0.857000  0.255100  0.973010  1.0
  N  N1368  1  0.857000  0.744900  0.526990  1.0
  N  N1369  1  0.633800  0.079800  0.906000  1.0
  N  N1370  1  0.633800  0.920200  0.594000  1.0
  N  N1371  1  0.133800  0.579800  0.906000  1.0
  N  N1372  1  0.133800  0.420200  0.594000  1.0
  N  N1373  1  0.366200  0.920200  0.094000  1.0
  N  N1374  1  0.366200  0.079800  0.406000  1.0
  N  N1375  1  0.866200  0.420200  0.094000  1.0
  N  N1376  1  0.866200  0.579800  0.406000  1.0
  N  N1377  1  0.573300  0.105860  0.029690  1.0
  N  N1378  1  0.573300  0.894140  0.470310  1.0
  N  N1379  1  0.073300  0.605860  0.029690  1.0
  N  N1380  1  0.073300  0.394140  0.470310  1.0
  N  N1381  1  0.426700  0.894140  0.970310  1.0
  N  N1382  1  0.426700  0.105860  0.529690  1.0
  N  N1383  1  0.926700  0.394140  0.970310  1.0
  N  N1384  1  0.926700  0.605860  0.529690  1.0
  N  N1385  1  0.562500  0.077400  0.059860  1.0
  N  N1386  1  0.562500  0.922600  0.440140  1.0
  N  N1387  1  0.062500  0.577400  0.059860  1.0
  N  N1388  1  0.062500  0.422600  0.440140  1.0
  N  N1389  1  0.437500  0.922600  0.940140  1.0
  N  N1390  1  0.437500  0.077400  0.559860  1.0
  N  N1391  1  0.937500  0.422600  0.940140  1.0
  N  N1392  1  0.937500  0.577400  0.559860  1.0
  N  N1393  1  0.689000  0.032530  0.004810  1.0
  N  N1394  1  0.689000  0.967470  0.495190  1.0
  N  N1395  1  0.189000  0.532530  0.004810  1.0
  N  N1396  1  0.189000  0.467470  0.495190  1.0
  N  N1397  1  0.311000  0.967470  0.995190  1.0
  N  N1398  1  0.311000  0.032530  0.504810  1.0
  N  N1399  1  0.811000  0.467470  0.995190  1.0
  N  N1400  1  0.811000  0.532530  0.504810  1.0
  N  N1401  1  0.667000  0.016160  0.041010  1.0
  N  N1402  1  0.667000  0.983840  0.458990  1.0
  N  N1403  1  0.167000  0.516160  0.041010  1.0
  N  N1404  1  0.167000  0.483840  0.458990  1.0
  N  N1405  1  0.333000  0.983840  0.958990  1.0
  N  N1406  1  0.333000  0.016160  0.541010  1.0
  N  N1407  1  0.833000  0.483840  0.958990  1.0
  N  N1408  1  0.833000  0.516160  0.541010  1.0
  N  N1409  1  0.695800  0.144480  0.083500  1.0
  N  N1410  1  0.695800  0.855520  0.416500  1.0
  N  N1411  1  0.195800  0.644480  0.083500  1.0
  N  N1412  1  0.195800  0.355520  0.416500  1.0
  N  N1413  1  0.304200  0.855520  0.916500  1.0
  N  N1414  1  0.304200  0.144480  0.583500  1.0
  N  N1415  1  0.804200  0.355520  0.916500  1.0
  N  N1416  1  0.804200  0.644480  0.583500  1.0
  N  N1417  1  0.666500  0.115600  0.109370  1.0
  N  N1418  1  0.666500  0.884400  0.390630  1.0
  N  N1419  1  0.166500  0.615600  0.109370  1.0
  N  N1420  1  0.166500  0.384400  0.390630  1.0
  N  N1421  1  0.333500  0.884400  0.890630  1.0
  N  N1422  1  0.333500  0.115600  0.609370  1.0
  N  N1423  1  0.833500  0.384400  0.890630  1.0
  N  N1424  1  0.833500  0.615600  0.609370  1.0
  N  N1425  1  0.531400  0.313000  0.089610  1.0
  N  N1426  1  0.531400  0.687000  0.410390  1.0
  N  N1427  1  0.031400  0.813000  0.089610  1.0
  N  N1428  1  0.031400  0.187000  0.410390  1.0
  N  N1429  1  0.468600  0.687000  0.910390  1.0
  N  N1430  1  0.468600  0.313000  0.589610  1.0
  N  N1431  1  0.968600  0.187000  0.910390  1.0
  N  N1432  1  0.968600  0.813000  0.589610  1.0
  N  N1433  1  0.654100  0.357390  0.116730  1.0
  N  N1434  1  0.654100  0.642610  0.383270  1.0
  N  N1435  1  0.154100  0.857390  0.116730  1.0
  N  N1436  1  0.154100  0.142610  0.383270  1.0
  N  N1437  1  0.345900  0.642610  0.883270  1.0
  N  N1438  1  0.345900  0.357390  0.616730  1.0
  N  N1439  1  0.845900  0.142610  0.883270  1.0
  N  N1440  1  0.845900  0.857390  0.616730  1.0
  N  N1441  1  0.550000  0.410500  0.061330  1.0
  N  N1442  1  0.550000  0.589500  0.438670  1.0
  N  N1443  1  0.050000  0.910500  0.061330  1.0
  N  N1444  1  0.050000  0.089500  0.438670  1.0
  N  N1445  1  0.450000  0.589500  0.938670  1.0
  N  N1446  1  0.450000  0.410500  0.561330  1.0
  N  N1447  1  0.950000  0.089500  0.938670  1.0
  N  N1448  1  0.950000  0.910500  0.561330  1.0
  N  N1449  1  0.548700  0.310080  0.983950  1.0
  N  N1450  1  0.548700  0.689920  0.516050  1.0
  N  N1451  1  0.048700  0.810080  0.983950  1.0
  N  N1452  1  0.048700  0.189920  0.516050  1.0
  N  N1453  1  0.451300  0.689920  0.016050  1.0
  N  N1454  1  0.451300  0.310080  0.483950  1.0
  N  N1455  1  0.951300  0.189920  0.016050  1.0
  N  N1456  1  0.951300  0.810080  0.483950  1.0
  O  O1457  1  0.946800  0.422100  0.175400  1
  O  O1458  1  0.946800  0.577900  0.324600  1
  O  O1459  1  0.446800  0.922100  0.175400  1
  O  O1460  1  0.446800  0.077900  0.324600  1
  O  O1461  1  0.053200  0.577900  0.824600  1
  O  O1462  1  0.053200  0.422100  0.675400  1
  O  O1463  1  0.553200  0.077900  0.824600  1
  O  O1464  1  0.553200  0.922100  0.675400  1
  F  F1465  1  0.073800  0.997500  0.773600  1
  F  F1466  1  0.073800  0.002500  0.726400  1
  F  F1467  1  0.573800  0.497500  0.773600  1
  F  F1468  1  0.573800  0.502500  0.726400  1
  F  F1469  1  0.926200  0.002500  0.226400  1
  F  F1470  1  0.926200  0.997500  0.273600  1
  F  F1471  1  0.426200  0.502500  0.226400  1
  F  F1472  1  0.426200  0.497500  0.273600  1
  F  F1473  1  0.974200  0.943900  0.762400  1
  F  F1474  1  0.974200  0.056100  0.737600  1
  F  F1475  1  0.474200  0.443900  0.762400  1
  F  F1476  1  0.474200  0.556100  0.737600  1
  F  F1477  1  0.025800  0.056100  0.237600  1
  F  F1478  1  0.025800  0.943900  0.262400  1
  F  F1479  1  0.525800  0.556100  0.237600  1
  F  F1480  1  0.525800  0.443900  0.262400  1
  F  F1481  1  0.963500  0.039500  0.796300  1
  F  F1482  1  0.963500  0.960500  0.703700  1
  F  F1483  1  0.463500  0.539500  0.796300  1
  F  F1484  1  0.463500  0.460500  0.703700  1
  F  F1485  1  0.036500  0.960500  0.203700  1
  F  F1486  1  0.036500  0.039500  0.296300  1
  F  F1487  1  0.536500  0.460500  0.203700  1
  F  F1488  1  0.536500  0.539500  0.296300  1
  F  F1489  1  0.210300  0.197400  0.006300  1
  F  F1490  1  0.210300  0.802600  0.493700  1
  F  F1491  1  0.710300  0.697400  0.006300  1
  F  F1492  1  0.710300  0.302600  0.493700  1
  F  F1493  1  0.789700  0.802600  0.993700  1
  F  F1494  1  0.789700  0.197400  0.506300  1
  F  F1495  1  0.289700  0.302600  0.993700  1
  F  F1496  1  0.289700  0.697400  0.506300  1
  F  F1497  1  0.256400  0.210800  0.944600  1
  F  F1498  1  0.256400  0.789200  0.555400  1
  F  F1499  1  0.756400  0.710800  0.944600  1
  F  F1500  1  0.756400  0.289200  0.555400  1
  F  F1501  1  0.743600  0.789200  0.055400  1
  F  F1502  1  0.743600  0.210800  0.444600  1
  F  F1503  1  0.243600  0.289200  0.055400  1
  F  F1504  1  0.243600  0.710800  0.444600  1
  F  F1505  1  0.180900  0.279000  0.003400  1
  F  F1506  1  0.180900  0.721000  0.496600  1
  F  F1507  1  0.680900  0.779000  0.003400  1
  F  F1508  1  0.680900  0.221000  0.496600  1
  F  F1509  1  0.819100  0.721000  0.996600  1
  F  F1510  1  0.819100  0.279000  0.503400  1
  F  F1511  1  0.319100  0.221000  0.996600  1
  F  F1512  1  0.319100  0.779000  0.503400  1
  F  F1513  1  0.222200  0.195700  0.955100  1.0
  F  F1514  1  0.222200  0.804300  0.544900  1.0
  F  F1515  1  0.722200  0.695700  0.955100  1.0
  F  F1516  1  0.722200  0.304300  0.544900  1.0
  F  F1517  1  0.777800  0.804300  0.044900  1.0
  F  F1518  1  0.777800  0.195700  0.455100  1.0
  F  F1519  1  0.277800  0.304300  0.044900  1.0
  F  F1520  1  0.277800  0.695700  0.455100  1.0
  F  F1521  1  0.331100  0.242900  0.983500  1.0
  F  F1522  1  0.331100  0.757100  0.516500  1.0
  F  F1523  1  0.831100  0.742900  0.983500  1.0
  F  F1524  1  0.831100  0.257100  0.516500  1.0
  F  F1525  1  0.668900  0.757100  0.016500  1.0
  F  F1526  1  0.668900  0.242900  0.483500  1.0
  F  F1527  1  0.168900  0.257100  0.016500  1.0
  F  F1528  1  0.168900  0.742900  0.483500  1.0
  F  F1529  1  0.236000  0.287000  0.970200  1.0
  F  F1530  1  0.236000  0.713000  0.529800  1.0
  F  F1531  1  0.736000  0.787000  0.970200  1.0
  F  F1532  1  0.736000  0.213000  0.529800  1.0
  F  F1533  1  0.764000  0.713000  0.029800  1.0
  F  F1534  1  0.764000  0.287000  0.470200  1.0
  F  F1535  1  0.264000  0.213000  0.029800  1.0
  F  F1536  1  0.264000  0.787000  0.470200  1.0
  F  F1537  1  0.043800  0.041100  0.796400  1.0
  F  F1538  1  0.043800  0.958900  0.703600  1.0
  F  F1539  1  0.543800  0.541100  0.796400  1.0
  F  F1540  1  0.543800  0.458900  0.703600  1.0
  F  F1541  1  0.956200  0.958900  0.203600  1.0
  F  F1542  1  0.956200  0.041100  0.296400  1.0
  F  F1543  1  0.456200  0.458900  0.203600  1.0
  F  F1544  1  0.456200  0.541100  0.296400  1.0
  F  F1545  1  0.014200  0.945600  0.761600  1.0
  F  F1546  1  0.014200  0.054400  0.738400  1.0
  F  F1547  1  0.514200  0.445600  0.761600  1.0
  F  F1548  1  0.514200  0.554400  0.738400  1.0
  F  F1549  1  0.985800  0.054400  0.238400  1.0
  F  F1550  1  0.985800  0.945600  0.261600  1.0
  F  F1551  1  0.485800  0.554400  0.238400  1.0
  F  F1552  1  0.485800  0.445600  0.261600  1.0
  F  F1553  1  0.927500  0.018200  0.784200  1.0
  F  F1554  1  0.927500  0.981800  0.715800  1.0
  F  F1555  1  0.427500  0.518200  0.784200  1.0
  F  F1556  1  0.427500  0.481800  0.715800  1.0
  F  F1557  1  0.072500  0.981800  0.215800  1.0
  F  F1558  1  0.072500  0.018200  0.284200  1.0
  F  F1559  1  0.572500  0.481800  0.215800  1.0
  F  F1560  1  0.572500  0.518200  0.284200  1.0
