# generated using pymatgen
data_FeCoBPH92C61N13OF9
_symmetry_space_group_name_H-M   'P 1'
_cell_length_a   18.62600000
_cell_length_b   24.68200000
_cell_length_c   29.15000000
_cell_angle_alpha   113.26600000
_cell_angle_beta   90.00000000
_cell_angle_gamma   90.00000000
_symmetry_Int_Tables_number   1
_chemical_formula_structural   FeCoBPH92C61N13OF9
_chemical_formula_sum   'Fe8 Co8 B8 P8 H736 C488 N104 O8 F72'
_cell_volume   12311.28010048
_cell_formula_units_Z   8
loop_
 _symmetry_equiv_pos_site_id
 _symmetry_equiv_pos_as_xyz
  1  'x, y, z'
loop_
 _atom_site_type_symbol
 _atom_site_label
 _atom_site_symmetry_multiplicity
 _atom_site_fract_x
 _atom_site_fract_y
 _atom_site_fract_z
 _atom_site_occupancy
  Fe  Fe1  1  0.428370  0.643980  0.015570  1.0
  Fe  Fe2  1  0.428370  0.356020  0.484430  1.0
  Fe  Fe3  1  0.928370  0.143980  0.015570  1.0
  Fe  Fe4  1  0.928370  0.856020  0.484430  1.0
  Fe  Fe5  1  0.571630  0.356020  0.984430  1.0
  Fe  Fe6  1  0.571630  0.643980  0.515570  1.0
  Fe  Fe7  1  0.071630  0.856020  0.984430  1.0
  Fe  Fe8  1  0.071630  0.143980  0.515570  1.0
  Co  Co9  1  0.355170  0.473590  0.050820  1.0
  Co  Co10  1  0.355170  0.526410  0.449180  1.0
  Co  Co11  1  0.855170  0.973590  0.050820  1.0
  Co  Co12  1  0.855170  0.026410  0.449180  1.0
  Co  Co13  1  0.644830  0.526410  0.949180  1.0
  Co  Co14  1  0.644830  0.473590  0.550820  1.0
  Co  Co15  1  0.144830  0.026410  0.949180  1.0
  Co  Co16  1  0.144830  0.973590  0.550820  1.0
  B  B17  1  0.382800  0.771600  0.085100  1.0
  B  B18  1  0.382800  0.228400  0.414900  1.0
  B  B19  1  0.882800  0.271600  0.085100  1.0
  B  B20  1  0.882800  0.728400  0.414900  1.0
  B  B21  1  0.617200  0.228400  0.914900  1.0
  B  B22  1  0.617200  0.771600  0.585100  1.0
  B  B23  1  0.117200  0.728400  0.914900  1.0
  B  B24  1  0.117200  0.271600  0.585100  1.0
  P  P25  1  0.000000  0.500000  0.000000  1
  P  P26  1  0.000000  0.500000  0.500000  1
  P  P27  1  0.500000  0.000000  1.000000  1
  P  P28  1  0.500000  0.000000  0.500000  1
  P  P29  1  0.269500  0.500000  0.250000  1
  P  P30  1  0.769500  0.000000  0.250000  1
  P  P31  1  0.730500  0.500000  0.750000  1
  P  P32  1  0.230500  1.000000  0.750000  1
  H  H33  1  0.216500  0.493200  0.795300  1
  H  H34  1  0.216500  0.506800  0.704700  1
  H  H35  1  0.716500  0.993200  0.795300  1
  H  H36  1  0.716500  0.006800  0.704700  1
  H  H37  1  0.783500  0.506800  0.204700  1
  H  H38  1  0.783500  0.493200  0.295300  1
  H  H39  1  0.283500  0.006800  0.204700  1
  H  H40  1  0.283500  0.993200  0.295300  1
  H  H41  1  0.268400  0.547800  0.803100  1
  H  H42  1  0.268400  0.452200  0.696900  1
  H  H43  1  0.768400  0.047800  0.803100  1
  H  H44  1  0.768400  0.952200  0.696900  1
  H  H45  1  0.731600  0.452200  0.196900  1
  H  H46  1  0.731600  0.547800  0.303100  1
  H  H47  1  0.231600  0.952200  0.196900  1
  H  H48  1  0.231600  0.047800  0.303100  1
  H  H49  1  0.222700  0.546300  0.849000  1
  H  H50  1  0.222700  0.453700  0.651000  1
  H  H51  1  0.722700  0.046300  0.849000  1
  H  H52  1  0.722700  0.953700  0.651000  1
  H  H53  1  0.777300  0.453700  0.151000  1
  H  H54  1  0.777300  0.546300  0.349000  1
  H  H55  1  0.277300  0.953700  0.151000  1
  H  H56  1  0.277300  0.046300  0.349000  1
  H  H57  1  0.325200  0.515200  0.858300  1
  H  H58  1  0.325200  0.484800  0.641700  1
  H  H59  1  0.825200  0.015200  0.858300  1
  H  H60  1  0.825200  0.984800  0.641700  1
  H  H61  1  0.674800  0.484800  0.141700  1
  H  H62  1  0.674800  0.515200  0.358300  1
  H  H63  1  0.174800  0.984800  0.141700  1
  H  H64  1  0.174800  0.015200  0.358300  1
  H  H65  1  0.198300  0.733300  0.158200  1
  H  H66  1  0.198300  0.266700  0.341800  1
  H  H67  1  0.698300  0.233300  0.158200  1
  H  H68  1  0.698300  0.766700  0.341800  1
  H  H69  1  0.801700  0.266700  0.841800  1
  H  H70  1  0.801700  0.733300  0.658200  1
  H  H71  1  0.301700  0.766700  0.841800  1
  H  H72  1  0.301700  0.233300  0.658200  1
  H  H73  1  0.231900  0.724700  0.205400  1
  H  H74  1  0.231900  0.275300  0.294600  1
  H  H75  1  0.731900  0.224700  0.205400  1
  H  H76  1  0.731900  0.775300  0.294600  1
  H  H77  1  0.768100  0.275300  0.794600  1
  H  H78  1  0.768100  0.724700  0.705400  1
  H  H79  1  0.268100  0.775300  0.794600  1
  H  H80  1  0.268100  0.224700  0.705400  1
  H  H81  1  0.160900  0.763500  0.211800  1
  H  H82  1  0.160900  0.236500  0.288200  1
  H  H83  1  0.660900  0.263500  0.211800  1
  H  H84  1  0.660900  0.736500  0.288200  1
  H  H85  1  0.839100  0.236500  0.788200  1
  H  H86  1  0.839100  0.763500  0.711800  1
  H  H87  1  0.339100  0.736500  0.788200  1
  H  H88  1  0.339100  0.263500  0.711800  1
  H  H89  1  0.162500  0.652900  0.237800  1
  H  H90  1  0.162500  0.347100  0.262200  1
  H  H91  1  0.662500  0.152900  0.237800  1
  H  H92  1  0.662500  0.847100  0.262200  1
  H  H93  1  0.837500  0.347100  0.762200  1
  H  H94  1  0.837500  0.652900  0.737800  1
  H  H95  1  0.337500  0.847100  0.762200  1
  H  H96  1  0.337500  0.152900  0.737800  1
  H  H97  1  0.080100  0.639600  0.221700  1
  H  H98  1  0.080100  0.360400  0.278300  1
  H  H99  1  0.580100  0.139600  0.221700  1
  H  H100  1  0.580100  0.860400  0.278300  1
  H  H101  1  0.919900  0.360400  0.778300  1
  H  H102  1  0.919900  0.639600  0.721700  1
  H  H103  1  0.419900  0.860400  0.778300  1
  H  H104  1  0.419900  0.139600  0.721700  1
  H  H105  1  0.107100  0.706200  0.249300  1
  H  H106  1  0.107100  0.293800  0.250700  1
  H  H107  1  0.607100  0.206200  0.249300  1
  H  H108  1  0.607100  0.793800  0.250700  1
  H  H109  1  0.892900  0.293800  0.750700  1
  H  H110  1  0.892900  0.706200  0.749300  1
  H  H111  1  0.392900  0.793800  0.750700  1
  H  H112  1  0.392900  0.206200  0.749300  1
  H  H113  1  0.090200  0.684200  0.120000  1
  H  H114  1  0.090200  0.315800  0.380000  1
  H  H115  1  0.590200  0.184200  0.120000  1
  H  H116  1  0.590200  0.815800  0.380000  1
  H  H117  1  0.909800  0.315800  0.880000  1
  H  H118  1  0.909800  0.684200  0.620000  1
  H  H119  1  0.409800  0.815800  0.880000  1
  H  H120  1  0.409800  0.184200  0.620000  1
  H  H121  1  0.051200  0.717800  0.172600  1
  H  H122  1  0.051200  0.282200  0.327400  1
  H  H123  1  0.551200  0.217800  0.172600  1
  H  H124  1  0.551200  0.782200  0.327400  1
  H  H125  1  0.948800  0.282200  0.827400  1
  H  H126  1  0.948800  0.717800  0.672600  1
  H  H127  1  0.448800  0.782200  0.827400  1
  H  H128  1  0.448800  0.217800  0.672600  1
  H  H129  1  0.039500  0.648500  0.142500  1
  H  H130  1  0.039500  0.351500  0.357500  1
  H  H131  1  0.539500  0.148500  0.142500  1
  H  H132  1  0.539500  0.851500  0.357500  1
  H  H133  1  0.960500  0.351500  0.857500  1
  H  H134  1  0.960500  0.648500  0.642500  1
  H  H135  1  0.460500  0.851500  0.857500  1
  H  H136  1  0.460500  0.148500  0.642500  1
  H  H137  1  0.504100  0.694500  0.316600  1
  H  H138  1  0.504100  0.305500  0.183400  1
  H  H139  1  0.004100  0.194500  0.316600  1
  H  H140  1  0.004100  0.805500  0.183400  1
  H  H141  1  0.495900  0.305500  0.683400  1
  H  H142  1  0.495900  0.694500  0.816600  1
  H  H143  1  0.995900  0.805500  0.683400  1
  H  H144  1  0.995900  0.194500  0.816600  1
  H  H145  1  0.429400  0.679400  0.287100  1
  H  H146  1  0.429400  0.320600  0.212900  1
  H  H147  1  0.929400  0.179400  0.287100  1
  H  H148  1  0.929400  0.820600  0.212900  1
  H  H149  1  0.570600  0.320600  0.712900  1
  H  H150  1  0.570600  0.679400  0.787100  1
  H  H151  1  0.070600  0.820600  0.712900  1
  H  H152  1  0.070600  0.179400  0.787100  1
  H  H153  1  0.495600  0.702900  0.265100  1
  H  H154  1  0.495600  0.297100  0.234900  1
  H  H155  1  0.995600  0.202900  0.265100  1
  H  H156  1  0.995600  0.797100  0.234900  1
  H  H157  1  0.504400  0.297100  0.734900  1
  H  H158  1  0.504400  0.702900  0.765100  1
  H  H159  1  0.004400  0.797100  0.734900  1
  H  H160  1  0.004400  0.202900  0.765100  1
  H  H161  1  0.476000  0.537900  0.273600  1
  H  H162  1  0.476000  0.462100  0.226400  1
  H  H163  1  0.976000  0.037900  0.273600  1
  H  H164  1  0.976000  0.962100  0.226400  1
  H  H165  1  0.524000  0.462100  0.726400  1
  H  H166  1  0.524000  0.537900  0.773600  1
  H  H167  1  0.024000  0.962100  0.726400  1
  H  H168  1  0.024000  0.037900  0.773600  1
  H  H169  1  0.418300  0.589900  0.295600  1
  H  H170  1  0.418300  0.410100  0.204400  1
  H  H171  1  0.918300  0.089900  0.295600  1
  H  H172  1  0.918300  0.910100  0.204400  1
  H  H173  1  0.581700  0.410100  0.704400  1
  H  H174  1  0.581700  0.589900  0.795600  1
  H  H175  1  0.081700  0.910100  0.704400  1
  H  H176  1  0.081700  0.089900  0.795600  1
  H  H177  1  0.493600  0.594600  0.323300  1
  H  H178  1  0.493600  0.405400  0.176700  1
  H  H179  1  0.993600  0.094600  0.323300  1
  H  H180  1  0.993600  0.905400  0.176700  1
  H  H181  1  0.506400  0.405400  0.676700  1
  H  H182  1  0.506400  0.594600  0.823300  1
  H  H183  1  0.006400  0.905400  0.676700  1
  H  H184  1  0.006400  0.094600  0.823300  1
  H  H185  1  0.603500  0.572100  0.238500  1
  H  H186  1  0.603500  0.427900  0.261500  1
  H  H187  1  0.103500  0.072100  0.238500  1
  H  H188  1  0.103500  0.927900  0.261500  1
  H  H189  1  0.396500  0.427900  0.761500  1
  H  H190  1  0.396500  0.572100  0.738500  1
  H  H191  1  0.896500  0.927900  0.761500  1
  H  H192  1  0.896500  0.072100  0.738500  1
  H  H193  1  0.589700  0.605400  0.297200  1
  H  H194  1  0.589700  0.394600  0.202800  1
  H  H195  1  0.089700  0.105400  0.297200  1
  H  H196  1  0.089700  0.894600  0.202800  1
  H  H197  1  0.410300  0.394600  0.702800  1
  H  H198  1  0.410300  0.605400  0.797200  1
  H  H199  1  0.910300  0.894600  0.702800  1
  H  H200  1  0.910300  0.105400  0.797200  1
  H  H201  1  0.612000  0.642300  0.265000  1
  H  H202  1  0.612000  0.357700  0.235000  1
  H  H203  1  0.112000  0.142300  0.265000  1
  H  H204  1  0.112000  0.857700  0.235000  1
  H  H205  1  0.388000  0.357700  0.735000  1
  H  H206  1  0.388000  0.642300  0.765000  1
  H  H207  1  0.888000  0.857700  0.735000  1
  H  H208  1  0.888000  0.142300  0.765000  1
  H  H209  1  0.368500  0.812700  0.107400  1.0
  H  H210  1  0.368500  0.187300  0.392600  1.0
  H  H211  1  0.868500  0.312700  0.107400  1.0
  H  H212  1  0.868500  0.687300  0.392600  1.0
  H  H213  1  0.631500  0.187300  0.892600  1.0
  H  H214  1  0.631500  0.812700  0.607400  1.0
  H  H215  1  0.131500  0.687300  0.892600  1.0
  H  H216  1  0.131500  0.312700  0.607400  1.0
  H  H217  1  0.510800  0.816200  0.969900  1.0
  H  H218  1  0.510800  0.183800  0.530100  1.0
  H  H219  1  0.010800  0.316200  0.969900  1.0
  H  H220  1  0.010800  0.683800  0.530100  1.0
  H  H221  1  0.489200  0.183800  0.030100  1.0
  H  H222  1  0.489200  0.816200  0.469900  1.0
  H  H223  1  0.989200  0.683800  0.030100  1.0
  H  H224  1  0.989200  0.316200  0.469900  1.0
  H  H225  1  0.158000  0.694300  0.034300  1.0
  H  H226  1  0.158000  0.305700  0.465700  1.0
  H  H227  1  0.658000  0.194300  0.034300  1.0
  H  H228  1  0.658000  0.805700  0.465700  1.0
  H  H229  1  0.842000  0.305700  0.965700  1.0
  H  H230  1  0.842000  0.694300  0.534300  1.0
  H  H231  1  0.342000  0.805700  0.965700  1.0
  H  H232  1  0.342000  0.194300  0.534300  1.0
  H  H233  1  0.514800  0.725900  0.197700  1.0
  H  H234  1  0.514800  0.274100  0.302300  1.0
  H  H235  1  0.014800  0.225900  0.197700  1.0
  H  H236  1  0.014800  0.774100  0.302300  1.0
  H  H237  1  0.485200  0.274100  0.802300  1.0
  H  H238  1  0.485200  0.725900  0.697700  1.0
  H  H239  1  0.985200  0.774100  0.802300  1.0
  H  H240  1  0.985200  0.225900  0.697700  1.0
  H  H241  1  0.349900  0.423600  0.130200  1.0
  H  H242  1  0.349900  0.576400  0.369800  1.0
  H  H243  1  0.849900  0.923600  0.130200  1.0
  H  H244  1  0.849900  0.076400  0.369800  1.0
  H  H245  1  0.650100  0.576400  0.869800  1.0
  H  H246  1  0.650100  0.423600  0.630200  1.0
  H  H247  1  0.150100  0.076400  0.869800  1.0
  H  H248  1  0.150100  0.923600  0.630200  1.0
  H  H249  1  0.278300  0.356900  0.146500  1.0
  H  H250  1  0.278300  0.643100  0.353500  1.0
  H  H251  1  0.778300  0.856900  0.146500  1.0
  H  H252  1  0.778300  0.143100  0.353500  1.0
  H  H253  1  0.721700  0.643100  0.853500  1.0
  H  H254  1  0.721700  0.356900  0.646500  1.0
  H  H255  1  0.221700  0.143100  0.853500  1.0
  H  H256  1  0.221700  0.856900  0.646500  1.0
  H  H257  1  0.168600  0.328700  0.019800  1.0
  H  H258  1  0.168600  0.671300  0.480200  1.0
  H  H259  1  0.668600  0.828700  0.019800  1.0
  H  H260  1  0.668600  0.171300  0.480200  1.0
  H  H261  1  0.831400  0.671300  0.980200  1.0
  H  H262  1  0.831400  0.328700  0.519800  1.0
  H  H263  1  0.331400  0.171300  0.980200  1.0
  H  H264  1  0.331400  0.828700  0.519800  1.0
  H  H265  1  0.170000  0.347700  0.949100  1.0
  H  H266  1  0.170000  0.652300  0.550900  1.0
  H  H267  1  0.670000  0.847700  0.949100  1.0
  H  H268  1  0.670000  0.152300  0.550900  1.0
  H  H269  1  0.830000  0.652300  0.050900  1.0
  H  H270  1  0.830000  0.347700  0.449100  1.0
  H  H271  1  0.330000  0.152300  0.050900  1.0
  H  H272  1  0.330000  0.847700  0.449100  1.0
  H  H273  1  0.273100  0.438500  0.880300  1.0
  H  H274  1  0.273100  0.561500  0.619700  1.0
  H  H275  1  0.773100  0.938500  0.880300  1.0
  H  H276  1  0.773100  0.061500  0.619700  1.0
  H  H277  1  0.726900  0.561500  0.119700  1.0
  H  H278  1  0.726900  0.438500  0.380300  1.0
  H  H279  1  0.226900  0.061500  0.119700  1.0
  H  H280  1  0.226900  0.938500  0.380300  1.0
  H  H281  1  0.345700  0.479800  0.950100  1.0
  H  H282  1  0.345700  0.520200  0.549900  1.0
  H  H283  1  0.845700  0.979800  0.950100  1.0
  H  H284  1  0.845700  0.020200  0.549900  1.0
  H  H285  1  0.654300  0.520200  0.049900  1.0
  H  H286  1  0.654300  0.479800  0.450100  1.0
  H  H287  1  0.154300  0.020200  0.049900  1.0
  H  H288  1  0.154300  0.979800  0.450100  1.0
  H  H289  1  0.200500  0.507300  0.037500  1.0
  H  H290  1  0.200500  0.492700  0.462500  1.0
  H  H291  1  0.700500  0.007300  0.037500  1.0
  H  H292  1  0.700500  0.992700  0.462500  1.0
  H  H293  1  0.799500  0.492700  0.962500  1.0
  H  H294  1  0.799500  0.507300  0.537500  1.0
  H  H295  1  0.299500  0.992700  0.962500  1.0
  H  H296  1  0.299500  0.007300  0.537500  1.0
  H  H297  1  0.121200  0.579500  0.084200  1.0
  H  H298  1  0.121200  0.420500  0.415800  1.0
  H  H299  1  0.621200  0.079500  0.084200  1.0
  H  H300  1  0.621200  0.920500  0.415800  1.0
  H  H301  1  0.878800  0.420500  0.915800  1.0
  H  H302  1  0.878800  0.579500  0.584200  1.0
  H  H303  1  0.378800  0.920500  0.915800  1.0
  H  H304  1  0.378800  0.079500  0.584200  1.0
  H  H305  1  0.271800  0.641800  0.191600  1.0
  H  H306  1  0.271800  0.358200  0.308400  1.0
  H  H307  1  0.771800  0.141800  0.191600  1.0
  H  H308  1  0.771800  0.858200  0.308400  1.0
  H  H309  1  0.728200  0.358200  0.808400  1.0
  H  H310  1  0.728200  0.641800  0.691600  1.0
  H  H311  1  0.228200  0.858200  0.808400  1.0
  H  H312  1  0.228200  0.141800  0.691600  1.0
  H  H313  1  0.380500  0.627800  0.213800  1.0
  H  H314  1  0.380500  0.372200  0.286200  1.0
  H  H315  1  0.880500  0.127800  0.213800  1.0
  H  H316  1  0.880500  0.872200  0.286200  1.0
  H  H317  1  0.619500  0.372200  0.786200  1.0
  H  H318  1  0.619500  0.627800  0.713800  1.0
  H  H319  1  0.119500  0.872200  0.786200  1.0
  H  H320  1  0.119500  0.127800  0.713800  1.0
  H  H321  1  0.549000  0.517200  0.177700  1.0
  H  H322  1  0.549000  0.482800  0.322300  1.0
  H  H323  1  0.049000  0.017200  0.177700  1.0
  H  H324  1  0.049000  0.982800  0.322300  1.0
  H  H325  1  0.451000  0.482800  0.822300  1.0
  H  H326  1  0.451000  0.517200  0.677700  1.0
  H  H327  1  0.951000  0.982800  0.822300  1.0
  H  H328  1  0.951000  0.017200  0.677700  1.0
  H  H329  1  0.494300  0.462700  0.102600  1.0
  H  H330  1  0.494300  0.537300  0.397400  1.0
  H  H331  1  0.994300  0.962700  0.102600  1.0
  H  H332  1  0.994300  0.037300  0.397400  1.0
  H  H333  1  0.505700  0.537300  0.897400  1.0
  H  H334  1  0.505700  0.462700  0.602600  1.0
  H  H335  1  0.005700  0.037300  0.897400  1.0
  H  H336  1  0.005700  0.962700  0.602600  1.0
  H  H337  1  0.560500  0.668200  0.937200  1.0
  H  H338  1  0.560500  0.331800  0.562800  1.0
  H  H339  1  0.060500  0.168200  0.937200  1.0
  H  H340  1  0.060500  0.831800  0.562800  1.0
  H  H341  1  0.439500  0.331800  0.062800  1.0
  H  H342  1  0.439500  0.668200  0.437200  1.0
  H  H343  1  0.939500  0.831800  0.062800  1.0
  H  H344  1  0.939500  0.168200  0.437200  1.0
  H  H345  1  0.541600  0.706900  0.905900  1.0
  H  H346  1  0.541600  0.293100  0.594100  1.0
  H  H347  1  0.041600  0.206900  0.905900  1.0
  H  H348  1  0.041600  0.793100  0.594100  1.0
  H  H349  1  0.458400  0.293100  0.094100  1.0
  H  H350  1  0.458400  0.706900  0.405900  1.0
  H  H351  1  0.958400  0.793100  0.094100  1.0
  H  H352  1  0.958400  0.206900  0.405900  1.0
  H  H353  1  0.485700  0.658700  0.908000  1.0
  H  H354  1  0.485700  0.341300  0.592000  1.0
  H  H355  1  0.985700  0.158700  0.908000  1.0
  H  H356  1  0.985700  0.841300  0.592000  1.0
  H  H357  1  0.514300  0.341300  0.092000  1.0
  H  H358  1  0.514300  0.658700  0.408000  1.0
  H  H359  1  0.014300  0.841300  0.092000  1.0
  H  H360  1  0.014300  0.158700  0.408000  1.0
  H  H361  1  0.383400  0.888000  0.063600  1.0
  H  H362  1  0.383400  0.112000  0.436400  1.0
  H  H363  1  0.883400  0.388000  0.063600  1.0
  H  H364  1  0.883400  0.612000  0.436400  1.0
  H  H365  1  0.616600  0.112000  0.936400  1.0
  H  H366  1  0.616600  0.888000  0.563600  1.0
  H  H367  1  0.116600  0.612000  0.936400  1.0
  H  H368  1  0.116600  0.388000  0.563600  1.0
  H  H369  1  0.460700  0.907400  0.051500  1.0
  H  H370  1  0.460700  0.092600  0.448500  1.0
  H  H371  1  0.960700  0.407400  0.051500  1.0
  H  H372  1  0.960700  0.592600  0.448500  1.0
  H  H373  1  0.539300  0.092600  0.948500  1.0
  H  H374  1  0.539300  0.907400  0.551500  1.0
  H  H375  1  0.039300  0.592600  0.948500  1.0
  H  H376  1  0.039300  0.407400  0.551500  1.0
  H  H377  1  0.450600  0.889800  0.098400  1.0
  H  H378  1  0.450600  0.110200  0.401600  1.0
  H  H379  1  0.950600  0.389800  0.098400  1.0
  H  H380  1  0.950600  0.610200  0.401600  1.0
  H  H381  1  0.549400  0.110200  0.901600  1.0
  H  H382  1  0.549400  0.889800  0.598400  1.0
  H  H383  1  0.049400  0.610200  0.901600  1.0
  H  H384  1  0.049400  0.389800  0.598400  1.0
  H  H385  1  0.254500  0.585600  0.949400  1.0
  H  H386  1  0.254500  0.414400  0.550600  1.0
  H  H387  1  0.754500  0.085600  0.949400  1.0
  H  H388  1  0.754500  0.914400  0.550600  1.0
  H  H389  1  0.745500  0.414400  0.050600  1.0
  H  H390  1  0.745500  0.585600  0.449400  1.0
  H  H391  1  0.245500  0.914400  0.050600  1.0
  H  H392  1  0.245500  0.085600  0.449400  1.0
  H  H393  1  0.196400  0.580300  0.987800  1.0
  H  H394  1  0.196400  0.419700  0.512200  1.0
  H  H395  1  0.696400  0.080300  0.987800  1.0
  H  H396  1  0.696400  0.919700  0.512200  1.0
  H  H397  1  0.803600  0.419700  0.012200  1.0
  H  H398  1  0.803600  0.580300  0.487800  1.0
  H  H399  1  0.303600  0.919700  0.012200  1.0
  H  H400  1  0.303600  0.080300  0.487800  1.0
  H  H401  1  0.278600  0.564400  0.992300  1.0
  H  H402  1  0.278600  0.435600  0.507700  1.0
  H  H403  1  0.778600  0.064400  0.992300  1.0
  H  H404  1  0.778600  0.935600  0.507700  1.0
  H  H405  1  0.721400  0.435600  0.007700  1.0
  H  H406  1  0.721400  0.564400  0.492300  1.0
  H  H407  1  0.221400  0.935600  0.007700  1.0
  H  H408  1  0.221400  0.064400  0.492300  1.0
  H  H409  1  0.234000  0.821400  0.131900  1.0
  H  H410  1  0.234000  0.178600  0.368100  1.0
  H  H411  1  0.734000  0.321400  0.131900  1.0
  H  H412  1  0.734000  0.678600  0.368100  1.0
  H  H413  1  0.766000  0.178600  0.868100  1.0
  H  H414  1  0.766000  0.821400  0.631900  1.0
  H  H415  1  0.266000  0.678600  0.868100  1.0
  H  H416  1  0.266000  0.321400  0.631900  1.0
  H  H417  1  0.166000  0.809400  0.095700  1.0
  H  H418  1  0.166000  0.190600  0.404300  1.0
  H  H419  1  0.666000  0.309400  0.095700  1.0
  H  H420  1  0.666000  0.690600  0.404300  1.0
  H  H421  1  0.834000  0.190600  0.904300  1.0
  H  H422  1  0.834000  0.809400  0.595700  1.0
  H  H423  1  0.334000  0.690600  0.904300  1.0
  H  H424  1  0.334000  0.309400  0.595700  1.0
  H  H425  1  0.237800  0.837000  0.083600  1.0
  H  H426  1  0.237800  0.163000  0.416400  1.0
  H  H427  1  0.737800  0.337000  0.083600  1.0
  H  H428  1  0.737800  0.663000  0.416400  1.0
  H  H429  1  0.762200  0.163000  0.916400  1.0
  H  H430  1  0.762200  0.837000  0.583600  1.0
  H  H431  1  0.262200  0.663000  0.916400  1.0
  H  H432  1  0.262200  0.337000  0.583600  1.0
  H  H433  1  0.514900  0.588700  0.086400  1.0
  H  H434  1  0.514900  0.411300  0.413600  1.0
  H  H435  1  0.014900  0.088700  0.086400  1.0
  H  H436  1  0.014900  0.911300  0.413600  1.0
  H  H437  1  0.485100  0.411300  0.913600  1.0
  H  H438  1  0.485100  0.588700  0.586400  1.0
  H  H439  1  0.985100  0.911300  0.913600  1.0
  H  H440  1  0.985100  0.088700  0.586400  1.0
  H  H441  1  0.561000  0.619100  0.136400  1.0
  H  H442  1  0.561000  0.380900  0.363600  1.0
  H  H443  1  0.061000  0.119100  0.136400  1.0
  H  H444  1  0.061000  0.880900  0.363600  1.0
  H  H445  1  0.439000  0.380900  0.863600  1.0
  H  H446  1  0.439000  0.619100  0.636400  1.0
  H  H447  1  0.939000  0.880900  0.863600  1.0
  H  H448  1  0.939000  0.119100  0.636400  1.0
  H  H449  1  0.584200  0.627200  0.086600  1.0
  H  H450  1  0.584200  0.372800  0.413400  1.0
  H  H451  1  0.084200  0.127200  0.086600  1.0
  H  H452  1  0.084200  0.872800  0.413400  1.0
  H  H453  1  0.415800  0.372800  0.913400  1.0
  H  H454  1  0.415800  0.627200  0.586600  1.0
  H  H455  1  0.915800  0.872800  0.913400  1.0
  H  H456  1  0.915800  0.127200  0.586600  1.0
  H  H457  1  0.441100  0.854700  0.189900  1.0
  H  H458  1  0.441100  0.145300  0.310100  1.0
  H  H459  1  0.941100  0.354700  0.189900  1.0
  H  H460  1  0.941100  0.645300  0.310100  1.0
  H  H461  1  0.558900  0.145300  0.810100  1.0
  H  H462  1  0.558900  0.854700  0.689900  1.0
  H  H463  1  0.058900  0.645300  0.810100  1.0
  H  H464  1  0.058900  0.354700  0.689900  1.0
  H  H465  1  0.442300  0.829600  0.232800  1.0
  H  H466  1  0.442300  0.170400  0.267200  1.0
  H  H467  1  0.942300  0.329600  0.232800  1.0
  H  H468  1  0.942300  0.670400  0.267200  1.0
  H  H469  1  0.557700  0.170400  0.767200  1.0
  H  H470  1  0.557700  0.829600  0.732800  1.0
  H  H471  1  0.057700  0.670400  0.767200  1.0
  H  H472  1  0.057700  0.329600  0.732800  1.0
  H  H473  1  0.370600  0.825100  0.201200  1.0
  H  H474  1  0.370600  0.174900  0.298800  1.0
  H  H475  1  0.870600  0.325100  0.201200  1.0
  H  H476  1  0.870600  0.674900  0.298800  1.0
  H  H477  1  0.629400  0.174900  0.798800  1.0
  H  H478  1  0.629400  0.825100  0.701200  1.0
  H  H479  1  0.129400  0.674900  0.798800  1.0
  H  H480  1  0.129400  0.325100  0.701200  1.0
  H  H481  1  0.108800  0.367100  0.154600  1.0
  H  H482  1  0.108800  0.632900  0.345400  1.0
  H  H483  1  0.608800  0.867100  0.154600  1.0
  H  H484  1  0.608800  0.132900  0.345400  1.0
  H  H485  1  0.891200  0.632900  0.845400  1.0
  H  H486  1  0.891200  0.367100  0.654600  1.0
  H  H487  1  0.391200  0.132900  0.845400  1.0
  H  H488  1  0.391200  0.867100  0.654600  1.0
  H  H489  1  0.056500  0.312000  0.128200  1.0
  H  H490  1  0.056500  0.688000  0.371800  1.0
  H  H491  1  0.556500  0.812000  0.128200  1.0
  H  H492  1  0.556500  0.188000  0.371800  1.0
  H  H493  1  0.943500  0.688000  0.871800  1.0
  H  H494  1  0.943500  0.312000  0.628200  1.0
  H  H495  1  0.443500  0.188000  0.871800  1.0
  H  H496  1  0.443500  0.812000  0.628200  1.0
  H  H497  1  0.076600  0.354400  0.100400  1.0
  H  H498  1  0.076600  0.645600  0.399600  1.0
  H  H499  1  0.576600  0.854400  0.100400  1.0
  H  H500  1  0.576600  0.145600  0.399600  1.0
  H  H501  1  0.923400  0.645600  0.899600  1.0
  H  H502  1  0.923400  0.354400  0.600400  1.0
  H  H503  1  0.423400  0.145600  0.899600  1.0
  H  H504  1  0.423400  0.854400  0.600400  1.0
  H  H505  1  0.236000  0.251500  0.121500  1.0
  H  H506  1  0.236000  0.748500  0.378500  1.0
  H  H507  1  0.736000  0.751500  0.121500  1.0
  H  H508  1  0.736000  0.248500  0.378500  1.0
  H  H509  1  0.764000  0.748500  0.878500  1.0
  H  H510  1  0.764000  0.251500  0.621500  1.0
  H  H511  1  0.264000  0.248500  0.878500  1.0
  H  H512  1  0.264000  0.751500  0.621500  1.0
  H  H513  1  0.156800  0.247200  0.141100  1.0
  H  H514  1  0.156800  0.752800  0.358900  1.0
  H  H515  1  0.656800  0.747200  0.141100  1.0
  H  H516  1  0.656800  0.252800  0.358900  1.0
  H  H517  1  0.843200  0.752800  0.858900  1.0
  H  H518  1  0.843200  0.247200  0.641100  1.0
  H  H519  1  0.343200  0.252800  0.858900  1.0
  H  H520  1  0.343200  0.747200  0.641100  1.0
  H  H521  1  0.202300  0.306600  0.166600  1.0
  H  H522  1  0.202300  0.693400  0.333400  1.0
  H  H523  1  0.702300  0.806600  0.166600  1.0
  H  H524  1  0.702300  0.193400  0.333400  1.0
  H  H525  1  0.797700  0.693400  0.833400  1.0
  H  H526  1  0.797700  0.306600  0.666600  1.0
  H  H527  1  0.297700  0.193400  0.833400  1.0
  H  H528  1  0.297700  0.806600  0.666600  1.0
  H  H529  1  0.113600  0.259200  0.028200  1.0
  H  H530  1  0.113600  0.740800  0.471800  1.0
  H  H531  1  0.613600  0.759200  0.028200  1.0
  H  H532  1  0.613600  0.240800  0.471800  1.0
  H  H533  1  0.886400  0.740800  0.971800  1.0
  H  H534  1  0.886400  0.259200  0.528200  1.0
  H  H535  1  0.386400  0.240800  0.971800  1.0
  H  H536  1  0.386400  0.759200  0.528200  1.0
  H  H537  1  0.101400  0.220900  0.060900  1.0
  H  H538  1  0.101400  0.779100  0.439100  1.0
  H  H539  1  0.601400  0.720900  0.060900  1.0
  H  H540  1  0.601400  0.279100  0.439100  1.0
  H  H541  1  0.898600  0.779100  0.939100  1.0
  H  H542  1  0.898600  0.220900  0.560900  1.0
  H  H543  1  0.398600  0.279100  0.939100  1.0
  H  H544  1  0.398600  0.720900  0.560900  1.0
  H  H545  1  0.177700  0.220000  0.035400  1.0
  H  H546  1  0.177700  0.780000  0.464600  1.0
  H  H547  1  0.677700  0.720000  0.035400  1.0
  H  H548  1  0.677700  0.280000  0.464600  1.0
  H  H549  1  0.822300  0.780000  0.964600  1.0
  H  H550  1  0.822300  0.220000  0.535400  1.0
  H  H551  1  0.322300  0.280000  0.964600  1.0
  H  H552  1  0.322300  0.720000  0.535400  1.0
  H  H553  1  0.136100  0.285300  0.868000  1.0
  H  H554  1  0.136100  0.714700  0.632000  1.0
  H  H555  1  0.636100  0.785300  0.868000  1.0
  H  H556  1  0.636100  0.214700  0.632000  1.0
  H  H557  1  0.863900  0.714700  0.132000  1.0
  H  H558  1  0.863900  0.285300  0.368000  1.0
  H  H559  1  0.363900  0.214700  0.132000  1.0
  H  H560  1  0.363900  0.785300  0.368000  1.0
  H  H561  1  0.079100  0.303800  0.835700  1.0
  H  H562  1  0.079100  0.696200  0.664300  1.0
  H  H563  1  0.579100  0.803800  0.835700  1.0
  H  H564  1  0.579100  0.196200  0.664300  1.0
  H  H565  1  0.920900  0.696200  0.164300  1.0
  H  H566  1  0.920900  0.303800  0.335700  1.0
  H  H567  1  0.420900  0.196200  0.164300  1.0
  H  H568  1  0.420900  0.803800  0.335700  1.0
  H  H569  1  0.080000  0.337200  0.895300  1.0
  H  H570  1  0.080000  0.662800  0.604700  1.0
  H  H571  1  0.580000  0.837200  0.895300  1.0
  H  H572  1  0.580000  0.162800  0.604700  1.0
  H  H573  1  0.920000  0.662800  0.104700  1.0
  H  H574  1  0.920000  0.337200  0.395300  1.0
  H  H575  1  0.420000  0.162800  0.104700  1.0
  H  H576  1  0.420000  0.837200  0.395300  1.0
  H  H577  1  0.243700  0.361900  0.810900  1.0
  H  H578  1  0.243700  0.638100  0.689100  1.0
  H  H579  1  0.743700  0.861900  0.810900  1.0
  H  H580  1  0.743700  0.138100  0.689100  1.0
  H  H581  1  0.756300  0.638100  0.189100  1.0
  H  H582  1  0.756300  0.361900  0.310900  1.0
  H  H583  1  0.256300  0.138100  0.189100  1.0
  H  H584  1  0.256300  0.861900  0.310900  1.0
  H  H585  1  0.179600  0.317300  0.784500  1.0
  H  H586  1  0.179600  0.682700  0.715500  1.0
  H  H587  1  0.679600  0.817300  0.784500  1.0
  H  H588  1  0.679600  0.182700  0.715500  1.0
  H  H589  1  0.820400  0.682700  0.215500  1.0
  H  H590  1  0.820400  0.317300  0.284500  1.0
  H  H591  1  0.320400  0.182700  0.215500  1.0
  H  H592  1  0.320400  0.817300  0.284500  1.0
  H  H593  1  0.237500  0.300700  0.817400  1.0
  H  H594  1  0.237500  0.699300  0.682600  1.0
  H  H595  1  0.737500  0.800700  0.817400  1.0
  H  H596  1  0.737500  0.199300  0.682600  1.0
  H  H597  1  0.762500  0.699300  0.182600  1.0
  H  H598  1  0.762500  0.300700  0.317400  1.0
  H  H599  1  0.262500  0.199300  0.182600  1.0
  H  H600  1  0.262500  0.800700  0.317400  1.0
  H  H601  1  0.095000  0.436300  0.887000  1.0
  H  H602  1  0.095000  0.563700  0.613000  1.0
  H  H603  1  0.595000  0.936300  0.887000  1.0
  H  H604  1  0.595000  0.063700  0.613000  1.0
  H  H605  1  0.905000  0.563700  0.113000  1.0
  H  H606  1  0.905000  0.436300  0.387000  1.0
  H  H607  1  0.405000  0.063700  0.113000  1.0
  H  H608  1  0.405000  0.936300  0.387000  1.0
  H  H609  1  0.087900  0.399100  0.828100  1.0
  H  H610  1  0.087900  0.600900  0.671900  1.0
  H  H611  1  0.587900  0.899100  0.828100  1.0
  H  H612  1  0.587900  0.100900  0.671900  1.0
  H  H613  1  0.912100  0.600900  0.171900  1.0
  H  H614  1  0.912100  0.399100  0.328100  1.0
  H  H615  1  0.412100  0.100900  0.171900  1.0
  H  H616  1  0.412100  0.899100  0.328100  1.0
  H  H617  1  0.155700  0.441300  0.849900  1.0
  H  H618  1  0.155700  0.558700  0.650100  1.0
  H  H619  1  0.655700  0.941300  0.849900  1.0
  H  H620  1  0.655700  0.058700  0.650100  1.0
  H  H621  1  0.844300  0.558700  0.150100  1.0
  H  H622  1  0.844300  0.441300  0.349900  1.0
  H  H623  1  0.344300  0.058700  0.150100  1.0
  H  H624  1  0.344300  0.941300  0.349900  1.0
  H  H625  1  0.052100  0.603700  0.163400  1.0
  H  H626  1  0.052100  0.396300  0.336600  1.0
  H  H627  1  0.552100  0.103700  0.163400  1.0
  H  H628  1  0.552100  0.896300  0.336600  1.0
  H  H629  1  0.947900  0.396300  0.836600  1.0
  H  H630  1  0.947900  0.603700  0.663400  1.0
  H  H631  1  0.447900  0.896300  0.836600  1.0
  H  H632  1  0.447900  0.103700  0.663400  1.0
  H  H633  1  0.043600  0.657000  0.216700  1.0
  H  H634  1  0.043600  0.343000  0.283300  1.0
  H  H635  1  0.543600  0.157000  0.216700  1.0
  H  H636  1  0.543600  0.843000  0.283300  1.0
  H  H637  1  0.956400  0.343000  0.783300  1.0
  H  H638  1  0.956400  0.657000  0.716700  1.0
  H  H639  1  0.456400  0.843000  0.783300  1.0
  H  H640  1  0.456400  0.157000  0.716700  1.0
  H  H641  1  0.102600  0.607000  0.208800  1.0
  H  H642  1  0.102600  0.393000  0.291200  1.0
  H  H643  1  0.602600  0.107000  0.208800  1.0
  H  H644  1  0.602600  0.893000  0.291200  1.0
  H  H645  1  0.897400  0.393000  0.791200  1.0
  H  H646  1  0.897400  0.607000  0.708800  1.0
  H  H647  1  0.397400  0.893000  0.791200  1.0
  H  H648  1  0.397400  0.107000  0.708800  1.0
  H  H649  1  0.134700  0.739400  0.243000  1.0
  H  H650  1  0.134700  0.260600  0.257000  1.0
  H  H651  1  0.634700  0.239400  0.243000  1.0
  H  H652  1  0.634700  0.760600  0.257000  1.0
  H  H653  1  0.865300  0.260600  0.757000  1.0
  H  H654  1  0.865300  0.739400  0.743000  1.0
  H  H655  1  0.365300  0.760600  0.757000  1.0
  H  H656  1  0.365300  0.239400  0.743000  1.0
  H  H657  1  0.212800  0.726000  0.218100  1.0
  H  H658  1  0.212800  0.274000  0.281900  1.0
  H  H659  1  0.712800  0.226000  0.218100  1.0
  H  H660  1  0.712800  0.774000  0.281900  1.0
  H  H661  1  0.787200  0.274000  0.781900  1.0
  H  H662  1  0.787200  0.726000  0.718100  1.0
  H  H663  1  0.287200  0.774000  0.781900  1.0
  H  H664  1  0.287200  0.226000  0.718100  1.0
  H  H665  1  0.180800  0.685500  0.244600  1.0
  H  H666  1  0.180800  0.314500  0.255400  1.0
  H  H667  1  0.680800  0.185500  0.244600  1.0
  H  H668  1  0.680800  0.814500  0.255400  1.0
  H  H669  1  0.819200  0.314500  0.755400  1.0
  H  H670  1  0.819200  0.685500  0.744600  1.0
  H  H671  1  0.319200  0.814500  0.755400  1.0
  H  H672  1  0.319200  0.185500  0.744600  1.0
  H  H673  1  0.073200  0.666100  0.115600  1.0
  H  H674  1  0.073200  0.333900  0.384400  1.0
  H  H675  1  0.573200  0.166100  0.115600  1.0
  H  H676  1  0.573200  0.833900  0.384400  1.0
  H  H677  1  0.926800  0.333900  0.884400  1.0
  H  H678  1  0.926800  0.666100  0.615600  1.0
  H  H679  1  0.426800  0.833900  0.884400  1.0
  H  H680  1  0.426800  0.166100  0.615600  1.0
  H  H681  1  0.136500  0.713600  0.127900  1.0
  H  H682  1  0.136500  0.286400  0.372100  1.0
  H  H683  1  0.636500  0.213600  0.127900  1.0
  H  H684  1  0.636500  0.786400  0.372100  1.0
  H  H685  1  0.863500  0.286400  0.872100  1.0
  H  H686  1  0.863500  0.713600  0.627900  1.0
  H  H687  1  0.363500  0.786400  0.872100  1.0
  H  H688  1  0.363500  0.213600  0.627900  1.0
  H  H689  1  0.066500  0.727900  0.162500  1.0
  H  H690  1  0.066500  0.272100  0.337500  1.0
  H  H691  1  0.566500  0.227900  0.162500  1.0
  H  H692  1  0.566500  0.772100  0.337500  1.0
  H  H693  1  0.933500  0.272100  0.837500  1.0
  H  H694  1  0.933500  0.727900  0.662500  1.0
  H  H695  1  0.433500  0.772100  0.837500  1.0
  H  H696  1  0.433500  0.227900  0.662500  1.0
  H  H697  1  0.550500  0.544500  0.265200  1.0
  H  H698  1  0.550500  0.455500  0.234800  1.0
  H  H699  1  0.050500  0.044500  0.265200  1.0
  H  H700  1  0.050500  0.955500  0.234800  1.0
  H  H701  1  0.449500  0.455500  0.734800  1.0
  H  H702  1  0.449500  0.544500  0.765200  1.0
  H  H703  1  0.949500  0.955500  0.734800  1.0
  H  H704  1  0.949500  0.044500  0.765200  1.0
  H  H705  1  0.473200  0.562800  0.290600  1.0
  H  H706  1  0.473200  0.437200  0.209400  1.0
  H  H707  1  0.973200  0.062800  0.290600  1.0
  H  H708  1  0.973200  0.937200  0.209400  1.0
  H  H709  1  0.526800  0.437200  0.709400  1.0
  H  H710  1  0.526800  0.562800  0.790600  1.0
  H  H711  1  0.026800  0.937200  0.709400  1.0
  H  H712  1  0.026800  0.062800  0.790600  1.0
  H  H713  1  0.542300  0.601500  0.316200  1.0
  H  H714  1  0.542300  0.398500  0.183800  1.0
  H  H715  1  0.042300  0.101500  0.316200  1.0
  H  H716  1  0.042300  0.898500  0.183800  1.0
  H  H717  1  0.457700  0.398500  0.683800  1.0
  H  H718  1  0.457700  0.601500  0.816200  1.0
  H  H719  1  0.957700  0.898500  0.683800  1.0
  H  H720  1  0.957700  0.101500  0.816200  1.0
  H  H721  1  0.490300  0.694700  0.315700  1.0
  H  H722  1  0.490300  0.305300  0.184300  1.0
  H  H723  1  0.990300  0.194700  0.315700  1.0
  H  H724  1  0.990300  0.805300  0.184300  1.0
  H  H725  1  0.509700  0.305300  0.684300  1.0
  H  H726  1  0.509700  0.694700  0.815700  1.0
  H  H727  1  0.009700  0.805300  0.684300  1.0
  H  H728  1  0.009700  0.194700  0.815700  1.0
  H  H729  1  0.416800  0.661900  0.292300  1.0
  H  H730  1  0.416800  0.338100  0.207700  1.0
  H  H731  1  0.916800  0.161900  0.292300  1.0
  H  H732  1  0.916800  0.838100  0.207700  1.0
  H  H733  1  0.583200  0.338100  0.707700  1.0
  H  H734  1  0.583200  0.661900  0.792300  1.0
  H  H735  1  0.083200  0.838100  0.707700  1.0
  H  H736  1  0.083200  0.161900  0.792300  1.0
  H  H737  1  0.460600  0.696000  0.264700  1.0
  H  H738  1  0.460600  0.304000  0.235300  1.0
  H  H739  1  0.960600  0.196000  0.264700  1.0
  H  H740  1  0.960600  0.804000  0.235300  1.0
  H  H741  1  0.539400  0.304000  0.735300  1.0
  H  H742  1  0.539400  0.696000  0.764700  1.0
  H  H743  1  0.039400  0.804000  0.735300  1.0
  H  H744  1  0.039400  0.196000  0.764700  1.0
  H  H745  1  0.607700  0.655700  0.276700  1.0
  H  H746  1  0.607700  0.344300  0.223300  1.0
  H  H747  1  0.107700  0.155700  0.276700  1.0
  H  H748  1  0.107700  0.844300  0.223300  1.0
  H  H749  1  0.392300  0.344300  0.723300  1.0
  H  H750  1  0.392300  0.655700  0.776700  1.0
  H  H751  1  0.892300  0.844300  0.723300  1.0
  H  H752  1  0.892300  0.155700  0.776700  1.0
  H  H753  1  0.579800  0.659100  0.226000  1.0
  H  H754  1  0.579800  0.340900  0.274000  1.0
  H  H755  1  0.079800  0.159100  0.226000  1.0
  H  H756  1  0.079800  0.840900  0.274000  1.0
  H  H757  1  0.420200  0.340900  0.774000  1.0
  H  H758  1  0.420200  0.659100  0.726000  1.0
  H  H759  1  0.920200  0.840900  0.774000  1.0
  H  H760  1  0.920200  0.159100  0.726000  1.0
  H  H761  1  0.611400  0.598500  0.225500  1.0
  H  H762  1  0.611400  0.401500  0.274500  1.0
  H  H763  1  0.111400  0.098500  0.225500  1.0
  H  H764  1  0.111400  0.901500  0.274500  1.0
  H  H765  1  0.388600  0.401500  0.774500  1.0
  H  H766  1  0.388600  0.598500  0.725500  1.0
  H  H767  1  0.888600  0.901500  0.774500  1.0
  H  H768  1  0.888600  0.098500  0.725500  1.0
  C  C769  1  0.249100  0.522300  0.818700  1
  C  C770  1  0.249100  0.477700  0.681300  1
  C  C771  1  0.749100  0.022300  0.818700  1
  C  C772  1  0.749100  0.977700  0.681300  1
  C  C773  1  0.750900  0.477700  0.181300  1
  C  C774  1  0.750900  0.522300  0.318700  1
  C  C775  1  0.250900  0.977700  0.181300  1
  C  C776  1  0.250900  0.022300  0.318700  1
  C  C777  1  0.187100  0.728700  0.189300  1
  C  C778  1  0.187100  0.271300  0.310700  1
  C  C779  1  0.687100  0.228700  0.189300  1
  C  C780  1  0.687100  0.771300  0.310700  1
  C  C781  1  0.812900  0.271300  0.810700  1
  C  C782  1  0.812900  0.728700  0.689300  1
  C  C783  1  0.312900  0.771300  0.810700  1
  C  C784  1  0.312900  0.228700  0.689300  1
  C  C785  1  0.120200  0.666667  0.225500  1
  C  C786  1  0.120200  0.333333  0.274500  1
  C  C787  1  0.620200  0.166667  0.225500  1
  C  C788  1  0.620200  0.833333  0.274500  1
  C  C789  1  0.879800  0.333333  0.774500  1
  C  C790  1  0.879800  0.666667  0.725500  1
  C  C791  1  0.379800  0.833333  0.774500  1
  C  C792  1  0.379800  0.166667  0.725500  1
  C  C793  1  0.074100  0.680800  0.150700  1
  C  C794  1  0.074100  0.319200  0.349300  1
  C  C795  1  0.574100  0.180800  0.150700  1
  C  C796  1  0.574100  0.819200  0.349300  1
  C  C797  1  0.925900  0.319200  0.849300  1
  C  C798  1  0.925900  0.680800  0.650700  1
  C  C799  1  0.425900  0.819200  0.849300  1
  C  C800  1  0.425900  0.180800  0.650700  1
  C  C801  1  0.482000  0.678700  0.283000  1
  C  C802  1  0.482000  0.321300  0.217000  1
  C  C803  1  0.982000  0.178700  0.283000  1
  C  C804  1  0.982000  0.821300  0.217000  1
  C  C805  1  0.518000  0.321300  0.717000  1
  C  C806  1  0.518000  0.678700  0.783000  1
  C  C807  1  0.018000  0.821300  0.717000  1
  C  C808  1  0.018000  0.178700  0.783000  1
  C  C809  1  0.469600  0.580700  0.290700  1
  C  C810  1  0.469600  0.419300  0.209300  1
  C  C811  1  0.969600  0.080700  0.290700  1
  C  C812  1  0.969600  0.919300  0.209300  1
  C  C813  1  0.530400  0.419300  0.709300  1
  C  C814  1  0.530400  0.580700  0.790700  1
  C  C815  1  0.030400  0.919300  0.709300  1
  C  C816  1  0.030400  0.080700  0.790700  1
  C  C817  1  0.584800  0.608000  0.265000  1
  C  C818  1  0.584800  0.392000  0.235000  1
  C  C819  1  0.084800  0.108000  0.265000  1
  C  C820  1  0.084800  0.892000  0.235000  1
  C  C821  1  0.415200  0.392000  0.735000  1
  C  C822  1  0.415200  0.608000  0.765000  1
  C  C823  1  0.915200  0.892000  0.735000  1
  C  C824  1  0.915200  0.108000  0.765000  1
  C  C825  1  0.406400  0.577100  0.027400  1.0
  C  C826  1  0.406400  0.422900  0.472600  1.0
  C  C827  1  0.906400  0.077100  0.027400  1.0
  C  C828  1  0.906400  0.922900  0.472600  1.0
  C  C829  1  0.593600  0.422900  0.972600  1.0
  C  C830  1  0.593600  0.577100  0.527400  1.0
  C  C831  1  0.093600  0.922900  0.972600  1.0
  C  C832  1  0.093600  0.077100  0.527400  1.0
  C  C833  1  0.519000  0.609600  0.995200  1.0
  C  C834  1  0.519000  0.390400  0.504800  1.0
  C  C835  1  0.019000  0.109600  0.995200  1.0
  C  C836  1  0.019000  0.890400  0.504800  1.0
  C  C837  1  0.481000  0.390400  0.004800  1.0
  C  C838  1  0.481000  0.609600  0.495200  1.0
  C  C839  1  0.981000  0.890400  0.004800  1.0
  C  C840  1  0.981000  0.109600  0.495200  1.0
  C  C841  1  0.399500  0.603000  0.948200  1.0
  C  C842  1  0.399500  0.397000  0.551800  1.0
  C  C843  1  0.899500  0.103000  0.948200  1.0
  C  C844  1  0.899500  0.897000  0.551800  1.0
  C  C845  1  0.600500  0.397000  0.051800  1.0
  C  C846  1  0.600500  0.603000  0.448200  1.0
  C  C847  1  0.100500  0.897000  0.051800  1.0
  C  C848  1  0.100500  0.103000  0.448200  1.0
  C  C849  1  0.487600  0.733500  0.972300  1.0
  C  C850  1  0.487600  0.266500  0.527700  1.0
  C  C851  1  0.987600  0.233500  0.972300  1.0
  C  C852  1  0.987600  0.766500  0.527700  1.0
  C  C853  1  0.512400  0.266500  0.027700  1.0
  C  C854  1  0.512400  0.733500  0.472300  1.0
  C  C855  1  0.012400  0.766500  0.027700  1.0
  C  C856  1  0.012400  0.233500  0.472300  1.0
  C  C857  1  0.488800  0.795000  0.987100  1.0
  C  C858  1  0.488800  0.205000  0.512900  1.0
  C  C859  1  0.988800  0.295000  0.987100  1.0
  C  C860  1  0.988800  0.705000  0.512900  1.0
  C  C861  1  0.511200  0.205000  0.012900  1.0
  C  C862  1  0.511200  0.795000  0.487100  1.0
  C  C863  1  0.011200  0.705000  0.012900  1.0
  C  C864  1  0.011200  0.295000  0.487100  1.0
  C  C865  1  0.452000  0.818300  0.031500  1.0
  C  C866  1  0.452000  0.181700  0.468500  1.0
  C  C867  1  0.952000  0.318300  0.031500  1.0
  C  C868  1  0.952000  0.681700  0.468500  1.0
  C  C869  1  0.548000  0.181700  0.968500  1.0
  C  C870  1  0.548000  0.818300  0.531500  1.0
  C  C871  1  0.048000  0.681700  0.968500  1.0
  C  C872  1  0.048000  0.318300  0.531500  1.0
  C  C873  1  0.260300  0.653200  0.018300  1.0
  C  C874  1  0.260300  0.346800  0.481700  1.0
  C  C875  1  0.760300  0.153200  0.018300  1.0
  C  C876  1  0.760300  0.846800  0.481700  1.0
  C  C877  1  0.739700  0.346800  0.981700  1.0
  C  C878  1  0.739700  0.653200  0.518300  1.0
  C  C879  1  0.239700  0.846800  0.981700  1.0
  C  C880  1  0.239700  0.153200  0.518300  1.0
  C  C881  1  0.208500  0.698100  0.038900  1.0
  C  C882  1  0.208500  0.301900  0.461100  1.0
  C  C883  1  0.708500  0.198100  0.038900  1.0
  C  C884  1  0.708500  0.801900  0.461100  1.0
  C  C885  1  0.791500  0.301900  0.961100  1.0
  C  C886  1  0.791500  0.698100  0.538900  1.0
  C  C887  1  0.291500  0.801900  0.961100  1.0
  C  C888  1  0.291500  0.198100  0.538900  1.0
  C  C889  1  0.246100  0.748300  0.066800  1.0
  C  C890  1  0.246100  0.251700  0.433200  1.0
  C  C891  1  0.746100  0.248300  0.066800  1.0
  C  C892  1  0.746100  0.751700  0.433200  1.0
  C  C893  1  0.753900  0.251700  0.933200  1.0
  C  C894  1  0.753900  0.748300  0.566800  1.0
  C  C895  1  0.253900  0.751700  0.933200  1.0
  C  C896  1  0.253900  0.248300  0.566800  1.0
  C  C897  1  0.497800  0.677100  0.121100  1.0
  C  C898  1  0.497800  0.322900  0.378900  1.0
  C  C899  1  0.997800  0.177100  0.121100  1.0
  C  C900  1  0.997800  0.822900  0.378900  1.0
  C  C901  1  0.502200  0.322900  0.878900  1.0
  C  C902  1  0.502200  0.677100  0.621100  1.0
  C  C903  1  0.002200  0.822900  0.878900  1.0
  C  C904  1  0.002200  0.177100  0.621100  1.0
  C  C905  1  0.492000  0.723300  0.167800  1.0
  C  C906  1  0.492000  0.276700  0.332200  1.0
  C  C907  1  0.992000  0.223300  0.167800  1.0
  C  C908  1  0.992000  0.776700  0.332200  1.0
  C  C909  1  0.508000  0.276700  0.832200  1.0
  C  C910  1  0.508000  0.723300  0.667800  1.0
  C  C911  1  0.008000  0.776700  0.832200  1.0
  C  C912  1  0.008000  0.223300  0.667800  1.0
  C  C913  1  0.447100  0.764300  0.162200  1.0
  C  C914  1  0.447100  0.235700  0.337800  1.0
  C  C915  1  0.947100  0.264300  0.162200  1.0
  C  C916  1  0.947100  0.735700  0.337800  1.0
  C  C917  1  0.552900  0.235700  0.837800  1.0
  C  C918  1  0.552900  0.764300  0.662200  1.0
  C  C919  1  0.052900  0.735700  0.837800  1.0
  C  C920  1  0.052900  0.264300  0.662200  1.0
  C  C921  1  0.312900  0.403900  0.107200  1.0
  C  C922  1  0.312900  0.596100  0.392800  1.0
  C  C923  1  0.812900  0.903900  0.107200  1.0
  C  C924  1  0.812900  0.096100  0.392800  1.0
  C  C925  1  0.687100  0.596100  0.892800  1.0
  C  C926  1  0.687100  0.403900  0.607200  1.0
  C  C927  1  0.187100  0.096100  0.892800  1.0
  C  C928  1  0.187100  0.903900  0.607200  1.0
  C  C929  1  0.269600  0.364500  0.117400  1.0
  C  C930  1  0.269600  0.635500  0.382600  1.0
  C  C931  1  0.769600  0.864500  0.117400  1.0
  C  C932  1  0.769600  0.135500  0.382600  1.0
  C  C933  1  0.730400  0.635500  0.882600  1.0
  C  C934  1  0.730400  0.364500  0.617400  1.0
  C  C935  1  0.230400  0.135500  0.882600  1.0
  C  C936  1  0.230400  0.864500  0.617400  1.0
  C  C937  1  0.213900  0.336100  0.086100  1.0
  C  C938  1  0.213900  0.663900  0.413900  1.0
  C  C939  1  0.713900  0.836100  0.086100  1.0
  C  C940  1  0.713900  0.163900  0.413900  1.0
  C  C941  1  0.786100  0.663900  0.913900  1.0
  C  C942  1  0.786100  0.336100  0.586100  1.0
  C  C943  1  0.286100  0.163900  0.913900  1.0
  C  C944  1  0.286100  0.836100  0.586100  1.0
  C  C945  1  0.205700  0.347700  0.042900  1.0
  C  C946  1  0.205700  0.652300  0.457100  1.0
  C  C947  1  0.705700  0.847700  0.042900  1.0
  C  C948  1  0.705700  0.152300  0.457100  1.0
  C  C949  1  0.794300  0.652300  0.957100  1.0
  C  C950  1  0.794300  0.347700  0.542900  1.0
  C  C951  1  0.294300  0.152300  0.957100  1.0
  C  C952  1  0.294300  0.847700  0.542900  1.0
  C  C953  1  0.251300  0.386500  0.033900  1.0
  C  C954  1  0.251300  0.613500  0.466100  1.0
  C  C955  1  0.751300  0.886500  0.033900  1.0
  C  C956  1  0.751300  0.113500  0.466100  1.0
  C  C957  1  0.748700  0.613500  0.966100  1.0
  C  C958  1  0.748700  0.386500  0.533900  1.0
  C  C959  1  0.248700  0.113500  0.966100  1.0
  C  C960  1  0.248700  0.886500  0.533900  1.0
  C  C961  1  0.251300  0.399600  0.988700  1.0
  C  C962  1  0.251300  0.600400  0.511300  1.0
  C  C963  1  0.751300  0.899600  0.988700  1.0
  C  C964  1  0.751300  0.100400  0.511300  1.0
  C  C965  1  0.748700  0.600400  0.011300  1.0
  C  C966  1  0.748700  0.399600  0.488700  1.0
  C  C967  1  0.248700  0.100400  0.011300  1.0
  C  C968  1  0.248700  0.899600  0.488700  1.0
  C  C969  1  0.205900  0.374800  0.948400  1.0
  C  C970  1  0.205900  0.625200  0.551600  1.0
  C  C971  1  0.705900  0.874800  0.948400  1.0
  C  C972  1  0.705900  0.125200  0.551600  1.0
  C  C973  1  0.794100  0.625200  0.051600  1.0
  C  C974  1  0.794100  0.374800  0.448400  1.0
  C  C975  1  0.294100  0.125200  0.051600  1.0
  C  C976  1  0.294100  0.874800  0.448400  1.0
  C  C977  1  0.211600  0.388700  0.906600  1.0
  C  C978  1  0.211600  0.611300  0.593400  1.0
  C  C979  1  0.711600  0.888700  0.906600  1.0
  C  C980  1  0.711600  0.111300  0.593400  1.0
  C  C981  1  0.788400  0.611300  0.093400  1.0
  C  C982  1  0.788400  0.388700  0.406600  1.0
  C  C983  1  0.288400  0.111300  0.093400  1.0
  C  C984  1  0.288400  0.888700  0.406600  1.0
  C  C985  1  0.265900  0.428300  0.908100  1.0
  C  C986  1  0.265900  0.571700  0.591900  1.0
  C  C987  1  0.765900  0.928300  0.908100  1.0
  C  C988  1  0.765900  0.071700  0.591900  1.0
  C  C989  1  0.734100  0.571700  0.091900  1.0
  C  C990  1  0.734100  0.428300  0.408100  1.0
  C  C991  1  0.234100  0.071700  0.091900  1.0
  C  C992  1  0.234100  0.928300  0.408100  1.0
  C  C993  1  0.309300  0.452700  0.949700  1.0
  C  C994  1  0.309300  0.547300  0.550300  1.0
  C  C995  1  0.809300  0.952700  0.949700  1.0
  C  C996  1  0.809300  0.047300  0.550300  1.0
  C  C997  1  0.690700  0.547300  0.050300  1.0
  C  C998  1  0.690700  0.452700  0.449700  1.0
  C  C999  1  0.190700  0.047300  0.050300  1.0
  C  C1000  1  0.190700  0.952700  0.449700  1.0
  C  C1001  1  0.215200  0.534900  0.069400  1.0
  C  C1002  1  0.215200  0.465100  0.430600  1.0
  C  C1003  1  0.715200  0.034900  0.069400  1.0
  C  C1004  1  0.715200  0.965100  0.430600  1.0
  C  C1005  1  0.784800  0.465100  0.930600  1.0
  C  C1006  1  0.784800  0.534900  0.569400  1.0
  C  C1007  1  0.284800  0.965100  0.930600  1.0
  C  C1008  1  0.284800  0.034900  0.569400  1.0
  C  C1009  1  0.167900  0.578200  0.096800  1.0
  C  C1010  1  0.167900  0.421800  0.403200  1.0
  C  C1011  1  0.667900  0.078200  0.096800  1.0
  C  C1012  1  0.667900  0.921800  0.403200  1.0
  C  C1013  1  0.832100  0.421800  0.903200  1.0
  C  C1014  1  0.832100  0.578200  0.596800  1.0
  C  C1015  1  0.332100  0.921800  0.903200  1.0
  C  C1016  1  0.332100  0.078200  0.596800  1.0
  C  C1017  1  0.188100  0.620100  0.142900  1.0
  C  C1018  1  0.188100  0.379900  0.357100  1.0
  C  C1019  1  0.688100  0.120100  0.142900  1.0
  C  C1020  1  0.688100  0.879900  0.357100  1.0
  C  C1021  1  0.811900  0.379900  0.857100  1.0
  C  C1022  1  0.811900  0.620100  0.642900  1.0
  C  C1023  1  0.311900  0.879900  0.857100  1.0
  C  C1024  1  0.311900  0.120100  0.642900  1.0
  C  C1025  1  0.256100  0.614300  0.159900  1.0
  C  C1026  1  0.256100  0.385700  0.340100  1.0
  C  C1027  1  0.756100  0.114300  0.159900  1.0
  C  C1028  1  0.756100  0.885700  0.340100  1.0
  C  C1029  1  0.743900  0.385700  0.840100  1.0
  C  C1030  1  0.743900  0.614300  0.659900  1.0
  C  C1031  1  0.243900  0.885700  0.840100  1.0
  C  C1032  1  0.243900  0.114300  0.659900  1.0
  C  C1033  1  0.301500  0.569100  0.131100  1.0
  C  C1034  1  0.301500  0.430900  0.368900  1.0
  C  C1035  1  0.801500  0.069100  0.131100  1.0
  C  C1036  1  0.801500  0.930900  0.368900  1.0
  C  C1037  1  0.698500  0.430900  0.868900  1.0
  C  C1038  1  0.698500  0.569100  0.631100  1.0
  C  C1039  1  0.198500  0.930900  0.868900  1.0
  C  C1040  1  0.198500  0.069100  0.631100  1.0
  C  C1041  1  0.372200  0.558300  0.147100  1.0
  C  C1042  1  0.372200  0.441700  0.352900  1.0
  C  C1043  1  0.872200  0.058300  0.147100  1.0
  C  C1044  1  0.872200  0.941700  0.352900  1.0
  C  C1045  1  0.627800  0.441700  0.852900  1.0
  C  C1046  1  0.627800  0.558300  0.647100  1.0
  C  C1047  1  0.127800  0.941700  0.852900  1.0
  C  C1048  1  0.127800  0.058300  0.647100  1.0
  C  C1049  1  0.404600  0.593400  0.191800  1.0
  C  C1050  1  0.404600  0.406600  0.308200  1.0
  C  C1051  1  0.904600  0.093400  0.191800  1.0
  C  C1052  1  0.904600  0.906600  0.308200  1.0
  C  C1053  1  0.595400  0.406600  0.808200  1.0
  C  C1054  1  0.595400  0.593400  0.691800  1.0
  C  C1055  1  0.095400  0.906600  0.808200  1.0
  C  C1056  1  0.095400  0.093400  0.691800  1.0
  C  C1057  1  0.471100  0.579600  0.205100  1.0
  C  C1058  1  0.471100  0.420400  0.294900  1.0
  C  C1059  1  0.971100  0.079600  0.205100  1.0
  C  C1060  1  0.971100  0.920400  0.294900  1.0
  C  C1061  1  0.528900  0.420400  0.794900  1.0
  C  C1062  1  0.528900  0.579600  0.705100  1.0
  C  C1063  1  0.028900  0.920400  0.794900  1.0
  C  C1064  1  0.028900  0.079600  0.705100  1.0
  C  C1065  1  0.503300  0.529200  0.170500  1.0
  C  C1066  1  0.503300  0.470800  0.329500  1.0
  C  C1067  1  0.003300  0.029200  0.170500  1.0
  C  C1068  1  0.003300  0.970800  0.329500  1.0
  C  C1069  1  0.496700  0.470800  0.829500  1.0
  C  C1070  1  0.496700  0.529200  0.670500  1.0
  C  C1071  1  0.996700  0.970800  0.829500  1.0
  C  C1072  1  0.996700  0.029200  0.670500  1.0
  C  C1073  1  0.470400  0.496300  0.125900  1.0
  C  C1074  1  0.470400  0.503700  0.374100  1.0
  C  C1075  1  0.970400  0.996300  0.125900  1.0
  C  C1076  1  0.970400  0.003700  0.374100  1.0
  C  C1077  1  0.529600  0.503700  0.874100  1.0
  C  C1078  1  0.529600  0.496300  0.625900  1.0
  C  C1079  1  0.029600  0.003700  0.874100  1.0
  C  C1080  1  0.029600  0.996300  0.625900  1.0
  C  C1081  1  0.521800  0.687900  0.926900  1.0
  C  C1082  1  0.521800  0.312100  0.573100  1.0
  C  C1083  1  0.021800  0.187900  0.926900  1.0
  C  C1084  1  0.021800  0.812100  0.573100  1.0
  C  C1085  1  0.478200  0.312100  0.073100  1.0
  C  C1086  1  0.478200  0.687900  0.426900  1.0
  C  C1087  1  0.978200  0.812100  0.073100  1.0
  C  C1088  1  0.978200  0.187900  0.426900  1.0
  C  C1089  1  0.435200  0.881300  0.064100  1.0
  C  C1090  1  0.435200  0.118700  0.435900  1.0
  C  C1091  1  0.935200  0.381300  0.064100  1.0
  C  C1092  1  0.935200  0.618700  0.435900  1.0
  C  C1093  1  0.564800  0.118700  0.935900  1.0
  C  C1094  1  0.564800  0.881300  0.564100  1.0
  C  C1095  1  0.064800  0.618700  0.935900  1.0
  C  C1096  1  0.064800  0.381300  0.564100  1.0
  C  C1097  1  0.246200  0.590500  0.984000  1.0
  C  C1098  1  0.246200  0.409500  0.516000  1.0
  C  C1099  1  0.746200  0.090500  0.984000  1.0
  C  C1100  1  0.746200  0.909500  0.516000  1.0
  C  C1101  1  0.753800  0.409500  0.016000  1.0
  C  C1102  1  0.753800  0.590500  0.484000  1.0
  C  C1103  1  0.253800  0.909500  0.016000  1.0
  C  C1104  1  0.253800  0.090500  0.484000  1.0
  C  C1105  1  0.218500  0.809400  0.097100  1.0
  C  C1106  1  0.218500  0.190600  0.402900  1.0
  C  C1107  1  0.718500  0.309400  0.097100  1.0
  C  C1108  1  0.718500  0.690600  0.402900  1.0
  C  C1109  1  0.781500  0.190600  0.902900  1.0
  C  C1110  1  0.781500  0.809400  0.597100  1.0
  C  C1111  1  0.281500  0.690600  0.902900  1.0
  C  C1112  1  0.281500  0.309400  0.597100  1.0
  C  C1113  1  0.543400  0.623400  0.106400  1.0
  C  C1114  1  0.543400  0.376600  0.393600  1.0
  C  C1115  1  0.043400  0.123400  0.106400  1.0
  C  C1116  1  0.043400  0.876600  0.393600  1.0
  C  C1117  1  0.456600  0.376600  0.893600  1.0
  C  C1118  1  0.456600  0.623400  0.606400  1.0
  C  C1119  1  0.956600  0.876600  0.893600  1.0
  C  C1120  1  0.956600  0.123400  0.606400  1.0
  C  C1121  1  0.423200  0.823600  0.199800  1.0
  C  C1122  1  0.423200  0.176400  0.300200  1.0
  C  C1123  1  0.923200  0.323600  0.199800  1.0
  C  C1124  1  0.923200  0.676400  0.300200  1.0
  C  C1125  1  0.576800  0.176400  0.800200  1.0
  C  C1126  1  0.576800  0.823600  0.699800  1.0
  C  C1127  1  0.076800  0.676400  0.800200  1.0
  C  C1128  1  0.076800  0.323600  0.699800  1.0
  C  C1129  1  0.160600  0.296500  0.098000  1.0
  C  C1130  1  0.160600  0.703500  0.402000  1.0
  C  C1131  1  0.660600  0.796500  0.098000  1.0
  C  C1132  1  0.660600  0.203500  0.402000  1.0
  C  C1133  1  0.839400  0.703500  0.902000  1.0
  C  C1134  1  0.839400  0.296500  0.598000  1.0
  C  C1135  1  0.339400  0.203500  0.902000  1.0
  C  C1136  1  0.339400  0.796500  0.598000  1.0
  C  C1137  1  0.094500  0.336200  0.122600  1.0
  C  C1138  1  0.094500  0.663800  0.377400  1.0
  C  C1139  1  0.594500  0.836200  0.122600  1.0
  C  C1140  1  0.594500  0.163800  0.377400  1.0
  C  C1141  1  0.905500  0.663800  0.877400  1.0
  C  C1142  1  0.905500  0.336200  0.622600  1.0
  C  C1143  1  0.405500  0.163800  0.877400  1.0
  C  C1144  1  0.405500  0.836200  0.622600  1.0
  C  C1145  1  0.191700  0.273400  0.135100  1.0
  C  C1146  1  0.191700  0.726600  0.364900  1.0
  C  C1147  1  0.691700  0.773400  0.135100  1.0
  C  C1148  1  0.691700  0.226600  0.364900  1.0
  C  C1149  1  0.808300  0.726600  0.864900  1.0
  C  C1150  1  0.808300  0.273400  0.635100  1.0
  C  C1151  1  0.308300  0.226600  0.864900  1.0
  C  C1152  1  0.308300  0.773400  0.635100  1.0
  C  C1153  1  0.136200  0.244500  0.051500  1.0
  C  C1154  1  0.136200  0.755500  0.448500  1.0
  C  C1155  1  0.636200  0.744500  0.051500  1.0
  C  C1156  1  0.636200  0.255500  0.448500  1.0
  C  C1157  1  0.863800  0.755500  0.948500  1.0
  C  C1158  1  0.863800  0.244500  0.551500  1.0
  C  C1159  1  0.363800  0.255500  0.948500  1.0
  C  C1160  1  0.363800  0.744500  0.551500  1.0
  C  C1161  1  0.163000  0.363200  0.861300  1.0
  C  C1162  1  0.163000  0.636800  0.638700  1.0
  C  C1163  1  0.663000  0.863200  0.861300  1.0
  C  C1164  1  0.663000  0.136800  0.638700  1.0
  C  C1165  1  0.837000  0.636800  0.138700  1.0
  C  C1166  1  0.837000  0.363200  0.361300  1.0
  C  C1167  1  0.337000  0.136800  0.138700  1.0
  C  C1168  1  0.337000  0.863200  0.361300  1.0
  C  C1169  1  0.109800  0.318400  0.865400  1.0
  C  C1170  1  0.109800  0.681600  0.634600  1.0
  C  C1171  1  0.609800  0.818400  0.865400  1.0
  C  C1172  1  0.609800  0.181600  0.634600  1.0
  C  C1173  1  0.890200  0.681600  0.134600  1.0
  C  C1174  1  0.890200  0.318400  0.365400  1.0
  C  C1175  1  0.390200  0.181600  0.134600  1.0
  C  C1176  1  0.390200  0.818400  0.365400  1.0
  C  C1177  1  0.210300  0.333000  0.814200  1.0
  C  C1178  1  0.210300  0.667000  0.685800  1.0
  C  C1179  1  0.710300  0.833000  0.814200  1.0
  C  C1180  1  0.710300  0.167000  0.685800  1.0
  C  C1181  1  0.789700  0.667000  0.185800  1.0
  C  C1182  1  0.789700  0.333000  0.314200  1.0
  C  C1183  1  0.289700  0.167000  0.185800  1.0
  C  C1184  1  0.289700  0.833000  0.314200  1.0
  C  C1185  1  0.121600  0.414700  0.856100  1.0
  C  C1186  1  0.121600  0.585300  0.643900  1.0
  C  C1187  1  0.621600  0.914700  0.856100  1.0
  C  C1188  1  0.621600  0.085300  0.643900  1.0
  C  C1189  1  0.878400  0.585300  0.143900  1.0
  C  C1190  1  0.878400  0.414700  0.356100  1.0
  C  C1191  1  0.378400  0.085300  0.143900  1.0
  C  C1192  1  0.378400  0.914700  0.356100  1.0
  C  C1193  1  0.077800  0.630200  0.193000  1.0
  C  C1194  1  0.077800  0.369800  0.307000  1.0
  C  C1195  1  0.577800  0.130200  0.193000  1.0
  C  C1196  1  0.577800  0.869800  0.307000  1.0
  C  C1197  1  0.922200  0.369800  0.807000  1.0
  C  C1198  1  0.922200  0.630200  0.693000  1.0
  C  C1199  1  0.422200  0.869800  0.807000  1.0
  C  C1200  1  0.422200  0.130200  0.693000  1.0
  C  C1201  1  0.169000  0.708200  0.224700  1.0
  C  C1202  1  0.169000  0.291800  0.275300  1.0
  C  C1203  1  0.669000  0.208200  0.224700  1.0
  C  C1204  1  0.669000  0.791800  0.275300  1.0
  C  C1205  1  0.831000  0.291800  0.775300  1.0
  C  C1206  1  0.831000  0.708200  0.724700  1.0
  C  C1207  1  0.331000  0.791800  0.775300  1.0
  C  C1208  1  0.331000  0.208200  0.724700  1.0
  C  C1209  1  0.099700  0.696700  0.142400  1.0
  C  C1210  1  0.099700  0.303300  0.357600  1.0
  C  C1211  1  0.599700  0.196700  0.142400  1.0
  C  C1212  1  0.599700  0.803300  0.357600  1.0
  C  C1213  1  0.900300  0.303300  0.857600  1.0
  C  C1214  1  0.900300  0.696700  0.642400  1.0
  C  C1215  1  0.400300  0.803300  0.857600  1.0
  C  C1216  1  0.400300  0.196700  0.642400  1.0
  C  C1217  1  0.136800  0.668700  0.176800  1.0
  C  C1218  1  0.136800  0.331300  0.323200  1.0
  C  C1219  1  0.636800  0.168700  0.176800  1.0
  C  C1220  1  0.636800  0.831300  0.323200  1.0
  C  C1221  1  0.863200  0.331300  0.823200  1.0
  C  C1222  1  0.863200  0.668700  0.676800  1.0
  C  C1223  1  0.363200  0.831300  0.823200  1.0
  C  C1224  1  0.363200  0.168700  0.676800  1.0
  C  C1225  1  0.506700  0.615500  0.254800  1.0
  C  C1226  1  0.506700  0.384500  0.245200  1.0
  C  C1227  1  0.006700  0.115500  0.254800  1.0
  C  C1228  1  0.006700  0.884500  0.245200  1.0
  C  C1229  1  0.493300  0.384500  0.745200  1.0
  C  C1230  1  0.493300  0.615500  0.754800  1.0
  C  C1231  1  0.993300  0.884500  0.745200  1.0
  C  C1232  1  0.993300  0.115500  0.754800  1.0
  C  C1233  1  0.519300  0.577800  0.284300  1.0
  C  C1234  1  0.519300  0.422200  0.215700  1.0
  C  C1235  1  0.019300  0.077800  0.284300  1.0
  C  C1236  1  0.019300  0.922200  0.215700  1.0
  C  C1237  1  0.480700  0.422200  0.715700  1.0
  C  C1238  1  0.480700  0.577800  0.784300  1.0
  C  C1239  1  0.980700  0.922200  0.715700  1.0
  C  C1240  1  0.980700  0.077800  0.784300  1.0
  C  C1241  1  0.464800  0.672100  0.284600  1.0
  C  C1242  1  0.464800  0.327900  0.215400  1.0
  C  C1243  1  0.964800  0.172100  0.284600  1.0
  C  C1244  1  0.964800  0.827900  0.215400  1.0
  C  C1245  1  0.535200  0.327900  0.715400  1.0
  C  C1246  1  0.535200  0.672100  0.784600  1.0
  C  C1247  1  0.035200  0.827900  0.715400  1.0
  C  C1248  1  0.035200  0.172100  0.784600  1.0
  C  C1249  1  0.583600  0.633900  0.244800  1.0
  C  C1250  1  0.583600  0.366100  0.255200  1.0
  C  C1251  1  0.083600  0.133900  0.244800  1.0
  C  C1252  1  0.083600  0.866100  0.255200  1.0
  C  C1253  1  0.416400  0.366100  0.755200  1.0
  C  C1254  1  0.416400  0.633900  0.744800  1.0
  C  C1255  1  0.916400  0.866100  0.755200  1.0
  C  C1256  1  0.916400  0.133900  0.744800  1.0
  N  N1257  1  0.395100  0.533580  0.033280  1.0
  N  N1258  1  0.395100  0.466420  0.466720  1.0
  N  N1259  1  0.895100  0.033580  0.033280  1.0
  N  N1260  1  0.895100  0.966420  0.466720  1.0
  N  N1261  1  0.604900  0.466420  0.966720  1.0
  N  N1262  1  0.604900  0.533580  0.533280  1.0
  N  N1263  1  0.104900  0.966420  0.966720  1.0
  N  N1264  1  0.104900  0.033580  0.533280  1.0
  N  N1265  1  0.569800  0.580390  0.978660  1.0
  N  N1266  1  0.569800  0.419610  0.521340  1.0
  N  N1267  1  0.069800  0.080390  0.978660  1.0
  N  N1268  1  0.069800  0.919610  0.521340  1.0
  N  N1269  1  0.430200  0.419610  0.021340  1.0
  N  N1270  1  0.430200  0.580390  0.478660  1.0
  N  N1271  1  0.930200  0.919610  0.021340  1.0
  N  N1272  1  0.930200  0.080390  0.478660  1.0
  N  N1273  1  0.383700  0.576000  0.906800  1.0
  N  N1274  1  0.383700  0.424000  0.593200  1.0
  N  N1275  1  0.883700  0.076000  0.906800  1.0
  N  N1276  1  0.883700  0.924000  0.593200  1.0
  N  N1277  1  0.616300  0.424000  0.093200  1.0
  N  N1278  1  0.616300  0.576000  0.406800  1.0
  N  N1279  1  0.116300  0.924000  0.093200  1.0
  N  N1280  1  0.116300  0.076000  0.406800  1.0
  N  N1281  1  0.451500  0.719770  0.005940  1.0
  N  N1282  1  0.451500  0.280230  0.494060  1.0
  N  N1283  1  0.951500  0.219770  0.005940  1.0
  N  N1284  1  0.951500  0.780230  0.494060  1.0
  N  N1285  1  0.548500  0.280230  0.994060  1.0
  N  N1286  1  0.548500  0.719770  0.505940  1.0
  N  N1287  1  0.048500  0.780230  0.994060  1.0
  N  N1288  1  0.048500  0.219770  0.505940  1.0
  N  N1289  1  0.429800  0.772120  0.042230  1.0
  N  N1290  1  0.429800  0.227880  0.457770  1.0
  N  N1291  1  0.929800  0.272120  0.042230  1.0
  N  N1292  1  0.929800  0.727880  0.457770  1.0
  N  N1293  1  0.570200  0.227880  0.957770  1.0
  N  N1294  1  0.570200  0.772120  0.542230  1.0
  N  N1295  1  0.070200  0.727880  0.957770  1.0
  N  N1296  1  0.070200  0.272120  0.542230  1.0
  N  N1297  1  0.325900  0.675400  0.032600  1.0
  N  N1298  1  0.325900  0.324600  0.467400  1.0
  N  N1299  1  0.825900  0.175400  0.032600  1.0
  N  N1300  1  0.825900  0.824600  0.467400  1.0
  N  N1301  1  0.674100  0.324600  0.967400  1.0
  N  N1302  1  0.674100  0.675400  0.532600  1.0
  N  N1303  1  0.174100  0.824600  0.967400  1.0
  N  N1304  1  0.174100  0.175400  0.532600  1.0
  N  N1305  1  0.316700  0.734000  0.063400  1.0
  N  N1306  1  0.316700  0.266000  0.436600  1.0
  N  N1307  1  0.816700  0.234000  0.063400  1.0
  N  N1308  1  0.816700  0.766000  0.436600  1.0
  N  N1309  1  0.683300  0.266000  0.936600  1.0
  N  N1310  1  0.683300  0.734000  0.563400  1.0
  N  N1311  1  0.183300  0.766000  0.936600  1.0
  N  N1312  1  0.183300  0.234000  0.563400  1.0
  N  N1313  1  0.457000  0.688470  0.088210  1.0
  N  N1314  1  0.457000  0.311530  0.411790  1.0
  N  N1315  1  0.957000  0.188470  0.088210  1.0
  N  N1316  1  0.957000  0.811530  0.411790  1.0
  N  N1317  1  0.543000  0.311530  0.911790  1.0
  N  N1318  1  0.543000  0.688470  0.588210  1.0
  N  N1319  1  0.043000  0.811530  0.911790  1.0
  N  N1320  1  0.043000  0.188470  0.588210  1.0
  N  N1321  1  0.426600  0.743240  0.114320  1.0
  N  N1322  1  0.426600  0.256760  0.385680  1.0
  N  N1323  1  0.926600  0.243240  0.114320  1.0
  N  N1324  1  0.926600  0.756760  0.385680  1.0
  N  N1325  1  0.573400  0.256760  0.885680  1.0
  N  N1326  1  0.573400  0.743240  0.614320  1.0
  N  N1327  1  0.073400  0.756760  0.885680  1.0
  N  N1328  1  0.073400  0.243240  0.614320  1.0
  N  N1329  1  0.304900  0.415240  0.066470  1.0
  N  N1330  1  0.304900  0.584760  0.433530  1.0
  N  N1331  1  0.804900  0.915240  0.066470  1.0
  N  N1332  1  0.804900  0.084760  0.433530  1.0
  N  N1333  1  0.695100  0.584760  0.933530  1.0
  N  N1334  1  0.695100  0.415240  0.566470  1.0
  N  N1335  1  0.195100  0.084760  0.933530  1.0
  N  N1336  1  0.195100  0.915240  0.566470  1.0
  N  N1337  1  0.301400  0.439230  0.989410  1.0
  N  N1338  1  0.301400  0.560770  0.510590  1.0
  N  N1339  1  0.801400  0.939230  0.989410  1.0
  N  N1340  1  0.801400  0.060770  0.510590  1.0
  N  N1341  1  0.698600  0.560770  0.010590  1.0
  N  N1342  1  0.698600  0.439230  0.489410  1.0
  N  N1343  1  0.198600  0.060770  0.010590  1.0
  N  N1344  1  0.198600  0.939230  0.489410  1.0
  N  N1345  1  0.280900  0.529900  0.085550  1.0
  N  N1346  1  0.280900  0.470100  0.414450  1.0
  N  N1347  1  0.780900  0.029900  0.085550  1.0
  N  N1348  1  0.780900  0.970100  0.414450  1.0
  N  N1349  1  0.719100  0.470100  0.914450  1.0
  N  N1350  1  0.719100  0.529900  0.585550  1.0
  N  N1351  1  0.219100  0.970100  0.914450  1.0
  N  N1352  1  0.219100  0.029900  0.585550  1.0
  N  N1353  1  0.405000  0.510540  0.114250  1.0
  N  N1354  1  0.405000  0.489460  0.385750  1.0
  N  N1355  1  0.905000  0.010540  0.114250  1.0
  N  N1356  1  0.905000  0.989460  0.385750  1.0
  N  N1357  1  0.595000  0.489460  0.885750  1.0
  N  N1358  1  0.595000  0.510540  0.614250  1.0
  N  N1359  1  0.095000  0.989460  0.885750  1.0
  N  N1360  1  0.095000  0.010540  0.614250  1.0
  O  O1361  1  0.306600  0.492600  0.831290  1
  O  O1362  1  0.306600  0.507400  0.668710  1
  O  O1363  1  0.806600  0.992600  0.831290  1
  O  O1364  1  0.806600  0.007400  0.668710  1
  O  O1365  1  0.693400  0.507400  0.168710  1
  O  O1366  1  0.693400  0.492600  0.331290  1
  O  O1367  1  0.193400  0.007400  0.168710  1
  O  O1368  1  0.193400  0.992600  0.331290  1
  F  F1369  1  0.274000  0.430900  0.238200  1
  F  F1370  1  0.274000  0.569100  0.261800  1
  F  F1371  1  0.774000  0.930900  0.238200  1
  F  F1372  1  0.774000  0.069100  0.261800  1
  F  F1373  1  0.726000  0.569100  0.761800  1
  F  F1374  1  0.726000  0.430900  0.738200  1
  F  F1375  1  0.226000  0.069100  0.761800  1
  F  F1376  1  0.226000  0.930900  0.738200  1
  F  F1377  1  0.301000  0.496000  0.202800  1
  F  F1378  1  0.301000  0.504000  0.297200  1
  F  F1379  1  0.801000  0.996000  0.202800  1
  F  F1380  1  0.801000  0.004000  0.297200  1
  F  F1381  1  0.699000  0.504000  0.797200  1
  F  F1382  1  0.699000  0.496000  0.702800  1
  F  F1383  1  0.199000  0.004000  0.797200  1
  F  F1384  1  0.199000  0.996000  0.702800  1
  F  F1385  1  0.194700  0.479800  0.219100  1
  F  F1386  1  0.194700  0.520200  0.280900  1
  F  F1387  1  0.694700  0.979800  0.219100  1
  F  F1388  1  0.694700  0.020200  0.280900  1
  F  F1389  1  0.805300  0.520200  0.780900  1
  F  F1390  1  0.805300  0.479800  0.719100  1
  F  F1391  1  0.305300  0.020200  0.780900  1
  F  F1392  1  0.305300  0.979800  0.719100  1
  F  F1393  1  0.024300  0.494100  0.050310  1.0
  F  F1394  1  0.024300  0.505900  0.449690  1.0
  F  F1395  1  0.524300  0.994100  0.050310  1.0
  F  F1396  1  0.524300  0.005900  0.449690  1.0
  F  F1397  1  0.975700  0.505900  0.949690  1.0
  F  F1398  1  0.975700  0.494100  0.550310  1.0
  F  F1399  1  0.475700  0.005900  0.949690  1.0
  F  F1400  1  0.475700  0.994100  0.550310  1.0
  F  F1401  1  0.082300  0.505140  0.985830  1.0
  F  F1402  1  0.082300  0.494860  0.514170  1.0
  F  F1403  1  0.582300  0.005140  0.985830  1.0
  F  F1404  1  0.582300  0.994860  0.514170  1.0
  F  F1405  1  0.917700  0.494860  0.014170  1.0
  F  F1406  1  0.917700  0.505140  0.485830  1.0
  F  F1407  1  0.417700  0.994860  0.014170  1.0
  F  F1408  1  0.417700  0.005140  0.485830  1.0
  F  F1409  1  0.996000  0.570140  0.030200  1.0
  F  F1410  1  0.996000  0.429860  0.469800  1.0
  F  F1411  1  0.496000  0.070140  0.030200  1.0
  F  F1412  1  0.496000  0.929860  0.469800  1.0
  F  F1413  1  0.004000  0.429860  0.969800  1.0
  F  F1414  1  0.004000  0.570140  0.530200  1.0
  F  F1415  1  0.504000  0.929860  0.969800  1.0
  F  F1416  1  0.504000  0.070140  0.530200  1.0
  F  F1417  1  0.335300  0.464800  0.224600  1.0
  F  F1418  1  0.335300  0.535200  0.275400  1.0
  F  F1419  1  0.835300  0.964800  0.224600  1.0
  F  F1420  1  0.835300  0.035200  0.275400  1.0
  F  F1421  1  0.664700  0.535200  0.775400  1.0
  F  F1422  1  0.664700  0.464800  0.724600  1.0
  F  F1423  1  0.164700  0.035200  0.775400  1.0
  F  F1424  1  0.164700  0.964800  0.724600  1.0
  F  F1425  1  0.254000  0.505400  0.198200  1.0
  F  F1426  1  0.254000  0.494600  0.301800  1.0
  F  F1427  1  0.754000  0.005400  0.198200  1.0
  F  F1428  1  0.754000  0.994600  0.301800  1.0
  F  F1429  1  0.746000  0.494600  0.801800  1.0
  F  F1430  1  0.746000  0.505400  0.698200  1.0
  F  F1431  1  0.246000  0.994600  0.801800  1.0
  F  F1432  1  0.246000  0.005400  0.698200  1.0
  F  F1433  1  0.216600  0.447600  0.227900  1.0
  F  F1434  1  0.216600  0.552400  0.272100  1.0
  F  F1435  1  0.716600  0.947600  0.227900  1.0
  F  F1436  1  0.716600  0.052400  0.272100  1.0
  F  F1437  1  0.783400  0.552400  0.772100  1.0
  F  F1438  1  0.783400  0.447600  0.727900  1.0
  F  F1439  1  0.283400  0.052400  0.772100  1.0
  F  F1440  1  0.283400  0.947600  0.727900  1.0
