# generated using pymatgen
data_FeCoBPH92C61N13OF12
_symmetry_space_group_name_H-M   'P 1'
_cell_length_a   19.23300000
_cell_length_b   24.72400000
_cell_length_c   29.88300000
_cell_angle_alpha   113.79000000
_cell_angle_beta   90.00000000
_cell_angle_gamma   90.00000000
_symmetry_Int_Tables_number   1
_chemical_formula_structural   FeCoBPH92C61N13OF12
_chemical_formula_sum   'Fe8 Co8 B8 P8 H736 C488 N104 O8 F96'
_cell_volume   13002.45427188
_cell_formula_units_Z   8
loop_
 _symmetry_equiv_pos_site_id
 _symmetry_equiv_pos_as_xyz
  1  'x, y, z'
loop_
 _atom_site_type_symbol
 _atom_site_label
 _atom_site_symmetry_multiplicity
 _atom_site_fract_x
 _atom_site_fract_y
 _atom_site_fract_z
 _atom_site_occupancy
  Fe  Fe1  1  0.076620  0.355140  0.985620  1.0
  Fe  Fe2  1  0.076620  0.644860  0.514380  1.0
  Fe  Fe3  1  0.576620  0.855140  0.985620  1.0
  Fe  Fe4  1  0.576620  0.144860  0.514380  1.0
  Fe  Fe5  1  0.923380  0.644860  0.014380  1.0
  Fe  Fe6  1  0.923380  0.355140  0.485620  1.0
  Fe  Fe7  1  0.423380  0.144860  0.014380  1.0
  Fe  Fe8  1  0.423380  0.855140  0.485620  1.0
  Co  Co9  1  0.857560  0.469520  0.049490  1.0
  Co  Co10  1  0.857560  0.530480  0.450510  1.0
  Co  Co11  1  0.357560  0.969520  0.049490  1.0
  Co  Co12  1  0.357560  0.030480  0.450510  1.0
  Co  Co13  1  0.142440  0.530480  0.950510  1.0
  Co  Co14  1  0.142440  0.469520  0.549490  1.0
  Co  Co15  1  0.642440  0.030480  0.950510  1.0
  Co  Co16  1  0.642440  0.969520  0.549490  1.0
  B  B17  1  0.117300  0.229900  0.915600  1.0
  B  B18  1  0.117300  0.770100  0.584400  1.0
  B  B19  1  0.617300  0.729900  0.915600  1.0
  B  B20  1  0.617300  0.270100  0.584400  1.0
  B  B21  1  0.882700  0.770100  0.084400  1.0
  B  B22  1  0.882700  0.229900  0.415600  1.0
  B  B23  1  0.382700  0.270100  0.084400  1.0
  B  B24  1  0.382700  0.729900  0.415600  1.0
  P  P25  1  0.759000  0.500000  0.250000  1
  P  P26  1  0.259000  0.000000  0.250000  1
  P  P27  1  0.241000  0.500000  0.750000  1
  P  P28  1  0.741000  0.000000  0.750000  1
  P  P29  1  0.000000  0.000000  0.000000  1
  P  P30  1  0.000000  0.000000  0.500000  1
  P  P31  1  0.500000  0.500000  0.000000  1
  P  P32  1  0.500000  0.500000  0.500000  1
  H  H33  1  0.821100  0.466500  0.811500  1
  H  H34  1  0.821100  0.533500  0.688500  1
  H  H35  1  0.321100  0.966500  0.811500  1
  H  H36  1  0.321100  0.033500  0.688500  1
  H  H37  1  0.178900  0.533500  0.188500  1
  H  H38  1  0.178900  0.466500  0.311500  1
  H  H39  1  0.678900  0.033500  0.188500  1
  H  H40  1  0.678900  0.966500  0.311500  1
  H  H41  1  0.780200  0.530500  0.785000  1
  H  H42  1  0.780200  0.469500  0.715000  1
  H  H43  1  0.280200  0.030500  0.785000  1
  H  H44  1  0.280200  0.969500  0.715000  1
  H  H45  1  0.219800  0.469500  0.215000  1
  H  H46  1  0.219800  0.530500  0.285000  1
  H  H47  1  0.719800  0.969500  0.215000  1
  H  H48  1  0.719800  0.030500  0.285000  1
  H  H49  1  0.750600  0.567500  0.837400  1
  H  H50  1  0.750600  0.432500  0.662600  1
  H  H51  1  0.250600  0.067500  0.837400  1
  H  H52  1  0.250600  0.932500  0.662600  1
  H  H53  1  0.249400  0.432500  0.162600  1
  H  H54  1  0.249400  0.567500  0.337400  1
  H  H55  1  0.749400  0.932500  0.162600  1
  H  H56  1  0.749400  0.067500  0.337400  1
  H  H57  1  0.715000  0.507800  0.803900  1
  H  H58  1  0.715000  0.492200  0.696100  1
  H  H59  1  0.215000  0.007800  0.803900  1
  H  H60  1  0.215000  0.992200  0.696100  1
  H  H61  1  0.285000  0.492200  0.196100  1
  H  H62  1  0.285000  0.507800  0.303900  1
  H  H63  1  0.785000  0.992200  0.196100  1
  H  H64  1  0.785000  0.007800  0.303900  1
  H  H65  1  0.626900  0.284000  0.873900  1
  H  H66  1  0.626900  0.716000  0.626100  1
  H  H67  1  0.126900  0.784000  0.873900  1
  H  H68  1  0.126900  0.216000  0.626100  1
  H  H69  1  0.373100  0.716000  0.126100  1
  H  H70  1  0.373100  0.284000  0.373900  1
  H  H71  1  0.873100  0.216000  0.126100  1
  H  H72  1  0.873100  0.784000  0.373900  1
  H  H73  1  0.572300  0.307700  0.847200  1
  H  H74  1  0.572300  0.692300  0.652800  1
  H  H75  1  0.072300  0.807700  0.847200  1
  H  H76  1  0.072300  0.192300  0.652800  1
  H  H77  1  0.427700  0.692300  0.152800  1
  H  H78  1  0.427700  0.307700  0.347200  1
  H  H79  1  0.927700  0.192300  0.152800  1
  H  H80  1  0.927700  0.807700  0.347200  1
  H  H81  1  0.583400  0.340800  0.903800  1
  H  H82  1  0.583400  0.659200  0.596200  1
  H  H83  1  0.083400  0.840800  0.903800  1
  H  H84  1  0.083400  0.159200  0.596200  1
  H  H85  1  0.416600  0.659200  0.096200  1
  H  H86  1  0.416600  0.340800  0.403800  1
  H  H87  1  0.916600  0.159200  0.096200  1
  H  H88  1  0.916600  0.840800  0.403800  1
  H  H89  1  0.735300  0.351000  0.812200  1
  H  H90  1  0.735300  0.649000  0.687800  1
  H  H91  1  0.235300  0.851000  0.812200  1
  H  H92  1  0.235300  0.149000  0.687800  1
  H  H93  1  0.264700  0.649000  0.187800  1
  H  H94  1  0.264700  0.351000  0.312200  1
  H  H95  1  0.764700  0.149000  0.187800  1
  H  H96  1  0.764700  0.851000  0.312200  1
  H  H97  1  0.676800  0.303500  0.790500  1
  H  H98  1  0.676800  0.696500  0.709500  1
  H  H99  1  0.176800  0.803500  0.790500  1
  H  H100  1  0.176800  0.196500  0.709500  1
  H  H101  1  0.323200  0.696500  0.209500  1
  H  H102  1  0.323200  0.303500  0.290500  1
  H  H103  1  0.823200  0.196500  0.209500  1
  H  H104  1  0.823200  0.803500  0.290500  1
  H  H105  1  0.734900  0.294400  0.823600  1
  H  H106  1  0.734900  0.705600  0.676400  1
  H  H107  1  0.234900  0.794400  0.823600  1
  H  H108  1  0.234900  0.205600  0.676400  1
  H  H109  1  0.265100  0.705600  0.176400  1
  H  H110  1  0.265100  0.294400  0.323600  1
  H  H111  1  0.765100  0.205600  0.176400  1
  H  H112  1  0.765100  0.794400  0.323600  1
  H  H113  1  0.597600  0.430800  0.885900  1
  H  H114  1  0.597600  0.569200  0.614100  1
  H  H115  1  0.097600  0.930800  0.885900  1
  H  H116  1  0.097600  0.069200  0.614100  1
  H  H117  1  0.402400  0.569200  0.114100  1
  H  H118  1  0.402400  0.430800  0.385900  1
  H  H119  1  0.902400  0.069200  0.114100  1
  H  H120  1  0.902400  0.930800  0.385900  1
  H  H121  1  0.596100  0.394100  0.829200  1
  H  H122  1  0.596100  0.605900  0.670800  1
  H  H123  1  0.096100  0.894100  0.829200  1
  H  H124  1  0.096100  0.105900  0.670800  1
  H  H125  1  0.403900  0.605900  0.170800  1
  H  H126  1  0.403900  0.394100  0.329200  1
  H  H127  1  0.903900  0.105900  0.170800  1
  H  H128  1  0.903900  0.894100  0.329200  1
  H  H129  1  0.660300  0.434200  0.853600  1
  H  H130  1  0.660300  0.565800  0.646400  1
  H  H131  1  0.160300  0.934200  0.853600  1
  H  H132  1  0.160300  0.065800  0.646400  1
  H  H133  1  0.339700  0.565800  0.146400  1
  H  H134  1  0.339700  0.434200  0.353600  1
  H  H135  1  0.839700  0.065800  0.146400  1
  H  H136  1  0.839700  0.934200  0.353600  1
  H  H137  1  0.724000  0.254300  0.120600  1
  H  H138  1  0.724000  0.745700  0.379400  1
  H  H139  1  0.224000  0.754300  0.120600  1
  H  H140  1  0.224000  0.245700  0.379400  1
  H  H141  1  0.276000  0.745700  0.879400  1
  H  H142  1  0.276000  0.254300  0.620600  1
  H  H143  1  0.776000  0.245700  0.879400  1
  H  H144  1  0.776000  0.754300  0.620600  1
  H  H145  1  0.647200  0.243600  0.132700  1
  H  H146  1  0.647200  0.756400  0.367300  1
  H  H147  1  0.147200  0.743600  0.132700  1
  H  H148  1  0.147200  0.256400  0.367300  1
  H  H149  1  0.352800  0.756400  0.867300  1
  H  H150  1  0.352800  0.243600  0.632700  1
  H  H151  1  0.852800  0.256400  0.867300  1
  H  H152  1  0.852800  0.743600  0.632700  1
  H  H153  1  0.684500  0.303300  0.163900  1
  H  H154  1  0.684500  0.696700  0.336100  1
  H  H155  1  0.184500  0.803300  0.163900  1
  H  H156  1  0.184500  0.196700  0.336100  1
  H  H157  1  0.315500  0.696700  0.836100  1
  H  H158  1  0.315500  0.303300  0.663900  1
  H  H159  1  0.815500  0.196700  0.836100  1
  H  H160  1  0.815500  0.803300  0.663900  1
  H  H161  1  0.613600  0.258900  0.026400  1
  H  H162  1  0.613600  0.741100  0.473600  1
  H  H163  1  0.113600  0.758900  0.026400  1
  H  H164  1  0.113600  0.241100  0.473600  1
  H  H165  1  0.386400  0.741100  0.973600  1
  H  H166  1  0.386400  0.258900  0.526400  1
  H  H167  1  0.886400  0.241100  0.973600  1
  H  H168  1  0.886400  0.758900  0.526400  1
  H  H169  1  0.586500  0.229000  0.060500  1
  H  H170  1  0.586500  0.771000  0.439500  1
  H  H171  1  0.086500  0.729000  0.060500  1
  H  H172  1  0.086500  0.271000  0.439500  1
  H  H173  1  0.413500  0.771000  0.939500  1
  H  H174  1  0.413500  0.229000  0.560500  1
  H  H175  1  0.913500  0.271000  0.939500  1
  H  H176  1  0.913500  0.729000  0.560500  1
  H  H177  1  0.662400  0.216600  0.039600  1
  H  H178  1  0.662400  0.783400  0.460400  1
  H  H179  1  0.162400  0.716600  0.039600  1
  H  H180  1  0.162400  0.283400  0.460400  1
  H  H181  1  0.337600  0.783400  0.960400  1
  H  H182  1  0.337600  0.216600  0.539600  1
  H  H183  1  0.837600  0.283400  0.960400  1
  H  H184  1  0.837600  0.716600  0.539600  1
  H  H185  1  0.599000  0.359700  0.154600  1
  H  H186  1  0.599000  0.640300  0.345400  1
  H  H187  1  0.099000  0.859700  0.154600  1
  H  H188  1  0.099000  0.140300  0.345400  1
  H  H189  1  0.401000  0.640300  0.845400  1
  H  H190  1  0.401000  0.359700  0.654600  1
  H  H191  1  0.901000  0.140300  0.845400  1
  H  H192  1  0.901000  0.859700  0.654600  1
  H  H193  1  0.550000  0.320600  0.111900  1
  H  H194  1  0.550000  0.679400  0.388100  1
  H  H195  1  0.050000  0.820600  0.111900  1
  H  H196  1  0.050000  0.179400  0.388100  1
  H  H197  1  0.450000  0.679400  0.888100  1
  H  H198  1  0.450000  0.320600  0.611900  1
  H  H199  1  0.950000  0.179400  0.888100  1
  H  H200  1  0.950000  0.820600  0.611900  1
  H  H201  1  0.593000  0.372000  0.107200  1
  H  H202  1  0.593000  0.628000  0.392800  1
  H  H203  1  0.093000  0.872000  0.107200  1
  H  H204  1  0.093000  0.128000  0.392800  1
  H  H205  1  0.407000  0.628000  0.892800  1
  H  H206  1  0.407000  0.372000  0.607200  1
  H  H207  1  0.907000  0.128000  0.892800  1
  H  H208  1  0.907000  0.872000  0.607200  1
  H  H209  1  0.964800  0.614600  0.327600  1
  H  H210  1  0.964800  0.385400  0.172400  1
  H  H211  1  0.464800  0.114600  0.327600  1
  H  H212  1  0.464800  0.885400  0.172400  1
  H  H213  1  0.035200  0.385400  0.672400  1
  H  H214  1  0.035200  0.614600  0.827600  1
  H  H215  1  0.535200  0.885400  0.672400  1
  H  H216  1  0.535200  0.114600  0.827600  1
  H  H217  1  0.945000  0.554500  0.284700  1
  H  H218  1  0.945000  0.445500  0.215300  1
  H  H219  1  0.445000  0.054500  0.284700  1
  H  H220  1  0.445000  0.945500  0.215300  1
  H  H221  1  0.055000  0.445500  0.715300  1
  H  H222  1  0.055000  0.554500  0.784700  1
  H  H223  1  0.555000  0.945500  0.715300  1
  H  H224  1  0.555000  0.054500  0.784700  1
  H  H225  1  0.900000  0.611100  0.294700  1
  H  H226  1  0.900000  0.388900  0.205300  1
  H  H227  1  0.400000  0.111100  0.294700  1
  H  H228  1  0.400000  0.888900  0.205300  1
  H  H229  1  0.100000  0.388900  0.705300  1
  H  H230  1  0.100000  0.611100  0.794700  1
  H  H231  1  0.600000  0.888900  0.705300  1
  H  H232  1  0.600000  0.111100  0.794700  1
  H  H233  1  0.954400  0.685300  0.263600  1
  H  H234  1  0.954400  0.314700  0.236400  1
  H  H235  1  0.454400  0.185300  0.263600  1
  H  H236  1  0.454400  0.814700  0.236400  1
  H  H237  1  0.045600  0.314700  0.736400  1
  H  H238  1  0.045600  0.685300  0.763600  1
  H  H239  1  0.545600  0.814700  0.736400  1
  H  H240  1  0.545600  0.185300  0.763600  1
  H  H241  1  0.033000  0.681500  0.248800  1
  H  H242  1  0.033000  0.318500  0.251200  1
  H  H243  1  0.533000  0.181500  0.248800  1
  H  H244  1  0.533000  0.818500  0.251200  1
  H  H245  1  0.967000  0.318500  0.751200  1
  H  H246  1  0.967000  0.681500  0.748800  1
  H  H247  1  0.467000  0.818500  0.751200  1
  H  H248  1  0.467000  0.181500  0.748800  1
  H  H249  1  0.012200  0.691600  0.302300  1
  H  H250  1  0.012200  0.308400  0.197700  1
  H  H251  1  0.512200  0.191600  0.302300  1
  H  H252  1  0.512200  0.808400  0.197700  1
  H  H253  1  0.987800  0.308400  0.697700  1
  H  H254  1  0.987800  0.691600  0.802300  1
  H  H255  1  0.487800  0.808400  0.697700  1
  H  H256  1  0.487800  0.191600  0.802300  1
  H  H257  1  0.074100  0.610800  0.300500  1
  H  H258  1  0.074100  0.389200  0.199500  1
  H  H259  1  0.574100  0.110800  0.300500  1
  H  H260  1  0.574100  0.889200  0.199500  1
  H  H261  1  0.925900  0.389200  0.699500  1
  H  H262  1  0.925900  0.610800  0.800500  1
  H  H263  1  0.425900  0.889200  0.699500  1
  H  H264  1  0.425900  0.110800  0.800500  1
  H  H265  1  0.095700  0.582400  0.245200  1
  H  H266  1  0.095700  0.417600  0.254800  1
  H  H267  1  0.595700  0.082400  0.245200  1
  H  H268  1  0.595700  0.917600  0.254800  1
  H  H269  1  0.904300  0.417600  0.754800  1
  H  H270  1  0.904300  0.582400  0.745200  1
  H  H271  1  0.404300  0.917600  0.754800  1
  H  H272  1  0.404300  0.082400  0.745200  1
  H  H273  1  0.045900  0.548200  0.266300  1
  H  H274  1  0.045900  0.451800  0.233700  1
  H  H275  1  0.545900  0.048200  0.266300  1
  H  H276  1  0.545900  0.951800  0.233700  1
  H  H277  1  0.954100  0.451800  0.733700  1
  H  H278  1  0.954100  0.548200  0.766300  1
  H  H279  1  0.454100  0.951800  0.733700  1
  H  H280  1  0.454100  0.048200  0.766300  1
  H  H281  1  0.031000  0.543000  0.265000  1
  H  H282  1  0.031000  0.457000  0.235000  1
  H  H283  1  0.531000  0.043000  0.265000  1
  H  H284  1  0.531000  0.957000  0.235000  1
  H  H285  1  0.969000  0.457000  0.735000  1
  H  H286  1  0.969000  0.543000  0.765000  1
  H  H287  1  0.469000  0.957000  0.735000  1
  H  H288  1  0.469000  0.043000  0.765000  1
  H  H289  1  0.961100  0.568700  0.292200  1
  H  H290  1  0.961100  0.431300  0.207800  1
  H  H291  1  0.461100  0.068700  0.292200  1
  H  H292  1  0.461100  0.931300  0.207800  1
  H  H293  1  0.038900  0.431300  0.707800  1
  H  H294  1  0.038900  0.568700  0.792200  1
  H  H295  1  0.538900  0.931300  0.707800  1
  H  H296  1  0.538900  0.068700  0.792200  1
  H  H297  1  0.031600  0.600600  0.313400  1
  H  H298  1  0.031600  0.399400  0.186600  1
  H  H299  1  0.531600  0.100600  0.313400  1
  H  H300  1  0.531600  0.899400  0.186600  1
  H  H301  1  0.968400  0.399400  0.686600  1
  H  H302  1  0.968400  0.600600  0.813400  1
  H  H303  1  0.468400  0.899400  0.686600  1
  H  H304  1  0.468400  0.100600  0.813400  1
  H  H305  1  0.989500  0.696400  0.310800  1
  H  H306  1  0.989500  0.303600  0.189200  1
  H  H307  1  0.489500  0.196400  0.310800  1
  H  H308  1  0.489500  0.803600  0.189200  1
  H  H309  1  0.010500  0.303600  0.689200  1
  H  H310  1  0.010500  0.696400  0.810800  1
  H  H311  1  0.510500  0.803600  0.689200  1
  H  H312  1  0.510500  0.196400  0.810800  1
  H  H313  1  0.917200  0.666600  0.292400  1
  H  H314  1  0.917200  0.333400  0.207600  1
  H  H315  1  0.417200  0.166600  0.292400  1
  H  H316  1  0.417200  0.833400  0.207600  1
  H  H317  1  0.082800  0.333400  0.707600  1
  H  H318  1  0.082800  0.666600  0.792400  1
  H  H319  1  0.582800  0.833400  0.707600  1
  H  H320  1  0.582800  0.166600  0.792400  1
  H  H321  1  0.959000  0.693400  0.261200  1
  H  H322  1  0.959000  0.306600  0.238800  1
  H  H323  1  0.459000  0.193400  0.261200  1
  H  H324  1  0.459000  0.806600  0.238800  1
  H  H325  1  0.041000  0.306600  0.738800  1
  H  H326  1  0.041000  0.693400  0.761200  1
  H  H327  1  0.541000  0.806600  0.738800  1
  H  H328  1  0.541000  0.193400  0.761200  1
  H  H329  1  0.099500  0.654000  0.276800  1
  H  H330  1  0.099500  0.346000  0.223200  1
  H  H331  1  0.599500  0.154000  0.276800  1
  H  H332  1  0.599500  0.846000  0.223200  1
  H  H333  1  0.900500  0.346000  0.723200  1
  H  H334  1  0.900500  0.654000  0.776800  1
  H  H335  1  0.400500  0.846000  0.723200  1
  H  H336  1  0.400500  0.154000  0.776800  1
  H  H337  1  0.076100  0.654100  0.226600  1
  H  H338  1  0.076100  0.345900  0.273400  1
  H  H339  1  0.576100  0.154100  0.226600  1
  H  H340  1  0.576100  0.845900  0.273400  1
  H  H341  1  0.923900  0.345900  0.773400  1
  H  H342  1  0.923900  0.654100  0.726600  1
  H  H343  1  0.423900  0.845900  0.773400  1
  H  H344  1  0.423900  0.154100  0.726600  1
  H  H345  1  0.103800  0.595700  0.229100  1
  H  H346  1  0.103800  0.404300  0.270900  1
  H  H347  1  0.603800  0.095700  0.229100  1
  H  H348  1  0.603800  0.904300  0.270900  1
  H  H349  1  0.896200  0.404300  0.770900  1
  H  H350  1  0.896200  0.595700  0.729100  1
  H  H351  1  0.396200  0.904300  0.770900  1
  H  H352  1  0.396200  0.095700  0.729100  1
  H  H353  1  0.555900  0.715800  0.164400  1
  H  H354  1  0.555900  0.284200  0.335600  1
  H  H355  1  0.055900  0.215800  0.164400  1
  H  H356  1  0.055900  0.784200  0.335600  1
  H  H357  1  0.444100  0.284200  0.835600  1
  H  H358  1  0.444100  0.715800  0.664400  1
  H  H359  1  0.944100  0.784200  0.835600  1
  H  H360  1  0.944100  0.215800  0.664400  1
  H  H361  1  0.572900  0.658300  0.115100  1
  H  H362  1  0.572900  0.341700  0.384900  1
  H  H363  1  0.072900  0.158300  0.115100  1
  H  H364  1  0.072900  0.841700  0.384900  1
  H  H365  1  0.427100  0.341700  0.884900  1
  H  H366  1  0.427100  0.658300  0.615100  1
  H  H367  1  0.927100  0.841700  0.884900  1
  H  H368  1  0.927100  0.158300  0.615100  1
  H  H369  1  0.629100  0.711700  0.135200  1
  H  H370  1  0.629100  0.288300  0.364800  1
  H  H371  1  0.129100  0.211700  0.135200  1
  H  H372  1  0.129100  0.788300  0.364800  1
  H  H373  1  0.370900  0.288300  0.864800  1
  H  H374  1  0.370900  0.711700  0.635200  1
  H  H375  1  0.870900  0.788300  0.864800  1
  H  H376  1  0.870900  0.211700  0.635200  1
  H  H377  1  0.542400  0.641700  0.185700  1
  H  H378  1  0.542400  0.358300  0.314300  1
  H  H379  1  0.042400  0.141700  0.185700  1
  H  H380  1  0.042400  0.858300  0.314300  1
  H  H381  1  0.457600  0.358300  0.814300  1
  H  H382  1  0.457600  0.641700  0.685700  1
  H  H383  1  0.957600  0.858300  0.814300  1
  H  H384  1  0.957600  0.141700  0.685700  1
  H  H385  1  0.592800  0.638400  0.225700  1
  H  H386  1  0.592800  0.361600  0.274300  1
  H  H387  1  0.092800  0.138400  0.225700  1
  H  H388  1  0.092800  0.861600  0.274300  1
  H  H389  1  0.407200  0.361600  0.774300  1
  H  H390  1  0.407200  0.638400  0.725700  1
  H  H391  1  0.907200  0.861600  0.774300  1
  H  H392  1  0.907200  0.138400  0.725700  1
  H  H393  1  0.595800  0.589600  0.172200  1
  H  H394  1  0.595800  0.410400  0.327800  1
  H  H395  1  0.095800  0.089600  0.172200  1
  H  H396  1  0.095800  0.910400  0.327800  1
  H  H397  1  0.404200  0.410400  0.827800  1
  H  H398  1  0.404200  0.589600  0.672200  1
  H  H399  1  0.904200  0.910400  0.827800  1
  H  H400  1  0.904200  0.089600  0.672200  1
  H  H401  1  0.626900  0.721300  0.243500  1
  H  H402  1  0.626900  0.278700  0.256500  1
  H  H403  1  0.126900  0.221300  0.243500  1
  H  H404  1  0.126900  0.778700  0.256500  1
  H  H405  1  0.373100  0.278700  0.756500  1
  H  H406  1  0.373100  0.721300  0.743500  1
  H  H407  1  0.873100  0.778700  0.756500  1
  H  H408  1  0.873100  0.221300  0.743500  1
  H  H409  1  0.701200  0.729000  0.225200  1
  H  H410  1  0.701200  0.271000  0.274800  1
  H  H411  1  0.201200  0.229000  0.225200  1
  H  H412  1  0.201200  0.771000  0.274800  1
  H  H413  1  0.298800  0.271000  0.774800  1
  H  H414  1  0.298800  0.729000  0.725200  1
  H  H415  1  0.798800  0.771000  0.774800  1
  H  H416  1  0.798800  0.229000  0.725200  1
  H  H417  1  0.684800  0.674100  0.237200  1
  H  H418  1  0.684800  0.325900  0.262800  1
  H  H419  1  0.184800  0.174100  0.237200  1
  H  H420  1  0.184800  0.825900  0.262800  1
  H  H421  1  0.315200  0.325900  0.762800  1
  H  H422  1  0.315200  0.674100  0.737200  1
  H  H423  1  0.815200  0.825900  0.762800  1
  H  H424  1  0.815200  0.174100  0.737200  1
  H  H425  1  0.555100  0.638300  0.159300  1
  H  H426  1  0.555100  0.361700  0.340700  1
  H  H427  1  0.055100  0.138300  0.159300  1
  H  H428  1  0.055100  0.861700  0.340700  1
  H  H429  1  0.444900  0.361700  0.840700  1
  H  H430  1  0.444900  0.638300  0.659300  1
  H  H431  1  0.944900  0.861700  0.840700  1
  H  H432  1  0.944900  0.138300  0.659300  1
  H  H433  1  0.585300  0.669100  0.126800  1
  H  H434  1  0.585300  0.330900  0.373200  1
  H  H435  1  0.085300  0.169100  0.126800  1
  H  H436  1  0.085300  0.830900  0.373200  1
  H  H437  1  0.414700  0.330900  0.873200  1
  H  H438  1  0.414700  0.669100  0.626800  1
  H  H439  1  0.914700  0.830900  0.873200  1
  H  H440  1  0.914700  0.169100  0.626800  1
  H  H441  1  0.558700  0.707400  0.179800  1
  H  H442  1  0.558700  0.292600  0.320200  1
  H  H443  1  0.058700  0.207400  0.179800  1
  H  H444  1  0.058700  0.792600  0.320200  1
  H  H445  1  0.441300  0.292600  0.820200  1
  H  H446  1  0.441300  0.707400  0.679800  1
  H  H447  1  0.941300  0.792600  0.820200  1
  H  H448  1  0.941300  0.207400  0.679800  1
  H  H449  1  0.599900  0.693300  0.246700  1
  H  H450  1  0.599900  0.306700  0.253300  1
  H  H451  1  0.099900  0.193300  0.246700  1
  H  H452  1  0.099900  0.806700  0.253300  1
  H  H453  1  0.400100  0.306700  0.753300  1
  H  H454  1  0.400100  0.693300  0.746700  1
  H  H455  1  0.900100  0.806700  0.753300  1
  H  H456  1  0.900100  0.193300  0.746700  1
  H  H457  1  0.680600  0.685200  0.248300  1
  H  H458  1  0.680600  0.314800  0.251700  1
  H  H459  1  0.180600  0.185200  0.248300  1
  H  H460  1  0.180600  0.814800  0.251700  1
  H  H461  1  0.319400  0.314800  0.751700  1
  H  H462  1  0.319400  0.685200  0.748300  1
  H  H463  1  0.819400  0.814800  0.751700  1
  H  H464  1  0.819400  0.185200  0.748300  1
  H  H465  1  0.632100  0.629600  0.226800  1
  H  H466  1  0.632100  0.370400  0.273200  1
  H  H467  1  0.132100  0.129600  0.226800  1
  H  H468  1  0.132100  0.870400  0.273200  1
  H  H469  1  0.367900  0.370400  0.773200  1
  H  H470  1  0.367900  0.629600  0.726800  1
  H  H471  1  0.867900  0.870400  0.773200  1
  H  H472  1  0.867900  0.129600  0.726800  1
  H  H473  1  0.723100  0.740000  0.214900  1
  H  H474  1  0.723100  0.260000  0.285100  1
  H  H475  1  0.223100  0.240000  0.214900  1
  H  H476  1  0.223100  0.760000  0.285100  1
  H  H477  1  0.276900  0.260000  0.785100  1
  H  H478  1  0.276900  0.740000  0.714900  1
  H  H479  1  0.776900  0.760000  0.785100  1
  H  H480  1  0.776900  0.240000  0.714900  1
  H  H481  1  0.663500  0.764200  0.192300  1
  H  H482  1  0.663500  0.235800  0.307700  1
  H  H483  1  0.163500  0.264200  0.192300  1
  H  H484  1  0.163500  0.735800  0.307700  1
  H  H485  1  0.336500  0.235800  0.807700  1
  H  H486  1  0.336500  0.764200  0.692300  1
  H  H487  1  0.836500  0.735800  0.807700  1
  H  H488  1  0.836500  0.264200  0.692300  1
  H  H489  1  0.722300  0.724500  0.158600  1
  H  H490  1  0.722300  0.275500  0.341400  1
  H  H491  1  0.222300  0.224500  0.158600  1
  H  H492  1  0.222300  0.775500  0.341400  1
  H  H493  1  0.277700  0.275500  0.841400  1
  H  H494  1  0.277700  0.724500  0.658600  1
  H  H495  1  0.777700  0.775500  0.841400  1
  H  H496  1  0.777700  0.224500  0.658600  1
  H  H497  1  0.337200  0.309200  0.965300  1.0
  H  H498  1  0.337200  0.690800  0.534700  1.0
  H  H499  1  0.837200  0.809200  0.965300  1.0
  H  H500  1  0.837200  0.190800  0.534700  1.0
  H  H501  1  0.662800  0.690800  0.034700  1.0
  H  H502  1  0.662800  0.309200  0.465300  1.0
  H  H503  1  0.162800  0.190800  0.034700  1.0
  H  H504  1  0.162800  0.809200  0.465300  1.0
  H  H505  1  0.999500  0.183900  0.029100  1.0
  H  H506  1  0.999500  0.816100  0.470900  1.0
  H  H507  1  0.499500  0.683900  0.029100  1.0
  H  H508  1  0.499500  0.316100  0.470900  1.0
  H  H509  1  0.000500  0.816100  0.970900  1.0
  H  H510  1  0.000500  0.183900  0.529100  1.0
  H  H511  1  0.500500  0.316100  0.970900  1.0
  H  H512  1  0.500500  0.683900  0.529100  1.0
  H  H513  1  0.994000  0.274200  0.808700  1.0
  H  H514  1  0.994000  0.725800  0.691300  1.0
  H  H515  1  0.494000  0.774200  0.808700  1.0
  H  H516  1  0.494000  0.225800  0.691300  1.0
  H  H517  1  0.006000  0.725800  0.191300  1.0
  H  H518  1  0.006000  0.274200  0.308700  1.0
  H  H519  1  0.506000  0.225800  0.191300  1.0
  H  H520  1  0.506000  0.774200  0.308700  1.0
  H  H521  1  0.703300  0.507900  0.042500  1.0
  H  H522  1  0.703300  0.492100  0.457500  1.0
  H  H523  1  0.203300  0.007900  0.042500  1.0
  H  H524  1  0.203300  0.992100  0.457500  1.0
  H  H525  1  0.296700  0.492100  0.957500  1.0
  H  H526  1  0.296700  0.507900  0.542500  1.0
  H  H527  1  0.796700  0.992100  0.957500  1.0
  H  H528  1  0.796700  0.007900  0.542500  1.0
  H  H529  1  0.629100  0.580400  0.088900  1.0
  H  H530  1  0.629100  0.419600  0.411100  1.0
  H  H531  1  0.129100  0.080400  0.088900  1.0
  H  H532  1  0.129100  0.919600  0.411100  1.0
  H  H533  1  0.370900  0.419600  0.911100  1.0
  H  H534  1  0.370900  0.580400  0.588900  1.0
  H  H535  1  0.870900  0.919600  0.911100  1.0
  H  H536  1  0.870900  0.080400  0.588900  1.0
  H  H537  1  0.773800  0.639000  0.192000  1.0
  H  H538  1  0.773800  0.361000  0.308000  1.0
  H  H539  1  0.273800  0.139000  0.192000  1.0
  H  H540  1  0.273800  0.861000  0.308000  1.0
  H  H541  1  0.226200  0.361000  0.808000  1.0
  H  H542  1  0.226200  0.639000  0.692000  1.0
  H  H543  1  0.726200  0.861000  0.808000  1.0
  H  H544  1  0.726200  0.139000  0.692000  1.0
  H  H545  1  0.876700  0.622600  0.215000  1.0
  H  H546  1  0.876700  0.377400  0.285000  1.0
  H  H547  1  0.376700  0.122600  0.215000  1.0
  H  H548  1  0.376700  0.877400  0.285000  1.0
  H  H549  1  0.123300  0.377400  0.785000  1.0
  H  H550  1  0.123300  0.622600  0.715000  1.0
  H  H551  1  0.623300  0.877400  0.785000  1.0
  H  H552  1  0.623300  0.122600  0.715000  1.0
  H  H553  1  0.043500  0.518300  0.177900  1.0
  H  H554  1  0.043500  0.481700  0.322100  1.0
  H  H555  1  0.543500  0.018300  0.177900  1.0
  H  H556  1  0.543500  0.981700  0.322100  1.0
  H  H557  1  0.956500  0.481700  0.822100  1.0
  H  H558  1  0.956500  0.518300  0.677900  1.0
  H  H559  1  0.456500  0.981700  0.822100  1.0
  H  H560  1  0.456500  0.018300  0.677900  1.0
  H  H561  1  0.993000  0.466000  0.104100  1.0
  H  H562  1  0.993000  0.534000  0.395900  1.0
  H  H563  1  0.493000  0.966000  0.104100  1.0
  H  H564  1  0.493000  0.034000  0.395900  1.0
  H  H565  1  0.007000  0.534000  0.895900  1.0
  H  H566  1  0.007000  0.466000  0.604100  1.0
  H  H567  1  0.507000  0.034000  0.895900  1.0
  H  H568  1  0.507000  0.966000  0.604100  1.0
  H  H569  1  0.844200  0.415500  0.125800  1.0
  H  H570  1  0.844200  0.584500  0.374200  1.0
  H  H571  1  0.344200  0.915500  0.125800  1.0
  H  H572  1  0.344200  0.084500  0.374200  1.0
  H  H573  1  0.155800  0.584500  0.874200  1.0
  H  H574  1  0.155800  0.415500  0.625800  1.0
  H  H575  1  0.655800  0.084500  0.874200  1.0
  H  H576  1  0.655800  0.915500  0.625800  1.0
  H  H577  1  0.769800  0.356400  0.143600  1.0
  H  H578  1  0.769800  0.643600  0.356400  1.0
  H  H579  1  0.269800  0.856400  0.143600  1.0
  H  H580  1  0.269800  0.143600  0.356400  1.0
  H  H581  1  0.230200  0.643600  0.856400  1.0
  H  H582  1  0.230200  0.356400  0.643600  1.0
  H  H583  1  0.730200  0.143600  0.856400  1.0
  H  H584  1  0.730200  0.856400  0.643600  1.0
  H  H585  1  0.667900  0.328400  0.019800  1.0
  H  H586  1  0.667900  0.671600  0.480200  1.0
  H  H587  1  0.167900  0.828400  0.019800  1.0
  H  H588  1  0.167900  0.171600  0.480200  1.0
  H  H589  1  0.332100  0.671600  0.980200  1.0
  H  H590  1  0.332100  0.328400  0.519800  1.0
  H  H591  1  0.832100  0.171600  0.980200  1.0
  H  H592  1  0.832100  0.828400  0.519800  1.0
  H  H593  1  0.670300  0.343300  0.950900  1.0
  H  H594  1  0.670300  0.656700  0.549100  1.0
  H  H595  1  0.170300  0.843300  0.950900  1.0
  H  H596  1  0.170300  0.156700  0.549100  1.0
  H  H597  1  0.329700  0.656700  0.049100  1.0
  H  H598  1  0.329700  0.343300  0.450900  1.0
  H  H599  1  0.829700  0.156700  0.049100  1.0
  H  H600  1  0.829700  0.843300  0.450900  1.0
  H  H601  1  0.768500  0.428600  0.881200  1.0
  H  H602  1  0.768500  0.571400  0.618800  1.0
  H  H603  1  0.268500  0.928600  0.881200  1.0
  H  H604  1  0.268500  0.071400  0.618800  1.0
  H  H605  1  0.231500  0.571400  0.118800  1.0
  H  H606  1  0.231500  0.428600  0.381200  1.0
  H  H607  1  0.731500  0.071400  0.118800  1.0
  H  H608  1  0.731500  0.928600  0.381200  1.0
  H  H609  1  0.842800  0.467300  0.945900  1.0
  H  H610  1  0.842800  0.532700  0.554100  1.0
  H  H611  1  0.342800  0.967300  0.945900  1.0
  H  H612  1  0.342800  0.032700  0.554100  1.0
  H  H613  1  0.157200  0.532700  0.054100  1.0
  H  H614  1  0.157200  0.467300  0.445900  1.0
  H  H615  1  0.657200  0.032700  0.054100  1.0
  H  H616  1  0.657200  0.967300  0.445900  1.0
  H  H617  1  0.240900  0.416500  0.047900  1.0
  H  H618  1  0.240900  0.583500  0.452100  1.0
  H  H619  1  0.740900  0.916500  0.047900  1.0
  H  H620  1  0.740900  0.083500  0.452100  1.0
  H  H621  1  0.759100  0.583500  0.952100  1.0
  H  H622  1  0.759100  0.416500  0.547900  1.0
  H  H623  1  0.259100  0.083500  0.952100  1.0
  H  H624  1  0.259100  0.916500  0.547900  1.0
  H  H625  1  0.299200  0.419700  0.012400  1.0
  H  H626  1  0.299200  0.580300  0.487600  1.0
  H  H627  1  0.799200  0.919700  0.012400  1.0
  H  H628  1  0.799200  0.080300  0.487600  1.0
  H  H629  1  0.700800  0.580300  0.987600  1.0
  H  H630  1  0.700800  0.419700  0.512400  1.0
  H  H631  1  0.200800  0.080300  0.987600  1.0
  H  H632  1  0.200800  0.919700  0.512400  1.0
  H  H633  1  0.222200  0.435700  0.005400  1.0
  H  H634  1  0.222200  0.564300  0.494600  1.0
  H  H635  1  0.722200  0.935700  0.005400  1.0
  H  H636  1  0.722200  0.064300  0.494600  1.0
  H  H637  1  0.777800  0.564300  0.994600  1.0
  H  H638  1  0.777800  0.435700  0.505400  1.0
  H  H639  1  0.277800  0.064300  0.994600  1.0
  H  H640  1  0.277800  0.935700  0.505400  1.0
  H  H641  1  0.253800  0.163800  0.911800  1.0
  H  H642  1  0.253800  0.836200  0.588200  1.0
  H  H643  1  0.753800  0.663800  0.911800  1.0
  H  H644  1  0.753800  0.336200  0.588200  1.0
  H  H645  1  0.746200  0.836200  0.088200  1.0
  H  H646  1  0.746200  0.163800  0.411800  1.0
  H  H647  1  0.246200  0.336200  0.088200  1.0
  H  H648  1  0.246200  0.663800  0.411800  1.0
  H  H649  1  0.279000  0.183500  0.870800  1.0
  H  H650  1  0.279000  0.816500  0.629200  1.0
  H  H651  1  0.779000  0.683500  0.870800  1.0
  H  H652  1  0.779000  0.316500  0.629200  1.0
  H  H653  1  0.721000  0.816500  0.129200  1.0
  H  H654  1  0.721000  0.183500  0.370800  1.0
  H  H655  1  0.221000  0.316500  0.129200  1.0
  H  H656  1  0.221000  0.683500  0.370800  1.0
  H  H657  1  0.328500  0.190300  0.914400  1.0
  H  H658  1  0.328500  0.809700  0.585600  1.0
  H  H659  1  0.828500  0.690300  0.914400  1.0
  H  H660  1  0.828500  0.309700  0.585600  1.0
  H  H661  1  0.671500  0.809700  0.085600  1.0
  H  H662  1  0.671500  0.190300  0.414400  1.0
  H  H663  1  0.171500  0.309700  0.085600  1.0
  H  H664  1  0.171500  0.690300  0.414400  1.0
  H  H665  1  0.960000  0.337600  0.063900  1.0
  H  H666  1  0.960000  0.662400  0.436100  1.0
  H  H667  1  0.460000  0.837600  0.063900  1.0
  H  H668  1  0.460000  0.162400  0.436100  1.0
  H  H669  1  0.040000  0.662400  0.936100  1.0
  H  H670  1  0.040000  0.337600  0.563900  1.0
  H  H671  1  0.540000  0.162400  0.936100  1.0
  H  H672  1  0.540000  0.837600  0.563900  1.0
  H  H673  1  0.957800  0.290600  0.086700  1.0
  H  H674  1  0.957800  0.709400  0.413300  1.0
  H  H675  1  0.457800  0.790600  0.086700  1.0
  H  H676  1  0.457800  0.209400  0.413300  1.0
  H  H677  1  0.042200  0.709400  0.913300  1.0
  H  H678  1  0.042200  0.290600  0.586700  1.0
  H  H679  1  0.542200  0.209400  0.913300  1.0
  H  H680  1  0.542200  0.790600  0.586700  1.0
  H  H681  1  0.022400  0.332300  0.095700  1.0
  H  H682  1  0.022400  0.667700  0.404300  1.0
  H  H683  1  0.522400  0.832300  0.095700  1.0
  H  H684  1  0.522400  0.167700  0.404300  1.0
  H  H685  1  0.977600  0.667700  0.904300  1.0
  H  H686  1  0.977600  0.332300  0.595700  1.0
  H  H687  1  0.477600  0.167700  0.904300  1.0
  H  H688  1  0.477600  0.832300  0.595700  1.0
  H  H689  1  0.117700  0.108200  0.941900  1.0
  H  H690  1  0.117700  0.891800  0.558100  1.0
  H  H691  1  0.617700  0.608200  0.941900  1.0
  H  H692  1  0.617700  0.391800  0.558100  1.0
  H  H693  1  0.882300  0.891800  0.058100  1.0
  H  H694  1  0.882300  0.108200  0.441900  1.0
  H  H695  1  0.382300  0.391800  0.058100  1.0
  H  H696  1  0.382300  0.608200  0.441900  1.0
  H  H697  1  0.038600  0.092700  0.941500  1.0
  H  H698  1  0.038600  0.907300  0.558500  1.0
  H  H699  1  0.538600  0.592700  0.941500  1.0
  H  H700  1  0.538600  0.407300  0.558500  1.0
  H  H701  1  0.961400  0.907300  0.058500  1.0
  H  H702  1  0.961400  0.092700  0.441500  1.0
  H  H703  1  0.461400  0.407300  0.058500  1.0
  H  H704  1  0.461400  0.592700  0.441500  1.0
  H  H705  1  0.068200  0.113400  0.902200  1.0
  H  H706  1  0.068200  0.886600  0.597800  1.0
  H  H707  1  0.568200  0.613400  0.902200  1.0
  H  H708  1  0.568200  0.386600  0.597800  1.0
  H  H709  1  0.931800  0.886600  0.097800  1.0
  H  H710  1  0.931800  0.113400  0.402200  1.0
  H  H711  1  0.431800  0.386600  0.097800  1.0
  H  H712  1  0.431800  0.613400  0.402200  1.0
  H  H713  1  0.992600  0.411300  0.916700  1.0
  H  H714  1  0.992600  0.588700  0.583300  1.0
  H  H715  1  0.492600  0.911300  0.916700  1.0
  H  H716  1  0.492600  0.088700  0.583300  1.0
  H  H717  1  0.007400  0.588700  0.083300  1.0
  H  H718  1  0.007400  0.411300  0.416700  1.0
  H  H719  1  0.507400  0.088700  0.083300  1.0
  H  H720  1  0.507400  0.911300  0.416700  1.0
  H  H721  1  0.951800  0.381400  0.867400  1.0
  H  H722  1  0.951800  0.618600  0.632600  1.0
  H  H723  1  0.451800  0.881400  0.867400  1.0
  H  H724  1  0.451800  0.118600  0.632600  1.0
  H  H725  1  0.048200  0.618600  0.132600  1.0
  H  H726  1  0.048200  0.381400  0.367400  1.0
  H  H727  1  0.548200  0.118600  0.132600  1.0
  H  H728  1  0.548200  0.881400  0.367400  1.0
  H  H729  1  0.925900  0.373800  0.914200  1.0
  H  H730  1  0.925900  0.626200  0.585800  1.0
  H  H731  1  0.425900  0.873800  0.914200  1.0
  H  H732  1  0.425900  0.126200  0.585800  1.0
  H  H733  1  0.074100  0.626200  0.085800  1.0
  H  H734  1  0.074100  0.373800  0.414200  1.0
  H  H735  1  0.574100  0.126200  0.085800  1.0
  H  H736  1  0.574100  0.873800  0.414200  1.0
  H  H737  1  0.073000  0.147000  0.817000  1.0
  H  H738  1  0.073000  0.853000  0.683000  1.0
  H  H739  1  0.573000  0.647000  0.817000  1.0
  H  H740  1  0.573000  0.353000  0.683000  1.0
  H  H741  1  0.927000  0.853000  0.183000  1.0
  H  H742  1  0.927000  0.147000  0.317000  1.0
  H  H743  1  0.427000  0.353000  0.183000  1.0
  H  H744  1  0.427000  0.647000  0.317000  1.0
  H  H745  1  0.059000  0.167900  0.774700  1.0
  H  H746  1  0.059000  0.832100  0.725300  1.0
  H  H747  1  0.559000  0.667900  0.774700  1.0
  H  H748  1  0.559000  0.332100  0.725300  1.0
  H  H749  1  0.941000  0.832100  0.225300  1.0
  H  H750  1  0.941000  0.167900  0.274700  1.0
  H  H751  1  0.441000  0.332100  0.225300  1.0
  H  H752  1  0.441000  0.667900  0.274700  1.0
  H  H753  1  0.132000  0.178400  0.800200  1.0
  H  H754  1  0.132000  0.821600  0.699800  1.0
  H  H755  1  0.632000  0.678400  0.800200  1.0
  H  H756  1  0.632000  0.321600  0.699800  1.0
  H  H757  1  0.868000  0.821600  0.199800  1.0
  H  H758  1  0.868000  0.178400  0.300200  1.0
  H  H759  1  0.368000  0.321600  0.199800  1.0
  H  H760  1  0.368000  0.678400  0.300200  1.0
  H  H761  1  0.130700  0.189700  0.893500  1.0
  H  H762  1  0.130700  0.810300  0.606500  1.0
  H  H763  1  0.630700  0.689700  0.893500  1.0
  H  H764  1  0.630700  0.310300  0.606500  1.0
  H  H765  1  0.869300  0.810300  0.106500  1.0
  H  H766  1  0.869300  0.189700  0.393500  1.0
  H  H767  1  0.369300  0.310300  0.106500  1.0
  H  H768  1  0.369300  0.689700  0.393500  1.0
  C  C769  1  0.758600  0.528300  0.813200  1
  C  C770  1  0.758600  0.471700  0.686800  1
  C  C771  1  0.258600  0.028300  0.813200  1
  C  C772  1  0.258600  0.971700  0.686800  1
  C  C773  1  0.241400  0.471700  0.186800  1
  C  C774  1  0.241400  0.528300  0.313200  1
  C  C775  1  0.741400  0.971700  0.186800  1
  C  C776  1  0.741400  0.028300  0.313200  1
  C  C777  1  0.946300  0.596600  0.295000  1
  C  C778  1  0.946300  0.403400  0.205000  1
  C  C779  1  0.446300  0.096600  0.295000  1
  C  C780  1  0.446300  0.903400  0.205000  1
  C  C781  1  0.053700  0.403400  0.705000  1
  C  C782  1  0.053700  0.596600  0.795000  1
  C  C783  1  0.553700  0.903400  0.705000  1
  C  C784  1  0.553700  0.096600  0.795000  1
  C  C785  1  0.999600  0.672100  0.268500  1
  C  C786  1  0.999600  0.327900  0.231500  1
  C  C787  1  0.499600  0.172100  0.268500  1
  C  C788  1  0.499600  0.827900  0.231500  1
  C  C789  1  0.000400  0.327900  0.731500  1
  C  C790  1  0.000400  0.672100  0.768500  1
  C  C791  1  0.500400  0.827900  0.731500  1
  C  C792  1  0.500400  0.172100  0.768500  1
  C  C793  1  0.058700  0.586500  0.268000  1
  C  C794  1  0.058700  0.413500  0.232000  1
  C  C795  1  0.558700  0.086500  0.268000  1
  C  C796  1  0.558700  0.913500  0.232000  1
  C  C797  1  0.941300  0.413500  0.732000  1
  C  C798  1  0.941300  0.586500  0.768000  1
  C  C799  1  0.441300  0.913500  0.732000  1
  C  C800  1  0.441300  0.086500  0.768000  1
  C  C801  1  0.581600  0.671300  0.159500  1
  C  C802  1  0.581600  0.328700  0.340500  1
  C  C803  1  0.081600  0.171300  0.159500  1
  C  C804  1  0.081600  0.828700  0.340500  1
  C  C805  1  0.418400  0.328700  0.840500  1
  C  C806  1  0.418400  0.671300  0.659500  1
  C  C807  1  0.918400  0.828700  0.840500  1
  C  C808  1  0.918400  0.171300  0.659500  1
  C  C809  1  0.638900  0.669500  0.229900  1
  C  C810  1  0.638900  0.330500  0.270100  1
  C  C811  1  0.138900  0.169500  0.229900  1
  C  C812  1  0.138900  0.830500  0.270100  1
  C  C813  1  0.361100  0.330500  0.770100  1
  C  C814  1  0.361100  0.669500  0.729900  1
  C  C815  1  0.861100  0.830500  0.770100  1
  C  C816  1  0.861100  0.169500  0.729900  1
  C  C817  1  0.693900  0.731400  0.186800  1
  C  C818  1  0.693900  0.268600  0.313200  1
  C  C819  1  0.193900  0.231400  0.186800  1
  C  C820  1  0.193900  0.768600  0.313200  1
  C  C821  1  0.306100  0.268600  0.813200  1
  C  C822  1  0.306100  0.731400  0.686800  1
  C  C823  1  0.806100  0.768600  0.813200  1
  C  C824  1  0.806100  0.231400  0.686800  1
  C  C825  1  0.606000  0.318800  0.873100  1.0
  C  C826  1  0.606000  0.681200  0.626900  1.0
  C  C827  1  0.106000  0.818800  0.873100  1.0
  C  C828  1  0.106000  0.181200  0.626900  1.0
  C  C829  1  0.394000  0.681200  0.126900  1.0
  C  C830  1  0.394000  0.318800  0.373100  1.0
  C  C831  1  0.894000  0.181200  0.126900  1.0
  C  C832  1  0.894000  0.818800  0.373100  1.0
  C  C833  1  0.706300  0.323100  0.818200  1.0
  C  C834  1  0.706300  0.676900  0.681800  1.0
  C  C835  1  0.206300  0.823100  0.818200  1.0
  C  C836  1  0.206300  0.176900  0.681800  1.0
  C  C837  1  0.293700  0.676900  0.181800  1.0
  C  C838  1  0.293700  0.323100  0.318200  1.0
  C  C839  1  0.793700  0.176900  0.181800  1.0
  C  C840  1  0.793700  0.823100  0.318200  1.0
  C  C841  1  0.625300  0.408800  0.857700  1.0
  C  C842  1  0.625300  0.591200  0.642300  1.0
  C  C843  1  0.125300  0.908800  0.857700  1.0
  C  C844  1  0.125300  0.091200  0.642300  1.0
  C  C845  1  0.374700  0.591200  0.142300  1.0
  C  C846  1  0.374700  0.408800  0.357700  1.0
  C  C847  1  0.874700  0.091200  0.142300  1.0
  C  C848  1  0.874700  0.908800  0.357700  1.0
  C  C849  1  0.645800  0.670000  0.177300  1.0
  C  C850  1  0.645800  0.330000  0.322700  1.0
  C  C851  1  0.145800  0.170000  0.177300  1.0
  C  C852  1  0.145800  0.830000  0.322700  1.0
  C  C853  1  0.354200  0.330000  0.822700  1.0
  C  C854  1  0.354200  0.670000  0.677300  1.0
  C  C855  1  0.854200  0.830000  0.822700  1.0
  C  C856  1  0.854200  0.170000  0.677300  1.0
  C  C857  1  0.987400  0.388200  0.005490  1.0
  C  C858  1  0.987400  0.611800  0.494510  1.0
  C  C859  1  0.487400  0.888200  0.005490  1.0
  C  C860  1  0.487400  0.111800  0.494510  1.0
  C  C861  1  0.012600  0.611800  0.994510  1.0
  C  C862  1  0.012600  0.388200  0.505490  1.0
  C  C863  1  0.512600  0.111800  0.994510  1.0
  C  C864  1  0.512600  0.888200  0.505490  1.0
  C  C865  1  0.904100  0.576000  0.024990  1.0
  C  C866  1  0.904100  0.424000  0.475010  1.0
  C  C867  1  0.404100  0.076000  0.024990  1.0
  C  C868  1  0.404100  0.924000  0.475010  1.0
  C  C869  1  0.095900  0.424000  0.975010  1.0
  C  C870  1  0.095900  0.576000  0.524990  1.0
  C  C871  1  0.595900  0.924000  0.975010  1.0
  C  C872  1  0.595900  0.076000  0.524990  1.0
  C  C873  1  0.102700  0.397800  0.052500  1.0
  C  C874  1  0.102700  0.602200  0.447500  1.0
  C  C875  1  0.602700  0.897800  0.052500  1.0
  C  C876  1  0.602700  0.102200  0.447500  1.0
  C  C877  1  0.897300  0.602200  0.947500  1.0
  C  C878  1  0.897300  0.397800  0.552500  1.0
  C  C879  1  0.397300  0.102200  0.947500  1.0
  C  C880  1  0.397300  0.897800  0.552500  1.0
  C  C881  1  0.238000  0.348400  0.982200  1.0
  C  C882  1  0.238000  0.651600  0.517800  1.0
  C  C883  1  0.738000  0.848400  0.982200  1.0
  C  C884  1  0.738000  0.151600  0.517800  1.0
  C  C885  1  0.762000  0.651600  0.017800  1.0
  C  C886  1  0.762000  0.348400  0.482200  1.0
  C  C887  1  0.262000  0.151600  0.017800  1.0
  C  C888  1  0.262000  0.848400  0.482200  1.0
  C  C889  1  0.289200  0.305100  0.961600  1.0
  C  C890  1  0.289200  0.694900  0.538400  1.0
  C  C891  1  0.789200  0.805100  0.961600  1.0
  C  C892  1  0.789200  0.194900  0.538400  1.0
  C  C893  1  0.710800  0.694900  0.038400  1.0
  C  C894  1  0.710800  0.305100  0.461600  1.0
  C  C895  1  0.210800  0.194900  0.038400  1.0
  C  C896  1  0.210800  0.805100  0.461600  1.0
  C  C897  1  0.251900  0.255200  0.934700  1.0
  C  C898  1  0.251900  0.744800  0.565300  1.0
  C  C899  1  0.751900  0.755200  0.934700  1.0
  C  C900  1  0.751900  0.244800  0.565300  1.0
  C  C901  1  0.748100  0.744800  0.065300  1.0
  C  C902  1  0.748100  0.255200  0.434700  1.0
  C  C903  1  0.248100  0.244800  0.065300  1.0
  C  C904  1  0.248100  0.755200  0.434700  1.0
  C  C905  1  0.020600  0.267300  0.028400  1.0
  C  C906  1  0.020600  0.732700  0.471600  1.0
  C  C907  1  0.520600  0.767300  0.028400  1.0
  C  C908  1  0.520600  0.232700  0.471600  1.0
  C  C909  1  0.979400  0.732700  0.971600  1.0
  C  C910  1  0.979400  0.267300  0.528400  1.0
  C  C911  1  0.479400  0.232700  0.971600  1.0
  C  C912  1  0.479400  0.767300  0.528400  1.0
  C  C913  1  0.020000  0.205000  0.013000  1.0
  C  C914  1  0.020000  0.795000  0.487000  1.0
  C  C915  1  0.520000  0.705000  0.013000  1.0
  C  C916  1  0.520000  0.295000  0.487000  1.0
  C  C917  1  0.980000  0.795000  0.987000  1.0
  C  C918  1  0.980000  0.205000  0.513000  1.0
  C  C919  1  0.480000  0.295000  0.987000  1.0
  C  C920  1  0.480000  0.705000  0.513000  1.0
  C  C921  1  0.055900  0.182100  0.969200  1.0
  C  C922  1  0.055900  0.817900  0.530800  1.0
  C  C923  1  0.555900  0.682100  0.969200  1.0
  C  C924  1  0.555900  0.317900  0.530800  1.0
  C  C925  1  0.944100  0.817900  0.030800  1.0
  C  C926  1  0.944100  0.182100  0.469200  1.0
  C  C927  1  0.444100  0.317900  0.030800  1.0
  C  C928  1  0.444100  0.682100  0.469200  1.0
  C  C929  1  0.009400  0.323900  0.883400  1.0
  C  C930  1  0.009400  0.676100  0.616600  1.0
  C  C931  1  0.509400  0.823900  0.883400  1.0
  C  C932  1  0.509400  0.176100  0.616600  1.0
  C  C933  1  0.990600  0.676100  0.116600  1.0
  C  C934  1  0.990600  0.323900  0.383400  1.0
  C  C935  1  0.490600  0.176100  0.116600  1.0
  C  C936  1  0.490600  0.823900  0.383400  1.0
  C  C937  1  0.015600  0.277000  0.837300  1.0
  C  C938  1  0.015600  0.723000  0.662700  1.0
  C  C939  1  0.515600  0.777000  0.837300  1.0
  C  C940  1  0.515600  0.223000  0.662700  1.0
  C  C941  1  0.984400  0.723000  0.162700  1.0
  C  C942  1  0.984400  0.277000  0.337300  1.0
  C  C943  1  0.484400  0.223000  0.162700  1.0
  C  C944  1  0.484400  0.777000  0.337300  1.0
  C  C945  1  0.058500  0.236400  0.842300  1.0
  C  C946  1  0.058500  0.763600  0.657700  1.0
  C  C947  1  0.558500  0.736400  0.842300  1.0
  C  C948  1  0.558500  0.263600  0.657700  1.0
  C  C949  1  0.941500  0.763600  0.157700  1.0
  C  C950  1  0.941500  0.236400  0.342300  1.0
  C  C951  1  0.441500  0.263600  0.157700  1.0
  C  C952  1  0.441500  0.736400  0.342300  1.0
  C  C953  1  0.718000  0.534500  0.073200  1.0
  C  C954  1  0.718000  0.465500  0.426800  1.0
  C  C955  1  0.218000  0.034500  0.073200  1.0
  C  C956  1  0.218000  0.965500  0.426800  1.0
  C  C957  1  0.282000  0.465500  0.926800  1.0
  C  C958  1  0.282000  0.534500  0.573200  1.0
  C  C959  1  0.782000  0.965500  0.926800  1.0
  C  C960  1  0.782000  0.034500  0.573200  1.0
  C  C961  1  0.673100  0.578000  0.100900  1.0
  C  C962  1  0.673100  0.422000  0.399100  1.0
  C  C963  1  0.173100  0.078000  0.100900  1.0
  C  C964  1  0.173100  0.922000  0.399100  1.0
  C  C965  1  0.326900  0.422000  0.899100  1.0
  C  C966  1  0.326900  0.578000  0.600900  1.0
  C  C967  1  0.826900  0.922000  0.899100  1.0
  C  C968  1  0.826900  0.078000  0.600900  1.0
  C  C969  1  0.692600  0.617800  0.145900  1.0
  C  C970  1  0.692600  0.382200  0.354100  1.0
  C  C971  1  0.192600  0.117800  0.145900  1.0
  C  C972  1  0.192600  0.882200  0.354100  1.0
  C  C973  1  0.307400  0.382200  0.854100  1.0
  C  C974  1  0.307400  0.617800  0.645900  1.0
  C  C975  1  0.807400  0.882200  0.854100  1.0
  C  C976  1  0.807400  0.117800  0.645900  1.0
  C  C977  1  0.758500  0.612100  0.161700  1.0
  C  C978  1  0.758500  0.387900  0.338300  1.0
  C  C979  1  0.258500  0.112100  0.161700  1.0
  C  C980  1  0.258500  0.887900  0.338300  1.0
  C  C981  1  0.241500  0.387900  0.838300  1.0
  C  C982  1  0.241500  0.612100  0.661700  1.0
  C  C983  1  0.741500  0.887900  0.838300  1.0
  C  C984  1  0.741500  0.112100  0.661700  1.0
  C  C985  1  0.802100  0.567200  0.133100  1.0
  C  C986  1  0.802100  0.432800  0.366900  1.0
  C  C987  1  0.302100  0.067200  0.133100  1.0
  C  C988  1  0.302100  0.932800  0.366900  1.0
  C  C989  1  0.197900  0.432800  0.866900  1.0
  C  C990  1  0.197900  0.567200  0.633100  1.0
  C  C991  1  0.697900  0.932800  0.866900  1.0
  C  C992  1  0.697900  0.067200  0.633100  1.0
  C  C993  1  0.871700  0.556800  0.148400  1.0
  C  C994  1  0.871700  0.443200  0.351600  1.0
  C  C995  1  0.371700  0.056800  0.148400  1.0
  C  C996  1  0.371700  0.943200  0.351600  1.0
  C  C997  1  0.128300  0.443200  0.851600  1.0
  C  C998  1  0.128300  0.556800  0.648400  1.0
  C  C999  1  0.628300  0.943200  0.851600  1.0
  C  C1000  1  0.628300  0.056800  0.648400  1.0
  C  C1001  1  0.901300  0.590500  0.192970  1.0
  C  C1002  1  0.901300  0.409500  0.307030  1.0
  C  C1003  1  0.401300  0.090500  0.192970  1.0
  C  C1004  1  0.401300  0.909500  0.307030  1.0
  C  C1005  1  0.098700  0.409500  0.807030  1.0
  C  C1006  1  0.098700  0.590500  0.692970  1.0
  C  C1007  1  0.598700  0.909500  0.807030  1.0
  C  C1008  1  0.598700  0.090500  0.692970  1.0
  C  C1009  1  0.966200  0.578100  0.206020  1.0
  C  C1010  1  0.966200  0.421900  0.293980  1.0
  C  C1011  1  0.466200  0.078100  0.206020  1.0
  C  C1012  1  0.466200  0.921900  0.293980  1.0
  C  C1013  1  0.033800  0.421900  0.793980  1.0
  C  C1014  1  0.033800  0.578100  0.706020  1.0
  C  C1015  1  0.533800  0.921900  0.793980  1.0
  C  C1016  1  0.533800  0.078100  0.706020  1.0
  C  C1017  1  0.999800  0.529400  0.171130  1.0
  C  C1018  1  0.999800  0.470600  0.328870  1.0
  C  C1019  1  0.499800  0.029400  0.171130  1.0
  C  C1020  1  0.499800  0.970600  0.328870  1.0
  C  C1021  1  0.000200  0.470600  0.828870  1.0
  C  C1022  1  0.000200  0.529400  0.671130  1.0
  C  C1023  1  0.500200  0.970600  0.828870  1.0
  C  C1024  1  0.500200  0.029400  0.671130  1.0
  C  C1025  1  0.968900  0.497600  0.127010  1.0
  C  C1026  1  0.968900  0.502400  0.372990  1.0
  C  C1027  1  0.468900  0.997600  0.127010  1.0
  C  C1028  1  0.468900  0.002400  0.372990  1.0
  C  C1029  1  0.031100  0.502400  0.872990  1.0
  C  C1030  1  0.031100  0.497600  0.627010  1.0
  C  C1031  1  0.531100  0.002400  0.872990  1.0
  C  C1032  1  0.531100  0.997600  0.627010  1.0
  C  C1033  1  0.808200  0.397800  0.104050  1.0
  C  C1034  1  0.808200  0.602200  0.395950  1.0
  C  C1035  1  0.308200  0.897800  0.104050  1.0
  C  C1036  1  0.308200  0.102200  0.395950  1.0
  C  C1037  1  0.191800  0.602200  0.895950  1.0
  C  C1038  1  0.191800  0.397800  0.604050  1.0
  C  C1039  1  0.691800  0.102200  0.895950  1.0
  C  C1040  1  0.691800  0.897800  0.604050  1.0
  C  C1041  1  0.763400  0.362500  0.115100  1.0
  C  C1042  1  0.763400  0.637500  0.384900  1.0
  C  C1043  1  0.263400  0.862500  0.115100  1.0
  C  C1044  1  0.263400  0.137500  0.384900  1.0
  C  C1045  1  0.236600  0.637500  0.884900  1.0
  C  C1046  1  0.236600  0.362500  0.615100  1.0
  C  C1047  1  0.736600  0.137500  0.884900  1.0
  C  C1048  1  0.736600  0.862500  0.615100  1.0
  C  C1049  1  0.708800  0.335700  0.084600  1.0
  C  C1050  1  0.708800  0.664300  0.415400  1.0
  C  C1051  1  0.208800  0.835700  0.084600  1.0
  C  C1052  1  0.208800  0.164300  0.415400  1.0
  C  C1053  1  0.291200  0.664300  0.915400  1.0
  C  C1054  1  0.291200  0.335700  0.584600  1.0
  C  C1055  1  0.791200  0.164300  0.915400  1.0
  C  C1056  1  0.791200  0.835700  0.584600  1.0
  C  C1057  1  0.703700  0.345800  0.041800  1.0
  C  C1058  1  0.703700  0.654200  0.458200  1.0
  C  C1059  1  0.203700  0.845800  0.041800  1.0
  C  C1060  1  0.203700  0.154200  0.458200  1.0
  C  C1061  1  0.296300  0.654200  0.958200  1.0
  C  C1062  1  0.296300  0.345800  0.541800  1.0
  C  C1063  1  0.796300  0.154200  0.958200  1.0
  C  C1064  1  0.796300  0.845800  0.541800  1.0
  C  C1065  1  0.751200  0.381300  0.032170  1.0
  C  C1066  1  0.751200  0.618700  0.467830  1.0
  C  C1067  1  0.251200  0.881300  0.032170  1.0
  C  C1068  1  0.251200  0.118700  0.467830  1.0
  C  C1069  1  0.248800  0.618700  0.967830  1.0
  C  C1070  1  0.248800  0.381300  0.532170  1.0
  C  C1071  1  0.748800  0.118700  0.967830  1.0
  C  C1072  1  0.748800  0.881300  0.532170  1.0
  C  C1073  1  0.751500  0.393900  0.987700  1.0
  C  C1074  1  0.751500  0.606100  0.512300  1.0
  C  C1075  1  0.251500  0.893900  0.987700  1.0
  C  C1076  1  0.251500  0.106100  0.512300  1.0
  C  C1077  1  0.248500  0.606100  0.012300  1.0
  C  C1078  1  0.248500  0.393900  0.487700  1.0
  C  C1079  1  0.748500  0.106100  0.012300  1.0
  C  C1080  1  0.748500  0.893900  0.487700  1.0
  C  C1081  1  0.704800  0.368800  0.949200  1.0
  C  C1082  1  0.704800  0.631200  0.550800  1.0
  C  C1083  1  0.204800  0.868800  0.949200  1.0
  C  C1084  1  0.204800  0.131200  0.550800  1.0
  C  C1085  1  0.295200  0.631200  0.050800  1.0
  C  C1086  1  0.295200  0.368800  0.449200  1.0
  C  C1087  1  0.795200  0.131200  0.050800  1.0
  C  C1088  1  0.795200  0.868800  0.449200  1.0
  C  C1089  1  0.710000  0.381800  0.908500  1.0
  C  C1090  1  0.710000  0.618200  0.591500  1.0
  C  C1091  1  0.210000  0.881800  0.908500  1.0
  C  C1092  1  0.210000  0.118200  0.591500  1.0
  C  C1093  1  0.290000  0.618200  0.091500  1.0
  C  C1094  1  0.290000  0.381800  0.408500  1.0
  C  C1095  1  0.790000  0.118200  0.091500  1.0
  C  C1096  1  0.790000  0.881800  0.408500  1.0
  C  C1097  1  0.762800  0.419200  0.908100  1.0
  C  C1098  1  0.762800  0.580800  0.591900  1.0
  C  C1099  1  0.262800  0.919200  0.908100  1.0
  C  C1100  1  0.262800  0.080800  0.591900  1.0
  C  C1101  1  0.237200  0.580800  0.091900  1.0
  C  C1102  1  0.237200  0.419200  0.408100  1.0
  C  C1103  1  0.737200  0.080800  0.091900  1.0
  C  C1104  1  0.737200  0.919200  0.408100  1.0
  C  C1105  1  0.807100  0.442700  0.947300  1.0
  C  C1106  1  0.807100  0.557300  0.552700  1.0
  C  C1107  1  0.307100  0.942700  0.947300  1.0
  C  C1108  1  0.307100  0.057300  0.552700  1.0
  C  C1109  1  0.192900  0.557300  0.052700  1.0
  C  C1110  1  0.192900  0.442700  0.447300  1.0
  C  C1111  1  0.692900  0.057300  0.052700  1.0
  C  C1112  1  0.692900  0.942700  0.447300  1.0
  C  C1113  1  0.251200  0.410500  0.014800  1.0
  C  C1114  1  0.251200  0.589500  0.485200  1.0
  C  C1115  1  0.751200  0.910500  0.014800  1.0
  C  C1116  1  0.751200  0.089500  0.485200  1.0
  C  C1117  1  0.748800  0.589500  0.985200  1.0
  C  C1118  1  0.748800  0.410500  0.514800  1.0
  C  C1119  1  0.248800  0.089500  0.985200  1.0
  C  C1120  1  0.248800  0.910500  0.514800  1.0
  C  C1121  1  0.281100  0.192200  0.905100  1.0
  C  C1122  1  0.281100  0.807800  0.594900  1.0
  C  C1123  1  0.781100  0.692200  0.905100  1.0
  C  C1124  1  0.781100  0.307800  0.594900  1.0
  C  C1125  1  0.718900  0.807800  0.094900  1.0
  C  C1126  1  0.718900  0.192200  0.405100  1.0
  C  C1127  1  0.218900  0.307800  0.094900  1.0
  C  C1128  1  0.218900  0.692200  0.405100  1.0
  C  C1129  1  0.987300  0.310700  0.072500  1.0
  C  C1130  1  0.987300  0.689300  0.427500  1.0
  C  C1131  1  0.487300  0.810700  0.072500  1.0
  C  C1132  1  0.487300  0.189300  0.427500  1.0
  C  C1133  1  0.012700  0.689300  0.927500  1.0
  C  C1134  1  0.012700  0.310700  0.572500  1.0
  C  C1135  1  0.512700  0.189300  0.927500  1.0
  C  C1136  1  0.512700  0.810700  0.572500  1.0
  C  C1137  1  0.071500  0.118200  0.935600  1.0
  C  C1138  1  0.071500  0.881800  0.564400  1.0
  C  C1139  1  0.571500  0.618200  0.935600  1.0
  C  C1140  1  0.571500  0.381800  0.564400  1.0
  C  C1141  1  0.928500  0.881800  0.064400  1.0
  C  C1142  1  0.928500  0.118200  0.435600  1.0
  C  C1143  1  0.428500  0.381800  0.064400  1.0
  C  C1144  1  0.428500  0.618200  0.435600  1.0
  C  C1145  1  0.966200  0.377300  0.896600  1.0
  C  C1146  1  0.966200  0.622700  0.603400  1.0
  C  C1147  1  0.466200  0.877300  0.896600  1.0
  C  C1148  1  0.466200  0.122700  0.603400  1.0
  C  C1149  1  0.033800  0.622700  0.103400  1.0
  C  C1150  1  0.033800  0.377300  0.396600  1.0
  C  C1151  1  0.533800  0.122700  0.103400  1.0
  C  C1152  1  0.533800  0.877300  0.396600  1.0
  C  C1153  1  0.082900  0.177000  0.805100  1.0
  C  C1154  1  0.082900  0.823000  0.694900  1.0
  C  C1155  1  0.582900  0.677000  0.805100  1.0
  C  C1156  1  0.582900  0.323000  0.694900  1.0
  C  C1157  1  0.917100  0.823000  0.194900  1.0
  C  C1158  1  0.917100  0.177000  0.305100  1.0
  C  C1159  1  0.417100  0.323000  0.194900  1.0
  C  C1160  1  0.417100  0.677000  0.305100  1.0
  C  C1161  1  0.998400  0.614100  0.255600  1.0
  C  C1162  1  0.998400  0.385900  0.244400  1.0
  C  C1163  1  0.498400  0.114100  0.255600  1.0
  C  C1164  1  0.498400  0.885900  0.244400  1.0
  C  C1165  1  0.001600  0.385900  0.744400  1.0
  C  C1166  1  0.001600  0.614100  0.755600  1.0
  C  C1167  1  0.501600  0.885900  0.744400  1.0
  C  C1168  1  0.501600  0.114100  0.755600  1.0
  C  C1169  1  0.653000  0.299100  0.096800  1.0
  C  C1170  1  0.653000  0.700900  0.403200  1.0
  C  C1171  1  0.153000  0.799100  0.096800  1.0
  C  C1172  1  0.153000  0.200900  0.403200  1.0
  C  C1173  1  0.347000  0.700900  0.903200  1.0
  C  C1174  1  0.347000  0.299100  0.596800  1.0
  C  C1175  1  0.847000  0.200900  0.903200  1.0
  C  C1176  1  0.847000  0.799100  0.596800  1.0
  C  C1177  1  0.679700  0.272600  0.131800  1.0
  C  C1178  1  0.679700  0.727400  0.368200  1.0
  C  C1179  1  0.179700  0.772600  0.131800  1.0
  C  C1180  1  0.179700  0.227400  0.368200  1.0
  C  C1181  1  0.320300  0.727400  0.868200  1.0
  C  C1182  1  0.320300  0.272600  0.631800  1.0
  C  C1183  1  0.820300  0.227400  0.868200  1.0
  C  C1184  1  0.820300  0.772600  0.631800  1.0
  C  C1185  1  0.626300  0.245900  0.051500  1.0
  C  C1186  1  0.626300  0.754100  0.448500  1.0
  C  C1187  1  0.126300  0.745900  0.051500  1.0
  C  C1188  1  0.126300  0.254100  0.448500  1.0
  C  C1189  1  0.373700  0.754100  0.948500  1.0
  C  C1190  1  0.373700  0.245900  0.551500  1.0
  C  C1191  1  0.873700  0.254100  0.948500  1.0
  C  C1192  1  0.873700  0.745900  0.551500  1.0
  C  C1193  1  0.593200  0.341800  0.119700  1.0
  C  C1194  1  0.593200  0.658200  0.380300  1.0
  C  C1195  1  0.093200  0.841800  0.119700  1.0
  C  C1196  1  0.093200  0.158200  0.380300  1.0
  C  C1197  1  0.406800  0.658200  0.880300  1.0
  C  C1198  1  0.406800  0.341800  0.619700  1.0
  C  C1199  1  0.906800  0.158200  0.880300  1.0
  C  C1200  1  0.906800  0.841800  0.619700  1.0
  C  C1201  1  0.660700  0.356100  0.864500  1.0
  C  C1202  1  0.660700  0.643900  0.635500  1.0
  C  C1203  1  0.160700  0.856100  0.864500  1.0
  C  C1204  1  0.160700  0.143900  0.635500  1.0
  C  C1205  1  0.339300  0.643900  0.135500  1.0
  C  C1206  1  0.339300  0.356100  0.364500  1.0
  C  C1207  1  0.839300  0.143900  0.135500  1.0
  C  C1208  1  0.839300  0.856100  0.364500  1.0
  C  C1209  1  0.006200  0.578600  0.284000  1.0
  C  C1210  1  0.006200  0.421400  0.216000  1.0
  C  C1211  1  0.506200  0.078600  0.284000  1.0
  C  C1212  1  0.506200  0.921400  0.216000  1.0
  C  C1213  1  0.993800  0.421400  0.716000  1.0
  C  C1214  1  0.993800  0.578600  0.784000  1.0
  C  C1215  1  0.493800  0.921400  0.716000  1.0
  C  C1216  1  0.493800  0.078600  0.784000  1.0
  C  C1217  1  0.962800  0.673000  0.282500  1.0
  C  C1218  1  0.962800  0.327000  0.217500  1.0
  C  C1219  1  0.462800  0.173000  0.282500  1.0
  C  C1220  1  0.462800  0.827000  0.217500  1.0
  C  C1221  1  0.037200  0.327000  0.717500  1.0
  C  C1222  1  0.037200  0.673000  0.782500  1.0
  C  C1223  1  0.537200  0.827000  0.717500  1.0
  C  C1224  1  0.537200  0.173000  0.782500  1.0
  C  C1225  1  0.077600  0.631300  0.246100  1.0
  C  C1226  1  0.077600  0.368700  0.253900  1.0
  C  C1227  1  0.577600  0.131300  0.246100  1.0
  C  C1228  1  0.577600  0.868700  0.253900  1.0
  C  C1229  1  0.922400  0.368700  0.753900  1.0
  C  C1230  1  0.922400  0.631300  0.746100  1.0
  C  C1231  1  0.422400  0.868700  0.753900  1.0
  C  C1232  1  0.422400  0.131300  0.746100  1.0
  C  C1233  1  0.593600  0.689100  0.145000  1.0
  C  C1234  1  0.593600  0.310900  0.355000  1.0
  C  C1235  1  0.093600  0.189100  0.145000  1.0
  C  C1236  1  0.093600  0.810900  0.355000  1.0
  C  C1237  1  0.406400  0.310900  0.855000  1.0
  C  C1238  1  0.406400  0.689100  0.645000  1.0
  C  C1239  1  0.906400  0.810900  0.855000  1.0
  C  C1240  1  0.906400  0.189100  0.645000  1.0
  C  C1241  1  0.588200  0.630900  0.191700  1.0
  C  C1242  1  0.588200  0.369100  0.308300  1.0
  C  C1243  1  0.088200  0.130900  0.191700  1.0
  C  C1244  1  0.088200  0.869100  0.308300  1.0
  C  C1245  1  0.411800  0.369100  0.808300  1.0
  C  C1246  1  0.411800  0.630900  0.691700  1.0
  C  C1247  1  0.911800  0.869100  0.808300  1.0
  C  C1248  1  0.911800  0.130900  0.691700  1.0
  C  C1249  1  0.666200  0.700800  0.224200  1.0
  C  C1250  1  0.666200  0.299200  0.275800  1.0
  C  C1251  1  0.166200  0.200800  0.224200  1.0
  C  C1252  1  0.166200  0.799200  0.275800  1.0
  C  C1253  1  0.333800  0.299200  0.775800  1.0
  C  C1254  1  0.333800  0.700800  0.724200  1.0
  C  C1255  1  0.833800  0.799200  0.775800  1.0
  C  C1256  1  0.833800  0.200800  0.724200  1.0
  N  N1257  1  0.936300  0.414600  0.020750  1.0
  N  N1258  1  0.936300  0.585400  0.479250  1.0
  N  N1259  1  0.436300  0.914600  0.020750  1.0
  N  N1260  1  0.436300  0.085400  0.479250  1.0
  N  N1261  1  0.063700  0.585400  0.979250  1.0
  N  N1262  1  0.063700  0.414600  0.520750  1.0
  N  N1263  1  0.563700  0.085400  0.979250  1.0
  N  N1264  1  0.563700  0.914600  0.520750  1.0
  N  N1265  1  0.893900  0.533500  0.030900  1.0
  N  N1266  1  0.893900  0.466500  0.469100  1.0
  N  N1267  1  0.393900  0.033500  0.030900  1.0
  N  N1268  1  0.393900  0.966500  0.469100  1.0
  N  N1269  1  0.106100  0.466500  0.969100  1.0
  N  N1270  1  0.106100  0.533500  0.530900  1.0
  N  N1271  1  0.606100  0.966500  0.969100  1.0
  N  N1272  1  0.606100  0.033500  0.530900  1.0
  N  N1273  1  0.117800  0.424500  0.092500  1.0
  N  N1274  1  0.117800  0.575500  0.407500  1.0
  N  N1275  1  0.617800  0.924500  0.092500  1.0
  N  N1276  1  0.617800  0.075500  0.407500  1.0
  N  N1277  1  0.882200  0.575500  0.907500  1.0
  N  N1278  1  0.882200  0.424500  0.592500  1.0
  N  N1279  1  0.382200  0.075500  0.907500  1.0
  N  N1280  1  0.382200  0.924500  0.592500  1.0
  N  N1281  1  0.174600  0.325800  0.968800  1.0
  N  N1282  1  0.174600  0.674200  0.531200  1.0
  N  N1283  1  0.674600  0.825800  0.968800  1.0
  N  N1284  1  0.674600  0.174200  0.531200  1.0
  N  N1285  1  0.825400  0.674200  0.031200  1.0
  N  N1286  1  0.825400  0.325800  0.468800  1.0
  N  N1287  1  0.325400  0.174200  0.031200  1.0
  N  N1288  1  0.325400  0.825800  0.468800  1.0
  N  N1289  1  0.182500  0.266500  0.938600  1.0
  N  N1290  1  0.182500  0.733500  0.561400  1.0
  N  N1291  1  0.682500  0.766500  0.938600  1.0
  N  N1292  1  0.682500  0.233500  0.561400  1.0
  N  N1293  1  0.817500  0.733500  0.061400  1.0
  N  N1294  1  0.817500  0.266500  0.438600  1.0
  N  N1295  1  0.317500  0.233500  0.061400  1.0
  N  N1296  1  0.317500  0.766500  0.438600  1.0
  N  N1297  1  0.055300  0.280800  0.995190  1.0
  N  N1298  1  0.055300  0.719200  0.504810  1.0
  N  N1299  1  0.555300  0.780800  0.995190  1.0
  N  N1300  1  0.555300  0.219200  0.504810  1.0
  N  N1301  1  0.944700  0.719200  0.004810  1.0
  N  N1302  1  0.944700  0.280800  0.495190  1.0
  N  N1303  1  0.444700  0.219200  0.004810  1.0
  N  N1304  1  0.444700  0.780800  0.495190  1.0
  N  N1305  1  0.076900  0.228300  0.959260  1.0
  N  N1306  1  0.076900  0.771700  0.540740  1.0
  N  N1307  1  0.576900  0.728300  0.959260  1.0
  N  N1308  1  0.576900  0.271700  0.540740  1.0
  N  N1309  1  0.923100  0.771700  0.040740  1.0
  N  N1310  1  0.923100  0.228300  0.459260  1.0
  N  N1311  1  0.423100  0.271700  0.040740  1.0
  N  N1312  1  0.423100  0.728300  0.459260  1.0
  N  N1313  1  0.048500  0.311210  0.914720  1.0
  N  N1314  1  0.048500  0.688790  0.585280  1.0
  N  N1315  1  0.548500  0.811210  0.914720  1.0
  N  N1316  1  0.548500  0.188790  0.585280  1.0
  N  N1317  1  0.951500  0.688790  0.085280  1.0
  N  N1318  1  0.951500  0.311210  0.414720  1.0
  N  N1319  1  0.451500  0.188790  0.085280  1.0
  N  N1320  1  0.451500  0.811210  0.414720  1.0
  N  N1321  1  0.078300  0.257400  0.889270  1.0
  N  N1322  1  0.078300  0.742600  0.610730  1.0
  N  N1323  1  0.578300  0.757400  0.889270  1.0
  N  N1324  1  0.578300  0.242600  0.610730  1.0
  N  N1325  1  0.921700  0.742600  0.110730  1.0
  N  N1326  1  0.921700  0.257400  0.389270  1.0
  N  N1327  1  0.421700  0.242600  0.110730  1.0
  N  N1328  1  0.421700  0.757400  0.389270  1.0
  N  N1329  1  0.781900  0.528340  0.088060  1.0
  N  N1330  1  0.781900  0.471660  0.411940  1.0
  N  N1331  1  0.281900  0.028340  0.088060  1.0
  N  N1332  1  0.281900  0.971660  0.411940  1.0
  N  N1333  1  0.218100  0.471660  0.911940  1.0
  N  N1334  1  0.218100  0.528340  0.588060  1.0
  N  N1335  1  0.718100  0.971660  0.911940  1.0
  N  N1336  1  0.718100  0.028340  0.588060  1.0
  N  N1337  1  0.905800  0.509910  0.115490  1.0
  N  N1338  1  0.905800  0.490090  0.384510  1.0
  N  N1339  1  0.405800  0.009910  0.115490  1.0
  N  N1340  1  0.405800  0.990090  0.384510  1.0
  N  N1341  1  0.094200  0.490090  0.884510  1.0
  N  N1342  1  0.094200  0.509910  0.615490  1.0
  N  N1343  1  0.594200  0.990090  0.884510  1.0
  N  N1344  1  0.594200  0.009910  0.615490  1.0
  N  N1345  1  0.803600  0.408400  0.063970  1.0
  N  N1346  1  0.803600  0.591600  0.436030  1.0
  N  N1347  1  0.303600  0.908400  0.063970  1.0
  N  N1348  1  0.303600  0.091600  0.436030  1.0
  N  N1349  1  0.196400  0.591600  0.936030  1.0
  N  N1350  1  0.196400  0.408400  0.563970  1.0
  N  N1351  1  0.696400  0.091600  0.936030  1.0
  N  N1352  1  0.696400  0.908400  0.563970  1.0
  N  N1353  1  0.801100  0.431600  0.987470  1.0
  N  N1354  1  0.801100  0.568400  0.512530  1.0
  N  N1355  1  0.301100  0.931600  0.987470  1.0
  N  N1356  1  0.301100  0.068400  0.512530  1.0
  N  N1357  1  0.198900  0.568400  0.012530  1.0
  N  N1358  1  0.198900  0.431600  0.487470  1.0
  N  N1359  1  0.698900  0.068400  0.012530  1.0
  N  N1360  1  0.698900  0.931600  0.487470  1.0
  O  O1361  1  0.805000  0.495700  0.833800  1
  O  O1362  1  0.805000  0.504300  0.666200  1
  O  O1363  1  0.305000  0.995700  0.833800  1
  O  O1364  1  0.305000  0.004300  0.666200  1
  O  O1365  1  0.195000  0.504300  0.166200  1
  O  O1366  1  0.195000  0.495700  0.333800  1
  O  O1367  1  0.695000  0.004300  0.166200  1
  O  O1368  1  0.695000  0.995700  0.333800  1
  F  F1369  1  0.822500  0.487500  0.212900  1
  F  F1370  1  0.822500  0.512500  0.287100  1
  F  F1371  1  0.322500  0.987500  0.212900  1
  F  F1372  1  0.322500  0.012500  0.287100  1
  F  F1373  1  0.177500  0.512500  0.787100  1
  F  F1374  1  0.177500  0.487500  0.712900  1
  F  F1375  1  0.677500  0.012500  0.787100  1
  F  F1376  1  0.677500  0.987500  0.712900  1
  F  F1377  1  0.756000  0.429900  0.238000  1
  F  F1378  1  0.756000  0.570100  0.262000  1
  F  F1379  1  0.256000  0.929900  0.238000  1
  F  F1380  1  0.256000  0.070100  0.262000  1
  F  F1381  1  0.244000  0.570100  0.762000  1
  F  F1382  1  0.244000  0.429900  0.738000  1
  F  F1383  1  0.744000  0.070100  0.762000  1
  F  F1384  1  0.744000  0.929900  0.738000  1
  F  F1385  1  0.704000  0.491200  0.204800  1
  F  F1386  1  0.704000  0.508800  0.295200  1
  F  F1387  1  0.204000  0.991200  0.204800  1
  F  F1388  1  0.204000  0.008800  0.295200  1
  F  F1389  1  0.296000  0.508800  0.795200  1
  F  F1390  1  0.296000  0.491200  0.704800  1
  F  F1391  1  0.796000  0.008800  0.795200  1
  F  F1392  1  0.796000  0.991200  0.704800  1
  F  F1393  1  0.019600  0.065300  0.027600  1
  F  F1394  1  0.019600  0.934700  0.472400  1
  F  F1395  1  0.519600  0.565300  0.027600  1
  F  F1396  1  0.519600  0.434700  0.472400  1
  F  F1397  1  0.980400  0.934700  0.972400  1
  F  F1398  1  0.980400  0.065300  0.527600  1
  F  F1399  1  0.480400  0.434700  0.972400  1
  F  F1400  1  0.480400  0.565300  0.527600  1
  F  F1401  1  0.029000  0.990500  0.045200  1
  F  F1402  1  0.029000  0.009500  0.454800  1
  F  F1403  1  0.529000  0.490500  0.045200  1
  F  F1404  1  0.529000  0.509500  0.454800  1
  F  F1405  1  0.971000  0.009500  0.954800  1
  F  F1406  1  0.971000  0.990500  0.545200  1
  F  F1407  1  0.471000  0.509500  0.954800  1
  F  F1408  1  0.471000  0.490500  0.545200  1
  F  F1409  1  0.917600  0.008700  0.008900  1
  F  F1410  1  0.917600  0.991300  0.491100  1
  F  F1411  1  0.417600  0.508700  0.008900  1
  F  F1412  1  0.417600  0.491300  0.491100  1
  F  F1413  1  0.082400  0.991300  0.991100  1
  F  F1414  1  0.082400  0.008700  0.508900  1
  F  F1415  1  0.582400  0.491300  0.991100  1
  F  F1416  1  0.582400  0.508700  0.508900  1
  F  F1417  1  0.971400  0.065500  0.014700  1
  F  F1418  1  0.971400  0.934500  0.485300  1
  F  F1419  1  0.471400  0.565500  0.014700  1
  F  F1420  1  0.471400  0.434500  0.485300  1
  F  F1421  1  0.028600  0.934500  0.985300  1
  F  F1422  1  0.028600  0.065500  0.514700  1
  F  F1423  1  0.528600  0.434500  0.985300  1
  F  F1424  1  0.528600  0.565500  0.514700  1
  F  F1425  1  0.002300  0.011100  0.053400  1
  F  F1426  1  0.002300  0.988900  0.446600  1
  F  F1427  1  0.502300  0.511100  0.053400  1
  F  F1428  1  0.502300  0.488900  0.446600  1
  F  F1429  1  0.997700  0.988900  0.946600  1
  F  F1430  1  0.997700  0.011100  0.553400  1
  F  F1431  1  0.497700  0.488900  0.946600  1
  F  F1432  1  0.497700  0.511100  0.553400  1
  F  F1433  1  0.928000  0.983000  0.011400  1
  F  F1434  1  0.928000  0.017000  0.488600  1
  F  F1435  1  0.428000  0.483000  0.011400  1
  F  F1436  1  0.428000  0.517000  0.488600  1
  F  F1437  1  0.072000  0.017000  0.988600  1
  F  F1438  1  0.072000  0.983000  0.511400  1
  F  F1439  1  0.572000  0.517000  0.988600  1
  F  F1440  1  0.572000  0.483000  0.511400  1
  F  F1441  1  0.693000  0.463000  0.225600  1.0
  F  F1442  1  0.693000  0.537000  0.274400  1.0
  F  F1443  1  0.193000  0.963000  0.225600  1.0
  F  F1444  1  0.193000  0.037000  0.274400  1.0
  F  F1445  1  0.307000  0.537000  0.774400  1.0
  F  F1446  1  0.307000  0.463000  0.725600  1.0
  F  F1447  1  0.807000  0.037000  0.774400  1.0
  F  F1448  1  0.807000  0.963000  0.725600  1.0
  F  F1449  1  0.795000  0.447000  0.237100  1.0
  F  F1450  1  0.795000  0.553000  0.262900  1.0
  F  F1451  1  0.295000  0.947000  0.237100  1.0
  F  F1452  1  0.295000  0.053000  0.262900  1.0
  F  F1453  1  0.205000  0.553000  0.762900  1.0
  F  F1454  1  0.205000  0.447000  0.737100  1.0
  F  F1455  1  0.705000  0.053000  0.762900  1.0
  F  F1456  1  0.705000  0.947000  0.737100  1.0
  F  F1457  1  0.772000  0.498000  0.200300  1.0
  F  F1458  1  0.772000  0.502000  0.299700  1.0
  F  F1459  1  0.272000  0.998000  0.200300  1.0
  F  F1460  1  0.272000  0.002000  0.299700  1.0
  F  F1461  1  0.228000  0.502000  0.799700  1.0
  F  F1462  1  0.228000  0.498000  0.700300  1.0
  F  F1463  1  0.728000  0.002000  0.799700  1.0
  F  F1464  1  0.728000  0.998000  0.700300  1.0
