# generated using pymatgen
data_FeCoBPH92C61N13OF12
_symmetry_space_group_name_H-M   'P 1'
_cell_length_a   19.67000000
_cell_length_b   24.56000000
_cell_length_c   29.88000000
_cell_angle_alpha   114.15900000
_cell_angle_beta   90.00000000
_cell_angle_gamma   90.00000000
_symmetry_Int_Tables_number   1
_chemical_formula_structural   FeCoBPH92C61N13OF12
_chemical_formula_sum   'Fe8 Co8 B8 P8 H736 C488 N104 O8 F96'
_cell_volume   13170.57947861
_cell_formula_units_Z   8
loop_
 _symmetry_equiv_pos_site_id
 _symmetry_equiv_pos_as_xyz
  1  'x, y, z'
loop_
 _atom_site_type_symbol
 _atom_site_label
 _atom_site_symmetry_multiplicity
 _atom_site_fract_x
 _atom_site_fract_y
 _atom_site_fract_z
 _atom_site_occupancy
  Fe  Fe1  1  0.582120  0.650670  0.016520  1.0
  Fe  Fe2  1  0.582120  0.349330  0.483480  1.0
  Fe  Fe3  1  0.082120  0.150670  0.016520  1.0
  Fe  Fe4  1  0.082120  0.849330  0.483480  1.0
  Fe  Fe5  1  0.417880  0.349330  0.983480  1.0
  Fe  Fe6  1  0.417880  0.650670  0.516520  1.0
  Fe  Fe7  1  0.917880  0.849330  0.983480  1.0
  Fe  Fe8  1  0.917880  0.150670  0.516520  1.0
  Co  Co9  1  0.641190  0.464930  0.048030  1.0
  Co  Co10  1  0.641190  0.535070  0.451970  1.0
  Co  Co11  1  0.141190  0.964930  0.048030  1.0
  Co  Co12  1  0.141190  0.035070  0.451970  1.0
  Co  Co13  1  0.358810  0.535070  0.951970  1.0
  Co  Co14  1  0.358810  0.464930  0.548030  1.0
  Co  Co15  1  0.858810  0.035070  0.951970  1.0
  Co  Co16  1  0.858810  0.964930  0.548030  1.0
  B  B17  1  0.627000  0.778100  0.088700  1.0
  B  B18  1  0.627000  0.221900  0.411300  1.0
  B  B19  1  0.127000  0.278100  0.088700  1.0
  B  B20  1  0.127000  0.721900  0.411300  1.0
  B  B21  1  0.373000  0.221900  0.911300  1.0
  B  B22  1  0.373000  0.778100  0.588700  1.0
  B  B23  1  0.873000  0.721900  0.911300  1.0
  B  B24  1  0.873000  0.278100  0.588700  1.0
  P  P25  1  0.736100  0.500000  0.250000  1
  P  P26  1  0.236100  0.000000  0.250000  1
  P  P27  1  0.263900  0.500000  0.750000  1
  P  P28  1  0.763900  0.000000  0.750000  1
  P  P29  1  0.000000  0.500000  0.000000  1
  P  P30  1  0.000000  0.500000  0.500000  1
  P  P31  1  0.500000  0.000000  0.000000  1
  P  P32  1  0.500000  0.000000  0.500000  1
  H  H33  1  0.783400  0.512400  0.834200  1
  H  H34  1  0.783400  0.487600  0.665800  1
  H  H35  1  0.283400  0.012400  0.834200  1
  H  H36  1  0.283400  0.987600  0.665800  1
  H  H37  1  0.216600  0.487600  0.165800  1
  H  H38  1  0.216600  0.512400  0.334200  1
  H  H39  1  0.716600  0.987600  0.165800  1
  H  H40  1  0.716600  0.012400  0.334200  1
  H  H41  1  0.727900  0.554800  0.825600  1
  H  H42  1  0.727900  0.445200  0.674400  1
  H  H43  1  0.227900  0.054800  0.825600  1
  H  H44  1  0.227900  0.945200  0.674400  1
  H  H45  1  0.272100  0.445200  0.174400  1
  H  H46  1  0.272100  0.554800  0.325600  1
  H  H47  1  0.772100  0.945200  0.174400  1
  H  H48  1  0.772100  0.054800  0.325600  1
  H  H49  1  0.748900  0.493300  0.781400  1
  H  H50  1  0.748900  0.506700  0.718600  1
  H  H51  1  0.248900  0.993300  0.781400  1
  H  H52  1  0.248900  0.006700  0.718600  1
  H  H53  1  0.251100  0.506700  0.218600  1
  H  H54  1  0.251100  0.493300  0.281400  1
  H  H55  1  0.751100  0.006700  0.218600  1
  H  H56  1  0.751100  0.993300  0.281400  1
  H  H57  1  0.654000  0.505400  0.841200  1
  H  H58  1  0.654000  0.494600  0.658800  1
  H  H59  1  0.154000  0.005400  0.841200  1
  H  H60  1  0.154000  0.994600  0.658800  1
  H  H61  1  0.346000  0.494600  0.158800  1
  H  H62  1  0.346000  0.505400  0.341200  1
  H  H63  1  0.846000  0.994600  0.158800  1
  H  H64  1  0.846000  0.005400  0.341200  1
  H  H65  1  0.901100  0.619700  0.224700  1
  H  H66  1  0.901100  0.380300  0.275300  1
  H  H67  1  0.401100  0.119700  0.224700  1
  H  H68  1  0.401100  0.880300  0.275300  1
  H  H69  1  0.098900  0.380300  0.775300  1
  H  H70  1  0.098900  0.619700  0.724700  1
  H  H71  1  0.598900  0.880300  0.775300  1
  H  H72  1  0.598900  0.119700  0.724700  1
  H  H73  1  0.826900  0.645500  0.243800  1
  H  H74  1  0.826900  0.354500  0.256200  1
  H  H75  1  0.326900  0.145500  0.243800  1
  H  H76  1  0.326900  0.854500  0.256200  1
  H  H77  1  0.173100  0.354500  0.756200  1
  H  H78  1  0.173100  0.645500  0.743800  1
  H  H79  1  0.673100  0.854500  0.756200  1
  H  H80  1  0.673100  0.145500  0.743800  1
  H  H81  1  0.890900  0.689500  0.257100  1
  H  H82  1  0.890900  0.310500  0.242900  1
  H  H83  1  0.390900  0.189500  0.257100  1
  H  H84  1  0.390900  0.810500  0.242900  1
  H  H85  1  0.109100  0.310500  0.742900  1
  H  H86  1  0.109100  0.689500  0.757100  1
  H  H87  1  0.609100  0.810500  0.742900  1
  H  H88  1  0.609100  0.189500  0.757100  1
  H  H89  1  0.768500  0.712400  0.202800  1
  H  H90  1  0.768500  0.287600  0.297200  1
  H  H91  1  0.268500  0.212400  0.202800  1
  H  H92  1  0.268500  0.787600  0.297200  1
  H  H93  1  0.231500  0.287600  0.797200  1
  H  H94  1  0.231500  0.712400  0.702800  1
  H  H95  1  0.731500  0.787600  0.797200  1
  H  H96  1  0.731500  0.212400  0.702800  1
  H  H97  1  0.809500  0.722700  0.160600  1
  H  H98  1  0.809500  0.277300  0.339400  1
  H  H99  1  0.309500  0.222700  0.160600  1
  H  H100  1  0.309500  0.777300  0.339400  1
  H  H101  1  0.190500  0.277300  0.839400  1
  H  H102  1  0.190500  0.722700  0.660600  1
  H  H103  1  0.690500  0.777300  0.839400  1
  H  H104  1  0.690500  0.222700  0.660600  1
  H  H105  1  0.834500  0.754200  0.216400  1
  H  H106  1  0.834500  0.245800  0.283600  1
  H  H107  1  0.334500  0.254200  0.216400  1
  H  H108  1  0.334500  0.745800  0.283600  1
  H  H109  1  0.165500  0.245800  0.783600  1
  H  H110  1  0.165500  0.754200  0.716400  1
  H  H111  1  0.665500  0.745800  0.783600  1
  H  H112  1  0.665500  0.254200  0.716400  1
  H  H113  1  0.959000  0.636700  0.167100  1
  H  H114  1  0.959000  0.363300  0.332900  1
  H  H115  1  0.459000  0.136700  0.167100  1
  H  H116  1  0.459000  0.863300  0.332900  1
  H  H117  1  0.041000  0.363300  0.832900  1
  H  H118  1  0.041000  0.636700  0.667100  1
  H  H119  1  0.541000  0.863300  0.832900  1
  H  H120  1  0.541000  0.136700  0.667100  1
  H  H121  1  0.951100  0.707800  0.190400  1
  H  H122  1  0.951100  0.292200  0.309600  1
  H  H123  1  0.451100  0.207800  0.190400  1
  H  H124  1  0.451100  0.792200  0.309600  1
  H  H125  1  0.048900  0.292200  0.809600  1
  H  H126  1  0.048900  0.707800  0.690400  1
  H  H127  1  0.548900  0.792200  0.809600  1
  H  H128  1  0.548900  0.207800  0.690400  1
  H  H129  1  0.930000  0.669400  0.134500  1
  H  H130  1  0.930000  0.330600  0.365500  1
  H  H131  1  0.430000  0.169400  0.134500  1
  H  H132  1  0.430000  0.830600  0.365500  1
  H  H133  1  0.070000  0.330600  0.865500  1
  H  H134  1  0.070000  0.669400  0.634500  1
  H  H135  1  0.570000  0.830600  0.865500  1
  H  H136  1  0.570000  0.169400  0.634500  1
  H  H137  1  0.539400  0.699000  0.266800  1
  H  H138  1  0.539400  0.301000  0.233200  1
  H  H139  1  0.039400  0.199000  0.266800  1
  H  H140  1  0.039400  0.801000  0.233200  1
  H  H141  1  0.460600  0.301000  0.733200  1
  H  H142  1  0.460600  0.699000  0.766800  1
  H  H143  1  0.960600  0.801000  0.733200  1
  H  H144  1  0.960600  0.199000  0.766800  1
  H  H145  1  0.500400  0.702700  0.315000  1
  H  H146  1  0.500400  0.297300  0.185000  1
  H  H147  1  0.000400  0.202700  0.315000  1
  H  H148  1  0.000400  0.797300  0.185000  1
  H  H149  1  0.499600  0.297300  0.685000  1
  H  H150  1  0.499600  0.702700  0.815000  1
  H  H151  1  0.999600  0.797300  0.685000  1
  H  H152  1  0.999600  0.202700  0.815000  1
  H  H153  1  0.458100  0.697400  0.267600  1
  H  H154  1  0.458100  0.302600  0.232400  1
  H  H155  1  0.958100  0.197400  0.267600  1
  H  H156  1  0.958100  0.802600  0.232400  1
  H  H157  1  0.541900  0.302600  0.732400  1
  H  H158  1  0.541900  0.697400  0.767600  1
  H  H159  1  0.041900  0.802600  0.732400  1
  H  H160  1  0.041900  0.197400  0.767600  1
  H  H161  1  0.561900  0.562000  0.286000  1
  H  H162  1  0.561900  0.438000  0.214000  1
  H  H163  1  0.061900  0.062000  0.286000  1
  H  H164  1  0.061900  0.938000  0.214000  1
  H  H165  1  0.438100  0.438000  0.714000  1
  H  H166  1  0.438100  0.562000  0.786000  1
  H  H167  1  0.938100  0.938000  0.714000  1
  H  H168  1  0.938100  0.062000  0.786000  1
  H  H169  1  0.538700  0.622900  0.330000  1
  H  H170  1  0.538700  0.377100  0.170000  1
  H  H171  1  0.038700  0.122900  0.330000  1
  H  H172  1  0.038700  0.877100  0.170000  1
  H  H173  1  0.461300  0.377100  0.670000  1
  H  H174  1  0.461300  0.622900  0.830000  1
  H  H175  1  0.961300  0.877100  0.670000  1
  H  H176  1  0.961300  0.122900  0.830000  1
  H  H177  1  0.599800  0.623200  0.294700  1
  H  H178  1  0.599800  0.376800  0.205300  1
  H  H179  1  0.099800  0.123200  0.294700  1
  H  H180  1  0.099800  0.876800  0.205300  1
  H  H181  1  0.400200  0.376800  0.705300  1
  H  H182  1  0.400200  0.623200  0.794700  1
  H  H183  1  0.900200  0.876800  0.705300  1
  H  H184  1  0.900200  0.123200  0.794700  1
  H  H185  1  0.443700  0.548500  0.263300  1
  H  H186  1  0.443700  0.451500  0.236700  1
  H  H187  1  0.943700  0.048500  0.263300  1
  H  H188  1  0.943700  0.951500  0.236700  1
  H  H189  1  0.556300  0.451500  0.736700  1
  H  H190  1  0.556300  0.548500  0.763300  1
  H  H191  1  0.056300  0.951500  0.736700  1
  H  H192  1  0.056300  0.048500  0.763300  1
  H  H193  1  0.398700  0.603800  0.265600  1
  H  H194  1  0.398700  0.396200  0.234400  1
  H  H195  1  0.898700  0.103800  0.265600  1
  H  H196  1  0.898700  0.896200  0.234400  1
  H  H197  1  0.601300  0.396200  0.734400  1
  H  H198  1  0.601300  0.603800  0.765600  1
  H  H199  1  0.101300  0.896200  0.734400  1
  H  H200  1  0.101300  0.103800  0.765600  1
  H  H201  1  0.440600  0.608000  0.312800  1
  H  H202  1  0.440600  0.392000  0.187200  1
  H  H203  1  0.940600  0.108000  0.312800  1
  H  H204  1  0.940600  0.892000  0.187200  1
  H  H205  1  0.559400  0.392000  0.687200  1
  H  H206  1  0.559400  0.608000  0.812800  1
  H  H207  1  0.059400  0.892000  0.687200  1
  H  H208  1  0.059400  0.108000  0.812800  1
  H  H209  1  0.641500  0.819100  0.111700  1.0
  H  H210  1  0.641500  0.180900  0.388300  1.0
  H  H211  1  0.141500  0.319100  0.111700  1.0
  H  H212  1  0.141500  0.680900  0.388300  1.0
  H  H213  1  0.358500  0.180900  0.888300  1.0
  H  H214  1  0.358500  0.819100  0.611700  1.0
  H  H215  1  0.858500  0.680900  0.888300  1.0
  H  H216  1  0.858500  0.319100  0.611700  1.0
  H  H217  1  0.503800  0.825400  0.977200  1.0
  H  H218  1  0.503800  0.174600  0.522800  1.0
  H  H219  1  0.003800  0.325400  0.977200  1.0
  H  H220  1  0.003800  0.674600  0.522800  1.0
  H  H221  1  0.496200  0.174600  0.022800  1.0
  H  H222  1  0.496200  0.825400  0.477200  1.0
  H  H223  1  0.996200  0.674600  0.022800  1.0
  H  H224  1  0.996200  0.325400  0.477200  1.0
  H  H225  1  0.841600  0.694100  0.039000  1.0
  H  H226  1  0.841600  0.305900  0.461000  1.0
  H  H227  1  0.341600  0.194100  0.039000  1.0
  H  H228  1  0.341600  0.805900  0.461000  1.0
  H  H229  1  0.158400  0.305900  0.961000  1.0
  H  H230  1  0.158400  0.694100  0.539000  1.0
  H  H231  1  0.658400  0.805900  0.961000  1.0
  H  H232  1  0.658400  0.194100  0.539000  1.0
  H  H233  1  0.493800  0.727600  0.194900  1.0
  H  H234  1  0.493800  0.272400  0.305100  1.0
  H  H235  1  0.993800  0.227600  0.194900  1.0
  H  H236  1  0.993800  0.772400  0.305100  1.0
  H  H237  1  0.506200  0.272400  0.805100  1.0
  H  H238  1  0.506200  0.727600  0.694900  1.0
  H  H239  1  0.006200  0.772400  0.805100  1.0
  H  H240  1  0.006200  0.227600  0.694900  1.0
  H  H241  1  0.657900  0.407500  0.125100  1.0
  H  H242  1  0.657900  0.592500  0.374900  1.0
  H  H243  1  0.157900  0.907500  0.125100  1.0
  H  H244  1  0.157900  0.092500  0.374900  1.0
  H  H245  1  0.342100  0.592500  0.874900  1.0
  H  H246  1  0.342100  0.407500  0.625100  1.0
  H  H247  1  0.842100  0.092500  0.874900  1.0
  H  H248  1  0.842100  0.907500  0.625100  1.0
  H  H249  1  0.737200  0.352500  0.145900  1.0
  H  H250  1  0.737200  0.647500  0.354100  1.0
  H  H251  1  0.237200  0.852500  0.145900  1.0
  H  H252  1  0.237200  0.147500  0.354100  1.0
  H  H253  1  0.262800  0.647500  0.854100  1.0
  H  H254  1  0.262800  0.352500  0.645900  1.0
  H  H255  1  0.762800  0.147500  0.854100  1.0
  H  H256  1  0.762800  0.852500  0.645900  1.0
  H  H257  1  0.838800  0.324300  0.018800  1.0
  H  H258  1  0.838800  0.675700  0.481200  1.0
  H  H259  1  0.338800  0.824300  0.018800  1.0
  H  H260  1  0.338800  0.175700  0.481200  1.0
  H  H261  1  0.161200  0.675700  0.981200  1.0
  H  H262  1  0.161200  0.324300  0.518800  1.0
  H  H263  1  0.661200  0.175700  0.981200  1.0
  H  H264  1  0.661200  0.824300  0.518800  1.0
  H  H265  1  0.837700  0.340200  0.951600  1.0
  H  H266  1  0.837700  0.659800  0.548400  1.0
  H  H267  1  0.337700  0.840200  0.951600  1.0
  H  H268  1  0.337700  0.159800  0.548400  1.0
  H  H269  1  0.162300  0.659800  0.048400  1.0
  H  H270  1  0.162300  0.340200  0.451600  1.0
  H  H271  1  0.662300  0.159800  0.048400  1.0
  H  H272  1  0.662300  0.840200  0.451600  1.0
  H  H273  1  0.737800  0.422400  0.876200  1.0
  H  H274  1  0.737800  0.577600  0.623800  1.0
  H  H275  1  0.237800  0.922400  0.876200  1.0
  H  H276  1  0.237800  0.077600  0.623800  1.0
  H  H277  1  0.262200  0.577600  0.123800  1.0
  H  H278  1  0.262200  0.422400  0.376200  1.0
  H  H279  1  0.762200  0.077600  0.123800  1.0
  H  H280  1  0.762200  0.922400  0.376200  1.0
  H  H281  1  0.660300  0.459400  0.940900  1.0
  H  H282  1  0.660300  0.540600  0.559100  1.0
  H  H283  1  0.160300  0.959400  0.940900  1.0
  H  H284  1  0.160300  0.040600  0.559100  1.0
  H  H285  1  0.339700  0.540600  0.059100  1.0
  H  H286  1  0.339700  0.459400  0.440900  1.0
  H  H287  1  0.839700  0.040600  0.059100  1.0
  H  H288  1  0.839700  0.959400  0.440900  1.0
  H  H289  1  0.719500  0.643800  0.195300  1.0
  H  H290  1  0.719500  0.356200  0.304700  1.0
  H  H291  1  0.219500  0.143800  0.195300  1.0
  H  H292  1  0.219500  0.856200  0.304700  1.0
  H  H293  1  0.280500  0.356200  0.804700  1.0
  H  H294  1  0.280500  0.643800  0.695300  1.0
  H  H295  1  0.780500  0.856200  0.804700  1.0
  H  H296  1  0.780500  0.143800  0.695300  1.0
  H  H297  1  0.872500  0.581300  0.092300  1.0
  H  H298  1  0.872500  0.418700  0.407700  1.0
  H  H299  1  0.372500  0.081300  0.092300  1.0
  H  H300  1  0.372500  0.918700  0.407700  1.0
  H  H301  1  0.127500  0.418700  0.907700  1.0
  H  H302  1  0.127500  0.581300  0.592300  1.0
  H  H303  1  0.627500  0.918700  0.907700  1.0
  H  H304  1  0.627500  0.081300  0.592300  1.0
  H  H305  1  0.796700  0.505900  0.044500  1.0
  H  H306  1  0.796700  0.494100  0.455500  1.0
  H  H307  1  0.296700  0.005900  0.044500  1.0
  H  H308  1  0.296700  0.994100  0.455500  1.0
  H  H309  1  0.203300  0.494100  0.955500  1.0
  H  H310  1  0.203300  0.505900  0.544500  1.0
  H  H311  1  0.703300  0.994100  0.955500  1.0
  H  H312  1  0.703300  0.005900  0.544500  1.0
  H  H313  1  0.618500  0.630000  0.218500  1.0
  H  H314  1  0.618500  0.370000  0.281500  1.0
  H  H315  1  0.118500  0.130000  0.218500  1.0
  H  H316  1  0.118500  0.870000  0.281500  1.0
  H  H317  1  0.381500  0.370000  0.781500  1.0
  H  H318  1  0.381500  0.630000  0.718500  1.0
  H  H319  1  0.881500  0.870000  0.781500  1.0
  H  H320  1  0.881500  0.130000  0.718500  1.0
  H  H321  1  0.454100  0.522100  0.182100  1.0
  H  H322  1  0.454100  0.477900  0.317900  1.0
  H  H323  1  0.954100  0.022100  0.182100  1.0
  H  H324  1  0.954100  0.977900  0.317900  1.0
  H  H325  1  0.545900  0.477900  0.817900  1.0
  H  H326  1  0.545900  0.522100  0.682100  1.0
  H  H327  1  0.045900  0.977900  0.817900  1.0
  H  H328  1  0.045900  0.022100  0.682100  1.0
  H  H329  1  0.504400  0.462500  0.105300  1.0
  H  H330  1  0.504400  0.537500  0.394700  1.0
  H  H331  1  0.004400  0.962500  0.105300  1.0
  H  H332  1  0.004400  0.037500  0.394700  1.0
  H  H333  1  0.495600  0.537500  0.894700  1.0
  H  H334  1  0.495600  0.462500  0.605300  1.0
  H  H335  1  0.995600  0.037500  0.894700  1.0
  H  H336  1  0.995600  0.962500  0.605300  1.0
  H  H337  1  0.523200  0.663400  0.913100  1.0
  H  H338  1  0.523200  0.336600  0.586900  1.0
  H  H339  1  0.023200  0.163400  0.913100  1.0
  H  H340  1  0.023200  0.836600  0.586900  1.0
  H  H341  1  0.476800  0.336600  0.086900  1.0
  H  H342  1  0.476800  0.663400  0.413100  1.0
  H  H343  1  0.976800  0.836600  0.086900  1.0
  H  H344  1  0.976800  0.163400  0.413100  1.0
  H  H345  1  0.483400  0.718000  0.908900  1.0
  H  H346  1  0.483400  0.282000  0.591100  1.0
  H  H347  1  0.983400  0.218000  0.908900  1.0
  H  H348  1  0.983400  0.782000  0.591100  1.0
  H  H349  1  0.516600  0.282000  0.091100  1.0
  H  H350  1  0.516600  0.718000  0.408900  1.0
  H  H351  1  0.016600  0.782000  0.091100  1.0
  H  H352  1  0.016600  0.218000  0.408900  1.0
  H  H353  1  0.450800  0.683400  0.939000  1.0
  H  H354  1  0.450800  0.316600  0.561000  1.0
  H  H355  1  0.950800  0.183400  0.939000  1.0
  H  H356  1  0.950800  0.816600  0.561000  1.0
  H  H357  1  0.549200  0.316600  0.061000  1.0
  H  H358  1  0.549200  0.683400  0.439000  1.0
  H  H359  1  0.049200  0.816600  0.061000  1.0
  H  H360  1  0.049200  0.183400  0.439000  1.0
  H  H361  1  0.554200  0.897100  0.104600  1.0
  H  H362  1  0.554200  0.102900  0.395400  1.0
  H  H363  1  0.054200  0.397100  0.104600  1.0
  H  H364  1  0.054200  0.602900  0.395400  1.0
  H  H365  1  0.445800  0.102900  0.895400  1.0
  H  H366  1  0.445800  0.897100  0.604600  1.0
  H  H367  1  0.945800  0.602900  0.895400  1.0
  H  H368  1  0.945800  0.397100  0.604600  1.0
  H  H369  1  0.551100  0.917400  0.060100  1.0
  H  H370  1  0.551100  0.082600  0.439900  1.0
  H  H371  1  0.051100  0.417400  0.060100  1.0
  H  H372  1  0.051100  0.582600  0.439900  1.0
  H  H373  1  0.448900  0.082600  0.939900  1.0
  H  H374  1  0.448900  0.917400  0.560100  1.0
  H  H375  1  0.948900  0.582600  0.939900  1.0
  H  H376  1  0.948900  0.417400  0.560100  1.0
  H  H377  1  0.622100  0.897800  0.075300  1.0
  H  H378  1  0.622100  0.102200  0.424700  1.0
  H  H379  1  0.122100  0.397800  0.075300  1.0
  H  H380  1  0.122100  0.602200  0.424700  1.0
  H  H381  1  0.377900  0.102200  0.924700  1.0
  H  H382  1  0.377900  0.897800  0.575300  1.0
  H  H383  1  0.877900  0.602200  0.924700  1.0
  H  H384  1  0.877900  0.397800  0.575300  1.0
  H  H385  1  0.724100  0.562500  0.992400  1.0
  H  H386  1  0.724100  0.437500  0.507600  1.0
  H  H387  1  0.224100  0.062500  0.992400  1.0
  H  H388  1  0.224100  0.937500  0.507600  1.0
  H  H389  1  0.275900  0.437500  0.007600  1.0
  H  H390  1  0.275900  0.562500  0.492400  1.0
  H  H391  1  0.775900  0.937500  0.007600  1.0
  H  H392  1  0.775900  0.062500  0.492400  1.0
  H  H393  1  0.802200  0.579200  0.989700  1.0
  H  H394  1  0.802200  0.420800  0.510300  1.0
  H  H395  1  0.302200  0.079200  0.989700  1.0
  H  H396  1  0.302200  0.920800  0.510300  1.0
  H  H397  1  0.197800  0.420800  0.010300  1.0
  H  H398  1  0.197800  0.579200  0.489700  1.0
  H  H399  1  0.697800  0.920800  0.010300  1.0
  H  H400  1  0.697800  0.079200  0.489700  1.0
  H  H401  1  0.748400  0.584900  0.951600  1.0
  H  H402  1  0.748400  0.415100  0.548400  1.0
  H  H403  1  0.248400  0.084900  0.951600  1.0
  H  H404  1  0.248400  0.915100  0.548400  1.0
  H  H405  1  0.251600  0.415100  0.048400  1.0
  H  H406  1  0.251600  0.584900  0.451600  1.0
  H  H407  1  0.751600  0.915100  0.048400  1.0
  H  H408  1  0.751600  0.084900  0.451600  1.0
  H  H409  1  0.838000  0.807500  0.101500  1.0
  H  H410  1  0.838000  0.192500  0.398500  1.0
  H  H411  1  0.338000  0.307500  0.101500  1.0
  H  H412  1  0.338000  0.692500  0.398500  1.0
  H  H413  1  0.162000  0.192500  0.898500  1.0
  H  H414  1  0.162000  0.807500  0.601500  1.0
  H  H415  1  0.662000  0.692500  0.898500  1.0
  H  H416  1  0.662000  0.307500  0.601500  1.0
  H  H417  1  0.773100  0.822200  0.136700  1.0
  H  H418  1  0.773100  0.177800  0.363300  1.0
  H  H419  1  0.273100  0.322200  0.136700  1.0
  H  H420  1  0.273100  0.677800  0.363300  1.0
  H  H421  1  0.226900  0.177800  0.863300  1.0
  H  H422  1  0.226900  0.822200  0.636700  1.0
  H  H423  1  0.726900  0.677800  0.863300  1.0
  H  H424  1  0.726900  0.322200  0.636700  1.0
  H  H425  1  0.773200  0.839600  0.090600  1.0
  H  H426  1  0.773200  0.160400  0.409400  1.0
  H  H427  1  0.273200  0.339600  0.090600  1.0
  H  H428  1  0.273200  0.660400  0.409400  1.0
  H  H429  1  0.226800  0.160400  0.909400  1.0
  H  H430  1  0.226800  0.839600  0.590600  1.0
  H  H431  1  0.726800  0.660400  0.909400  1.0
  H  H432  1  0.726800  0.339600  0.590600  1.0
  H  H433  1  0.433700  0.630000  0.085700  1.0
  H  H434  1  0.433700  0.370000  0.414300  1.0
  H  H435  1  0.933700  0.130000  0.085700  1.0
  H  H436  1  0.933700  0.870000  0.414300  1.0
  H  H437  1  0.566300  0.370000  0.914300  1.0
  H  H438  1  0.566300  0.630000  0.585700  1.0
  H  H439  1  0.066300  0.870000  0.914300  1.0
  H  H440  1  0.066300  0.130000  0.585700  1.0
  H  H441  1  0.455900  0.621500  0.134000  1.0
  H  H442  1  0.455900  0.378500  0.366000  1.0
  H  H443  1  0.955900  0.121500  0.134000  1.0
  H  H444  1  0.955900  0.878500  0.366000  1.0
  H  H445  1  0.544100  0.378500  0.866000  1.0
  H  H446  1  0.544100  0.621500  0.634000  1.0
  H  H447  1  0.044100  0.878500  0.866000  1.0
  H  H448  1  0.044100  0.121500  0.634000  1.0
  H  H449  1  0.498800  0.590400  0.084400  1.0
  H  H450  1  0.498800  0.409600  0.415600  1.0
  H  H451  1  0.998800  0.090400  0.084400  1.0
  H  H452  1  0.998800  0.909600  0.415600  1.0
  H  H453  1  0.501200  0.409600  0.915600  1.0
  H  H454  1  0.501200  0.590400  0.584400  1.0
  H  H455  1  0.001200  0.909600  0.915600  1.0
  H  H456  1  0.001200  0.090400  0.584400  1.0
  H  H457  1  0.630700  0.830200  0.205600  1.0
  H  H458  1  0.630700  0.169800  0.294400  1.0
  H  H459  1  0.130700  0.330200  0.205600  1.0
  H  H460  1  0.130700  0.669800  0.294400  1.0
  H  H461  1  0.369300  0.169800  0.794400  1.0
  H  H462  1  0.369300  0.830200  0.705600  1.0
  H  H463  1  0.869300  0.669800  0.794400  1.0
  H  H464  1  0.869300  0.330200  0.705600  1.0
  H  H465  1  0.558800  0.835900  0.232200  1.0
  H  H466  1  0.558800  0.164100  0.267800  1.0
  H  H467  1  0.058800  0.335900  0.232200  1.0
  H  H468  1  0.058800  0.664100  0.267800  1.0
  H  H469  1  0.441200  0.164100  0.767800  1.0
  H  H470  1  0.441200  0.835900  0.732200  1.0
  H  H471  1  0.941200  0.664100  0.767800  1.0
  H  H472  1  0.941200  0.335900  0.732200  1.0
  H  H473  1  0.567400  0.859400  0.189800  1.0
  H  H474  1  0.567400  0.140600  0.310200  1.0
  H  H475  1  0.067400  0.359400  0.189800  1.0
  H  H476  1  0.067400  0.640600  0.310200  1.0
  H  H477  1  0.432600  0.140600  0.810200  1.0
  H  H478  1  0.432600  0.859400  0.689800  1.0
  H  H479  1  0.932600  0.640600  0.810200  1.0
  H  H480  1  0.932600  0.359400  0.689800  1.0
  H  H481  1  0.896500  0.372500  0.153800  1.0
  H  H482  1  0.896500  0.627500  0.346200  1.0
  H  H483  1  0.396500  0.872500  0.153800  1.0
  H  H484  1  0.396500  0.127500  0.346200  1.0
  H  H485  1  0.103500  0.627500  0.846200  1.0
  H  H486  1  0.103500  0.372500  0.653800  1.0
  H  H487  1  0.603500  0.127500  0.846200  1.0
  H  H488  1  0.603500  0.872500  0.653800  1.0
  H  H489  1  0.928000  0.359600  0.101000  1.0
  H  H490  1  0.928000  0.640400  0.399000  1.0
  H  H491  1  0.428000  0.859600  0.101000  1.0
  H  H492  1  0.428000  0.140400  0.399000  1.0
  H  H493  1  0.072000  0.640400  0.899000  1.0
  H  H494  1  0.072000  0.359600  0.601000  1.0
  H  H495  1  0.572000  0.140400  0.899000  1.0
  H  H496  1  0.572000  0.859600  0.601000  1.0
  H  H497  1  0.951900  0.320900  0.130200  1.0
  H  H498  1  0.951900  0.679100  0.369800  1.0
  H  H499  1  0.451900  0.820900  0.130200  1.0
  H  H500  1  0.451900  0.179100  0.369800  1.0
  H  H501  1  0.048100  0.679100  0.869800  1.0
  H  H502  1  0.048100  0.320900  0.630200  1.0
  H  H503  1  0.548100  0.179100  0.869800  1.0
  H  H504  1  0.548100  0.820900  0.630200  1.0
  H  H505  1  0.859600  0.235700  0.130900  1.0
  H  H506  1  0.859600  0.764300  0.369100  1.0
  H  H507  1  0.359600  0.735700  0.130900  1.0
  H  H508  1  0.359600  0.264300  0.369100  1.0
  H  H509  1  0.140400  0.764300  0.869100  1.0
  H  H510  1  0.140400  0.235700  0.630900  1.0
  H  H511  1  0.640400  0.264300  0.869100  1.0
  H  H512  1  0.640400  0.735700  0.630900  1.0
  H  H513  1  0.783400  0.252800  0.123100  1.0
  H  H514  1  0.783400  0.747200  0.376900  1.0
  H  H515  1  0.283400  0.752800  0.123100  1.0
  H  H516  1  0.283400  0.247200  0.376900  1.0
  H  H517  1  0.216600  0.747200  0.876900  1.0
  H  H518  1  0.216600  0.252800  0.623100  1.0
  H  H519  1  0.716600  0.247200  0.876900  1.0
  H  H520  1  0.716600  0.752800  0.623100  1.0
  H  H521  1  0.828800  0.299000  0.166400  1.0
  H  H522  1  0.828800  0.701000  0.333600  1.0
  H  H523  1  0.328800  0.799000  0.166400  1.0
  H  H524  1  0.328800  0.201000  0.333600  1.0
  H  H525  1  0.171200  0.701000  0.833600  1.0
  H  H526  1  0.171200  0.299000  0.666400  1.0
  H  H527  1  0.671200  0.201000  0.833600  1.0
  H  H528  1  0.671200  0.799000  0.666400  1.0
  H  H529  1  0.924400  0.225800  0.062200  1.0
  H  H530  1  0.924400  0.774200  0.437800  1.0
  H  H531  1  0.424400  0.725800  0.062200  1.0
  H  H532  1  0.424400  0.274200  0.437800  1.0
  H  H533  1  0.075600  0.774200  0.937800  1.0
  H  H534  1  0.075600  0.225800  0.562200  1.0
  H  H535  1  0.575600  0.274200  0.937800  1.0
  H  H536  1  0.575600  0.725800  0.562200  1.0
  H  H537  1  0.901100  0.259000  0.028500  1.0
  H  H538  1  0.901100  0.741000  0.471500  1.0
  H  H539  1  0.401100  0.759000  0.028500  1.0
  H  H540  1  0.401100  0.241000  0.471500  1.0
  H  H541  1  0.098900  0.741000  0.971500  1.0
  H  H542  1  0.098900  0.259000  0.528500  1.0
  H  H543  1  0.598900  0.241000  0.971500  1.0
  H  H544  1  0.598900  0.759000  0.528500  1.0
  H  H545  1  0.850900  0.212900  0.037000  1.0
  H  H546  1  0.850900  0.787100  0.463000  1.0
  H  H547  1  0.350900  0.712900  0.037000  1.0
  H  H548  1  0.350900  0.287100  0.463000  1.0
  H  H549  1  0.149100  0.787100  0.963000  1.0
  H  H550  1  0.149100  0.212900  0.537000  1.0
  H  H551  1  0.649100  0.287100  0.963000  1.0
  H  H552  1  0.649100  0.712900  0.537000  1.0
  H  H553  1  0.893100  0.287700  0.882200  1.0
  H  H554  1  0.893100  0.712300  0.617800  1.0
  H  H555  1  0.393100  0.787700  0.882200  1.0
  H  H556  1  0.393100  0.212300  0.617800  1.0
  H  H557  1  0.106900  0.712300  0.117800  1.0
  H  H558  1  0.106900  0.287700  0.382200  1.0
  H  H559  1  0.606900  0.212300  0.117800  1.0
  H  H560  1  0.606900  0.787700  0.382200  1.0
  H  H561  1  0.936500  0.348100  0.903300  1.0
  H  H562  1  0.936500  0.651900  0.596700  1.0
  H  H563  1  0.436500  0.848100  0.903300  1.0
  H  H564  1  0.436500  0.151900  0.596700  1.0
  H  H565  1  0.063500  0.651900  0.096700  1.0
  H  H566  1  0.063500  0.348100  0.403300  1.0
  H  H567  1  0.563500  0.151900  0.096700  1.0
  H  H568  1  0.563500  0.848100  0.403300  1.0
  H  H569  1  0.941000  0.304300  0.846300  1.0
  H  H570  1  0.941000  0.695700  0.653700  1.0
  H  H571  1  0.441000  0.804300  0.846300  1.0
  H  H572  1  0.441000  0.195700  0.653700  1.0
  H  H573  1  0.059000  0.695700  0.153700  1.0
  H  H574  1  0.059000  0.304300  0.346300  1.0
  H  H575  1  0.559000  0.195700  0.153700  1.0
  H  H576  1  0.559000  0.804300  0.346300  1.0
  H  H577  1  0.846300  0.294500  0.789600  1.0
  H  H578  1  0.846300  0.705500  0.710400  1.0
  H  H579  1  0.346300  0.794500  0.789600  1.0
  H  H580  1  0.346300  0.205500  0.710400  1.0
  H  H581  1  0.153700  0.705500  0.210400  1.0
  H  H582  1  0.153700  0.294500  0.289600  1.0
  H  H583  1  0.653700  0.205500  0.210400  1.0
  H  H584  1  0.653700  0.794500  0.289600  1.0
  H  H585  1  0.780000  0.335500  0.806600  1.0
  H  H586  1  0.780000  0.664500  0.693400  1.0
  H  H587  1  0.280000  0.835500  0.806600  1.0
  H  H588  1  0.280000  0.164500  0.693400  1.0
  H  H589  1  0.220000  0.664500  0.193400  1.0
  H  H590  1  0.220000  0.335500  0.306600  1.0
  H  H591  1  0.720000  0.164500  0.193400  1.0
  H  H592  1  0.720000  0.835500  0.306600  1.0
  H  H593  1  0.789600  0.280900  0.822100  1.0
  H  H594  1  0.789600  0.719100  0.677900  1.0
  H  H595  1  0.289600  0.780900  0.822100  1.0
  H  H596  1  0.289600  0.219100  0.677900  1.0
  H  H597  1  0.210400  0.719100  0.177900  1.0
  H  H598  1  0.210400  0.280900  0.322100  1.0
  H  H599  1  0.710400  0.219100  0.177900  1.0
  H  H600  1  0.710400  0.780900  0.322100  1.0
  H  H601  1  0.913600  0.431000  0.882900  1.0
  H  H602  1  0.913600  0.569000  0.617100  1.0
  H  H603  1  0.413600  0.931000  0.882900  1.0
  H  H604  1  0.413600  0.069000  0.617100  1.0
  H  H605  1  0.086400  0.569000  0.117100  1.0
  H  H606  1  0.086400  0.431000  0.382900  1.0
  H  H607  1  0.586400  0.069000  0.117100  1.0
  H  H608  1  0.586400  0.931000  0.382900  1.0
  H  H609  1  0.846100  0.435900  0.854800  1.0
  H  H610  1  0.846100  0.564100  0.645200  1.0
  H  H611  1  0.346100  0.935900  0.854800  1.0
  H  H612  1  0.346100  0.064100  0.645200  1.0
  H  H613  1  0.153900  0.564100  0.145200  1.0
  H  H614  1  0.153900  0.435900  0.354800  1.0
  H  H615  1  0.653900  0.064100  0.145200  1.0
  H  H616  1  0.653900  0.935900  0.354800  1.0
  H  H617  1  0.907600  0.394400  0.824700  1.0
  H  H618  1  0.907600  0.605600  0.675300  1.0
  H  H619  1  0.407600  0.894400  0.824700  1.0
  H  H620  1  0.407600  0.105600  0.675300  1.0
  H  H621  1  0.092400  0.605600  0.175300  1.0
  H  H622  1  0.092400  0.394400  0.324700  1.0
  H  H623  1  0.592400  0.105600  0.175300  1.0
  H  H624  1  0.592400  0.894400  0.324700  1.0
  H  H625  1  0.916000  0.660800  0.124700  1.0
  H  H626  1  0.916000  0.339200  0.375300  1.0
  H  H627  1  0.416000  0.160800  0.124700  1.0
  H  H628  1  0.416000  0.839200  0.375300  1.0
  H  H629  1  0.084000  0.339200  0.875300  1.0
  H  H630  1  0.084000  0.660800  0.624700  1.0
  H  H631  1  0.584000  0.839200  0.875300  1.0
  H  H632  1  0.584000  0.160800  0.624700  1.0
  H  H633  1  0.940500  0.712100  0.175600  1.0
  H  H634  1  0.940500  0.287900  0.324400  1.0
  H  H635  1  0.440500  0.212100  0.175600  1.0
  H  H636  1  0.440500  0.787900  0.324400  1.0
  H  H637  1  0.059500  0.287900  0.824400  1.0
  H  H638  1  0.059500  0.712100  0.675600  1.0
  H  H639  1  0.559500  0.787900  0.824400  1.0
  H  H640  1  0.559500  0.212100  0.675600  1.0
  H  H641  1  0.873100  0.721200  0.149500  1.0
  H  H642  1  0.873100  0.278800  0.350500  1.0
  H  H643  1  0.373100  0.221200  0.149500  1.0
  H  H644  1  0.373100  0.778800  0.350500  1.0
  H  H645  1  0.126900  0.278800  0.850500  1.0
  H  H646  1  0.126900  0.721200  0.649500  1.0
  H  H647  1  0.626900  0.778800  0.850500  1.0
  H  H648  1  0.626900  0.221200  0.649500  1.0
  H  H649  1  0.938800  0.589200  0.163900  1.0
  H  H650  1  0.938800  0.410800  0.336100  1.0
  H  H651  1  0.438800  0.089200  0.163900  1.0
  H  H652  1  0.438800  0.910800  0.336100  1.0
  H  H653  1  0.061200  0.410800  0.836100  1.0
  H  H654  1  0.061200  0.589200  0.663900  1.0
  H  H655  1  0.561200  0.910800  0.836100  1.0
  H  H656  1  0.561200  0.089200  0.663900  1.0
  H  H657  1  0.900100  0.597000  0.213300  1.0
  H  H658  1  0.900100  0.403000  0.286700  1.0
  H  H659  1  0.400100  0.097000  0.213300  1.0
  H  H660  1  0.400100  0.903000  0.286700  1.0
  H  H661  1  0.099900  0.403000  0.786700  1.0
  H  H662  1  0.099900  0.597000  0.713300  1.0
  H  H663  1  0.599900  0.903000  0.786700  1.0
  H  H664  1  0.599900  0.097000  0.713300  1.0
  H  H665  1  0.958200  0.643300  0.214700  1.0
  H  H666  1  0.958200  0.356700  0.285300  1.0
  H  H667  1  0.458200  0.143300  0.214700  1.0
  H  H668  1  0.458200  0.856700  0.285300  1.0
  H  H669  1  0.041800  0.356700  0.785300  1.0
  H  H670  1  0.041800  0.643300  0.714700  1.0
  H  H671  1  0.541800  0.856700  0.785300  1.0
  H  H672  1  0.541800  0.143300  0.714700  1.0
  H  H673  1  0.816100  0.677000  0.248900  1.0
  H  H674  1  0.816100  0.323000  0.251100  1.0
  H  H675  1  0.316100  0.177000  0.248900  1.0
  H  H676  1  0.316100  0.823000  0.251100  1.0
  H  H677  1  0.183900  0.323000  0.751100  1.0
  H  H678  1  0.183900  0.677000  0.748900  1.0
  H  H679  1  0.683900  0.823000  0.751100  1.0
  H  H680  1  0.683900  0.177000  0.748900  1.0
  H  H681  1  0.811300  0.734100  0.236100  1.0
  H  H682  1  0.811300  0.265900  0.263900  1.0
  H  H683  1  0.311300  0.234100  0.236100  1.0
  H  H684  1  0.311300  0.765900  0.263900  1.0
  H  H685  1  0.188700  0.265900  0.763900  1.0
  H  H686  1  0.188700  0.734100  0.736100  1.0
  H  H687  1  0.688700  0.765900  0.763900  1.0
  H  H688  1  0.688700  0.234100  0.736100  1.0
  H  H689  1  0.881900  0.717300  0.253900  1.0
  H  H690  1  0.881900  0.282700  0.246100  1.0
  H  H691  1  0.381900  0.217300  0.253900  1.0
  H  H692  1  0.381900  0.782700  0.246100  1.0
  H  H693  1  0.118100  0.282700  0.746100  1.0
  H  H694  1  0.118100  0.717300  0.753900  1.0
  H  H695  1  0.618100  0.782700  0.746100  1.0
  H  H696  1  0.618100  0.217300  0.753900  1.0
  H  H697  1  0.539800  0.697900  0.264900  1.0
  H  H698  1  0.539800  0.302100  0.235100  1.0
  H  H699  1  0.039800  0.197900  0.264900  1.0
  H  H700  1  0.039800  0.802100  0.235100  1.0
  H  H701  1  0.460200  0.302100  0.735100  1.0
  H  H702  1  0.460200  0.697900  0.764900  1.0
  H  H703  1  0.960200  0.802100  0.735100  1.0
  H  H704  1  0.960200  0.197900  0.764900  1.0
  H  H705  1  0.584200  0.669500  0.294800  1.0
  H  H706  1  0.584200  0.330500  0.205200  1.0
  H  H707  1  0.084200  0.169500  0.294800  1.0
  H  H708  1  0.084200  0.830500  0.205200  1.0
  H  H709  1  0.415800  0.330500  0.705200  1.0
  H  H710  1  0.415800  0.669500  0.794800  1.0
  H  H711  1  0.915800  0.830500  0.705200  1.0
  H  H712  1  0.915800  0.169500  0.794800  1.0
  H  H713  1  0.513000  0.700700  0.316400  1.0
  H  H714  1  0.513000  0.299300  0.183600  1.0
  H  H715  1  0.013000  0.200700  0.316400  1.0
  H  H716  1  0.013000  0.799300  0.183600  1.0
  H  H717  1  0.487000  0.299300  0.683600  1.0
  H  H718  1  0.487000  0.700700  0.816400  1.0
  H  H719  1  0.987000  0.799300  0.683600  1.0
  H  H720  1  0.987000  0.200700  0.816400  1.0
  H  H721  1  0.469400  0.541900  0.267000  1.0
  H  H722  1  0.469400  0.458100  0.233000  1.0
  H  H723  1  0.969400  0.041900  0.267000  1.0
  H  H724  1  0.969400  0.958100  0.233000  1.0
  H  H725  1  0.530600  0.458100  0.733000  1.0
  H  H726  1  0.530600  0.541900  0.767000  1.0
  H  H727  1  0.030600  0.958100  0.733000  1.0
  H  H728  1  0.030600  0.041900  0.767000  1.0
  H  H729  1  0.468000  0.600200  0.317600  1.0
  H  H730  1  0.468000  0.399800  0.182400  1.0
  H  H731  1  0.968000  0.100200  0.317600  1.0
  H  H732  1  0.968000  0.899800  0.182400  1.0
  H  H733  1  0.532000  0.399800  0.682400  1.0
  H  H734  1  0.532000  0.600200  0.817600  1.0
  H  H735  1  0.032000  0.899800  0.682400  1.0
  H  H736  1  0.032000  0.100200  0.817600  1.0
  H  H737  1  0.538800  0.568100  0.295700  1.0
  H  H738  1  0.538800  0.431900  0.204300  1.0
  H  H739  1  0.038800  0.068100  0.295700  1.0
  H  H740  1  0.038800  0.931900  0.204300  1.0
  H  H741  1  0.461200  0.431900  0.704300  1.0
  H  H742  1  0.461200  0.568100  0.795700  1.0
  H  H743  1  0.961200  0.931900  0.704300  1.0
  H  H744  1  0.961200  0.068100  0.795700  1.0
  H  H745  1  0.432500  0.661000  0.230000  1.0
  H  H746  1  0.432500  0.339000  0.270000  1.0
  H  H747  1  0.932500  0.161000  0.230000  1.0
  H  H748  1  0.932500  0.839000  0.270000  1.0
  H  H749  1  0.567500  0.339000  0.770000  1.0
  H  H750  1  0.567500  0.661000  0.730000  1.0
  H  H751  1  0.067500  0.839000  0.770000  1.0
  H  H752  1  0.067500  0.161000  0.730000  1.0
  H  H753  1  0.403700  0.658300  0.279100  1.0
  H  H754  1  0.403700  0.341700  0.220900  1.0
  H  H755  1  0.903700  0.158300  0.279100  1.0
  H  H756  1  0.903700  0.841700  0.220900  1.0
  H  H757  1  0.596300  0.341700  0.720900  1.0
  H  H758  1  0.596300  0.658300  0.779100  1.0
  H  H759  1  0.096300  0.841700  0.720900  1.0
  H  H760  1  0.096300  0.158300  0.779100  1.0
  H  H761  1  0.401600  0.600000  0.228500  1.0
  H  H762  1  0.401600  0.400000  0.271500  1.0
  H  H763  1  0.901600  0.100000  0.228500  1.0
  H  H764  1  0.901600  0.900000  0.271500  1.0
  H  H765  1  0.598400  0.400000  0.771500  1.0
  H  H766  1  0.598400  0.600000  0.728500  1.0
  H  H767  1  0.098400  0.900000  0.771500  1.0
  H  H768  1  0.098400  0.100000  0.728500  1.0
  C  C769  1  0.741400  0.513300  0.816900  1
  C  C770  1  0.741400  0.486700  0.683100  1
  C  C771  1  0.241400  0.013300  0.816900  1
  C  C772  1  0.241400  0.986700  0.683100  1
  C  C773  1  0.258600  0.486700  0.183100  1
  C  C774  1  0.258600  0.513300  0.316900  1
  C  C775  1  0.758600  0.986700  0.183100  1
  C  C776  1  0.758600  0.013300  0.316900  1
  C  C777  1  0.870000  0.654000  0.231900  1
  C  C778  1  0.870000  0.346000  0.268100  1
  C  C779  1  0.370000  0.154000  0.231900  1
  C  C780  1  0.370000  0.846000  0.268100  1
  C  C781  1  0.130000  0.346000  0.768100  1
  C  C782  1  0.130000  0.654000  0.731900  1
  C  C783  1  0.630000  0.846000  0.768100  1
  C  C784  1  0.630000  0.154000  0.731900  1
  C  C785  1  0.814000  0.718000  0.192000  1
  C  C786  1  0.814000  0.282000  0.308000  1
  C  C787  1  0.314000  0.218000  0.192000  1
  C  C788  1  0.314000  0.782000  0.308000  1
  C  C789  1  0.186000  0.282000  0.808000  1
  C  C790  1  0.186000  0.718000  0.692000  1
  C  C791  1  0.686000  0.782000  0.808000  1
  C  C792  1  0.686000  0.218000  0.692000  1
  C  C793  1  0.931300  0.670000  0.167500  1
  C  C794  1  0.931300  0.330000  0.332500  1
  C  C795  1  0.431300  0.170000  0.167500  1
  C  C796  1  0.431300  0.830000  0.332500  1
  C  C797  1  0.068700  0.330000  0.832500  1
  C  C798  1  0.068700  0.670000  0.667500  1
  C  C799  1  0.568700  0.830000  0.832500  1
  C  C800  1  0.568700  0.170000  0.667500  1
  C  C801  1  0.500000  0.685200  0.279000  1
  C  C802  1  0.500000  0.314800  0.221000  1
  C  C803  1  0.000000  0.185200  0.279000  1
  C  C804  1  0.000000  0.814800  0.221000  1
  C  C805  1  0.500000  0.314800  0.721000  1
  C  C806  1  0.500000  0.685200  0.779000  1
  C  C807  1  0.000000  0.814800  0.721000  1
  C  C808  1  0.000000  0.185200  0.779000  1
  C  C809  1  0.555900  0.605100  0.296300  1
  C  C810  1  0.555900  0.394900  0.203700  1
  C  C811  1  0.055900  0.105100  0.296300  1
  C  C812  1  0.055900  0.894900  0.203700  1
  C  C813  1  0.444100  0.394900  0.703700  1
  C  C814  1  0.444100  0.605100  0.796300  1
  C  C815  1  0.944100  0.894900  0.703700  1
  C  C816  1  0.944100  0.105100  0.796300  1
  C  C817  1  0.440700  0.592100  0.276900  1
  C  C818  1  0.440700  0.407900  0.223100  1
  C  C819  1  0.940700  0.092100  0.276900  1
  C  C820  1  0.940700  0.907900  0.223100  1
  C  C821  1  0.559300  0.407900  0.723100  1
  C  C822  1  0.559300  0.592100  0.776900  1
  C  C823  1  0.059300  0.907900  0.723100  1
  C  C824  1  0.059300  0.092100  0.776900  1
  C  C825  1  0.597700  0.576900  0.022900  1.0
  C  C826  1  0.597700  0.423100  0.477100  1.0
  C  C827  1  0.097700  0.076900  0.022900  1.0
  C  C828  1  0.097700  0.923100  0.477100  1.0
  C  C829  1  0.402300  0.423100  0.977100  1.0
  C  C830  1  0.402300  0.576900  0.522900  1.0
  C  C831  1  0.902300  0.923100  0.977100  1.0
  C  C832  1  0.902300  0.076900  0.522900  1.0
  C  C833  1  0.492600  0.619800  0.995900  1.0
  C  C834  1  0.492600  0.380200  0.504100  1.0
  C  C835  1  0.992600  0.119800  0.995900  1.0
  C  C836  1  0.992600  0.880200  0.504100  1.0
  C  C837  1  0.507400  0.380200  0.004100  1.0
  C  C838  1  0.507400  0.619800  0.495900  1.0
  C  C839  1  0.007400  0.880200  0.004100  1.0
  C  C840  1  0.007400  0.119800  0.495900  1.0
  C  C841  1  0.607000  0.608200  0.948200  1.0
  C  C842  1  0.607000  0.391800  0.551800  1.0
  C  C843  1  0.107000  0.108200  0.948200  1.0
  C  C844  1  0.107000  0.891800  0.551800  1.0
  C  C845  1  0.393000  0.391800  0.051800  1.0
  C  C846  1  0.393000  0.608200  0.448200  1.0
  C  C847  1  0.893000  0.891800  0.051800  1.0
  C  C848  1  0.893000  0.108200  0.448200  1.0
  C  C849  1  0.526900  0.738800  0.974900  1.0
  C  C850  1  0.526900  0.261200  0.525100  1.0
  C  C851  1  0.026900  0.238800  0.974900  1.0
  C  C852  1  0.026900  0.761200  0.525100  1.0
  C  C853  1  0.473100  0.261200  0.025100  1.0
  C  C854  1  0.473100  0.738800  0.474900  1.0
  C  C855  1  0.973100  0.761200  0.025100  1.0
  C  C856  1  0.973100  0.238800  0.474900  1.0
  C  C857  1  0.525200  0.803300  0.993000  1.0
  C  C858  1  0.525200  0.196700  0.507000  1.0
  C  C859  1  0.025200  0.303300  0.993000  1.0
  C  C860  1  0.025200  0.696700  0.507000  1.0
  C  C861  1  0.474800  0.196700  0.007000  1.0
  C  C862  1  0.474800  0.803300  0.493000  1.0
  C  C863  1  0.974800  0.696700  0.007000  1.0
  C  C864  1  0.974800  0.303300  0.493000  1.0
  C  C865  1  0.560200  0.828000  0.037900  1.0
  C  C866  1  0.560200  0.172000  0.462100  1.0
  C  C867  1  0.060200  0.328000  0.037900  1.0
  C  C868  1  0.060200  0.672000  0.462100  1.0
  C  C869  1  0.439800  0.172000  0.962100  1.0
  C  C870  1  0.439800  0.828000  0.537900  1.0
  C  C871  1  0.939800  0.672000  0.962100  1.0
  C  C872  1  0.939800  0.328000  0.537900  1.0
  C  C873  1  0.740900  0.651800  0.019700  1.0
  C  C874  1  0.740900  0.348200  0.480300  1.0
  C  C875  1  0.240900  0.151800  0.019700  1.0
  C  C876  1  0.240900  0.848200  0.480300  1.0
  C  C877  1  0.259100  0.348200  0.980300  1.0
  C  C878  1  0.259100  0.651800  0.519700  1.0
  C  C879  1  0.759100  0.848200  0.980300  1.0
  C  C880  1  0.759100  0.151800  0.519700  1.0
  C  C881  1  0.793600  0.697900  0.042500  1.0
  C  C882  1  0.793600  0.302100  0.457500  1.0
  C  C883  1  0.293600  0.197900  0.042500  1.0
  C  C884  1  0.293600  0.802100  0.457500  1.0
  C  C885  1  0.206400  0.302100  0.957500  1.0
  C  C886  1  0.206400  0.697900  0.542500  1.0
  C  C887  1  0.706400  0.802100  0.957500  1.0
  C  C888  1  0.706400  0.197900  0.542500  1.0
  C  C889  1  0.756900  0.746700  0.069500  1.0
  C  C890  1  0.756900  0.253300  0.430500  1.0
  C  C891  1  0.256900  0.246700  0.069500  1.0
  C  C892  1  0.256900  0.753300  0.430500  1.0
  C  C893  1  0.243100  0.253300  0.930500  1.0
  C  C894  1  0.243100  0.746700  0.569500  1.0
  C  C895  1  0.743100  0.753300  0.930500  1.0
  C  C896  1  0.743100  0.246700  0.569500  1.0
  C  C897  1  0.515100  0.678000  0.119100  1.0
  C  C898  1  0.515100  0.322000  0.380900  1.0
  C  C899  1  0.015100  0.178000  0.119100  1.0
  C  C900  1  0.015100  0.822000  0.380900  1.0
  C  C901  1  0.484900  0.322000  0.880900  1.0
  C  C902  1  0.484900  0.678000  0.619100  1.0
  C  C903  1  0.984900  0.822000  0.880900  1.0
  C  C904  1  0.984900  0.178000  0.619100  1.0
  C  C905  1  0.517400  0.725300  0.166400  1.0
  C  C906  1  0.517400  0.274700  0.333600  1.0
  C  C907  1  0.017400  0.225300  0.166400  1.0
  C  C908  1  0.017400  0.774700  0.333600  1.0
  C  C909  1  0.482600  0.274700  0.833600  1.0
  C  C910  1  0.482600  0.725300  0.666400  1.0
  C  C911  1  0.982600  0.774700  0.833600  1.0
  C  C912  1  0.982600  0.225300  0.666400  1.0
  C  C913  1  0.561000  0.767300  0.162700  1.0
  C  C914  1  0.561000  0.232700  0.337300  1.0
  C  C915  1  0.061000  0.267300  0.162700  1.0
  C  C916  1  0.061000  0.732700  0.337300  1.0
  C  C917  1  0.439000  0.232700  0.837300  1.0
  C  C918  1  0.439000  0.767300  0.662700  1.0
  C  C919  1  0.939000  0.732700  0.837300  1.0
  C  C920  1  0.939000  0.267300  0.662700  1.0
  C  C921  1  0.695100  0.390600  0.103500  1.0
  C  C922  1  0.695100  0.609400  0.396500  1.0
  C  C923  1  0.195100  0.890600  0.103500  1.0
  C  C924  1  0.195100  0.109400  0.396500  1.0
  C  C925  1  0.304900  0.609400  0.896500  1.0
  C  C926  1  0.304900  0.390600  0.603500  1.0
  C  C927  1  0.804900  0.109400  0.896500  1.0
  C  C928  1  0.804900  0.890600  0.603500  1.0
  C  C929  1  0.742100  0.357400  0.116100  1.0
  C  C930  1  0.742100  0.642600  0.383900  1.0
  C  C931  1  0.242100  0.857400  0.116100  1.0
  C  C932  1  0.242100  0.142600  0.383900  1.0
  C  C933  1  0.257900  0.642600  0.883900  1.0
  C  C934  1  0.257900  0.357400  0.616100  1.0
  C  C935  1  0.757900  0.142600  0.883900  1.0
  C  C936  1  0.757900  0.857400  0.616100  1.0
  C  C937  1  0.798300  0.330300  0.084200  1.0
  C  C938  1  0.798300  0.669700  0.415800  1.0
  C  C939  1  0.298300  0.830300  0.084200  1.0
  C  C940  1  0.298300  0.169700  0.415800  1.0
  C  C941  1  0.201700  0.669700  0.915800  1.0
  C  C942  1  0.201700  0.330300  0.584200  1.0
  C  C943  1  0.701700  0.169700  0.915800  1.0
  C  C944  1  0.701700  0.830300  0.584200  1.0
  C  C945  1  0.802200  0.340800  0.041100  1.0
  C  C946  1  0.802200  0.659200  0.458900  1.0
  C  C947  1  0.302200  0.840800  0.041100  1.0
  C  C948  1  0.302200  0.159200  0.458900  1.0
  C  C949  1  0.197800  0.659200  0.958900  1.0
  C  C950  1  0.197800  0.340800  0.541100  1.0
  C  C951  1  0.697800  0.159200  0.958900  1.0
  C  C952  1  0.697800  0.840800  0.541100  1.0
  C  C953  1  0.752900  0.375000  0.031000  1.0
  C  C954  1  0.752900  0.625000  0.469000  1.0
  C  C955  1  0.252900  0.875000  0.031000  1.0
  C  C956  1  0.252900  0.125000  0.469000  1.0
  C  C957  1  0.247100  0.625000  0.969000  1.0
  C  C958  1  0.247100  0.375000  0.531000  1.0
  C  C959  1  0.747100  0.125000  0.969000  1.0
  C  C960  1  0.747100  0.875000  0.531000  1.0
  C  C961  1  0.753000  0.388600  0.985700  1.0
  C  C962  1  0.753000  0.611400  0.514300  1.0
  C  C963  1  0.253000  0.888600  0.985700  1.0
  C  C964  1  0.253000  0.111400  0.514300  1.0
  C  C965  1  0.247000  0.611400  0.014300  1.0
  C  C966  1  0.247000  0.388600  0.485700  1.0
  C  C967  1  0.747000  0.111400  0.014300  1.0
  C  C968  1  0.747000  0.888600  0.485700  1.0
  C  C969  1  0.802400  0.364900  0.948700  1.0
  C  C970  1  0.802400  0.635100  0.551300  1.0
  C  C971  1  0.302400  0.864900  0.948700  1.0
  C  C972  1  0.302400  0.135100  0.551300  1.0
  C  C973  1  0.197600  0.635100  0.051300  1.0
  C  C974  1  0.197600  0.364900  0.448700  1.0
  C  C975  1  0.697600  0.135100  0.051300  1.0
  C  C976  1  0.697600  0.864900  0.448700  1.0
  C  C977  1  0.798700  0.378500  0.906700  1.0
  C  C978  1  0.798700  0.621500  0.593300  1.0
  C  C979  1  0.298700  0.878500  0.906700  1.0
  C  C980  1  0.298700  0.121500  0.593300  1.0
  C  C981  1  0.201300  0.621500  0.093300  1.0
  C  C982  1  0.201300  0.378500  0.406700  1.0
  C  C983  1  0.701300  0.121500  0.093300  1.0
  C  C984  1  0.701300  0.878500  0.406700  1.0
  C  C985  1  0.850600  0.354400  0.863700  1.0
  C  C986  1  0.850600  0.645600  0.636300  1.0
  C  C987  1  0.350600  0.854400  0.863700  1.0
  C  C988  1  0.350600  0.145600  0.636300  1.0
  C  C989  1  0.149400  0.645600  0.136300  1.0
  C  C990  1  0.149400  0.354400  0.363700  1.0
  C  C991  1  0.649400  0.145600  0.136300  1.0
  C  C992  1  0.649400  0.854400  0.363700  1.0
  C  C993  1  0.743600  0.413600  0.904100  1.0
  C  C994  1  0.743600  0.586400  0.595900  1.0
  C  C995  1  0.243600  0.913600  0.904100  1.0
  C  C996  1  0.243600  0.086400  0.595900  1.0
  C  C997  1  0.256400  0.586400  0.095900  1.0
  C  C998  1  0.256400  0.413600  0.404100  1.0
  C  C999  1  0.756400  0.086400  0.095900  1.0
  C  C1000  1  0.756400  0.913600  0.404100  1.0
  C  C1001  1  0.696900  0.435600  0.943300  1.0
  C  C1002  1  0.696900  0.564400  0.556700  1.0
  C  C1003  1  0.196900  0.935600  0.943300  1.0
  C  C1004  1  0.196900  0.064400  0.556700  1.0
  C  C1005  1  0.303100  0.564400  0.056700  1.0
  C  C1006  1  0.303100  0.435600  0.443300  1.0
  C  C1007  1  0.803100  0.064400  0.056700  1.0
  C  C1008  1  0.803100  0.935600  0.443300  1.0
  C  C1009  1  0.695900  0.567400  0.135100  1.0
  C  C1010  1  0.695900  0.432600  0.364900  1.0
  C  C1011  1  0.195900  0.067400  0.135100  1.0
  C  C1012  1  0.195900  0.932600  0.364900  1.0
  C  C1013  1  0.304100  0.432600  0.864900  1.0
  C  C1014  1  0.304100  0.567400  0.635100  1.0
  C  C1015  1  0.804100  0.932600  0.864900  1.0
  C  C1016  1  0.804100  0.067400  0.635100  1.0
  C  C1017  1  0.736700  0.614800  0.165300  1.0
  C  C1018  1  0.736700  0.385200  0.334700  1.0
  C  C1019  1  0.236700  0.114800  0.165300  1.0
  C  C1020  1  0.236700  0.885200  0.334700  1.0
  C  C1021  1  0.263300  0.385200  0.834700  1.0
  C  C1022  1  0.263300  0.614800  0.665300  1.0
  C  C1023  1  0.763300  0.885200  0.834700  1.0
  C  C1024  1  0.763300  0.114800  0.665300  1.0
  C  C1025  1  0.805000  0.618600  0.150200  1.0
  C  C1026  1  0.805000  0.381400  0.349800  1.0
  C  C1027  1  0.305000  0.118600  0.150200  1.0
  C  C1028  1  0.305000  0.881400  0.349800  1.0
  C  C1029  1  0.195000  0.381400  0.849800  1.0
  C  C1030  1  0.195000  0.618600  0.650200  1.0
  C  C1031  1  0.695000  0.881400  0.849800  1.0
  C  C1032  1  0.695000  0.118600  0.650200  1.0
  C  C1033  1  0.858500  0.664000  0.183900  1.0
  C  C1034  1  0.858500  0.336000  0.316100  1.0
  C  C1035  1  0.358500  0.164000  0.183900  1.0
  C  C1036  1  0.358500  0.836000  0.316100  1.0
  C  C1037  1  0.141500  0.336000  0.816100  1.0
  C  C1038  1  0.141500  0.664000  0.683900  1.0
  C  C1039  1  0.641500  0.836000  0.816100  1.0
  C  C1040  1  0.641500  0.164000  0.683900  1.0
  C  C1041  1  0.828200  0.578500  0.103900  1.0
  C  C1042  1  0.828200  0.421500  0.396100  1.0
  C  C1043  1  0.328200  0.078500  0.103900  1.0
  C  C1044  1  0.328200  0.921500  0.396100  1.0
  C  C1045  1  0.171800  0.421500  0.896100  1.0
  C  C1046  1  0.171800  0.578500  0.603900  1.0
  C  C1047  1  0.671800  0.921500  0.896100  1.0
  C  C1048  1  0.671800  0.078500  0.603900  1.0
  C  C1049  1  0.781800  0.534000  0.075700  1.0
  C  C1050  1  0.781800  0.466000  0.424300  1.0
  C  C1051  1  0.281800  0.034000  0.075700  1.0
  C  C1052  1  0.281800  0.966000  0.424300  1.0
  C  C1053  1  0.218200  0.466000  0.924300  1.0
  C  C1054  1  0.218200  0.534000  0.575700  1.0
  C  C1055  1  0.718200  0.966000  0.924300  1.0
  C  C1056  1  0.718200  0.034000  0.575700  1.0
  C  C1057  1  0.627000  0.558000  0.150200  1.0
  C  C1058  1  0.627000  0.442000  0.349800  1.0
  C  C1059  1  0.127000  0.058000  0.150200  1.0
  C  C1060  1  0.127000  0.942000  0.349800  1.0
  C  C1061  1  0.373000  0.442000  0.849800  1.0
  C  C1062  1  0.373000  0.558000  0.650200  1.0
  C  C1063  1  0.873000  0.942000  0.849800  1.0
  C  C1064  1  0.873000  0.058000  0.650200  1.0
  C  C1065  1  0.595800  0.595300  0.196500  1.0
  C  C1066  1  0.595800  0.404700  0.303500  1.0
  C  C1067  1  0.095800  0.095300  0.196500  1.0
  C  C1068  1  0.095800  0.904700  0.303500  1.0
  C  C1069  1  0.404200  0.404700  0.803500  1.0
  C  C1070  1  0.404200  0.595300  0.696500  1.0
  C  C1071  1  0.904200  0.904700  0.803500  1.0
  C  C1072  1  0.904200  0.095300  0.696500  1.0
  C  C1073  1  0.531600  0.580000  0.209000  1.0
  C  C1074  1  0.531600  0.420000  0.291000  1.0
  C  C1075  1  0.031600  0.080000  0.209000  1.0
  C  C1076  1  0.031600  0.920000  0.291000  1.0
  C  C1077  1  0.468400  0.420000  0.791000  1.0
  C  C1078  1  0.468400  0.580000  0.709000  1.0
  C  C1079  1  0.968400  0.920000  0.791000  1.0
  C  C1080  1  0.968400  0.080000  0.709000  1.0
  C  C1081  1  0.498300  0.531800  0.174800  1.0
  C  C1082  1  0.498300  0.468200  0.325200  1.0
  C  C1083  1  0.998300  0.031800  0.174800  1.0
  C  C1084  1  0.998300  0.968200  0.325200  1.0
  C  C1085  1  0.501700  0.468200  0.825200  1.0
  C  C1086  1  0.501700  0.531800  0.674800  1.0
  C  C1087  1  0.001700  0.968200  0.825200  1.0
  C  C1088  1  0.001700  0.031800  0.674800  1.0
  C  C1089  1  0.528700  0.495500  0.128400  1.0
  C  C1090  1  0.528700  0.504500  0.371600  1.0
  C  C1091  1  0.028700  0.995500  0.128400  1.0
  C  C1092  1  0.028700  0.004500  0.371600  1.0
  C  C1093  1  0.471300  0.504500  0.871600  1.0
  C  C1094  1  0.471300  0.495500  0.628400  1.0
  C  C1095  1  0.971300  0.004500  0.871600  1.0
  C  C1096  1  0.971300  0.995500  0.628400  1.0
  C  C1097  1  0.493300  0.697500  0.930300  1.0
  C  C1098  1  0.493300  0.302500  0.569700  1.0
  C  C1099  1  0.993300  0.197500  0.930300  1.0
  C  C1100  1  0.993300  0.802500  0.569700  1.0
  C  C1101  1  0.506700  0.302500  0.069700  1.0
  C  C1102  1  0.506700  0.697500  0.430300  1.0
  C  C1103  1  0.006700  0.802500  0.069700  1.0
  C  C1104  1  0.006700  0.197500  0.430300  1.0
  C  C1105  1  0.573000  0.890300  0.072400  1.0
  C  C1106  1  0.573000  0.109700  0.427600  1.0
  C  C1107  1  0.073000  0.390300  0.072400  1.0
  C  C1108  1  0.073000  0.609700  0.427600  1.0
  C  C1109  1  0.427000  0.109700  0.927600  1.0
  C  C1110  1  0.427000  0.890300  0.572400  1.0
  C  C1111  1  0.927000  0.609700  0.927600  1.0
  C  C1112  1  0.927000  0.390300  0.572400  1.0
  C  C1113  1  0.755100  0.589300  0.985500  1.0
  C  C1114  1  0.755100  0.410700  0.514500  1.0
  C  C1115  1  0.255100  0.089300  0.985500  1.0
  C  C1116  1  0.255100  0.910700  0.514500  1.0
  C  C1117  1  0.244900  0.410700  0.014500  1.0
  C  C1118  1  0.244900  0.589300  0.485500  1.0
  C  C1119  1  0.744900  0.910700  0.014500  1.0
  C  C1120  1  0.744900  0.089300  0.485500  1.0
  C  C1121  1  0.788300  0.810100  0.102800  1.0
  C  C1122  1  0.788300  0.189900  0.397200  1.0
  C  C1123  1  0.288300  0.310100  0.102800  1.0
  C  C1124  1  0.288300  0.689900  0.397200  1.0
  C  C1125  1  0.211700  0.189900  0.897200  1.0
  C  C1126  1  0.211700  0.810100  0.602800  1.0
  C  C1127  1  0.711700  0.689900  0.897200  1.0
  C  C1128  1  0.711700  0.310100  0.602800  1.0
  C  C1129  1  0.472500  0.625800  0.104600  1.0
  C  C1130  1  0.472500  0.374200  0.395400  1.0
  C  C1131  1  0.972500  0.125800  0.104600  1.0
  C  C1132  1  0.972500  0.874200  0.395400  1.0
  C  C1133  1  0.527500  0.374200  0.895400  1.0
  C  C1134  1  0.527500  0.625800  0.604600  1.0
  C  C1135  1  0.027500  0.874200  0.895400  1.0
  C  C1136  1  0.027500  0.125800  0.604600  1.0
  C  C1137  1  0.581300  0.828700  0.201000  1.0
  C  C1138  1  0.581300  0.171300  0.299000  1.0
  C  C1139  1  0.081300  0.328700  0.201000  1.0
  C  C1140  1  0.081300  0.671300  0.299000  1.0
  C  C1141  1  0.418700  0.171300  0.799000  1.0
  C  C1142  1  0.418700  0.828700  0.701000  1.0
  C  C1143  1  0.918700  0.671300  0.799000  1.0
  C  C1144  1  0.918700  0.328700  0.701000  1.0
  C  C1145  1  0.855400  0.295500  0.098200  1.0
  C  C1146  1  0.855400  0.704500  0.401800  1.0
  C  C1147  1  0.355400  0.795500  0.098200  1.0
  C  C1148  1  0.355400  0.204500  0.401800  1.0
  C  C1149  1  0.144600  0.704500  0.901800  1.0
  C  C1150  1  0.144600  0.295500  0.598200  1.0
  C  C1151  1  0.644600  0.204500  0.901800  1.0
  C  C1152  1  0.644600  0.795500  0.598200  1.0
  C  C1153  1  0.913400  0.341400  0.123100  1.0
  C  C1154  1  0.913400  0.658600  0.376900  1.0
  C  C1155  1  0.413400  0.841400  0.123100  1.0
  C  C1156  1  0.413400  0.158600  0.376900  1.0
  C  C1157  1  0.086600  0.658600  0.876900  1.0
  C  C1158  1  0.086600  0.341400  0.623100  1.0
  C  C1159  1  0.586600  0.158600  0.876900  1.0
  C  C1160  1  0.586600  0.841400  0.623100  1.0
  C  C1161  1  0.829500  0.268300  0.132700  1.0
  C  C1162  1  0.829500  0.731700  0.367300  1.0
  C  C1163  1  0.329500  0.768300  0.132700  1.0
  C  C1164  1  0.329500  0.231700  0.367300  1.0
  C  C1165  1  0.170500  0.731700  0.867300  1.0
  C  C1166  1  0.170500  0.268300  0.632700  1.0
  C  C1167  1  0.670500  0.231700  0.867300  1.0
  C  C1168  1  0.670500  0.768300  0.632700  1.0
  C  C1169  1  0.885800  0.243400  0.052200  1.0
  C  C1170  1  0.885800  0.756600  0.447800  1.0
  C  C1171  1  0.385800  0.743400  0.052200  1.0
  C  C1172  1  0.385800  0.256600  0.447800  1.0
  C  C1173  1  0.114200  0.756600  0.947800  1.0
  C  C1174  1  0.114200  0.243400  0.552200  1.0
  C  C1175  1  0.614200  0.256600  0.947800  1.0
  C  C1176  1  0.614200  0.743400  0.552200  1.0
  C  C1177  1  0.910900  0.320500  0.874900  1.0
  C  C1178  1  0.910900  0.679500  0.625100  1.0
  C  C1179  1  0.410900  0.820500  0.874900  1.0
  C  C1180  1  0.410900  0.179500  0.625100  1.0
  C  C1181  1  0.089100  0.679500  0.125100  1.0
  C  C1182  1  0.089100  0.320500  0.374900  1.0
  C  C1183  1  0.589100  0.179500  0.125100  1.0
  C  C1184  1  0.589100  0.820500  0.374900  1.0
  C  C1185  1  0.813200  0.312400  0.816100  1.0
  C  C1186  1  0.813200  0.687600  0.683900  1.0
  C  C1187  1  0.313200  0.812400  0.816100  1.0
  C  C1188  1  0.313200  0.187600  0.683900  1.0
  C  C1189  1  0.186800  0.687600  0.183900  1.0
  C  C1190  1  0.186800  0.312400  0.316100  1.0
  C  C1191  1  0.686800  0.187600  0.183900  1.0
  C  C1192  1  0.686800  0.812400  0.316100  1.0
  C  C1193  1  0.882500  0.409200  0.855800  1.0
  C  C1194  1  0.882500  0.590800  0.644200  1.0
  C  C1195  1  0.382500  0.909200  0.855800  1.0
  C  C1196  1  0.382500  0.090800  0.644200  1.0
  C  C1197  1  0.117500  0.590800  0.144200  1.0
  C  C1198  1  0.117500  0.409200  0.355800  1.0
  C  C1199  1  0.617500  0.090800  0.144200  1.0
  C  C1200  1  0.617500  0.909200  0.355800  1.0
  C  C1201  1  0.900800  0.692000  0.155900  1.0
  C  C1202  1  0.900800  0.308000  0.344100  1.0
  C  C1203  1  0.400800  0.192000  0.155900  1.0
  C  C1204  1  0.400800  0.808000  0.344100  1.0
  C  C1205  1  0.099200  0.308000  0.844100  1.0
  C  C1206  1  0.099200  0.692000  0.655900  1.0
  C  C1207  1  0.599200  0.808000  0.844100  1.0
  C  C1208  1  0.599200  0.192000  0.655900  1.0
  C  C1209  1  0.921000  0.618200  0.195200  1.0
  C  C1210  1  0.921000  0.381800  0.304800  1.0
  C  C1211  1  0.421000  0.118200  0.195200  1.0
  C  C1212  1  0.421000  0.881800  0.304800  1.0
  C  C1213  1  0.079000  0.381800  0.804800  1.0
  C  C1214  1  0.079000  0.618200  0.695200  1.0
  C  C1215  1  0.579000  0.881800  0.804800  1.0
  C  C1216  1  0.579000  0.118200  0.695200  1.0
  C  C1217  1  0.840500  0.701200  0.234900  1.0
  C  C1218  1  0.840500  0.298800  0.265100  1.0
  C  C1219  1  0.340500  0.201200  0.234900  1.0
  C  C1220  1  0.340500  0.798800  0.265100  1.0
  C  C1221  1  0.159500  0.298800  0.765100  1.0
  C  C1222  1  0.159500  0.701200  0.734900  1.0
  C  C1223  1  0.659500  0.798800  0.765100  1.0
  C  C1224  1  0.659500  0.201200  0.734900  1.0
  C  C1225  1  0.501600  0.616900  0.259800  1.0
  C  C1226  1  0.501600  0.383100  0.240200  1.0
  C  C1227  1  0.001600  0.116900  0.259800  1.0
  C  C1228  1  0.001600  0.883100  0.240200  1.0
  C  C1229  1  0.498400  0.383100  0.740200  1.0
  C  C1230  1  0.498400  0.616900  0.759800  1.0
  C  C1231  1  0.998400  0.883100  0.740200  1.0
  C  C1232  1  0.998400  0.116900  0.759800  1.0
  C  C1233  1  0.537900  0.676600  0.286400  1.0
  C  C1234  1  0.537900  0.323400  0.213600  1.0
  C  C1235  1  0.037900  0.176600  0.286400  1.0
  C  C1236  1  0.037900  0.823400  0.213600  1.0
  C  C1237  1  0.462100  0.323400  0.713600  1.0
  C  C1238  1  0.462100  0.676600  0.786400  1.0
  C  C1239  1  0.962100  0.823400  0.713600  1.0
  C  C1240  1  0.962100  0.176600  0.786400  1.0
  C  C1241  1  0.493800  0.578500  0.287400  1.0
  C  C1242  1  0.493800  0.421500  0.212600  1.0
  C  C1243  1  0.993800  0.078500  0.287400  1.0
  C  C1244  1  0.993800  0.921500  0.212600  1.0
  C  C1245  1  0.506200  0.421500  0.712600  1.0
  C  C1246  1  0.506200  0.578500  0.787400  1.0
  C  C1247  1  0.006200  0.921500  0.712600  1.0
  C  C1248  1  0.006200  0.078500  0.787400  1.0
  C  C1249  1  0.427600  0.635900  0.248200  1.0
  C  C1250  1  0.427600  0.364100  0.251800  1.0
  C  C1251  1  0.927600  0.135900  0.248200  1.0
  C  C1252  1  0.927600  0.864100  0.251800  1.0
  C  C1253  1  0.572400  0.364100  0.751800  1.0
  C  C1254  1  0.572400  0.635900  0.748200  1.0
  C  C1255  1  0.072400  0.864100  0.751800  1.0
  C  C1256  1  0.072400  0.135900  0.748200  1.0
  N  N1257  1  0.701200  0.424900  0.984200  1.0
  N  N1258  1  0.701200  0.575100  0.515800  1.0
  N  N1259  1  0.201200  0.924900  0.984200  1.0
  N  N1260  1  0.201200  0.075100  0.515800  1.0
  N  N1261  1  0.298800  0.575100  0.015800  1.0
  N  N1262  1  0.298800  0.424900  0.484200  1.0
  N  N1263  1  0.798800  0.075100  0.015800  1.0
  N  N1264  1  0.798800  0.924900  0.484200  1.0
  N  N1265  1  0.717400  0.528100  0.089600  1.0
  N  N1266  1  0.717400  0.471900  0.410400  1.0
  N  N1267  1  0.217400  0.028100  0.089600  1.0
  N  N1268  1  0.217400  0.971900  0.410400  1.0
  N  N1269  1  0.282600  0.471900  0.910400  1.0
  N  N1270  1  0.282600  0.528100  0.589600  1.0
  N  N1271  1  0.782600  0.971900  0.910400  1.0
  N  N1272  1  0.782600  0.028100  0.589600  1.0
  N  N1273  1  0.605600  0.532900  0.028200  1.0
  N  N1274  1  0.605600  0.467100  0.471800  1.0
  N  N1275  1  0.105600  0.032900  0.028200  1.0
  N  N1276  1  0.105600  0.967100  0.471800  1.0
  N  N1277  1  0.394400  0.467100  0.971800  1.0
  N  N1278  1  0.394400  0.532900  0.528200  1.0
  N  N1279  1  0.894400  0.967100  0.971800  1.0
  N  N1280  1  0.894400  0.032900  0.528200  1.0
  N  N1281  1  0.440600  0.593700  0.980500  1.0
  N  N1282  1  0.440600  0.406300  0.519500  1.0
  N  N1283  1  0.940600  0.093700  0.980500  1.0
  N  N1284  1  0.940600  0.906300  0.519500  1.0
  N  N1285  1  0.559400  0.406300  0.019500  1.0
  N  N1286  1  0.559400  0.593700  0.480500  1.0
  N  N1287  1  0.059400  0.906300  0.019500  1.0
  N  N1288  1  0.059400  0.093700  0.480500  1.0
  N  N1289  1  0.619700  0.580400  0.907000  1.0
  N  N1290  1  0.619700  0.419600  0.593000  1.0
  N  N1291  1  0.119700  0.080400  0.907000  1.0
  N  N1292  1  0.119700  0.919600  0.593000  1.0
  N  N1293  1  0.380300  0.419600  0.093000  1.0
  N  N1294  1  0.380300  0.580400  0.407000  1.0
  N  N1295  1  0.880300  0.919600  0.093000  1.0
  N  N1296  1  0.880300  0.080400  0.407000  1.0
  N  N1297  1  0.560800  0.726300  0.008100  1.0
  N  N1298  1  0.560800  0.273700  0.491900  1.0
  N  N1299  1  0.060800  0.226300  0.008100  1.0
  N  N1300  1  0.060800  0.773700  0.491900  1.0
  N  N1301  1  0.439200  0.273700  0.991900  1.0
  N  N1302  1  0.439200  0.726300  0.508100  1.0
  N  N1303  1  0.939200  0.773700  0.991900  1.0
  N  N1304  1  0.939200  0.226300  0.508100  1.0
  N  N1305  1  0.583200  0.778800  0.045100  1.0
  N  N1306  1  0.583200  0.221200  0.454900  1.0
  N  N1307  1  0.083200  0.278800  0.045100  1.0
  N  N1308  1  0.083200  0.721200  0.454900  1.0
  N  N1309  1  0.416800  0.221200  0.954900  1.0
  N  N1310  1  0.416800  0.778800  0.545100  1.0
  N  N1311  1  0.916800  0.721200  0.954900  1.0
  N  N1312  1  0.916800  0.278800  0.545100  1.0
  N  N1313  1  0.678500  0.677500  0.033100  1.0
  N  N1314  1  0.678500  0.322500  0.466900  1.0
  N  N1315  1  0.178500  0.177500  0.033100  1.0
  N  N1316  1  0.178500  0.822500  0.466900  1.0
  N  N1317  1  0.321500  0.322500  0.966900  1.0
  N  N1318  1  0.321500  0.677500  0.533100  1.0
  N  N1319  1  0.821500  0.822500  0.966900  1.0
  N  N1320  1  0.821500  0.177500  0.533100  1.0
  N  N1321  1  0.688900  0.736700  0.065200  1.0
  N  N1322  1  0.688900  0.263300  0.434800  1.0
  N  N1323  1  0.188900  0.236700  0.065200  1.0
  N  N1324  1  0.188900  0.763300  0.434800  1.0
  N  N1325  1  0.311100  0.263300  0.934800  1.0
  N  N1326  1  0.311100  0.736700  0.565200  1.0
  N  N1327  1  0.811100  0.763300  0.934800  1.0
  N  N1328  1  0.811100  0.236700  0.565200  1.0
  N  N1329  1  0.553900  0.690500  0.087000  1.0
  N  N1330  1  0.553900  0.309500  0.413000  1.0
  N  N1331  1  0.053900  0.190500  0.087000  1.0
  N  N1332  1  0.053900  0.809500  0.413000  1.0
  N  N1333  1  0.446100  0.309500  0.913000  1.0
  N  N1334  1  0.446100  0.690500  0.587000  1.0
  N  N1335  1  0.946100  0.809500  0.913000  1.0
  N  N1336  1  0.946100  0.190500  0.587000  1.0
  N  N1337  1  0.582300  0.747600  0.114500  1.0
  N  N1338  1  0.582300  0.252400  0.385500  1.0
  N  N1339  1  0.082300  0.247600  0.114500  1.0
  N  N1340  1  0.082300  0.752400  0.385500  1.0
  N  N1341  1  0.417700  0.252400  0.885500  1.0
  N  N1342  1  0.417700  0.747600  0.614500  1.0
  N  N1343  1  0.917700  0.752400  0.885500  1.0
  N  N1344  1  0.917700  0.247600  0.614500  1.0
  N  N1345  1  0.699100  0.400500  0.062100  1.0
  N  N1346  1  0.699100  0.599500  0.437900  1.0
  N  N1347  1  0.199100  0.900500  0.062100  1.0
  N  N1348  1  0.199100  0.099500  0.437900  1.0
  N  N1349  1  0.300900  0.599500  0.937900  1.0
  N  N1350  1  0.300900  0.400500  0.562100  1.0
  N  N1351  1  0.800900  0.099500  0.937900  1.0
  N  N1352  1  0.800900  0.900500  0.562100  1.0
  N  N1353  1  0.592500  0.508200  0.117400  1.0
  N  N1354  1  0.592500  0.491800  0.382600  1.0
  N  N1355  1  0.092500  0.008200  0.117400  1.0
  N  N1356  1  0.092500  0.991800  0.382600  1.0
  N  N1357  1  0.407500  0.491800  0.882600  1.0
  N  N1358  1  0.407500  0.508200  0.617400  1.0
  N  N1359  1  0.907500  0.991800  0.882600  1.0
  N  N1360  1  0.907500  0.008200  0.617400  1.0
  O  O1361  1  0.687700  0.482700  0.830900  1
  O  O1362  1  0.687700  0.517300  0.669100  1
  O  O1363  1  0.187700  0.982700  0.830900  1
  O  O1364  1  0.187700  0.017300  0.669100  1
  O  O1365  1  0.312300  0.517300  0.169100  1
  O  O1366  1  0.312300  0.482700  0.330900  1
  O  O1367  1  0.812300  0.017300  0.169100  1
  O  O1368  1  0.812300  0.982700  0.330900  1
  F  F1369  1  0.032000  0.515000  0.954100  1
  F  F1370  1  0.032000  0.485000  0.545900  1
  F  F1371  1  0.532000  0.015000  0.954100  1
  F  F1372  1  0.532000  0.985000  0.545900  1
  F  F1373  1  0.968000  0.485000  0.045900  1
  F  F1374  1  0.968000  0.515000  0.454100  1
  F  F1375  1  0.468000  0.985000  0.045900  1
  F  F1376  1  0.468000  0.015000  0.454100  1
  F  F1377  1  0.697300  0.491000  0.201000  1
  F  F1378  1  0.697300  0.509000  0.299000  1
  F  F1379  1  0.197300  0.991000  0.201000  1
  F  F1380  1  0.197300  0.009000  0.299000  1
  F  F1381  1  0.302700  0.509000  0.799000  1
  F  F1382  1  0.302700  0.491000  0.701000  1
  F  F1383  1  0.802700  0.009000  0.799000  1
  F  F1384  1  0.802700  0.991000  0.701000  1
  F  F1385  1  0.800900  0.544500  0.276700  1
  F  F1386  1  0.800900  0.455500  0.223300  1
  F  F1387  1  0.300900  0.044500  0.276700  1
  F  F1388  1  0.300900  0.955500  0.223300  1
  F  F1389  1  0.199100  0.455500  0.723300  1
  F  F1390  1  0.199100  0.544500  0.776700  1
  F  F1391  1  0.699100  0.955500  0.723300  1
  F  F1392  1  0.699100  0.044500  0.776700  1
  F  F1393  1  0.764100  0.493200  0.300700  1
  F  F1394  1  0.764100  0.506800  0.199300  1
  F  F1395  1  0.264100  0.993200  0.300700  1
  F  F1396  1  0.264100  0.006800  0.199300  1
  F  F1397  1  0.235900  0.506800  0.699300  1
  F  F1398  1  0.235900  0.493200  0.800700  1
  F  F1399  1  0.735900  0.006800  0.699300  1
  F  F1400  1  0.735900  0.993200  0.800700  1
  F  F1401  1  0.924400  0.519500  0.993500  1
  F  F1402  1  0.924400  0.480500  0.506500  1
  F  F1403  1  0.424400  0.019500  0.993500  1
  F  F1404  1  0.424400  0.980500  0.506500  1
  F  F1405  1  0.075600  0.480500  0.006500  1
  F  F1406  1  0.075600  0.519500  0.493500  1
  F  F1407  1  0.575600  0.980500  0.006500  1
  F  F1408  1  0.575600  0.019500  0.493500  1
  F  F1409  1  0.008400  0.478100  0.941900  1
  F  F1410  1  0.008400  0.521900  0.558100  1
  F  F1411  1  0.508400  0.978100  0.941900  1
  F  F1412  1  0.508400  0.021900  0.558100  1
  F  F1413  1  0.991600  0.521900  0.058100  1
  F  F1414  1  0.991600  0.478100  0.441900  1
  F  F1415  1  0.491600  0.021900  0.058100  1
  F  F1416  1  0.491600  0.978100  0.441900  1
  F  F1417  1  0.967500  0.436500  0.993300  1
  F  F1418  1  0.967500  0.563500  0.506700  1
  F  F1419  1  0.467500  0.936500  0.993300  1
  F  F1420  1  0.467500  0.063500  0.506700  1
  F  F1421  1  0.032500  0.563500  0.006700  1
  F  F1422  1  0.032500  0.436500  0.493300  1
  F  F1423  1  0.532500  0.063500  0.006700  1
  F  F1424  1  0.532500  0.936500  0.493300  1
  F  F1425  1  0.989000  0.424000  0.958000  1
  F  F1426  1  0.989000  0.576000  0.542000  1
  F  F1427  1  0.489000  0.924000  0.958000  1
  F  F1428  1  0.489000  0.076000  0.542000  1
  F  F1429  1  0.011000  0.576000  0.042000  1
  F  F1430  1  0.011000  0.424000  0.458000  1
  F  F1431  1  0.511000  0.076000  0.042000  1
  F  F1432  1  0.511000  0.924000  0.458000  1
  F  F1433  1  0.981000  0.570000  0.031100  1
  F  F1434  1  0.981000  0.430000  0.468900  1
  F  F1435  1  0.481000  0.070000  0.031100  1
  F  F1436  1  0.481000  0.930000  0.468900  1
  F  F1437  1  0.019000  0.430000  0.968900  1
  F  F1438  1  0.019000  0.570000  0.531100  1
  F  F1439  1  0.519000  0.930000  0.968900  1
  F  F1440  1  0.519000  0.070000  0.531100  1
  F  F1441  1  0.666667  0.514800  0.285300  1.0
  F  F1442  1  0.666667  0.485200  0.214700  1.0
  F  F1443  1  0.166667  0.014800  0.285300  1.0
  F  F1444  1  0.166667  0.985200  0.214700  1.0
  F  F1445  1  0.333333  0.485200  0.714700  1.0
  F  F1446  1  0.333333  0.514800  0.785300  1.0
  F  F1447  1  0.833333  0.985200  0.714700  1.0
  F  F1448  1  0.833333  0.014800  0.785300  1.0
  F  F1449  1  0.736900  0.572700  0.262300  1.0
  F  F1450  1  0.736900  0.427300  0.237700  1.0
  F  F1451  1  0.236900  0.072700  0.262300  1.0
  F  F1452  1  0.236900  0.927300  0.237700  1.0
  F  F1453  1  0.263100  0.427300  0.737700  1.0
  F  F1454  1  0.263100  0.572700  0.762300  1.0
  F  F1455  1  0.763100  0.927300  0.737700  1.0
  F  F1456  1  0.763100  0.072700  0.762300  1.0
  F  F1457  1  0.803100  0.513900  0.289000  1.0
  F  F1458  1  0.803100  0.486100  0.211000  1.0
  F  F1459  1  0.303100  0.013900  0.289000  1.0
  F  F1460  1  0.303100  0.986100  0.211000  1.0
  F  F1461  1  0.196900  0.486100  0.711000  1.0
  F  F1462  1  0.196900  0.513900  0.789000  1.0
  F  F1463  1  0.696900  0.986100  0.711000  1.0
  F  F1464  1  0.696900  0.013900  0.789000  1.0
