
#######################################################################
#
#                 Cambridge Crystallographic Data Centre
#                                CCDC 
#
#######################################################################
#
# If this CIF has been generated from an entry in the Cambridge 
# Structural Database, then it will include bibliographic, chemical, 
# crystal, experimental, refinement or atomic coordinate data resulting 
# from the CCDC's data processing and validation procedures.
#
#######################################################################

data_KAFXAS02
_chemical_formula_moiety         
'C108 H140 B2 Co2 Fe2 N26 2+,2(F6 P1 1-),2(C1 H4 O1)'
_chemical_name_systematic        
"tetrakis(\m~2~-cyano)-bis(tris(3,5-dimethyl-1H-pyrazol-1-yl)(hydrido)borate)-tetrakis(4,4'-di-t-butyl-2,2'-bipyridine)-dicyano-di-cobalt(ii)-di-iron(iii) bis(hexafluorophosphate) methanol solvate"
_symmetry_cell_setting           monoclinic
_symmetry_space_group_name_H-M   'C 2/c'
_symmetry_Int_Tables_number      15
_space_group_name_Hall           '-C 2yn'
loop_
_symmetry_equiv_pos_site_id
_symmetry_equiv_pos_as_xyz
1 x,y,z
2 -x,y,1/2-z
3 1/2+x,1/2+y,z
4 1/2-x,1/2+y,1/2-z
5 -x,-y,-z
6 x,-y,1/2+z
7 1/2-x,1/2-y,-z
8 1/2+x,1/2-y,1/2+z
_cell_length_a                   24.5679(16)
_cell_length_b                   19.6771(13)
_cell_length_c                   30.1520(19)
_cell_angle_alpha                90
_cell_angle_beta                 114.0180(10)
_cell_angle_gamma                90
_cell_volume                     13314.2
_exptl_crystal_colour            red
_exptl_crystal_description       plate
_cell_formula_units_Z            4
loop_
_atom_site_label
_atom_site_type_symbol
_atom_site_fract_x
_atom_site_fract_y
_atom_site_fract_z
Co1 Co 0.66743(3) 0.39181(3) 0.95245(2)
Fe1 Fe 0.88382(3) 0.33071(4) 0.98675(3)
N1 N 0.63863(18) 0.3099(2) 0.98015(15)
N2 N 0.7551(2) 0.3570(2) 0.97301(16)
N3 N 0.9202(3) 0.3662(3) 1.0940(2)
N4 N 0.89414(19) 0.4267(2) 0.97031(17)
N5 N 0.9226(2) 0.4375(2) 0.94014(18)
N6 N 0.96747(18) 0.3110(2) 0.99519(16)
N7 N 0.98384(19) 0.3330(2) 0.95899(17)
N8 N 0.85552(18) 0.3042(2) 0.91650(15)
N9 N 0.8844(2) 0.3335(2) 0.89063(17)
N10 N 0.6870(2) 0.4686(2) 0.91039(16)
N11 N 0.64261(18) 0.3459(2) 0.88327(15)
N12 N 0.58950(19) 0.4500(2) 0.93867(14)
N13 N 0.68992(18) 0.4513(2) 1.01605(15)
C1 C 0.6282(2) 0.2590(3) 0.99403(18)
C2 C 0.8029(2) 0.3477(2) 0.97849(18)
C3 C 0.9071(3) 0.3540(3) 1.0541(2)
C4 C 0.8824(3) 0.4881(3) 0.9844(2)
C5 C 0.9035(3) 0.5378(4) 0.9625(3)
H1 H 0.9011 0.5846 0.9658
C6 C 0.9281(3) 0.5053(4) 0.9357(3)
C7 C 1.0145(2) 0.2770(3) 1.0272(2)
C8 C 1.0597(3) 0.2765(3) 1.0109(2)
H2 H 1.0969 0.2562 1.0262
C9 C 1.0392(2) 0.3119(3) 0.9680(2)
C10 C 0.8114(2) 0.2660(3) 0.8855(2)
C11 C 0.8129(3) 0.2705(4) 0.8401(2)
H3 H 0.7875 0.2483 0.8121
C12 C 0.8583(3) 0.3134(4) 0.8441(2)
C13 C 0.7072(3) 0.5317(3) 0.9249(2)
H4 H 0.7109 0.5459 0.9554
C14 C 0.7225(4) 0.5759(4) 0.8972(3)
H5 H 0.7362 0.6192 0.9089
C15 C 0.7178(4) 0.5565(4) 0.8520(3)
C16 C 0.6960(3) 0.4924(4) 0.8367(3)
H6 H 0.6914 0.4777 0.8060
C17 C 0.6807(3) 0.4495(3) 0.8660(2)
C18 C 0.6561(2) 0.3806(3) 0.85060(19)
C19 C 0.6457(3) 0.3535(3) 0.8059(2)
H7 H 0.6552 0.3787 0.7840
C20 C 0.6209(3) 0.2885(3) 0.7926(2)
C21 C 0.6074(2) 0.2536(3) 0.8267(2)
H8 H 0.5907 0.2104 0.8198
C22 C 0.6190(2) 0.2837(3) 0.87122(19)
H9 H 0.6099 0.2596 0.8938
C23 C 0.5398(3) 0.4474(3) 0.8981(2)
H10 H 0.5354 0.4118 0.8766
C24 C 0.4944(3) 0.4947(3) 0.8861(2)
H11 H 0.4605 0.4900 0.8574
C25 C 0.4992(2) 0.5489(3) 0.9166(2)
C26 C 0.5512(2) 0.5507(3) 0.9593(2)
H12 H 0.5565 0.5859 0.9813
C27 C 0.5947(2) 0.5020(2) 0.96976(18)
C28 C 0.6513(2) 0.5013(3) 1.01416(18)
C29 C 0.6653(3) 0.5480(3) 1.0519(2)
H13 H 0.6384 0.5824 1.0495
C30 C 0.7175(3) 0.5446(3) 1.0924(2)
C31 C 0.7548(3) 0.4917(3) 1.0941(2)
H14 H 0.7903 0.4863 1.1214
C32 C 0.7404(2) 0.4466(3) 1.0561(2)
H15 H 0.7667 0.4115 1.0584
C33 C 0.8523(3) 0.4995(3) 1.0176(3)
H16 H 0.8812 0.4975 1.0506
H17 H 0.8227 0.4650 1.0123
H18 H 0.8336 0.5433 1.0113
C34 C 0.9576(4) 0.5349(5) 0.9044(4)
H19 H 0.9481 0.5824 0.8990
H20 H 0.9434 0.5116 0.8738
H21 H 1.0000 0.5295 0.9207
C35 C 1.0154(3) 0.2448(4) 1.0722(2)
H22 H 0.9917 0.2041 1.0639
H23 H 0.9993 0.2759 1.0883
H24 H 1.0556 0.2337 1.0934
C36 C 1.0694(3) 0.3256(4) 0.9339(3)
H25 H 1.0676 0.3733 0.9268
H26 H 1.0494 0.3007 0.9043
H27 H 1.1103 0.3114 0.9489
C37 C 0.7709(3) 0.2236(3) 0.8989(2)
H28 H 0.7547 0.2503 0.9173
H29 H 0.7925 0.1858 0.9181
H30 H 0.7391 0.2072 0.8700
C38 C 0.8795(4) 0.3359(5) 0.8061(3)
H31 H 0.9219 0.3304 0.8183
H32 H 0.8694 0.3828 0.7983
H33 H 0.8606 0.3087 0.7774
C39 C 0.7353(5) 0.6043(6) 0.8195(4)
C40 C 0.6075(3) 0.2608(4) 0.7421(3)
C41 C 0.4526(3) 0.6053(3) 0.9039(2)
C42 C 0.7339(4) 0.5967(4) 1.1340(3)
B1 B 0.9394(3) 0.3770(4) 0.9175(3)
H34 H 0.9573 0.3919 0.8954
C43 C 0.4434(6) 0.6284(7) 0.9496(4)
H35 H 0.4808 0.6434 0.9740
H36 H 0.4286 0.5910 0.9619
H37 H 0.4153 0.6651 0.9411
C44 C 0.3904(5) 0.5781(7) 0.8722(5)
H38 H 0.3783 0.5462 0.8905
H39 H 0.3914 0.5558 0.8442
H40 H 0.3626 0.6152 0.8620
C45 C 0.4780(6) 0.6645(7) 0.8864(6)
H41 H 0.4535 0.7039 0.8829
H42 H 0.4787 0.6534 0.8557
H43 H 0.5177 0.6737 0.9096
C46 C 0.7942(4) 0.6281(5) 1.1411(4)
H44 H 0.8040 0.6639 1.1647
H45 H 0.7917 0.6464 1.1107
H46 H 0.8246 0.5938 1.1521
C47 C 0.7402(5) 0.5576(6) 1.1800(4)
H47 H 0.7680 0.5210 1.1855
H48 H 0.7021 0.5395 1.1758
H49 H 0.7543 0.5878 1.2074
C48 C 0.6904(4) 0.6536(5) 1.1230(4)
H50 H 0.6529 0.6365 1.1208
H51 H 0.6853 0.6742 1.0927
H52 H 0.7051 0.6870 1.1484
C49 C 0.6566(6) 0.2652(9) 0.7281(6)
H53 H 0.6436 0.2528 0.6946
H54 H 0.6877 0.2349 0.7478
H55 H 0.6715 0.3109 0.7327
C50 C 0.5745(8) 0.1942(8) 0.7293(7)
H56 H 0.5642 0.1841 0.6957
H57 H 0.5388 0.1974 0.7349
H58 H 0.5994 0.1588 0.7491
C51 C 0.5563(7) 0.3125(8) 0.7041(6)
H59 H 0.5734 0.3566 0.7052
H60 H 0.5235 0.3160 0.7135
H61 H 0.5425 0.2947 0.6717
C52 C 0.7941(8) 0.6384(11) 0.8501(6)
H62 H 0.8089 0.6616 0.8293
H63 H 0.8224 0.6047 0.8687
H64 H 0.7882 0.6705 0.8717
C53 C 0.7271(10) 0.5798(11) 0.7712(7)
H65 H 0.7322 0.6168 0.7526
H66 H 0.6878 0.5613 0.7550
H67 H 0.7561 0.5451 0.7746
C54 C 0.6863(11) 0.6625(14) 0.8086(10)
H68 H 0.7055 0.7047 0.8222
H69 H 0.6591 0.6505 0.8229
H70 H 0.6647 0.6675 0.7742
Co1F Co 0.83257(3) 0.10819(3) 1.04755(2)
Fe1F Fe 0.61618(3) 0.16929(4) 1.01325(3)
N1F N 0.86137(18) 0.1901(2) 1.01985(15)
N2F N 0.7449(2) 0.1430(2) 1.02699(16)
N3F N 0.5798(3) 0.1338(3) 0.9060(2)
N4F N 0.60586(19) 0.0733(2) 1.02969(17)
N5F N 0.5774(2) 0.0625(2) 1.05986(18)
N6F N 0.53253(18) 0.1890(2) 1.00481(16)
N7F N 0.51616(19) 0.1670(2) 1.04101(17)
N8F N 0.64448(18) 0.1958(2) 1.08350(15)
N9F N 0.6156(2) 0.1665(2) 1.10937(17)
N10F N 0.8130(2) 0.0314(2) 1.08961(16)
N11F N 0.85739(18) 0.1541(2) 1.11673(15)
N12F N 0.91050(19) 0.0500(2) 1.06133(14)
N13F N 0.81008(18) 0.0487(2) 0.98395(15)
C1F C 0.8718(2) 0.2410(3) 1.00597(18)
C2F C 0.6971(2) 0.1523(2) 1.02151(18)
C3F C 0.5929(3) 0.1460(3) 0.9459(2)
C4F C 0.6176(3) 0.0119(3) 1.0156(2)
C5F C 0.5965(3) -0.0378(4) 1.0375(3)
H1F H 0.5989 -0.0846 1.0342
C6F C 0.5719(3) -0.0053(4) 1.0643(3)
C7F C 0.4855(2) 0.2230(3) 0.9728(2)
C8F C 0.4403(3) 0.2235(3) 0.9891(2)
H2F H 0.4031 0.2438 0.9738
C9F C 0.4608(2) 0.1881(3) 1.0320(2)
C10F C 0.6886(2) 0.2340(3) 1.1145(2)
C11F C 0.6871(3) 0.2295(4) 1.1599(2)
H3F H 0.7125 0.2517 1.1879
C12F C 0.6417(3) 0.1866(4) 1.1559(2)
C13F C 0.7928(3) -0.0317(3) 1.0751(2)
H4F H 0.7891 -0.0459 1.0446
C14F C 0.7775(4) -0.0759(4) 1.1028(3)
H5F H 0.7638 -0.1192 1.0911
C15F C 0.7822(4) -0.0565(4) 1.1480(3)
C16F C 0.8040(3) 0.0076(4) 1.1633(3)
H6F H 0.8086 0.0223 1.1940
C17F C 0.8193(3) 0.0505(3) 1.1340(2)
C18F C 0.8439(2) 0.1194(3) 1.14940(19)
C19F C 0.8543(3) 0.1465(3) 1.1941(2)
H7F H 0.8448 0.1213 1.2160
C20F C 0.8791(3) 0.2115(3) 1.2074(2)
C21F C 0.8926(2) 0.2464(3) 1.1733(2)
H8F H 0.9093 0.2896 1.1802
C22F C 0.8810(2) 0.2163(3) 1.12878(19)
H9F H 0.8901 0.2404 1.1062
C23F C 0.9602(3) 0.0526(3) 1.1019(2)
H10F H 0.9646 0.0882 1.1234
C24F C 1.0056(3) 0.0053(3) 1.1139(2)
H11F H 1.0395 0.0100 1.1426
C25F C 1.0008(2) -0.0489(3) 1.0834(2)
C26F C 0.9488(2) -0.0507(3) 1.0407(2)
H12F H 0.9435 -0.0859 1.0187
C27F C 0.9053(2) -0.0020(2) 1.03024(18)
C28F C 0.8487(2) -0.0013(3) 0.98584(18)
C29F C 0.8347(3) -0.0480(3) 0.9481(2)
H13F H 0.8616 -0.0824 0.9505
C30F C 0.7825(3) -0.0446(3) 0.9076(2)
C31F C 0.7452(3) 0.0083(3) 0.9059(2)
H14F H 0.7097 0.0137 0.8786
C32F C 0.7596(2) 0.0534(3) 0.9439(2)
H15F H 0.7333 0.0885 0.9416
C33F C 0.6477(3) 0.0005(3) 0.9824(3)
H16F H 0.6188 0.0025 0.9494
H17F H 0.6773 0.0350 0.9877
H18F H 0.6664 -0.0433 0.9887
C34F C 0.5424(4) -0.0349(5) 1.0956(4)
H19F H 0.5519 -0.0824 1.1010
H20F H 0.5566 -0.0116 1.1262
H21F H 0.5000 -0.0295 1.0793
C35F C 0.4846(3) 0.2552(4) 0.9278(2)
H22F H 0.5083 0.2959 0.9361
H23F H 0.5007 0.2241 0.9117
H24F H 0.4444 0.2663 0.9066
C36F C 0.4306(3) 0.1744(4) 1.0661(3)
H25F H 0.4324 0.1267 1.0732
H26F H 0.4506 0.1993 1.0957
H27F H 0.3897 0.1886 1.0511
C37F C 0.7291(3) 0.2764(3) 1.1011(2)
H28F H 0.7453 0.2497 1.0827
H29F H 0.7075 0.3142 1.0819
H30F H 0.7609 0.2928 1.1300
C38F C 0.6205(4) 0.1641(5) 1.1939(3)
H31F H 0.5781 0.1696 1.1817
H32F H 0.6306 0.1172 1.2017
H33F H 0.6394 0.1913 1.2226
C39F C 0.7647(5) -0.1043(6) 1.1805(4)
C40F C 0.8925(3) 0.2392(4) 1.2579(3)
C41F C 1.0474(3) -0.1053(3) 1.0961(2)
C42F C 0.7661(4) -0.0967(4) 0.8660(3)
B1F B 0.5606(3) 0.1230(4) 1.0825(3)
H34F H 0.5427 0.1081 1.1046
C43F C 1.0566(6) -0.1284(7) 1.0504(4)
H35F H 1.0192 -0.1434 1.0260
H36F H 1.0714 -0.0910 1.0381
H37F H 1.0847 -0.1651 1.0589
C44F C 1.1096(5) -0.0781(7) 1.1278(5)
H38F H 1.1217 -0.0462 1.1095
H39F H 1.1086 -0.0558 1.1558
H40F H 1.1374 -0.1152 1.1380
C45F C 1.0220(6) -0.1645(7) 1.1136(6)
H41F H 1.0465 -0.2039 1.1171
H42F H 1.0213 -0.1534 1.1443
H43F H 0.9823 -0.1737 1.0904
C46F C 0.7058(4) -0.1281(5) 0.8589(4)
H44F H 0.6960 -0.1639 0.8353
H45F H 0.7083 -0.1464 0.8893
H46F H 0.6754 -0.0938 0.8479
C47F C 0.7598(5) -0.0576(6) 0.8200(4)
H47F H 0.7320 -0.0210 0.8145
H48F H 0.7979 -0.0395 0.8242
H49F H 0.7457 -0.0878 0.7926
C48F C 0.8096(4) -0.1536(5) 0.8770(4)
H50F H 0.8471 -0.1365 0.8792
H51F H 0.8147 -0.1742 0.9073
H52F H 0.7949 -0.1870 0.8516
C49F C 0.8434(6) 0.2348(9) 1.2719(6)
H53F H 0.8564 0.2472 1.3054
H54F H 0.8123 0.2651 1.2522
H55F H 0.8285 0.1891 1.2673
C50F C 0.9255(8) 0.3058(8) 1.2707(7)
H56F H 0.9358 0.3159 1.3043
H57F H 0.9612 0.3026 1.2651
H58F H 0.9006 0.3412 1.2509
C51F C 0.9437(7) 0.1875(8) 1.2959(6)
H59F H 0.9266 0.1434 1.2948
H60F H 0.9765 0.1840 1.2865
H61F H 0.9575 0.2053 1.3283
C52F C 0.7059(8) -0.1384(11) 1.1499(6)
H62F H 0.6911 -0.1616 1.1707
H63F H 0.6776 -0.1047 1.1313
H64F H 0.7118 -0.1705 1.1283
C53F C 0.7729(10) -0.0798(11) 1.2288(7)
H65F H 0.7678 -0.1168 1.2474
H66F H 0.8122 -0.0613 1.2450
H67F H 0.7439 -0.0451 1.2254
C54F C 0.8137(11) -0.1625(14) 1.1914(10)
H68F H 0.7945 -0.2047 1.1778
H69F H 0.8409 -0.1505 1.1771
H70F H 0.8353 -0.1675 1.2258
P1 P 0.7500 0.7500 0.0000
F1 F 0.8043(7) 0.7778(10) 0.0449(6)
F2 F 0.7571(10) 0.6689(11) 0.0165(7)
F3 F 0.7130(6) 0.7640(9) 0.0298(5)
F1F F 0.6957(7) 0.7222(10) -0.0449(6)
F2F F 0.7429(10) 0.8311(11) -0.0165(7)
F3F F 0.7870(6) 0.7360(9) -0.0298(5)
P2 P 0.0000 0.0040(3) 0.2500
F4 F -0.0411(8) -0.0438(9) 0.2036(6)
F5 F 0.0544(7) -0.0142(10) 0.2384(6)
F6 F -0.0182(7) 0.0725(8) 0.2158(5)
F4A F 0.0411(8) -0.0438(9) 0.2964(6)
F5A F -0.0544(7) -0.0142(10) 0.2616(6)
F6A F 0.0182(7) 0.0725(8) 0.2842(5)
O1 O 0.5779(10) 1.0532(13) 0.8246(8)
H71 H 0.5622 1.0757 0.8391
C55 C 0.5449(18) 0.975(2) 0.8112(11)
H72 H 0.5683 0.9453 0.8005
H73 H 0.5056 0.9791 0.7859
H74 H 0.5423 0.9559 0.8397
F7? F 0.0025(13) -0.0738(12) 0.2264(8)
F8? F 0.0561(8) 0.0258(10) 0.2376(6)
F9? F -0.0395(7) 0.0365(9) 0.2037(5)
C56? C 0.4551(19) 0.648(2) 0.8640(16)
H75? H 0.4253 0.6825 0.8558
H76? H 0.4478 0.6196 0.8361
H77? H 0.4938 0.6680 0.8744
C57? C 0.4028(15) 0.5983(17) 0.8525(13)
H78? H 0.3739 0.6336 0.8472
H79? H 0.3839 0.5548 0.8494
H80? H 0.4196 0.6020 0.8289
C58? C 0.4531(17) 0.6476(19) 0.9395(14)
H81? H 0.4909 0.6704 0.9537
H82? H 0.4468 0.6218 0.9641
H83? H 0.4219 0.6806 0.9261
C59? C 0.7921(12) 0.5553(12) 0.8115(10)
C60? C 0.7623(12) 0.6649(11) 0.8391(9)
C61? C 0.6924(10) 0.6036(11) 0.7680(8)
C62? C 0.6374(9) 0.1834(9) 0.7520(7)
C63? C 0.5447(8) 0.2520(12) 0.7158(7)
C64? C 0.6363(10) 0.2999(11) 0.7145(8)
F10? F 0.8026(8) 0.7897(11) -0.0063(7)
F11? F 0.7892(6) 0.7436(8) 0.0554(5)
F12? F 0.7210(9) 0.8191(10) -0.0034(8)
H84? H 0.7744 0.5277 0.7829
H85? H 0.8114 0.5267 0.8393
H86? H 0.8208 0.5853 0.8079
H87? H 0.7701 0.6901 0.8150
H88? H 0.7991 0.6561 0.8664
H89? H 0.7364 0.6908 0.8494
H90? H 0.6547 0.6212 0.7654
H91? H 0.6872 0.5578 0.7560
H92? H 0.7073 0.6313 0.7492
H93? H 0.6203 0.1569 0.7697
H94? H 0.6797 0.1869 0.7704
H95? H 0.6297 0.1617 0.7214
H96? H 0.5350 0.2530 0.6816
H97? H 0.5240 0.2879 0.7240
H98? H 0.5330 0.2090 0.7243
H99? H 0.6245 0.2807 0.6826
H100? H 0.6788 0.2973 0.7315
H101? H 0.6239 0.3465 0.7117
loop_
_geom_bond_atom_site_label_1
_geom_bond_atom_site_label_2
_geom_bond_site_symmetry_1
_geom_bond_site_symmetry_2
Co1 N1 1_555 1_555
Fe1 N4 1_555 1_555
N1 C1 1_555 1_555
N2 Co1 1_555 1_555
N3 C3 1_555 1_555
N4 N5 1_555 1_555
N5 C6 1_555 1_555
N6 Fe1 1_555 1_555
N7 N6 1_555 1_555
N8 Fe1 1_555 1_555
N9 N8 1_555 1_555
N10 Co1 1_555 1_555
N11 Co1 1_555 1_555
N12 Co1 1_555 1_555
N13 Co1 1_555 1_555
C1 Fe1F 1_555 1_555
C2 Fe1 1_555 1_555
C3 Fe1 1_555 1_555
C4 N4 1_555 1_555
C5 C4 1_555 1_555
H1 C5 1_555 1_555
C6 C5 1_555 1_555
C7 N6 1_555 1_555
C8 C7 1_555 1_555
H2 C8 1_555 1_555
C9 N7 1_555 1_555
C10 N8 1_555 1_555
C11 C10 1_555 1_555
H3 C11 1_555 1_555
C12 N9 1_555 1_555
C13 N10 1_555 1_555
H4 C13 1_555 1_555
C14 C13 1_555 1_555
H5 C14 1_555 1_555
C15 C14 1_555 1_555
C16 C15 1_555 1_555
H6 C16 1_555 1_555
C17 N10 1_555 1_555
C18 N11 1_555 1_555
C19 C18 1_555 1_555
H7 C19 1_555 1_555
C20 C19 1_555 1_555
C21 C20 1_555 1_555
H8 C21 1_555 1_555
C22 N11 1_555 1_555
H9 C22 1_555 1_555
C23 N12 1_555 1_555
H10 C23 1_555 1_555
C24 C23 1_555 1_555
H11 C24 1_555 1_555
C25 C24 1_555 1_555
C26 C25 1_555 1_555
H12 C26 1_555 1_555
C27 N12 1_555 1_555
C28 N13 1_555 1_555
C29 C28 1_555 1_555
H13 C29 1_555 1_555
C30 C29 1_555 1_555
C31 C30 1_555 1_555
H14 C31 1_555 1_555
C32 N13 1_555 1_555
H15 C32 1_555 1_555
C33 C4 1_555 1_555
H16 C33 1_555 1_555
H17 C33 1_555 1_555
H18 C33 1_555 1_555
C34 C6 1_555 1_555
H19 C34 1_555 1_555
H20 C34 1_555 1_555
H21 C34 1_555 1_555
C35 C7 1_555 1_555
H22 C35 1_555 1_555
H23 C35 1_555 1_555
H24 C35 1_555 1_555
C36 C9 1_555 1_555
H25 C36 1_555 1_555
H26 C36 1_555 1_555
H27 C36 1_555 1_555
C37 C10 1_555 1_555
H28 C37 1_555 1_555
H29 C37 1_555 1_555
H30 C37 1_555 1_555
C38 C12 1_555 1_555
H31 C38 1_555 1_555
H32 C38 1_555 1_555
H33 C38 1_555 1_555
C39 C15 1_555 1_555
C40 C20 1_555 1_555
C41 C25 1_555 1_555
C42 C30 1_555 1_555
B1 N5 1_555 1_555
H34 B1 1_555 1_555
C43 C41 1_555 1_555
H35 C43 1_555 1_555
H36 C43 1_555 1_555
H37 C43 1_555 1_555
C44 C41 1_555 1_555
H38 C44 1_555 1_555
H39 C44 1_555 1_555
H40 C44 1_555 1_555
C45 C41 1_555 1_555
H41 C45 1_555 1_555
H42 C45 1_555 1_555
H43 C45 1_555 1_555
C46 C42 1_555 1_555
H44 C46 1_555 1_555
H45 C46 1_555 1_555
H46 C46 1_555 1_555
C47 C42 1_555 1_555
H47 C47 1_555 1_555
H48 C47 1_555 1_555
H49 C47 1_555 1_555
C48 C42 1_555 1_555
H50 C48 1_555 1_555
H51 C48 1_555 1_555
H52 C48 1_555 1_555
C49 C40 1_555 1_555
H53 C49 1_555 1_555
H54 C49 1_555 1_555
H55 C49 1_555 1_555
C50 C40 1_555 1_555
H56 C50 1_555 1_555
H57 C50 1_555 1_555
H58 C50 1_555 1_555
C51 C40 1_555 1_555
H59 C51 1_555 1_555
H60 C51 1_555 1_555
H61 C51 1_555 1_555
C52 C39 1_555 1_555
H62 C52 1_555 1_555
H63 C52 1_555 1_555
H64 C52 1_555 1_555
C53 C39 1_555 1_555
H65 C53 1_555 1_555
H66 C53 1_555 1_555
H67 C53 1_555 1_555
C54 C39 1_555 1_555
H68 C54 1_555 1_555
H69 C54 1_555 1_555
H70 C54 1_555 1_555
P1 F1 1_555 1_555
F2 P1 1_555 1_555
F3 P1 1_555 1_555
P2 F4 1_555 1_555
F5 P2 1_555 1_555
F6 P2 1_555 1_555
O1 H71 1_555 1_555
C55 O1 1_555 1_555
H72 C55 1_555 1_555
H73 C55 1_555 1_555
H74 C55 1_555 1_555
Co1F N1F 1_555 1_555
Fe1F N4F 1_555 1_555
N1F C1F 1_555 1_555
N2F Co1F 1_555 1_555
N3F C3F 1_555 1_555
N4F N5F 1_555 1_555
N5F C6F 1_555 1_555
N6F Fe1F 1_555 1_555
N7F N6F 1_555 1_555
N8F Fe1F 1_555 1_555
N9F N8F 1_555 1_555
N10F Co1F 1_555 1_555
N11F Co1F 1_555 1_555
N12F Co1F 1_555 1_555
N13F Co1F 1_555 1_555
C1F Fe1 1_555 1_555
C2F Fe1F 1_555 1_555
C3F Fe1F 1_555 1_555
C4F N4F 1_555 1_555
C5F C4F 1_555 1_555
H1F C5F 1_555 1_555
C6F C5F 1_555 1_555
C7F N6F 1_555 1_555
C8F C7F 1_555 1_555
H2F C8F 1_555 1_555
C9F N7F 1_555 1_555
C10F N8F 1_555 1_555
C11F C10F 1_555 1_555
H3F C11F 1_555 1_555
C12F N9F 1_555 1_555
C13F N10F 1_555 1_555
H4F C13F 1_555 1_555
C14F C13F 1_555 1_555
H5F C14F 1_555 1_555
C15F C14F 1_555 1_555
C16F C15F 1_555 1_555
H6F C16F 1_555 1_555
C17F N10F 1_555 1_555
C18F N11F 1_555 1_555
C19F C18F 1_555 1_555
H7F C19F 1_555 1_555
C20F C19F 1_555 1_555
C21F C20F 1_555 1_555
H8F C21F 1_555 1_555
C22F N11F 1_555 1_555
H9F C22F 1_555 1_555
C23F N12F 1_555 1_555
H10F C23F 1_555 1_555
C24F C23F 1_555 1_555
H11F C24F 1_555 1_555
C25F C24F 1_555 1_555
C26F C25F 1_555 1_555
H12F C26F 1_555 1_555
C27F N12F 1_555 1_555
C28F N13F 1_555 1_555
C29F C28F 1_555 1_555
H13F C29F 1_555 1_555
C30F C29F 1_555 1_555
C31F C30F 1_555 1_555
H14F C31F 1_555 1_555
C32F N13F 1_555 1_555
H15F C32F 1_555 1_555
C33F C4F 1_555 1_555
H16F C33F 1_555 1_555
H17F C33F 1_555 1_555
H18F C33F 1_555 1_555
C34F C6F 1_555 1_555
H19F C34F 1_555 1_555
H20F C34F 1_555 1_555
H21F C34F 1_555 1_555
C35F C7F 1_555 1_555
H22F C35F 1_555 1_555
H23F C35F 1_555 1_555
H24F C35F 1_555 1_555
C36F C9F 1_555 1_555
H25F C36F 1_555 1_555
H26F C36F 1_555 1_555
H27F C36F 1_555 1_555
C37F C10F 1_555 1_555
H28F C37F 1_555 1_555
H29F C37F 1_555 1_555
H30F C37F 1_555 1_555
C38F C12F 1_555 1_555
H31F C38F 1_555 1_555
H32F C38F 1_555 1_555
H33F C38F 1_555 1_555
C39F C15F 1_555 1_555
C40F C20F 1_555 1_555
C41F C25F 1_555 1_555
C42F C30F 1_555 1_555
B1F N5F 1_555 1_555
H34F B1F 1_555 1_555
C43F C41F 1_555 1_555
H35F C43F 1_555 1_555
H36F C43F 1_555 1_555
H37F C43F 1_555 1_555
C44F C41F 1_555 1_555
H38F C44F 1_555 1_555
H39F C44F 1_555 1_555
H40F C44F 1_555 1_555
C45F C41F 1_555 1_555
H41F C45F 1_555 1_555
H42F C45F 1_555 1_555
H43F C45F 1_555 1_555
C46F C42F 1_555 1_555
H44F C46F 1_555 1_555
H45F C46F 1_555 1_555
H46F C46F 1_555 1_555
C47F C42F 1_555 1_555
H47F C47F 1_555 1_555
H48F C47F 1_555 1_555
H49F C47F 1_555 1_555
C48F C42F 1_555 1_555
H50F C48F 1_555 1_555
H51F C48F 1_555 1_555
H52F C48F 1_555 1_555
C49F C40F 1_555 1_555
H53F C49F 1_555 1_555
H54F C49F 1_555 1_555
H55F C49F 1_555 1_555
C50F C40F 1_555 1_555
H56F C50F 1_555 1_555
H57F C50F 1_555 1_555
H58F C50F 1_555 1_555
C51F C40F 1_555 1_555
H59F C51F 1_555 1_555
H60F C51F 1_555 1_555
H61F C51F 1_555 1_555
C52F C39F 1_555 1_555
H62F C52F 1_555 1_555
H63F C52F 1_555 1_555
H64F C52F 1_555 1_555
C53F C39F 1_555 1_555
H65F C53F 1_555 1_555
H66F C53F 1_555 1_555
H67F C53F 1_555 1_555
C54F C39F 1_555 1_555
H68F C54F 1_555 1_555
H69F C54F 1_555 1_555
H70F C54F 1_555 1_555
F1F P1 1_555 1_555
F2F P1 1_555 1_555
F3F P1 1_555 1_555
F4A P2 1_555 1_555
F5A P2 1_555 1_555
F6A P2 1_555 1_555
N2 C2 1_555 1_555
N7 B1 1_555 1_555
N9 B1 1_555 1_555
C8 C9 1_555 1_555
C11 C12 1_555 1_555
C16 C17 1_555 1_555
C17 C18 1_555 1_555
C21 C22 1_555 1_555
C26 C27 1_555 1_555
C27 C28 1_555 1_555
C31 C32 1_555 1_555
N2F C2F 1_555 1_555
N7F B1F 1_555 1_555
N9F B1F 1_555 1_555
C8F C9F 1_555 1_555
C11F C12F 1_555 1_555
C16F C17F 1_555 1_555
C17F C18F 1_555 1_555
C21F C22F 1_555 1_555
C26F C27F 1_555 1_555
C27F C28F 1_555 1_555
C31F C32F 1_555 1_555

#END
