
#######################################################################
#
#                 Cambridge Crystallographic Data Centre
#                                CCDC 
#
#######################################################################
#
# If this CIF has been generated from an entry in the Cambridge 
# Structural Database, then it will include bibliographic, chemical, 
# crystal, experimental, refinement or atomic coordinate data resulting 
# from the CCDC's data processing and validation procedures.
#
#######################################################################

data_KAFXAS05
_chemical_formula_moiety         
'C108 H140 B2 Co2 Fe2 N26 2+,2(F6 P1 1-),2(C1 H4 O1)'
_chemical_name_systematic        
"tetrakis(\m~2~-Cyano)-tetrakis(4,4'-di-t-butyl-2,2'-bipyridine)-bis(hydridotris(3,5-dimethyl-1H-pyrazol-1-yl)borate)-dicyano-di-cobalt-di-iron bis(hexafluorophosphate) methanol solvate"
_symmetry_cell_setting           monoclinic
_symmetry_space_group_name_H-M   'C 2/c'
_symmetry_Int_Tables_number      15
_space_group_name_Hall           '-C 2yn'
loop_
_symmetry_equiv_pos_site_id
_symmetry_equiv_pos_as_xyz
1 x,y,z
2 -x,y,1/2-z
3 1/2+x,1/2+y,z
4 1/2-x,1/2+y,1/2-z
5 -x,-y,-z
6 x,-y,1/2+z
7 1/2-x,1/2-y,-z
8 1/2+x,1/2-y,1/2+z
_cell_length_a                   24.639(2)
_cell_length_b                   19.1926(16)
_cell_length_c                   29.908(2)
_cell_angle_alpha                90
_cell_angle_beta                 115.207(2)
_cell_angle_gamma                90
_cell_volume                     12796.3
_exptl_crystal_colour            red
_exptl_crystal_description       plate
_cell_formula_units_Z            4
_exptl_crystal_preparation       
'metastable high-spin state caused by X-ray-induced electron-transfer-coupled spin transition (ETCST)'
loop_
_atom_site_label
_atom_site_type_symbol
_atom_site_fract_x
_atom_site_fract_y
_atom_site_fract_z
Co1 Co 0.33004(3) 0.60723(3) 0.04889(3)
Fe1 Fe 0.38219(3) 0.82870(5) -0.01571(3)
N1 N 0.3577(2) 0.6865(3) 0.01961(19)
N2 N 0.24665(19) 0.6441(2) 0.02929(18)
N3 N 0.4207(2) 0.8685(3) 0.0937(3)
N4 N 0.3941(2) 0.9275(3) -0.0326(2)
N5 N 0.4216(2) 0.9374(3) -0.0641(2)
N6 N 0.4676(2) 0.8078(3) -0.0066(2)
N7 N 0.4823(2) 0.8293(3) -0.0445(2)
N8 N 0.35299(19) 0.8007(3) -0.08801(18)
N9 N 0.3812(2) 0.8297(3) -0.1154(2)
N10 N 0.3098(2) 0.5317(3) 0.0886(2)
N11 N 0.3562(2) 0.6563(2) 0.11570(18)
N12 N 0.4069(2) 0.5518(2) 0.06346(19)
N13 N 0.3053(2) 0.5484(2) -0.0137(2)
C1 C 0.3696(2) 0.7388(4) 0.0046(2)
C2 C 0.1975(2) 0.6531(3) 0.0242(2)
C3 C 0.4079(3) 0.8542(3) 0.0522(3)
C4 C 0.3839(3) 0.9915(4) -0.0181(3)
C5 C 0.4061(4) 1.0427(4) -0.0401(4)
H1 H 0.4051 1.0918 -0.0362
C6 C 0.4293(3) 1.0075(4) -0.0683(4)
C7 C 0.5145(2) 0.7707(3) 0.0267(3)
C8 C 0.5599(2) 0.7691(4) 0.0091(3)
H2 H 0.5978 0.7468 0.0246
C9 C 0.5386(3) 0.8062(4) -0.0344(3)
C10 C 0.3088(2) 0.7606(3) -0.1196(2)
C11 C 0.3076(3) 0.7647(3) -0.1668(2)
H3 H 0.2800 0.7423 -0.1960
C12 C 0.3544(3) 0.8079(4) -0.1623(3)
C13 C 0.2890(3) 0.4677(3) 0.0737(3)
H4 H 0.2862 0.4520 0.0426
C14 C 0.2714(5) 0.4231(5) 0.1010(4)
H5 H 0.2557 0.3784 0.0885
C15 C 0.2768(6) 0.4446(5) 0.1479(4)
C16 C 0.2964(5) 0.5112(5) 0.1617(3)
H6 H 0.2973 0.5291 0.1916
C17 C 0.3150(4) 0.5534(3) 0.1335(3)
C18 C 0.3409(3) 0.6236(3) 0.1490(2)
C19 C 0.3505(3) 0.6544(4) 0.1934(3)
H7 H 0.3378 0.6303 0.2151
C20 C 0.3775(3) 0.7183(4) 0.2078(2)
C21 C 0.3918(3) 0.7531(4) 0.1720(3)
H8 H 0.4088 0.7984 0.1785
C22 C 0.3807(2) 0.7203(3) 0.1283(2)
H9 H 0.3910 0.7442 0.1052
C23 C 0.4587(3) 0.5564(3) 0.1040(2)
H10 H 0.4630 0.5932 0.1265
C24 C 0.5062(3) 0.5117(3) 0.1155(2)
H11 H 0.5418 0.5186 0.1449
C25 C 0.5028(3) 0.4558(3) 0.0840(2)
C26 C 0.4484(2) 0.4509(3) 0.0415(2)
H12 H 0.4433 0.4142 0.0187
C27 C 0.4014(3) 0.4984(3) 0.0313(2)
C28 C 0.3439(3) 0.4976(3) -0.0133(2)
C29 C 0.3288(3) 0.4499(3) -0.0523(2)
H13 H 0.3564 0.4141 -0.0503
C30 C 0.2743(3) 0.4539(3) -0.0941(3)
C31 C 0.2366(3) 0.5079(3) -0.0951(3)
H14 H 0.1995 0.5138 -0.1233
C32 C 0.2525(3) 0.5544(3) -0.0550(3)
H15 H 0.2257 0.5909 -0.0568
C33 C 0.3549(3) 1.0039(4) 0.0157(3)
H16 H 0.3204 0.9727 0.0070
H17 H 0.3414 1.0524 0.0127
H18 H 0.3839 0.9948 0.0499
C34 C 0.4594(5) 1.0345(6) -0.1006(5)
H19 H 0.5000 1.0152 -0.0886
H20 H 0.4616 1.0855 -0.0988
H21 H 0.4358 1.0201 -0.1349
C35 C 0.5142(3) 0.7372(4) 0.0703(3)
H22 H 0.5121 0.7729 0.0930
H23 H 0.5510 0.7098 0.0869
H24 H 0.4793 0.7064 0.0604
C36 C 0.5679(3) 0.8220(4) -0.0684(3)
H25 H 0.5450 0.8000 -0.1005
H26 H 0.6090 0.8038 -0.0540
H27 H 0.5689 0.8725 -0.0727
C37 C 0.2682(2) 0.7159(3) -0.1048(2)
H28 H 0.2919 0.6793 -0.0821
H29 H 0.2370 0.6946 -0.1344
H30 H 0.2493 0.7451 -0.0885
C38 C 0.3755(3) 0.8313(4) -0.2004(3)
H31 H 0.3710 0.8820 -0.2046
H32 H 0.3515 0.8084 -0.2320
H33 H 0.4178 0.8188 -0.1894
C39 C 0.3918(4) 0.7515(5) 0.2572(3)
C40 C 0.2550(4) 0.4033(4) -0.1365(3)
B1 B 0.4380(3) 0.8737(5) -0.0871(3)
H34 H 0.4563 0.8886 -0.1096
C41 C 0.5580(3) 0.3740(4) 0.0512(3)
H35 H 0.5637 0.4132 0.0327
H36 H 0.5213 0.3488 0.0303
H37 H 0.5924 0.3425 0.0613
C42 C 0.5350(4) 0.3414(4) 0.1226(3)
H38 H 0.5657 0.3049 0.1319
H39 H 0.4962 0.3222 0.0997
H40 H 0.5320 0.3588 0.1522
C43 C 0.6132(3) 0.4316(5) 0.1322(3)
H41 H 0.6224 0.4722 0.1167
H42 H 0.6444 0.3962 0.1390
H43 H 0.6119 0.4458 0.1632
C44 C 0.1930(3) 0.3692(4) -0.1439(3)
H44 H 0.1799 0.3365 -0.1717
H45 H 0.1628 0.4058 -0.1508
H46 H 0.1982 0.3442 -0.1138
C45 C 0.3014(4) 0.3478(5) -0.1284(4)
H47 H 0.3357 0.3682 -0.1321
H48 H 0.2839 0.3106 -0.1528
H49 H 0.3148 0.3286 -0.0951
C46 C 0.2432(5) 0.4450(5) -0.1842(3)
H50 H 0.2803 0.4678 -0.1808
H51 H 0.2124 0.4804 -0.1894
H52 H 0.2294 0.4132 -0.2125
C47 C 0.3616(6) 0.8299(5) 0.2464(4)
H53 H 0.3783 0.8571 0.2275
H54 H 0.3704 0.8533 0.2779
H55 H 0.3180 0.8259 0.2275
C48 C 0.3607(5) 0.7157(6) 0.2859(4)
H56 H 0.3175 0.7130 0.2650
H57 H 0.3679 0.7426 0.3157
H58 H 0.3769 0.6686 0.2952
C49 C 0.4564(4) 0.7626(7) 0.2857(4)
H59 H 0.4633 0.7946 0.3131
H60 H 0.4732 0.7826 0.2642
H61 H 0.4760 0.7179 0.2989
C50 C 0.5525(3) 0.4016(3) 0.0973(2)
C51 C 0.2243(13) 0.3324(11) 0.1559(10)
H62 H 0.1980 0.3406 0.1210
H63 H 0.2002 0.3174 0.1731
H64 H 0.2536 0.2961 0.1588
C52 C 0.3007(12) 0.3978(14) 0.2311(6)
H65 H 0.3247 0.4405 0.2382
H66 H 0.3271 0.3571 0.2375
H67 H 0.2795 0.3957 0.2524
C53 C 0.2564(7) 0.3977(7) 0.1785(5)
C54 C 0.2001(12) 0.4527(11) 0.1867(10)
H68 H 0.1641 0.4558 0.1554
H69 H 0.2166 0.4994 0.1972
H70 H 0.1895 0.4321 0.2119
Co1F Co 0.16996(3) 0.89277(3) -0.04889(3)
Fe1F Fe 0.11781(3) 0.67130(5) 0.01571(3)
N1F N 0.1423(2) 0.8135(3) -0.01961(19)
N2F N 0.25335(19) 0.8559(2) -0.02929(18)
N3F N 0.0793(2) 0.6315(3) -0.0937(3)
N4F N 0.1059(2) 0.5725(3) 0.0326(2)
N5F N 0.0784(2) 0.5626(3) 0.0641(2)
N6F N 0.0324(2) 0.6922(3) 0.0066(2)
N7F N 0.0177(2) 0.6707(3) 0.0445(2)
N8F N 0.14701(19) 0.6993(3) 0.08801(18)
N9F N 0.1188(2) 0.6703(3) 0.1154(2)
N10F N 0.1902(2) 0.9683(3) -0.0886(2)
N11F N 0.1438(2) 0.8437(2) -0.11570(18)
N12F N 0.0931(2) 0.9482(2) -0.06346(19)
N13F N 0.1947(2) 0.9516(2) 0.0137(2)
C1F C 0.1304(2) 0.7612(4) -0.0046(2)
C2F C 0.3025(2) 0.8469(3) -0.0242(2)
C3F C 0.0921(3) 0.6458(3) -0.0522(3)
C4F C 0.1161(3) 0.5085(4) 0.0181(3)
C5F C 0.0939(4) 0.4573(4) 0.0401(4)
H1F H 0.0949 0.4082 0.0362
C6F C 0.0707(3) 0.4925(4) 0.0683(4)
C7F C -0.0145(2) 0.7293(3) -0.0267(3)
C8F C -0.0599(2) 0.7309(4) -0.0091(3)
H2F H -0.0978 0.7532 -0.0246
C9F C -0.0386(3) 0.6938(4) 0.0344(3)
C10F C 0.1912(2) 0.7394(3) 0.1196(2)
C11F C 0.1924(3) 0.7353(3) 0.1668(2)
H3F H 0.2200 0.7577 0.1960
C12F C 0.1456(3) 0.6921(4) 0.1623(3)
C13F C 0.2110(3) 1.0323(3) -0.0737(3)
H4F H 0.2138 1.0480 -0.0426
C14F C 0.2286(5) 1.0769(5) -0.1010(4)
H5F H 0.2443 1.1216 -0.0885
C15F C 0.2232(6) 1.0554(5) -0.1479(4)
C16F C 0.2036(5) 0.9888(5) -0.1617(3)
H6F H 0.2027 0.9709 -0.1916
C17F C 0.1850(4) 0.9466(3) -0.1335(3)
C18F C 0.1591(3) 0.8764(3) -0.1490(2)
C19F C 0.1495(3) 0.8456(4) -0.1934(3)
H7F H 0.1622 0.8697 -0.2151
C20F C 0.1225(3) 0.7817(4) -0.2078(2)
C21F C 0.1082(3) 0.7469(4) -0.1720(3)
H8F H 0.0912 0.7016 -0.1785
C22F C 0.1193(2) 0.7797(3) -0.1283(2)
H9F H 0.1090 0.7558 -0.1052
C23F C 0.0413(3) 0.9436(3) -0.1040(2)
H10F H 0.0370 0.9068 -0.1265
C24F C -0.0062(3) 0.9883(3) -0.1155(2)
H11F H -0.0418 0.9814 -0.1449
C25F C -0.0028(3) 1.0442(3) -0.0840(2)
C26F C 0.0516(2) 1.0491(3) -0.0415(2)
H12F H 0.0567 1.0858 -0.0187
C27F C 0.0986(3) 1.0016(3) -0.0313(2)
C28F C 0.1561(3) 1.0024(3) 0.0133(2)
C29F C 0.1712(3) 1.0501(3) 0.0523(2)
H13F H 0.1436 1.0859 0.0503
C30F C 0.2257(3) 1.0461(3) 0.0941(3)
C31F C 0.2634(3) 0.9921(3) 0.0951(3)
H14F H 0.3005 0.9862 0.1233
C32F C 0.2475(3) 0.9456(3) 0.0550(3)
H15F H 0.2743 0.9091 0.0568
C33F C 0.1451(3) 0.4961(4) -0.0157(3)
H16F H 0.1796 0.5273 -0.0070
H17F H 0.1586 0.4476 -0.0127
H18F H 0.1161 0.5052 -0.0499
C34F C 0.0406(5) 0.4655(6) 0.1006(5)
H19F H 0.0000 0.4848 0.0886
H20F H 0.0384 0.4145 0.0988
H21F H 0.0642 0.4799 0.1349
C35F C -0.0142(3) 0.7628(4) -0.0703(3)
H22F H -0.0121 0.7271 -0.0930
H23F H -0.0510 0.7902 -0.0869
H24F H 0.0207 0.7936 -0.0604
C36F C -0.0679(3) 0.6780(4) 0.0684(3)
H25F H -0.0450 0.7000 0.1005
H26F H -0.1090 0.6962 0.0540
H27F H -0.0689 0.6275 0.0727
C37F C 0.2318(2) 0.7841(3) 0.1048(2)
H28F H 0.2081 0.8207 0.0821
H29F H 0.2630 0.8054 0.1344
H30F H 0.2507 0.7549 0.0885
C38F C 0.1245(3) 0.6687(4) 0.2004(3)
H31F H 0.1290 0.6180 0.2046
H32F H 0.1485 0.6916 0.2320
H33F H 0.0822 0.6812 0.1894
C39F C 0.1082(4) 0.7485(5) -0.2572(3)
C40F C 0.2450(4) 1.0967(4) 0.1365(3)
B1F B 0.0620(3) 0.6263(5) 0.0871(3)
H34F H 0.0437 0.6114 0.1096
C41F C -0.0580(3) 1.1260(4) -0.0512(3)
H35F H -0.0637 1.0868 -0.0327
H36F H -0.0213 1.1512 -0.0303
H37F H -0.0924 1.1575 -0.0613
C42F C -0.0350(4) 1.1586(4) -0.1226(3)
H38F H -0.0657 1.1951 -0.1319
H39F H 0.0038 1.1778 -0.0997
H40F H -0.0320 1.1412 -0.1522
C43F C -0.1132(3) 1.0684(5) -0.1322(3)
H41F H -0.1224 1.0278 -0.1167
H42F H -0.1444 1.1038 -0.1390
H43F H -0.1119 1.0542 -0.1632
C44F C 0.3070(3) 1.1308(4) 0.1439(3)
H44F H 0.3201 1.1635 0.1717
H45F H 0.3372 1.0942 0.1508
H46F H 0.3018 1.1558 0.1138
C45F C 0.1986(4) 1.1522(5) 0.1284(4)
H47F H 0.1643 1.1318 0.1321
H48F H 0.2161 1.1894 0.1528
H49F H 0.1852 1.1714 0.0951
C46F C 0.2568(5) 1.0550(5) 0.1842(3)
H50F H 0.2197 1.0322 0.1808
H51F H 0.2876 1.0196 0.1894
H52F H 0.2706 1.0868 0.2125
C47F C 0.1384(6) 0.6701(5) -0.2464(4)
H53F H 0.1217 0.6429 -0.2275
H54F H 0.1296 0.6467 -0.2779
H55F H 0.1820 0.6741 -0.2275
C48F C 0.1393(5) 0.7843(6) -0.2859(4)
H56F H 0.1825 0.7870 -0.2650
H57F H 0.1321 0.7574 -0.3157
H58F H 0.1231 0.8314 -0.2952
C49F C 0.0436(4) 0.7374(7) -0.2857(4)
H59F H 0.0367 0.7054 -0.3131
H60F H 0.0268 0.7174 -0.2642
H61F H 0.0240 0.7821 -0.2989
C50F C -0.0525(3) 1.0984(3) -0.0973(2)
C51F C 0.2757(13) 1.1676(11) -0.1559(10)
H62F H 0.3020 1.1594 -0.1210
H63F H 0.2998 1.1826 -0.1731
H64F H 0.2464 1.2039 -0.1588
C52F C 0.1993(12) 1.1022(14) -0.2311(6)
H65F H 0.1753 1.0595 -0.2382
H66F H 0.1729 1.1429 -0.2375
H67F H 0.2205 1.1043 -0.2524
C53F C 0.2436(7) 1.1023(7) -0.1785(5)
C54F C 0.2999(12) 1.0473(11) -0.1867(10)
H68F H 0.3359 1.0442 -0.1554
H69F H 0.2834 1.0006 -0.1972
H70F H 0.3105 1.0679 -0.2119
P1 P 0.2500 0.2500 1.0000
F1 F 0.1963(4) 0.2284(8) 0.9479(4)
F2 F 0.2733(10) 0.1761(13) 1.0152(10)
F3 F 0.2904(6) 0.2479(14) 0.9707(5)
F1F F 0.3037(4) 0.2716(8) 1.0521(4)
F2F F 0.2267(10) 0.3239(13) 0.9848(10)
F3F F 0.2096(6) 0.2521(14) 1.0293(5)
P2 P 0.0000 0.9829(3) 0.7500
F4 F 0.0140(14) 1.0537(9) 0.7859(7)
F5 F 0.0571(6) 0.9823(11) 0.7373(4)
F6 F 0.0334(7) 0.9343(10) 0.7942(4)
F4A F -0.0140(14) 1.0537(9) 0.7141(7)
F5A F -0.0571(6) 0.9823(11) 0.7627(4)
F6A F -0.0334(7) 0.9343(10) 0.7058(4)
C55 C 0.4484(6) 0.9960(9) 0.1826(6)
H71 H 0.4351 1.0323 0.1988
H72 H 0.4508 1.0156 0.1532
H73 H 0.4879 0.9789 0.2055
O1 O 0.4085(3) 0.9427(3) 0.1690(2)
H74 H 0.4216 0.9100 0.1576
loop_
_geom_bond_atom_site_label_1
_geom_bond_atom_site_label_2
_geom_bond_site_symmetry_1
_geom_bond_site_symmetry_2
Co1 N1 1_555 1_555
Fe1 N4 1_555 1_555
N1 C1 1_555 1_555
N2 Co1 1_555 1_555
N3 C3 1_555 1_555
N4 N5 1_555 1_555
N5 C6 1_555 1_555
N6 Fe1 1_555 1_555
N7 N6 1_555 1_555
N8 Fe1 1_555 1_555
N9 N8 1_555 1_555
N10 Co1 1_555 1_555
N11 Co1 1_555 1_555
N12 Co1 1_555 1_555
N13 Co1 1_555 1_555
C1 Fe1 1_555 1_555
C2 N2 1_555 1_555
C3 Fe1 1_555 1_555
C4 N4 1_555 1_555
C5 C4 1_555 1_555
H1 C5 1_555 1_555
C6 C5 1_555 1_555
C7 N6 1_555 1_555
C8 C7 1_555 1_555
H2 C8 1_555 1_555
C9 N7 1_555 1_555
C10 N8 1_555 1_555
C11 C10 1_555 1_555
H3 C11 1_555 1_555
C12 N9 1_555 1_555
C13 N10 1_555 1_555
H4 C13 1_555 1_555
C14 C13 1_555 1_555
H5 C14 1_555 1_555
C15 C14 1_555 1_555
C16 C15 1_555 1_555
H6 C16 1_555 1_555
C17 N10 1_555 1_555
C18 N11 1_555 1_555
C19 C18 1_555 1_555
H7 C19 1_555 1_555
C20 C19 1_555 1_555
C21 C20 1_555 1_555
H8 C21 1_555 1_555
C22 N11 1_555 1_555
H9 C22 1_555 1_555
C23 N12 1_555 1_555
H10 C23 1_555 1_555
C24 C23 1_555 1_555
H11 C24 1_555 1_555
C25 C24 1_555 1_555
C26 C25 1_555 1_555
H12 C26 1_555 1_555
C27 N12 1_555 1_555
C28 N13 1_555 1_555
C29 C28 1_555 1_555
H13 C29 1_555 1_555
C30 C29 1_555 1_555
C31 C30 1_555 1_555
H14 C31 1_555 1_555
C32 N13 1_555 1_555
H15 C32 1_555 1_555
C33 C4 1_555 1_555
H16 C33 1_555 1_555
H17 C33 1_555 1_555
H18 C33 1_555 1_555
C34 C6 1_555 1_555
H19 C34 1_555 1_555
H20 C34 1_555 1_555
H21 C34 1_555 1_555
C35 C7 1_555 1_555
H22 C35 1_555 1_555
H23 C35 1_555 1_555
H24 C35 1_555 1_555
C36 C9 1_555 1_555
H25 C36 1_555 1_555
H26 C36 1_555 1_555
H27 C36 1_555 1_555
C37 C10 1_555 1_555
H28 C37 1_555 1_555
H29 C37 1_555 1_555
H30 C37 1_555 1_555
C38 C12 1_555 1_555
H31 C38 1_555 1_555
H32 C38 1_555 1_555
H33 C38 1_555 1_555
C39 C20 1_555 1_555
C40 C30 1_555 1_555
B1 N5 1_555 1_555
H34 B1 1_555 1_555
C41 H35 1_555 1_555
H36 C41 1_555 1_555
H37 C41 1_555 1_555
C42 H38 1_555 1_555
H39 C42 1_555 1_555
H40 C42 1_555 1_555
C43 H41 1_555 1_555
H42 C43 1_555 1_555
H43 C43 1_555 1_555
C44 C40 1_555 1_555
H44 C44 1_555 1_555
H45 C44 1_555 1_555
H46 C44 1_555 1_555
C45 C40 1_555 1_555
H47 C45 1_555 1_555
H48 C45 1_555 1_555
H49 C45 1_555 1_555
C46 C40 1_555 1_555
H50 C46 1_555 1_555
H51 C46 1_555 1_555
H52 C46 1_555 1_555
C47 C39 1_555 1_555
H53 C47 1_555 1_555
H54 C47 1_555 1_555
H55 C47 1_555 1_555
C48 C39 1_555 1_555
H56 C48 1_555 1_555
H57 C48 1_555 1_555
H58 C48 1_555 1_555
C49 C39 1_555 1_555
H59 C49 1_555 1_555
H60 C49 1_555 1_555
H61 C49 1_555 1_555
C50 C25 1_555 1_555
C51 H62 1_555 1_555
H63 C51 1_555 1_555
H64 C51 1_555 1_555
C52 H65 1_555 1_555
H66 C52 1_555 1_555
H67 C52 1_555 1_555
C53 C15 1_555 1_555
C54 C53 1_555 1_555
H68 C54 1_555 1_555
H69 C54 1_555 1_555
H70 C54 1_555 1_555
P1 F1 1_555 1_555
F2 P1 1_555 1_555
F3 P1 1_555 1_555
P2 F4 1_555 1_555
F5 P2 1_555 1_555
F6 P2 1_555 1_555
C55 H71 1_555 1_555
H72 C55 1_555 1_555
H73 C55 1_555 1_555
O1 C55 1_555 1_555
H74 O1 1_555 1_555
Co1F N1F 1_555 1_555
Fe1F C2 1_555 1_555
N1F C1F 1_555 1_555
N2F Co1F 1_555 1_555
N3F C3F 1_555 1_555
N4F Fe1F 1_555 1_555
N5F N4F 1_555 1_555
N6F Fe1F 1_555 1_555
N7F N6F 1_555 1_555
N8F Fe1F 1_555 1_555
N9F N8F 1_555 1_555
N10F Co1F 1_555 1_555
N11F Co1F 1_555 1_555
N12F Co1F 1_555 1_555
N13F Co1F 1_555 1_555
C1F Fe1F 1_555 1_555
C2F Fe1 1_555 1_555
C3F Fe1F 1_555 1_555
C4F N4F 1_555 1_555
C5F C4F 1_555 1_555
H1F C5F 1_555 1_555
C6F N5F 1_555 1_555
C7F N6F 1_555 1_555
C8F C7F 1_555 1_555
H2F C8F 1_555 1_555
C9F N7F 1_555 1_555
C10F N8F 1_555 1_555
C11F C10F 1_555 1_555
H3F C11F 1_555 1_555
C12F N9F 1_555 1_555
C13F N10F 1_555 1_555
H4F C13F 1_555 1_555
C14F C13F 1_555 1_555
H5F C14F 1_555 1_555
C15F C14F 1_555 1_555
C16F C15F 1_555 1_555
H6F C16F 1_555 1_555
C17F N10F 1_555 1_555
C18F N11F 1_555 1_555
C19F C18F 1_555 1_555
H7F C19F 1_555 1_555
C20F C19F 1_555 1_555
C21F C20F 1_555 1_555
H8F C21F 1_555 1_555
C22F N11F 1_555 1_555
H9F C22F 1_555 1_555
C23F N12F 1_555 1_555
H10F C23F 1_555 1_555
C24F C23F 1_555 1_555
H11F C24F 1_555 1_555
C25F C24F 1_555 1_555
C26F C25F 1_555 1_555
H12F C26F 1_555 1_555
C27F N12F 1_555 1_555
C28F N13F 1_555 1_555
C29F C28F 1_555 1_555
H13F C29F 1_555 1_555
C30F C29F 1_555 1_555
C31F C30F 1_555 1_555
H14F C31F 1_555 1_555
C32F N13F 1_555 1_555
H15F C32F 1_555 1_555
C33F C4F 1_555 1_555
H16F C33F 1_555 1_555
H17F C33F 1_555 1_555
H18F C33F 1_555 1_555
C34F C6F 1_555 1_555
H19F C34F 1_555 1_555
H20F C34F 1_555 1_555
H21F C34F 1_555 1_555
C35F C7F 1_555 1_555
H22F C35F 1_555 1_555
H23F C35F 1_555 1_555
H24F C35F 1_555 1_555
C36F C9F 1_555 1_555
H25F C36F 1_555 1_555
H26F C36F 1_555 1_555
H27F C36F 1_555 1_555
C37F C10F 1_555 1_555
H28F C37F 1_555 1_555
H29F C37F 1_555 1_555
H30F C37F 1_555 1_555
C38F C12F 1_555 1_555
H31F C38F 1_555 1_555
H32F C38F 1_555 1_555
H33F C38F 1_555 1_555
C39F C20F 1_555 1_555
C40F C30F 1_555 1_555
B1F N5F 1_555 1_555
H34F B1F 1_555 1_555
C41F H35F 1_555 1_555
H36F C41F 1_555 1_555
H37F C41F 1_555 1_555
C42F H38F 1_555 1_555
H39F C42F 1_555 1_555
H40F C42F 1_555 1_555
C43F H41F 1_555 1_555
H42F C43F 1_555 1_555
H43F C43F 1_555 1_555
C44F C40F 1_555 1_555
H44F C44F 1_555 1_555
H45F C44F 1_555 1_555
H46F C44F 1_555 1_555
C45F C40F 1_555 1_555
H47F C45F 1_555 1_555
H48F C45F 1_555 1_555
H49F C45F 1_555 1_555
C46F C40F 1_555 1_555
H50F C46F 1_555 1_555
H51F C46F 1_555 1_555
H52F C46F 1_555 1_555
C47F C39F 1_555 1_555
H53F C47F 1_555 1_555
H54F C47F 1_555 1_555
H55F C47F 1_555 1_555
C48F C39F 1_555 1_555
H56F C48F 1_555 1_555
H57F C48F 1_555 1_555
H58F C48F 1_555 1_555
C49F C39F 1_555 1_555
H59F C49F 1_555 1_555
H60F C49F 1_555 1_555
H61F C49F 1_555 1_555
C50F C25F 1_555 1_555
C51F H62F 1_555 1_555
H63F C51F 1_555 1_555
H64F C51F 1_555 1_555
C52F H65F 1_555 1_555
H66F C52F 1_555 1_555
H67F C52F 1_555 1_555
C53F C15F 1_555 1_555
C54F C53F 1_555 1_555
H68F C54F 1_555 1_555
H69F C54F 1_555 1_555
H70F C54F 1_555 1_555
F1F P1 1_555 1_555
F2F P1 1_555 1_555
F3F P1 1_555 1_555
F4A P2 1_555 1_555
F5A P2 1_555 1_555
F6A P2 1_555 1_555
N7 B1 1_555 1_555
N9 B1 1_555 1_555
C8 C9 1_555 1_555
C11 C12 1_555 1_555
C16 C17 1_555 1_555
C17 C18 1_555 1_555
C21 C22 1_555 1_555
C26 C27 1_555 1_555
C27 C28 1_555 1_555
C31 C32 1_555 1_555
C41 C50 1_555 1_555
C42 C50 1_555 1_555
C43 C50 1_555 1_555
C51 C53 1_555 1_555
C52 C53 1_555 1_555
N2F C2F 1_555 1_555
N7F B1F 1_555 1_555
N9F B1F 1_555 1_555
C5F C6F 1_555 1_555
C8F C9F 1_555 1_555
C11F C12F 1_555 1_555
C16F C17F 1_555 1_555
C17F C18F 1_555 1_555
C21F C22F 1_555 1_555
C26F C27F 1_555 1_555
C27F C28F 1_555 1_555
C31F C32F 1_555 1_555
C41F C50F 1_555 1_555
C42F C50F 1_555 1_555
C43F C50F 1_555 1_555
C51F C53F 1_555 1_555
C52F C53F 1_555 1_555

#END
