# generated using pymatgen
data_Fe3Co3B3P4H298C190N39(OF6)4
_symmetry_space_group_name_H-M   'P 1'
_cell_length_a   29.95960000
_cell_length_b   38.65590000
_cell_length_c   46.29511483
_cell_angle_alpha   90.00000000
_cell_angle_beta   102.39566022
_cell_angle_gamma   90.00000000
_symmetry_Int_Tables_number   1
_chemical_formula_structural   Fe3Co3B3P4H298C190N39(OF6)4
_chemical_formula_sum   'Fe24 Co24 B24 P32 H2384 C1520 N312 O32 F192'
_cell_volume   52365.23507761
_cell_formula_units_Z   8
loop_
 _symmetry_equiv_pos_site_id
 _symmetry_equiv_pos_as_xyz
  1  'x, y, z'
loop_
 _atom_site_type_symbol
 _atom_site_label
 _atom_site_symmetry_multiplicity
 _atom_site_fract_x
 _atom_site_fract_y
 _atom_site_fract_z
 _atom_site_occupancy
  Fe  Fe1  1  0.441960  0.464420  0.927300  1.0
  Fe  Fe2  1  0.058040  0.464420  0.072700  1.0
  Fe  Fe3  1  0.941960  0.964420  0.427300  1.0
  Fe  Fe4  1  0.558040  0.964420  0.572700  1.0
  Fe  Fe5  1  0.558040  0.535580  0.072700  1.0
  Fe  Fe6  1  0.941960  0.535580  0.927300  1.0
  Fe  Fe7  1  0.058040  0.035580  0.572700  1.0
  Fe  Fe8  1  0.441960  0.035580  0.427300  1.0
  Fe  Fe9  1  0.940550  0.041640  0.927680  1.0
  Fe  Fe10  1  0.559450  0.041640  0.072320  1.0
  Fe  Fe11  1  0.440550  0.541640  0.427680  1.0
  Fe  Fe12  1  0.059450  0.541640  0.572320  1.0
  Fe  Fe13  1  0.059450  0.958360  0.072320  1.0
  Fe  Fe14  1  0.440550  0.958360  0.927680  1.0
  Fe  Fe15  1  0.559450  0.458360  0.572320  1.0
  Fe  Fe16  1  0.940550  0.458360  0.427680  1.0
  Fe  Fe17  1  0.809570  0.791650  0.322350  1.0
  Fe  Fe18  1  0.690430  0.791650  0.677650  1.0
  Fe  Fe19  1  0.309570  0.291650  0.822350  1.0
  Fe  Fe20  1  0.190430  0.291650  0.177650  1.0
  Fe  Fe21  1  0.190430  0.208350  0.677650  1.0
  Fe  Fe22  1  0.309570  0.208350  0.322350  1.0
  Fe  Fe23  1  0.690430  0.708350  0.177650  1.0
  Fe  Fe24  1  0.809570  0.708350  0.822350  1.0
  Co  Co25  1  0.563830  0.428820  0.013930  1.0
  Co  Co26  1  0.936170  0.428820  0.986070  1.0
  Co  Co27  1  0.063830  0.928820  0.513930  1.0
  Co  Co28  1  0.436170  0.928820  0.486070  1.0
  Co  Co29  1  0.436170  0.571180  0.986070  1.0
  Co  Co30  1  0.063830  0.571180  0.013930  1.0
  Co  Co31  1  0.936170  0.071180  0.486070  1.0
  Co  Co32  1  0.563830  0.071180  0.513930  1.0
  Co  Co33  1  0.065040  0.071380  0.017410  1.0
  Co  Co34  1  0.434960  0.071380  0.982590  1.0
  Co  Co35  1  0.565040  0.571380  0.517410  1.0
  Co  Co36  1  0.934960  0.571380  0.482590  1.0
  Co  Co37  1  0.934960  0.928620  0.982590  1.0
  Co  Co38  1  0.565040  0.928620  0.017410  1.0
  Co  Co39  1  0.434960  0.428620  0.482590  1.0
  Co  Co40  1  0.065040  0.428620  0.517410  1.0
  Co  Co41  1  0.815790  0.678900  0.267210  1.0
  Co  Co42  1  0.684210  0.678900  0.732790  1.0
  Co  Co43  1  0.315790  0.178900  0.767210  1.0
  Co  Co44  1  0.184210  0.178900  0.232790  1.0
  Co  Co45  1  0.184210  0.321100  0.732790  1.0
  Co  Co46  1  0.315790  0.321100  0.267210  1.0
  Co  Co47  1  0.684210  0.821100  0.232790  1.0
  Co  Co48  1  0.815790  0.821100  0.767210  1.0
  B  B49  1  0.446400  0.442500  0.863200  1.0
  B  B50  1  0.053600  0.442500  0.136800  1.0
  B  B51  1  0.946400  0.942500  0.363200  1.0
  B  B52  1  0.553600  0.942500  0.636800  1.0
  B  B53  1  0.553600  0.557500  0.136800  1.0
  B  B54  1  0.946400  0.557500  0.863200  1.0
  B  B55  1  0.053600  0.057500  0.636800  1.0
  B  B56  1  0.446400  0.057500  0.363200  1.0
  B  B57  1  0.946300  0.067900  0.865500  1.0
  B  B58  1  0.553700  0.067900  0.134500  1.0
  B  B59  1  0.446300  0.567900  0.365500  1.0
  B  B60  1  0.053700  0.567900  0.634500  1.0
  B  B61  1  0.053700  0.932100  0.134500  1.0
  B  B62  1  0.446300  0.932100  0.865500  1.0
  B  B63  1  0.553700  0.432100  0.634500  1.0
  B  B64  1  0.946300  0.432100  0.365500  1.0
  B  B65  1  0.803600  0.816700  0.385100  1.0
  B  B66  1  0.696400  0.816700  0.614900  1.0
  B  B67  1  0.303600  0.316700  0.885100  1.0
  B  B68  1  0.196400  0.316700  0.114900  1.0
  B  B69  1  0.196400  0.183300  0.614900  1.0
  B  B70  1  0.303600  0.183300  0.385100  1.0
  B  B71  1  0.696400  0.683300  0.114900  1.0
  B  B72  1  0.803600  0.683300  0.885100  1.0
  P  P73  1  0.748590  0.497590  0.749000  1
  P  P74  1  0.751410  0.497590  0.251000  1
  P  P75  1  0.248590  0.997590  0.249000  1
  P  P76  1  0.251410  0.997590  0.751000  1
  P  P77  1  0.251410  0.502410  0.251000  1
  P  P78  1  0.248590  0.502410  0.749000  1
  P  P79  1  0.751410  0.002410  0.751000  1
  P  P80  1  0.748590  0.002410  0.249000  1
  P  P81  1  0.750000  0.876100  0.000000  1
  P  P82  1  0.250000  0.376100  0.500000  1
  P  P83  1  0.250000  0.123900  1.000000  1
  P  P84  1  0.750000  0.623900  0.500000  1
  P  P85  1  0.750000  0.382500  0.000000  1
  P  P86  1  0.250000  0.882500  0.500000  1
  P  P87  1  0.250000  0.617500  1.000000  1
  P  P88  1  0.750000  0.117500  0.500000  1
  P  P89  1  0.500300  0.752490  0.501090  1
  P  P90  1  0.999700  0.752490  0.498910  1
  P  P91  1  0.000300  0.252490  0.001090  1
  P  P92  1  0.499700  0.252490  0.998910  1
  P  P93  1  0.499700  0.247510  0.498910  1
  P  P94  1  0.000300  0.247510  0.501090  1
  P  P95  1  0.999700  0.747510  0.998910  1
  P  P96  1  0.500300  0.747510  0.001090  1
  P  P97  1  0.496950  0.629400  0.748420  1
  P  P98  1  0.003050  0.629400  0.251580  1
  P  P99  1  0.996950  0.129400  0.248420  1
  P  P100  1  0.503050  0.129400  0.751580  1
  P  P101  1  0.503050  0.370600  0.251580  1
  P  P102  1  0.996950  0.370600  0.748420  1
  P  P103  1  0.003050  0.870600  0.751580  1
  P  P104  1  0.496950  0.870600  0.248420  1
  H  H105  1  0.318900  0.419800  0.004800  1
  H  H106  1  0.181100  0.419800  0.995200  1
  H  H107  1  0.818900  0.919800  0.504800  1
  H  H108  1  0.681100  0.919800  0.495200  1
  H  H109  1  0.681100  0.580200  0.995200  1
  H  H110  1  0.818900  0.580200  0.004800  1
  H  H111  1  0.181100  0.080200  0.495200  1
  H  H112  1  0.318900  0.080200  0.504800  1
  H  H113  1  0.302300  0.363400  0.000000  1
  H  H114  1  0.197700  0.363400  0.000000  1
  H  H115  1  0.802300  0.863400  0.500000  1
  H  H116  1  0.697700  0.863400  0.500000  1
  H  H117  1  0.697700  0.636600  0.000000  1
  H  H118  1  0.802300  0.636600  0.000000  1
  H  H119  1  0.197700  0.136600  0.500000  1
  H  H120  1  0.302300  0.136600  0.500000  1
  H  H121  1  0.331100  0.367800  0.975700  1
  H  H122  1  0.168900  0.367800  0.024300  1
  H  H123  1  0.831100  0.867800  0.475700  1
  H  H124  1  0.668900  0.867800  0.524300  1
  H  H125  1  0.668900  0.632200  0.024300  1
  H  H126  1  0.831100  0.632200  0.975700  1
  H  H127  1  0.168900  0.132200  0.524300  1
  H  H128  1  0.331100  0.132200  0.475700  1
  H  H129  1  0.286300  0.389400  0.973900  1
  H  H130  1  0.213700  0.389400  0.026100  1
  H  H131  1  0.786300  0.889400  0.473900  1
  H  H132  1  0.713700  0.889400  0.526100  1
  H  H133  1  0.713700  0.610600  0.026100  1
  H  H134  1  0.786300  0.610600  0.973900  1
  H  H135  1  0.213700  0.110600  0.526100  1
  H  H136  1  0.286300  0.110600  0.473900  1
  H  H137  1  0.111700  0.648900  0.758400  1
  H  H138  1  0.388300  0.648900  0.241600  1
  H  H139  1  0.611700  0.148900  0.258400  1
  H  H140  1  0.888300  0.148900  0.741600  1
  H  H141  1  0.888300  0.351100  0.241600  1
  H  H142  1  0.611700  0.351100  0.758400  1
  H  H143  1  0.388300  0.851100  0.741600  1
  H  H144  1  0.111700  0.851100  0.258400  1
  H  H145  1  0.036800  0.637500  0.721300  1
  H  H146  1  0.463200  0.637500  0.278700  1
  H  H147  1  0.536800  0.137500  0.221300  1
  H  H148  1  0.963200  0.137500  0.778700  1
  H  H149  1  0.963200  0.362500  0.278700  1
  H  H150  1  0.536800  0.362500  0.721300  1
  H  H151  1  0.463200  0.862500  0.778700  1
  H  H152  1  0.036800  0.862500  0.221300  1
  H  H153  1  0.047800  0.614200  0.749600  1
  H  H154  1  0.452200  0.614200  0.250400  1
  H  H155  1  0.547800  0.114200  0.249600  1
  H  H156  1  0.952200  0.114200  0.750400  1
  H  H157  1  0.952200  0.385800  0.250400  1
  H  H158  1  0.547800  0.385800  0.749600  1
  H  H159  1  0.452200  0.885800  0.750400  1
  H  H160  1  0.047800  0.885800  0.249600  1
  H  H161  1  0.080800  0.614500  0.727500  1
  H  H162  1  0.419200  0.614500  0.272500  1
  H  H163  1  0.580800  0.114500  0.227500  1
  H  H164  1  0.919200  0.114500  0.772500  1
  H  H165  1  0.919200  0.385500  0.272500  1
  H  H166  1  0.580800  0.385500  0.727500  1
  H  H167  1  0.419200  0.885500  0.772500  1
  H  H168  1  0.080800  0.885500  0.227500  1
  H  H169  1  0.888700  0.648700  0.737000  1
  H  H170  1  0.611300  0.648700  0.263000  1
  H  H171  1  0.388700  0.148700  0.237000  1
  H  H172  1  0.111300  0.148700  0.763000  1
  H  H173  1  0.111300  0.351300  0.263000  1
  H  H174  1  0.388700  0.351300  0.737000  1
  H  H175  1  0.611300  0.851300  0.763000  1
  H  H176  1  0.888700  0.851300  0.237000  1
  H  H177  1  0.919300  0.615400  0.773200  1
  H  H178  1  0.580700  0.615400  0.226800  1
  H  H179  1  0.419300  0.115400  0.273200  1
  H  H180  1  0.080700  0.115400  0.726800  1
  H  H181  1  0.080700  0.384600  0.226800  1
  H  H182  1  0.419300  0.384600  0.773200  1
  H  H183  1  0.580700  0.884600  0.726800  1
  H  H184  1  0.919300  0.884600  0.273200  1
  H  H185  1  0.966800  0.628700  0.768800  1
  H  H186  1  0.533200  0.628700  0.231200  1
  H  H187  1  0.466800  0.128700  0.268800  1
  H  H188  1  0.033200  0.128700  0.731200  1
  H  H189  1  0.033200  0.371300  0.231200  1
  H  H190  1  0.466800  0.371300  0.768800  1
  H  H191  1  0.533200  0.871300  0.731200  1
  H  H192  1  0.966800  0.871300  0.268800  1
  H  H193  1  0.936200  0.605700  0.744500  1
  H  H194  1  0.563800  0.605700  0.255500  1
  H  H195  1  0.436200  0.105700  0.244500  1
  H  H196  1  0.063800  0.105700  0.755500  1
  H  H197  1  0.063800  0.394300  0.255500  1
  H  H198  1  0.436200  0.394300  0.744500  1
  H  H199  1  0.563800  0.894300  0.755500  1
  H  H200  1  0.936200  0.894300  0.244500  1
  H  H201  1  0.863600  0.101300  0.011500  1
  H  H202  1  0.636400  0.101300  0.988500  1
  H  H203  1  0.363600  0.601300  0.511500  1
  H  H204  1  0.136400  0.601300  0.488500  1
  H  H205  1  0.136400  0.898700  0.988500  1
  H  H206  1  0.363600  0.898700  0.011500  1
  H  H207  1  0.636400  0.398700  0.488500  1
  H  H208  1  0.863600  0.398700  0.511500  1
  H  H209  1  0.821200  0.131200  0.971700  1
  H  H210  1  0.678800  0.131200  0.028300  1
  H  H211  1  0.321200  0.631200  0.471700  1
  H  H212  1  0.178800  0.631200  0.528300  1
  H  H213  1  0.178800  0.868800  0.028300  1
  H  H214  1  0.321200  0.868800  0.971700  1
  H  H215  1  0.678800  0.368800  0.528300  1
  H  H216  1  0.821200  0.368800  0.471700  1
  H  H217  1  0.823300  0.148200  0.002600  1
  H  H218  1  0.676700  0.148200  0.997400  1
  H  H219  1  0.323300  0.648200  0.502600  1
  H  H220  1  0.176700  0.648200  0.497400  1
  H  H221  1  0.176700  0.851800  0.997400  1
  H  H222  1  0.323300  0.851800  0.002600  1
  H  H223  1  0.676700  0.351800  0.497400  1
  H  H224  1  0.823300  0.351800  0.502600  1
  H  H225  1  0.780900  0.125700  0.988000  1
  H  H226  1  0.719100  0.125700  0.012000  1
  H  H227  1  0.280900  0.625700  0.488000  1
  H  H228  1  0.219100  0.625700  0.512000  1
  H  H229  1  0.219100  0.874300  0.012000  1
  H  H230  1  0.280900  0.874300  0.988000  1
  H  H231  1  0.719100  0.374300  0.512000  1
  H  H232  1  0.780900  0.374300  0.488000  1
  H  H233  1  0.672000  0.291300  0.086000  1
  H  H234  1  0.828000  0.291300  0.914000  1
  H  H235  1  0.172000  0.791300  0.586000  1
  H  H236  1  0.328000  0.791300  0.414000  1
  H  H237  1  0.328000  0.708700  0.914000  1
  H  H238  1  0.172000  0.708700  0.086000  1
  H  H239  1  0.828000  0.208700  0.414000  1
  H  H240  1  0.672000  0.208700  0.586000  1
  H  H241  1  0.714800  0.289500  0.112300  1
  H  H242  1  0.785200  0.289500  0.887700  1
  H  H243  1  0.214800  0.789500  0.612300  1
  H  H244  1  0.285200  0.789500  0.387700  1
  H  H245  1  0.285200  0.710500  0.887700  1
  H  H246  1  0.214800  0.710500  0.112300  1
  H  H247  1  0.785200  0.210500  0.387700  1
  H  H248  1  0.714800  0.210500  0.612300  1
  H  H249  1  0.720800  0.299200  0.080500  1
  H  H250  1  0.779200  0.299200  0.919500  1
  H  H251  1  0.220800  0.799200  0.580500  1
  H  H252  1  0.279200  0.799200  0.419500  1
  H  H253  1  0.279200  0.700800  0.919500  1
  H  H254  1  0.220800  0.700800  0.080500  1
  H  H255  1  0.779200  0.200800  0.419500  1
  H  H256  1  0.720800  0.200800  0.580500  1
  H  H257  1  0.749900  0.331800  0.134200  1
  H  H258  1  0.750100  0.331800  0.865800  1
  H  H259  1  0.249900  0.831800  0.634200  1
  H  H260  1  0.250100  0.831800  0.365800  1
  H  H261  1  0.250100  0.668200  0.865800  1
  H  H262  1  0.249900  0.668200  0.134200  1
  H  H263  1  0.750100  0.168200  0.365800  1
  H  H264  1  0.749900  0.168200  0.634200  1
  H  H265  1  0.719400  0.365100  0.130400  1
  H  H266  1  0.780600  0.365100  0.869600  1
  H  H267  1  0.219400  0.865100  0.630400  1
  H  H268  1  0.280600  0.865100  0.369600  1
  H  H269  1  0.280600  0.634900  0.869600  1
  H  H270  1  0.219400  0.634900  0.130400  1
  H  H271  1  0.780600  0.134900  0.369600  1
  H  H272  1  0.719400  0.134900  0.630400  1
  H  H273  1  0.753400  0.358800  0.109500  1
  H  H274  1  0.746600  0.358800  0.890500  1
  H  H275  1  0.253400  0.858800  0.609500  1
  H  H276  1  0.246600  0.858800  0.390500  1
  H  H277  1  0.246600  0.641200  0.890500  1
  H  H278  1  0.253400  0.641200  0.109500  1
  H  H279  1  0.746600  0.141200  0.390500  1
  H  H280  1  0.753400  0.141200  0.609500  1
  H  H281  1  0.894300  0.168600  0.104700  1
  H  H282  1  0.605700  0.168600  0.895300  1
  H  H283  1  0.394300  0.668600  0.604700  1
  H  H284  1  0.105700  0.668600  0.395300  1
  H  H285  1  0.105700  0.831400  0.895300  1
  H  H286  1  0.394300  0.831400  0.104700  1
  H  H287  1  0.605700  0.331400  0.395300  1
  H  H288  1  0.894300  0.331400  0.604700  1
  H  H289  1  0.945500  0.167000  0.121500  1
  H  H290  1  0.554500  0.167000  0.878500  1
  H  H291  1  0.445500  0.667000  0.621500  1
  H  H292  1  0.054500  0.667000  0.378500  1
  H  H293  1  0.054500  0.833000  0.878500  1
  H  H294  1  0.445500  0.833000  0.121500  1
  H  H295  1  0.554500  0.333000  0.378500  1
  H  H296  1  0.945500  0.333000  0.621500  1
  H  H297  1  0.922300  0.134400  0.104500  1
  H  H298  1  0.577700  0.134400  0.895500  1
  H  H299  1  0.422300  0.634400  0.604500  1
  H  H300  1  0.077700  0.634400  0.395500  1
  H  H301  1  0.077700  0.865600  0.895500  1
  H  H302  1  0.422300  0.865600  0.104500  1
  H  H303  1  0.577700  0.365600  0.395500  1
  H  H304  1  0.922300  0.365600  0.604500  1
  H  H305  1  0.975500  0.202000  0.076100  1
  H  H306  1  0.524500  0.202000  0.923900  1
  H  H307  1  0.475500  0.702000  0.576100  1
  H  H308  1  0.024500  0.702000  0.423900  1
  H  H309  1  0.024500  0.798000  0.923900  1
  H  H310  1  0.475500  0.798000  0.076100  1
  H  H311  1  0.524500  0.298000  0.423900  1
  H  H312  1  0.975500  0.298000  0.576100  1
  H  H313  1  0.963200  0.189300  0.105600  1
  H  H314  1  0.536800  0.189300  0.894400  1
  H  H315  1  0.463200  0.689300  0.605600  1
  H  H316  1  0.036800  0.689300  0.394400  1
  H  H317  1  0.036800  0.810700  0.894400  1
  H  H318  1  0.463200  0.810700  0.105600  1
  H  H319  1  0.536800  0.310700  0.394400  1
  H  H320  1  0.963200  0.310700  0.605600  1
  H  H321  1  0.927400  0.210400  0.082600  1
  H  H322  1  0.572600  0.210400  0.917400  1
  H  H323  1  0.427400  0.710400  0.582600  1
  H  H324  1  0.072600  0.710400  0.417400  1
  H  H325  1  0.072600  0.789600  0.917400  1
  H  H326  1  0.427400  0.789600  0.082600  1
  H  H327  1  0.572600  0.289600  0.417400  1
  H  H328  1  0.927400  0.289600  0.582600  1
  H  H329  1  0.150900  0.997000  0.908200  1
  H  H330  1  0.349100  0.997000  0.091800  1
  H  H331  1  0.650900  0.497000  0.408200  1
  H  H332  1  0.849100  0.497000  0.591800  1
  H  H333  1  0.849100  0.003000  0.091800  1
  H  H334  1  0.650900  0.003000  0.908200  1
  H  H335  1  0.349100  0.503000  0.591800  1
  H  H336  1  0.150900  0.503000  0.408200  1
  H  H337  1  0.200100  0.989500  0.903100  1
  H  H338  1  0.299900  0.989500  0.096900  1
  H  H339  1  0.700100  0.489500  0.403100  1
  H  H340  1  0.799900  0.489500  0.596900  1
  H  H341  1  0.799900  0.010500  0.096900  1
  H  H342  1  0.700100  0.010500  0.903100  1
  H  H343  1  0.299900  0.510500  0.596900  1
  H  H344  1  0.200100  0.510500  0.403100  1
  H  H345  1  0.184000  0.027700  0.905500  1
  H  H346  1  0.316000  0.027700  0.094500  1
  H  H347  1  0.684000  0.527700  0.405500  1
  H  H348  1  0.816000  0.527700  0.594500  1
  H  H349  1  0.816000  0.972300  0.094500  1
  H  H350  1  0.684000  0.972300  0.905500  1
  H  H351  1  0.316000  0.472300  0.594500  1
  H  H352  1  0.184000  0.472300  0.405500  1
  H  H353  1  0.243100  0.998200  0.979200  1
  H  H354  1  0.256900  0.998200  0.020800  1
  H  H355  1  0.743100  0.498200  0.479200  1
  H  H356  1  0.756900  0.498200  0.520800  1
  H  H357  1  0.756900  0.001800  0.020800  1
  H  H358  1  0.743100  0.001800  0.979200  1
  H  H359  1  0.256900  0.501800  0.520800  1
  H  H360  1  0.243100  0.501800  0.479200  1
  H  H361  1  0.262500  0.015600  0.953900  1
  H  H362  1  0.237500  0.015600  0.046100  1
  H  H363  1  0.762500  0.515600  0.453900  1
  H  H364  1  0.737500  0.515600  0.546100  1
  H  H365  1  0.737500  0.984400  0.046100  1
  H  H366  1  0.762500  0.984400  0.953900  1
  H  H367  1  0.237500  0.484400  0.546100  1
  H  H368  1  0.262500  0.484400  0.453900  1
  H  H369  1  0.253000  0.975800  0.953100  1
  H  H370  1  0.247000  0.975800  0.046900  1
  H  H371  1  0.753000  0.475800  0.453100  1
  H  H372  1  0.747000  0.475800  0.546900  1
  H  H373  1  0.747000  0.024200  0.046900  1
  H  H374  1  0.753000  0.024200  0.953100  1
  H  H375  1  0.247000  0.524200  0.546900  1
  H  H376  1  0.253000  0.524200  0.453100  1
  H  H377  1  0.189400  0.956500  0.914700  1
  H  H378  1  0.310600  0.956500  0.085300  1
  H  H379  1  0.689400  0.456500  0.414700  1
  H  H380  1  0.810600  0.456500  0.585300  1
  H  H381  1  0.810600  0.043500  0.085300  1
  H  H382  1  0.689400  0.043500  0.914700  1
  H  H383  1  0.310600  0.543500  0.585300  1
  H  H384  1  0.189400  0.543500  0.414700  1
  H  H385  1  0.146600  0.962900  0.928400  1
  H  H386  1  0.353400  0.962900  0.071600  1
  H  H387  1  0.646600  0.462900  0.428400  1
  H  H388  1  0.853400  0.462900  0.571600  1
  H  H389  1  0.853400  0.037100  0.071600  1
  H  H390  1  0.646600  0.037100  0.928400  1
  H  H391  1  0.353400  0.537100  0.571600  1
  H  H392  1  0.146600  0.537100  0.428400  1
  H  H393  1  0.191100  0.947000  0.947800  1
  H  H394  1  0.308900  0.947000  0.052200  1
  H  H395  1  0.691100  0.447000  0.447800  1
  H  H396  1  0.808900  0.447000  0.552200  1
  H  H397  1  0.808900  0.053000  0.052200  1
  H  H398  1  0.691100  0.053000  0.947800  1
  H  H399  1  0.308900  0.553000  0.552200  1
  H  H400  1  0.191100  0.553000  0.447800  1
  H  H401  1  0.120900  0.218900  0.915100  1
  H  H402  1  0.379100  0.218900  0.084900  1
  H  H403  1  0.620900  0.718900  0.415100  1
  H  H404  1  0.879100  0.718900  0.584900  1
  H  H405  1  0.879100  0.781100  0.084900  1
  H  H406  1  0.620900  0.781100  0.915100  1
  H  H407  1  0.379100  0.281100  0.584900  1
  H  H408  1  0.120900  0.281100  0.415100  1
  H  H409  1  0.027600  0.188900  0.900300  1
  H  H410  1  0.472400  0.188900  0.099700  1
  H  H411  1  0.527600  0.688900  0.400300  1
  H  H412  1  0.972400  0.688900  0.599700  1
  H  H413  1  0.972400  0.811100  0.099700  1
  H  H414  1  0.527600  0.811100  0.900300  1
  H  H415  1  0.472400  0.311100  0.599700  1
  H  H416  1  0.027600  0.311100  0.400300  1
  H  H417  1  0.133800  0.188700  0.890400  1
  H  H418  1  0.366200  0.188700  0.109600  1
  H  H419  1  0.633800  0.688700  0.390400  1
  H  H420  1  0.866200  0.688700  0.609600  1
  H  H421  1  0.866200  0.811300  0.109600  1
  H  H422  1  0.633800  0.811300  0.890400  1
  H  H423  1  0.366200  0.311300  0.609600  1
  H  H424  1  0.133800  0.311300  0.390400  1
  H  H425  1  0.130100  0.149100  0.896600  1
  H  H426  1  0.369900  0.149100  0.103400  1
  H  H427  1  0.630100  0.649100  0.396600  1
  H  H428  1  0.869900  0.649100  0.603400  1
  H  H429  1  0.869900  0.850900  0.103400  1
  H  H430  1  0.630100  0.850900  0.896600  1
  H  H431  1  0.369900  0.350900  0.603400  1
  H  H432  1  0.130100  0.350900  0.396600  1
  H  H433  1  0.160500  0.172900  0.920300  1
  H  H434  1  0.339500  0.172900  0.079700  1
  H  H435  1  0.660500  0.672900  0.420300  1
  H  H436  1  0.839500  0.672900  0.579700  1
  H  H437  1  0.839500  0.827100  0.079700  1
  H  H438  1  0.660500  0.827100  0.920300  1
  H  H439  1  0.339500  0.327100  0.579700  1
  H  H440  1  0.160500  0.327100  0.420300  1
  H  H441  1  0.154700  0.198700  0.941600  1
  H  H442  1  0.345300  0.198700  0.058400  1
  H  H443  1  0.654700  0.698700  0.441600  1
  H  H444  1  0.845300  0.698700  0.558400  1
  H  H445  1  0.845300  0.801300  0.058400  1
  H  H446  1  0.654700  0.801300  0.941600  1
  H  H447  1  0.345300  0.301300  0.558400  1
  H  H448  1  0.154700  0.301300  0.441600  1
  H  H449  1  0.116200  0.198600  0.959800  1
  H  H450  1  0.383800  0.198600  0.040200  1
  H  H451  1  0.616200  0.698600  0.459800  1
  H  H452  1  0.883800  0.698600  0.540200  1
  H  H453  1  0.883800  0.801400  0.040200  1
  H  H454  1  0.616200  0.801400  0.959800  1
  H  H455  1  0.383800  0.301400  0.540200  1
  H  H456  1  0.116200  0.301400  0.459800  1
  H  H457  1  0.115200  0.226100  0.934800  1
  H  H458  1  0.384800  0.226100  0.065200  1
  H  H459  1  0.615200  0.726100  0.434800  1
  H  H460  1  0.884800  0.726100  0.565200  1
  H  H461  1  0.884800  0.773900  0.065200  1
  H  H462  1  0.615200  0.773900  0.934800  1
  H  H463  1  0.384800  0.273900  0.565200  1
  H  H464  1  0.115200  0.273900  0.434800  1
  H  H465  1  0.066100  0.217300  0.888200  1
  H  H466  1  0.433900  0.217300  0.111800  1
  H  H467  1  0.566100  0.717300  0.388200  1
  H  H468  1  0.933900  0.717300  0.611800  1
  H  H469  1  0.933900  0.782700  0.111800  1
  H  H470  1  0.566100  0.782700  0.888200  1
  H  H471  1  0.433900  0.282700  0.611800  1
  H  H472  1  0.066100  0.282700  0.388200  1
  H  H473  1  0.110400  0.230000  0.910300  1
  H  H474  1  0.389600  0.230000  0.089700  1
  H  H475  1  0.610400  0.730000  0.410300  1
  H  H476  1  0.889600  0.730000  0.589700  1
  H  H477  1  0.889600  0.770000  0.089700  1
  H  H478  1  0.610400  0.770000  0.910300  1
  H  H479  1  0.389600  0.270000  0.589700  1
  H  H480  1  0.110400  0.270000  0.410300  1
  H  H481  1  0.064100  0.227000  0.920800  1
  H  H482  1  0.435900  0.227000  0.079200  1
  H  H483  1  0.564100  0.727000  0.420800  1
  H  H484  1  0.935900  0.727000  0.579200  1
  H  H485  1  0.935900  0.773000  0.079200  1
  H  H486  1  0.564100  0.773000  0.920800  1
  H  H487  1  0.435900  0.273000  0.579200  1
  H  H488  1  0.064100  0.273000  0.420800  1
  H  H489  1  0.012800  0.583200  0.368100  1
  H  H490  1  0.487200  0.583200  0.631900  1
  H  H491  1  0.512800  0.083200  0.868100  1
  H  H492  1  0.987200  0.083200  0.131900  1
  H  H493  1  0.987200  0.416800  0.631900  1
  H  H494  1  0.512800  0.416800  0.368100  1
  H  H495  1  0.487200  0.916800  0.131900  1
  H  H496  1  0.012800  0.916800  0.868100  1
  H  H497  1  0.983400  0.575000  0.391500  1
  H  H498  1  0.516600  0.575000  0.608500  1
  H  H499  1  0.483400  0.075000  0.891500  1
  H  H500  1  0.016600  0.075000  0.108500  1
  H  H501  1  0.016600  0.425000  0.608500  1
  H  H502  1  0.483400  0.425000  0.391500  1
  H  H503  1  0.516600  0.925000  0.108500  1
  H  H504  1  0.983400  0.925000  0.891500  1
  H  H505  1  0.978500  0.610900  0.375300  1
  H  H506  1  0.521500  0.610900  0.624700  1
  H  H507  1  0.478500  0.110900  0.875300  1
  H  H508  1  0.021500  0.110900  0.124700  1
  H  H509  1  0.021500  0.389100  0.624700  1
  H  H510  1  0.478500  0.389100  0.375300  1
  H  H511  1  0.521500  0.889100  0.124700  1
  H  H512  1  0.978500  0.889100  0.875300  1
  H  H513  1  0.951200  0.544000  0.321100  1
  H  H514  1  0.548800  0.544000  0.678900  1
  H  H515  1  0.451200  0.044000  0.821100  1
  H  H516  1  0.048800  0.044000  0.178900  1
  H  H517  1  0.048800  0.456000  0.678900  1
  H  H518  1  0.451200  0.456000  0.321100  1
  H  H519  1  0.548800  0.956000  0.178900  1
  H  H520  1  0.951200  0.956000  0.821100  1
  H  H521  1  0.911800  0.537800  0.338000  1
  H  H522  1  0.588200  0.537800  0.662000  1
  H  H523  1  0.411800  0.037800  0.838000  1
  H  H524  1  0.088200  0.037800  0.162000  1
  H  H525  1  0.088200  0.462200  0.662000  1
  H  H526  1  0.411800  0.462200  0.338000  1
  H  H527  1  0.588200  0.962200  0.162000  1
  H  H528  1  0.911800  0.962200  0.838000  1
  H  H529  1  0.962200  0.527600  0.352900  1
  H  H530  1  0.537800  0.527600  0.647100  1
  H  H531  1  0.462200  0.027600  0.852900  1
  H  H532  1  0.037800  0.027600  0.147100  1
  H  H533  1  0.037800  0.472400  0.647100  1
  H  H534  1  0.462200  0.472400  0.352900  1
  H  H535  1  0.537800  0.972400  0.147100  1
  H  H536  1  0.962200  0.972400  0.852900  1
  H  H537  1  0.862300  0.567400  0.135300  1
  H  H538  1  0.637700  0.567400  0.864700  1
  H  H539  1  0.362300  0.067400  0.635300  1
  H  H540  1  0.137700  0.067400  0.364700  1
  H  H541  1  0.137700  0.432600  0.864700  1
  H  H542  1  0.362300  0.432600  0.135300  1
  H  H543  1  0.637700  0.932600  0.364700  1
  H  H544  1  0.862300  0.932600  0.635300  1
  H  H545  1  0.896500  0.553800  0.163500  1
  H  H546  1  0.603500  0.553800  0.836500  1
  H  H547  1  0.396500  0.053800  0.663500  1
  H  H548  1  0.103500  0.053800  0.336500  1
  H  H549  1  0.103500  0.446200  0.836500  1
  H  H550  1  0.396500  0.446200  0.163500  1
  H  H551  1  0.603500  0.946200  0.336500  1
  H  H552  1  0.896500  0.946200  0.663500  1
  H  H553  1  0.890500  0.593600  0.157900  1
  H  H554  1  0.609500  0.593600  0.842100  1
  H  H555  1  0.390500  0.093600  0.657900  1
  H  H556  1  0.109500  0.093600  0.342100  1
  H  H557  1  0.109500  0.406400  0.842100  1
  H  H558  1  0.390500  0.406400  0.157900  1
  H  H559  1  0.609500  0.906400  0.342100  1
  H  H560  1  0.890500  0.906400  0.657900  1
  H  H561  1  0.901000  0.539400  0.177500  1
  H  H562  1  0.599000  0.539400  0.822500  1
  H  H563  1  0.401000  0.039400  0.677500  1
  H  H564  1  0.099000  0.039400  0.322500  1
  H  H565  1  0.099000  0.460600  0.822500  1
  H  H566  1  0.401000  0.460600  0.177500  1
  H  H567  1  0.599000  0.960600  0.322500  1
  H  H568  1  0.901000  0.960600  0.677500  1
  H  H569  1  0.858700  0.523200  0.187400  1
  H  H570  1  0.641300  0.523200  0.812600  1
  H  H571  1  0.358700  0.023200  0.687400  1
  H  H572  1  0.141300  0.023200  0.312600  1
  H  H573  1  0.141300  0.476800  0.812600  1
  H  H574  1  0.358700  0.476800  0.187400  1
  H  H575  1  0.641300  0.976800  0.312600  1
  H  H576  1  0.858700  0.976800  0.687400  1
  H  H577  1  0.887700  0.551900  0.206800  1
  H  H578  1  0.612300  0.551900  0.793200  1
  H  H579  1  0.387700  0.051900  0.706800  1
  H  H580  1  0.112300  0.051900  0.293200  1
  H  H581  1  0.112300  0.448100  0.793200  1
  H  H582  1  0.387700  0.448100  0.206800  1
  H  H583  1  0.612300  0.948100  0.293200  1
  H  H584  1  0.887700  0.948100  0.706800  1
  H  H585  1  0.782800  0.558700  0.141900  1
  H  H586  1  0.717200  0.558700  0.858100  1
  H  H587  1  0.282800  0.058700  0.641900  1
  H  H588  1  0.217200  0.058700  0.358100  1
  H  H589  1  0.217200  0.441300  0.858100  1
  H  H590  1  0.282800  0.441300  0.141900  1
  H  H591  1  0.717200  0.941300  0.358100  1
  H  H592  1  0.782800  0.941300  0.641900  1
  H  H593  1  0.789600  0.541300  0.173200  1
  H  H594  1  0.710400  0.541300  0.826800  1
  H  H595  1  0.289600  0.041300  0.673200  1
  H  H596  1  0.210400  0.041300  0.326800  1
  H  H597  1  0.210400  0.458700  0.826800  1
  H  H598  1  0.289600  0.458700  0.173200  1
  H  H599  1  0.710400  0.958700  0.326800  1
  H  H600  1  0.789600  0.958700  0.673200  1
  H  H601  1  0.815500  0.526800  0.149700  1
  H  H602  1  0.684500  0.526800  0.850300  1
  H  H603  1  0.315500  0.026800  0.649700  1
  H  H604  1  0.184500  0.026800  0.350300  1
  H  H605  1  0.184500  0.473200  0.850300  1
  H  H606  1  0.315500  0.473200  0.149700  1
  H  H607  1  0.684500  0.973200  0.350300  1
  H  H608  1  0.815500  0.973200  0.649700  1
  H  H609  1  0.997300  0.775000  0.216900  1
  H  H610  1  0.502700  0.775000  0.783100  1
  H  H611  1  0.497300  0.275000  0.716900  1
  H  H612  1  0.002700  0.275000  0.283100  1
  H  H613  1  0.002700  0.225000  0.783100  1
  H  H614  1  0.497300  0.225000  0.216900  1
  H  H615  1  0.502700  0.725000  0.283100  1
  H  H616  1  0.997300  0.725000  0.716900  1
  H  H617  1  0.015900  0.751300  0.194600  1
  H  H618  1  0.484100  0.751300  0.805400  1
  H  H619  1  0.515900  0.251300  0.694600  1
  H  H620  1  0.984100  0.251300  0.305400  1
  H  H621  1  0.984100  0.248700  0.805400  1
  H  H622  1  0.515900  0.248700  0.194600  1
  H  H623  1  0.484100  0.748700  0.305400  1
  H  H624  1  0.015900  0.748700  0.694600  1
  H  H625  1  0.003400  0.735200  0.222900  1
  H  H626  1  0.496600  0.735200  0.777100  1
  H  H627  1  0.503400  0.235200  0.722900  1
  H  H628  1  0.996600  0.235200  0.277100  1
  H  H629  1  0.996600  0.264800  0.777100  1
  H  H630  1  0.503400  0.264800  0.222900  1
  H  H631  1  0.496600  0.764800  0.277100  1
  H  H632  1  0.003400  0.764800  0.722900  1
  H  H633  1  0.944600  0.795800  0.168100  1
  H  H634  1  0.555400  0.795800  0.831900  1
  H  H635  1  0.444600  0.295800  0.668100  1
  H  H636  1  0.055400  0.295800  0.331900  1
  H  H637  1  0.055400  0.204200  0.831900  1
  H  H638  1  0.444600  0.204200  0.168100  1
  H  H639  1  0.555400  0.704200  0.331900  1
  H  H640  1  0.944600  0.704200  0.668100  1
  H  H641  1  0.927600  0.799500  0.197700  1
  H  H642  1  0.572400  0.799500  0.802300  1
  H  H643  1  0.427600  0.299500  0.697700  1
  H  H644  1  0.072400  0.299500  0.302300  1
  H  H645  1  0.072400  0.200500  0.802300  1
  H  H646  1  0.427600  0.200500  0.197700  1
  H  H647  1  0.572400  0.700500  0.302300  1
  H  H648  1  0.927600  0.700500  0.697700  1
  H  H649  1  0.895800  0.782600  0.169900  1
  H  H650  1  0.604200  0.782600  0.830100  1
  H  H651  1  0.395800  0.282600  0.669900  1
  H  H652  1  0.104200  0.282600  0.330100  1
  H  H653  1  0.104200  0.217400  0.830100  1
  H  H654  1  0.395800  0.217400  0.169900  1
  H  H655  1  0.604200  0.717400  0.330100  1
  H  H656  1  0.895800  0.717400  0.669900  1
  H  H657  1  0.777900  0.491100  0.950300  1
  H  H658  1  0.722100  0.491100  0.049700  1
  H  H659  1  0.277900  0.991100  0.450300  1
  H  H660  1  0.222100  0.991100  0.549700  1
  H  H661  1  0.222100  0.508900  0.049700  1
  H  H662  1  0.277900  0.508900  0.950300  1
  H  H663  1  0.722100  0.008900  0.549700  1
  H  H664  1  0.777900  0.008900  0.450300  1
  H  H665  1  0.753700  0.455300  0.951700  1
  H  H666  1  0.746300  0.455300  0.048300  1
  H  H667  1  0.253700  0.955300  0.451700  1
  H  H668  1  0.246300  0.955300  0.548300  1
  H  H669  1  0.246300  0.544700  0.048300  1
  H  H670  1  0.253700  0.544700  0.951700  1
  H  H671  1  0.746300  0.044700  0.548300  1
  H  H672  1  0.753700  0.044700  0.451700  1
  H  H673  1  0.761100  0.480500  0.978900  1
  H  H674  1  0.738900  0.480500  0.021100  1
  H  H675  1  0.261100  0.980500  0.478900  1
  H  H676  1  0.238900  0.980500  0.521100  1
  H  H677  1  0.238900  0.519500  0.021100  1
  H  H678  1  0.261100  0.519500  0.978900  1
  H  H679  1  0.738900  0.019500  0.521100  1
  H  H680  1  0.761100  0.019500  0.478900  1
  H  H681  1  0.740100  0.532500  0.975300  1
  H  H682  1  0.759900  0.532500  0.024700  1
  H  H683  1  0.240100  0.032500  0.475300  1
  H  H684  1  0.259900  0.032500  0.524700  1
  H  H685  1  0.259900  0.467500  0.024700  1
  H  H686  1  0.240100  0.467500  0.975300  1
  H  H687  1  0.759900  0.967500  0.524700  1
  H  H688  1  0.740100  0.967500  0.475300  1
  H  H689  1  0.718500  0.553800  0.946900  1
  H  H690  1  0.781500  0.553800  0.053100  1
  H  H691  1  0.218500  0.053800  0.446900  1
  H  H692  1  0.281500  0.053800  0.553100  1
  H  H693  1  0.281500  0.446200  0.053100  1
  H  H694  1  0.218500  0.446200  0.946900  1
  H  H695  1  0.781500  0.946200  0.553100  1
  H  H696  1  0.718500  0.946200  0.446900  1
  H  H697  1  0.760200  0.529300  0.946800  1
  H  H698  1  0.739800  0.529300  0.053200  1
  H  H699  1  0.260200  0.029300  0.446800  1
  H  H700  1  0.239800  0.029300  0.553200  1
  H  H701  1  0.239800  0.470700  0.053200  1
  H  H702  1  0.260200  0.470700  0.946800  1
  H  H703  1  0.739800  0.970700  0.553200  1
  H  H704  1  0.760200  0.970700  0.446800  1
  H  H705  1  0.387000  0.368200  0.073200  1
  H  H706  1  0.113000  0.368200  0.926800  1
  H  H707  1  0.887000  0.868200  0.573200  1
  H  H708  1  0.613000  0.868200  0.426800  1
  H  H709  1  0.613000  0.631800  0.926800  1
  H  H710  1  0.887000  0.631800  0.073200  1
  H  H711  1  0.113000  0.131800  0.426800  1
  H  H712  1  0.387000  0.131800  0.573200  1
  H  H713  1  0.425600  0.369000  0.101900  1
  H  H714  1  0.074400  0.369000  0.898100  1
  H  H715  1  0.925600  0.869000  0.601900  1
  H  H716  1  0.574400  0.869000  0.398100  1
  H  H717  1  0.574400  0.631000  0.898100  1
  H  H718  1  0.925600  0.631000  0.101900  1
  H  H719  1  0.074400  0.131000  0.398100  1
  H  H720  1  0.425600  0.131000  0.601900  1
  H  H721  1  0.389000  0.339500  0.097300  1
  H  H722  1  0.111000  0.339500  0.902700  1
  H  H723  1  0.889000  0.839500  0.597300  1
  H  H724  1  0.611000  0.839500  0.402700  1
  H  H725  1  0.611000  0.660500  0.902700  1
  H  H726  1  0.889000  0.660500  0.097300  1
  H  H727  1  0.111000  0.160500  0.402700  1
  H  H728  1  0.389000  0.160500  0.597300  1
  H  H729  1  0.399000  0.330200  0.021200  1
  H  H730  1  0.101000  0.330200  0.978800  1
  H  H731  1  0.899000  0.830200  0.521200  1
  H  H732  1  0.601000  0.830200  0.478800  1
  H  H733  1  0.601000  0.669800  0.978800  1
  H  H734  1  0.899000  0.669800  0.021200  1
  H  H735  1  0.101000  0.169800  0.478800  1
  H  H736  1  0.399000  0.169800  0.521200  1
  H  H737  1  0.365900  0.318500  0.041400  1
  H  H738  1  0.134100  0.318500  0.958600  1
  H  H739  1  0.865900  0.818500  0.541400  1
  H  H740  1  0.634100  0.818500  0.458600  1
  H  H741  1  0.634100  0.681500  0.958600  1
  H  H742  1  0.865900  0.681500  0.041400  1
  H  H743  1  0.134100  0.181500  0.458600  1
  H  H744  1  0.365900  0.181500  0.541400  1
  H  H745  1  0.401800  0.292400  0.033800  1
  H  H746  1  0.098200  0.292400  0.966200  1
  H  H747  1  0.901800  0.792400  0.533800  1
  H  H748  1  0.598200  0.792400  0.466200  1
  H  H749  1  0.598200  0.707600  0.966200  1
  H  H750  1  0.901800  0.707600  0.033800  1
  H  H751  1  0.098200  0.207600  0.466200  1
  H  H752  1  0.401800  0.207600  0.533800  1
  H  H753  1  0.592400  0.334300  0.869800  1
  H  H754  1  0.907600  0.334300  0.130200  1
  H  H755  1  0.092400  0.834300  0.369800  1
  H  H756  1  0.407600  0.834300  0.630200  1
  H  H757  1  0.407600  0.665700  0.130200  1
  H  H758  1  0.092400  0.665700  0.869800  1
  H  H759  1  0.907600  0.165700  0.630200  1
  H  H760  1  0.592400  0.165700  0.369800  1
  H  H761  1  0.591400  0.368700  0.887500  1
  H  H762  1  0.908600  0.368700  0.112500  1
  H  H763  1  0.091400  0.868700  0.387500  1
  H  H764  1  0.408600  0.868700  0.612500  1
  H  H765  1  0.408600  0.631300  0.112500  1
  H  H766  1  0.091400  0.631300  0.887500  1
  H  H767  1  0.908600  0.131300  0.612500  1
  H  H768  1  0.591400  0.131300  0.387500  1
  H  H769  1  0.546800  0.346700  0.877900  1
  H  H770  1  0.953200  0.346700  0.122100  1
  H  H771  1  0.046800  0.846700  0.377900  1
  H  H772  1  0.453200  0.846700  0.622100  1
  H  H773  1  0.453200  0.653300  0.122100  1
  H  H774  1  0.046800  0.653300  0.877900  1
  H  H775  1  0.953200  0.153300  0.622100  1
  H  H776  1  0.546800  0.153300  0.377900  1
  H  H777  1  0.639700  0.289800  0.922200  1
  H  H778  1  0.860300  0.289800  0.077800  1
  H  H779  1  0.139700  0.789800  0.422200  1
  H  H780  1  0.360300  0.789800  0.577800  1
  H  H781  1  0.360300  0.710200  0.077800  1
  H  H782  1  0.139700  0.710200  0.922200  1
  H  H783  1  0.860300  0.210200  0.577800  1
  H  H784  1  0.639700  0.210200  0.422200  1
  H  H785  1  0.598000  0.280600  0.936200  1
  H  H786  1  0.902000  0.280600  0.063800  1
  H  H787  1  0.098000  0.780600  0.436200  1
  H  H788  1  0.402000  0.780600  0.563800  1
  H  H789  1  0.402000  0.719400  0.063800  1
  H  H790  1  0.098000  0.719400  0.936200  1
  H  H791  1  0.902000  0.219400  0.563800  1
  H  H792  1  0.598000  0.219400  0.436200  1
  H  H793  1  0.633400  0.308600  0.951100  1
  H  H794  1  0.866600  0.308600  0.048900  1
  H  H795  1  0.133400  0.808600  0.451100  1
  H  H796  1  0.366600  0.808600  0.548900  1
  H  H797  1  0.366600  0.691400  0.048900  1
  H  H798  1  0.133400  0.691400  0.951100  1
  H  H799  1  0.866600  0.191400  0.548900  1
  H  H800  1  0.633400  0.191400  0.451100  1
  H  H801  1  0.608300  0.280300  0.928200  1
  H  H802  1  0.891700  0.280300  0.071800  1
  H  H803  1  0.108300  0.780300  0.428200  1
  H  H804  1  0.391700  0.780300  0.571800  1
  H  H805  1  0.391700  0.719700  0.071800  1
  H  H806  1  0.108300  0.719700  0.928200  1
  H  H807  1  0.891700  0.219700  0.571800  1
  H  H808  1  0.608300  0.219700  0.428200  1
  H  H809  1  0.595700  0.285800  0.893800  1
  H  H810  1  0.904300  0.285800  0.106200  1
  H  H811  1  0.095700  0.785800  0.393800  1
  H  H812  1  0.404300  0.785800  0.606200  1
  H  H813  1  0.404300  0.714200  0.106200  1
  H  H814  1  0.095700  0.714200  0.893800  1
  H  H815  1  0.904300  0.214200  0.606200  1
  H  H816  1  0.595700  0.214200  0.393800  1
  H  H817  1  0.557100  0.285500  0.911900  1
  H  H818  1  0.942900  0.285500  0.088100  1
  H  H819  1  0.057100  0.785500  0.411900  1
  H  H820  1  0.442900  0.785500  0.588100  1
  H  H821  1  0.442900  0.714500  0.088100  1
  H  H822  1  0.057100  0.714500  0.911900  1
  H  H823  1  0.942900  0.214500  0.588100  1
  H  H824  1  0.557100  0.214500  0.411900  1
  H  H825  1  0.644400  0.279700  0.914400  1
  H  H826  1  0.855600  0.279700  0.085600  1
  H  H827  1  0.144400  0.779700  0.414400  1
  H  H828  1  0.355600  0.779700  0.585600  1
  H  H829  1  0.355600  0.720300  0.085600  1
  H  H830  1  0.144400  0.720300  0.914400  1
  H  H831  1  0.855600  0.220300  0.585600  1
  H  H832  1  0.644400  0.220300  0.414400  1
  H  H833  1  0.667500  0.308700  0.936300  1
  H  H834  1  0.832500  0.308700  0.063700  1
  H  H835  1  0.167500  0.808700  0.436300  1
  H  H836  1  0.332500  0.808700  0.563700  1
  H  H837  1  0.332500  0.691300  0.063700  1
  H  H838  1  0.167500  0.691300  0.936300  1
  H  H839  1  0.832500  0.191300  0.563700  1
  H  H840  1  0.667500  0.191300  0.436300  1
  H  H841  1  0.661300  0.314000  0.902100  1
  H  H842  1  0.838700  0.314000  0.097900  1
  H  H843  1  0.161300  0.814000  0.402100  1
  H  H844  1  0.338700  0.814000  0.597900  1
  H  H845  1  0.338700  0.686000  0.097900  1
  H  H846  1  0.161300  0.686000  0.902100  1
  H  H847  1  0.838700  0.186000  0.597900  1
  H  H848  1  0.661300  0.186000  0.402100  1
  H  H849  1  0.692100  0.303300  0.060800  1.0
  H  H850  1  0.807900  0.303300  0.939200  1.0
  H  H851  1  0.192100  0.803300  0.560800  1.0
  H  H852  1  0.307900  0.803300  0.439200  1.0
  H  H853  1  0.307900  0.696700  0.939200  1.0
  H  H854  1  0.192100  0.696700  0.060800  1.0
  H  H855  1  0.807900  0.196700  0.439200  1.0
  H  H856  1  0.692100  0.196700  0.560800  1.0
  H  H857  1  0.674800  0.281600  0.084800  1.0
  H  H858  1  0.825200  0.281600  0.915200  1.0
  H  H859  1  0.174800  0.781600  0.584800  1.0
  H  H860  1  0.325200  0.781600  0.415200  1.0
  H  H861  1  0.325200  0.718400  0.915200  1.0
  H  H862  1  0.174800  0.718400  0.084800  1.0
  H  H863  1  0.825200  0.218400  0.415200  1.0
  H  H864  1  0.674800  0.218400  0.584800  1.0
  H  H865  1  0.727400  0.286700  0.087100  1.0
  H  H866  1  0.772600  0.286700  0.912900  1.0
  H  H867  1  0.227400  0.786700  0.587100  1.0
  H  H868  1  0.272600  0.786700  0.412900  1.0
  H  H869  1  0.272600  0.713300  0.912900  1.0
  H  H870  1  0.227400  0.713300  0.087100  1.0
  H  H871  1  0.772600  0.213300  0.412900  1.0
  H  H872  1  0.727400  0.213300  0.587100  1.0
  H  H873  1  0.760200  0.326800  0.122900  1.0
  H  H874  1  0.739800  0.326800  0.877100  1.0
  H  H875  1  0.260200  0.826800  0.622900  1.0
  H  H876  1  0.239800  0.826800  0.377100  1.0
  H  H877  1  0.239800  0.673200  0.877100  1.0
  H  H878  1  0.260200  0.673200  0.122900  1.0
  H  H879  1  0.739800  0.173200  0.377100  1.0
  H  H880  1  0.760200  0.173200  0.622900  1.0
  H  H881  1  0.738900  0.363900  0.121700  1.0
  H  H882  1  0.761100  0.363900  0.878300  1.0
  H  H883  1  0.238900  0.863900  0.621700  1.0
  H  H884  1  0.261100  0.863900  0.378300  1.0
  H  H885  1  0.261100  0.636100  0.878300  1.0
  H  H886  1  0.238900  0.636100  0.121700  1.0
  H  H887  1  0.761100  0.136100  0.378300  1.0
  H  H888  1  0.738900  0.136100  0.621700  1.0
  H  H889  1  0.755600  0.349300  0.094300  1.0
  H  H890  1  0.744400  0.349300  0.905700  1.0
  H  H891  1  0.255600  0.849300  0.594300  1.0
  H  H892  1  0.244400  0.849300  0.405700  1.0
  H  H893  1  0.244400  0.650700  0.905700  1.0
  H  H894  1  0.255600  0.650700  0.094300  1.0
  H  H895  1  0.744400  0.150700  0.405700  1.0
  H  H896  1  0.755600  0.150700  0.594300  1.0
  H  H897  1  0.655100  0.305300  0.115000  1.0
  H  H898  1  0.844900  0.305300  0.885000  1.0
  H  H899  1  0.155100  0.805300  0.615000  1.0
  H  H900  1  0.344900  0.805300  0.385000  1.0
  H  H901  1  0.344900  0.694700  0.885000  1.0
  H  H902  1  0.155100  0.694700  0.115000  1.0
  H  H903  1  0.844900  0.194700  0.385000  1.0
  H  H904  1  0.655100  0.194700  0.615000  1.0
  H  H905  1  0.677300  0.337300  0.133300  1.0
  H  H906  1  0.822700  0.337300  0.866700  1.0
  H  H907  1  0.177300  0.837300  0.633300  1.0
  H  H908  1  0.322700  0.837300  0.366700  1.0
  H  H909  1  0.322700  0.662700  0.866700  1.0
  H  H910  1  0.177300  0.662700  0.133300  1.0
  H  H911  1  0.822700  0.162700  0.366700  1.0
  H  H912  1  0.677300  0.162700  0.633300  1.0
  H  H913  1  0.705700  0.303300  0.133000  1.0
  H  H914  1  0.794300  0.303300  0.867000  1.0
  H  H915  1  0.205700  0.803300  0.633000  1.0
  H  H916  1  0.294300  0.803300  0.367000  1.0
  H  H917  1  0.294300  0.696700  0.867000  1.0
  H  H918  1  0.205700  0.696700  0.133000  1.0
  H  H919  1  0.794300  0.196700  0.367000  1.0
  H  H920  1  0.705700  0.196700  0.633000  1.0
  H  H921  1  0.684900  0.553200  0.950200  1.0
  H  H922  1  0.815100  0.553200  0.049800  1.0
  H  H923  1  0.184900  0.053200  0.450200  1.0
  H  H924  1  0.315100  0.053200  0.549800  1.0
  H  H925  1  0.315100  0.446800  0.049800  1.0
  H  H926  1  0.184900  0.446800  0.950200  1.0
  H  H927  1  0.815100  0.946800  0.549800  1.0
  H  H928  1  0.684900  0.946800  0.450200  1.0
  H  H929  1  0.647100  0.538100  0.924600  1.0
  H  H930  1  0.852900  0.538100  0.075400  1.0
  H  H931  1  0.147100  0.038100  0.424600  1.0
  H  H932  1  0.352900  0.038100  0.575400  1.0
  H  H933  1  0.352900  0.461900  0.075400  1.0
  H  H934  1  0.147100  0.461900  0.924600  1.0
  H  H935  1  0.852900  0.961900  0.575400  1.0
  H  H936  1  0.647100  0.961900  0.424600  1.0
  H  H937  1  0.695200  0.547700  0.918700  1.0
  H  H938  1  0.804800  0.547700  0.081300  1.0
  H  H939  1  0.195200  0.047700  0.418700  1.0
  H  H940  1  0.304800  0.047700  0.581300  1.0
  H  H941  1  0.304800  0.452300  0.081300  1.0
  H  H942  1  0.195200  0.452300  0.918700  1.0
  H  H943  1  0.804800  0.952300  0.581300  1.0
  H  H944  1  0.695200  0.952300  0.418700  1.0
  H  H945  1  0.760200  0.496000  0.943400  1.0
  H  H946  1  0.739800  0.496000  0.056600  1.0
  H  H947  1  0.260200  0.996000  0.443400  1.0
  H  H948  1  0.239800  0.996000  0.556600  1.0
  H  H949  1  0.239800  0.504000  0.056600  1.0
  H  H950  1  0.260200  0.504000  0.943400  1.0
  H  H951  1  0.739800  0.004000  0.556600  1.0
  H  H952  1  0.760200  0.004000  0.443400  1.0
  H  H953  1  0.745800  0.485500  0.972800  1.0
  H  H954  1  0.754200  0.485500  0.027200  1.0
  H  H955  1  0.245800  0.985500  0.472800  1.0
  H  H956  1  0.254200  0.985500  0.527200  1.0
  H  H957  1  0.254200  0.514500  0.027200  1.0
  H  H958  1  0.245800  0.514500  0.972800  1.0
  H  H959  1  0.754200  0.014500  0.527200  1.0
  H  H960  1  0.745800  0.014500  0.472800  1.0
  H  H961  1  0.747300  0.524600  0.964100  1.0
  H  H962  1  0.752700  0.524600  0.035900  1.0
  H  H963  1  0.247300  0.024600  0.464100  1.0
  H  H964  1  0.252700  0.024600  0.535900  1.0
  H  H965  1  0.252700  0.475400  0.035900  1.0
  H  H966  1  0.247300  0.475400  0.964100  1.0
  H  H967  1  0.752700  0.975400  0.535900  1.0
  H  H968  1  0.747300  0.975400  0.464100  1.0
  H  H969  1  0.719400  0.492400  0.906000  1.0
  H  H970  1  0.780600  0.492400  0.094000  1.0
  H  H971  1  0.219400  0.992400  0.406000  1.0
  H  H972  1  0.280600  0.992400  0.594000  1.0
  H  H973  1  0.280600  0.507600  0.094000  1.0
  H  H974  1  0.219400  0.507600  0.906000  1.0
  H  H975  1  0.780600  0.007600  0.594000  1.0
  H  H976  1  0.719400  0.007600  0.406000  1.0
  H  H977  1  0.666500  0.498300  0.900500  1.0
  H  H978  1  0.833500  0.498300  0.099500  1.0
  H  H979  1  0.166500  0.998300  0.400500  1.0
  H  H980  1  0.333500  0.998300  0.599500  1.0
  H  H981  1  0.333500  0.501700  0.099500  1.0
  H  H982  1  0.166500  0.501700  0.900500  1.0
  H  H983  1  0.833500  0.001700  0.599500  1.0
  H  H984  1  0.666500  0.001700  0.400500  1.0
  H  H985  1  0.687600  0.462700  0.912900  1.0
  H  H986  1  0.812400  0.462700  0.087100  1.0
  H  H987  1  0.187600  0.962700  0.412900  1.0
  H  H988  1  0.312400  0.962700  0.587100  1.0
  H  H989  1  0.312400  0.537300  0.087100  1.0
  H  H990  1  0.187600  0.537300  0.912900  1.0
  H  H991  1  0.812400  0.037300  0.587100  1.0
  H  H992  1  0.687600  0.037300  0.412900  1.0
  H  H993  1  0.410200  0.360700  0.094100  1.0
  H  H994  1  0.089800  0.360700  0.905900  1.0
  H  H995  1  0.910200  0.860700  0.594100  1.0
  H  H996  1  0.589800  0.860700  0.405900  1.0
  H  H997  1  0.589800  0.639300  0.905900  1.0
  H  H998  1  0.910200  0.639300  0.094100  1.0
  H  H999  1  0.089800  0.139300  0.405900  1.0
  H  H1000  1  0.410200  0.139300  0.594100  1.0
  H  H1001  1  0.386400  0.324600  0.087100  1.0
  H  H1002  1  0.113600  0.324600  0.912900  1.0
  H  H1003  1  0.886400  0.824600  0.587100  1.0
  H  H1004  1  0.613600  0.824600  0.412900  1.0
  H  H1005  1  0.613600  0.675400  0.912900  1.0
  H  H1006  1  0.886400  0.675400  0.087100  1.0
  H  H1007  1  0.113600  0.175400  0.412900  1.0
  H  H1008  1  0.386400  0.175400  0.587100  1.0
  H  H1009  1  0.381400  0.352800  0.062300  1.0
  H  H1010  1  0.118600  0.352800  0.937700  1.0
  H  H1011  1  0.881400  0.852800  0.562300  1.0
  H  H1012  1  0.618600  0.852800  0.437700  1.0
  H  H1013  1  0.618600  0.647200  0.937700  1.0
  H  H1014  1  0.881400  0.647200  0.062300  1.0
  H  H1015  1  0.118600  0.147200  0.437700  1.0
  H  H1016  1  0.381400  0.147200  0.562300  1.0
  H  H1017  1  0.420800  0.287500  0.053000  1.0
  H  H1018  1  0.079200  0.287500  0.947000  1.0
  H  H1019  1  0.920800  0.787500  0.553000  1.0
  H  H1020  1  0.579200  0.787500  0.447000  1.0
  H  H1021  1  0.579200  0.712500  0.947000  1.0
  H  H1022  1  0.920800  0.712500  0.053000  1.0
  H  H1023  1  0.079200  0.212500  0.447000  1.0
  H  H1024  1  0.420800  0.212500  0.553000  1.0
  H  H1025  1  0.411100  0.319200  0.031600  1.0
  H  H1026  1  0.088900  0.319200  0.968400  1.0
  H  H1027  1  0.911100  0.819200  0.531600  1.0
  H  H1028  1  0.588900  0.819200  0.468400  1.0
  H  H1029  1  0.588900  0.680800  0.968400  1.0
  H  H1030  1  0.911100  0.680800  0.031600  1.0
  H  H1031  1  0.088900  0.180800  0.468400  1.0
  H  H1032  1  0.411100  0.180800  0.531600  1.0
  H  H1033  1  0.380100  0.312500  0.054300  1.0
  H  H1034  1  0.119900  0.312500  0.945700  1.0
  H  H1035  1  0.880100  0.812500  0.554300  1.0
  H  H1036  1  0.619900  0.812500  0.445700  1.0
  H  H1037  1  0.619900  0.687500  0.945700  1.0
  H  H1038  1  0.880100  0.687500  0.054300  1.0
  H  H1039  1  0.119900  0.187500  0.445700  1.0
  H  H1040  1  0.380100  0.187500  0.554300  1.0
  H  H1041  1  0.436000  0.290000  0.092600  1.0
  H  H1042  1  0.064000  0.290000  0.907400  1.0
  H  H1043  1  0.936000  0.790000  0.592600  1.0
  H  H1044  1  0.564000  0.790000  0.407400  1.0
  H  H1045  1  0.564000  0.710000  0.907400  1.0
  H  H1046  1  0.936000  0.710000  0.092600  1.0
  H  H1047  1  0.064000  0.210000  0.407400  1.0
  H  H1048  1  0.436000  0.210000  0.592600  1.0
  H  H1049  1  0.478800  0.313100  0.104900  1.0
  H  H1050  1  0.021200  0.313100  0.895100  1.0
  H  H1051  1  0.978800  0.813100  0.604900  1.0
  H  H1052  1  0.521200  0.813100  0.395100  1.0
  H  H1053  1  0.521200  0.686900  0.895100  1.0
  H  H1054  1  0.978800  0.686900  0.104900  1.0
  H  H1055  1  0.021200  0.186900  0.395100  1.0
  H  H1056  1  0.478800  0.186900  0.604900  1.0
  H  H1057  1  0.476400  0.291600  0.076000  1.0
  H  H1058  1  0.023600  0.291600  0.924000  1.0
  H  H1059  1  0.976400  0.791600  0.576000  1.0
  H  H1060  1  0.523600  0.791600  0.424000  1.0
  H  H1061  1  0.523600  0.708400  0.924000  1.0
  H  H1062  1  0.976400  0.708400  0.076000  1.0
  H  H1063  1  0.023600  0.208400  0.424000  1.0
  H  H1064  1  0.476400  0.208400  0.576000  1.0
  H  H1065  1  0.554900  0.287100  0.887800  1.0
  H  H1066  1  0.945100  0.287100  0.112200  1.0
  H  H1067  1  0.054900  0.787100  0.387800  1.0
  H  H1068  1  0.445100  0.787100  0.612200  1.0
  H  H1069  1  0.445100  0.712900  0.112200  1.0
  H  H1070  1  0.054900  0.712900  0.887800  1.0
  H  H1071  1  0.945100  0.212900  0.612200  1.0
  H  H1072  1  0.554900  0.212900  0.387800  1.0
  H  H1073  1  0.524200  0.317500  0.894700  1.0
  H  H1074  1  0.975800  0.317500  0.105300  1.0
  H  H1075  1  0.024200  0.817500  0.394700  1.0
  H  H1076  1  0.475800  0.817500  0.605300  1.0
  H  H1077  1  0.475800  0.682500  0.105300  1.0
  H  H1078  1  0.024200  0.682500  0.894700  1.0
  H  H1079  1  0.975800  0.182500  0.605300  1.0
  H  H1080  1  0.524200  0.182500  0.394700  1.0
  H  H1081  1  0.540600  0.288700  0.918400  1.0
  H  H1082  1  0.959400  0.288700  0.081600  1.0
  H  H1083  1  0.040600  0.788700  0.418400  1.0
  H  H1084  1  0.459400  0.788700  0.581600  1.0
  H  H1085  1  0.459400  0.711300  0.081600  1.0
  H  H1086  1  0.040600  0.711300  0.918400  1.0
  H  H1087  1  0.959400  0.211300  0.581600  1.0
  H  H1088  1  0.540600  0.211300  0.418400  1.0
  H  H1089  1  0.654400  0.309300  0.912100  1.0
  H  H1090  1  0.845600  0.309300  0.087900  1.0
  H  H1091  1  0.154400  0.809300  0.412100  1.0
  H  H1092  1  0.345600  0.809300  0.587900  1.0
  H  H1093  1  0.345600  0.690700  0.087900  1.0
  H  H1094  1  0.154400  0.690700  0.912100  1.0
  H  H1095  1  0.845600  0.190700  0.587900  1.0
  H  H1096  1  0.654400  0.190700  0.412100  1.0
  H  H1097  1  0.647800  0.349500  0.911400  1.0
  H  H1098  1  0.852200  0.349500  0.088600  1.0
  H  H1099  1  0.147800  0.849500  0.411400  1.0
  H  H1100  1  0.352200  0.849500  0.588600  1.0
  H  H1101  1  0.352200  0.650500  0.088600  1.0
  H  H1102  1  0.147800  0.650500  0.911400  1.0
  H  H1103  1  0.852200  0.150500  0.588600  1.0
  H  H1104  1  0.647800  0.150500  0.411400  1.0
  H  H1105  1  0.626200  0.327300  0.883600  1.0
  H  H1106  1  0.873800  0.327300  0.116400  1.0
  H  H1107  1  0.126200  0.827300  0.383600  1.0
  H  H1108  1  0.373800  0.827300  0.616400  1.0
  H  H1109  1  0.373800  0.672700  0.116400  1.0
  H  H1110  1  0.126200  0.672700  0.883600  1.0
  H  H1111  1  0.873800  0.172700  0.616400  1.0
  H  H1112  1  0.626200  0.172700  0.383600  1.0
  H  H1113  1  0.313900  0.503700  0.841700  1.0
  H  H1114  1  0.186100  0.503700  0.158300  1.0
  H  H1115  1  0.813900  0.003700  0.341700  1.0
  H  H1116  1  0.686100  0.003700  0.658300  1.0
  H  H1117  1  0.686100  0.496300  0.158300  1.0
  H  H1118  1  0.813900  0.496300  0.841700  1.0
  H  H1119  1  0.186100  0.996300  0.658300  1.0
  H  H1120  1  0.313900  0.996300  0.341700  1.0
  H  H1121  1  0.579100  0.507100  0.887500  1.0
  H  H1122  1  0.920900  0.507100  0.112500  1.0
  H  H1123  1  0.079100  0.007100  0.387500  1.0
  H  H1124  1  0.420900  0.007100  0.612500  1.0
  H  H1125  1  0.420900  0.492900  0.112500  1.0
  H  H1126  1  0.079100  0.492900  0.887500  1.0
  H  H1127  1  0.920900  0.992900  0.612500  1.0
  H  H1128  1  0.579100  0.992900  0.387500  1.0
  H  H1129  1  0.439000  0.335600  0.903600  1.0
  H  H1130  1  0.061000  0.335600  0.096400  1.0
  H  H1131  1  0.939000  0.835600  0.403600  1.0
  H  H1132  1  0.561000  0.835600  0.596400  1.0
  H  H1133  1  0.561000  0.664400  0.096400  1.0
  H  H1134  1  0.939000  0.664400  0.903600  1.0
  H  H1135  1  0.061000  0.164400  0.596400  1.0
  H  H1136  1  0.439000  0.164400  0.403600  1.0
  H  H1137  1  0.619800  0.497500  0.016300  1.0
  H  H1138  1  0.880200  0.497500  0.983700  1.0
  H  H1139  1  0.119800  0.997500  0.516300  1.0
  H  H1140  1  0.380200  0.997500  0.483700  1.0
  H  H1141  1  0.380200  0.502500  0.983700  1.0
  H  H1142  1  0.119800  0.502500  0.016300  1.0
  H  H1143  1  0.880200  0.002500  0.483700  1.0
  H  H1144  1  0.619800  0.002500  0.516300  1.0
  H  H1145  1  0.669300  0.520800  0.990100  1.0
  H  H1146  1  0.830700  0.520800  0.009900  1.0
  H  H1147  1  0.169300  0.020800  0.490100  1.0
  H  H1148  1  0.330700  0.020800  0.509900  1.0
  H  H1149  1  0.330700  0.479200  0.009900  1.0
  H  H1150  1  0.169300  0.479200  0.990100  1.0
  H  H1151  1  0.830700  0.979200  0.509900  1.0
  H  H1152  1  0.669300  0.979200  0.490100  1.0
  H  H1153  1  0.651900  0.438300  0.937700  1.0
  H  H1154  1  0.848100  0.438300  0.062300  1.0
  H  H1155  1  0.151900  0.938300  0.437700  1.0
  H  H1156  1  0.348100  0.938300  0.562300  1.0
  H  H1157  1  0.348100  0.561700  0.062300  1.0
  H  H1158  1  0.151900  0.561700  0.937700  1.0
  H  H1159  1  0.848100  0.061700  0.562300  1.0
  H  H1160  1  0.651900  0.061700  0.437700  1.0
  H  H1161  1  0.463100  0.421800  0.013300  1.0
  H  H1162  1  0.036900  0.421800  0.986700  1.0
  H  H1163  1  0.963100  0.921800  0.513300  1.0
  H  H1164  1  0.536900  0.921800  0.486700  1.0
  H  H1165  1  0.536900  0.578200  0.986700  1.0
  H  H1166  1  0.963100  0.578200  0.013300  1.0
  H  H1167  1  0.036900  0.078200  0.486700  1.0
  H  H1168  1  0.463100  0.078200  0.513300  1.0
  H  H1169  1  0.415600  0.387100  0.034400  1.0
  H  H1170  1  0.084400  0.387100  0.965600  1.0
  H  H1171  1  0.915600  0.887100  0.534400  1.0
  H  H1172  1  0.584400  0.887100  0.465600  1.0
  H  H1173  1  0.584400  0.612900  0.965600  1.0
  H  H1174  1  0.915600  0.612900  0.034400  1.0
  H  H1175  1  0.084400  0.112900  0.465600  1.0
  H  H1176  1  0.415600  0.112900  0.534400  1.0
  H  H1177  1  0.527800  0.335800  0.077300  1.0
  H  H1178  1  0.972200  0.335800  0.922700  1.0
  H  H1179  1  0.027800  0.835800  0.577300  1.0
  H  H1180  1  0.472200  0.835800  0.422700  1.0
  H  H1181  1  0.472200  0.664200  0.922700  1.0
  H  H1182  1  0.027800  0.664200  0.077300  1.0
  H  H1183  1  0.972200  0.164200  0.422700  1.0
  H  H1184  1  0.527800  0.164200  0.577300  1.0
  H  H1185  1  0.668000  0.423600  0.040400  1.0
  H  H1186  1  0.832000  0.423600  0.959600  1.0
  H  H1187  1  0.168000  0.923600  0.540400  1.0
  H  H1188  1  0.332000  0.923600  0.459600  1.0
  H  H1189  1  0.332000  0.576400  0.959600  1.0
  H  H1190  1  0.168000  0.576400  0.040400  1.0
  H  H1191  1  0.832000  0.076400  0.459600  1.0
  H  H1192  1  0.668000  0.076400  0.540400  1.0
  H  H1193  1  0.715500  0.386000  0.071800  1.0
  H  H1194  1  0.784500  0.386000  0.928200  1.0
  H  H1195  1  0.215500  0.886000  0.571800  1.0
  H  H1196  1  0.284500  0.886000  0.428200  1.0
  H  H1197  1  0.284500  0.614000  0.928200  1.0
  H  H1198  1  0.215500  0.614000  0.071800  1.0
  H  H1199  1  0.784500  0.114000  0.428200  1.0
  H  H1200  1  0.715500  0.114000  0.571800  1.0
  H  H1201  1  0.606000  0.336000  0.085400  1.0
  H  H1202  1  0.894000  0.336000  0.914600  1.0
  H  H1203  1  0.106000  0.836000  0.585400  1.0
  H  H1204  1  0.394000  0.836000  0.414600  1.0
  H  H1205  1  0.394000  0.664000  0.914600  1.0
  H  H1206  1  0.106000  0.664000  0.085400  1.0
  H  H1207  1  0.894000  0.164000  0.414600  1.0
  H  H1208  1  0.606000  0.164000  0.585400  1.0
  H  H1209  1  0.620700  0.389300  0.928800  1.0
  H  H1210  1  0.879300  0.389300  0.071200  1.0
  H  H1211  1  0.120700  0.889300  0.428800  1.0
  H  H1212  1  0.379300  0.889300  0.571200  1.0
  H  H1213  1  0.379300  0.610700  0.071200  1.0
  H  H1214  1  0.120700  0.610700  0.928800  1.0
  H  H1215  1  0.879300  0.110700  0.571200  1.0
  H  H1216  1  0.620700  0.110700  0.428800  1.0
  H  H1217  1  0.545100  0.317200  0.958600  1.0
  H  H1218  1  0.954900  0.317200  0.041400  1.0
  H  H1219  1  0.045100  0.817200  0.458600  1.0
  H  H1220  1  0.454900  0.817200  0.541400  1.0
  H  H1221  1  0.454900  0.682800  0.041400  1.0
  H  H1222  1  0.045100  0.682800  0.958600  1.0
  H  H1223  1  0.954900  0.182800  0.541400  1.0
  H  H1224  1  0.545100  0.182800  0.458600  1.0
  H  H1225  1  0.538700  0.352200  0.995300  1.0
  H  H1226  1  0.961300  0.352200  0.004700  1.0
  H  H1227  1  0.038700  0.852200  0.495300  1.0
  H  H1228  1  0.461300  0.852200  0.504700  1.0
  H  H1229  1  0.461300  0.647800  0.004700  1.0
  H  H1230  1  0.038700  0.647800  0.995300  1.0
  H  H1231  1  0.961300  0.147800  0.504700  1.0
  H  H1232  1  0.538700  0.147800  0.495300  1.0
  H  H1233  1  0.522700  0.516600  0.952200  1.0
  H  H1234  1  0.977300  0.516600  0.047800  1.0
  H  H1235  1  0.022700  0.016600  0.452200  1.0
  H  H1236  1  0.477300  0.016600  0.547800  1.0
  H  H1237  1  0.477300  0.483400  0.047800  1.0
  H  H1238  1  0.022700  0.483400  0.952200  1.0
  H  H1239  1  0.977300  0.983400  0.547800  1.0
  H  H1240  1  0.522700  0.983400  0.452200  1.0
  H  H1241  1  0.543600  0.544000  0.933900  1.0
  H  H1242  1  0.956400  0.544000  0.066100  1.0
  H  H1243  1  0.043600  0.044000  0.433900  1.0
  H  H1244  1  0.456400  0.044000  0.566100  1.0
  H  H1245  1  0.456400  0.456000  0.066100  1.0
  H  H1246  1  0.043600  0.456000  0.933900  1.0
  H  H1247  1  0.956400  0.956000  0.566100  1.0
  H  H1248  1  0.543600  0.956000  0.433900  1.0
  H  H1249  1  0.573800  0.513300  0.949500  1.0
  H  H1250  1  0.926200  0.513300  0.050500  1.0
  H  H1251  1  0.073800  0.013300  0.449500  1.0
  H  H1252  1  0.426200  0.013300  0.550500  1.0
  H  H1253  1  0.426200  0.486700  0.050500  1.0
  H  H1254  1  0.073800  0.486700  0.949500  1.0
  H  H1255  1  0.926200  0.986700  0.550500  1.0
  H  H1256  1  0.573800  0.986700  0.449500  1.0
  H  H1257  1  0.350900  0.503700  0.925500  1.0
  H  H1258  1  0.149100  0.503700  0.074500  1.0
  H  H1259  1  0.850900  0.003700  0.425500  1.0
  H  H1260  1  0.649100  0.003700  0.574500  1.0
  H  H1261  1  0.649100  0.496300  0.074500  1.0
  H  H1262  1  0.850900  0.496300  0.925500  1.0
  H  H1263  1  0.149100  0.996300  0.574500  1.0
  H  H1264  1  0.350900  0.996300  0.425500  1.0
  H  H1265  1  0.302900  0.498900  0.904400  1.0
  H  H1266  1  0.197100  0.498900  0.095600  1.0
  H  H1267  1  0.802900  0.998900  0.404400  1.0
  H  H1268  1  0.697100  0.998900  0.595600  1.0
  H  H1269  1  0.697100  0.501100  0.095600  1.0
  H  H1270  1  0.802900  0.501100  0.904400  1.0
  H  H1271  1  0.197100  0.001100  0.595600  1.0
  H  H1272  1  0.302900  0.001100  0.404400  1.0
  H  H1273  1  0.330600  0.533100  0.903100  1.0
  H  H1274  1  0.169400  0.533100  0.096900  1.0
  H  H1275  1  0.830600  0.033100  0.403100  1.0
  H  H1276  1  0.669400  0.033100  0.596900  1.0
  H  H1277  1  0.669400  0.466900  0.096900  1.0
  H  H1278  1  0.830600  0.466900  0.903100  1.0
  H  H1279  1  0.169400  0.966900  0.596900  1.0
  H  H1280  1  0.330600  0.966900  0.403100  1.0
  H  H1281  1  0.443900  0.380900  0.832300  1.0
  H  H1282  1  0.056100  0.380900  0.167700  1.0
  H  H1283  1  0.943900  0.880900  0.332300  1.0
  H  H1284  1  0.556100  0.880900  0.667700  1.0
  H  H1285  1  0.556100  0.619100  0.167700  1.0
  H  H1286  1  0.943900  0.619100  0.832300  1.0
  H  H1287  1  0.056100  0.119100  0.667700  1.0
  H  H1288  1  0.443900  0.119100  0.332300  1.0
  H  H1289  1  0.412300  0.350500  0.838100  1.0
  H  H1290  1  0.087700  0.350500  0.161900  1.0
  H  H1291  1  0.912300  0.850500  0.338100  1.0
  H  H1292  1  0.587700  0.850500  0.661900  1.0
  H  H1293  1  0.587700  0.649500  0.161900  1.0
  H  H1294  1  0.912300  0.649500  0.838100  1.0
  H  H1295  1  0.087700  0.149500  0.661900  1.0
  H  H1296  1  0.412300  0.149500  0.338100  1.0
  H  H1297  1  0.465600  0.346300  0.846500  1.0
  H  H1298  1  0.034400  0.346300  0.153500  1.0
  H  H1299  1  0.965600  0.846300  0.346500  1.0
  H  H1300  1  0.534400  0.846300  0.653500  1.0
  H  H1301  1  0.534400  0.653700  0.153500  1.0
  H  H1302  1  0.965600  0.653700  0.846500  1.0
  H  H1303  1  0.034400  0.153700  0.653500  1.0
  H  H1304  1  0.465600  0.153700  0.346500  1.0
  H  H1305  1  0.399900  0.455000  0.808700  1.0
  H  H1306  1  0.100100  0.455000  0.191300  1.0
  H  H1307  1  0.899900  0.955000  0.308700  1.0
  H  H1308  1  0.600100  0.955000  0.691300  1.0
  H  H1309  1  0.600100  0.545000  0.191300  1.0
  H  H1310  1  0.899900  0.545000  0.808700  1.0
  H  H1311  1  0.100100  0.045000  0.691300  1.0
  H  H1312  1  0.399900  0.045000  0.308700  1.0
  H  H1313  1  0.372600  0.488800  0.797800  1.0
  H  H1314  1  0.127400  0.488800  0.202200  1.0
  H  H1315  1  0.872600  0.988800  0.297800  1.0
  H  H1316  1  0.627400  0.988800  0.702200  1.0
  H  H1317  1  0.627400  0.511200  0.202200  1.0
  H  H1318  1  0.872600  0.511200  0.797800  1.0
  H  H1319  1  0.127400  0.011200  0.702200  1.0
  H  H1320  1  0.372600  0.011200  0.297800  1.0
  H  H1321  1  0.346300  0.454300  0.800800  1.0
  H  H1322  1  0.153700  0.454300  0.199200  1.0
  H  H1323  1  0.846300  0.954300  0.300800  1.0
  H  H1324  1  0.653700  0.954300  0.699200  1.0
  H  H1325  1  0.653700  0.545700  0.199200  1.0
  H  H1326  1  0.846300  0.545700  0.800800  1.0
  H  H1327  1  0.153700  0.045700  0.699200  1.0
  H  H1328  1  0.346300  0.045700  0.300800  1.0
  H  H1329  1  0.511100  0.449100  0.828500  1.0
  H  H1330  1  0.988900  0.449100  0.171500  1.0
  H  H1331  1  0.011100  0.949100  0.328500  1.0
  H  H1332  1  0.488900  0.949100  0.671500  1.0
  H  H1333  1  0.488900  0.550900  0.171500  1.0
  H  H1334  1  0.011100  0.550900  0.828500  1.0
  H  H1335  1  0.988900  0.050900  0.671500  1.0
  H  H1336  1  0.511100  0.050900  0.328500  1.0
  H  H1337  1  0.563900  0.450100  0.841600  1.0
  H  H1338  1  0.936100  0.450100  0.158400  1.0
  H  H1339  1  0.063900  0.950100  0.341600  1.0
  H  H1340  1  0.436100  0.950100  0.658400  1.0
  H  H1341  1  0.436100  0.549900  0.158400  1.0
  H  H1342  1  0.063900  0.549900  0.841600  1.0
  H  H1343  1  0.936100  0.049900  0.658400  1.0
  H  H1344  1  0.563900  0.049900  0.341600  1.0
  H  H1345  1  0.538900  0.483000  0.826300  1.0
  H  H1346  1  0.961100  0.483000  0.173700  1.0
  H  H1347  1  0.038900  0.983000  0.326300  1.0
  H  H1348  1  0.461100  0.983000  0.673700  1.0
  H  H1349  1  0.461100  0.517000  0.173700  1.0
  H  H1350  1  0.038900  0.517000  0.826300  1.0
  H  H1351  1  0.961100  0.017000  0.673700  1.0
  H  H1352  1  0.538900  0.017000  0.326300  1.0
  H  H1353  1  0.447700  0.435800  0.843000  1.0
  H  H1354  1  0.052300  0.435800  0.157000  1.0
  H  H1355  1  0.947700  0.935800  0.343000  1.0
  H  H1356  1  0.552300  0.935800  0.657000  1.0
  H  H1357  1  0.552300  0.564200  0.157000  1.0
  H  H1358  1  0.947700  0.564200  0.843000  1.0
  H  H1359  1  0.052300  0.064200  0.657000  1.0
  H  H1360  1  0.447700  0.064200  0.343000  1.0
  H  H1361  1  0.449600  0.396700  0.965500  1.0
  H  H1362  1  0.050400  0.396700  0.034500  1.0
  H  H1363  1  0.949600  0.896700  0.465500  1.0
  H  H1364  1  0.550400  0.896700  0.534500  1.0
  H  H1365  1  0.550400  0.603300  0.034500  1.0
  H  H1366  1  0.949600  0.603300  0.965500  1.0
  H  H1367  1  0.050400  0.103300  0.534500  1.0
  H  H1368  1  0.449600  0.103300  0.465500  1.0
  H  H1369  1  0.460400  0.357700  0.960600  1.0
  H  H1370  1  0.039600  0.357700  0.039400  1.0
  H  H1371  1  0.960400  0.857700  0.460600  1.0
  H  H1372  1  0.539600  0.857700  0.539400  1.0
  H  H1373  1  0.539600  0.642300  0.039400  1.0
  H  H1374  1  0.960400  0.642300  0.960600  1.0
  H  H1375  1  0.039600  0.142300  0.539400  1.0
  H  H1376  1  0.460400  0.142300  0.460600  1.0
  H  H1377  1  0.409600  0.370400  0.955000  1.0
  H  H1378  1  0.090400  0.370400  0.045000  1.0
  H  H1379  1  0.909600  0.870400  0.455000  1.0
  H  H1380  1  0.590400  0.870400  0.545000  1.0
  H  H1381  1  0.590400  0.629600  0.045000  1.0
  H  H1382  1  0.909600  0.629600  0.955000  1.0
  H  H1383  1  0.090400  0.129600  0.545000  1.0
  H  H1384  1  0.409600  0.129600  0.455000  1.0
  H  H1385  1  0.924300  0.134900  0.103000  1.0
  H  H1386  1  0.575700  0.134900  0.897000  1.0
  H  H1387  1  0.424300  0.634900  0.603000  1.0
  H  H1388  1  0.075700  0.634900  0.397000  1.0
  H  H1389  1  0.075700  0.865100  0.897000  1.0
  H  H1390  1  0.424300  0.865100  0.103000  1.0
  H  H1391  1  0.575700  0.365100  0.397000  1.0
  H  H1392  1  0.924300  0.365100  0.603000  1.0
  H  H1393  1  0.886500  0.138300  0.074000  1.0
  H  H1394  1  0.613500  0.138300  0.926000  1.0
  H  H1395  1  0.386500  0.638300  0.574000  1.0
  H  H1396  1  0.113500  0.638300  0.426000  1.0
  H  H1397  1  0.113500  0.861700  0.926000  1.0
  H  H1398  1  0.386500  0.861700  0.074000  1.0
  H  H1399  1  0.613500  0.361700  0.426000  1.0
  H  H1400  1  0.886500  0.361700  0.574000  1.0
  H  H1401  1  0.890100  0.166000  0.099100  1.0
  H  H1402  1  0.609900  0.166000  0.900900  1.0
  H  H1403  1  0.390100  0.666000  0.599100  1.0
  H  H1404  1  0.109900  0.666000  0.400900  1.0
  H  H1405  1  0.109900  0.834000  0.900900  1.0
  H  H1406  1  0.390100  0.834000  0.099100  1.0
  H  H1407  1  0.609900  0.334000  0.400900  1.0
  H  H1408  1  0.890100  0.334000  0.599100  1.0
  H  H1409  1  0.947800  0.219100  0.099400  1.0
  H  H1410  1  0.552200  0.219100  0.900600  1.0
  H  H1411  1  0.447800  0.719100  0.599400  1.0
  H  H1412  1  0.052200  0.719100  0.400600  1.0
  H  H1413  1  0.052200  0.780900  0.900600  1.0
  H  H1414  1  0.447800  0.780900  0.099400  1.0
  H  H1415  1  0.552200  0.280900  0.400600  1.0
  H  H1416  1  0.947800  0.280900  0.599400  1.0
  H  H1417  1  0.990200  0.211100  0.085700  1.0
  H  H1418  1  0.509800  0.211100  0.914300  1.0
  H  H1419  1  0.490200  0.711100  0.585700  1.0
  H  H1420  1  0.009800  0.711100  0.414300  1.0
  H  H1421  1  0.009800  0.788900  0.914300  1.0
  H  H1422  1  0.490200  0.788900  0.085700  1.0
  H  H1423  1  0.509800  0.288900  0.414300  1.0
  H  H1424  1  0.990200  0.288900  0.585700  1.0
  H  H1425  1  0.983600  0.191300  0.114000  1.0
  H  H1426  1  0.516400  0.191300  0.886000  1.0
  H  H1427  1  0.483600  0.691300  0.614000  1.0
  H  H1428  1  0.016400  0.691300  0.386000  1.0
  H  H1429  1  0.016400  0.808700  0.886000  1.0
  H  H1430  1  0.483600  0.808700  0.114000  1.0
  H  H1431  1  0.516400  0.308700  0.386000  1.0
  H  H1432  1  0.983600  0.308700  0.614000  1.0
  H  H1433  1  0.885600  0.204100  0.056300  1.0
  H  H1434  1  0.614400  0.204100  0.943700  1.0
  H  H1435  1  0.385600  0.704100  0.556300  1.0
  H  H1436  1  0.114400  0.704100  0.443700  1.0
  H  H1437  1  0.114400  0.795900  0.943700  1.0
  H  H1438  1  0.385600  0.795900  0.056300  1.0
  H  H1439  1  0.614400  0.295900  0.443700  1.0
  H  H1440  1  0.885600  0.295900  0.556300  1.0
  H  H1441  1  0.891300  0.173200  0.035500  1.0
  H  H1442  1  0.608700  0.173200  0.964500  1.0
  H  H1443  1  0.391300  0.673200  0.535500  1.0
  H  H1444  1  0.108700  0.673200  0.464500  1.0
  H  H1445  1  0.108700  0.826800  0.964500  1.0
  H  H1446  1  0.391300  0.826800  0.035500  1.0
  H  H1447  1  0.608700  0.326800  0.464500  1.0
  H  H1448  1  0.891300  0.326800  0.535500  1.0
  H  H1449  1  0.924900  0.204700  0.038800  1.0
  H  H1450  1  0.575100  0.204700  0.961200  1.0
  H  H1451  1  0.424900  0.704700  0.538800  1.0
  H  H1452  1  0.075100  0.704700  0.461200  1.0
  H  H1453  1  0.075100  0.795300  0.961200  1.0
  H  H1454  1  0.424900  0.795300  0.038800  1.0
  H  H1455  1  0.575100  0.295300  0.461200  1.0
  H  H1456  1  0.924900  0.295300  0.538800  1.0
  H  H1457  1  0.173800  0.219000  0.092500  1.0
  H  H1458  1  0.326200  0.219000  0.907500  1.0
  H  H1459  1  0.673800  0.719000  0.592500  1.0
  H  H1460  1  0.826200  0.719000  0.407500  1.0
  H  H1461  1  0.826200  0.781000  0.907500  1.0
  H  H1462  1  0.673800  0.781000  0.092500  1.0
  H  H1463  1  0.326200  0.281000  0.407500  1.0
  H  H1464  1  0.173800  0.281000  0.592500  1.0
  H  H1465  1  0.180300  0.199500  0.064000  1.0
  H  H1466  1  0.319700  0.199500  0.936000  1.0
  H  H1467  1  0.680300  0.699500  0.564000  1.0
  H  H1468  1  0.819700  0.699500  0.436000  1.0
  H  H1469  1  0.819700  0.800500  0.936000  1.0
  H  H1470  1  0.680300  0.800500  0.064000  1.0
  H  H1471  1  0.319700  0.300500  0.436000  1.0
  H  H1472  1  0.180300  0.300500  0.564000  1.0
  H  H1473  1  0.222900  0.214200  0.086400  1.0
  H  H1474  1  0.277100  0.214200  0.913600  1.0
  H  H1475  1  0.722900  0.714200  0.586400  1.0
  H  H1476  1  0.777100  0.714200  0.413600  1.0
  H  H1477  1  0.777100  0.785800  0.913600  1.0
  H  H1478  1  0.722900  0.785800  0.086400  1.0
  H  H1479  1  0.277100  0.285800  0.413600  1.0
  H  H1480  1  0.222900  0.285800  0.586400  1.0
  H  H1481  1  0.189500  0.175200  0.136100  1.0
  H  H1482  1  0.310500  0.175200  0.863900  1.0
  H  H1483  1  0.689500  0.675200  0.636100  1.0
  H  H1484  1  0.810500  0.675200  0.363900  1.0
  H  H1485  1  0.810500  0.824800  0.863900  1.0
  H  H1486  1  0.689500  0.824800  0.136100  1.0
  H  H1487  1  0.310500  0.324800  0.363900  1.0
  H  H1488  1  0.189500  0.324800  0.636100  1.0
  H  H1489  1  0.156200  0.198400  0.113300  1.0
  H  H1490  1  0.343800  0.198400  0.886700  1.0
  H  H1491  1  0.656200  0.698400  0.613300  1.0
  H  H1492  1  0.843800  0.698400  0.386700  1.0
  H  H1493  1  0.843800  0.801600  0.886700  1.0
  H  H1494  1  0.656200  0.801600  0.113300  1.0
  H  H1495  1  0.343800  0.301600  0.386700  1.0
  H  H1496  1  0.156200  0.301600  0.613300  1.0
  H  H1497  1  0.207300  0.209600  0.124600  1.0
  H  H1498  1  0.292700  0.209600  0.875400  1.0
  H  H1499  1  0.707300  0.709600  0.624600  1.0
  H  H1500  1  0.792700  0.709600  0.375400  1.0
  H  H1501  1  0.792700  0.790400  0.875400  1.0
  H  H1502  1  0.707300  0.790400  0.124600  1.0
  H  H1503  1  0.292700  0.290400  0.375400  1.0
  H  H1504  1  0.207300  0.290400  0.624600  1.0
  H  H1505  1  0.259800  0.177800  0.107700  1.0
  H  H1506  1  0.240200  0.177800  0.892300  1.0
  H  H1507  1  0.759800  0.677800  0.607700  1.0
  H  H1508  1  0.740200  0.677800  0.392300  1.0
  H  H1509  1  0.740200  0.822200  0.892300  1.0
  H  H1510  1  0.759800  0.822200  0.107700  1.0
  H  H1511  1  0.240200  0.322200  0.392300  1.0
  H  H1512  1  0.259800  0.322200  0.607700  1.0
  H  H1513  1  0.240100  0.142400  0.115900  1.0
  H  H1514  1  0.259900  0.142400  0.884100  1.0
  H  H1515  1  0.740100  0.642400  0.615900  1.0
  H  H1516  1  0.759900  0.642400  0.384100  1.0
  H  H1517  1  0.759900  0.857600  0.884100  1.0
  H  H1518  1  0.740100  0.857600  0.115900  1.0
  H  H1519  1  0.259900  0.357600  0.384100  1.0
  H  H1520  1  0.240100  0.357600  0.615900  1.0
  H  H1521  1  0.236900  0.175400  0.135100  1.0
  H  H1522  1  0.263100  0.175400  0.864900  1.0
  H  H1523  1  0.736900  0.675400  0.635100  1.0
  H  H1524  1  0.763100  0.675400  0.364900  1.0
  H  H1525  1  0.763100  0.824600  0.864900  1.0
  H  H1526  1  0.736900  0.824600  0.135100  1.0
  H  H1527  1  0.263100  0.324600  0.364900  1.0
  H  H1528  1  0.236900  0.324600  0.635100  1.0
  H  H1529  1  0.215000  0.039000  0.916600  1.0
  H  H1530  1  0.285000  0.039000  0.083400  1.0
  H  H1531  1  0.715000  0.539000  0.416600  1.0
  H  H1532  1  0.785000  0.539000  0.583400  1.0
  H  H1533  1  0.785000  0.961000  0.083400  1.0
  H  H1534  1  0.715000  0.961000  0.916600  1.0
  H  H1535  1  0.285000  0.461000  0.583400  1.0
  H  H1536  1  0.215000  0.461000  0.416600  1.0
  H  H1537  1  0.169300  0.019500  0.903300  1.0
  H  H1538  1  0.330700  0.019500  0.096700  1.0
  H  H1539  1  0.669300  0.519500  0.403300  1.0
  H  H1540  1  0.830700  0.519500  0.596700  1.0
  H  H1541  1  0.830700  0.980500  0.096700  1.0
  H  H1542  1  0.669300  0.980500  0.903300  1.0
  H  H1543  1  0.330700  0.480500  0.596700  1.0
  H  H1544  1  0.169300  0.480500  0.403300  1.0
  H  H1545  1  0.216400  0.001200  0.904600  1.0
  H  H1546  1  0.283600  0.001200  0.095400  1.0
  H  H1547  1  0.716400  0.501200  0.404600  1.0
  H  H1548  1  0.783600  0.501200  0.595400  1.0
  H  H1549  1  0.783600  0.998800  0.095400  1.0
  H  H1550  1  0.716400  0.998800  0.904600  1.0
  H  H1551  1  0.283600  0.498800  0.595400  1.0
  H  H1552  1  0.216400  0.498800  0.404600  1.0
  H  H1553  1  0.273500  0.015300  0.947200  1.0
  H  H1554  1  0.226500  0.015300  0.052800  1.0
  H  H1555  1  0.773500  0.515300  0.447200  1.0
  H  H1556  1  0.726500  0.515300  0.552800  1.0
  H  H1557  1  0.726500  0.984700  0.052800  1.0
  H  H1558  1  0.773500  0.984700  0.947200  1.0
  H  H1559  1  0.226500  0.484700  0.552800  1.0
  H  H1560  1  0.273500  0.484700  0.447200  1.0
  H  H1561  1  0.253700  0.036400  0.970600  1.0
  H  H1562  1  0.246300  0.036400  0.029400  1.0
  H  H1563  1  0.753700  0.536400  0.470600  1.0
  H  H1564  1  0.746300  0.536400  0.529400  1.0
  H  H1565  1  0.746300  0.963600  0.029400  1.0
  H  H1566  1  0.753700  0.963600  0.970600  1.0
  H  H1567  1  0.246300  0.463600  0.529400  1.0
  H  H1568  1  0.253700  0.463600  0.470600  1.0
  H  H1569  1  0.244100  0.048500  0.937500  1.0
  H  H1570  1  0.255900  0.048500  0.062500  1.0
  H  H1571  1  0.744100  0.548500  0.437500  1.0
  H  H1572  1  0.755900  0.548500  0.562500  1.0
  H  H1573  1  0.755900  0.951500  0.062500  1.0
  H  H1574  1  0.744100  0.951500  0.937500  1.0
  H  H1575  1  0.255900  0.451500  0.562500  1.0
  H  H1576  1  0.244100  0.451500  0.437500  1.0
  H  H1577  1  0.219900  0.956500  0.933900  1.0
  H  H1578  1  0.280100  0.956500  0.066100  1.0
  H  H1579  1  0.719900  0.456500  0.433900  1.0
  H  H1580  1  0.780100  0.456500  0.566100  1.0
  H  H1581  1  0.780100  0.043500  0.066100  1.0
  H  H1582  1  0.719900  0.043500  0.933900  1.0
  H  H1583  1  0.280100  0.543500  0.566100  1.0
  H  H1584  1  0.219900  0.543500  0.433900  1.0
  H  H1585  1  0.206600  0.958800  0.964800  1.0
  H  H1586  1  0.293400  0.958800  0.035200  1.0
  H  H1587  1  0.706600  0.458800  0.464800  1.0
  H  H1588  1  0.793400  0.458800  0.535200  1.0
  H  H1589  1  0.793400  0.041200  0.035200  1.0
  H  H1590  1  0.706600  0.041200  0.964800  1.0
  H  H1591  1  0.293400  0.541200  0.535200  1.0
  H  H1592  1  0.206600  0.541200  0.464800  1.0
  H  H1593  1  0.253000  0.974400  0.960500  1.0
  H  H1594  1  0.247000  0.974400  0.039500  1.0
  H  H1595  1  0.753000  0.474400  0.460500  1.0
  H  H1596  1  0.747000  0.474400  0.539500  1.0
  H  H1597  1  0.747000  0.025600  0.039500  1.0
  H  H1598  1  0.753000  0.025600  0.960500  1.0
  H  H1599  1  0.247000  0.525600  0.539500  1.0
  H  H1600  1  0.253000  0.525600  0.460500  1.0
  H  H1601  1  0.149300  0.192700  0.937700  1.0
  H  H1602  1  0.350700  0.192700  0.062300  1.0
  H  H1603  1  0.649300  0.692700  0.437700  1.0
  H  H1604  1  0.850700  0.692700  0.562300  1.0
  H  H1605  1  0.850700  0.807300  0.062300  1.0
  H  H1606  1  0.649300  0.807300  0.937700  1.0
  H  H1607  1  0.350700  0.307300  0.562300  1.0
  H  H1608  1  0.149300  0.307300  0.437700  1.0
  H  H1609  1  0.143800  0.186700  0.903600  1.0
  H  H1610  1  0.356200  0.186700  0.096400  1.0
  H  H1611  1  0.643800  0.686700  0.403600  1.0
  H  H1612  1  0.856200  0.686700  0.596400  1.0
  H  H1613  1  0.856200  0.813300  0.096400  1.0
  H  H1614  1  0.643800  0.813300  0.903600  1.0
  H  H1615  1  0.356200  0.313300  0.596400  1.0
  H  H1616  1  0.143800  0.313300  0.403600  1.0
  H  H1617  1  0.078700  0.170200  0.871300  1.0
  H  H1618  1  0.421300  0.170200  0.128700  1.0
  H  H1619  1  0.578700  0.670200  0.371300  1.0
  H  H1620  1  0.921300  0.670200  0.628700  1.0
  H  H1621  1  0.921300  0.829800  0.128700  1.0
  H  H1622  1  0.578700  0.829800  0.871300  1.0
  H  H1623  1  0.421300  0.329800  0.628700  1.0
  H  H1624  1  0.078700  0.329800  0.371300  1.0
  H  H1625  1  0.050600  0.145200  0.887300  1.0
  H  H1626  1  0.449400  0.145200  0.112700  1.0
  H  H1627  1  0.550600  0.645200  0.387300  1.0
  H  H1628  1  0.949400  0.645200  0.612700  1.0
  H  H1629  1  0.949400  0.854800  0.112700  1.0
  H  H1630  1  0.550600  0.854800  0.887300  1.0
  H  H1631  1  0.449400  0.354800  0.612700  1.0
  H  H1632  1  0.050600  0.354800  0.387300  1.0
  H  H1633  1  0.102200  0.137500  0.888100  1.0
  H  H1634  1  0.397800  0.137500  0.111900  1.0
  H  H1635  1  0.602200  0.637500  0.388100  1.0
  H  H1636  1  0.897800  0.637500  0.611900  1.0
  H  H1637  1  0.897800  0.862500  0.111900  1.0
  H  H1638  1  0.602200  0.862500  0.888100  1.0
  H  H1639  1  0.397800  0.362500  0.611900  1.0
  H  H1640  1  0.102200  0.362500  0.388100  1.0
  H  H1641  1  0.061200  0.215600  0.890900  1.0
  H  H1642  1  0.438800  0.215600  0.109100  1.0
  H  H1643  1  0.561200  0.715600  0.390900  1.0
  H  H1644  1  0.938800  0.715600  0.609100  1.0
  H  H1645  1  0.938800  0.784400  0.109100  1.0
  H  H1646  1  0.561200  0.784400  0.890900  1.0
  H  H1647  1  0.438800  0.284400  0.609100  1.0
  H  H1648  1  0.061200  0.284400  0.390900  1.0
  H  H1649  1  0.050900  0.217400  0.922600  1.0
  H  H1650  1  0.449100  0.217400  0.077400  1.0
  H  H1651  1  0.550900  0.717400  0.422600  1.0
  H  H1652  1  0.949100  0.717400  0.577400  1.0
  H  H1653  1  0.949100  0.782600  0.077400  1.0
  H  H1654  1  0.550900  0.782600  0.922600  1.0
  H  H1655  1  0.449100  0.282600  0.577400  1.0
  H  H1656  1  0.050900  0.282600  0.422600  1.0
  H  H1657  1  0.941700  0.170500  0.909000  1.0
  H  H1658  1  0.558300  0.170500  0.091000  1.0
  H  H1659  1  0.441700  0.670500  0.409000  1.0
  H  H1660  1  0.058300  0.670500  0.591000  1.0
  H  H1661  1  0.058300  0.829500  0.091000  1.0
  H  H1662  1  0.441700  0.829500  0.909000  1.0
  H  H1663  1  0.558300  0.329500  0.591000  1.0
  H  H1664  1  0.941700  0.329500  0.409000  1.0
  H  H1665  1  0.816300  0.001600  0.840300  1.0
  H  H1666  1  0.683700  0.001600  0.159700  1.0
  H  H1667  1  0.316300  0.501600  0.340300  1.0
  H  H1668  1  0.183700  0.501600  0.659700  1.0
  H  H1669  1  0.183700  0.998400  0.159700  1.0
  H  H1670  1  0.316300  0.998400  0.840300  1.0
  H  H1671  1  0.683700  0.498400  0.659700  1.0
  H  H1672  1  0.816300  0.498400  0.340300  1.0
  H  H1673  1  0.077500  0.999700  0.887400  1.0
  H  H1674  1  0.422500  0.999700  0.112600  1.0
  H  H1675  1  0.577500  0.499700  0.387400  1.0
  H  H1676  1  0.922500  0.499700  0.612600  1.0
  H  H1677  1  0.922500  0.000300  0.112600  1.0
  H  H1678  1  0.577500  0.000300  0.887400  1.0
  H  H1679  1  0.422500  0.500300  0.612600  1.0
  H  H1680  1  0.077500  0.500300  0.387400  1.0
  H  H1681  1  0.030800  0.167300  0.081200  1.0
  H  H1682  1  0.469200  0.167300  0.918800  1.0
  H  H1683  1  0.530800  0.667300  0.581200  1.0
  H  H1684  1  0.969200  0.667300  0.418800  1.0
  H  H1685  1  0.969200  0.832700  0.918800  1.0
  H  H1686  1  0.530800  0.832700  0.081200  1.0
  H  H1687  1  0.469200  0.332700  0.418800  1.0
  H  H1688  1  0.030800  0.332700  0.581200  1.0
  H  H1689  1  0.918000  0.116700  0.041300  1.0
  H  H1690  1  0.582000  0.116700  0.958700  1.0
  H  H1691  1  0.418000  0.616700  0.541300  1.0
  H  H1692  1  0.082000  0.616700  0.458700  1.0
  H  H1693  1  0.082000  0.883300  0.958700  1.0
  H  H1694  1  0.418000  0.883300  0.041300  1.0
  H  H1695  1  0.582000  0.383300  0.458700  1.0
  H  H1696  1  0.918000  0.383300  0.541300  1.0
  H  H1697  1  0.963000  0.081200  0.019100  1.0
  H  H1698  1  0.537000  0.081200  0.980900  1.0
  H  H1699  1  0.463000  0.581200  0.519100  1.0
  H  H1700  1  0.037000  0.581200  0.480900  1.0
  H  H1701  1  0.037000  0.918800  0.980900  1.0
  H  H1702  1  0.463000  0.918800  0.019100  1.0
  H  H1703  1  0.537000  0.418800  0.480900  1.0
  H  H1704  1  0.963000  0.418800  0.519100  1.0
  H  H1705  1  0.106000  0.168600  0.087700  1.0
  H  H1706  1  0.394000  0.168600  0.912300  1.0
  H  H1707  1  0.606000  0.668600  0.587700  1.0
  H  H1708  1  0.894000  0.668600  0.412300  1.0
  H  H1709  1  0.894000  0.831400  0.912300  1.0
  H  H1710  1  0.606000  0.831400  0.087700  1.0
  H  H1711  1  0.394000  0.331400  0.412300  1.0
  H  H1712  1  0.106000  0.331400  0.587700  1.0
  H  H1713  1  0.215700  0.118400  0.072900  1.0
  H  H1714  1  0.284300  0.118400  0.927100  1.0
  H  H1715  1  0.715700  0.618400  0.572900  1.0
  H  H1716  1  0.784300  0.618400  0.427100  1.0
  H  H1717  1  0.784300  0.881600  0.927100  1.0
  H  H1718  1  0.715700  0.881600  0.072900  1.0
  H  H1719  1  0.284300  0.381600  0.427100  1.0
  H  H1720  1  0.215700  0.381600  0.572900  1.0
  H  H1721  1  0.167400  0.080100  0.044400  1.0
  H  H1722  1  0.332600  0.080100  0.955600  1.0
  H  H1723  1  0.667400  0.580100  0.544400  1.0
  H  H1724  1  0.832600  0.580100  0.455600  1.0
  H  H1725  1  0.832600  0.919900  0.955600  1.0
  H  H1726  1  0.667400  0.919900  0.044400  1.0
  H  H1727  1  0.332600  0.419900  0.455600  1.0
  H  H1728  1  0.167400  0.419900  0.544400  1.0
  H  H1729  1  0.153000  0.064500  0.939300  1.0
  H  H1730  1  0.347000  0.064500  0.060700  1.0
  H  H1731  1  0.653000  0.564500  0.439300  1.0
  H  H1732  1  0.847000  0.564500  0.560700  1.0
  H  H1733  1  0.847000  0.935500  0.060700  1.0
  H  H1734  1  0.653000  0.935500  0.939300  1.0
  H  H1735  1  0.347000  0.435500  0.560700  1.0
  H  H1736  1  0.153000  0.435500  0.439300  1.0
  H  H1737  1  0.169800  0.978800  0.989600  1.0
  H  H1738  1  0.330200  0.978800  0.010400  1.0
  H  H1739  1  0.669800  0.478800  0.489600  1.0
  H  H1740  1  0.830200  0.478800  0.510400  1.0
  H  H1741  1  0.830200  0.021200  0.010400  1.0
  H  H1742  1  0.669800  0.021200  0.989600  1.0
  H  H1743  1  0.330200  0.521200  0.510400  1.0
  H  H1744  1  0.169800  0.521200  0.489600  1.0
  H  H1745  1  0.120400  0.002700  0.016400  1.0
  H  H1746  1  0.379600  0.002700  0.983600  1.0
  H  H1747  1  0.620400  0.502700  0.516400  1.0
  H  H1748  1  0.879600  0.502700  0.483600  1.0
  H  H1749  1  0.879600  0.997300  0.983600  1.0
  H  H1750  1  0.620400  0.997300  0.016400  1.0
  H  H1751  1  0.379600  0.497300  0.483600  1.0
  H  H1752  1  0.120400  0.497300  0.516400  1.0
  H  H1753  1  0.126000  0.113700  0.932600  1.0
  H  H1754  1  0.374000  0.113700  0.067400  1.0
  H  H1755  1  0.626000  0.613700  0.432600  1.0
  H  H1756  1  0.874000  0.613700  0.567400  1.0
  H  H1757  1  0.874000  0.886300  0.067400  1.0
  H  H1758  1  0.626000  0.886300  0.932600  1.0
  H  H1759  1  0.374000  0.386300  0.567400  1.0
  H  H1760  1  0.126000  0.386300  0.432600  1.0
  H  H1761  1  0.050400  0.186700  0.962000  1.0
  H  H1762  1  0.449600  0.186700  0.038000  1.0
  H  H1763  1  0.550400  0.686700  0.462000  1.0
  H  H1764  1  0.949600  0.686700  0.538000  1.0
  H  H1765  1  0.949600  0.813300  0.038000  1.0
  H  H1766  1  0.550400  0.813300  0.962000  1.0
  H  H1767  1  0.449600  0.313300  0.538000  1.0
  H  H1768  1  0.050400  0.313300  0.462000  1.0
  H  H1769  1  0.041300  0.150200  0.998500  1.0
  H  H1770  1  0.458700  0.150200  0.001500  1.0
  H  H1771  1  0.541300  0.650200  0.498500  1.0
  H  H1772  1  0.958700  0.650200  0.501500  1.0
  H  H1773  1  0.958700  0.849800  0.001500  1.0
  H  H1774  1  0.541300  0.849800  0.998500  1.0
  H  H1775  1  0.458700  0.349800  0.501500  1.0
  H  H1776  1  0.041300  0.349800  0.498500  1.0
  H  H1777  1  0.940700  0.105400  0.967700  1.0
  H  H1778  1  0.559300  0.105400  0.032300  1.0
  H  H1779  1  0.440700  0.605400  0.467700  1.0
  H  H1780  1  0.059300  0.605400  0.532300  1.0
  H  H1781  1  0.059300  0.894600  0.032300  1.0
  H  H1782  1  0.440700  0.894600  0.967700  1.0
  H  H1783  1  0.559300  0.394600  0.532300  1.0
  H  H1784  1  0.940700  0.394600  0.467700  1.0
  H  H1785  1  0.914000  0.140300  0.960800  1.0
  H  H1786  1  0.586000  0.140300  0.039200  1.0
  H  H1787  1  0.414000  0.640300  0.460800  1.0
  H  H1788  1  0.086000  0.640300  0.539200  1.0
  H  H1789  1  0.086000  0.859700  0.039200  1.0
  H  H1790  1  0.414000  0.859700  0.960800  1.0
  H  H1791  1  0.586000  0.359700  0.539200  1.0
  H  H1792  1  0.914000  0.359700  0.460800  1.0
  H  H1793  1  0.967600  0.140200  0.968200  1.0
  H  H1794  1  0.532400  0.140200  0.031800  1.0
  H  H1795  1  0.467600  0.640200  0.468200  1.0
  H  H1796  1  0.032400  0.640200  0.531800  1.0
  H  H1797  1  0.032400  0.859800  0.031800  1.0
  H  H1798  1  0.467600  0.859800  0.968200  1.0
  H  H1799  1  0.532400  0.359800  0.531800  1.0
  H  H1800  1  0.967600  0.359800  0.468200  1.0
  H  H1801  1  0.848900  0.003100  0.923600  1.0
  H  H1802  1  0.651100  0.003100  0.076400  1.0
  H  H1803  1  0.348900  0.503100  0.423600  1.0
  H  H1804  1  0.151100  0.503100  0.576400  1.0
  H  H1805  1  0.151100  0.996900  0.076400  1.0
  H  H1806  1  0.348900  0.996900  0.923600  1.0
  H  H1807  1  0.651100  0.496900  0.576400  1.0
  H  H1808  1  0.848900  0.496900  0.423600  1.0
  H  H1809  1  0.829700  0.973700  0.901000  1.0
  H  H1810  1  0.670300  0.973700  0.099000  1.0
  H  H1811  1  0.329700  0.473700  0.401000  1.0
  H  H1812  1  0.170300  0.473700  0.599000  1.0
  H  H1813  1  0.170300  0.026300  0.099000  1.0
  H  H1814  1  0.329700  0.026300  0.901000  1.0
  H  H1815  1  0.670300  0.526300  0.599000  1.0
  H  H1816  1  0.829700  0.526300  0.401000  1.0
  H  H1817  1  0.801600  0.007700  0.901800  1.0
  H  H1818  1  0.698400  0.007700  0.098200  1.0
  H  H1819  1  0.301600  0.507700  0.401800  1.0
  H  H1820  1  0.198400  0.507700  0.598200  1.0
  H  H1821  1  0.198400  0.992300  0.098200  1.0
  H  H1822  1  0.301600  0.992300  0.901800  1.0
  H  H1823  1  0.698400  0.492300  0.598200  1.0
  H  H1824  1  0.801600  0.492300  0.401800  1.0
  H  H1825  1  0.901700  0.055100  0.810100  1.0
  H  H1826  1  0.598300  0.055100  0.189900  1.0
  H  H1827  1  0.401700  0.555100  0.310100  1.0
  H  H1828  1  0.098300  0.555100  0.689900  1.0
  H  H1829  1  0.098300  0.944900  0.189900  1.0
  H  H1830  1  0.401700  0.944900  0.810100  1.0
  H  H1831  1  0.598300  0.444900  0.689900  1.0
  H  H1832  1  0.901700  0.444900  0.310100  1.0
  H  H1833  1  0.848100  0.054400  0.800400  1.0
  H  H1834  1  0.651900  0.054400  0.199600  1.0
  H  H1835  1  0.348100  0.554400  0.300400  1.0
  H  H1836  1  0.151900  0.554400  0.699600  1.0
  H  H1837  1  0.151900  0.945600  0.199600  1.0
  H  H1838  1  0.348100  0.945600  0.800400  1.0
  H  H1839  1  0.651900  0.445600  0.699600  1.0
  H  H1840  1  0.848100  0.445600  0.300400  1.0
  H  H1841  1  0.876300  0.020600  0.798900  1.0
  H  H1842  1  0.623700  0.020600  0.201100  1.0
  H  H1843  1  0.376300  0.520600  0.298900  1.0
  H  H1844  1  0.123700  0.520600  0.701100  1.0
  H  H1845  1  0.123700  0.979400  0.201100  1.0
  H  H1846  1  0.376300  0.979400  0.798900  1.0
  H  H1847  1  0.623700  0.479400  0.701100  1.0
  H  H1848  1  0.876300  0.479400  0.298900  1.0
  H  H1849  1  0.942500  0.127100  0.837200  1.0
  H  H1850  1  0.557500  0.127100  0.162800  1.0
  H  H1851  1  0.442500  0.627100  0.337200  1.0
  H  H1852  1  0.057500  0.627100  0.662800  1.0
  H  H1853  1  0.057500  0.872900  0.162800  1.0
  H  H1854  1  0.442500  0.872900  0.837200  1.0
  H  H1855  1  0.557500  0.372900  0.662800  1.0
  H  H1856  1  0.942500  0.372900  0.337200  1.0
  H  H1857  1  0.963100  0.162600  0.849900  1.0
  H  H1858  1  0.536900  0.162600  0.150100  1.0
  H  H1859  1  0.463100  0.662600  0.349900  1.0
  H  H1860  1  0.036900  0.662600  0.650100  1.0
  H  H1861  1  0.036900  0.837400  0.150100  1.0
  H  H1862  1  0.463100  0.837400  0.849900  1.0
  H  H1863  1  0.536900  0.337400  0.650100  1.0
  H  H1864  1  0.963100  0.337400  0.349900  1.0
  H  H1865  1  0.910000  0.156900  0.843000  1.0
  H  H1866  1  0.590000  0.156900  0.157000  1.0
  H  H1867  1  0.410000  0.656900  0.343000  1.0
  H  H1868  1  0.090000  0.656900  0.657000  1.0
  H  H1869  1  0.090000  0.843100  0.157000  1.0
  H  H1870  1  0.410000  0.843100  0.843000  1.0
  H  H1871  1  0.590000  0.343100  0.657000  1.0
  H  H1872  1  0.910000  0.343100  0.343000  1.0
  H  H1873  1  0.020700  0.988900  0.952000  1.0
  H  H1874  1  0.479300  0.988900  0.048000  1.0
  H  H1875  1  0.520700  0.488900  0.452000  1.0
  H  H1876  1  0.979300  0.488900  0.548000  1.0
  H  H1877  1  0.979300  0.011100  0.048000  1.0
  H  H1878  1  0.520700  0.011100  0.952000  1.0
  H  H1879  1  0.479300  0.511100  0.548000  1.0
  H  H1880  1  0.020700  0.511100  0.452000  1.0
  H  H1881  1  0.071900  0.992600  0.949500  1.0
  H  H1882  1  0.428100  0.992600  0.050500  1.0
  H  H1883  1  0.571900  0.492600  0.449500  1.0
  H  H1884  1  0.928100  0.492600  0.550500  1.0
  H  H1885  1  0.928100  0.007400  0.050500  1.0
  H  H1886  1  0.571900  0.007400  0.949500  1.0
  H  H1887  1  0.428100  0.507400  0.550500  1.0
  H  H1888  1  0.071900  0.507400  0.449500  1.0
  H  H1889  1  0.042100  0.962100  0.933400  1.0
  H  H1890  1  0.457900  0.962100  0.066600  1.0
  H  H1891  1  0.542100  0.462100  0.433400  1.0
  H  H1892  1  0.957900  0.462100  0.566600  1.0
  H  H1893  1  0.957900  0.037900  0.066600  1.0
  H  H1894  1  0.542100  0.037900  0.933400  1.0
  H  H1895  1  0.457900  0.537900  0.566600  1.0
  H  H1896  1  0.042100  0.537900  0.433400  1.0
  H  H1897  1  0.011800  0.060800  0.830900  1.0
  H  H1898  1  0.488200  0.060800  0.169100  1.0
  H  H1899  1  0.511800  0.560800  0.330900  1.0
  H  H1900  1  0.988200  0.560800  0.669100  1.0
  H  H1901  1  0.988200  0.939200  0.169100  1.0
  H  H1902  1  0.511800  0.939200  0.830900  1.0
  H  H1903  1  0.488200  0.439200  0.669100  1.0
  H  H1904  1  0.011800  0.439200  0.330900  1.0
  H  H1905  1  0.035600  0.025700  0.826700  1.0
  H  H1906  1  0.464400  0.025700  0.173300  1.0
  H  H1907  1  0.535600  0.525700  0.326700  1.0
  H  H1908  1  0.964400  0.525700  0.673300  1.0
  H  H1909  1  0.964400  0.974300  0.173300  1.0
  H  H1910  1  0.535600  0.974300  0.826700  1.0
  H  H1911  1  0.464400  0.474300  0.673300  1.0
  H  H1912  1  0.035600  0.474300  0.326700  1.0
  H  H1913  1  0.064400  0.056300  0.843300  1.0
  H  H1914  1  0.435600  0.056300  0.156700  1.0
  H  H1915  1  0.564400  0.556300  0.343300  1.0
  H  H1916  1  0.935600  0.556300  0.656700  1.0
  H  H1917  1  0.935600  0.943700  0.156700  1.0
  H  H1918  1  0.564400  0.943700  0.843300  1.0
  H  H1919  1  0.435600  0.443700  0.656700  1.0
  H  H1920  1  0.064400  0.443700  0.343300  1.0
  H  H1921  1  0.947900  0.076400  0.845800  1.0
  H  H1922  1  0.552100  0.076400  0.154200  1.0
  H  H1923  1  0.447900  0.576400  0.345800  1.0
  H  H1924  1  0.052100  0.576400  0.654200  1.0
  H  H1925  1  0.052100  0.923600  0.154200  1.0
  H  H1926  1  0.447900  0.923600  0.845800  1.0
  H  H1927  1  0.552100  0.423600  0.654200  1.0
  H  H1928  1  0.947900  0.423600  0.345800  1.0
  H  H1929  1  0.639900  0.580900  0.347100  1.0
  H  H1930  1  0.860100  0.580900  0.652900  1.0
  H  H1931  1  0.139900  0.080900  0.847100  1.0
  H  H1932  1  0.360100  0.080900  0.152900  1.0
  H  H1933  1  0.360100  0.419100  0.652900  1.0
  H  H1934  1  0.139900  0.419100  0.347100  1.0
  H  H1935  1  0.860100  0.919100  0.152900  1.0
  H  H1936  1  0.639900  0.919100  0.847100  1.0
  H  H1937  1  0.649600  0.615500  0.331900  1.0
  H  H1938  1  0.850400  0.615500  0.668100  1.0
  H  H1939  1  0.149600  0.115500  0.831900  1.0
  H  H1940  1  0.350400  0.115500  0.168100  1.0
  H  H1941  1  0.350400  0.384500  0.668100  1.0
  H  H1942  1  0.149600  0.384500  0.331900  1.0
  H  H1943  1  0.850400  0.884500  0.168100  1.0
  H  H1944  1  0.649600  0.884500  0.831900  1.0
  H  H1945  1  0.682800  0.603300  0.361100  1.0
  H  H1946  1  0.817200  0.603300  0.638900  1.0
  H  H1947  1  0.182800  0.103300  0.861100  1.0
  H  H1948  1  0.317200  0.103300  0.138900  1.0
  H  H1949  1  0.317200  0.396700  0.638900  1.0
  H  H1950  1  0.182800  0.396700  0.361100  1.0
  H  H1951  1  0.817200  0.896700  0.138900  1.0
  H  H1952  1  0.682800  0.896700  0.861100  1.0
  H  H1953  1  0.736100  0.541300  0.332600  1.0
  H  H1954  1  0.763900  0.541300  0.667400  1.0
  H  H1955  1  0.236100  0.041300  0.832600  1.0
  H  H1956  1  0.263900  0.041300  0.167400  1.0
  H  H1957  1  0.263900  0.458700  0.667400  1.0
  H  H1958  1  0.236100  0.458700  0.332600  1.0
  H  H1959  1  0.763900  0.958700  0.167400  1.0
  H  H1960  1  0.736100  0.958700  0.832600  1.0
  H  H1961  1  0.691100  0.532700  0.343200  1.0
  H  H1962  1  0.808900  0.532700  0.656800  1.0
  H  H1963  1  0.191100  0.032700  0.843200  1.0
  H  H1964  1  0.308900  0.032700  0.156800  1.0
  H  H1965  1  0.308900  0.467300  0.656800  1.0
  H  H1966  1  0.191100  0.467300  0.343200  1.0
  H  H1967  1  0.808900  0.967300  0.156800  1.0
  H  H1968  1  0.691100  0.967300  0.843200  1.0
  H  H1969  1  0.726100  0.559200  0.360900  1.0
  H  H1970  1  0.773900  0.559200  0.639100  1.0
  H  H1971  1  0.226100  0.059200  0.860900  1.0
  H  H1972  1  0.273900  0.059200  0.139100  1.0
  H  H1973  1  0.273900  0.440800  0.639100  1.0
  H  H1974  1  0.226100  0.440800  0.360900  1.0
  H  H1975  1  0.773900  0.940800  0.139100  1.0
  H  H1976  1  0.726100  0.940800  0.860900  1.0
  H  H1977  1  0.638900  0.542600  0.304900  1.0
  H  H1978  1  0.861100  0.542600  0.695100  1.0
  H  H1979  1  0.138900  0.042600  0.804900  1.0
  H  H1980  1  0.361100  0.042600  0.195100  1.0
  H  H1981  1  0.361100  0.457400  0.695100  1.0
  H  H1982  1  0.138900  0.457400  0.304900  1.0
  H  H1983  1  0.861100  0.957400  0.195100  1.0
  H  H1984  1  0.638900  0.957400  0.804900  1.0
  H  H1985  1  0.674100  0.549300  0.284900  1.0
  H  H1986  1  0.825900  0.549300  0.715100  1.0
  H  H1987  1  0.174100  0.049300  0.784900  1.0
  H  H1988  1  0.325900  0.049300  0.215100  1.0
  H  H1989  1  0.325900  0.450700  0.715100  1.0
  H  H1990  1  0.174100  0.450700  0.284900  1.0
  H  H1991  1  0.825900  0.950700  0.215100  1.0
  H  H1992  1  0.674100  0.950700  0.784900  1.0
  H  H1993  1  0.637700  0.577600  0.287500  1.0
  H  H1994  1  0.862300  0.577600  0.712500  1.0
  H  H1995  1  0.137700  0.077600  0.787500  1.0
  H  H1996  1  0.362300  0.077600  0.212500  1.0
  H  H1997  1  0.362300  0.422400  0.712500  1.0
  H  H1998  1  0.137700  0.422400  0.287500  1.0
  H  H1999  1  0.862300  0.922400  0.212500  1.0
  H  H2000  1  0.637700  0.922400  0.787500  1.0
  H  H2001  1  0.957500  0.543600  0.384200  1.0
  H  H2002  1  0.542500  0.543600  0.615800  1.0
  H  H2003  1  0.457500  0.043600  0.884200  1.0
  H  H2004  1  0.042500  0.043600  0.115800  1.0
  H  H2005  1  0.042500  0.456400  0.615800  1.0
  H  H2006  1  0.457500  0.456400  0.384200  1.0
  H  H2007  1  0.542500  0.956400  0.115800  1.0
  H  H2008  1  0.957500  0.956400  0.884200  1.0
  H  H2009  1  0.906900  0.547000  0.366300  1.0
  H  H2010  1  0.593100  0.547000  0.633700  1.0
  H  H2011  1  0.406900  0.047000  0.866300  1.0
  H  H2012  1  0.093100  0.047000  0.133700  1.0
  H  H2013  1  0.093100  0.453000  0.633700  1.0
  H  H2014  1  0.406900  0.453000  0.366300  1.0
  H  H2015  1  0.593100  0.953000  0.133700  1.0
  H  H2016  1  0.906900  0.953000  0.866300  1.0
  H  H2017  1  0.929600  0.577400  0.386800  1.0
  H  H2018  1  0.570400  0.577400  0.613200  1.0
  H  H2019  1  0.429600  0.077400  0.886800  1.0
  H  H2020  1  0.070400  0.077400  0.113200  1.0
  H  H2021  1  0.070400  0.422600  0.613200  1.0
  H  H2022  1  0.429600  0.422600  0.386800  1.0
  H  H2023  1  0.570400  0.922600  0.113200  1.0
  H  H2024  1  0.929600  0.922600  0.886800  1.0
  H  H2025  1  0.011000  0.573900  0.343600  1.0
  H  H2026  1  0.489000  0.573900  0.656400  1.0
  H  H2027  1  0.511000  0.073900  0.843600  1.0
  H  H2028  1  0.989000  0.073900  0.156400  1.0
  H  H2029  1  0.989000  0.426100  0.656400  1.0
  H  H2030  1  0.511000  0.426100  0.343600  1.0
  H  H2031  1  0.489000  0.926100  0.156400  1.0
  H  H2032  1  0.011000  0.926100  0.843600  1.0
  H  H2033  1  0.009800  0.569400  0.377100  1.0
  H  H2034  1  0.490200  0.569400  0.622900  1.0
  H  H2035  1  0.509800  0.069400  0.877100  1.0
  H  H2036  1  0.990200  0.069400  0.122900  1.0
  H  H2037  1  0.990200  0.430600  0.622900  1.0
  H  H2038  1  0.509800  0.430600  0.377100  1.0
  H  H2039  1  0.490200  0.930600  0.122900  1.0
  H  H2040  1  0.009800  0.930600  0.877100  1.0
  H  H2041  1  0.999900  0.605600  0.361900  1.0
  H  H2042  1  0.500100  0.605600  0.638100  1.0
  H  H2043  1  0.499900  0.105600  0.861900  1.0
  H  H2044  1  0.000100  0.105600  0.138100  1.0
  H  H2045  1  0.000100  0.394400  0.638100  1.0
  H  H2046  1  0.499900  0.394400  0.361900  1.0
  H  H2047  1  0.500100  0.894400  0.138100  1.0
  H  H2048  1  0.999900  0.894400  0.861900  1.0
  H  H2049  1  0.971600  0.527800  0.340400  1.0
  H  H2050  1  0.528400  0.527800  0.659600  1.0
  H  H2051  1  0.471600  0.027800  0.840400  1.0
  H  H2052  1  0.028400  0.027800  0.159600  1.0
  H  H2053  1  0.028400  0.472200  0.659600  1.0
  H  H2054  1  0.471600  0.472200  0.340400  1.0
  H  H2055  1  0.528400  0.972200  0.159600  1.0
  H  H2056  1  0.971600  0.972200  0.840400  1.0
  H  H2057  1  0.955000  0.552300  0.313200  1.0
  H  H2058  1  0.545000  0.552300  0.686800  1.0
  H  H2059  1  0.455000  0.052300  0.813200  1.0
  H  H2060  1  0.045000  0.052300  0.186800  1.0
  H  H2061  1  0.045000  0.447700  0.686800  1.0
  H  H2062  1  0.455000  0.447700  0.313200  1.0
  H  H2063  1  0.545000  0.947700  0.186800  1.0
  H  H2064  1  0.955000  0.947700  0.813200  1.0
  H  H2065  1  0.919200  0.533700  0.328100  1.0
  H  H2066  1  0.580800  0.533700  0.671900  1.0
  H  H2067  1  0.419200  0.033700  0.828100  1.0
  H  H2068  1  0.080800  0.033700  0.171900  1.0
  H  H2069  1  0.080800  0.466300  0.671900  1.0
  H  H2070  1  0.419200  0.466300  0.328100  1.0
  H  H2071  1  0.580800  0.966300  0.171900  1.0
  H  H2072  1  0.919200  0.966300  0.828100  1.0
  H  H2073  1  0.824600  0.579300  0.120400  1.0
  H  H2074  1  0.675400  0.579300  0.879600  1.0
  H  H2075  1  0.324600  0.079300  0.620400  1.0
  H  H2076  1  0.175400  0.079300  0.379600  1.0
  H  H2077  1  0.175400  0.420700  0.879600  1.0
  H  H2078  1  0.324600  0.420700  0.120400  1.0
  H  H2079  1  0.675400  0.920700  0.379600  1.0
  H  H2080  1  0.824600  0.920700  0.620400  1.0
  H  H2081  1  0.847400  0.613000  0.135500  1.0
  H  H2082  1  0.652600  0.613000  0.864500  1.0
  H  H2083  1  0.347400  0.113000  0.635500  1.0
  H  H2084  1  0.152600  0.113000  0.364500  1.0
  H  H2085  1  0.152600  0.387000  0.864500  1.0
  H  H2086  1  0.347400  0.387000  0.135500  1.0
  H  H2087  1  0.652600  0.887000  0.364500  1.0
  H  H2088  1  0.847400  0.887000  0.635500  1.0
  H  H2089  1  0.796800  0.604400  0.136600  1.0
  H  H2090  1  0.703200  0.604400  0.863400  1.0
  H  H2091  1  0.296800  0.104400  0.636600  1.0
  H  H2092  1  0.203200  0.104400  0.363400  1.0
  H  H2093  1  0.203200  0.395600  0.863400  1.0
  H  H2094  1  0.296800  0.395600  0.136600  1.0
  H  H2095  1  0.703200  0.895600  0.363400  1.0
  H  H2096  1  0.796800  0.895600  0.636600  1.0
  H  H2097  1  0.818100  0.538000  0.141800  1.0
  H  H2098  1  0.681900  0.538000  0.858200  1.0
  H  H2099  1  0.318100  0.038000  0.641800  1.0
  H  H2100  1  0.181900  0.038000  0.358200  1.0
  H  H2101  1  0.181900  0.462000  0.858200  1.0
  H  H2102  1  0.318100  0.462000  0.141800  1.0
  H  H2103  1  0.681900  0.962000  0.358200  1.0
  H  H2104  1  0.818100  0.962000  0.641800  1.0
  H  H2105  1  0.827800  0.526000  0.174900  1.0
  H  H2106  1  0.672200  0.526000  0.825100  1.0
  H  H2107  1  0.327800  0.026000  0.674900  1.0
  H  H2108  1  0.172200  0.026000  0.325100  1.0
  H  H2109  1  0.172200  0.474000  0.825100  1.0
  H  H2110  1  0.327800  0.474000  0.174900  1.0
  H  H2111  1  0.672200  0.974000  0.325100  1.0
  H  H2112  1  0.827800  0.974000  0.674900  1.0
  H  H2113  1  0.868300  0.529700  0.158500  1.0
  H  H2114  1  0.631700  0.529700  0.841500  1.0
  H  H2115  1  0.368300  0.029700  0.658500  1.0
  H  H2116  1  0.131700  0.029700  0.341500  1.0
  H  H2117  1  0.131700  0.470300  0.841500  1.0
  H  H2118  1  0.368300  0.470300  0.158500  1.0
  H  H2119  1  0.631700  0.970300  0.341500  1.0
  H  H2120  1  0.868300  0.970300  0.658500  1.0
  H  H2121  1  0.914500  0.558800  0.167700  1.0
  H  H2122  1  0.585500  0.558800  0.832300  1.0
  H  H2123  1  0.414500  0.058800  0.667700  1.0
  H  H2124  1  0.085500  0.058800  0.332300  1.0
  H  H2125  1  0.085500  0.441200  0.832300  1.0
  H  H2126  1  0.414500  0.441200  0.167700  1.0
  H  H2127  1  0.585500  0.941200  0.332300  1.0
  H  H2128  1  0.914500  0.941200  0.667700  1.0
  H  H2129  1  0.906200  0.598800  0.164100  1.0
  H  H2130  1  0.593800  0.598800  0.835900  1.0
  H  H2131  1  0.406200  0.098800  0.664100  1.0
  H  H2132  1  0.093800  0.098800  0.335900  1.0
  H  H2133  1  0.093800  0.401200  0.835900  1.0
  H  H2134  1  0.406200  0.401200  0.164100  1.0
  H  H2135  1  0.593800  0.901200  0.335900  1.0
  H  H2136  1  0.906200  0.901200  0.664100  1.0
  H  H2137  1  0.888000  0.573900  0.137400  1.0
  H  H2138  1  0.612000  0.573900  0.862600  1.0
  H  H2139  1  0.388000  0.073900  0.637400  1.0
  H  H2140  1  0.112000  0.073900  0.362600  1.0
  H  H2141  1  0.112000  0.426100  0.862600  1.0
  H  H2142  1  0.388000  0.426100  0.137400  1.0
  H  H2143  1  0.612000  0.926100  0.362600  1.0
  H  H2144  1  0.888000  0.926100  0.637400  1.0
  H  H2145  1  0.025500  0.739600  0.195700  1.0
  H  H2146  1  0.474500  0.739600  0.804300  1.0
  H  H2147  1  0.525500  0.239600  0.695700  1.0
  H  H2148  1  0.974500  0.239600  0.304300  1.0
  H  H2149  1  0.974500  0.260400  0.804300  1.0
  H  H2150  1  0.525500  0.260400  0.195700  1.0
  H  H2151  1  0.474500  0.760400  0.304300  1.0
  H  H2152  1  0.025500  0.760400  0.695700  1.0
  H  H2153  1  0.000900  0.703600  0.191600  1.0
  H  H2154  1  0.499100  0.703600  0.808400  1.0
  H  H2155  1  0.500900  0.203600  0.691600  1.0
  H  H2156  1  0.999100  0.203600  0.308400  1.0
  H  H2157  1  0.999100  0.296400  0.808400  1.0
  H  H2158  1  0.500900  0.296400  0.191600  1.0
  H  H2159  1  0.499100  0.796400  0.308400  1.0
  H  H2160  1  0.000900  0.796400  0.691600  1.0
  H  H2161  1  0.010000  0.722000  0.222500  1.0
  H  H2162  1  0.490000  0.722000  0.777500  1.0
  H  H2163  1  0.510000  0.222000  0.722500  1.0
  H  H2164  1  0.990000  0.222000  0.277500  1.0
  H  H2165  1  0.990000  0.278000  0.777500  1.0
  H  H2166  1  0.510000  0.278000  0.222500  1.0
  H  H2167  1  0.490000  0.778000  0.277500  1.0
  H  H2168  1  0.010000  0.778000  0.722500  1.0
  H  H2169  1  0.000100  0.781000  0.193100  1.0
  H  H2170  1  0.499900  0.781000  0.806900  1.0
  H  H2171  1  0.500100  0.281000  0.693100  1.0
  H  H2172  1  0.999900  0.281000  0.306900  1.0
  H  H2173  1  0.999900  0.219000  0.806900  1.0
  H  H2174  1  0.500100  0.219000  0.193100  1.0
  H  H2175  1  0.499900  0.719000  0.306900  1.0
  H  H2176  1  0.000100  0.719000  0.693100  1.0
  H  H2177  1  0.977800  0.783300  0.220700  1.0
  H  H2178  1  0.522200  0.783300  0.779300  1.0
  H  H2179  1  0.477800  0.283300  0.720700  1.0
  H  H2180  1  0.022200  0.283300  0.279300  1.0
  H  H2181  1  0.022200  0.216700  0.779300  1.0
  H  H2182  1  0.477800  0.216700  0.220700  1.0
  H  H2183  1  0.522200  0.716700  0.279300  1.0
  H  H2184  1  0.977800  0.716700  0.720700  1.0
  H  H2185  1  0.952400  0.798900  0.190300  1.0
  H  H2186  1  0.547600  0.798900  0.809700  1.0
  H  H2187  1  0.452400  0.298900  0.690300  1.0
  H  H2188  1  0.047600  0.298900  0.309700  1.0
  H  H2189  1  0.047600  0.201100  0.809700  1.0
  H  H2190  1  0.452400  0.201100  0.190300  1.0
  H  H2191  1  0.547600  0.701100  0.309700  1.0
  H  H2192  1  0.952400  0.701100  0.690300  1.0
  H  H2193  1  0.962400  0.749200  0.152800  1.0
  H  H2194  1  0.537600  0.749200  0.847200  1.0
  H  H2195  1  0.462400  0.249200  0.652800  1.0
  H  H2196  1  0.037600  0.249200  0.347200  1.0
  H  H2197  1  0.037600  0.250800  0.847200  1.0
  H  H2198  1  0.462400  0.250800  0.152800  1.0
  H  H2199  1  0.537600  0.750800  0.347200  1.0
  H  H2200  1  0.962400  0.750800  0.652800  1.0
  H  H2201  1  0.910400  0.743400  0.152400  1.0
  H  H2202  1  0.589600  0.743400  0.847600  1.0
  H  H2203  1  0.410400  0.243400  0.652400  1.0
  H  H2204  1  0.089600  0.243400  0.347600  1.0
  H  H2205  1  0.089600  0.256600  0.847600  1.0
  H  H2206  1  0.410400  0.256600  0.152400  1.0
  H  H2207  1  0.589600  0.756600  0.347600  1.0
  H  H2208  1  0.910400  0.756600  0.652400  1.0
  H  H2209  1  0.945200  0.712800  0.160600  1.0
  H  H2210  1  0.554800  0.712800  0.839400  1.0
  H  H2211  1  0.445200  0.212800  0.660600  1.0
  H  H2212  1  0.054800  0.212800  0.339400  1.0
  H  H2213  1  0.054800  0.287200  0.839400  1.0
  H  H2214  1  0.445200  0.287200  0.160600  1.0
  H  H2215  1  0.554800  0.787200  0.339400  1.0
  H  H2216  1  0.945200  0.787200  0.660600  1.0
  H  H2217  1  0.934700  0.752300  0.409100  1.0
  H  H2218  1  0.565300  0.752300  0.590900  1.0
  H  H2219  1  0.434700  0.252300  0.909100  1.0
  H  H2220  1  0.065300  0.252300  0.090900  1.0
  H  H2221  1  0.065300  0.247700  0.590900  1.0
  H  H2222  1  0.434700  0.247700  0.409100  1.0
  H  H2223  1  0.565300  0.747700  0.090900  1.0
  H  H2224  1  0.934700  0.747700  0.909100  1.0
  H  H2225  1  0.673100  0.750300  0.362600  1.0
  H  H2226  1  0.826900  0.750300  0.637400  1.0
  H  H2227  1  0.173100  0.250300  0.862600  1.0
  H  H2228  1  0.326900  0.250300  0.137400  1.0
  H  H2229  1  0.326900  0.249700  0.637400  1.0
  H  H2230  1  0.173100  0.249700  0.362600  1.0
  H  H2231  1  0.826900  0.749700  0.137400  1.0
  H  H2232  1  0.673100  0.749700  0.862600  1.0
  H  H2233  1  0.808400  0.920600  0.341900  1.0
  H  H2234  1  0.691600  0.920600  0.658100  1.0
  H  H2235  1  0.308400  0.420600  0.841900  1.0
  H  H2236  1  0.191600  0.420600  0.158100  1.0
  H  H2237  1  0.191600  0.079400  0.658100  1.0
  H  H2238  1  0.308400  0.079400  0.341900  1.0
  H  H2239  1  0.691600  0.579400  0.158100  1.0
  H  H2240  1  0.808400  0.579400  0.841900  1.0
  H  H2241  1  0.714300  0.670300  0.269500  1.0
  H  H2242  1  0.785700  0.670300  0.730500  1.0
  H  H2243  1  0.214300  0.170300  0.769500  1.0
  H  H2244  1  0.285700  0.170300  0.230500  1.0
  H  H2245  1  0.285700  0.329700  0.730500  1.0
  H  H2246  1  0.214300  0.329700  0.269500  1.0
  H  H2247  1  0.785700  0.829700  0.230500  1.0
  H  H2248  1  0.714300  0.829700  0.769500  1.0
  H  H2249  1  0.668600  0.633300  0.291000  1.0
  H  H2250  1  0.831400  0.633300  0.709000  1.0
  H  H2251  1  0.168600  0.133300  0.791000  1.0
  H  H2252  1  0.331400  0.133300  0.209000  1.0
  H  H2253  1  0.331400  0.366700  0.709000  1.0
  H  H2254  1  0.168600  0.366700  0.291000  1.0
  H  H2255  1  0.831400  0.866700  0.209000  1.0
  H  H2256  1  0.668600  0.866700  0.791000  1.0
  H  H2257  1  0.781400  0.582300  0.330600  1.0
  H  H2258  1  0.718600  0.582300  0.669400  1.0
  H  H2259  1  0.281400  0.082300  0.830600  1.0
  H  H2260  1  0.218600  0.082300  0.169400  1.0
  H  H2261  1  0.218600  0.417700  0.669400  1.0
  H  H2262  1  0.281400  0.417700  0.330600  1.0
  H  H2263  1  0.718600  0.917700  0.169400  1.0
  H  H2264  1  0.781400  0.917700  0.830600  1.0
  H  H2265  1  0.857500  0.580900  0.337000  1.0
  H  H2266  1  0.642500  0.580900  0.663000  1.0
  H  H2267  1  0.357500  0.080900  0.837000  1.0
  H  H2268  1  0.142500  0.080900  0.163000  1.0
  H  H2269  1  0.142500  0.419100  0.663000  1.0
  H  H2270  1  0.357500  0.419100  0.337000  1.0
  H  H2271  1  0.642500  0.919100  0.163000  1.0
  H  H2272  1  0.857500  0.919100  0.837000  1.0
  H  H2273  1  0.967100  0.630300  0.323800  1.0
  H  H2274  1  0.532900  0.630300  0.676200  1.0
  H  H2275  1  0.467100  0.130300  0.823800  1.0
  H  H2276  1  0.032900  0.130300  0.176200  1.0
  H  H2277  1  0.032900  0.369700  0.676200  1.0
  H  H2278  1  0.467100  0.369700  0.323800  1.0
  H  H2279  1  0.532900  0.869700  0.176200  1.0
  H  H2280  1  0.967100  0.869700  0.823800  1.0
  H  H2281  1  0.920300  0.669800  0.295200  1.0
  H  H2282  1  0.579700  0.669800  0.704800  1.0
  H  H2283  1  0.420300  0.169800  0.795200  1.0
  H  H2284  1  0.079700  0.169800  0.204800  1.0
  H  H2285  1  0.079700  0.330200  0.704800  1.0
  H  H2286  1  0.420300  0.330200  0.295200  1.0
  H  H2287  1  0.579700  0.830200  0.204800  1.0
  H  H2288  1  0.920300  0.830200  0.795200  1.0
  H  H2289  1  0.793800  0.600300  0.248500  1.0
  H  H2290  1  0.706200  0.600300  0.751500  1.0
  H  H2291  1  0.293800  0.100300  0.748500  1.0
  H  H2292  1  0.206200  0.100300  0.251500  1.0
  H  H2293  1  0.206200  0.399700  0.751500  1.0
  H  H2294  1  0.293800  0.399700  0.248500  1.0
  H  H2295  1  0.706200  0.899700  0.251500  1.0
  H  H2296  1  0.793800  0.899700  0.748500  1.0
  H  H2297  1  0.800100  0.564900  0.211500  1.0
  H  H2298  1  0.699900  0.564900  0.788500  1.0
  H  H2299  1  0.300100  0.064900  0.711500  1.0
  H  H2300  1  0.199900  0.064900  0.288500  1.0
  H  H2301  1  0.199900  0.435100  0.788500  1.0
  H  H2302  1  0.300100  0.435100  0.211500  1.0
  H  H2303  1  0.699900  0.935100  0.288500  1.0
  H  H2304  1  0.800100  0.935100  0.711500  1.0
  H  H2305  1  0.872800  0.637800  0.181300  1.0
  H  H2306  1  0.627200  0.637800  0.818700  1.0
  H  H2307  1  0.372800  0.137800  0.681300  1.0
  H  H2308  1  0.127200  0.137800  0.318700  1.0
  H  H2309  1  0.127200  0.362200  0.818700  1.0
  H  H2310  1  0.372800  0.362200  0.181300  1.0
  H  H2311  1  0.627200  0.862200  0.318700  1.0
  H  H2312  1  0.872800  0.862200  0.681300  1.0
  H  H2313  1  0.905100  0.685700  0.189300  1.0
  H  H2314  1  0.594900  0.685700  0.810700  1.0
  H  H2315  1  0.405100  0.185700  0.689300  1.0
  H  H2316  1  0.094900  0.185700  0.310700  1.0
  H  H2317  1  0.094900  0.314300  0.810700  1.0
  H  H2318  1  0.405100  0.314300  0.189300  1.0
  H  H2319  1  0.594900  0.814300  0.310700  1.0
  H  H2320  1  0.905100  0.814300  0.689300  1.0
  H  H2321  1  0.920400  0.771200  0.238500  1.0
  H  H2322  1  0.579600  0.771200  0.761500  1.0
  H  H2323  1  0.420400  0.271200  0.738500  1.0
  H  H2324  1  0.079600  0.271200  0.261500  1.0
  H  H2325  1  0.079600  0.228800  0.761500  1.0
  H  H2326  1  0.420400  0.228800  0.238500  1.0
  H  H2327  1  0.579600  0.728800  0.261500  1.0
  H  H2328  1  0.920400  0.728800  0.738500  1.0
  H  H2329  1  0.871100  0.747800  0.265600  1.0
  H  H2330  1  0.628900  0.747800  0.734400  1.0
  H  H2331  1  0.371100  0.247800  0.765600  1.0
  H  H2332  1  0.128900  0.247800  0.234400  1.0
  H  H2333  1  0.128900  0.252200  0.734400  1.0
  H  H2334  1  0.371100  0.252200  0.265600  1.0
  H  H2335  1  0.628900  0.752200  0.234400  1.0
  H  H2336  1  0.871100  0.752200  0.765600  1.0
  H  H2337  1  0.905900  0.757000  0.326100  1.0
  H  H2338  1  0.594100  0.757000  0.673900  1.0
  H  H2339  1  0.405900  0.257000  0.826100  1.0
  H  H2340  1  0.094100  0.257000  0.173900  1.0
  H  H2341  1  0.094100  0.243000  0.673900  1.0
  H  H2342  1  0.405900  0.243000  0.326100  1.0
  H  H2343  1  0.594100  0.743000  0.173900  1.0
  H  H2344  1  0.905900  0.743000  0.826100  1.0
  H  H2345  1  0.915600  0.723700  0.345900  1.0
  H  H2346  1  0.584400  0.723700  0.654100  1.0
  H  H2347  1  0.415600  0.223700  0.845900  1.0
  H  H2348  1  0.084400  0.223700  0.154100  1.0
  H  H2349  1  0.084400  0.276300  0.654100  1.0
  H  H2350  1  0.415600  0.276300  0.345900  1.0
  H  H2351  1  0.584400  0.776300  0.154100  1.0
  H  H2352  1  0.915600  0.776300  0.845900  1.0
  H  H2353  1  0.950800  0.754200  0.350600  1.0
  H  H2354  1  0.549200  0.754200  0.649400  1.0
  H  H2355  1  0.450800  0.254200  0.850600  1.0
  H  H2356  1  0.049200  0.254200  0.149400  1.0
  H  H2357  1  0.049200  0.245800  0.649400  1.0
  H  H2358  1  0.450800  0.245800  0.350600  1.0
  H  H2359  1  0.549200  0.745800  0.149400  1.0
  H  H2360  1  0.950800  0.745800  0.850600  1.0
  H  H2361  1  0.849200  0.804900  0.440000  1.0
  H  H2362  1  0.650800  0.804900  0.560000  1.0
  H  H2363  1  0.349200  0.304900  0.940000  1.0
  H  H2364  1  0.150800  0.304900  0.060000  1.0
  H  H2365  1  0.150800  0.195100  0.560000  1.0
  H  H2366  1  0.349200  0.195100  0.440000  1.0
  H  H2367  1  0.650800  0.695100  0.060000  1.0
  H  H2368  1  0.849200  0.695100  0.940000  1.0
  H  H2369  1  0.902600  0.803000  0.449800  1.0
  H  H2370  1  0.597400  0.803000  0.550200  1.0
  H  H2371  1  0.402600  0.303000  0.949800  1.0
  H  H2372  1  0.097400  0.303000  0.050200  1.0
  H  H2373  1  0.097400  0.197000  0.550200  1.0
  H  H2374  1  0.402600  0.197000  0.449800  1.0
  H  H2375  1  0.597400  0.697000  0.050200  1.0
  H  H2376  1  0.902600  0.697000  0.949800  1.0
  H  H2377  1  0.873200  0.769700  0.450800  1.0
  H  H2378  1  0.626800  0.769700  0.549200  1.0
  H  H2379  1  0.373200  0.269700  0.950800  1.0
  H  H2380  1  0.126800  0.269700  0.049200  1.0
  H  H2381  1  0.126800  0.230300  0.549200  1.0
  H  H2382  1  0.373200  0.230300  0.450800  1.0
  H  H2383  1  0.626800  0.730300  0.049200  1.0
  H  H2384  1  0.873200  0.730300  0.950800  1.0
  H  H2385  1  0.729700  0.738800  0.298100  1.0
  H  H2386  1  0.770300  0.738800  0.701900  1.0
  H  H2387  1  0.229700  0.238800  0.798100  1.0
  H  H2388  1  0.270300  0.238800  0.201900  1.0
  H  H2389  1  0.270300  0.261200  0.701900  1.0
  H  H2390  1  0.229700  0.261200  0.298100  1.0
  H  H2391  1  0.770300  0.761200  0.201900  1.0
  H  H2392  1  0.729700  0.761200  0.798100  1.0
  H  H2393  1  0.678300  0.742800  0.300100  1.0
  H  H2394  1  0.821700  0.742800  0.699900  1.0
  H  H2395  1  0.178300  0.242800  0.800100  1.0
  H  H2396  1  0.321700  0.242800  0.199900  1.0
  H  H2397  1  0.321700  0.257200  0.699900  1.0
  H  H2398  1  0.178300  0.257200  0.300100  1.0
  H  H2399  1  0.821700  0.757200  0.199900  1.0
  H  H2400  1  0.678300  0.757200  0.800100  1.0
  H  H2401  1  0.707700  0.712200  0.316500  1.0
  H  H2402  1  0.792300  0.712200  0.683500  1.0
  H  H2403  1  0.207700  0.212200  0.816500  1.0
  H  H2404  1  0.292300  0.212200  0.183500  1.0
  H  H2405  1  0.292300  0.287800  0.683500  1.0
  H  H2406  1  0.207700  0.287800  0.316500  1.0
  H  H2407  1  0.792300  0.787800  0.183500  1.0
  H  H2408  1  0.707700  0.787800  0.816500  1.0
  H  H2409  1  0.738400  0.810400  0.419600  1.0
  H  H2410  1  0.761600  0.810400  0.580400  1.0
  H  H2411  1  0.238400  0.310400  0.919600  1.0
  H  H2412  1  0.261600  0.310400  0.080400  1.0
  H  H2413  1  0.261600  0.189600  0.580400  1.0
  H  H2414  1  0.238400  0.189600  0.419600  1.0
  H  H2415  1  0.761600  0.689600  0.080400  1.0
  H  H2416  1  0.738400  0.689600  0.919600  1.0
  H  H2417  1  0.713600  0.775400  0.423000  1.0
  H  H2418  1  0.786400  0.775400  0.577000  1.0
  H  H2419  1  0.213600  0.275400  0.923000  1.0
  H  H2420  1  0.286400  0.275400  0.077000  1.0
  H  H2421  1  0.286400  0.224600  0.577000  1.0
  H  H2422  1  0.213600  0.224600  0.423000  1.0
  H  H2423  1  0.786400  0.724600  0.077000  1.0
  H  H2424  1  0.713600  0.724600  0.923000  1.0
  H  H2425  1  0.685700  0.806600  0.406600  1.0
  H  H2426  1  0.814300  0.806600  0.593400  1.0
  H  H2427  1  0.185700  0.306600  0.906600  1.0
  H  H2428  1  0.314300  0.306600  0.093400  1.0
  H  H2429  1  0.314300  0.193400  0.593400  1.0
  H  H2430  1  0.185700  0.193400  0.406600  1.0
  H  H2431  1  0.814300  0.693400  0.093400  1.0
  H  H2432  1  0.685700  0.693400  0.906600  1.0
  H  H2433  1  0.807900  0.855100  0.282300  1.0
  H  H2434  1  0.692100  0.855100  0.717700  1.0
  H  H2435  1  0.307900  0.355100  0.782300  1.0
  H  H2436  1  0.192100  0.355100  0.217700  1.0
  H  H2437  1  0.192100  0.144900  0.717700  1.0
  H  H2438  1  0.307900  0.144900  0.282300  1.0
  H  H2439  1  0.692100  0.644900  0.217700  1.0
  H  H2440  1  0.807900  0.644900  0.782300  1.0
  H  H2441  1  0.835000  0.889900  0.289300  1.0
  H  H2442  1  0.665000  0.889900  0.710700  1.0
  H  H2443  1  0.335000  0.389900  0.789300  1.0
  H  H2444  1  0.165000  0.389900  0.210700  1.0
  H  H2445  1  0.165000  0.110100  0.710700  1.0
  H  H2446  1  0.335000  0.110100  0.289300  1.0
  H  H2447  1  0.665000  0.610100  0.210700  1.0
  H  H2448  1  0.835000  0.610100  0.789300  1.0
  H  H2449  1  0.781400  0.890100  0.282400  1.0
  H  H2450  1  0.718600  0.890100  0.717600  1.0
  H  H2451  1  0.281400  0.390100  0.782400  1.0
  H  H2452  1  0.218600  0.390100  0.217600  1.0
  H  H2453  1  0.218600  0.109900  0.717600  1.0
  H  H2454  1  0.281400  0.109900  0.282400  1.0
  H  H2455  1  0.718600  0.609900  0.217600  1.0
  H  H2456  1  0.781400  0.609900  0.782400  1.0
  H  H2457  1  0.801900  0.824700  0.405000  1.0
  H  H2458  1  0.698100  0.824700  0.595000  1.0
  H  H2459  1  0.301900  0.324700  0.905000  1.0
  H  H2460  1  0.198100  0.324700  0.095000  1.0
  H  H2461  1  0.198100  0.175300  0.595000  1.0
  H  H2462  1  0.301900  0.175300  0.405000  1.0
  H  H2463  1  0.698100  0.675300  0.095000  1.0
  H  H2464  1  0.801900  0.675300  0.905000  1.0
  H  H2465  1  0.808800  0.878200  0.413900  1.0
  H  H2466  1  0.691200  0.878200  0.586100  1.0
  H  H2467  1  0.308800  0.378200  0.913900  1.0
  H  H2468  1  0.191200  0.378200  0.086100  1.0
  H  H2469  1  0.191200  0.121800  0.586100  1.0
  H  H2470  1  0.308800  0.121800  0.413900  1.0
  H  H2471  1  0.691200  0.621800  0.086100  1.0
  H  H2472  1  0.808800  0.621800  0.913900  1.0
  H  H2473  1  0.784900  0.912200  0.399900  1.0
  H  H2474  1  0.715100  0.912200  0.600100  1.0
  H  H2475  1  0.284900  0.412200  0.899900  1.0
  H  H2476  1  0.215100  0.412200  0.100100  1.0
  H  H2477  1  0.215100  0.087800  0.600100  1.0
  H  H2478  1  0.284900  0.087800  0.399900  1.0
  H  H2479  1  0.715100  0.587800  0.100100  1.0
  H  H2480  1  0.784900  0.587800  0.899900  1.0
  H  H2481  1  0.838300  0.909300  0.406900  1.0
  H  H2482  1  0.661700  0.909300  0.593100  1.0
  H  H2483  1  0.338300  0.409300  0.906900  1.0
  H  H2484  1  0.161700  0.409300  0.093100  1.0
  H  H2485  1  0.161700  0.090700  0.593100  1.0
  H  H2486  1  0.338300  0.090700  0.406900  1.0
  H  H2487  1  0.661700  0.590700  0.093100  1.0
  H  H2488  1  0.838300  0.590700  0.906900  1.0
  C  C2489  1  0.312400  0.379600  0.987000  1
  C  C2490  1  0.187600  0.379600  0.013000  1
  C  C2491  1  0.812400  0.879600  0.487000  1
  C  C2492  1  0.687600  0.879600  0.513000  1
  C  C2493  1  0.687600  0.620400  0.013000  1
  C  C2494  1  0.812400  0.620400  0.987000  1
  C  C2495  1  0.187600  0.120400  0.513000  1
  C  C2496  1  0.312400  0.120400  0.487000  1
  C  C2497  1  0.060800  0.628300  0.736400  1
  C  C2498  1  0.439200  0.628300  0.263600  1
  C  C2499  1  0.560800  0.128300  0.236400  1
  C  C2500  1  0.939200  0.128300  0.763600  1
  C  C2501  1  0.939200  0.371700  0.263600  1
  C  C2502  1  0.560800  0.371700  0.736400  1
  C  C2503  1  0.439200  0.871700  0.763600  1
  C  C2504  1  0.060800  0.871700  0.236400  1
  C  C2505  1  0.936000  0.623400  0.759000  1
  C  C2506  1  0.564000  0.623400  0.241000  1
  C  C2507  1  0.436000  0.123400  0.259000  1
  C  C2508  1  0.064000  0.123400  0.741000  1
  C  C2509  1  0.064000  0.376600  0.241000  1
  C  C2510  1  0.436000  0.376600  0.759000  1
  C  C2511  1  0.564000  0.876600  0.741000  1
  C  C2512  1  0.936000  0.876600  0.259000  1
  C  C2513  1  0.813400  0.128300  0.990600  1
  C  C2514  1  0.686600  0.128300  0.009400  1
  C  C2515  1  0.313400  0.628300  0.490600  1
  C  C2516  1  0.186600  0.628300  0.509400  1
  C  C2517  1  0.186600  0.871700  0.009400  1
  C  C2518  1  0.313400  0.871700  0.990600  1
  C  C2519  1  0.686600  0.371700  0.509400  1
  C  C2520  1  0.813400  0.371700  0.490600  1
  C  C2521  1  0.701200  0.301300  0.094300  1
  C  C2522  1  0.798800  0.301300  0.905700  1
  C  C2523  1  0.201200  0.801300  0.594300  1
  C  C2524  1  0.298800  0.801300  0.405700  1
  C  C2525  1  0.298800  0.698700  0.905700  1
  C  C2526  1  0.201200  0.698700  0.094300  1
  C  C2527  1  0.798800  0.198700  0.405700  1
  C  C2528  1  0.701200  0.198700  0.594300  1
  C  C2529  1  0.733000  0.347800  0.120100  1
  C  C2530  1  0.767000  0.347800  0.879900  1
  C  C2531  1  0.233000  0.847800  0.620100  1
  C  C2532  1  0.267000  0.847800  0.379900  1
  C  C2533  1  0.267000  0.652200  0.879900  1
  C  C2534  1  0.233000  0.652200  0.120100  1
  C  C2535  1  0.767000  0.152200  0.379900  1
  C  C2536  1  0.733000  0.152200  0.620100  1
  C  C2537  1  0.923800  0.159200  0.104400  1
  C  C2538  1  0.576200  0.159200  0.895600  1
  C  C2539  1  0.423800  0.659200  0.604400  1
  C  C2540  1  0.076200  0.659200  0.395600  1
  C  C2541  1  0.076200  0.840800  0.895600  1
  C  C2542  1  0.423800  0.840800  0.104400  1
  C  C2543  1  0.576200  0.340800  0.395600  1
  C  C2544  1  0.923800  0.340800  0.604400  1
  C  C2545  1  0.951400  0.193500  0.084900  1
  C  C2546  1  0.548600  0.193500  0.915100  1
  C  C2547  1  0.451400  0.693500  0.584900  1
  C  C2548  1  0.048600  0.693500  0.415100  1
  C  C2549  1  0.048600  0.806500  0.915100  1
  C  C2550  1  0.451400  0.806500  0.084900  1
  C  C2551  1  0.548600  0.306500  0.415100  1
  C  C2552  1  0.951400  0.306500  0.584900  1
  C  C2553  1  0.182200  0.004600  0.912600  1
  C  C2554  1  0.317800  0.004600  0.087400  1
  C  C2555  1  0.682200  0.504600  0.412600  1
  C  C2556  1  0.817800  0.504600  0.587400  1
  C  C2557  1  0.817800  0.995400  0.087400  1
  C  C2558  1  0.682200  0.995400  0.912600  1
  C  C2559  1  0.317800  0.495400  0.587400  1
  C  C2560  1  0.182200  0.495400  0.412600  1
  C  C2561  1  0.242700  0.997900  0.958400  1
  C  C2562  1  0.257300  0.997900  0.041600  1
  C  C2563  1  0.742700  0.497900  0.458400  1
  C  C2564  1  0.757300  0.497900  0.541600  1
  C  C2565  1  0.757300  0.002100  0.041600  1
  C  C2566  1  0.742700  0.002100  0.958400  1
  C  C2567  1  0.257300  0.502100  0.541600  1
  C  C2568  1  0.242700  0.502100  0.458400  1
  C  C2569  1  0.179400  0.963000  0.932300  1
  C  C2570  1  0.320600  0.963000  0.067700  1
  C  C2571  1  0.679400  0.463000  0.432300  1
  C  C2572  1  0.820600  0.463000  0.567700  1
  C  C2573  1  0.820600  0.037000  0.067700  1
  C  C2574  1  0.679400  0.037000  0.932300  1
  C  C2575  1  0.320600  0.537000  0.567700  1
  C  C2576  1  0.179400  0.537000  0.432300  1
  C  C2577  1  0.055000  0.202200  0.907000  1
  C  C2578  1  0.445000  0.202200  0.093000  1
  C  C2579  1  0.555000  0.702200  0.407000  1
  C  C2580  1  0.945000  0.702200  0.593000  1
  C  C2581  1  0.945000  0.797800  0.093000  1
  C  C2582  1  0.555000  0.797800  0.907000  1
  C  C2583  1  0.445000  0.297800  0.593000  1
  C  C2584  1  0.055000  0.297800  0.407000  1
  C  C2585  1  0.132900  0.171700  0.905400  1
  C  C2586  1  0.367100  0.171700  0.094600  1
  C  C2587  1  0.632900  0.671700  0.405400  1
  C  C2588  1  0.867100  0.671700  0.594600  1
  C  C2589  1  0.867100  0.828300  0.094600  1
  C  C2590  1  0.632900  0.828300  0.905400  1
  C  C2591  1  0.367100  0.328300  0.594600  1
  C  C2592  1  0.132900  0.328300  0.405400  1
  C  C2593  1  0.122800  0.202700  0.940700  1
  C  C2594  1  0.377200  0.202700  0.059300  1
  C  C2595  1  0.622800  0.702700  0.440700  1
  C  C2596  1  0.877200  0.702700  0.559300  1
  C  C2597  1  0.877200  0.797300  0.059300  1
  C  C2598  1  0.622800  0.797300  0.940700  1
  C  C2599  1  0.377200  0.297300  0.559300  1
  C  C2600  1  0.122800  0.297300  0.440700  1
  C  C2601  1  0.983700  0.586600  0.373200  1
  C  C2602  1  0.516300  0.586600  0.626800  1
  C  C2603  1  0.483700  0.086600  0.873200  1
  C  C2604  1  0.016300  0.086600  0.126800  1
  C  C2605  1  0.016300  0.413400  0.626800  1
  C  C2606  1  0.483700  0.413400  0.373200  1
  C  C2607  1  0.516300  0.913400  0.126800  1
  C  C2608  1  0.983700  0.913400  0.873200  1
  C  C2609  1  0.943200  0.544000  0.340200  1
  C  C2610  1  0.556800  0.544000  0.659800  1
  C  C2611  1  0.443200  0.044000  0.840200  1
  C  C2612  1  0.056800  0.044000  0.159800  1
  C  C2613  1  0.056800  0.456000  0.659800  1
  C  C2614  1  0.443200  0.456000  0.340200  1
  C  C2615  1  0.556800  0.956000  0.159800  1
  C  C2616  1  0.943200  0.956000  0.840200  1
  C  C2617  1  0.874800  0.571700  0.155800  1
  C  C2618  1  0.625200  0.571700  0.844200  1
  C  C2619  1  0.374800  0.071700  0.655800  1
  C  C2620  1  0.125200  0.071700  0.344200  1
  C  C2621  1  0.125200  0.428300  0.844200  1
  C  C2622  1  0.374800  0.428300  0.155800  1
  C  C2623  1  0.625200  0.928300  0.344200  1
  C  C2624  1  0.874800  0.928300  0.655800  1
  C  C2625  1  0.876000  0.544000  0.186900  1
  C  C2626  1  0.624000  0.544000  0.813100  1
  C  C2627  1  0.376000  0.044000  0.686900  1
  C  C2628  1  0.124000  0.044000  0.313100  1
  C  C2629  1  0.124000  0.456000  0.813100  1
  C  C2630  1  0.376000  0.456000  0.186900  1
  C  C2631  1  0.624000  0.956000  0.313100  1
  C  C2632  1  0.876000  0.956000  0.686900  1
  C  C2633  1  0.804400  0.547400  0.157400  1
  C  C2634  1  0.695600  0.547400  0.842600  1
  C  C2635  1  0.304400  0.047400  0.657400  1
  C  C2636  1  0.195600  0.047400  0.342600  1
  C  C2637  1  0.195600  0.452600  0.842600  1
  C  C2638  1  0.304400  0.452600  0.157400  1
  C  C2639  1  0.695600  0.952600  0.342600  1
  C  C2640  1  0.804400  0.952600  0.657400  1
  C  C2641  1  0.995200  0.752600  0.207800  1
  C  C2642  1  0.504800  0.752600  0.792200  1
  C  C2643  1  0.495200  0.252600  0.707800  1
  C  C2644  1  0.004800  0.252600  0.292200  1
  C  C2645  1  0.004800  0.247400  0.792200  1
  C  C2646  1  0.495200  0.247400  0.207800  1
  C  C2647  1  0.504800  0.747400  0.292200  1
  C  C2648  1  0.995200  0.747400  0.707800  1
  C  C2649  1  0.926900  0.785200  0.180700  1
  C  C2650  1  0.573100  0.785200  0.819300  1
  C  C2651  1  0.426900  0.285200  0.680700  1
  C  C2652  1  0.073100  0.285200  0.319300  1
  C  C2653  1  0.073100  0.214800  0.819300  1
  C  C2654  1  0.426900  0.214800  0.180700  1
  C  C2655  1  0.573100  0.714800  0.319300  1
  C  C2656  1  0.926900  0.714800  0.680700  1
  C  C2657  1  0.754500  0.479100  0.957700  1
  C  C2658  1  0.745500  0.479100  0.042300  1
  C  C2659  1  0.254500  0.979100  0.457700  1
  C  C2660  1  0.245500  0.979100  0.542300  1
  C  C2661  1  0.245500  0.520900  0.042300  1
  C  C2662  1  0.254500  0.520900  0.957700  1
  C  C2663  1  0.745500  0.020900  0.542300  1
  C  C2664  1  0.754500  0.020900  0.457700  1
  C  C2665  1  0.733000  0.532300  0.954000  1
  C  C2666  1  0.767000  0.532300  0.046000  1
  C  C2667  1  0.233000  0.032300  0.454000  1
  C  C2668  1  0.267000  0.032300  0.546000  1
  C  C2669  1  0.267000  0.467700  0.046000  1
  C  C2670  1  0.233000  0.467700  0.954000  1
  C  C2671  1  0.767000  0.967700  0.546000  1
  C  C2672  1  0.733000  0.967700  0.454000  1
  C  C2673  1  0.406900  0.354300  0.087600  1
  C  C2674  1  0.093100  0.354300  0.912400  1
  C  C2675  1  0.906900  0.854300  0.587600  1
  C  C2676  1  0.593100  0.854300  0.412400  1
  C  C2677  1  0.593100  0.645700  0.912400  1
  C  C2678  1  0.906900  0.645700  0.087600  1
  C  C2679  1  0.093100  0.145700  0.412400  1
  C  C2680  1  0.406900  0.145700  0.587600  1
  C  C2681  1  0.396100  0.316200  0.037800  1
  C  C2682  1  0.103900  0.316200  0.962200  1
  C  C2683  1  0.896100  0.816200  0.537800  1
  C  C2684  1  0.603900  0.816200  0.462200  1
  C  C2685  1  0.603900  0.683800  0.962200  1
  C  C2686  1  0.896100  0.683800  0.037800  1
  C  C2687  1  0.103900  0.183800  0.462200  1
  C  C2688  1  0.396100  0.183800  0.537800  1
  C  C2689  1  0.579400  0.345700  0.884500  1
  C  C2690  1  0.920600  0.345700  0.115500  1
  C  C2691  1  0.079400  0.845700  0.384500  1
  C  C2692  1  0.420600  0.845700  0.615500  1
  C  C2693  1  0.420600  0.654300  0.115500  1
  C  C2694  1  0.079400  0.654300  0.884500  1
  C  C2695  1  0.920600  0.154300  0.615500  1
  C  C2696  1  0.579400  0.154300  0.384500  1
  C  C2697  1  0.588200  0.292000  0.912300  1
  C  C2698  1  0.911800  0.292000  0.087700  1
  C  C2699  1  0.088200  0.792000  0.412300  1
  C  C2700  1  0.411800  0.792000  0.587700  1
  C  C2701  1  0.411800  0.708000  0.087700  1
  C  C2702  1  0.088200  0.708000  0.912300  1
  C  C2703  1  0.911800  0.208000  0.587700  1
  C  C2704  1  0.588200  0.208000  0.412300  1
  C  C2705  1  0.648000  0.304000  0.917000  1
  C  C2706  1  0.852000  0.304000  0.083000  1
  C  C2707  1  0.148000  0.804000  0.417000  1
  C  C2708  1  0.352000  0.804000  0.583000  1
  C  C2709  1  0.352000  0.696000  0.083000  1
  C  C2710  1  0.148000  0.696000  0.917000  1
  C  C2711  1  0.852000  0.196000  0.583000  1
  C  C2712  1  0.648000  0.196000  0.417000  1
  C  C2713  1  0.696800  0.329100  0.099200  1.0
  C  C2714  1  0.803200  0.329100  0.900800  1.0
  C  C2715  1  0.196800  0.829100  0.599200  1.0
  C  C2716  1  0.303200  0.829100  0.400800  1.0
  C  C2717  1  0.303200  0.670900  0.900800  1.0
  C  C2718  1  0.196800  0.670900  0.099200  1.0
  C  C2719  1  0.803200  0.170900  0.400800  1.0
  C  C2720  1  0.696800  0.170900  0.599200  1.0
  C  C2721  1  0.697900  0.297400  0.081400  1.0
  C  C2722  1  0.802100  0.297400  0.918600  1.0
  C  C2723  1  0.197900  0.797400  0.581400  1.0
  C  C2724  1  0.302100  0.797400  0.418600  1.0
  C  C2725  1  0.302100  0.702600  0.918600  1.0
  C  C2726  1  0.197900  0.702600  0.081400  1.0
  C  C2727  1  0.802100  0.202600  0.418600  1.0
  C  C2728  1  0.697900  0.202600  0.581400  1.0
  C  C2729  1  0.741700  0.343500  0.110500  1.0
  C  C2730  1  0.758300  0.343500  0.889500  1.0
  C  C2731  1  0.241700  0.843500  0.610500  1.0
  C  C2732  1  0.258300  0.843500  0.389500  1.0
  C  C2733  1  0.258300  0.656500  0.889500  1.0
  C  C2734  1  0.241700  0.656500  0.110500  1.0
  C  C2735  1  0.758300  0.156500  0.389500  1.0
  C  C2736  1  0.741700  0.156500  0.610500  1.0
  C  C2737  1  0.682800  0.318100  0.121400  1.0
  C  C2738  1  0.817200  0.318100  0.878600  1.0
  C  C2739  1  0.182800  0.818100  0.621400  1.0
  C  C2740  1  0.317200  0.818100  0.378600  1.0
  C  C2741  1  0.317200  0.681900  0.878600  1.0
  C  C2742  1  0.182800  0.681900  0.121400  1.0
  C  C2743  1  0.817200  0.181900  0.378600  1.0
  C  C2744  1  0.682800  0.181900  0.621400  1.0
  C  C2745  1  0.697100  0.499900  0.942200  1.0
  C  C2746  1  0.802900  0.499900  0.057800  1.0
  C  C2747  1  0.197100  0.999900  0.442200  1.0
  C  C2748  1  0.302900  0.999900  0.557800  1.0
  C  C2749  1  0.302900  0.500100  0.057800  1.0
  C  C2750  1  0.197100  0.500100  0.942200  1.0
  C  C2751  1  0.802900  0.000100  0.557800  1.0
  C  C2752  1  0.697100  0.000100  0.442200  1.0
  C  C2753  1  0.679300  0.538600  0.933000  1.0
  C  C2754  1  0.820700  0.538600  0.067000  1.0
  C  C2755  1  0.179300  0.038600  0.433000  1.0
  C  C2756  1  0.320700  0.038600  0.567000  1.0
  C  C2757  1  0.320700  0.461400  0.067000  1.0
  C  C2758  1  0.179300  0.461400  0.933000  1.0
  C  C2759  1  0.820700  0.961400  0.567000  1.0
  C  C2760  1  0.679300  0.961400  0.433000  1.0
  C  C2761  1  0.740600  0.501600  0.956600  1.0
  C  C2762  1  0.759400  0.501600  0.043400  1.0
  C  C2763  1  0.240600  0.001600  0.456600  1.0
  C  C2764  1  0.259400  0.001600  0.543400  1.0
  C  C2765  1  0.259400  0.498400  0.043400  1.0
  C  C2766  1  0.240600  0.498400  0.956600  1.0
  C  C2767  1  0.759400  0.998400  0.543400  1.0
  C  C2768  1  0.740600  0.998400  0.456600  1.0
  C  C2769  1  0.692300  0.487300  0.913100  1.0
  C  C2770  1  0.807700  0.487300  0.086900  1.0
  C  C2771  1  0.192300  0.987300  0.413100  1.0
  C  C2772  1  0.307700  0.987300  0.586900  1.0
  C  C2773  1  0.307700  0.512700  0.086900  1.0
  C  C2774  1  0.192300  0.512700  0.913100  1.0
  C  C2775  1  0.807700  0.012700  0.586900  1.0
  C  C2776  1  0.692300  0.012700  0.413100  1.0
  C  C2777  1  0.439000  0.331000  0.071400  1.0
  C  C2778  1  0.061000  0.331000  0.928600  1.0
  C  C2779  1  0.939000  0.831000  0.571400  1.0
  C  C2780  1  0.561000  0.831000  0.428600  1.0
  C  C2781  1  0.561000  0.669000  0.928600  1.0
  C  C2782  1  0.939000  0.669000  0.071400  1.0
  C  C2783  1  0.061000  0.169000  0.428600  1.0
  C  C2784  1  0.439000  0.169000  0.571400  1.0
  C  C2785  1  0.401300  0.343100  0.079300  1.0
  C  C2786  1  0.098700  0.343100  0.920700  1.0
  C  C2787  1  0.901300  0.843100  0.579300  1.0
  C  C2788  1  0.598700  0.843100  0.420700  1.0
  C  C2789  1  0.598700  0.656900  0.920700  1.0
  C  C2790  1  0.901300  0.656900  0.079300  1.0
  C  C2791  1  0.098700  0.156900  0.420700  1.0
  C  C2792  1  0.401300  0.156900  0.579300  1.0
  C  C2793  1  0.410700  0.311100  0.051100  1.0
  C  C2794  1  0.089300  0.311100  0.948900  1.0
  C  C2795  1  0.910700  0.811100  0.551100  1.0
  C  C2796  1  0.589300  0.811100  0.448900  1.0
  C  C2797  1  0.589300  0.688900  0.948900  1.0
  C  C2798  1  0.910700  0.688900  0.051100  1.0
  C  C2799  1  0.089300  0.188900  0.448900  1.0
  C  C2800  1  0.410700  0.188900  0.551100  1.0
  C  C2801  1  0.458900  0.304600  0.087300  1.0
  C  C2802  1  0.041100  0.304600  0.912700  1.0
  C  C2803  1  0.958900  0.804600  0.587300  1.0
  C  C2804  1  0.541100  0.804600  0.412700  1.0
  C  C2805  1  0.541100  0.695400  0.912700  1.0
  C  C2806  1  0.958900  0.695400  0.087300  1.0
  C  C2807  1  0.041100  0.195400  0.412700  1.0
  C  C2808  1  0.458900  0.195400  0.587300  1.0
  C  C2809  1  0.592500  0.323800  0.916000  1.0
  C  C2810  1  0.907500  0.323800  0.084000  1.0
  C  C2811  1  0.092500  0.823800  0.416000  1.0
  C  C2812  1  0.407500  0.823800  0.584000  1.0
  C  C2813  1  0.407500  0.676200  0.084000  1.0
  C  C2814  1  0.092500  0.676200  0.916000  1.0
  C  C2815  1  0.907500  0.176200  0.584000  1.0
  C  C2816  1  0.592500  0.176200  0.416000  1.0
  C  C2817  1  0.617600  0.298900  0.932600  1.0
  C  C2818  1  0.882400  0.298900  0.067400  1.0
  C  C2819  1  0.117600  0.798900  0.432600  1.0
  C  C2820  1  0.382400  0.798900  0.567400  1.0
  C  C2821  1  0.382400  0.701100  0.067400  1.0
  C  C2822  1  0.117600  0.701100  0.932600  1.0
  C  C2823  1  0.882400  0.201100  0.567400  1.0
  C  C2824  1  0.617600  0.201100  0.432600  1.0
  C  C2825  1  0.548900  0.302200  0.903000  1.0
  C  C2826  1  0.951100  0.302200  0.097000  1.0
  C  C2827  1  0.048900  0.802200  0.403000  1.0
  C  C2828  1  0.451100  0.802200  0.597000  1.0
  C  C2829  1  0.451100  0.697800  0.097000  1.0
  C  C2830  1  0.048900  0.697800  0.903000  1.0
  C  C2831  1  0.951100  0.197800  0.597000  1.0
  C  C2832  1  0.548900  0.197800  0.403000  1.0
  C  C2833  1  0.633600  0.327800  0.904800  1.0
  C  C2834  1  0.866400  0.327800  0.095200  1.0
  C  C2835  1  0.133600  0.827800  0.404800  1.0
  C  C2836  1  0.366400  0.827800  0.595200  1.0
  C  C2837  1  0.366400  0.672200  0.095200  1.0
  C  C2838  1  0.133600  0.672200  0.904800  1.0
  C  C2839  1  0.866400  0.172200  0.595200  1.0
  C  C2840  1  0.633600  0.172200  0.404800  1.0
  C  C2841  1  0.371800  0.477200  0.840600  1.0
  C  C2842  1  0.128200  0.477200  0.159400  1.0
  C  C2843  1  0.871800  0.977200  0.340600  1.0
  C  C2844  1  0.628200  0.977200  0.659400  1.0
  C  C2845  1  0.628200  0.522800  0.159400  1.0
  C  C2846  1  0.871800  0.522800  0.840600  1.0
  C  C2847  1  0.128200  0.022800  0.659400  1.0
  C  C2848  1  0.371800  0.022800  0.340600  1.0
  C  C2849  1  0.340600  0.493500  0.852300  1.0
  C  C2850  1  0.159400  0.493500  0.147700  1.0
  C  C2851  1  0.840600  0.993500  0.352300  1.0
  C  C2852  1  0.659400  0.993500  0.647700  1.0
  C  C2853  1  0.659400  0.506500  0.147700  1.0
  C  C2854  1  0.840600  0.506500  0.852300  1.0
  C  C2855  1  0.159400  0.006500  0.647700  1.0
  C  C2856  1  0.340600  0.006500  0.352300  1.0
  C  C2857  1  0.355000  0.492800  0.883600  1.0
  C  C2858  1  0.145000  0.492800  0.116400  1.0
  C  C2859  1  0.855000  0.992800  0.383600  1.0
  C  C2860  1  0.645000  0.992800  0.616400  1.0
  C  C2861  1  0.645000  0.507200  0.116400  1.0
  C  C2862  1  0.855000  0.507200  0.883600  1.0
  C  C2863  1  0.145000  0.007200  0.616400  1.0
  C  C2864  1  0.355000  0.007200  0.383600  1.0
  C  C2865  1  0.527300  0.475400  0.868100  1.0
  C  C2866  1  0.972700  0.475400  0.131900  1.0
  C  C2867  1  0.027300  0.975400  0.368100  1.0
  C  C2868  1  0.472700  0.975400  0.631900  1.0
  C  C2869  1  0.472700  0.524600  0.131900  1.0
  C  C2870  1  0.027300  0.524600  0.868100  1.0
  C  C2871  1  0.972700  0.024600  0.631900  1.0
  C  C2872  1  0.527300  0.024600  0.368100  1.0
  C  C2873  1  0.551900  0.496100  0.888600  1.0
  C  C2874  1  0.948100  0.496100  0.111400  1.0
  C  C2875  1  0.051900  0.996100  0.388600  1.0
  C  C2876  1  0.448100  0.996100  0.611400  1.0
  C  C2877  1  0.448100  0.503900  0.111400  1.0
  C  C2878  1  0.051900  0.503900  0.888600  1.0
  C  C2879  1  0.948100  0.003900  0.611400  1.0
  C  C2880  1  0.551900  0.003900  0.388600  1.0
  C  C2881  1  0.528900  0.498200  0.911900  1.0
  C  C2882  1  0.971100  0.498200  0.088100  1.0
  C  C2883  1  0.028900  0.998200  0.411900  1.0
  C  C2884  1  0.471100  0.998200  0.588100  1.0
  C  C2885  1  0.471100  0.501800  0.088100  1.0
  C  C2886  1  0.028900  0.501800  0.911900  1.0
  C  C2887  1  0.971100  0.001800  0.588100  1.0
  C  C2888  1  0.528900  0.001800  0.411900  1.0
  C  C2889  1  0.441300  0.376800  0.876500  1.0
  C  C2890  1  0.058700  0.376800  0.123500  1.0
  C  C2891  1  0.941300  0.876800  0.376500  1.0
  C  C2892  1  0.558700  0.876800  0.623500  1.0
  C  C2893  1  0.558700  0.623200  0.123500  1.0
  C  C2894  1  0.941300  0.623200  0.876500  1.0
  C  C2895  1  0.058700  0.123200  0.623500  1.0
  C  C2896  1  0.441300  0.123200  0.376500  1.0
  C  C2897  1  0.440200  0.359400  0.901300  1.0
  C  C2898  1  0.059800  0.359400  0.098700  1.0
  C  C2899  1  0.940200  0.859400  0.401300  1.0
  C  C2900  1  0.559800  0.859400  0.598700  1.0
  C  C2901  1  0.559800  0.640600  0.098700  1.0
  C  C2902  1  0.940200  0.640600  0.901300  1.0
  C  C2903  1  0.059800  0.140600  0.598700  1.0
  C  C2904  1  0.440200  0.140600  0.401300  1.0
  C  C2905  1  0.441100  0.384000  0.922300  1.0
  C  C2906  1  0.058900  0.384000  0.077700  1.0
  C  C2907  1  0.941100  0.884000  0.422300  1.0
  C  C2908  1  0.558900  0.884000  0.577700  1.0
  C  C2909  1  0.558900  0.616000  0.077700  1.0
  C  C2910  1  0.941100  0.616000  0.922300  1.0
  C  C2911  1  0.058900  0.116000  0.577700  1.0
  C  C2912  1  0.441100  0.116000  0.422300  1.0
  C  C2913  1  0.627270  0.485100  0.000770  1.0
  C  C2914  1  0.872730  0.485100  0.999230  1.0
  C  C2915  1  0.127270  0.985100  0.500770  1.0
  C  C2916  1  0.372730  0.985100  0.499230  1.0
  C  C2917  1  0.372730  0.514900  0.999230  1.0
  C  C2918  1  0.127270  0.514900  0.000770  1.0
  C  C2919  1  0.872730  0.014900  0.499230  1.0
  C  C2920  1  0.627270  0.014900  0.500770  1.0
  C  C2921  1  0.656000  0.499400  0.984400  1.0
  C  C2922  1  0.844000  0.499400  0.015600  1.0
  C  C2923  1  0.156000  0.999400  0.484400  1.0
  C  C2924  1  0.344000  0.999400  0.515600  1.0
  C  C2925  1  0.344000  0.500600  0.015600  1.0
  C  C2926  1  0.156000  0.500600  0.984400  1.0
  C  C2927  1  0.844000  0.000600  0.515600  1.0
  C  C2928  1  0.656000  0.000600  0.484400  1.0
  C  C2929  1  0.665900  0.483500  0.959900  1.0
  C  C2930  1  0.834100  0.483500  0.040100  1.0
  C  C2931  1  0.165900  0.983500  0.459900  1.0
  C  C2932  1  0.334100  0.983500  0.540100  1.0
  C  C2933  1  0.334100  0.516500  0.040100  1.0
  C  C2934  1  0.165900  0.516500  0.959900  1.0
  C  C2935  1  0.834100  0.016500  0.540100  1.0
  C  C2936  1  0.665900  0.016500  0.459900  1.0
  C  C2937  1  0.646300  0.450700  0.953800  1.0
  C  C2938  1  0.853700  0.450700  0.046200  1.0
  C  C2939  1  0.146300  0.950700  0.453800  1.0
  C  C2940  1  0.353700  0.950700  0.546200  1.0
  C  C2941  1  0.353700  0.549300  0.046200  1.0
  C  C2942  1  0.146300  0.549300  0.953800  1.0
  C  C2943  1  0.853700  0.049300  0.546200  1.0
  C  C2944  1  0.646300  0.049300  0.453800  1.0
  C  C2945  1  0.618900  0.436300  0.970700  1.0
  C  C2946  1  0.881100  0.436300  0.029300  1.0
  C  C2947  1  0.118900  0.936300  0.470700  1.0
  C  C2948  1  0.381100  0.936300  0.529300  1.0
  C  C2949  1  0.381100  0.563700  0.029300  1.0
  C  C2950  1  0.118900  0.563700  0.970700  1.0
  C  C2951  1  0.881100  0.063700  0.529300  1.0
  C  C2952  1  0.618900  0.063700  0.470700  1.0
  C  C2953  1  0.476200  0.404400  0.026400  1.0
  C  C2954  1  0.023800  0.404400  0.973600  1.0
  C  C2955  1  0.976200  0.904400  0.526400  1.0
  C  C2956  1  0.523800  0.904400  0.473600  1.0
  C  C2957  1  0.523800  0.595600  0.973600  1.0
  C  C2958  1  0.976200  0.595600  0.026400  1.0
  C  C2959  1  0.023800  0.095600  0.473600  1.0
  C  C2960  1  0.476200  0.095600  0.526400  1.0
  C  C2961  1  0.447000  0.383100  0.038500  1.0
  C  C2962  1  0.053000  0.383100  0.961500  1.0
  C  C2963  1  0.947000  0.883100  0.538500  1.0
  C  C2964  1  0.553000  0.883100  0.461500  1.0
  C  C2965  1  0.553000  0.616900  0.961500  1.0
  C  C2966  1  0.947000  0.616900  0.038500  1.0
  C  C2967  1  0.053000  0.116900  0.461500  1.0
  C  C2968  1  0.447000  0.116900  0.538500  1.0
  C  C2969  1  0.465600  0.356400  0.056400  1.0
  C  C2970  1  0.034400  0.356400  0.943600  1.0
  C  C2971  1  0.965600  0.856400  0.556400  1.0
  C  C2972  1  0.534400  0.856400  0.443600  1.0
  C  C2973  1  0.534400  0.643600  0.943600  1.0
  C  C2974  1  0.965600  0.643600  0.056400  1.0
  C  C2975  1  0.034400  0.143600  0.443600  1.0
  C  C2976  1  0.465600  0.143600  0.556400  1.0
  C  C2977  1  0.513900  0.353000  0.064300  1.0
  C  C2978  1  0.986100  0.353000  0.935700  1.0
  C  C2979  1  0.013900  0.853000  0.564300  1.0
  C  C2980  1  0.486100  0.853000  0.435700  1.0
  C  C2981  1  0.486100  0.647000  0.935700  1.0
  C  C2982  1  0.013900  0.647000  0.064300  1.0
  C  C2983  1  0.986100  0.147000  0.435700  1.0
  C  C2984  1  0.513900  0.147000  0.564300  1.0
  C  C2985  1  0.539800  0.376400  0.051900  1.0
  C  C2986  1  0.960200  0.376400  0.948100  1.0
  C  C2987  1  0.039800  0.876400  0.551900  1.0
  C  C2988  1  0.460200  0.876400  0.448100  1.0
  C  C2989  1  0.460200  0.623600  0.948100  1.0
  C  C2990  1  0.039800  0.623600  0.051900  1.0
  C  C2991  1  0.960200  0.123600  0.448100  1.0
  C  C2992  1  0.539800  0.123600  0.551900  1.0
  C  C2993  1  0.655400  0.405800  0.049500  1.0
  C  C2994  1  0.844600  0.405800  0.950500  1.0
  C  C2995  1  0.155400  0.905800  0.549500  1.0
  C  C2996  1  0.344600  0.905800  0.450500  1.0
  C  C2997  1  0.344600  0.594200  0.950500  1.0
  C  C2998  1  0.155400  0.594200  0.049500  1.0
  C  C2999  1  0.844600  0.094200  0.450500  1.0
  C  C3000  1  0.655400  0.094200  0.549500  1.0
  C  C3001  1  0.683900  0.383200  0.068200  1.0
  C  C3002  1  0.816100  0.383200  0.931800  1.0
  C  C3003  1  0.183900  0.883200  0.568200  1.0
  C  C3004  1  0.316100  0.883200  0.431800  1.0
  C  C3005  1  0.316100  0.616800  0.931800  1.0
  C  C3006  1  0.183900  0.616800  0.068200  1.0
  C  C3007  1  0.816100  0.116800  0.431800  1.0
  C  C3008  1  0.683900  0.116800  0.568200  1.0
  C  C3009  1  0.665000  0.356800  0.081300  1.0
  C  C3010  1  0.835000  0.356800  0.918700  1.0
  C  C3011  1  0.165000  0.856800  0.581300  1.0
  C  C3012  1  0.335000  0.856800  0.418700  1.0
  C  C3013  1  0.335000  0.643200  0.918700  1.0
  C  C3014  1  0.165000  0.643200  0.081300  1.0
  C  C3015  1  0.835000  0.143200  0.418700  1.0
  C  C3016  1  0.665000  0.143200  0.581300  1.0
  C  C3017  1  0.618800  0.353700  0.076300  1.0
  C  C3018  1  0.881200  0.353700  0.923700  1.0
  C  C3019  1  0.118800  0.853700  0.576300  1.0
  C  C3020  1  0.381200  0.853700  0.423700  1.0
  C  C3021  1  0.381200  0.646300  0.923700  1.0
  C  C3022  1  0.118800  0.646300  0.076300  1.0
  C  C3023  1  0.881200  0.146300  0.423700  1.0
  C  C3024  1  0.618800  0.146300  0.576300  1.0
  C  C3025  1  0.590500  0.376300  0.058100  1.0
  C  C3026  1  0.909500  0.376300  0.941900  1.0
  C  C3027  1  0.090500  0.876300  0.558100  1.0
  C  C3028  1  0.409500  0.876300  0.441900  1.0
  C  C3029  1  0.409500  0.623700  0.941900  1.0
  C  C3030  1  0.090500  0.623700  0.058100  1.0
  C  C3031  1  0.909500  0.123700  0.441900  1.0
  C  C3032  1  0.590500  0.123700  0.558100  1.0
  C  C3033  1  0.599300  0.400800  0.965400  1.0
  C  C3034  1  0.900700  0.400800  0.034600  1.0
  C  C3035  1  0.099300  0.900800  0.465400  1.0
  C  C3036  1  0.400700  0.900800  0.534600  1.0
  C  C3037  1  0.400700  0.599200  0.034600  1.0
  C  C3038  1  0.099300  0.599200  0.965400  1.0
  C  C3039  1  0.900700  0.099200  0.534600  1.0
  C  C3040  1  0.599300  0.099200  0.465400  1.0
  C  C3041  1  0.605100  0.380800  0.942600  1.0
  C  C3042  1  0.894900  0.380800  0.057400  1.0
  C  C3043  1  0.105100  0.880800  0.442600  1.0
  C  C3044  1  0.394900  0.880800  0.557400  1.0
  C  C3045  1  0.394900  0.619200  0.057400  1.0
  C  C3046  1  0.105100  0.619200  0.942600  1.0
  C  C3047  1  0.894900  0.119200  0.557400  1.0
  C  C3048  1  0.605100  0.119200  0.442600  1.0
  C  C3049  1  0.586400  0.345500  0.939400  1.0
  C  C3050  1  0.913600  0.345500  0.060600  1.0
  C  C3051  1  0.086400  0.845500  0.439400  1.0
  C  C3052  1  0.413600  0.845500  0.560600  1.0
  C  C3053  1  0.413600  0.654500  0.060600  1.0
  C  C3054  1  0.086400  0.654500  0.939400  1.0
  C  C3055  1  0.913600  0.154500  0.560600  1.0
  C  C3056  1  0.586400  0.154500  0.439400  1.0
  C  C3057  1  0.560300  0.338400  0.960000  1.0
  C  C3058  1  0.939700  0.338400  0.040000  1.0
  C  C3059  1  0.060300  0.838400  0.460000  1.0
  C  C3060  1  0.439700  0.838400  0.540000  1.0
  C  C3061  1  0.439700  0.661600  0.040000  1.0
  C  C3062  1  0.060300  0.661600  0.960000  1.0
  C  C3063  1  0.939700  0.161600  0.540000  1.0
  C  C3064  1  0.560300  0.161600  0.460000  1.0
  C  C3065  1  0.555500  0.359600  0.981700  1.0
  C  C3066  1  0.944500  0.359600  0.018300  1.0
  C  C3067  1  0.055500  0.859600  0.481700  1.0
  C  C3068  1  0.444500  0.859600  0.518300  1.0
  C  C3069  1  0.444500  0.640400  0.018300  1.0
  C  C3070  1  0.055500  0.640400  0.981700  1.0
  C  C3071  1  0.944500  0.140400  0.518300  1.0
  C  C3072  1  0.555500  0.140400  0.481700  1.0
  C  C3073  1  0.487200  0.453300  0.961600  1.0
  C  C3074  1  0.012800  0.453300  0.038400  1.0
  C  C3075  1  0.987200  0.953300  0.461600  1.0
  C  C3076  1  0.512800  0.953300  0.538400  1.0
  C  C3077  1  0.512800  0.546700  0.038400  1.0
  C  C3078  1  0.987200  0.546700  0.961600  1.0
  C  C3079  1  0.012800  0.046700  0.538400  1.0
  C  C3080  1  0.487200  0.046700  0.461600  1.0
  C  C3081  1  0.543600  0.520000  0.939400  1.0
  C  C3082  1  0.956400  0.520000  0.060600  1.0
  C  C3083  1  0.043600  0.020000  0.439400  1.0
  C  C3084  1  0.456400  0.020000  0.560600  1.0
  C  C3085  1  0.456400  0.480000  0.060600  1.0
  C  C3086  1  0.043600  0.480000  0.939400  1.0
  C  C3087  1  0.956400  0.980000  0.560600  1.0
  C  C3088  1  0.543600  0.980000  0.439400  1.0
  C  C3089  1  0.395400  0.449600  0.947700  1.0
  C  C3090  1  0.104600  0.449600  0.052300  1.0
  C  C3091  1  0.895400  0.949600  0.447700  1.0
  C  C3092  1  0.604600  0.949600  0.552300  1.0
  C  C3093  1  0.604600  0.550400  0.052300  1.0
  C  C3094  1  0.895400  0.550400  0.947700  1.0
  C  C3095  1  0.104600  0.050400  0.552300  1.0
  C  C3096  1  0.395400  0.050400  0.447700  1.0
  C  C3097  1  0.438820  0.508400  0.944620  1.0
  C  C3098  1  0.061180  0.508400  0.055380  1.0
  C  C3099  1  0.938820  0.008400  0.444620  1.0
  C  C3100  1  0.561180  0.008400  0.555380  1.0
  C  C3101  1  0.561180  0.491600  0.055380  1.0
  C  C3102  1  0.938820  0.491600  0.944620  1.0
  C  C3103  1  0.061180  0.991600  0.555380  1.0
  C  C3104  1  0.438820  0.991600  0.444620  1.0
  C  C3105  1  0.332900  0.508500  0.906100  1.0
  C  C3106  1  0.167100  0.508500  0.093900  1.0
  C  C3107  1  0.832900  0.008500  0.406100  1.0
  C  C3108  1  0.667100  0.008500  0.593900  1.0
  C  C3109  1  0.667100  0.491500  0.093900  1.0
  C  C3110  1  0.832900  0.491500  0.906100  1.0
  C  C3111  1  0.167100  0.991500  0.593900  1.0
  C  C3112  1  0.332900  0.991500  0.406100  1.0
  C  C3113  1  0.440700  0.362200  0.845400  1.0
  C  C3114  1  0.059300  0.362200  0.154600  1.0
  C  C3115  1  0.940700  0.862200  0.345400  1.0
  C  C3116  1  0.559300  0.862200  0.654600  1.0
  C  C3117  1  0.559300  0.637800  0.154600  1.0
  C  C3118  1  0.940700  0.637800  0.845400  1.0
  C  C3119  1  0.059300  0.137800  0.654600  1.0
  C  C3120  1  0.440700  0.137800  0.345400  1.0
  C  C3121  1  0.372700  0.468000  0.809100  1.0
  C  C3122  1  0.127300  0.468000  0.190900  1.0
  C  C3123  1  0.872700  0.968000  0.309100  1.0
  C  C3124  1  0.627300  0.968000  0.690900  1.0
  C  C3125  1  0.627300  0.532000  0.190900  1.0
  C  C3126  1  0.872700  0.532000  0.809100  1.0
  C  C3127  1  0.127300  0.032000  0.690900  1.0
  C  C3128  1  0.372700  0.032000  0.309100  1.0
  C  C3129  1  0.536100  0.463300  0.838300  1.0
  C  C3130  1  0.963900  0.463300  0.161700  1.0
  C  C3131  1  0.036100  0.963300  0.338300  1.0
  C  C3132  1  0.463900  0.963300  0.661700  1.0
  C  C3133  1  0.463900  0.536700  0.161700  1.0
  C  C3134  1  0.036100  0.536700  0.838300  1.0
  C  C3135  1  0.963900  0.036700  0.661700  1.0
  C  C3136  1  0.536100  0.036700  0.338300  1.0
  C  C3137  1  0.440000  0.376500  0.953600  1.0
  C  C3138  1  0.060000  0.376500  0.046400  1.0
  C  C3139  1  0.940000  0.876500  0.453600  1.0
  C  C3140  1  0.560000  0.876500  0.546400  1.0
  C  C3141  1  0.560000  0.623500  0.046400  1.0
  C  C3142  1  0.940000  0.623500  0.953600  1.0
  C  C3143  1  0.060000  0.123500  0.546400  1.0
  C  C3144  1  0.440000  0.123500  0.453600  1.0
  C  C3145  1  0.939400  0.171900  0.075200  1.0
  C  C3146  1  0.560600  0.171900  0.924800  1.0
  C  C3147  1  0.439400  0.671900  0.575200  1.0
  C  C3148  1  0.060600  0.671900  0.424800  1.0
  C  C3149  1  0.060600  0.828100  0.924800  1.0
  C  C3150  1  0.439400  0.828100  0.075200  1.0
  C  C3151  1  0.560600  0.328100  0.424800  1.0
  C  C3152  1  0.939400  0.328100  0.575200  1.0
  C  C3153  1  0.907100  0.150900  0.089100  1.0
  C  C3154  1  0.592900  0.150900  0.910900  1.0
  C  C3155  1  0.407100  0.650900  0.589100  1.0
  C  C3156  1  0.092900  0.650900  0.410900  1.0
  C  C3157  1  0.092900  0.849100  0.910900  1.0
  C  C3158  1  0.407100  0.849100  0.089100  1.0
  C  C3159  1  0.592900  0.349100  0.410900  1.0
  C  C3160  1  0.907100  0.349100  0.589100  1.0
  C  C3161  1  0.968100  0.201300  0.095600  1.0
  C  C3162  1  0.531900  0.201300  0.904400  1.0
  C  C3163  1  0.468100  0.701300  0.595600  1.0
  C  C3164  1  0.031900  0.701300  0.404400  1.0
  C  C3165  1  0.031900  0.798700  0.904400  1.0
  C  C3166  1  0.468100  0.798700  0.095600  1.0
  C  C3167  1  0.531900  0.298700  0.404400  1.0
  C  C3168  1  0.968100  0.298700  0.595600  1.0
  C  C3169  1  0.907300  0.190200  0.049000  1.0
  C  C3170  1  0.592700  0.190200  0.951000  1.0
  C  C3171  1  0.407300  0.690200  0.549000  1.0
  C  C3172  1  0.092700  0.690200  0.451000  1.0
  C  C3173  1  0.092700  0.809800  0.951000  1.0
  C  C3174  1  0.407300  0.809800  0.049000  1.0
  C  C3175  1  0.592700  0.309800  0.451000  1.0
  C  C3176  1  0.907300  0.309800  0.549000  1.0
  C  C3177  1  0.197500  0.174500  0.099000  1.0
  C  C3178  1  0.302500  0.174500  0.901000  1.0
  C  C3179  1  0.697500  0.674500  0.599000  1.0
  C  C3180  1  0.802500  0.674500  0.401000  1.0
  C  C3181  1  0.802500  0.825500  0.901000  1.0
  C  C3182  1  0.697500  0.825500  0.099000  1.0
  C  C3183  1  0.302500  0.325500  0.401000  1.0
  C  C3184  1  0.197500  0.325500  0.599000  1.0
  C  C3185  1  0.193300  0.203700  0.084500  1.0
  C  C3186  1  0.306700  0.203700  0.915500  1.0
  C  C3187  1  0.693300  0.703700  0.584500  1.0
  C  C3188  1  0.806700  0.703700  0.415500  1.0
  C  C3189  1  0.806700  0.796300  0.915500  1.0
  C  C3190  1  0.693300  0.796300  0.084500  1.0
  C  C3191  1  0.306700  0.296300  0.415500  1.0
  C  C3192  1  0.193300  0.296300  0.584500  1.0
  C  C3193  1  0.187000  0.190300  0.119300  1.0
  C  C3194  1  0.313000  0.190300  0.880700  1.0
  C  C3195  1  0.687000  0.690300  0.619300  1.0
  C  C3196  1  0.813000  0.690300  0.380700  1.0
  C  C3197  1  0.813000  0.809700  0.880700  1.0
  C  C3198  1  0.687000  0.809700  0.119300  1.0
  C  C3199  1  0.313000  0.309700  0.380700  1.0
  C  C3200  1  0.187000  0.309700  0.619300  1.0
  C  C3201  1  0.235900  0.167100  0.115400  1.0
  C  C3202  1  0.264100  0.167100  0.884600  1.0
  C  C3203  1  0.735900  0.667100  0.615400  1.0
  C  C3204  1  0.764100  0.667100  0.384600  1.0
  C  C3205  1  0.764100  0.832900  0.884600  1.0
  C  C3206  1  0.735900  0.832900  0.115400  1.0
  C  C3207  1  0.264100  0.332900  0.384600  1.0
  C  C3208  1  0.235900  0.332900  0.615400  1.0
  C  C3209  1  0.198900  0.003700  0.942700  1.0
  C  C3210  1  0.301100  0.003700  0.057300  1.0
  C  C3211  1  0.698900  0.503700  0.442700  1.0
  C  C3212  1  0.801100  0.503700  0.557300  1.0
  C  C3213  1  0.801100  0.996300  0.057300  1.0
  C  C3214  1  0.698900  0.996300  0.942700  1.0
  C  C3215  1  0.301100  0.496300  0.557300  1.0
  C  C3216  1  0.198900  0.496300  0.442700  1.0
  C  C3217  1  0.200000  0.016900  0.914600  1.0
  C  C3218  1  0.300000  0.016900  0.085400  1.0
  C  C3219  1  0.700000  0.516900  0.414600  1.0
  C  C3220  1  0.800000  0.516900  0.585400  1.0
  C  C3221  1  0.800000  0.983100  0.085400  1.0
  C  C3222  1  0.700000  0.983100  0.914600  1.0
  C  C3223  1  0.300000  0.483100  0.585400  1.0
  C  C3224  1  0.200000  0.483100  0.414600  1.0
  C  C3225  1  0.248000  0.028800  0.950300  1.0
  C  C3226  1  0.252000  0.028800  0.049700  1.0
  C  C3227  1  0.748000  0.528800  0.450300  1.0
  C  C3228  1  0.752000  0.528800  0.549700  1.0
  C  C3229  1  0.752000  0.971200  0.049700  1.0
  C  C3230  1  0.748000  0.971200  0.950300  1.0
  C  C3231  1  0.252000  0.471200  0.549700  1.0
  C  C3232  1  0.248000  0.471200  0.450300  1.0
  C  C3233  1  0.221500  0.970500  0.951200  1.0
  C  C3234  1  0.278500  0.970500  0.048800  1.0
  C  C3235  1  0.721500  0.470500  0.451200  1.0
  C  C3236  1  0.778500  0.470500  0.548800  1.0
  C  C3237  1  0.778500  0.029500  0.048800  1.0
  C  C3238  1  0.721500  0.029500  0.951200  1.0
  C  C3239  1  0.278500  0.529500  0.548800  1.0
  C  C3240  1  0.221500  0.529500  0.451200  1.0
  C  C3241  1  0.094700  0.178200  0.918400  1.0
  C  C3242  1  0.405300  0.178200  0.081600  1.0
  C  C3243  1  0.594700  0.678200  0.418400  1.0
  C  C3244  1  0.905300  0.678200  0.581600  1.0
  C  C3245  1  0.905300  0.821800  0.081600  1.0
  C  C3246  1  0.594700  0.821800  0.918400  1.0
  C  C3247  1  0.405300  0.321800  0.581600  1.0
  C  C3248  1  0.094700  0.321800  0.418400  1.0
  C  C3249  1  0.128700  0.195000  0.918700  1.0
  C  C3250  1  0.371300  0.195000  0.081300  1.0
  C  C3251  1  0.628700  0.695000  0.418700  1.0
  C  C3252  1  0.871300  0.695000  0.581300  1.0
  C  C3253  1  0.871300  0.805000  0.081300  1.0
  C  C3254  1  0.628700  0.805000  0.918700  1.0
  C  C3255  1  0.371300  0.305000  0.581300  1.0
  C  C3256  1  0.128700  0.305000  0.418700  1.0
  C  C3257  1  0.080100  0.155500  0.888200  1.0
  C  C3258  1  0.419900  0.155500  0.111800  1.0
  C  C3259  1  0.580100  0.655500  0.388200  1.0
  C  C3260  1  0.919900  0.655500  0.611800  1.0
  C  C3261  1  0.919900  0.844500  0.111800  1.0
  C  C3262  1  0.580100  0.844500  0.888200  1.0
  C  C3263  1  0.419900  0.344500  0.611800  1.0
  C  C3264  1  0.080100  0.344500  0.388200  1.0
  C  C3265  1  0.082400  0.217000  0.908400  1.0
  C  C3266  1  0.417600  0.217000  0.091600  1.0
  C  C3267  1  0.582400  0.717000  0.408400  1.0
  C  C3268  1  0.917600  0.717000  0.591600  1.0
  C  C3269  1  0.917600  0.783000  0.091600  1.0
  C  C3270  1  0.582400  0.783000  0.908400  1.0
  C  C3271  1  0.417600  0.283000  0.591600  1.0
  C  C3272  1  0.082400  0.283000  0.408400  1.0
  C  C3273  1  0.940500  0.123700  0.928100  1.0
  C  C3274  1  0.559500  0.123700  0.071900  1.0
  C  C3275  1  0.440500  0.623700  0.428100  1.0
  C  C3276  1  0.059500  0.623700  0.571900  1.0
  C  C3277  1  0.059500  0.876300  0.071900  1.0
  C  C3278  1  0.440500  0.876300  0.928100  1.0
  C  C3279  1  0.559500  0.376300  0.571900  1.0
  C  C3280  1  0.940500  0.376300  0.428100  1.0
  C  C3281  1  0.941600  0.146700  0.906200  1.0
  C  C3282  1  0.558400  0.146700  0.093800  1.0
  C  C3283  1  0.441600  0.646700  0.406200  1.0
  C  C3284  1  0.058400  0.646700  0.593800  1.0
  C  C3285  1  0.058400  0.853300  0.093800  1.0
  C  C3286  1  0.441600  0.853300  0.906200  1.0
  C  C3287  1  0.558400  0.353300  0.593800  1.0
  C  C3288  1  0.941600  0.353300  0.406200  1.0
  C  C3289  1  0.942300  0.132800  0.881000  1.0
  C  C3290  1  0.557700  0.132800  0.119000  1.0
  C  C3291  1  0.442300  0.632800  0.381000  1.0
  C  C3292  1  0.057700  0.632800  0.619000  1.0
  C  C3293  1  0.057700  0.867200  0.119000  1.0
  C  C3294  1  0.442300  0.867200  0.881000  1.0
  C  C3295  1  0.557700  0.367200  0.619000  1.0
  C  C3296  1  0.942300  0.367200  0.381000  1.0
  C  C3297  1  0.871700  0.032800  0.840600  1.0
  C  C3298  1  0.628300  0.032800  0.159400  1.0
  C  C3299  1  0.371700  0.532800  0.340600  1.0
  C  C3300  1  0.128300  0.532800  0.659400  1.0
  C  C3301  1  0.128300  0.967200  0.159400  1.0
  C  C3302  1  0.371700  0.967200  0.840600  1.0
  C  C3303  1  0.628300  0.467200  0.659400  1.0
  C  C3304  1  0.871700  0.467200  0.340600  1.0
  C  C3305  1  0.841300  0.013300  0.851400  1.0
  C  C3306  1  0.658700  0.013300  0.148600  1.0
  C  C3307  1  0.341300  0.513300  0.351400  1.0
  C  C3308  1  0.158700  0.513300  0.648600  1.0
  C  C3309  1  0.158700  0.986700  0.148600  1.0
  C  C3310  1  0.341300  0.986700  0.851400  1.0
  C  C3311  1  0.658700  0.486700  0.648600  1.0
  C  C3312  1  0.841300  0.486700  0.351400  1.0
  C  C3313  1  0.854600  0.014000  0.882300  1.0
  C  C3314  1  0.645400  0.014000  0.117700  1.0
  C  C3315  1  0.354600  0.514000  0.382300  1.0
  C  C3316  1  0.145400  0.514000  0.617700  1.0
  C  C3317  1  0.145400  0.986000  0.117700  1.0
  C  C3318  1  0.354600  0.986000  0.882300  1.0
  C  C3319  1  0.645400  0.486000  0.617700  1.0
  C  C3320  1  0.854600  0.486000  0.382300  1.0
  C  C3321  1  0.025900  0.031900  0.869100  1.0
  C  C3322  1  0.474100  0.031900  0.130900  1.0
  C  C3323  1  0.525900  0.531900  0.369100  1.0
  C  C3324  1  0.974100  0.531900  0.630900  1.0
  C  C3325  1  0.974100  0.968100  0.130900  1.0
  C  C3326  1  0.525900  0.968100  0.869100  1.0
  C  C3327  1  0.474100  0.468100  0.630900  1.0
  C  C3328  1  0.025900  0.468100  0.369100  1.0
  C  C3329  1  0.050400  0.010700  0.888700  1.0
  C  C3330  1  0.449600  0.010700  0.111300  1.0
  C  C3331  1  0.550400  0.510700  0.388700  1.0
  C  C3332  1  0.949600  0.510700  0.611300  1.0
  C  C3333  1  0.949600  0.989300  0.111300  1.0
  C  C3334  1  0.550400  0.989300  0.888700  1.0
  C  C3335  1  0.449600  0.489300  0.611300  1.0
  C  C3336  1  0.050400  0.489300  0.388700  1.0
  C  C3337  1  0.027200  0.008300  0.912100  1.0
  C  C3338  1  0.472800  0.008300  0.087900  1.0
  C  C3339  1  0.527200  0.508300  0.412100  1.0
  C  C3340  1  0.972800  0.508300  0.587900  1.0
  C  C3341  1  0.972800  0.991700  0.087900  1.0
  C  C3342  1  0.527200  0.991700  0.912100  1.0
  C  C3343  1  0.472800  0.491700  0.587900  1.0
  C  C3344  1  0.027200  0.491700  0.412100  1.0
  C  C3345  1  0.041900  0.126100  0.056800  1.0
  C  C3346  1  0.458100  0.126100  0.943200  1.0
  C  C3347  1  0.541900  0.626100  0.556800  1.0
  C  C3348  1  0.958100  0.626100  0.443200  1.0
  C  C3349  1  0.958100  0.873900  0.943200  1.0
  C  C3350  1  0.541900  0.873900  0.056800  1.0
  C  C3351  1  0.458100  0.373900  0.443200  1.0
  C  C3352  1  0.041900  0.373900  0.556800  1.0
  C  C3353  1  0.016000  0.150000  0.068700  1.0
  C  C3354  1  0.484000  0.150000  0.931300  1.0
  C  C3355  1  0.516000  0.650000  0.568700  1.0
  C  C3356  1  0.984000  0.650000  0.431300  1.0
  C  C3357  1  0.984000  0.850000  0.931300  1.0
  C  C3358  1  0.516000  0.850000  0.068700  1.0
  C  C3359  1  0.484000  0.350000  0.431300  1.0
  C  C3360  1  0.016000  0.350000  0.568700  1.0
  C  C3361  1  0.968200  0.148300  0.062300  1.0
  C  C3362  1  0.531800  0.148300  0.937700  1.0
  C  C3363  1  0.468200  0.648300  0.562300  1.0
  C  C3364  1  0.031800  0.648300  0.437700  1.0
  C  C3365  1  0.031800  0.851700  0.937700  1.0
  C  C3366  1  0.468200  0.851700  0.062300  1.0
  C  C3367  1  0.531800  0.351700  0.437700  1.0
  C  C3368  1  0.968200  0.351700  0.562300  1.0
  C  C3369  1  0.949200  0.120600  0.044700  1.0
  C  C3370  1  0.550800  0.120600  0.955300  1.0
  C  C3371  1  0.449200  0.620600  0.544700  1.0
  C  C3372  1  0.050800  0.620600  0.455300  1.0
  C  C3373  1  0.050800  0.879400  0.955300  1.0
  C  C3374  1  0.449200  0.879400  0.044700  1.0
  C  C3375  1  0.550800  0.379400  0.455300  1.0
  C  C3376  1  0.949200  0.379400  0.544700  1.0
  C  C3377  1  0.977100  0.098300  0.032100  1.0
  C  C3378  1  0.522900  0.098300  0.967900  1.0
  C  C3379  1  0.477100  0.598300  0.532100  1.0
  C  C3380  1  0.022900  0.598300  0.467900  1.0
  C  C3381  1  0.022900  0.901700  0.967900  1.0
  C  C3382  1  0.477100  0.901700  0.032100  1.0
  C  C3383  1  0.522900  0.401700  0.467900  1.0
  C  C3384  1  0.977100  0.401700  0.532100  1.0
  C  C3385  1  0.092300  0.126500  0.061900  1.0
  C  C3386  1  0.407700  0.126500  0.938100  1.0
  C  C3387  1  0.592300  0.626500  0.561900  1.0
  C  C3388  1  0.907700  0.626500  0.438100  1.0
  C  C3389  1  0.907700  0.873500  0.938100  1.0
  C  C3390  1  0.592300  0.873500  0.061900  1.0
  C  C3391  1  0.407700  0.373500  0.438100  1.0
  C  C3392  1  0.092300  0.373500  0.561900  1.0
  C  C3393  1  0.119500  0.150700  0.079200  1.0
  C  C3394  1  0.380500  0.150700  0.920800  1.0
  C  C3395  1  0.619500  0.650700  0.579200  1.0
  C  C3396  1  0.880500  0.650700  0.420800  1.0
  C  C3397  1  0.880500  0.849300  0.920800  1.0
  C  C3398  1  0.619500  0.849300  0.079200  1.0
  C  C3399  1  0.380500  0.349300  0.420800  1.0
  C  C3400  1  0.119500  0.349300  0.579200  1.0
  C  C3401  1  0.165400  0.148500  0.083700  1.0
  C  C3402  1  0.334600  0.148500  0.916300  1.0
  C  C3403  1  0.665400  0.648500  0.583700  1.0
  C  C3404  1  0.834600  0.648500  0.416300  1.0
  C  C3405  1  0.834600  0.851500  0.916300  1.0
  C  C3406  1  0.665400  0.851500  0.083700  1.0
  C  C3407  1  0.334600  0.351500  0.416300  1.0
  C  C3408  1  0.165400  0.351500  0.583700  1.0
  C  C3409  1  0.184200  0.121000  0.070300  1.0
  C  C3410  1  0.315800  0.121000  0.929700  1.0
  C  C3411  1  0.684200  0.621000  0.570300  1.0
  C  C3412  1  0.815800  0.621000  0.429700  1.0
  C  C3413  1  0.815800  0.879000  0.929700  1.0
  C  C3414  1  0.684200  0.879000  0.070300  1.0
  C  C3415  1  0.315800  0.379000  0.429700  1.0
  C  C3416  1  0.184200  0.379000  0.570300  1.0
  C  C3417  1  0.154800  0.098100  0.053400  1.0
  C  C3418  1  0.345200  0.098100  0.946600  1.0
  C  C3419  1  0.654800  0.598100  0.553400  1.0
  C  C3420  1  0.845200  0.598100  0.446600  1.0
  C  C3421  1  0.845200  0.901900  0.946600  1.0
  C  C3422  1  0.654800  0.901900  0.053400  1.0
  C  C3423  1  0.345200  0.401900  0.446600  1.0
  C  C3424  1  0.154800  0.401900  0.553400  1.0
  C  C3425  1  0.120700  0.065900  0.972800  1.0
  C  C3426  1  0.379300  0.065900  0.027200  1.0
  C  C3427  1  0.620700  0.565900  0.472800  1.0
  C  C3428  1  0.879300  0.565900  0.527200  1.0
  C  C3429  1  0.879300  0.934100  0.027200  1.0
  C  C3430  1  0.620700  0.934100  0.972800  1.0
  C  C3431  1  0.379300  0.434100  0.527200  1.0
  C  C3432  1  0.120700  0.434100  0.472800  1.0
  C  C3433  1  0.147700  0.051700  0.955300  1.0
  C  C3434  1  0.352300  0.051700  0.044700  1.0
  C  C3435  1  0.647700  0.551700  0.455300  1.0
  C  C3436  1  0.852300  0.551700  0.544700  1.0
  C  C3437  1  0.852300  0.948300  0.044700  1.0
  C  C3438  1  0.647700  0.948300  0.955300  1.0
  C  C3439  1  0.352300  0.448300  0.544700  1.0
  C  C3440  1  0.147700  0.448300  0.455300  1.0
  C  C3441  1  0.167500  0.018600  0.960500  1.0
  C  C3442  1  0.332500  0.018600  0.039500  1.0
  C  C3443  1  0.667500  0.518600  0.460500  1.0
  C  C3444  1  0.832500  0.518600  0.539500  1.0
  C  C3445  1  0.832500  0.981400  0.039500  1.0
  C  C3446  1  0.667500  0.981400  0.960500  1.0
  C  C3447  1  0.332500  0.481400  0.539500  1.0
  C  C3448  1  0.167500  0.481400  0.460500  1.0
  C  C3449  1  0.157400  0.000600  0.984700  1.0
  C  C3450  1  0.342600  0.000600  0.015300  1.0
  C  C3451  1  0.657400  0.500600  0.484700  1.0
  C  C3452  1  0.842600  0.500600  0.515300  1.0
  C  C3453  1  0.842600  0.999400  0.015300  1.0
  C  C3454  1  0.657400  0.999400  0.984700  1.0
  C  C3455  1  0.342600  0.499400  0.515300  1.0
  C  C3456  1  0.157400  0.499400  0.484700  1.0
  C  C3457  1  0.128400  0.015400  0.001200  1.0
  C  C3458  1  0.371600  0.015400  0.998800  1.0
  C  C3459  1  0.628400  0.515400  0.501200  1.0
  C  C3460  1  0.871600  0.515400  0.498800  1.0
  C  C3461  1  0.871600  0.984600  0.998800  1.0
  C  C3462  1  0.628400  0.984600  0.001200  1.0
  C  C3463  1  0.371600  0.484600  0.498800  1.0
  C  C3464  1  0.128400  0.484600  0.501200  1.0
  C  C3465  1  0.100500  0.100100  0.968100  1.0
  C  C3466  1  0.399500  0.100100  0.031900  1.0
  C  C3467  1  0.600500  0.600100  0.468100  1.0
  C  C3468  1  0.899500  0.600100  0.531900  1.0
  C  C3469  1  0.899500  0.899900  0.031900  1.0
  C  C3470  1  0.600500  0.899900  0.968100  1.0
  C  C3471  1  0.399500  0.399900  0.531900  1.0
  C  C3472  1  0.100500  0.399900  0.468100  1.0
  C  C3473  1  0.108200  0.121500  0.945400  1.0
  C  C3474  1  0.391800  0.121500  0.054600  1.0
  C  C3475  1  0.608200  0.621500  0.445400  1.0
  C  C3476  1  0.891800  0.621500  0.554600  1.0
  C  C3477  1  0.891800  0.878500  0.054600  1.0
  C  C3478  1  0.608200  0.878500  0.945400  1.0
  C  C3479  1  0.391800  0.378500  0.554600  1.0
  C  C3480  1  0.108200  0.378500  0.445400  1.0
  C  C3481  1  0.089400  0.154300  0.942000  1.0
  C  C3482  1  0.410600  0.154300  0.058000  1.0
  C  C3483  1  0.589400  0.654300  0.442000  1.0
  C  C3484  1  0.910600  0.654300  0.558000  1.0
  C  C3485  1  0.910600  0.845700  0.058000  1.0
  C  C3486  1  0.589400  0.845700  0.942000  1.0
  C  C3487  1  0.410600  0.345700  0.558000  1.0
  C  C3488  1  0.089400  0.345700  0.442000  1.0
  C  C3489  1  0.063500  0.164800  0.963200  1.0
  C  C3490  1  0.436500  0.164800  0.036800  1.0
  C  C3491  1  0.563500  0.664800  0.463200  1.0
  C  C3492  1  0.936500  0.664800  0.536800  1.0
  C  C3493  1  0.936500  0.835200  0.036800  1.0
  C  C3494  1  0.563500  0.835200  0.963200  1.0
  C  C3495  1  0.436500  0.335200  0.536800  1.0
  C  C3496  1  0.063500  0.335200  0.463200  1.0
  C  C3497  1  0.058000  0.142800  0.984900  1.0
  C  C3498  1  0.442000  0.142800  0.015100  1.0
  C  C3499  1  0.558000  0.642800  0.484900  1.0
  C  C3500  1  0.942000  0.642800  0.515100  1.0
  C  C3501  1  0.942000  0.857200  0.015100  1.0
  C  C3502  1  0.558000  0.857200  0.984900  1.0
  C  C3503  1  0.442000  0.357200  0.515100  1.0
  C  C3504  1  0.058000  0.357200  0.484900  1.0
  C  C3505  1  0.894800  0.053600  0.948700  1.0
  C  C3506  1  0.605200  0.053600  0.051300  1.0
  C  C3507  1  0.394800  0.553600  0.448700  1.0
  C  C3508  1  0.105200  0.553600  0.551300  1.0
  C  C3509  1  0.105200  0.946400  0.051300  1.0
  C  C3510  1  0.394800  0.946400  0.948700  1.0
  C  C3511  1  0.605200  0.446400  0.551300  1.0
  C  C3512  1  0.894800  0.446400  0.448700  1.0
  C  C3513  1  0.985100  0.049900  0.962900  1.0
  C  C3514  1  0.514900  0.049900  0.037100  1.0
  C  C3515  1  0.485100  0.549900  0.462900  1.0
  C  C3516  1  0.014900  0.549900  0.537100  1.0
  C  C3517  1  0.014900  0.950100  0.037100  1.0
  C  C3518  1  0.485100  0.950100  0.962900  1.0
  C  C3519  1  0.514900  0.450100  0.537100  1.0
  C  C3520  1  0.985100  0.450100  0.462900  1.0
  C  C3521  1  0.940700  0.127700  0.958700  1.0
  C  C3522  1  0.559300  0.127700  0.041300  1.0
  C  C3523  1  0.440700  0.627700  0.458700  1.0
  C  C3524  1  0.059300  0.627700  0.541300  1.0
  C  C3525  1  0.059300  0.872300  0.041300  1.0
  C  C3526  1  0.440700  0.872300  0.958700  1.0
  C  C3527  1  0.559300  0.372300  0.541300  1.0
  C  C3528  1  0.940700  0.372300  0.458700  1.0
  C  C3529  1  0.831800  0.998300  0.904100  1.0
  C  C3530  1  0.668200  0.998300  0.095900  1.0
  C  C3531  1  0.331800  0.498300  0.404100  1.0
  C  C3532  1  0.168200  0.498300  0.595900  1.0
  C  C3533  1  0.168200  0.001700  0.095900  1.0
  C  C3534  1  0.331800  0.001700  0.904100  1.0
  C  C3535  1  0.668200  0.501700  0.595900  1.0
  C  C3536  1  0.831800  0.501700  0.404100  1.0
  C  C3537  1  0.874800  0.041500  0.809800  1.0
  C  C3538  1  0.625200  0.041500  0.190200  1.0
  C  C3539  1  0.374800  0.541500  0.309800  1.0
  C  C3540  1  0.125200  0.541500  0.690200  1.0
  C  C3541  1  0.125200  0.958500  0.190200  1.0
  C  C3542  1  0.374800  0.958500  0.809800  1.0
  C  C3543  1  0.625200  0.458500  0.690200  1.0
  C  C3544  1  0.874800  0.458500  0.309800  1.0
  C  C3545  1  0.939100  0.146100  0.849900  1.0
  C  C3546  1  0.560900  0.146100  0.150100  1.0
  C  C3547  1  0.439100  0.646100  0.349900  1.0
  C  C3548  1  0.060900  0.646100  0.650100  1.0
  C  C3549  1  0.060900  0.853900  0.150100  1.0
  C  C3550  1  0.439100  0.853900  0.849900  1.0
  C  C3551  1  0.560900  0.353900  0.650100  1.0
  C  C3552  1  0.939100  0.353900  0.349900  1.0
  C  C3553  1  0.041800  0.986000  0.939200  1.0
  C  C3554  1  0.458200  0.986000  0.060800  1.0
  C  C3555  1  0.541800  0.486000  0.439200  1.0
  C  C3556  1  0.958200  0.486000  0.560800  1.0
  C  C3557  1  0.958200  0.014000  0.060800  1.0
  C  C3558  1  0.541800  0.014000  0.939200  1.0
  C  C3559  1  0.458200  0.514000  0.560800  1.0
  C  C3560  1  0.041800  0.514000  0.439200  1.0
  C  C3561  1  0.035300  0.044900  0.839800  1.0
  C  C3562  1  0.464700  0.044900  0.160200  1.0
  C  C3563  1  0.535300  0.544900  0.339800  1.0
  C  C3564  1  0.964700  0.544900  0.660200  1.0
  C  C3565  1  0.964700  0.955100  0.160200  1.0
  C  C3566  1  0.535300  0.955100  0.839800  1.0
  C  C3567  1  0.464700  0.455100  0.660200  1.0
  C  C3568  1  0.035300  0.455100  0.339800  1.0
  C  C3569  1  0.937900  0.996600  0.942600  1.0
  C  C3570  1  0.562100  0.996600  0.057400  1.0
  C  C3571  1  0.437900  0.496600  0.442600  1.0
  C  C3572  1  0.062100  0.496600  0.557400  1.0
  C  C3573  1  0.062100  0.003400  0.057400  1.0
  C  C3574  1  0.437900  0.003400  0.942600  1.0
  C  C3575  1  0.562100  0.503400  0.557400  1.0
  C  C3576  1  0.937900  0.503400  0.442600  1.0
  C  C3577  1  0.691200  0.576200  0.324900  1.0
  C  C3578  1  0.808800  0.576200  0.675100  1.0
  C  C3579  1  0.191200  0.076200  0.824900  1.0
  C  C3580  1  0.308800  0.076200  0.175100  1.0
  C  C3581  1  0.308800  0.423800  0.675100  1.0
  C  C3582  1  0.191200  0.423800  0.324900  1.0
  C  C3583  1  0.808800  0.923800  0.175100  1.0
  C  C3584  1  0.691200  0.923800  0.824900  1.0
  C  C3585  1  0.663400  0.595700  0.342900  1.0
  C  C3586  1  0.836600  0.595700  0.657100  1.0
  C  C3587  1  0.163400  0.095700  0.842900  1.0
  C  C3588  1  0.336600  0.095700  0.157100  1.0
  C  C3589  1  0.336600  0.404300  0.657100  1.0
  C  C3590  1  0.163400  0.404300  0.342900  1.0
  C  C3591  1  0.836600  0.904300  0.157100  1.0
  C  C3592  1  0.663400  0.904300  0.842900  1.0
  C  C3593  1  0.712700  0.550500  0.341600  1.0
  C  C3594  1  0.787300  0.550500  0.658400  1.0
  C  C3595  1  0.212700  0.050500  0.841600  1.0
  C  C3596  1  0.287300  0.050500  0.158400  1.0
  C  C3597  1  0.287300  0.449500  0.658400  1.0
  C  C3598  1  0.212700  0.449500  0.341600  1.0
  C  C3599  1  0.787300  0.949500  0.158400  1.0
  C  C3600  1  0.712700  0.949500  0.841600  1.0
  C  C3601  1  0.657200  0.559800  0.298000  1.0
  C  C3602  1  0.842800  0.559800  0.702000  1.0
  C  C3603  1  0.157200  0.059800  0.798000  1.0
  C  C3604  1  0.342800  0.059800  0.202000  1.0
  C  C3605  1  0.342800  0.440200  0.702000  1.0
  C  C3606  1  0.157200  0.440200  0.298000  1.0
  C  C3607  1  0.842800  0.940200  0.202000  1.0
  C  C3608  1  0.657200  0.940200  0.798000  1.0
  C  C3609  1  0.949700  0.573100  0.351100  1.0
  C  C3610  1  0.550300  0.573100  0.648900  1.0
  C  C3611  1  0.449700  0.073100  0.851100  1.0
  C  C3612  1  0.050300  0.073100  0.148900  1.0
  C  C3613  1  0.050300  0.426900  0.648900  1.0
  C  C3614  1  0.449700  0.426900  0.351100  1.0
  C  C3615  1  0.550300  0.926900  0.148900  1.0
  C  C3616  1  0.949700  0.926900  0.851100  1.0
  C  C3617  1  0.934900  0.559300  0.373700  1.0
  C  C3618  1  0.565100  0.559300  0.626300  1.0
  C  C3619  1  0.434900  0.059300  0.873700  1.0
  C  C3620  1  0.065100  0.059300  0.126300  1.0
  C  C3621  1  0.065100  0.440700  0.626300  1.0
  C  C3622  1  0.434900  0.440700  0.373700  1.0
  C  C3623  1  0.565100  0.940700  0.126300  1.0
  C  C3624  1  0.934900  0.940700  0.873700  1.0
  C  C3625  1  0.996300  0.581100  0.359100  1.0
  C  C3626  1  0.503700  0.581100  0.640900  1.0
  C  C3627  1  0.496300  0.081100  0.859100  1.0
  C  C3628  1  0.003700  0.081100  0.140900  1.0
  C  C3629  1  0.003700  0.418900  0.640900  1.0
  C  C3630  1  0.496300  0.418900  0.359100  1.0
  C  C3631  1  0.503700  0.918900  0.140900  1.0
  C  C3632  1  0.996300  0.918900  0.859100  1.0
  C  C3633  1  0.948800  0.544400  0.331600  1.0
  C  C3634  1  0.551200  0.544400  0.668400  1.0
  C  C3635  1  0.448800  0.044400  0.831600  1.0
  C  C3636  1  0.051200  0.044400  0.168400  1.0
  C  C3637  1  0.051200  0.455600  0.668400  1.0
  C  C3638  1  0.448800  0.455600  0.331600  1.0
  C  C3639  1  0.551200  0.955600  0.168400  1.0
  C  C3640  1  0.948800  0.955600  0.831600  1.0
  C  C3641  1  0.845100  0.572100  0.169400  1.0
  C  C3642  1  0.654900  0.572100  0.830600  1.0
  C  C3643  1  0.345100  0.072100  0.669400  1.0
  C  C3644  1  0.154900  0.072100  0.330600  1.0
  C  C3645  1  0.154900  0.427900  0.830600  1.0
  C  C3646  1  0.345100  0.427900  0.169400  1.0
  C  C3647  1  0.654900  0.927900  0.330600  1.0
  C  C3648  1  0.845100  0.927900  0.669400  1.0
  C  C3649  1  0.826300  0.594700  0.136800  1.0
  C  C3650  1  0.673700  0.594700  0.863200  1.0
  C  C3651  1  0.326300  0.094700  0.636800  1.0
  C  C3652  1  0.173700  0.094700  0.363200  1.0
  C  C3653  1  0.173700  0.405300  0.863200  1.0
  C  C3654  1  0.326300  0.405300  0.136800  1.0
  C  C3655  1  0.673700  0.905300  0.363200  1.0
  C  C3656  1  0.826300  0.905300  0.636800  1.0
  C  C3657  1  0.839400  0.539100  0.160500  1.0
  C  C3658  1  0.660600  0.539100  0.839500  1.0
  C  C3659  1  0.339400  0.039100  0.660500  1.0
  C  C3660  1  0.160600  0.039100  0.339500  1.0
  C  C3661  1  0.160600  0.460900  0.839500  1.0
  C  C3662  1  0.339400  0.460900  0.160500  1.0
  C  C3663  1  0.660600  0.960900  0.339500  1.0
  C  C3664  1  0.839400  0.960900  0.660500  1.0
  C  C3665  1  0.893400  0.576400  0.158500  1.0
  C  C3666  1  0.606600  0.576400  0.841500  1.0
  C  C3667  1  0.393400  0.076400  0.658500  1.0
  C  C3668  1  0.106600  0.076400  0.341500  1.0
  C  C3669  1  0.106600  0.423600  0.841500  1.0
  C  C3670  1  0.393400  0.423600  0.158500  1.0
  C  C3671  1  0.606600  0.923600  0.341500  1.0
  C  C3672  1  0.893400  0.923600  0.658500  1.0
  C  C3673  1  0.948600  0.746600  0.191400  1.0
  C  C3674  1  0.551400  0.746600  0.808600  1.0
  C  C3675  1  0.448600  0.246600  0.691400  1.0
  C  C3676  1  0.051400  0.246600  0.308600  1.0
  C  C3677  1  0.051400  0.253400  0.808600  1.0
  C  C3678  1  0.448600  0.253400  0.191400  1.0
  C  C3679  1  0.551400  0.753400  0.308600  1.0
  C  C3680  1  0.948600  0.753400  0.691400  1.0
  C  C3681  1  0.002400  0.725500  0.201400  1.0
  C  C3682  1  0.497600  0.725500  0.798600  1.0
  C  C3683  1  0.502400  0.225500  0.701400  1.0
  C  C3684  1  0.997600  0.225500  0.298600  1.0
  C  C3685  1  0.997600  0.274500  0.798600  1.0
  C  C3686  1  0.502400  0.274500  0.201400  1.0
  C  C3687  1  0.497600  0.774500  0.298600  1.0
  C  C3688  1  0.002400  0.774500  0.701400  1.0
  C  C3689  1  0.971800  0.780500  0.199600  1.0
  C  C3690  1  0.528200  0.780500  0.800400  1.0
  C  C3691  1  0.471800  0.280500  0.699600  1.0
  C  C3692  1  0.028200  0.280500  0.300400  1.0
  C  C3693  1  0.028200  0.219500  0.800400  1.0
  C  C3694  1  0.471800  0.219500  0.199600  1.0
  C  C3695  1  0.528200  0.719500  0.300400  1.0
  C  C3696  1  0.971800  0.719500  0.699600  1.0
  C  C3697  1  0.941100  0.737300  0.162100  1.0
  C  C3698  1  0.558900  0.737300  0.837900  1.0
  C  C3699  1  0.441100  0.237300  0.662100  1.0
  C  C3700  1  0.058900  0.237300  0.337900  1.0
  C  C3701  1  0.058900  0.262700  0.837900  1.0
  C  C3702  1  0.441100  0.262700  0.162100  1.0
  C  C3703  1  0.558900  0.762700  0.337900  1.0
  C  C3704  1  0.941100  0.762700  0.662100  1.0
  C  C3705  1  0.878500  0.782400  0.409400  1.0
  C  C3706  1  0.621500  0.782400  0.590600  1.0
  C  C3707  1  0.378500  0.282400  0.909400  1.0
  C  C3708  1  0.121500  0.282400  0.090600  1.0
  C  C3709  1  0.121500  0.217600  0.590600  1.0
  C  C3710  1  0.378500  0.217600  0.409400  1.0
  C  C3711  1  0.621500  0.717600  0.090600  1.0
  C  C3712  1  0.878500  0.717600  0.909400  1.0
  C  C3713  1  0.909100  0.763600  0.398200  1.0
  C  C3714  1  0.590900  0.763600  0.601800  1.0
  C  C3715  1  0.409100  0.263600  0.898200  1.0
  C  C3716  1  0.090900  0.263600  0.101800  1.0
  C  C3717  1  0.090900  0.236400  0.601800  1.0
  C  C3718  1  0.409100  0.236400  0.398200  1.0
  C  C3719  1  0.590900  0.736400  0.101800  1.0
  C  C3720  1  0.909100  0.736400  0.898200  1.0
  C  C3721  1  0.895300  0.764400  0.367300  1.0
  C  C3722  1  0.604700  0.764400  0.632700  1.0
  C  C3723  1  0.395300  0.264400  0.867300  1.0
  C  C3724  1  0.104700  0.264400  0.132700  1.0
  C  C3725  1  0.104700  0.235600  0.632700  1.0
  C  C3726  1  0.395300  0.235600  0.367300  1.0
  C  C3727  1  0.604700  0.735600  0.132700  1.0
  C  C3728  1  0.895300  0.735600  0.867300  1.0
  C  C3729  1  0.724300  0.782300  0.381200  1.0
  C  C3730  1  0.775700  0.782300  0.618800  1.0
  C  C3731  1  0.224300  0.282300  0.881200  1.0
  C  C3732  1  0.275700  0.282300  0.118800  1.0
  C  C3733  1  0.275700  0.217700  0.618800  1.0
  C  C3734  1  0.224300  0.217700  0.381200  1.0
  C  C3735  1  0.775700  0.717700  0.118800  1.0
  C  C3736  1  0.724300  0.717700  0.881200  1.0
  C  C3737  1  0.700200  0.761200  0.361200  1.0
  C  C3738  1  0.799800  0.761200  0.638800  1.0
  C  C3739  1  0.200200  0.261200  0.861200  1.0
  C  C3740  1  0.299800  0.261200  0.138800  1.0
  C  C3741  1  0.299800  0.238800  0.638800  1.0
  C  C3742  1  0.200200  0.238800  0.361200  1.0
  C  C3743  1  0.799800  0.738800  0.138800  1.0
  C  C3744  1  0.700200  0.738800  0.861200  1.0
  C  C3745  1  0.722400  0.758100  0.337500  1.0
  C  C3746  1  0.777600  0.758100  0.662500  1.0
  C  C3747  1  0.222400  0.258100  0.837500  1.0
  C  C3748  1  0.277600  0.258100  0.162500  1.0
  C  C3749  1  0.277600  0.241900  0.662500  1.0
  C  C3750  1  0.222400  0.241900  0.337500  1.0
  C  C3751  1  0.777600  0.741900  0.162500  1.0
  C  C3752  1  0.722400  0.741900  0.837500  1.0
  C  C3753  1  0.808300  0.882300  0.369600  1.0
  C  C3754  1  0.691700  0.882300  0.630400  1.0
  C  C3755  1  0.308300  0.382300  0.869600  1.0
  C  C3756  1  0.191700  0.382300  0.130400  1.0
  C  C3757  1  0.191700  0.117700  0.630400  1.0
  C  C3758  1  0.308300  0.117700  0.369600  1.0
  C  C3759  1  0.691700  0.617700  0.130400  1.0
  C  C3760  1  0.808300  0.617700  0.869600  1.0
  C  C3761  1  0.808500  0.896800  0.344600  1.0
  C  C3762  1  0.691500  0.896800  0.655400  1.0
  C  C3763  1  0.308500  0.396800  0.844600  1.0
  C  C3764  1  0.191500  0.396800  0.155400  1.0
  C  C3765  1  0.191500  0.103200  0.655400  1.0
  C  C3766  1  0.308500  0.103200  0.344600  1.0
  C  C3767  1  0.691500  0.603200  0.155400  1.0
  C  C3768  1  0.808500  0.603200  0.844600  1.0
  C  C3769  1  0.809100  0.873000  0.322200  1.0
  C  C3770  1  0.690900  0.873000  0.677800  1.0
  C  C3771  1  0.309100  0.373000  0.822200  1.0
  C  C3772  1  0.190900  0.373000  0.177800  1.0
  C  C3773  1  0.190900  0.127000  0.677800  1.0
  C  C3774  1  0.309100  0.127000  0.322200  1.0
  C  C3775  1  0.690900  0.627000  0.177800  1.0
  C  C3776  1  0.809100  0.627000  0.822200  1.0
  C  C3777  1  0.728000  0.652800  0.282000  1.0
  C  C3778  1  0.772000  0.652800  0.718000  1.0
  C  C3779  1  0.228000  0.152800  0.782000  1.0
  C  C3780  1  0.272000  0.152800  0.218000  1.0
  C  C3781  1  0.272000  0.347200  0.718000  1.0
  C  C3782  1  0.228000  0.347200  0.282000  1.0
  C  C3783  1  0.772000  0.847200  0.218000  1.0
  C  C3784  1  0.728000  0.847200  0.782000  1.0
  C  C3785  1  0.700000  0.629500  0.294700  1.0
  C  C3786  1  0.800000  0.629500  0.705300  1.0
  C  C3787  1  0.200000  0.129500  0.794700  1.0
  C  C3788  1  0.300000  0.129500  0.205300  1.0
  C  C3789  1  0.300000  0.370500  0.705300  1.0
  C  C3790  1  0.200000  0.370500  0.294700  1.0
  C  C3791  1  0.800000  0.870500  0.205300  1.0
  C  C3792  1  0.700000  0.870500  0.794700  1.0
  C  C3793  1  0.718300  0.601600  0.312100  1.0
  C  C3794  1  0.781700  0.601600  0.687900  1.0
  C  C3795  1  0.218300  0.101600  0.812100  1.0
  C  C3796  1  0.281700  0.101600  0.187900  1.0
  C  C3797  1  0.281700  0.398400  0.687900  1.0
  C  C3798  1  0.218300  0.398400  0.312100  1.0
  C  C3799  1  0.781700  0.898400  0.187900  1.0
  C  C3800  1  0.718300  0.898400  0.812100  1.0
  C  C3801  1  0.766700  0.599800  0.318400  1.0
  C  C3802  1  0.733300  0.599800  0.681600  1.0
  C  C3803  1  0.266700  0.099800  0.818400  1.0
  C  C3804  1  0.233300  0.099800  0.181600  1.0
  C  C3805  1  0.233300  0.400200  0.681600  1.0
  C  C3806  1  0.266700  0.400200  0.318400  1.0
  C  C3807  1  0.733300  0.900200  0.181600  1.0
  C  C3808  1  0.766700  0.900200  0.818400  1.0
  C  C3809  1  0.792600  0.624000  0.306500  1.0
  C  C3810  1  0.707400  0.624000  0.693500  1.0
  C  C3811  1  0.292600  0.124000  0.806500  1.0
  C  C3812  1  0.207400  0.124000  0.193500  1.0
  C  C3813  1  0.207400  0.376000  0.693500  1.0
  C  C3814  1  0.292600  0.376000  0.306500  1.0
  C  C3815  1  0.707400  0.876000  0.193500  1.0
  C  C3816  1  0.792600  0.876000  0.806500  1.0
  C  C3817  1  0.843100  0.623500  0.312200  1.0
  C  C3818  1  0.656900  0.623500  0.687800  1.0
  C  C3819  1  0.343100  0.123500  0.812200  1.0
  C  C3820  1  0.156900  0.123500  0.187800  1.0
  C  C3821  1  0.156900  0.376500  0.687800  1.0
  C  C3822  1  0.343100  0.376500  0.312200  1.0
  C  C3823  1  0.656900  0.876500  0.187800  1.0
  C  C3824  1  0.843100  0.876500  0.812200  1.0
  C  C3825  1  0.871200  0.599100  0.329000  1.0
  C  C3826  1  0.628800  0.599100  0.671000  1.0
  C  C3827  1  0.371200  0.099100  0.829000  1.0
  C  C3828  1  0.128800  0.099100  0.171000  1.0
  C  C3829  1  0.128800  0.400900  0.671000  1.0
  C  C3830  1  0.371200  0.400900  0.329000  1.0
  C  C3831  1  0.628800  0.900900  0.171000  1.0
  C  C3832  1  0.871200  0.900900  0.829000  1.0
  C  C3833  1  0.918000  0.600400  0.334500  1.0
  C  C3834  1  0.582000  0.600400  0.665500  1.0
  C  C3835  1  0.418000  0.100400  0.834500  1.0
  C  C3836  1  0.082000  0.100400  0.165500  1.0
  C  C3837  1  0.082000  0.399600  0.665500  1.0
  C  C3838  1  0.418000  0.399600  0.334500  1.0
  C  C3839  1  0.582000  0.899600  0.165500  1.0
  C  C3840  1  0.918000  0.899600  0.834500  1.0
  C  C3841  1  0.935600  0.627900  0.321100  1.0
  C  C3842  1  0.564400  0.627900  0.678900  1.0
  C  C3843  1  0.435600  0.127900  0.821100  1.0
  C  C3844  1  0.064400  0.127900  0.178900  1.0
  C  C3845  1  0.064400  0.372100  0.678900  1.0
  C  C3846  1  0.435600  0.372100  0.321100  1.0
  C  C3847  1  0.564400  0.872100  0.178900  1.0
  C  C3848  1  0.935600  0.872100  0.821100  1.0
  C  C3849  1  0.907200  0.651800  0.303900  1.0
  C  C3850  1  0.592800  0.651800  0.696100  1.0
  C  C3851  1  0.407200  0.151800  0.803900  1.0
  C  C3852  1  0.092800  0.151800  0.196100  1.0
  C  C3853  1  0.092800  0.348200  0.696100  1.0
  C  C3854  1  0.407200  0.348200  0.303900  1.0
  C  C3855  1  0.592800  0.848200  0.196100  1.0
  C  C3856  1  0.907200  0.848200  0.803900  1.0
  C  C3857  1  0.810000  0.607800  0.234600  1.0
  C  C3858  1  0.690000  0.607800  0.765400  1.0
  C  C3859  1  0.310000  0.107800  0.734600  1.0
  C  C3860  1  0.190000  0.107800  0.265400  1.0
  C  C3861  1  0.190000  0.392200  0.765400  1.0
  C  C3862  1  0.310000  0.392200  0.234600  1.0
  C  C3863  1  0.690000  0.892200  0.265400  1.0
  C  C3864  1  0.810000  0.892200  0.734600  1.0
  C  C3865  1  0.815100  0.586100  0.213100  1.0
  C  C3866  1  0.684900  0.586100  0.786900  1.0
  C  C3867  1  0.315100  0.086100  0.713100  1.0
  C  C3868  1  0.184900  0.086100  0.286900  1.0
  C  C3869  1  0.184900  0.413900  0.786900  1.0
  C  C3870  1  0.315100  0.413900  0.213100  1.0
  C  C3871  1  0.684900  0.913900  0.286900  1.0
  C  C3872  1  0.815100  0.913900  0.713100  1.0
  C  C3873  1  0.842300  0.594400  0.192600  1.0
  C  C3874  1  0.657700  0.594400  0.807400  1.0
  C  C3875  1  0.342300  0.094400  0.692600  1.0
  C  C3876  1  0.157700  0.094400  0.307400  1.0
  C  C3877  1  0.157700  0.405600  0.807400  1.0
  C  C3878  1  0.342300  0.405600  0.192600  1.0
  C  C3879  1  0.657700  0.905600  0.307400  1.0
  C  C3880  1  0.842300  0.905600  0.692600  1.0
  C  C3881  1  0.858100  0.628900  0.195500  1.0
  C  C3882  1  0.641900  0.628900  0.804500  1.0
  C  C3883  1  0.358100  0.128900  0.695500  1.0
  C  C3884  1  0.141900  0.128900  0.304500  1.0
  C  C3885  1  0.141900  0.371100  0.804500  1.0
  C  C3886  1  0.358100  0.371100  0.195500  1.0
  C  C3887  1  0.641900  0.871100  0.304500  1.0
  C  C3888  1  0.858100  0.871100  0.695500  1.0
  C  C3889  1  0.852600  0.649500  0.217900  1.0
  C  C3890  1  0.647400  0.649500  0.782100  1.0
  C  C3891  1  0.352600  0.149500  0.717900  1.0
  C  C3892  1  0.147400  0.149500  0.282100  1.0
  C  C3893  1  0.147400  0.350500  0.782100  1.0
  C  C3894  1  0.352600  0.350500  0.217900  1.0
  C  C3895  1  0.647400  0.850500  0.282100  1.0
  C  C3896  1  0.852600  0.850500  0.717900  1.0
  C  C3897  1  0.871600  0.684900  0.222300  1.0
  C  C3898  1  0.628400  0.684900  0.777700  1.0
  C  C3899  1  0.371600  0.184900  0.722300  1.0
  C  C3900  1  0.128400  0.184900  0.277700  1.0
  C  C3901  1  0.128400  0.315100  0.777700  1.0
  C  C3902  1  0.371600  0.315100  0.222300  1.0
  C  C3903  1  0.628400  0.815100  0.277700  1.0
  C  C3904  1  0.871600  0.815100  0.722300  1.0
  C  C3905  1  0.898900  0.698800  0.204800  1.0
  C  C3906  1  0.601100  0.698800  0.795200  1.0
  C  C3907  1  0.398900  0.198800  0.704800  1.0
  C  C3908  1  0.101100  0.198800  0.295200  1.0
  C  C3909  1  0.101100  0.301200  0.795200  1.0
  C  C3910  1  0.398900  0.301200  0.204800  1.0
  C  C3911  1  0.601100  0.801200  0.295200  1.0
  C  C3912  1  0.898900  0.801200  0.704800  1.0
  C  C3913  1  0.917500  0.732000  0.209500  1.0
  C  C3914  1  0.582500  0.732000  0.790500  1.0
  C  C3915  1  0.417500  0.232000  0.709500  1.0
  C  C3916  1  0.082500  0.232000  0.290500  1.0
  C  C3917  1  0.082500  0.268000  0.790500  1.0
  C  C3918  1  0.417500  0.268000  0.209500  1.0
  C  C3919  1  0.582500  0.768000  0.290500  1.0
  C  C3920  1  0.917500  0.768000  0.709500  1.0
  C  C3921  1  0.907800  0.749500  0.233600  1.0
  C  C3922  1  0.592200  0.749500  0.766400  1.0
  C  C3923  1  0.407800  0.249500  0.733600  1.0
  C  C3924  1  0.092200  0.249500  0.266400  1.0
  C  C3925  1  0.092200  0.250500  0.766400  1.0
  C  C3926  1  0.407800  0.250500  0.233600  1.0
  C  C3927  1  0.592200  0.750500  0.266400  1.0
  C  C3928  1  0.907800  0.750500  0.733600  1.0
  C  C3929  1  0.879030  0.735000  0.250530  1.0
  C  C3930  1  0.620970  0.735000  0.749470  1.0
  C  C3931  1  0.379030  0.235000  0.750530  1.0
  C  C3932  1  0.120970  0.235000  0.249470  1.0
  C  C3933  1  0.120970  0.265000  0.749470  1.0
  C  C3934  1  0.379030  0.265000  0.250530  1.0
  C  C3935  1  0.620970  0.765000  0.249470  1.0
  C  C3936  1  0.879030  0.765000  0.750530  1.0
  C  C3937  1  0.919000  0.748400  0.345600  1.0
  C  C3938  1  0.581000  0.748400  0.654400  1.0
  C  C3939  1  0.419000  0.248400  0.845600  1.0
  C  C3940  1  0.081000  0.248400  0.154400  1.0
  C  C3941  1  0.081000  0.251600  0.654400  1.0
  C  C3942  1  0.419000  0.251600  0.345600  1.0
  C  C3943  1  0.581000  0.751600  0.154400  1.0
  C  C3944  1  0.919000  0.751600  0.845600  1.0
  C  C3945  1  0.875600  0.790800  0.440200  1.0
  C  C3946  1  0.624400  0.790800  0.559800  1.0
  C  C3947  1  0.375600  0.290800  0.940200  1.0
  C  C3948  1  0.124400  0.290800  0.059800  1.0
  C  C3949  1  0.124400  0.209200  0.559800  1.0
  C  C3950  1  0.375600  0.209200  0.440200  1.0
  C  C3951  1  0.624400  0.709200  0.059800  1.0
  C  C3952  1  0.875600  0.709200  0.940200  1.0
  C  C3953  1  0.855000  0.803800  0.301100  1.0
  C  C3954  1  0.645000  0.803800  0.698900  1.0
  C  C3955  1  0.355000  0.303800  0.801100  1.0
  C  C3956  1  0.145000  0.303800  0.198900  1.0
  C  C3957  1  0.145000  0.196200  0.698900  1.0
  C  C3958  1  0.355000  0.196200  0.301100  1.0
  C  C3959  1  0.645000  0.696200  0.198900  1.0
  C  C3960  1  0.855000  0.696200  0.801100  1.0
  C  C3961  1  0.708300  0.736000  0.310700  1.0
  C  C3962  1  0.791700  0.736000  0.689300  1.0
  C  C3963  1  0.208300  0.236000  0.810700  1.0
  C  C3964  1  0.291700  0.236000  0.189300  1.0
  C  C3965  1  0.291700  0.264000  0.689300  1.0
  C  C3966  1  0.208300  0.264000  0.310700  1.0
  C  C3967  1  0.791700  0.764000  0.189300  1.0
  C  C3968  1  0.708300  0.764000  0.810700  1.0
  C  C3969  1  0.714600  0.794800  0.410300  1.0
  C  C3970  1  0.785400  0.794800  0.589700  1.0
  C  C3971  1  0.214600  0.294800  0.910300  1.0
  C  C3972  1  0.285400  0.294800  0.089700  1.0
  C  C3973  1  0.285400  0.205200  0.589700  1.0
  C  C3974  1  0.214600  0.205200  0.410300  1.0
  C  C3975  1  0.785400  0.705200  0.089700  1.0
  C  C3976  1  0.714600  0.705200  0.910300  1.0
  C  C3977  1  0.812930  0.746400  0.307130  1.0
  C  C3978  1  0.687070  0.746400  0.692870  1.0
  C  C3979  1  0.312930  0.246400  0.807130  1.0
  C  C3980  1  0.187070  0.246400  0.192870  1.0
  C  C3981  1  0.187070  0.253600  0.692870  1.0
  C  C3982  1  0.312930  0.253600  0.307130  1.0
  C  C3983  1  0.687070  0.753600  0.192870  1.0
  C  C3984  1  0.812930  0.753600  0.807130  1.0
  C  C3985  1  0.808200  0.877400  0.291500  1.0
  C  C3986  1  0.691800  0.877400  0.708500  1.0
  C  C3987  1  0.308200  0.377400  0.791500  1.0
  C  C3988  1  0.191800  0.377400  0.208500  1.0
  C  C3989  1  0.191800  0.122600  0.708500  1.0
  C  C3990  1  0.308200  0.122600  0.291500  1.0
  C  C3991  1  0.691800  0.622600  0.208500  1.0
  C  C3992  1  0.808200  0.622600  0.791500  1.0
  C  C3993  1  0.810200  0.896800  0.400400  1.0
  C  C3994  1  0.689800  0.896800  0.599600  1.0
  C  C3995  1  0.310200  0.396800  0.900400  1.0
  C  C3996  1  0.189800  0.396800  0.099600  1.0
  C  C3997  1  0.189800  0.103200  0.599600  1.0
  C  C3998  1  0.310200  0.103200  0.400400  1.0
  C  C3999  1  0.689800  0.603200  0.099600  1.0
  C  C4000  1  0.810200  0.603200  0.900400  1.0
  C  C4001  1  0.735300  0.700300  0.212600  1.0
  C  C4002  1  0.764700  0.700300  0.787400  1.0
  C  C4003  1  0.235300  0.200300  0.712600  1.0
  C  C4004  1  0.264700  0.200300  0.287400  1.0
  C  C4005  1  0.264700  0.299700  0.787400  1.0
  C  C4006  1  0.235300  0.299700  0.212600  1.0
  C  C4007  1  0.764700  0.799700  0.287400  1.0
  C  C4008  1  0.735300  0.799700  0.712600  1.0
  N  N4009  1  0.395400  0.476200  0.890000  1.0
  N  N4010  1  0.104600  0.476200  0.110000  1.0
  N  N4011  1  0.895400  0.976200  0.390000  1.0
  N  N4012  1  0.604600  0.976200  0.610000  1.0
  N  N4013  1  0.604600  0.523800  0.110000  1.0
  N  N4014  1  0.895400  0.523800  0.890000  1.0
  N  N4015  1  0.104600  0.023800  0.610000  1.0
  N  N4016  1  0.395400  0.023800  0.390000  1.0
  N  N4017  1  0.404400  0.465200  0.863400  1.0
  N  N4018  1  0.095600  0.465200  0.136600  1.0
  N  N4019  1  0.904400  0.965200  0.363400  1.0
  N  N4020  1  0.595600  0.965200  0.636600  1.0
  N  N4021  1  0.595600  0.534800  0.136600  1.0
  N  N4022  1  0.904400  0.534800  0.863400  1.0
  N  N4023  1  0.095600  0.034800  0.636600  1.0
  N  N4024  1  0.404400  0.034800  0.363400  1.0
  N  N4025  1  0.490480  0.478900  0.905480  1.0
  N  N4026  1  0.009520  0.478900  0.094520  1.0
  N  N4027  1  0.990480  0.978900  0.405480  1.0
  N  N4028  1  0.509520  0.978900  0.594520  1.0
  N  N4029  1  0.509520  0.521100  0.094520  1.0
  N  N4030  1  0.990480  0.521100  0.905480  1.0
  N  N4031  1  0.009520  0.021100  0.594520  1.0
  N  N4032  1  0.490480  0.021100  0.405480  1.0
  N  N4033  1  0.489450  0.465100  0.877550  1.0
  N  N4034  1  0.010550  0.465100  0.122450  1.0
  N  N4035  1  0.989450  0.965100  0.377550  1.0
  N  N4036  1  0.510550  0.965100  0.622450  1.0
  N  N4037  1  0.510550  0.534900  0.122450  1.0
  N  N4038  1  0.989450  0.534900  0.877550  1.0
  N  N4039  1  0.010550  0.034900  0.622450  1.0
  N  N4040  1  0.489450  0.034900  0.377550  1.0
  N  N4041  1  0.444240  0.416200  0.911340  1.0
  N  N4042  1  0.055760  0.416200  0.088660  1.0
  N  N4043  1  0.944240  0.916200  0.411340  1.0
  N  N4044  1  0.555760  0.916200  0.588660  1.0
  N  N4045  1  0.555760  0.583800  0.088660  1.0
  N  N4046  1  0.944240  0.583800  0.911340  1.0
  N  N4047  1  0.055760  0.083800  0.588660  1.0
  N  N4048  1  0.444240  0.083800  0.411340  1.0
  N  N4049  1  0.444550  0.410500  0.882350  1.0
  N  N4050  1  0.055450  0.410500  0.117650  1.0
  N  N4051  1  0.944550  0.910500  0.382350  1.0
  N  N4052  1  0.555450  0.910500  0.617650  1.0
  N  N4053  1  0.555450  0.589500  0.117650  1.0
  N  N4054  1  0.944550  0.589500  0.882350  1.0
  N  N4055  1  0.055450  0.089500  0.617650  1.0
  N  N4056  1  0.444550  0.089500  0.382350  1.0
  N  N4057  1  0.609940  0.452850  0.994140  1.0
  N  N4058  1  0.890060  0.452850  0.005860  1.0
  N  N4059  1  0.109940  0.952850  0.494140  1.0
  N  N4060  1  0.390060  0.952850  0.505860  1.0
  N  N4061  1  0.390060  0.547150  0.005860  1.0
  N  N4062  1  0.109940  0.547150  0.994140  1.0
  N  N4063  1  0.890060  0.047150  0.505860  1.0
  N  N4064  1  0.609940  0.047150  0.494140  1.0
  N  N4065  1  0.521250  0.401100  0.032450  1.0
  N  N4066  1  0.978750  0.401100  0.967550  1.0
  N  N4067  1  0.021250  0.901100  0.532450  1.0
  N  N4068  1  0.478750  0.901100  0.467550  1.0
  N  N4069  1  0.478750  0.598900  0.967550  1.0
  N  N4070  1  0.021250  0.598900  0.032450  1.0
  N  N4071  1  0.978750  0.098900  0.467550  1.0
  N  N4072  1  0.521250  0.098900  0.532450  1.0
  N  N4073  1  0.609240  0.402100  0.044240  1.0
  N  N4074  1  0.890760  0.402100  0.955760  1.0
  N  N4075  1  0.109240  0.902100  0.544240  1.0
  N  N4076  1  0.390760  0.902100  0.455760  1.0
  N  N4077  1  0.390760  0.597900  0.955760  1.0
  N  N4078  1  0.109240  0.597900  0.044240  1.0
  N  N4079  1  0.890760  0.097900  0.455760  1.0
  N  N4080  1  0.609240  0.097900  0.544240  1.0
  N  N4081  1  0.573790  0.391200  0.984690  1.0
  N  N4082  1  0.926210  0.391200  0.015310  1.0
  N  N4083  1  0.073790  0.891200  0.484690  1.0
  N  N4084  1  0.426210  0.891200  0.515310  1.0
  N  N4085  1  0.426210  0.608800  0.015310  1.0
  N  N4086  1  0.073790  0.608800  0.984690  1.0
  N  N4087  1  0.926210  0.108800  0.515310  1.0
  N  N4088  1  0.573790  0.108800  0.484690  1.0
  N  N4089  1  0.513600  0.447900  0.982700  1.0
  N  N4090  1  0.986400  0.447900  0.017300  1.0
  N  N4091  1  0.013600  0.947900  0.482700  1.0
  N  N4092  1  0.486400  0.947900  0.517300  1.0
  N  N4093  1  0.486400  0.552100  0.017300  1.0
  N  N4094  1  0.013600  0.552100  0.982700  1.0
  N  N4095  1  0.986400  0.052100  0.517300  1.0
  N  N4096  1  0.513600  0.052100  0.482700  1.0
  N  N4097  1  0.370500  0.442500  0.961600  1.0
  N  N4098  1  0.129500  0.442500  0.038400  1.0
  N  N4099  1  0.870500  0.942500  0.461600  1.0
  N  N4100  1  0.629500  0.942500  0.538400  1.0
  N  N4101  1  0.629500  0.557500  0.038400  1.0
  N  N4102  1  0.870500  0.557500  0.961600  1.0
  N  N4103  1  0.129500  0.057500  0.538400  1.0
  N  N4104  1  0.370500  0.057500  0.461600  1.0
  N  N4105  1  0.563880  0.467000  0.041780  1.0
  N  N4106  1  0.936120  0.467000  0.958220  1.0
  N  N4107  1  0.063880  0.967000  0.541780  1.0
  N  N4108  1  0.436120  0.967000  0.458220  1.0
  N  N4109  1  0.436120  0.533000  0.958220  1.0
  N  N4110  1  0.063880  0.533000  0.041780  1.0
  N  N4111  1  0.936120  0.033000  0.458220  1.0
  N  N4112  1  0.563880  0.033000  0.541780  1.0
  N  N4113  1  0.943500  0.097100  0.885800  1.0
  N  N4114  1  0.556500  0.097100  0.114200  1.0
  N  N4115  1  0.443500  0.597100  0.385800  1.0
  N  N4116  1  0.056500  0.597100  0.614200  1.0
  N  N4117  1  0.056500  0.902900  0.114200  1.0
  N  N4118  1  0.443500  0.902900  0.885800  1.0
  N  N4119  1  0.556500  0.402900  0.614200  1.0
  N  N4120  1  0.943500  0.402900  0.385800  1.0
  N  N4121  1  0.943290  0.090200  0.914290  1.0
  N  N4122  1  0.556710  0.090200  0.085710  1.0
  N  N4123  1  0.443290  0.590200  0.414290  1.0
  N  N4124  1  0.056710  0.590200  0.585710  1.0
  N  N4125  1  0.056710  0.909800  0.085710  1.0
  N  N4126  1  0.443290  0.909800  0.914290  1.0
  N  N4127  1  0.556710  0.409800  0.585710  1.0
  N  N4128  1  0.943290  0.409800  0.414290  1.0
  N  N4129  1  0.895240  0.031800  0.890240  1.0
  N  N4130  1  0.604760  0.031800  0.109760  1.0
  N  N4131  1  0.395240  0.531800  0.390240  1.0
  N  N4132  1  0.104760  0.531800  0.609760  1.0
  N  N4133  1  0.104760  0.968200  0.109760  1.0
  N  N4134  1  0.395240  0.968200  0.890240  1.0
  N  N4135  1  0.604760  0.468200  0.609760  1.0
  N  N4136  1  0.895240  0.468200  0.390240  1.0
  N  N4137  1  0.904600  0.043600  0.864000  1.0
  N  N4138  1  0.595400  0.043600  0.136000  1.0
  N  N4139  1  0.404600  0.543600  0.364000  1.0
  N  N4140  1  0.095400  0.543600  0.636000  1.0
  N  N4141  1  0.095400  0.956400  0.136000  1.0
  N  N4142  1  0.404600  0.956400  0.864000  1.0
  N  N4143  1  0.595400  0.456400  0.636000  1.0
  N  N4144  1  0.904600  0.456400  0.364000  1.0
  N  N4145  1  0.989360  0.028500  0.906360  1.0
  N  N4146  1  0.510640  0.028500  0.093640  1.0
  N  N4147  1  0.489360  0.528500  0.406360  1.0
  N  N4148  1  0.010640  0.528500  0.593640  1.0
  N  N4149  1  0.010640  0.971500  0.093640  1.0
  N  N4150  1  0.489360  0.971500  0.906360  1.0
  N  N4151  1  0.510640  0.471500  0.593640  1.0
  N  N4152  1  0.989360  0.471500  0.406360  1.0
  N  N4153  1  0.988900  0.044200  0.878800  1.0
  N  N4154  1  0.511100  0.044200  0.121200  1.0
  N  N4155  1  0.488900  0.544200  0.378800  1.0
  N  N4156  1  0.011100  0.544200  0.621200  1.0
  N  N4157  1  0.011100  0.955800  0.121200  1.0
  N  N4158  1  0.488900  0.955800  0.878800  1.0
  N  N4159  1  0.511100  0.455800  0.621200  1.0
  N  N4160  1  0.988900  0.455800  0.378800  1.0
  N  N4161  1  0.022530  0.100500  0.037830  1.0
  N  N4162  1  0.477470  0.100500  0.962170  1.0
  N  N4163  1  0.522530  0.600500  0.537830  1.0
  N  N4164  1  0.977470  0.600500  0.462170  1.0
  N  N4165  1  0.977470  0.899500  0.962170  1.0
  N  N4166  1  0.522530  0.899500  0.037830  1.0
  N  N4167  1  0.477470  0.399500  0.462170  1.0
  N  N4168  1  0.022530  0.399500  0.537830  1.0
  N  N4169  1  0.110380  0.099700  0.048880  1.0
  N  N4170  1  0.389620  0.099700  0.951120  1.0
  N  N4171  1  0.610380  0.599700  0.548880  1.0
  N  N4172  1  0.889620  0.599700  0.451120  1.0
  N  N4173  1  0.889620  0.900300  0.951120  1.0
  N  N4174  1  0.610380  0.900300  0.048880  1.0
  N  N4175  1  0.389620  0.400300  0.451120  1.0
  N  N4176  1  0.110380  0.400300  0.548880  1.0
  N  N4177  1  0.111470  0.048300  0.995770  1.0
  N  N4178  1  0.388530  0.048300  0.004230  1.0
  N  N4179  1  0.611470  0.548300  0.495770  1.0
  N  N4180  1  0.888530  0.548300  0.504230  1.0
  N  N4181  1  0.888530  0.951700  0.004230  1.0
  N  N4182  1  0.611470  0.951700  0.995770  1.0
  N  N4183  1  0.388530  0.451700  0.504230  1.0
  N  N4184  1  0.111470  0.451700  0.495770  1.0
  N  N4185  1  0.076070  0.109600  0.987570  1.0
  N  N4186  1  0.423930  0.109600  0.012430  1.0
  N  N4187  1  0.576070  0.609600  0.487570  1.0
  N  N4188  1  0.923930  0.609600  0.512430  1.0
  N  N4189  1  0.923930  0.890400  0.012430  1.0
  N  N4190  1  0.576070  0.890400  0.987570  1.0
  N  N4191  1  0.423930  0.390400  0.512430  1.0
  N  N4192  1  0.076070  0.390400  0.487570  1.0
  N  N4193  1  0.012570  0.054200  0.984570  1.0
  N  N4194  1  0.487430  0.054200  0.015430  1.0
  N  N4195  1  0.512570  0.554200  0.484570  1.0
  N  N4196  1  0.987430  0.554200  0.515430  1.0
  N  N4197  1  0.987430  0.945800  0.015430  1.0
  N  N4198  1  0.512570  0.945800  0.984570  1.0
  N  N4199  1  0.487430  0.445800  0.515430  1.0
  N  N4200  1  0.012570  0.445800  0.484570  1.0
  N  N4201  1  0.868200  0.059700  0.962300  1.0
  N  N4202  1  0.631800  0.059700  0.037700  1.0
  N  N4203  1  0.368200  0.559700  0.462300  1.0
  N  N4204  1  0.131800  0.559700  0.537700  1.0
  N  N4205  1  0.131800  0.940300  0.037700  1.0
  N  N4206  1  0.368200  0.940300  0.962300  1.0
  N  N4207  1  0.631800  0.440300  0.537700  1.0
  N  N4208  1  0.868200  0.440300  0.462300  1.0
  N  N4209  1  0.065350  0.030300  0.045350  1.0
  N  N4210  1  0.434650  0.030300  0.954650  1.0
  N  N4211  1  0.565350  0.530300  0.545350  1.0
  N  N4212  1  0.934650  0.530300  0.454650  1.0
  N  N4213  1  0.934650  0.969700  0.954650  1.0
  N  N4214  1  0.565350  0.969700  0.045350  1.0
  N  N4215  1  0.434650  0.469700  0.454650  1.0
  N  N4216  1  0.065350  0.469700  0.545350  1.0
  N  N4217  1  0.855300  0.781500  0.359900  1.0
  N  N4218  1  0.644700  0.781500  0.640100  1.0
  N  N4219  1  0.355300  0.281500  0.859900  1.0
  N  N4220  1  0.144700  0.281500  0.140100  1.0
  N  N4221  1  0.144700  0.218500  0.640100  1.0
  N  N4222  1  0.355300  0.218500  0.359900  1.0
  N  N4223  1  0.644700  0.718500  0.140100  1.0
  N  N4224  1  0.855300  0.718500  0.859900  1.0
  N  N4225  1  0.845980  0.793400  0.385980  1.0
  N  N4226  1  0.654020  0.793400  0.614020  1.0
  N  N4227  1  0.345980  0.293400  0.885980  1.0
  N  N4228  1  0.154020  0.293400  0.114020  1.0
  N  N4229  1  0.154020  0.206600  0.614020  1.0
  N  N4230  1  0.345980  0.206600  0.385980  1.0
  N  N4231  1  0.654020  0.706600  0.114020  1.0
  N  N4232  1  0.845980  0.706600  0.885980  1.0
  N  N4233  1  0.760630  0.777800  0.343730  1.0
  N  N4234  1  0.739370  0.777800  0.656270  1.0
  N  N4235  1  0.260630  0.277800  0.843730  1.0
  N  N4236  1  0.239370  0.277800  0.156270  1.0
  N  N4237  1  0.239370  0.222200  0.656270  1.0
  N  N4238  1  0.260630  0.222200  0.343730  1.0
  N  N4239  1  0.739370  0.722200  0.156270  1.0
  N  N4240  1  0.760630  0.722200  0.843730  1.0
  N  N4241  1  0.761320  0.794100  0.370920  1.0
  N  N4242  1  0.738680  0.794100  0.629080  1.0
  N  N4243  1  0.261320  0.294100  0.870920  1.0
  N  N4244  1  0.238680  0.294100  0.129080  1.0
  N  N4245  1  0.238680  0.205900  0.629080  1.0
  N  N4246  1  0.261320  0.205900  0.370920  1.0
  N  N4247  1  0.738680  0.705900  0.129080  1.0
  N  N4248  1  0.761320  0.705900  0.870920  1.0
  N  N4249  1  0.806230  0.840200  0.335630  1.0
  N  N4250  1  0.693770  0.840200  0.664370  1.0
  N  N4251  1  0.306230  0.340200  0.835630  1.0
  N  N4252  1  0.193770  0.340200  0.164370  1.0
  N  N4253  1  0.193770  0.159800  0.664370  1.0
  N  N4254  1  0.306230  0.159800  0.335630  1.0
  N  N4255  1  0.693770  0.659800  0.164370  1.0
  N  N4256  1  0.806230  0.659800  0.835630  1.0
  N  N4257  1  0.805400  0.847100  0.364400  1.0
  N  N4258  1  0.694600  0.847100  0.635600  1.0
  N  N4259  1  0.305400  0.347100  0.864400  1.0
  N  N4260  1  0.194600  0.347100  0.135600  1.0
  N  N4261  1  0.194600  0.152900  0.635600  1.0
  N  N4262  1  0.305400  0.152900  0.364400  1.0
  N  N4263  1  0.694600  0.652900  0.135600  1.0
  N  N4264  1  0.805400  0.652900  0.864400  1.0
  N  N4265  1  0.773350  0.649600  0.288050  1.0
  N  N4266  1  0.726650  0.649600  0.711950  1.0
  N  N4267  1  0.273350  0.149600  0.788050  1.0
  N  N4268  1  0.226650  0.149600  0.211950  1.0
  N  N4269  1  0.226650  0.350400  0.711950  1.0
  N  N4270  1  0.273350  0.350400  0.288050  1.0
  N  N4271  1  0.726650  0.850400  0.211950  1.0
  N  N4272  1  0.773350  0.850400  0.788050  1.0
  N  N4273  1  0.861620  0.650100  0.299220  1.0
  N  N4274  1  0.638380  0.650100  0.700780  1.0
  N  N4275  1  0.361620  0.150100  0.799220  1.0
  N  N4276  1  0.138380  0.150100  0.200780  1.0
  N  N4277  1  0.138380  0.349900  0.700780  1.0
  N  N4278  1  0.361620  0.349900  0.299220  1.0
  N  N4279  1  0.638380  0.849900  0.200780  1.0
  N  N4280  1  0.861620  0.849900  0.799220  1.0
  N  N4281  1  0.827570  0.640300  0.237170  1.0
  N  N4282  1  0.672430  0.640300  0.762830  1.0
  N  N4283  1  0.327570  0.140300  0.737170  1.0
  N  N4284  1  0.172430  0.140300  0.262830  1.0
  N  N4285  1  0.172430  0.359700  0.762830  1.0
  N  N4286  1  0.327570  0.359700  0.237170  1.0
  N  N4287  1  0.672430  0.859700  0.262830  1.0
  N  N4288  1  0.827570  0.859700  0.737170  1.0
  N  N4289  1  0.862600  0.702300  0.245200  1.0
  N  N4290  1  0.637400  0.702300  0.754800  1.0
  N  N4291  1  0.362600  0.202300  0.745200  1.0
  N  N4292  1  0.137400  0.202300  0.254800  1.0
  N  N4293  1  0.137400  0.297700  0.754800  1.0
  N  N4294  1  0.362600  0.297700  0.245200  1.0
  N  N4295  1  0.637400  0.797700  0.254800  1.0
  N  N4296  1  0.862600  0.797700  0.745200  1.0
  N  N4297  1  0.762150  0.696600  0.234150  1.0
  N  N4298  1  0.737850  0.696600  0.765850  1.0
  N  N4299  1  0.262150  0.196600  0.734150  1.0
  N  N4300  1  0.237850  0.196600  0.265850  1.0
  N  N4301  1  0.237850  0.303400  0.765850  1.0
  N  N4302  1  0.262150  0.303400  0.234150  1.0
  N  N4303  1  0.737850  0.803400  0.265850  1.0
  N  N4304  1  0.762150  0.803400  0.734150  1.0
  N  N4305  1  0.816050  0.719900  0.295150  1.0
  N  N4306  1  0.683950  0.719900  0.704850  1.0
  N  N4307  1  0.316050  0.219900  0.795150  1.0
  N  N4308  1  0.183950  0.219900  0.204850  1.0
  N  N4309  1  0.183950  0.280100  0.704850  1.0
  N  N4310  1  0.316050  0.280100  0.295150  1.0
  N  N4311  1  0.683950  0.780100  0.204850  1.0
  N  N4312  1  0.816050  0.780100  0.795150  1.0
  N  N4313  1  0.880900  0.810100  0.287300  1.0
  N  N4314  1  0.619100  0.810100  0.712700  1.0
  N  N4315  1  0.380900  0.310100  0.787300  1.0
  N  N4316  1  0.119100  0.310100  0.212700  1.0
  N  N4317  1  0.119100  0.189900  0.712700  1.0
  N  N4318  1  0.380900  0.189900  0.287300  1.0
  N  N4319  1  0.619100  0.689900  0.212700  1.0
  N  N4320  1  0.880900  0.689900  0.787300  1.0
  O  O4321  1  0.335900  0.404000  0.002500  1
  O  O4322  1  0.164100  0.404000  0.997500  1
  O  O4323  1  0.835900  0.904000  0.502500  1
  O  O4324  1  0.664100  0.904000  0.497500  1
  O  O4325  1  0.664100  0.596000  0.997500  1
  O  O4326  1  0.835900  0.596000  0.002500  1
  O  O4327  1  0.164100  0.096000  0.497500  1
  O  O4328  1  0.335900  0.096000  0.502500  1
  O  O4329  1  0.085200  0.655100  0.752100  1
  O  O4330  1  0.414800  0.655100  0.247900  1
  O  O4331  1  0.585200  0.155100  0.252100  1
  O  O4332  1  0.914800  0.155100  0.747900  1
  O  O4333  1  0.914800  0.344900  0.247900  1
  O  O4334  1  0.585200  0.344900  0.752100  1
  O  O4335  1  0.414800  0.844900  0.747900  1
  O  O4336  1  0.085200  0.844900  0.252100  1
  O  O4337  1  0.915300  0.653000  0.745100  1
  O  O4338  1  0.584700  0.653000  0.254900  1
  O  O4339  1  0.415300  0.153000  0.245100  1
  O  O4340  1  0.084700  0.153000  0.754900  1
  O  O4341  1  0.084700  0.347000  0.254900  1
  O  O4342  1  0.415300  0.347000  0.745100  1
  O  O4343  1  0.584700  0.847000  0.754900  1
  O  O4344  1  0.915300  0.847000  0.245100  1
  O  O4345  1  0.836300  0.097200  0.005200  1
  O  O4346  1  0.663700  0.097200  0.994800  1
  O  O4347  1  0.336300  0.597200  0.505200  1
  O  O4348  1  0.163700  0.597200  0.494800  1
  O  O4349  1  0.163700  0.902800  0.994800  1
  O  O4350  1  0.336300  0.902800  0.005200  1
  O  O4351  1  0.663700  0.402800  0.494800  1
  O  O4352  1  0.836300  0.402800  0.505200  1
  F  F4353  1  0.735000  0.458500  0.747000  1
  F  F4354  1  0.765000  0.458500  0.253000  1
  F  F4355  1  0.235000  0.958500  0.247000  1
  F  F4356  1  0.265000  0.958500  0.753000  1
  F  F4357  1  0.265000  0.541500  0.253000  1
  F  F4358  1  0.235000  0.541500  0.747000  1
  F  F4359  1  0.765000  0.041500  0.753000  1
  F  F4360  1  0.735000  0.041500  0.247000  1
  F  F4361  1  0.697700  0.507700  0.747200  1
  F  F4362  1  0.802300  0.507700  0.252800  1
  F  F4363  1  0.197700  0.007700  0.247200  1
  F  F4364  1  0.302300  0.007700  0.752800  1
  F  F4365  1  0.302300  0.492300  0.252800  1
  F  F4366  1  0.197700  0.492300  0.747200  1
  F  F4367  1  0.802300  0.992300  0.752800  1
  F  F4368  1  0.697700  0.992300  0.247200  1
  F  F4369  1  0.757800  0.497500  0.781200  1
  F  F4370  1  0.742200  0.497500  0.218800  1
  F  F4371  1  0.257800  0.997500  0.281200  1
  F  F4372  1  0.242200  0.997500  0.718800  1
  F  F4373  1  0.242200  0.502500  0.218800  1
  F  F4374  1  0.257800  0.502500  0.781200  1
  F  F4375  1  0.742200  0.002500  0.718800  1
  F  F4376  1  0.757800  0.002500  0.281200  1
  F  F4377  1  0.764200  0.534000  0.751900  1
  F  F4378  1  0.735800  0.534000  0.248100  1
  F  F4379  1  0.264200  0.034000  0.251900  1
  F  F4380  1  0.235800  0.034000  0.748100  1
  F  F4381  1  0.235800  0.466000  0.248100  1
  F  F4382  1  0.264200  0.466000  0.751900  1
  F  F4383  1  0.735800  0.966000  0.748100  1
  F  F4384  1  0.764200  0.966000  0.251900  1
  F  F4385  1  0.800600  0.488200  0.750200  1
  F  F4386  1  0.699400  0.488200  0.249800  1
  F  F4387  1  0.300600  0.988200  0.250200  1
  F  F4388  1  0.199400  0.988200  0.749800  1
  F  F4389  1  0.199400  0.511800  0.249800  1
  F  F4390  1  0.300600  0.511800  0.750200  1
  F  F4391  1  0.699400  0.011800  0.749800  1
  F  F4392  1  0.800600  0.011800  0.250200  1
  F  F4393  1  0.739900  0.495800  0.716900  1
  F  F4394  1  0.760100  0.495800  0.283100  1
  F  F4395  1  0.239900  0.995800  0.216900  1
  F  F4396  1  0.260100  0.995800  0.783100  1
  F  F4397  1  0.260100  0.504200  0.283100  1
  F  F4398  1  0.239900  0.504200  0.716900  1
  F  F4399  1  0.760100  0.004200  0.783100  1
  F  F4400  1  0.739900  0.004200  0.216900  1
  F  F4401  1  0.551800  0.742600  0.503000  1
  F  F4402  1  0.948200  0.742600  0.497000  1
  F  F4403  1  0.051800  0.242600  0.003000  1
  F  F4404  1  0.448200  0.242600  0.997000  1
  F  F4405  1  0.448200  0.257400  0.497000  1
  F  F4406  1  0.051800  0.257400  0.503000  1
  F  F4407  1  0.948200  0.757400  0.997000  1
  F  F4408  1  0.551800  0.757400  0.003000  1
  F  F4409  1  0.491600  0.751500  0.469300  1
  F  F4410  1  0.008400  0.751500  0.530700  1
  F  F4411  1  0.991600  0.251500  0.969300  1
  F  F4412  1  0.508400  0.251500  0.030700  1
  F  F4413  1  0.508400  0.248500  0.530700  1
  F  F4414  1  0.991600  0.248500  0.469300  1
  F  F4415  1  0.008400  0.748500  0.030700  1
  F  F4416  1  0.491600  0.748500  0.969300  1
  F  F4417  1  0.485200  0.715900  0.498500  1
  F  F4418  1  0.014800  0.715900  0.501500  1
  F  F4419  1  0.985200  0.215900  0.998500  1
  F  F4420  1  0.514800  0.215900  0.001500  1
  F  F4421  1  0.514800  0.284100  0.501500  1
  F  F4422  1  0.985200  0.284100  0.498500  1
  F  F4423  1  0.014800  0.784100  0.001500  1
  F  F4424  1  0.485200  0.784100  0.998500  1
  F  F4425  1  0.448900  0.762000  0.499800  1
  F  F4426  1  0.051100  0.762000  0.500200  1
  F  F4427  1  0.948900  0.262000  0.999800  1
  F  F4428  1  0.551100  0.262000  0.000200  1
  F  F4429  1  0.551100  0.238000  0.500200  1
  F  F4430  1  0.948900  0.238000  0.499800  1
  F  F4431  1  0.051100  0.738000  0.000200  1
  F  F4432  1  0.448900  0.738000  0.999800  1
  F  F4433  1  0.509700  0.753400  0.533900  1
  F  F4434  1  0.990300  0.753400  0.466100  1
  F  F4435  1  0.009700  0.253400  0.033900  1
  F  F4436  1  0.490300  0.253400  0.966100  1
  F  F4437  1  0.490300  0.246600  0.466100  1
  F  F4438  1  0.009700  0.246600  0.533900  1
  F  F4439  1  0.990300  0.746600  0.966100  1
  F  F4440  1  0.509700  0.746600  0.033900  1
  F  F4441  1  0.514700  0.790700  0.503300  1
  F  F4442  1  0.985300  0.790700  0.496700  1
  F  F4443  1  0.014700  0.290700  0.003300  1
  F  F4444  1  0.485300  0.290700  0.996700  1
  F  F4445  1  0.485300  0.209300  0.496700  1
  F  F4446  1  0.014700  0.209300  0.503300  1
  F  F4447  1  0.985300  0.709300  0.996700  1
  F  F4448  1  0.514700  0.709300  0.003300  1
  F  F4449  1  0.526600  0.600200  0.740200  1
  F  F4450  1  0.973400  0.600200  0.259800  1
  F  F4451  1  0.026600  0.100200  0.240200  1
  F  F4452  1  0.473400  0.100200  0.759800  1
  F  F4453  1  0.473400  0.399800  0.259800  1
  F  F4454  1  0.026600  0.399800  0.740200  1
  F  F4455  1  0.973400  0.899800  0.759800  1
  F  F4456  1  0.526600  0.899800  0.240200  1
  F  F4457  1  0.461500  0.601100  0.755300  1
  F  F4458  1  0.038500  0.601100  0.244700  1
  F  F4459  1  0.961500  0.101100  0.255300  1
  F  F4460  1  0.538500  0.101100  0.744700  1
  F  F4461  1  0.538500  0.398900  0.244700  1
  F  F4462  1  0.961500  0.398900  0.755300  1
  F  F4463  1  0.038500  0.898900  0.744700  1
  F  F4464  1  0.461500  0.898900  0.255300  1
  F  F4465  1  0.518200  0.626600  0.781600  1
  F  F4466  1  0.981800  0.626600  0.218400  1
  F  F4467  1  0.018200  0.126600  0.281600  1
  F  F4468  1  0.481800  0.126600  0.718400  1
  F  F4469  1  0.481800  0.373400  0.218400  1
  F  F4470  1  0.018200  0.373400  0.781600  1
  F  F4471  1  0.981800  0.873400  0.718400  1
  F  F4472  1  0.518200  0.873400  0.281600  1
  F  F4473  1  0.464800  0.658700  0.755000  1
  F  F4474  1  0.035200  0.658700  0.245000  1
  F  F4475  1  0.964800  0.158700  0.255000  1
  F  F4476  1  0.535200  0.158700  0.745000  1
  F  F4477  1  0.535200  0.341300  0.245000  1
  F  F4478  1  0.964800  0.341300  0.755000  1
  F  F4479  1  0.035200  0.841300  0.745000  1
  F  F4480  1  0.464800  0.841300  0.255000  1
  F  F4481  1  0.534500  0.655500  0.743200  1
  F  F4482  1  0.965500  0.655500  0.256800  1
  F  F4483  1  0.034500  0.155500  0.243200  1
  F  F4484  1  0.465500  0.155500  0.756800  1
  F  F4485  1  0.465500  0.344500  0.256800  1
  F  F4486  1  0.034500  0.344500  0.743200  1
  F  F4487  1  0.965500  0.844500  0.756800  1
  F  F4488  1  0.534500  0.844500  0.243200  1
  F  F4489  1  0.474300  0.628900  0.714900  1
  F  F4490  1  0.025700  0.628900  0.285100  1
  F  F4491  1  0.974300  0.128900  0.214900  1
  F  F4492  1  0.525700  0.128900  0.785100  1
  F  F4493  1  0.525700  0.371100  0.285100  1
  F  F4494  1  0.974300  0.371100  0.714900  1
  F  F4495  1  0.025700  0.871100  0.785100  1
  F  F4496  1  0.474300  0.871100  0.214900  1
  F  F4497  1  0.784300  0.905300  0.994000  1.0
  F  F4498  1  0.715700  0.905300  0.006000  1.0
  F  F4499  1  0.284300  0.405300  0.494000  1.0
  F  F4500  1  0.215700  0.405300  0.506000  1.0
  F  F4501  1  0.215700  0.094700  0.006000  1.0
  F  F4502  1  0.284300  0.094700  0.994000  1.0
  F  F4503  1  0.715700  0.594700  0.506000  1.0
  F  F4504  1  0.784300  0.594700  0.494000  1.0
  F  F4505  1  0.773400  0.876300  0.033300  1.0
  F  F4506  1  0.726600  0.876300  0.966700  1.0
  F  F4507  1  0.273400  0.376300  0.533300  1.0
  F  F4508  1  0.226600  0.376300  0.466700  1.0
  F  F4509  1  0.226600  0.123700  0.966700  1.0
  F  F4510  1  0.273400  0.123700  0.033300  1.0
  F  F4511  1  0.726600  0.623700  0.466700  1.0
  F  F4512  1  0.773400  0.623700  0.533300  1.0
  F  F4513  1  0.715700  0.846800  0.008000  1.0
  F  F4514  1  0.784300  0.846800  0.992000  1.0
  F  F4515  1  0.215700  0.346800  0.508000  1.0
  F  F4516  1  0.284300  0.346800  0.492000  1.0
  F  F4517  1  0.284300  0.153200  0.992000  1.0
  F  F4518  1  0.215700  0.153200  0.008000  1.0
  F  F4519  1  0.784300  0.653200  0.492000  1.0
  F  F4520  1  0.715700  0.653200  0.508000  1.0
  F  F4521  1  0.728900  0.379200  0.966700  1.0
  F  F4522  1  0.771100  0.379200  0.033300  1.0
  F  F4523  1  0.228900  0.879200  0.466700  1.0
  F  F4524  1  0.271100  0.879200  0.533300  1.0
  F  F4525  1  0.271100  0.620800  0.033300  1.0
  F  F4526  1  0.228900  0.620800  0.966700  1.0
  F  F4527  1  0.771100  0.120800  0.533300  1.0
  F  F4528  1  0.728900  0.120800  0.466700  1.0
  F  F4529  1  0.714400  0.409300  0.006000  1.0
  F  F4530  1  0.785600  0.409300  0.994000  1.0
  F  F4531  1  0.214400  0.909300  0.506000  1.0
  F  F4532  1  0.285600  0.909300  0.494000  1.0
  F  F4533  1  0.285600  0.590700  0.994000  1.0
  F  F4534  1  0.214400  0.590700  0.006000  1.0
  F  F4535  1  0.785600  0.090700  0.494000  1.0
  F  F4536  1  0.714400  0.090700  0.506000  1.0
  F  F4537  1  0.719800  0.353600  0.007100  1.0
  F  F4538  1  0.780200  0.353600  0.992900  1.0
  F  F4539  1  0.219800  0.853600  0.507100  1.0
  F  F4540  1  0.280200  0.853600  0.492900  1.0
  F  F4541  1  0.280200  0.646400  0.992900  1.0
  F  F4542  1  0.219800  0.646400  0.007100  1.0
  F  F4543  1  0.780200  0.146400  0.492900  1.0
  F  F4544  1  0.719800  0.146400  0.507100  1.0
