
#######################################################################
#
#                 Cambridge Crystallographic Data Centre
#                                CCDC 
#
#######################################################################
#
# If this CIF has been generated from an entry in the Cambridge 
# Structural Database, then it will include bibliographic, chemical, 
# crystal, experimental, refinement or atomic coordinate data resulting 
# from the CCDC's data processing and validation procedures.
#
#######################################################################

data_KAFXAS01
_chemical_formula_moiety         
'C108 H140 B2 Co2 Fe2 N26 2+,2(F6 P1 1-),2(C1 H4 O1)'
_chemical_name_systematic        
"tetrakis(\m~2~-cyano)-bis(tris(3,5-dimethyl-1H-pyrazol-1-yl)(hydrido)borate)-tetrakis(4,4'-di-t-butyl-2,2'-bipyridine)-dicyano-di-cobalt-di-iron bis(hexafluorophosphate) methanol solvate"
_symmetry_cell_setting           monoclinic
_symmetry_space_group_name_H-M   'C 2/c'
_symmetry_Int_Tables_number      15
_space_group_name_Hall           '-C 2yn'
loop_
_symmetry_equiv_pos_site_id
_symmetry_equiv_pos_as_xyz
1 x,y,z
2 -x,y,1/2-z
3 1/2+x,1/2+y,z
4 1/2-x,1/2+y,1/2-z
5 -x,-y,-z
6 x,-y,1/2+z
7 1/2-x,1/2-y,-z
8 1/2+x,1/2-y,1/2+z
_cell_length_a                   24.724(3)
_cell_length_b                   19.233(2)
_cell_length_c                   29.883(3)
_cell_angle_alpha                90
_cell_angle_beta                 113.790(2)
_cell_angle_gamma                90
_cell_volume                     13002.5
_exptl_crystal_colour            red
_exptl_crystal_description       plate
_cell_formula_units_Z            4
loop_
_atom_site_label
_atom_site_type_symbol
_atom_site_fract_x
_atom_site_fract_y
_atom_site_fract_z
F1 F 0.537(2) 0.307(2) 0.7744(10)
F2 F 0.553(3) 0.205(3) 0.7629(13)
F3 F 0.5020(16) 0.228(4) 0.7997(8)
P1 P 0.5000 0.2410(4) 0.7500
F1A F 0.463(2) 0.307(2) 0.7256(10)
F2A F 0.447(3) 0.205(3) 0.7371(13)
F3A F 0.4980(16) 0.228(4) 0.7003(8)
C1 C 0.6812(5) 0.3940(6) 1.1269(4)
C2 C 0.6769(6) 0.2937(6) 1.1818(3)
C3 C 0.5912(5) 0.3747(5) 1.1423(3)
C4 C 0.3300(5) 0.3542(5) 0.8227(4)
Co1 Co 0.53048(3) 0.14244(3) 0.95051(2)
Fe1 Fe 0.64486(3) -0.07662(5) 1.01438(3)
N1 N 0.5854(2) 0.0637(3) 0.97925(15)
N2 N 0.4665(2) 0.1061(2) 0.96910(15)
N3 N 0.5755(2) -0.1178(3) 0.9075(2)
N4 N 0.6742(3) -0.1746(4) 1.0312(2)
N5 N 0.7335(3) -0.1825(5) 1.0614(2)
N6 N 0.7192(2) -0.0553(3) 1.00481(16)
N7 N 0.7717(2) -0.0769(4) 1.04074(17)
N8 N 0.68879(19) -0.0485(3) 1.08528(16)
N9 N 0.7426(2) -0.0783(4) 1.11073(18)
N10 N 0.47166(19) 0.2181(2) 0.91194(15)
N11 N 0.49009(16) 0.0942(2) 0.88451(13)
N12 N 0.5916(2) 0.1964(2) 0.93603(15)
N13 N 0.5684(3) 0.1989(2) 1.01253(15)
C5 C 0.6118(2) 0.0126(3) 0.99451(18)
C6 C 0.4240(2) 0.0959(3) 0.97501(18)
C7 C 0.6022(2) -0.1027(3) 0.9475(2)
C8 C 0.6516(4) -0.2380(5) 1.0178(3)
C9 C 0.6949(6) -0.2892(6) 1.0384(4)
H1 H 0.6908 -0.3372 1.0347
C10 C 0.7448(5) -0.2519(8) 1.0653(4)
C11 C 0.7327(3) -0.0206(4) 0.9716(2)
C12 C 0.7950(3) -0.0200(4) 0.9870(3)
H2 H 0.8161 0.0005 0.9709
C13 C 0.8179(3) -0.0559(5) 1.0308(3)
C14 C 0.6761(3) -0.0094(4) 1.1166(2)
C15 C 0.7230(3) -0.0156(5) 1.1627(2)
H3 H 0.7258 0.0060 1.1913
C16 C 0.7636(3) -0.0585(5) 1.1577(2)
C17 C 0.4655(3) 0.2820(3) 0.9268(2)
H4 H 0.4921 0.2967 0.9575
C18 C 0.4220(3) 0.3269(3) 0.8991(2)
H5 H 0.4196 0.3709 0.9111
C19 C 0.3822(4) 0.3074(4) 0.8541(3)
C20 C 0.3879(3) 0.2415(4) 0.8383(2)
H6 H 0.3610 0.2262 0.8080
C21 C 0.4328(3) 0.1979(3) 0.86690(19)
C22 C 0.4432(2) 0.1283(3) 0.85160(18)
C23 C 0.4095(2) 0.0987(3) 0.80703(19)
H7 H 0.3774 0.1233 0.7850
C24 C 0.4219(2) 0.0338(3) 0.79398(18)
C25 C 0.4706(2) 0.0002(3) 0.82887(19)
H8 H 0.4817 -0.0435 0.8221
C26 C 0.5024(2) 0.0311(3) 0.87299(17)
H9 H 0.5340 0.0070 0.8959
C27 C 0.6022(3) 0.1918(3) 0.89595(19)
H10 H 0.5845 0.1558 0.8742
C28 C 0.6375(3) 0.2366(4) 0.8849(2)
H11 H 0.6436 0.2302 0.8564
C29 C 0.6643(3) 0.2912(4) 0.9154(2)
C30 C 0.6542(3) 0.2963(3) 0.9582(2)
H12 H 0.6716 0.3321 0.9802
C31 C 0.6187(3) 0.2488(3) 0.96783(19)
C32 C 0.6061(3) 0.2485(3) 1.01230(19)
C33 C 0.6312(3) 0.2952(3) 1.0508(2)
H13 H 0.6567 0.3297 1.0491
C34 C 0.6182(4) 0.2900(4) 1.0915(2)
C35 C 0.5808(4) 0.2372(4) 1.0919(2)
H14 H 0.5714 0.2315 1.1188
C36 C 0.5573(4) 0.1929(3) 1.0527(2)
H15 H 0.5327 0.1572 1.0541
C37 C 0.5895(4) -0.2512(3) 0.9852(3)
H16 H 0.5835 -0.2409 0.9521
H17 H 0.5803 -0.2992 0.9876
H18 H 0.5643 -0.2222 0.9946
C38 C 0.8078(5) -0.2811(7) 1.0949(4)
H19 H 0.8362 -0.2538 1.0882
H20 H 0.8165 -0.2790 1.1292
H21 H 0.8097 -0.3285 1.0856
C39 C 0.6893(3) 0.0127(4) 0.9275(2)
H22 H 0.6624 0.0400 0.9361
H23 H 0.7094 0.0422 0.9133
H24 H 0.6677 -0.0224 0.9043
C40 C 0.8818(3) -0.0715(5) 1.0644(3)
H25 H 0.8918 -0.1177 1.0581
H26 H 0.9073 -0.0386 1.0585
H27 H 0.8866 -0.0682 1.0978
C41 C 0.6227(3) 0.0338(4) 1.1034(2)
H28 H 0.5887 0.0074 1.0833
H29 H 0.6186 0.0482 1.1326
H30 H 0.6262 0.0741 1.0858
C42 C 0.8230(3) -0.0829(6) 1.1949(3)
H31 H 0.8530 -0.0730 1.1830
H32 H 0.8321 -0.0590 1.2253
H33 H 0.8216 -0.1320 1.1998
C43 C 0.3859(3) 0.0016(4) 0.7444(2)
C44 C 0.7009(3) 0.3470(5) 0.9032(3)
C45 C 0.7274(5) 0.3203(7) 0.8682(4)
C46 C 0.7541(4) 0.3737(6) 0.9485(3)
C47 C 0.6582(4) 0.4068(5) 0.8803(4)
C48 C 0.6439(5) 0.3393(5) 1.1355(3)
B1 B 0.7701(4) -0.1173(7) 1.0844(3)
H34 H 0.8103 -0.1307 1.1065
C49 C 0.4214(6) -0.0062(9) 0.7160(4)
C50 C 0.3270(5) 0.0372(7) 0.7175(4)
C51 C 0.3687(5) -0.0776(5) 0.7539(4)
C52 C 0.3109(7) 0.4064(5) 0.8550(6)
C53 C 0.3691(10) 0.4118(13) 0.8083(9)
C54 C 0.2992(8) 0.3338(9) 0.7758(6)
C1D C 0.3188(5) -0.3940(6) 0.8731(4)
C2D C 0.3231(6) -0.2937(6) 0.8182(3)
C3D C 0.4088(5) -0.3747(5) 0.8577(3)
C4D C 0.6700(5) -0.3542(5) 1.1773(4)
Co1D Co 0.46952(3) -0.14244(3) 1.04949(2)
Fe1D Fe 0.35514(3) 0.07662(5) 0.98562(3)
N1D N 0.4146(2) -0.0637(3) 1.02075(15)
N2D N 0.5335(2) -0.1061(2) 1.03090(15)
N3D N 0.4245(2) 0.1178(3) 1.0925(2)
N4D N 0.3258(3) 0.1746(4) 0.9688(2)
N5D N 0.2665(3) 0.1825(5) 0.9386(2)
N6D N 0.2808(2) 0.0553(3) 0.99519(16)
N7D N 0.2283(2) 0.0769(4) 0.95926(17)
N8D N 0.31121(19) 0.0485(3) 0.91472(16)
N9D N 0.2574(2) 0.0783(4) 0.88927(18)
N10D N 0.52834(19) -0.2181(2) 1.08806(15)
N11D N 0.50991(16) -0.0942(2) 1.11549(13)
N12D N 0.4084(2) -0.1964(2) 1.06397(15)
N13D N 0.4316(3) -0.1989(2) 0.98747(15)
C5D C 0.3882(2) -0.0126(3) 1.00549(18)
C6D C 0.5760(2) -0.0959(3) 1.02499(18)
C7D C 0.3978(2) 0.1027(3) 1.0525(2)
C8D C 0.3484(4) 0.2380(5) 0.9822(3)
C9D C 0.3051(6) 0.2892(6) 0.9616(4)
H1D H 0.3092 0.3372 0.9653
C10D C 0.2552(5) 0.2519(8) 0.9347(4)
C11D C 0.2673(3) 0.0206(4) 1.0284(2)
C12D C 0.2050(3) 0.0200(4) 1.0130(3)
H2D H 0.1839 -0.0005 1.0291
C13D C 0.1821(3) 0.0559(5) 0.9692(3)
C14D C 0.3239(3) 0.0094(4) 0.8834(2)
C15D C 0.2770(3) 0.0156(5) 0.8373(2)
H3D H 0.2742 -0.0060 0.8087
C16D C 0.2364(3) 0.0585(5) 0.8423(2)
C17D C 0.5345(3) -0.2820(3) 1.0732(2)
H4D H 0.5079 -0.2967 1.0425
C18D C 0.5780(3) -0.3269(3) 1.1009(2)
H5D H 0.5804 -0.3709 1.0889
C19D C 0.6178(4) -0.3074(4) 1.1459(3)
C20D C 0.6121(3) -0.2415(4) 1.1617(2)
H6D H 0.6390 -0.2262 1.1920
C21D C 0.5672(3) -0.1979(3) 1.13310(19)
C22D C 0.5568(2) -0.1283(3) 1.14840(18)
C23D C 0.5905(2) -0.0987(3) 1.19297(19)
H7D H 0.6226 -0.1233 1.2150
C24D C 0.5781(2) -0.0338(3) 1.20602(18)
C25D C 0.5294(2) -0.0002(3) 1.17113(19)
H8D H 0.5183 0.0435 1.1779
C26D C 0.4976(2) -0.0311(3) 1.12701(17)
H9D H 0.4660 -0.0070 1.1041
C27D C 0.3978(3) -0.1918(3) 1.10405(19)
H10D H 0.4155 -0.1558 1.1258
C28D C 0.3625(3) -0.2366(4) 1.1151(2)
H11D H 0.3564 -0.2302 1.1436
C29D C 0.3357(3) -0.2912(4) 1.0846(2)
C30D C 0.3458(3) -0.2963(3) 1.0418(2)
H12D H 0.3284 -0.3321 1.0198
C31D C 0.3813(3) -0.2488(3) 1.03217(19)
C32D C 0.3939(3) -0.2485(3) 0.98770(19)
C33D C 0.3688(3) -0.2952(3) 0.9492(2)
H13D H 0.3433 -0.3297 0.9509
C34D C 0.3818(4) -0.2900(4) 0.9085(2)
C35D C 0.4192(4) -0.2372(4) 0.9081(2)
H14D H 0.4286 -0.2315 0.8812
C36D C 0.4427(4) -0.1929(3) 0.9473(2)
H15D H 0.4673 -0.1572 0.9459
C37D C 0.4105(4) 0.2512(3) 1.0148(3)
H16D H 0.4165 0.2409 1.0479
H17D H 0.4197 0.2992 1.0124
H18D H 0.4357 0.2222 1.0054
C38D C 0.1922(5) 0.2811(7) 0.9051(4)
H19D H 0.1638 0.2538 0.9118
H20D H 0.1835 0.2790 0.8708
H21D H 0.1903 0.3285 0.9144
C39D C 0.3107(3) -0.0127(4) 1.0725(2)
H22D H 0.3376 -0.0400 1.0639
H23D H 0.2906 -0.0422 1.0867
H24D H 0.3323 0.0224 1.0957
C40D C 0.1182(3) 0.0715(5) 0.9356(3)
H25D H 0.1082 0.1177 0.9419
H26D H 0.0927 0.0386 0.9415
H27D H 0.1134 0.0682 0.9022
C41D C 0.3773(3) -0.0338(4) 0.8966(2)
H28D H 0.4113 -0.0074 0.9167
H29D H 0.3814 -0.0482 0.8674
H30D H 0.3738 -0.0741 0.9142
C42D C 0.1770(3) 0.0829(6) 0.8051(3)
H31D H 0.1470 0.0730 0.8170
H32D H 0.1679 0.0590 0.7747
H33D H 0.1784 0.1320 0.8002
C43D C 0.6141(3) -0.0016(4) 1.2556(2)
C44D C 0.2991(3) -0.3470(5) 1.0968(3)
C45D C 0.2726(5) -0.3203(7) 1.1318(4)
C46D C 0.2459(4) -0.3737(6) 1.0515(3)
C47D C 0.3418(4) -0.4068(5) 1.1197(4)
C48D C 0.3561(5) -0.3393(5) 0.8645(3)
B1D B 0.2299(4) 0.1173(7) 0.9156(3)
H34D H 0.1897 0.1307 0.8935
C49D C 0.5786(6) 0.0062(9) 1.2840(4)
C50D C 0.6730(5) -0.0372(7) 1.2825(4)
C51D C 0.6313(5) 0.0776(5) 1.2461(4)
C52D C 0.6891(7) -0.4064(5) 1.1450(6)
C53D C 0.6309(10) -0.4118(13) 1.1917(9)
C54D C 0.7008(8) -0.3338(9) 1.2242(6)
O1 O 0.5043(4) 0.1950(6) 0.1662(3)
H35 H 0.5335 0.1789 0.1885
C55 C 0.4717(8) 0.2414(7) 0.1868(5)
H36 H 0.4695 0.2198 0.2150
H37 H 0.4325 0.2494 0.1626
H38 H 0.4922 0.2850 0.1961
F4? F 0.5125(10) 0.1775(12) 0.7871(7)
F5? F 0.5701(8) 0.244(2) 0.7620(7)
F6? F 0.5088(14) 0.296(2) 0.7952(12)
H39? H 0.7160 0.3731 1.1261
H40? H 0.6923 0.4277 1.1528
H41? H 0.6592 0.4166 1.0962
H42? H 0.6490 0.2647 1.1878
H43? H 0.6965 0.3232 1.2095
H44? H 0.7056 0.2651 1.1764
H45? H 0.5692 0.4024 1.1141
H46? H 0.6059 0.4039 1.1708
H47? H 0.5658 0.3397 1.1464
P2? P 1.0000 0.0000 1.0000
F7? F 0.9347(8) -0.0196(14) 0.9724(7)
F8? F 1.0095(12) -0.0290(19) 0.9548(11)
F9? F 0.9913(16) 0.0824(18) 0.9911(10)
F10? F 0.9345(11) 0.0286(17) 0.9853(14)
F11? F 0.9889(15) -0.0023(16) 0.9466(9)
F12? F 1.0170(12) 0.0720(14) 0.9886(10)
H48? H 0.7457 0.2760 0.8794
H49? H 0.7564 0.3528 0.8673
H50? H 0.6967 0.3155 0.8361
H51? H 0.7411 0.3864 0.9736
H52? H 0.7710 0.4135 0.9395
H53? H 0.7834 0.3376 0.9604
H54? H 0.6403 0.4010 0.8454
H55? H 0.6794 0.4500 0.8881
H56? H 0.6280 0.4070 0.8928
C56? C 0.4034(10) 0.0537(12) 0.7050(7)
H57? H 0.3854 0.0352 0.6724
H58? H 0.4455 0.0550 0.7153
H59? H 0.3889 0.1000 0.7053
C57? C 0.3279(13) 0.0004(14) 0.7315(10)
H60? H 0.3147 0.0456 0.7364
H61? H 0.3185 -0.0330 0.7512
H62? H 0.3084 -0.0122 0.6977
C58? C 0.4135(12) -0.0587(14) 0.7320(10)
H63? H 0.3892 -0.0741 0.6995
H64? H 0.4176 -0.0957 0.7548
H65? H 0.4518 -0.0459 0.7337
H66? H 0.4570 -0.0310 0.7350
H67? H 0.4313 0.0389 0.7078
H68? H 0.3994 -0.0316 0.6866
H69? H 0.3036 0.0105 0.6892
H70? H 0.3334 0.0828 0.7076
H71? H 0.3066 0.0410 0.7388
H72? H 0.3460 -0.0995 0.7232
H73? H 0.3459 -0.0761 0.7734
H74? H 0.4043 -0.1038 0.7709
H75? H 0.2842 0.4441 0.8356
H76? H 0.3417 0.4271 0.8849
H77? H 0.2883 0.3709 0.8648
H78? H 0.3583 0.4576 0.8143
H79? H 0.3616 0.4072 0.7743
H80? H 0.4104 0.4042 0.8278
H81? H 0.2787 0.3731 0.7565
H82? H 0.2710 0.2988 0.7748
H83? H 0.3259 0.3152 0.7628
C59? C 0.3287(13) 0.4184(13) 0.8405(10)
H84? H 0.3617 0.4449 0.8407
H85? H 0.3309 0.4147 0.8732
H86? H 0.2926 0.4413 0.8202
C60? C 0.3305(10) 0.3611(12) 0.7701(7)
H87? H 0.3067 0.4001 0.7533
H88? H 0.3148 0.3194 0.7517
H89? H 0.3704 0.3679 0.7732
C61? C 0.2686(8) 0.3061(10) 0.8132(8)
H90? H 0.2600 0.2769 0.7851
H91? H 0.2358 0.3365 0.8077
H92? H 0.2755 0.2777 0.8414
loop_
_geom_bond_atom_site_label_1
_geom_bond_atom_site_label_2
_geom_bond_site_symmetry_1
_geom_bond_site_symmetry_2
F1 P1 1_555 1_555
F2 P1 1_555 1_555
F3 P1 1_555 1_555
P1 F1A 1_555 1_555
C1 C48 1_555 1_555
C2 C48 1_555 1_555
C3 C48 1_555 1_555
C4 C19 1_555 1_555
Co1 N1 1_555 1_555
Fe1 N4 1_555 1_555
N1 C5 1_555 1_555
N2 Co1 1_555 1_555
N3 C7 1_555 1_555
N4 N5 1_555 1_555
N5 C10 1_555 1_555
N6 Fe1 1_555 1_555
N7 N6 1_555 1_555
N8 Fe1 1_555 1_555
N9 N8 1_555 1_555
N10 Co1 1_555 1_555
N11 Co1 1_555 1_555
N12 Co1 1_555 1_555
N13 Co1 1_555 1_555
C5 Fe1 1_555 1_555
C6 N2 1_555 1_555
C7 Fe1 1_555 1_555
C8 N4 1_555 1_555
C9 C8 1_555 1_555
H1 C9 1_555 1_555
C10 C9 1_555 1_555
C11 N6 1_555 1_555
C12 C11 1_555 1_555
H2 C12 1_555 1_555
C13 N7 1_555 1_555
C14 N8 1_555 1_555
C15 C14 1_555 1_555
H3 C15 1_555 1_555
C16 N9 1_555 1_555
C17 N10 1_555 1_555
H4 C17 1_555 1_555
C18 C17 1_555 1_555
H5 C18 1_555 1_555
C19 C18 1_555 1_555
C20 C19 1_555 1_555
H6 C20 1_555 1_555
C21 N10 1_555 1_555
C22 N11 1_555 1_555
C23 C22 1_555 1_555
H7 C23 1_555 1_555
C24 C23 1_555 1_555
C25 C24 1_555 1_555
H8 C25 1_555 1_555
C26 N11 1_555 1_555
H9 C26 1_555 1_555
C27 N12 1_555 1_555
H10 C27 1_555 1_555
C28 C27 1_555 1_555
H11 C28 1_555 1_555
C29 C28 1_555 1_555
C30 C29 1_555 1_555
H12 C30 1_555 1_555
C31 N12 1_555 1_555
C32 N13 1_555 1_555
C33 C32 1_555 1_555
H13 C33 1_555 1_555
C34 C33 1_555 1_555
C35 C34 1_555 1_555
H14 C35 1_555 1_555
C36 N13 1_555 1_555
H15 C36 1_555 1_555
C37 C8 1_555 1_555
H16 C37 1_555 1_555
H17 C37 1_555 1_555
H18 C37 1_555 1_555
C38 C10 1_555 1_555
H19 C38 1_555 1_555
H20 C38 1_555 1_555
H21 C38 1_555 1_555
C39 C11 1_555 1_555
H22 C39 1_555 1_555
H23 C39 1_555 1_555
H24 C39 1_555 1_555
C40 C13 1_555 1_555
H25 C40 1_555 1_555
H26 C40 1_555 1_555
H27 C40 1_555 1_555
C41 C14 1_555 1_555
H28 C41 1_555 1_555
H29 C41 1_555 1_555
H30 C41 1_555 1_555
C42 C16 1_555 1_555
H31 C42 1_555 1_555
H32 C42 1_555 1_555
H33 C42 1_555 1_555
C43 C24 1_555 1_555
C44 C29 1_555 1_555
C45 C44 1_555 1_555
C46 C44 1_555 1_555
C47 C44 1_555 1_555
C48 C34 1_555 1_555
B1 N5 1_555 1_555
H34 B1 1_555 1_555
C49 C43 1_555 1_555
C50 C43 1_555 1_555
C51 C43 1_555 1_555
C52 C4 1_555 1_555
C53 C4 1_555 1_555
C54 C4 1_555 1_555
O1 H35 1_555 1_555
C55 O1 1_555 1_555
H36 C55 1_555 1_555
H37 C55 1_555 1_555
H38 C55 1_555 1_555
F2A P1 1_555 1_555
F3A P1 1_555 1_555
C1D C48D 1_555 1_555
C2D C48D 1_555 1_555
C3D C48D 1_555 1_555
C4D C19D 1_555 1_555
Co1D N1D 1_555 1_555
Fe1D C6 1_555 1_555
N1D C5D 1_555 1_555
N2D Co1D 1_555 1_555
N3D C7D 1_555 1_555
N4D Fe1D 1_555 1_555
N5D N4D 1_555 1_555
N6D Fe1D 1_555 1_555
N7D N6D 1_555 1_555
N8D Fe1D 1_555 1_555
N9D N8D 1_555 1_555
N10D Co1D 1_555 1_555
N11D Co1D 1_555 1_555
N12D Co1D 1_555 1_555
N13D Co1D 1_555 1_555
C5D Fe1D 1_555 1_555
C6D Fe1 1_555 1_555
C7D Fe1D 1_555 1_555
C8D N4D 1_555 1_555
C9D C8D 1_555 1_555
H1D C9D 1_555 1_555
C10D N5D 1_555 1_555
C11D N6D 1_555 1_555
C12D C11D 1_555 1_555
H2D C12D 1_555 1_555
C13D N7D 1_555 1_555
C14D N8D 1_555 1_555
C15D C14D 1_555 1_555
H3D C15D 1_555 1_555
C16D N9D 1_555 1_555
C17D N10D 1_555 1_555
H4D C17D 1_555 1_555
C18D C17D 1_555 1_555
H5D C18D 1_555 1_555
C19D C18D 1_555 1_555
C20D C19D 1_555 1_555
H6D C20D 1_555 1_555
C21D N10D 1_555 1_555
C22D N11D 1_555 1_555
C23D C22D 1_555 1_555
H7D C23D 1_555 1_555
C24D C23D 1_555 1_555
C25D C24D 1_555 1_555
H8D C25D 1_555 1_555
C26D N11D 1_555 1_555
H9D C26D 1_555 1_555
C27D N12D 1_555 1_555
H10D C27D 1_555 1_555
C28D C27D 1_555 1_555
H11D C28D 1_555 1_555
C29D C28D 1_555 1_555
C30D C29D 1_555 1_555
H12D C30D 1_555 1_555
C31D N12D 1_555 1_555
C32D N13D 1_555 1_555
C33D C32D 1_555 1_555
H13D C33D 1_555 1_555
C34D C33D 1_555 1_555
C35D C34D 1_555 1_555
H14D C35D 1_555 1_555
C36D N13D 1_555 1_555
H15D C36D 1_555 1_555
C37D C8D 1_555 1_555
H16D C37D 1_555 1_555
H17D C37D 1_555 1_555
H18D C37D 1_555 1_555
C38D C10D 1_555 1_555
H19D C38D 1_555 1_555
H20D C38D 1_555 1_555
H21D C38D 1_555 1_555
C39D C11D 1_555 1_555
H22D C39D 1_555 1_555
H23D C39D 1_555 1_555
H24D C39D 1_555 1_555
C40D C13D 1_555 1_555
H25D C40D 1_555 1_555
H26D C40D 1_555 1_555
H27D C40D 1_555 1_555
C41D C14D 1_555 1_555
H28D C41D 1_555 1_555
H29D C41D 1_555 1_555
H30D C41D 1_555 1_555
C42D C16D 1_555 1_555
H31D C42D 1_555 1_555
H32D C42D 1_555 1_555
H33D C42D 1_555 1_555
C43D C24D 1_555 1_555
C44D C29D 1_555 1_555
C45D C44D 1_555 1_555
C46D C44D 1_555 1_555
C47D C44D 1_555 1_555
C48D C34D 1_555 1_555
B1D N5D 1_555 1_555
H34D B1D 1_555 1_555
C49D C43D 1_555 1_555
C50D C43D 1_555 1_555
C51D C43D 1_555 1_555
C52D C4D 1_555 1_555
C53D C4D 1_555 1_555
C54D C4D 1_555 1_555
N7 B1 1_555 1_555
N9 B1 1_555 1_555
C12 C13 1_555 1_555
C15 C16 1_555 1_555
C20 C21 1_555 1_555
C21 C22 1_555 1_555
C25 C26 1_555 1_555
C30 C31 1_555 1_555
C31 C32 1_555 1_555
C35 C36 1_555 1_555
N2D C6D 1_555 1_555
N7D B1D 1_555 1_555
N9D B1D 1_555 1_555
C9D C10D 1_555 1_555
C12D C13D 1_555 1_555
C15D C16D 1_555 1_555
C20D C21D 1_555 1_555
C21D C22D 1_555 1_555
C25D C26D 1_555 1_555
C30D C31D 1_555 1_555
C31D C32D 1_555 1_555
C35D C36D 1_555 1_555

#END
