
#######################################################################
#
#                 Cambridge Crystallographic Data Centre
#                                CCDC 
#
#######################################################################
#
# If this CIF has been generated from an entry in the Cambridge 
# Structural Database, then it will include bibliographic, chemical, 
# crystal, experimental, refinement or atomic coordinate data resulting 
# from the CCDC's data processing and validation procedures.
#
#######################################################################

data_KAFXAS04
_chemical_formula_moiety         
'C108 H140 B2 Co2 Fe2 N26 2+,2(F6 P1 1-),2(C1 H4 O1)'
_chemical_name_systematic        
"tetrakis(\m~2~-Cyano)-bis(hydridotris(3,5-dimethyl-1H-pyrazol-1-yl)borate)-terakis(4,4'-di-t-butyl-2,2'-bipyridine)-dicyano-di-cobalt-di-iron bis(hexafluorophosphate) methanol solvate"
_symmetry_cell_setting           monoclinic
_symmetry_space_group_name_H-M   'C 2/c'
_symmetry_Int_Tables_number      15
_space_group_name_Hall           '-C 2yn'
loop_
_symmetry_equiv_pos_site_id
_symmetry_equiv_pos_as_xyz
1 x,y,z
2 -x,y,1/2-z
3 1/2+x,1/2+y,z
4 1/2-x,1/2+y,1/2-z
5 -x,-y,-z
6 x,-y,1/2+z
7 1/2-x,1/2-y,-z
8 1/2+x,1/2-y,1/2+z
_cell_length_a                   24.682(4)
_cell_length_b                   18.626(3)
_cell_length_c                   29.150(5)
_cell_angle_alpha                90
_cell_angle_beta                 113.266(2)
_cell_angle_gamma                90
_cell_volume                     12311.3
_exptl_crystal_colour            green
_exptl_crystal_description       plate
_cell_formula_units_Z            4
loop_
_atom_site_label
_atom_site_type_symbol
_atom_site_fract_x
_atom_site_fract_y
_atom_site_fract_z
Co1 Co 0.52641(3) 0.64483(4) 0.94918(3)
Fe1 Fe 0.35602(3) 0.57163(4) 0.98443(3)
B1 B 0.2284(3) 0.6172(4) 0.9149(3)
H1 H 0.1873 0.6315 0.8926
C1 C 0.4229(2) 0.5936(3) 0.9726(2)
C2 C 0.3904(2) 0.4810(3) 1.0048(2)
C3 C 0.3970(2) 0.6005(3) 1.0518(2)
C4 C 0.2665(2) 0.5124(3) 1.0277(2)
C5 C 0.2050(3) 0.5112(3) 1.0129(2)
H2 H 0.1838 0.4892 1.0301
C6 C 0.1817(2) 0.5480(3) 0.9685(2)
C7 C 0.3468(3) 0.7397(3) 0.9817(3)
C8 C 0.3019(3) 0.7915(4) 0.9611(3)
H3 H 0.3057 0.8420 0.9657
C9 C 0.2517(3) 0.7539(3) 0.9332(3)
C10 C 0.3229(2) 0.5022(3) 0.8789(2)
C11 C 0.2767(3) 0.5080(3) 0.8322(2)
H4 H 0.2741 0.4852 0.8023
C12 C 0.2357(3) 0.5529(3) 0.8378(2)
C13 C 0.5961(2) 0.6871(3) 0.8928(2)
H5 H 0.5764 0.6501 0.8698
C14 C 0.6355(2) 0.7304(3) 0.8826(2)
H6 H 0.6431 0.7217 0.8535
C15 C 0.6639(2) 0.7861(3) 0.9139(2)
C16 C 0.6523(2) 0.7943(3) 0.9571(2)
H7 H 0.6713 0.8314 0.9802
C17 C 0.6135(2) 0.7487(3) 0.9661(2)
C18 C 0.6004(2) 0.7487(3) 1.0113(2)
C19 C 0.6252(2) 0.7941(3) 1.0516(2)
H8 H 0.6523 0.8300 1.0509
C20 C 0.6113(2) 0.7884(3) 1.0934(2)
C21 C 0.5717(2) 0.7341(3) 1.0919(2)
H9 H 0.5615 0.7269 1.1197
C22 C 0.5473(2) 0.6907(3) 1.0503(2)
H10 H 0.5202 0.6543 1.0499
C23 C 0.4651(3) 0.7848(3) 0.9306(2)
H11 H 0.4927 0.7995 0.9625
C24 C 0.4218(3) 0.8321(4) 0.9032(3)
H12 H 0.4205 0.8788 0.9158
C25 C 0.3799(3) 0.8119(4) 0.8571(3)
C26 C 0.3857(3) 0.7439(4) 0.8401(3)
H13 H 0.3582 0.7282 0.8084
C27 C 0.4309(3) 0.6985(3) 0.8689(2)
C28 C 0.4417(3) 0.6278(3) 0.8529(2)
C29 C 0.4066(3) 0.5954(4) 0.8082(3)
H14 H 0.3722 0.6195 0.7862
C30 C 0.4204(3) 0.5289(4) 0.7949(2)
C31 C 0.4708(3) 0.4967(3) 0.8295(2)
H15 H 0.4828 0.4510 0.8223
C32 C 0.5037(2) 0.5296(3) 0.8741(2)
H16 H 0.5373 0.5057 0.8974
C33 C 0.3121(3) 0.4782(3) 1.0731(2)
H17 H 0.3318 0.4395 1.0628
H18 H 0.2931 0.4584 1.0941
H19 H 0.3413 0.5143 1.0920
C34 C 0.1187(2) 0.5648(3) 0.9359(3)
H20 H 0.1120 0.6166 0.9364
H21 H 0.0926 0.5393 0.9485
H22 H 0.1102 0.5494 0.9016
C35 C 0.4095(3) 0.7538(3) 1.0160(3)
H23 H 0.4144 0.7455 1.0506
H24 H 0.4197 0.8036 1.0122
H25 H 0.4356 0.7214 1.0077
C36 C 0.1906(3) 0.7815(4) 0.9029(3)
H26 H 0.1786 0.7660 0.8681
H27 H 0.1906 0.8340 0.9043
H28 H 0.1630 0.7622 0.9164
C37 C 0.3766(2) 0.4566(3) 0.8936(2)
H29 H 0.4113 0.4851 0.9136
H30 H 0.3809 0.4390 0.8636
H31 H 0.3728 0.4158 0.9134
C38 C 0.1764(3) 0.5768(4) 0.8002(3)
H32 H 0.1453 0.5589 0.8101
H33 H 0.1704 0.5577 0.7672
H34 H 0.1749 0.6294 0.7988
C39 C 0.7035(2) 0.8394(3) 0.9020(2)
C40 C 0.6638(3) 0.9055(4) 0.8774(3)
H35 H 0.6329 0.8912 0.8454
H36 H 0.6880 0.9435 0.8718
H37 H 0.6456 0.9234 0.8996
C41 C 0.7266(3) 0.8083(4) 0.8649(3)
H38 H 0.7485 0.7640 0.8785
H39 H 0.7528 0.8432 0.8589
H40 H 0.6934 0.7977 0.8334
C42 C 0.7555(3) 0.8638(3) 0.9485(2)
H41 H 0.7408 0.8864 0.9718
H42 H 0.7791 0.8986 0.9391
H43 H 0.7800 0.8223 0.9646
C43 C 0.6368(3) 0.8370(3) 1.1387(2)
C44 C 0.6816(3) 0.8902(4) 1.1346(3)
H44 H 0.7147 0.8639 1.1320
H45 H 0.6962 0.9209 1.1643
H46 H 0.6628 0.9200 1.1047
C45 C 0.6670(3) 0.7897(4) 1.1858(2)
H47 H 0.6381 0.7563 1.1891
H48 H 0.6827 0.8204 1.2155
H49 H 0.6993 0.7625 1.1826
C46 C 0.5853(3) 0.8784(3) 1.1439(3)
H50 H 0.5637 0.9050 1.1130
H51 H 0.6009 0.9121 1.1719
H52 H 0.5587 0.8443 1.1501
C47 C 0.3698(8) 0.9222(10) 0.8070(7)
H53 H 0.3963 0.9479 0.8366
H54 H 0.3430 0.9564 0.7833
H55 H 0.3930 0.8974 0.7912
C48 C 0.2918(7) 0.8310(9) 0.7753(6)
H56 H 0.2606 0.8653 0.7570
H57 H 0.2740 0.7872 0.7819
H58 H 0.3145 0.8192 0.7554
C49 C 0.3033(7) 0.9003(8) 0.8576(6)
H59 H 0.3339 0.9268 0.8844
H60 H 0.2864 0.8635 0.8721
H61 H 0.2721 0.9335 0.8375
C50 C 0.3313(5) 0.8632(6) 0.8232(4)
C51 C 0.3845(3) 0.4933(4) 0.7452(3)
C52 C 0.4222(4) 0.4807(6) 0.7157(4)
H62 H 0.4555 0.4495 0.7348
H63 H 0.4372 0.5268 0.7094
H64 H 0.3985 0.4577 0.6838
C53 C 0.3279(4) 0.5352(7) 0.7154(4)
H65 H 0.3053 0.5097 0.6843
H66 H 0.3381 0.5832 0.7077
H67 H 0.3040 0.5394 0.7353
C54 C 0.3661(4) 0.4164(5) 0.7552(3)
H68 H 0.3443 0.3923 0.7233
H69 H 0.3409 0.4202 0.7740
H70 H 0.4015 0.3886 0.7745
N1 N 0.46642(19) 0.6049(2) 0.96672(17)
N2 N 0.41961(19) 0.4302(2) 1.02134(16)
N3 N 0.4240(2) 0.6163(3) 1.0932(2)
N4 N 0.28023(19) 0.5485(2) 0.99406(17)
N5 N 0.22788(19) 0.5702(2) 0.95777(19)
N6 N 0.3246(2) 0.6741(2) 0.9674(2)
N7 N 0.2660(2) 0.6833(2) 0.9366(2)
N8 N 0.31153(19) 0.5430(2) 0.91179(17)
N9 N 0.25676(19) 0.5734(2) 0.88568(18)
N10 N 0.58476(19) 0.6951(2) 0.93353(16)
N11 N 0.56077(18) 0.6986(2) 1.01059(17)
N12 N 0.4701(2) 0.7191(2) 0.91445(18)
N13 N 0.48946(19) 0.5950(2) 0.88575(17)
Co1D Co 0.47359(3) 0.35517(4) 1.05082(3)
Fe1D Fe 0.64398(3) 0.42837(4) 1.01557(3)
B1D B 0.7716(3) 0.3828(4) 1.0851(3)
H1D H 0.8127 0.3685 1.1074
C1D C 0.5771(2) 0.4064(3) 1.0274(2)
C2D C 0.6096(2) 0.5190(3) 0.9952(2)
C3D C 0.6030(2) 0.3995(3) 0.9482(2)
C4D C 0.7335(2) 0.4876(3) 0.9723(2)
C5D C 0.7950(3) 0.4888(3) 0.9871(2)
H2D H 0.8162 0.5108 0.9699
C6D C 0.8183(2) 0.4520(3) 1.0315(2)
C7D C 0.6532(3) 0.2603(3) 1.0183(3)
C8D C 0.6981(3) 0.2085(4) 1.0389(3)
H3D H 0.6943 0.1580 1.0343
C9D C 0.7483(3) 0.2461(3) 1.0668(3)
C10D C 0.6771(2) 0.4978(3) 1.1211(2)
C11D C 0.7233(3) 0.4920(3) 1.1678(2)
H4D H 0.7259 0.5148 1.1977
C12D C 0.7643(3) 0.4471(3) 1.1622(2)
C13D C 0.4039(2) 0.3129(3) 1.1072(2)
H5D H 0.4236 0.3499 1.1302
C14D C 0.3645(2) 0.2696(3) 1.1174(2)
H6D H 0.3569 0.2783 1.1465
C15D C 0.3361(2) 0.2139(3) 1.0861(2)
C16D C 0.3477(2) 0.2057(3) 1.0429(2)
H7D H 0.3287 0.1686 1.0198
C17D C 0.3865(2) 0.2513(3) 1.0339(2)
C18D C 0.3996(2) 0.2513(3) 0.9887(2)
C19D C 0.3748(2) 0.2059(3) 0.9484(2)
H8D H 0.3477 0.1700 0.9491
C20D C 0.3887(2) 0.2116(3) 0.9066(2)
C21D C 0.4283(2) 0.2659(3) 0.9081(2)
H9D H 0.4385 0.2731 0.8803
C22D C 0.4527(2) 0.3093(3) 0.9497(2)
H10D H 0.4798 0.3457 0.9501
C23D C 0.5349(3) 0.2152(3) 1.0694(2)
H11D H 0.5073 0.2005 1.0375
C24D C 0.5782(3) 0.1679(4) 1.0968(3)
H12D H 0.5795 0.1212 1.0842
C25D C 0.6201(3) 0.1881(4) 1.1429(3)
C26D C 0.6143(3) 0.2561(4) 1.1599(3)
H13D H 0.6418 0.2718 1.1916
C27D C 0.5691(3) 0.3015(3) 1.1311(2)
C28D C 0.5583(3) 0.3722(3) 1.1471(2)
C29D C 0.5934(3) 0.4046(4) 1.1918(3)
H14D H 0.6278 0.3805 1.2138
C30D C 0.5796(3) 0.4711(4) 1.2051(2)
C31D C 0.5292(3) 0.5033(3) 1.1705(2)
H15D H 0.5172 0.5490 1.1777
C32D C 0.4963(2) 0.4704(3) 1.1259(2)
H16D H 0.4627 0.4943 1.1026
C33D C 0.6879(3) 0.5218(3) 0.9269(2)
H17D H 0.6682 0.5605 0.9372
H18D H 0.7069 0.5416 0.9059
H19D H 0.6587 0.4857 0.9080
C34D C 0.8813(2) 0.4352(3) 1.0641(3)
H20D H 0.8880 0.3834 1.0636
H21D H 0.9074 0.4607 1.0515
H22D H 0.8898 0.4506 1.0984
C35D C 0.5905(3) 0.2462(3) 0.9840(3)
H23D H 0.5856 0.2545 0.9494
H24D H 0.5803 0.1964 0.9878
H25D H 0.5644 0.2786 0.9923
C36D C 0.8094(3) 0.2185(4) 1.0971(3)
H26D H 0.8214 0.2340 1.1319
H27D H 0.8094 0.1660 1.0957
H28D H 0.8370 0.2378 1.0836
C37D C 0.6234(2) 0.5434(3) 1.1064(2)
H29D H 0.5887 0.5149 1.0864
H30D H 0.6191 0.5610 1.1364
H31D H 0.6272 0.5842 1.0866
C38D C 0.8236(3) 0.4232(4) 1.1998(3)
H32D H 0.8547 0.4411 1.1899
H33D H 0.8296 0.4423 1.2328
H34D H 0.8251 0.3706 1.2012
C39D C 0.2965(2) 0.1606(3) 1.0980(2)
C40D C 0.3362(3) 0.0945(4) 1.1226(3)
H35D H 0.3671 0.1088 1.1546
H36D H 0.3120 0.0565 1.1282
H37D H 0.3544 0.0766 1.1004
C41D C 0.2734(3) 0.1917(4) 1.1351(3)
H38D H 0.2515 0.2360 1.1215
H39D H 0.2472 0.1568 1.1411
H40D H 0.3066 0.2023 1.1666
C42D C 0.2445(3) 0.1362(3) 1.0515(2)
H41D H 0.2592 0.1136 1.0282
H42D H 0.2209 0.1014 1.0609
H43D H 0.2200 0.1777 1.0354
C43D C 0.3632(3) 0.1630(3) 0.8613(2)
C44D C 0.3184(3) 0.1098(4) 0.8654(3)
H44D H 0.2853 0.1361 0.8680
H45D H 0.3038 0.0791 0.8357
H46D H 0.3372 0.0800 0.8953
C45D C 0.3330(3) 0.2103(4) 0.8142(2)
H47D H 0.3619 0.2437 0.8109
H48D H 0.3173 0.1796 0.7845
H49D H 0.3007 0.2375 0.8174
C46D C 0.4147(3) 0.1216(3) 0.8561(3)
H50D H 0.4363 0.0950 0.8870
H51D H 0.3991 0.0879 0.8281
H52D H 0.4413 0.1557 0.8499
C47D C 0.6302(8) 0.0778(10) 1.1930(7)
H53D H 0.6037 0.0521 1.1634
H54D H 0.6570 0.0436 1.2167
H55D H 0.6070 0.1026 1.2088
C48D C 0.7082(7) 0.1690(9) 1.2247(6)
H56D H 0.7394 0.1347 1.2430
H57D H 0.7260 0.2128 1.2181
H58D H 0.6855 0.1808 1.2446
C49D C 0.6967(7) 0.0997(8) 1.1424(6)
H59D H 0.6661 0.0732 1.1156
H60D H 0.7136 0.1365 1.1279
H61D H 0.7279 0.0665 1.1625
C50D C 0.6687(5) 0.1368(6) 1.1768(4)
C51D C 0.6155(3) 0.5067(4) 1.2548(3)
C52D C 0.5778(4) 0.5193(6) 1.2843(4)
H62D H 0.5445 0.5505 1.2652
H63D H 0.5628 0.4732 1.2906
H64D H 0.6015 0.5423 1.3162
C53D C 0.6721(4) 0.4648(7) 1.2846(4)
H65D H 0.6947 0.4903 1.3157
H66D H 0.6619 0.4168 1.2923
H67D H 0.6960 0.4606 1.2647
C54D C 0.6339(4) 0.5836(5) 1.2448(3)
H68D H 0.6557 0.6077 1.2767
H69D H 0.6591 0.5798 1.2260
H70D H 0.5985 0.6114 1.2255
N1D N 0.53358(19) 0.3951(2) 1.03328(17)
N2D N 0.58039(19) 0.5698(2) 0.97866(16)
N3D N 0.5760(2) 0.3837(3) 0.9068(2)
N4D N 0.71977(19) 0.4515(2) 1.00594(17)
N5D N 0.77212(19) 0.4298(2) 1.04223(19)
N6D N 0.6754(2) 0.3259(2) 1.0326(2)
N7D N 0.7340(2) 0.3167(2) 1.0634(2)
N8D N 0.68847(19) 0.4570(2) 1.08821(17)
N9D N 0.74324(19) 0.4266(2) 1.11432(18)
N10D N 0.41524(19) 0.3049(2) 1.06647(16)
N11D N 0.43923(18) 0.3014(2) 0.98941(17)
N12D N 0.5299(2) 0.2809(2) 1.08555(18)
N13D N 0.51054(19) 0.4050(2) 1.11425(17)
P1 P 0.5000 1.0000 1.0000
F1 F 0.5059(2) 0.9757(3) 0.94969(19)
F2 F 0.49486(19) 0.9177(2) 1.01417(19)
F3 F 0.42986(18) 1.0040(3) 0.9698(2)
F1D F 0.4941(2) 1.0243(3) 1.05031(19)
F2D F 0.50514(19) 1.0823(2) 0.98583(19)
F3D F 0.57014(18) 0.9960(3) 1.0302(2)
P2 P 0.5000 0.7305(2) 0.7500
F4 F 0.5352(12) 0.6647(8) 0.7754(5)
F5 F 0.4946(11) 0.746(3) 0.8018(9)
F6 F 0.5524(9) 0.7834(16) 0.7721(7)
F4A F 0.4648(12) 0.6647(8) 0.7246(5)
F5A F 0.5054(11) 0.746(3) 0.6982(9)
F6A F 0.4476(9) 0.7834(16) 0.7279(7)
C61 C 0.4777(5) 0.7509(7) 0.1813(5)
H89 H 0.5068 0.7835 0.2047
H90 H 0.4522 0.7316 0.1969
H91 H 0.4537 0.7773 0.1510
O1 O 0.5074(2) 0.6934(3) 0.16871(19)
H92 H 0.4848 0.6748 0.1417
loop_
_geom_bond_atom_site_label_1
_geom_bond_atom_site_label_2
_geom_bond_site_symmetry_1
_geom_bond_site_symmetry_2
Co1 N1 1_555 1_555
Fe1 C1 1_555 1_555
B1 H1 1_555 1_555
C1 N1 1_555 1_555
C2 Fe1 1_555 1_555
C3 Fe1 1_555 1_555
C4 C5 1_555 1_555
C5 H2 1_555 1_555
C6 C5 1_555 1_555
C7 C8 1_555 1_555
C8 H3 1_555 1_555
C9 C8 1_555 1_555
C10 C11 1_555 1_555
C11 H4 1_555 1_555
C12 C11 1_555 1_555
C13 H5 1_555 1_555
C14 C13 1_555 1_555
H6 C14 1_555 1_555
C15 C14 1_555 1_555
C16 C15 1_555 1_555
H7 C16 1_555 1_555
C17 C16 1_555 1_555
C18 C17 1_555 1_555
C19 C18 1_555 1_555
H8 C19 1_555 1_555
C20 C19 1_555 1_555
C21 C20 1_555 1_555
H9 C21 1_555 1_555
C22 C21 1_555 1_555
H10 C22 1_555 1_555
C23 H11 1_555 1_555
C24 C23 1_555 1_555
H12 C24 1_555 1_555
C25 C24 1_555 1_555
C26 C25 1_555 1_555
H13 C26 1_555 1_555
C27 C26 1_555 1_555
C28 C27 1_555 1_555
C29 C28 1_555 1_555
H14 C29 1_555 1_555
C30 C29 1_555 1_555
C31 C30 1_555 1_555
H15 C31 1_555 1_555
C32 C31 1_555 1_555
H16 C32 1_555 1_555
C33 C4 1_555 1_555
H17 C33 1_555 1_555
H18 C33 1_555 1_555
H19 C33 1_555 1_555
C34 C6 1_555 1_555
H20 C34 1_555 1_555
H21 C34 1_555 1_555
H22 C34 1_555 1_555
C35 C7 1_555 1_555
H23 C35 1_555 1_555
H24 C35 1_555 1_555
H25 C35 1_555 1_555
C36 C9 1_555 1_555
H26 C36 1_555 1_555
H27 C36 1_555 1_555
H28 C36 1_555 1_555
C37 C10 1_555 1_555
H29 C37 1_555 1_555
H30 C37 1_555 1_555
H31 C37 1_555 1_555
C38 C12 1_555 1_555
H32 C38 1_555 1_555
H33 C38 1_555 1_555
H34 C38 1_555 1_555
C39 C15 1_555 1_555
C40 C39 1_555 1_555
H35 C40 1_555 1_555
H36 C40 1_555 1_555
H37 C40 1_555 1_555
C41 C39 1_555 1_555
H38 C41 1_555 1_555
H39 C41 1_555 1_555
H40 C41 1_555 1_555
C42 C39 1_555 1_555
H41 C42 1_555 1_555
H42 C42 1_555 1_555
H43 C42 1_555 1_555
C43 C20 1_555 1_555
C44 C43 1_555 1_555
H44 C44 1_555 1_555
H45 C44 1_555 1_555
H46 C44 1_555 1_555
C45 C43 1_555 1_555
H47 C45 1_555 1_555
H48 C45 1_555 1_555
H49 C45 1_555 1_555
C46 C43 1_555 1_555
H50 C46 1_555 1_555
H51 C46 1_555 1_555
H52 C46 1_555 1_555
C47 H53 1_555 1_555
H54 C47 1_555 1_555
H55 C47 1_555 1_555
C48 H56 1_555 1_555
H57 C48 1_555 1_555
H58 C48 1_555 1_555
C49 H59 1_555 1_555
H60 C49 1_555 1_555
H61 C49 1_555 1_555
C50 C25 1_555 1_555
C51 C30 1_555 1_555
C52 C51 1_555 1_555
H62 C52 1_555 1_555
H63 C52 1_555 1_555
H64 C52 1_555 1_555
C53 C51 1_555 1_555
H65 C53 1_555 1_555
H66 C53 1_555 1_555
H67 C53 1_555 1_555
C54 C51 1_555 1_555
H68 C54 1_555 1_555
H69 C54 1_555 1_555
H70 C54 1_555 1_555
N2 C2 1_555 1_555
N3 C3 1_555 1_555
N4 Fe1 1_555 1_555
N5 B1 1_555 1_555
N6 Fe1 1_555 1_555
N7 B1 1_555 1_555
N8 Fe1 1_555 1_555
N9 B1 1_555 1_555
N10 Co1 1_555 1_555
N11 Co1 1_555 1_555
N12 Co1 1_555 1_555
N13 Co1 1_555 1_555
P1 F1 1_555 1_555
F2 P1 1_555 1_555
F3 P1 1_555 1_555
P2 F4 1_555 1_555
F5 P2 1_555 1_555
F6 P2 1_555 1_555
C61 H89 1_555 1_555
H90 C61 1_555 1_555
H91 C61 1_555 1_555
O1 C61 1_555 1_555
H92 O1 1_555 1_555
Co1D N2 1_555 1_555
Fe1D C1D 1_555 1_555
B1D H1D 1_555 1_555
C1D N1D 1_555 1_555
C2D Fe1D 1_555 1_555
C3D Fe1D 1_555 1_555
C4D C5D 1_555 1_555
C5D H2D 1_555 1_555
C6D C5D 1_555 1_555
C7D C8D 1_555 1_555
C8D H3D 1_555 1_555
C9D C8D 1_555 1_555
C10D C11D 1_555 1_555
C11D H4D 1_555 1_555
C12D C11D 1_555 1_555
C13D H5D 1_555 1_555
C14D C13D 1_555 1_555
H6D C14D 1_555 1_555
C15D C14D 1_555 1_555
C16D C15D 1_555 1_555
H7D C16D 1_555 1_555
C17D C16D 1_555 1_555
C18D C17D 1_555 1_555
C19D C18D 1_555 1_555
H8D C19D 1_555 1_555
C20D C19D 1_555 1_555
C21D C20D 1_555 1_555
H9D C21D 1_555 1_555
C22D C21D 1_555 1_555
H10D C22D 1_555 1_555
C23D H11D 1_555 1_555
C24D C23D 1_555 1_555
H12D C24D 1_555 1_555
C25D C24D 1_555 1_555
C26D C25D 1_555 1_555
H13D C26D 1_555 1_555
C27D C26D 1_555 1_555
C28D C27D 1_555 1_555
C29D C28D 1_555 1_555
H14D C29D 1_555 1_555
C30D C29D 1_555 1_555
C31D C30D 1_555 1_555
H15D C31D 1_555 1_555
C32D C31D 1_555 1_555
H16D C32D 1_555 1_555
C33D C4D 1_555 1_555
H17D C33D 1_555 1_555
H18D C33D 1_555 1_555
H19D C33D 1_555 1_555
C34D C6D 1_555 1_555
H20D C34D 1_555 1_555
H21D C34D 1_555 1_555
H22D C34D 1_555 1_555
C35D C7D 1_555 1_555
H23D C35D 1_555 1_555
H24D C35D 1_555 1_555
H25D C35D 1_555 1_555
C36D C9D 1_555 1_555
H26D C36D 1_555 1_555
H27D C36D 1_555 1_555
H28D C36D 1_555 1_555
C37D C10D 1_555 1_555
H29D C37D 1_555 1_555
H30D C37D 1_555 1_555
H31D C37D 1_555 1_555
C38D C12D 1_555 1_555
H32D C38D 1_555 1_555
H33D C38D 1_555 1_555
H34D C38D 1_555 1_555
C39D C15D 1_555 1_555
C40D C39D 1_555 1_555
H35D C40D 1_555 1_555
H36D C40D 1_555 1_555
H37D C40D 1_555 1_555
C41D C39D 1_555 1_555
H38D C41D 1_555 1_555
H39D C41D 1_555 1_555
H40D C41D 1_555 1_555
C42D C39D 1_555 1_555
H41D C42D 1_555 1_555
H42D C42D 1_555 1_555
H43D C42D 1_555 1_555
C43D C20D 1_555 1_555
C44D C43D 1_555 1_555
H44D C44D 1_555 1_555
H45D C44D 1_555 1_555
H46D C44D 1_555 1_555
C45D C43D 1_555 1_555
H47D C45D 1_555 1_555
H48D C45D 1_555 1_555
H49D C45D 1_555 1_555
C46D C43D 1_555 1_555
H50D C46D 1_555 1_555
H51D C46D 1_555 1_555
H52D C46D 1_555 1_555
C47D H53D 1_555 1_555
H54D C47D 1_555 1_555
H55D C47D 1_555 1_555
C48D H56D 1_555 1_555
H57D C48D 1_555 1_555
H58D C48D 1_555 1_555
C49D H59D 1_555 1_555
H60D C49D 1_555 1_555
H61D C49D 1_555 1_555
C50D C25D 1_555 1_555
C51D C30D 1_555 1_555
C52D C51D 1_555 1_555
H62D C52D 1_555 1_555
H63D C52D 1_555 1_555
H64D C52D 1_555 1_555
C53D C51D 1_555 1_555
H65D C53D 1_555 1_555
H66D C53D 1_555 1_555
H67D C53D 1_555 1_555
C54D C51D 1_555 1_555
H68D C54D 1_555 1_555
H69D C54D 1_555 1_555
H70D C54D 1_555 1_555
N1D Co1D 1_555 1_555
N2D Co1 1_555 1_555
N3D C3D 1_555 1_555
N4D Fe1D 1_555 1_555
N5D B1D 1_555 1_555
N6D Fe1D 1_555 1_555
N7D B1D 1_555 1_555
N8D Fe1D 1_555 1_555
N9D B1D 1_555 1_555
N10D Co1D 1_555 1_555
N11D Co1D 1_555 1_555
N12D Co1D 1_555 1_555
N13D Co1D 1_555 1_555
F1D P1 1_555 1_555
F2D P1 1_555 1_555
F3D P1 1_555 1_555
F4A P2 1_555 1_555
F5A P2 1_555 1_555
F6A P2 1_555 1_555
C4 N4 1_555 1_555
C6 N5 1_555 1_555
C7 N6 1_555 1_555
C9 N7 1_555 1_555
C10 N8 1_555 1_555
C12 N9 1_555 1_555
C13 N10 1_555 1_555
C17 N10 1_555 1_555
C18 N11 1_555 1_555
C22 N11 1_555 1_555
C23 N12 1_555 1_555
C27 N12 1_555 1_555
C28 N13 1_555 1_555
C32 N13 1_555 1_555
C47 C50 1_555 1_555
C48 C50 1_555 1_555
C49 C50 1_555 1_555
N4 N5 1_555 1_555
N6 N7 1_555 1_555
N8 N9 1_555 1_555
C2D N2D 1_555 1_555
C4D N4D 1_555 1_555
C6D N5D 1_555 1_555
C7D N6D 1_555 1_555
C9D N7D 1_555 1_555
C10D N8D 1_555 1_555
C12D N9D 1_555 1_555
C13D N10D 1_555 1_555
C17D N10D 1_555 1_555
C18D N11D 1_555 1_555
C22D N11D 1_555 1_555
C23D N12D 1_555 1_555
C27D N12D 1_555 1_555
C28D N13D 1_555 1_555
C32D N13D 1_555 1_555
C47D C50D 1_555 1_555
C48D C50D 1_555 1_555
C49D C50D 1_555 1_555
N4D N5D 1_555 1_555
N6D N7D 1_555 1_555
N8D N9D 1_555 1_555

#END
