
#######################################################################
#
#                 Cambridge Crystallographic Data Centre
#                                CCDC 
#
#######################################################################
#
# If this CIF has been generated from an entry in the Cambridge 
# Structural Database, then it will include bibliographic, chemical, 
# crystal, experimental, refinement or atomic coordinate data resulting 
# from the CCDC's data processing and validation procedures.
#
#######################################################################

data_KAFXAS06
_chemical_formula_moiety         
'C108 H140 B2 Co2 Fe2 N26 2+,2(C1 H4 O1),2(F6 P1 1-)'
_chemical_name_systematic        
"tetrakis(\m~2~-cyano)-bis(tris(3,5-dimethyl-1H-pyrazol-1-yl)(hydrido)borate)-tetrakis(4,4'-di-t-butyl-2,2'-bipyridine)-dicyano-di-cobalt-di-iron bis(hexafluorophosphate) methanol solvate"
_symmetry_cell_setting           monoclinic
_symmetry_space_group_name_H-M   'C 2/c'
_symmetry_Int_Tables_number      15
_space_group_name_Hall           '-C 2yn'
loop_
_symmetry_equiv_pos_site_id
_symmetry_equiv_pos_as_xyz
1 x,y,z
2 -x,y,1/2-z
3 1/2+x,1/2+y,z
4 1/2-x,1/2+y,1/2-z
5 -x,-y,-z
6 x,-y,1/2+z
7 1/2-x,1/2-y,-z
8 1/2+x,1/2-y,1/2+z
_cell_length_a                   24.56(3)
_cell_length_b                   19.67(2)
_cell_length_c                   29.88(4)
_cell_angle_alpha                90
_cell_angle_beta                 114.159(18)
_cell_angle_gamma                90
_cell_volume                     13170.6
_exptl_crystal_colour            red
_exptl_crystal_description       plate
_cell_formula_units_Z            4
loop_
_atom_site_label
_atom_site_type_symbol
_atom_site_fract_x
_atom_site_fract_y
_atom_site_fract_z
Co1 Co 0.53507(9) 0.35881(8) 0.95197(5)
Fe1 Fe 0.34933(9) 0.41788(8) 0.98348(5)
B1 B 0.2219(9) 0.3730(8) 0.9113(5)
H1 H 0.1809 0.3585 0.8883
C1 C 0.4231(8) 0.4023(5) 0.9771(4)
C2 C 0.3802(6) 0.5074(7) 1.0041(4)
C3 C 0.3918(7) 0.3930(6) 1.0518(5)
C4 C 0.2612(7) 0.4731(6) 1.0251(4)
C5 C 0.1967(10) 0.4748(6) 1.0070(4)
H2 H 0.1746 0.4962 1.0228
C6 C 0.1720(7) 0.4398(6) 0.9621(5)
C7 C 0.3482(8) 0.2591(7) 0.9803(5)
C8 C 0.3021(8) 0.2064(8) 0.9575(6)
H3 H 0.3059 0.1584 0.9610
C9 C 0.2533(8) 0.2431(9) 0.9305(6)
C10 C 0.3220(6) 0.4849(6) 0.8809(4)
C11 C 0.2747(6) 0.4826(6) 0.8336(4)
H4 H 0.2724 0.5062 0.8051
C12 C 0.2327(6) 0.4390(6) 0.8373(4)
C13 C 0.6094(7) 0.3049(6) 0.8965(4)
H5 H 0.5925 0.3421 0.8749
C14 C 0.6426(6) 0.2579(6) 0.8839(4)
H6 H 0.6475 0.2628 0.8541
C15 C 0.6697(6) 0.2017(5) 0.9158(4)
C16 C 0.6592(5) 0.1978(5) 0.9589(4)
H7 H 0.6757 0.1612 0.9812
C17 C 0.6250(6) 0.2471(5) 0.9690(3)
N1 N 0.5751(5) 0.2988(5) 1.0158(3)
C18 C 0.6114(5) 0.2470(5) 1.0143(3)
C19 C 0.6351(6) 0.1976(6) 1.0513(4)
H8 H 0.6598 0.1623 1.0484
C20 C 0.6215(7) 0.2013(6) 1.0933(4)
C21 C 0.6456(7) 0.1494(6) 1.1363(4)
C22 C 0.5864(6) 0.2564(5) 1.0959(4)
H9 H 0.5776 0.2622 1.1238
C23 C 0.5644(6) 0.3031(6) 1.0567(4)
H10 H 0.5406 0.3397 1.0591
N2 N 0.4719(5) 0.2826(5) 0.9104(3)
C24 C 0.4326(7) 0.3041(7) 0.8649(4)
C25 C 0.3852(8) 0.2633(8) 0.8347(5)
H11 H 0.3562 0.2805 0.8047
C26 C 0.3814(10) 0.1950(9) 0.8498(5)
C27 C 0.3360(10) 0.1415(10) 0.8161(7)
C28 C 0.4215(8) 0.1718(8) 0.8961(5)
H12 H 0.4187 0.1275 0.9077
C29 C 0.4660(7) 0.2182(6) 0.9243(4)
H13 H 0.4941 0.2033 0.9555
C30 C 0.4420(7) 0.3730(7) 0.8498(4)
C31 C 0.4047(7) 0.4042(8) 0.8035(4)
H14 H 0.3700 0.3815 0.7815
C32 C 0.4200(7) 0.4684(7) 0.7910(4)
C33 C 0.4682(7) 0.5017(7) 0.8252(4)
H15 H 0.4779 0.5459 0.8179
C34 C 0.5045(6) 0.4713(6) 0.8716(4)
H16 H 0.5375 0.4956 0.8947
C35 C 0.3025(6) 0.5067(6) 1.0697(4)
H17 H 0.3366 0.4768 1.0869
H18 H 0.2820 0.5166 1.0911
H19 H 0.3166 0.5492 1.0610
C36 C 0.1097(7) 0.4270(7) 0.9276(5)
H20 H 0.1029 0.4458 0.8954
H21 H 0.0826 0.4489 0.9399
H22 H 0.1022 0.3779 0.9247
C37 C 0.4107(7) 0.2449(7) 1.0145(5)
H23 H 0.4375 0.2759 1.0076
H24 H 0.4208 0.1978 1.0103
H25 H 0.4151 0.2516 1.0484
C38 C 0.1899(9) 0.2117(10) 0.8972(7)
H26 H 0.1925 0.1620 0.8985
H27 H 0.1778 0.2269 0.8633
H28 H 0.1604 0.2268 0.9094
C39 C 0.3742(6) 0.5275(6) 0.8954(3)
H29 H 0.3700 0.5663 0.9143
H30 H 0.3785 0.5441 0.8660
H31 H 0.4096 0.5012 0.9156
C40 C 0.1713(7) 0.4187(8) 0.7990(5)
H32 H 0.1698 0.3693 0.7944
H33 H 0.1641 0.4412 0.7678
H34 H 0.1406 0.4326 0.8102
C41 C 0.7045(7) 0.1446(6) 0.9018(4)
C42 C 0.6586(8) 0.0866(7) 0.8769(5)
H35 H 0.6275 0.1035 0.8462
H36 H 0.6404 0.0720 0.8990
H37 H 0.6791 0.0481 0.8698
C43 C 0.7317(8) 0.1705(8) 0.8673(5)
H38 H 0.7643 0.1404 0.8691
H39 H 0.7472 0.2166 0.8769
H40 H 0.7010 0.1712 0.8336
C44 C 0.7566(7) 0.1142(8) 0.9478(5)
H41 H 0.7742 0.0756 0.9378
H42 H 0.7410 0.0989 0.9715
H43 H 0.7871 0.1491 0.9630
C45 C 0.6795(8) 0.0891(7) 1.1251(5)
H44 H 0.7123 0.1069 1.1178
H45 H 0.6519 0.0635 1.0967
H46 H 0.6957 0.0590 1.1537
C46 C 0.6876(7) 0.1868(7) 1.1839(4)
H47 H 0.7055 0.1537 1.2104
H48 H 0.6645 0.2200 1.1934
H49 H 0.7191 0.2104 1.1779
C47 C 0.5908(7) 0.1175(7) 1.1442(4)
H50 H 0.5690 0.0864 1.1171
H51 H 0.5641 0.1539 1.1452
H52 H 0.6056 0.0924 1.1753
C48 C 0.3080(13) 0.0992(13) 0.8441(9)
H53 H 0.3392 0.0840 0.8753
H54 H 0.2879 0.0595 0.8244
H55 H 0.2788 0.1269 0.8505
C49 C 0.3818(18) 0.079(2) 0.8048(17)
H56 H 0.4108 0.0612 0.8361
H57 H 0.4030 0.0999 0.7867
H58 H 0.3567 0.0418 0.7853
C50 C 0.2988(14) 0.1595(14) 0.7651(8)
H59 H 0.3230 0.1839 0.7511
H60 H 0.2659 0.1887 0.7639
H61 H 0.2827 0.1181 0.7461
C51 C 0.3831(7) 0.4984(8) 0.7402(5)
C52 C 0.3234(7) 0.4621(9) 0.7136(5)
H62 H 0.3021 0.4602 0.7351
H63 H 0.3305 0.4158 0.7052
H64 H 0.2993 0.4870 0.6836
C53 C 0.4215(9) 0.5062(14) 0.7126(7)
H65 H 0.4581 0.5306 0.7330
H66 H 0.3998 0.5320 0.6824
H67 H 0.4319 0.4612 0.7043
C54 C 0.3641(10) 0.5724(9) 0.7518(7)
H68 H 0.3390 0.5675 0.7700
H69 H 0.3417 0.5963 0.7209
H70 H 0.4000 0.5984 0.7715
N3 N 0.4671(6) 0.3944(5) 0.9718(3)
N4 N 0.4063(5) 0.5594(5) 1.0195(3)
N5 N 0.4196(6) 0.3803(5) 1.0930(4)
N6 N 0.2737(5) 0.4392(5) 0.9919(3)
N7 N 0.2212(6) 0.4168(5) 0.9549(4)
N8 N 0.3225(6) 0.3215(5) 0.9669(4)
N9 N 0.2633(6) 0.3111(5) 0.9348(4)
N10 N 0.3095(5) 0.4461(5) 0.9130(3)
N11 N 0.2524(5) 0.4177(5) 0.8855(3)
N12 N 0.5995(5) 0.3009(5) 0.9379(3)
N13 N 0.4918(5) 0.4075(5) 0.8826(3)
Co1D Co 0.46493(9) 0.64119(8) 1.04803(5)
Fe1D Fe 0.65067(9) 0.58212(8) 1.01652(5)
B1D B 0.7781(9) 0.6270(8) 1.0887(5)
H1D H 0.8191 0.6415 1.1117
C1D C 0.5769(8) 0.5977(5) 1.0229(4)
C2D C 0.6198(6) 0.4926(7) 0.9959(4)
C3D C 0.6082(7) 0.6070(6) 0.9482(5)
C4D C 0.7388(7) 0.5269(6) 0.9749(4)
C5D C 0.8033(10) 0.5252(6) 0.9930(4)
H2D H 0.8254 0.5038 0.9772
C6D C 0.8280(7) 0.5602(6) 1.0379(5)
C7D C 0.6518(8) 0.7409(7) 1.0197(5)
C8D C 0.6979(8) 0.7936(8) 1.0425(6)
H3D H 0.6941 0.8416 1.0390
C9D C 0.7467(8) 0.7569(9) 1.0695(6)
C10D C 0.6780(6) 0.5151(6) 1.1191(4)
C11D C 0.7253(6) 0.5174(6) 1.1664(4)
H4D H 0.7276 0.4938 1.1949
C12D C 0.7673(6) 0.5610(6) 1.1627(4)
C13D C 0.3906(7) 0.6951(6) 1.1035(4)
H5D H 0.4075 0.6579 1.1251
C14D C 0.3574(6) 0.7421(6) 1.1161(4)
H6D H 0.3525 0.7372 1.1459
C15D C 0.3303(6) 0.7983(5) 1.0842(4)
C16D C 0.3408(5) 0.8022(5) 1.0411(4)
H7D H 0.3243 0.8388 1.0188
C17D C 0.3750(6) 0.7529(5) 1.0310(3)
N1D N 0.4249(5) 0.7012(5) 0.9842(3)
C18D C 0.3886(5) 0.7530(5) 0.9857(3)
C19D C 0.3649(6) 0.8024(6) 0.9487(4)
H8D H 0.3402 0.8377 0.9516
C20D C 0.3785(7) 0.7987(6) 0.9067(4)
C21D C 0.3544(7) 0.8506(6) 0.8637(4)
C22D C 0.4136(6) 0.7436(5) 0.9041(4)
H9D H 0.4224 0.7378 0.8762
C23D C 0.4356(6) 0.6969(6) 0.9433(4)
H10D H 0.4594 0.6603 0.9409
N2D N 0.5281(5) 0.7174(5) 1.0896(3)
C24D C 0.5674(7) 0.6959(7) 1.1351(4)
C25D C 0.6148(8) 0.7367(8) 1.1653(5)
H11D H 0.6438 0.7195 1.1953
C26D C 0.6186(10) 0.8050(9) 1.1502(5)
C27D C 0.6640(10) 0.8585(10) 1.1839(7)
C28D C 0.5785(8) 0.8282(8) 1.1039(5)
H12D H 0.5813 0.8725 1.0923
C29D C 0.5340(7) 0.7818(6) 1.0757(4)
H13D H 0.5059 0.7967 1.0445
C30D C 0.5580(7) 0.6270(7) 1.1502(4)
C31D C 0.5953(7) 0.5958(8) 1.1965(4)
H14D H 0.6300 0.6185 1.2185
C32D C 0.5800(7) 0.5316(7) 1.2090(4)
C33D C 0.5318(7) 0.4983(7) 1.1748(4)
H15D H 0.5221 0.4541 1.1821
C34D C 0.4955(6) 0.5287(6) 1.1284(4)
H16D H 0.4625 0.5044 1.1053
C35D C 0.6975(6) 0.4933(6) 0.9303(4)
H17D H 0.6634 0.5232 0.9131
H18D H 0.7180 0.4834 0.9089
H19D H 0.6834 0.4508 0.9390
C36D C 0.8903(7) 0.5730(7) 1.0724(5)
H20D H 0.8971 0.5542 1.1046
H21D H 0.9174 0.5511 1.0601
H22D H 0.8978 0.6221 1.0753
C37D C 0.5893(7) 0.7551(7) 0.9855(5)
H23D H 0.5625 0.7241 0.9924
H24D H 0.5792 0.8022 0.9897
H25D H 0.5849 0.7484 0.9516
C38D C 0.8101(9) 0.7883(10) 1.1028(7)
H26D H 0.8075 0.8380 1.1015
H27D H 0.8222 0.7731 1.1367
H28D H 0.8396 0.7732 1.0906
C39D C 0.6258(6) 0.4725(6) 1.1046(3)
H29D H 0.6300 0.4337 1.0857
H30D H 0.6215 0.4559 1.1340
H31D H 0.5904 0.4988 1.0844
C40D C 0.8287(7) 0.5813(8) 1.2010(5)
H32D H 0.8302 0.6307 1.2056
H33D H 0.8359 0.5588 1.2322
H34D H 0.8594 0.5674 1.1898
C41D C 0.2955(7) 0.8554(6) 1.0982(4)
C42D C 0.3414(8) 0.9134(7) 1.1231(5)
H35D H 0.3725 0.8965 1.1538
H36D H 0.3596 0.9280 1.1010
H37D H 0.3209 0.9519 1.1302
C43D C 0.2683(8) 0.8295(8) 1.1327(5)
H38D H 0.2357 0.8596 1.1309
H39D H 0.2528 0.7834 1.1231
H40D H 0.2990 0.8288 1.1664
C44D C 0.2434(7) 0.8858(8) 1.0522(5)
H41D H 0.2258 0.9244 1.0622
H42D H 0.2590 0.9011 1.0285
H43D H 0.2129 0.8509 1.0370
C45D C 0.3205(8) 0.9109(7) 0.8749(5)
H44D H 0.2877 0.8931 0.8822
H45D H 0.3481 0.9365 0.9033
H46D H 0.3043 0.9410 0.8463
C46D C 0.3124(7) 0.8132(7) 0.8161(4)
H47D H 0.2945 0.8463 0.7896
H48D H 0.3355 0.7800 0.8066
H49D H 0.2809 0.7896 0.8221
C47D C 0.4092(7) 0.8825(7) 0.8558(4)
H50D H 0.4310 0.9136 0.8829
H51D H 0.4359 0.8461 0.8548
H52D H 0.3944 0.9076 0.8247
C48D C 0.6920(13) 0.9008(13) 1.1559(9)
H53D H 0.6608 0.9160 1.1247
H54D H 0.7121 0.9405 1.1756
H55D H 0.7212 0.8731 1.1495
C49D C 0.6182(18) 0.921(2) 1.1952(17)
H56D H 0.5892 0.9388 1.1639
H57D H 0.5970 0.9001 1.2133
H58D H 0.6433 0.9582 1.2147
C50D C 0.7012(14) 0.8405(14) 1.2349(8)
H59D H 0.6770 0.8161 1.2489
H60D H 0.7341 0.8113 1.2361
H61D H 0.7173 0.8819 1.2539
C51D C 0.6169(7) 0.5016(8) 1.2598(5)
C52D C 0.6766(7) 0.5379(9) 1.2864(5)
H62D H 0.6979 0.5398 1.2649
H63D H 0.6695 0.5842 1.2948
H64D H 0.7007 0.5130 1.3164
C53D C 0.5785(9) 0.4938(14) 1.2874(7)
H65D H 0.5419 0.4694 1.2670
H66D H 0.6002 0.4680 1.3176
H67D H 0.5681 0.5388 1.2957
C54D C 0.6359(10) 0.4276(9) 1.2482(7)
H68D H 0.6610 0.4325 1.2300
H69D H 0.6583 0.4037 1.2791
H70D H 0.6000 0.4016 1.2285
N3D N 0.5329(6) 0.6056(5) 1.0282(3)
N4D N 0.5937(5) 0.4406(5) 0.9805(3)
N5D N 0.5804(6) 0.6197(5) 0.9070(4)
N6D N 0.7263(5) 0.5608(5) 1.0081(3)
N7D N 0.7788(6) 0.5832(5) 1.0451(4)
N8D N 0.6775(6) 0.6785(5) 1.0331(4)
N9D N 0.7367(6) 0.6889(5) 1.0652(4)
N10D N 0.6905(5) 0.5539(5) 1.0870(3)
N11D N 0.7476(5) 0.5823(5) 1.1145(3)
N12D N 0.4005(5) 0.6991(5) 1.0621(3)
N13D N 0.5082(5) 0.5925(5) 1.1174(3)
P1 P 0.5000 0.2639(4) 0.7500
F1 F 0.4852(9) 0.3333(10) 0.7147(7)
F2 F 0.4273(6) 0.2631(8) 0.7377(5)
F3 F 0.4861(16) 0.1969(14) 0.7110(11)
F1A F 0.5148(9) 0.3333(10) 0.7853(7)
F2A F 0.5727(6) 0.2631(8) 0.7623(5)
F3A F 0.5139(16) 0.1969(14) 0.7890(11)
C55 C 0.4867(12) 0.2586(17) 0.1831(12)
H71 H 0.4876 0.2166 0.1658
H72 H 0.4452 0.2721 0.1744
H73 H 0.5067 0.2511 0.2186
O1 O 0.5173(5) 0.3123(6) 0.1691(3)
H74 H 0.4946 0.3460 0.1588
C56? C 0.346(3) 0.130(3) 0.7681(16)
H75? H 0.3803 0.0989 0.7753
H76? H 0.3545 0.1731 0.7562
H77? H 0.3105 0.1091 0.7429
C57? C 0.282(2) 0.186(2) 0.808(2)
H78? H 0.2876 0.2315 0.7972
H79? H 0.2773 0.1905 0.8394
H80? H 0.2458 0.1655 0.7836
C58? C 0.330(3) 0.0687(16) 0.8325(19)
H81? H 0.3633 0.0410 0.8329
H82? H 0.2922 0.0489 0.8096
H83? H 0.3306 0.0700 0.8655
C59? C 0.3148(11) 0.500(3) 0.7210(18)
H84? H 0.3010 0.4606 0.7332
H85? H 0.2973 0.4996 0.6850
H86? H 0.3026 0.5419 0.7324
C60? C 0.3949(19) 0.4441(16) 0.7037(12)
H87? H 0.4380 0.4381 0.7140
H88? H 0.3771 0.4613 0.6700
H89? H 0.3768 0.4002 0.7053
C61? C 0.4079(18) 0.5593(15) 0.7231(15)
H90? H 0.4515 0.5563 0.7367
H91? H 0.3962 0.6013 0.7344
H92? H 0.3920 0.5594 0.6872
F4? F 0.485(2) -0.032(2) 0.0459(13)
F5? F 0.5090(11) 0.3027(13) 0.7990(6)
F6? F 0.4555(16) 0.1991(14) 0.7233(13)
F7? F 0.5068(15) 0.2359(17) 0.6993(8)
P2? P 0.5000 0.0000 0.0000
F8? F 0.4805(4) 0.0756(4) 0.0065(3)
F9? F 0.5219(7) -0.0084(5) 0.0581(3)
F10? F 0.5635(6) 0.0325(6) 0.0067(5)
F11? F 0.576(4) 0.011(4) 0.042(3)
F12? F 0.430(3) 0.019(3) -0.0311(18)
loop_
_geom_bond_atom_site_label_1
_geom_bond_atom_site_label_2
_geom_bond_site_symmetry_1
_geom_bond_site_symmetry_2
Co1 N1 1_555 1_555
Fe1 C1 1_555 1_555
B1 H1 1_555 1_555
C1 N3 1_555 1_555
C2 Fe1 1_555 1_555
C3 Fe1 1_555 1_555
C4 C5 1_555 1_555
C5 H2 1_555 1_555
C6 C5 1_555 1_555
C7 C8 1_555 1_555
C8 H3 1_555 1_555
C9 C8 1_555 1_555
C10 C11 1_555 1_555
C11 H4 1_555 1_555
C12 C11 1_555 1_555
C13 H5 1_555 1_555
C14 C13 1_555 1_555
H6 C14 1_555 1_555
C15 C14 1_555 1_555
C16 C15 1_555 1_555
H7 C16 1_555 1_555
C17 C16 1_555 1_555
N1 C18 1_555 1_555
C18 C17 1_555 1_555
C19 C18 1_555 1_555
H8 C19 1_555 1_555
C20 C19 1_555 1_555
C21 C20 1_555 1_555
C22 C20 1_555 1_555
H9 C22 1_555 1_555
C23 N1 1_555 1_555
H10 C23 1_555 1_555
N2 Co1 1_555 1_555
C24 N2 1_555 1_555
C25 C24 1_555 1_555
H11 C25 1_555 1_555
C26 C25 1_555 1_555
C27 C26 1_555 1_555
C28 C26 1_555 1_555
H12 C28 1_555 1_555
C29 N2 1_555 1_555
H13 C29 1_555 1_555
C30 C24 1_555 1_555
C31 C30 1_555 1_555
H14 C31 1_555 1_555
C32 C31 1_555 1_555
C33 C32 1_555 1_555
H15 C33 1_555 1_555
C34 C33 1_555 1_555
H16 C34 1_555 1_555
C35 C4 1_555 1_555
H17 C35 1_555 1_555
H18 C35 1_555 1_555
H19 C35 1_555 1_555
C36 C6 1_555 1_555
H20 C36 1_555 1_555
H21 C36 1_555 1_555
H22 C36 1_555 1_555
C37 C7 1_555 1_555
H23 C37 1_555 1_555
H24 C37 1_555 1_555
H25 C37 1_555 1_555
C38 C9 1_555 1_555
H26 C38 1_555 1_555
H27 C38 1_555 1_555
H28 C38 1_555 1_555
C39 C10 1_555 1_555
H29 C39 1_555 1_555
H30 C39 1_555 1_555
H31 C39 1_555 1_555
C40 C12 1_555 1_555
H32 C40 1_555 1_555
H33 C40 1_555 1_555
H34 C40 1_555 1_555
C41 C15 1_555 1_555
C42 C41 1_555 1_555
H35 C42 1_555 1_555
H36 C42 1_555 1_555
H37 C42 1_555 1_555
C43 C41 1_555 1_555
H38 C43 1_555 1_555
H39 C43 1_555 1_555
H40 C43 1_555 1_555
C44 C41 1_555 1_555
H41 C44 1_555 1_555
H42 C44 1_555 1_555
H43 C44 1_555 1_555
C45 C21 1_555 1_555
H44 C45 1_555 1_555
H45 C45 1_555 1_555
H46 C45 1_555 1_555
C46 C21 1_555 1_555
H47 C46 1_555 1_555
H48 C46 1_555 1_555
H49 C46 1_555 1_555
C47 C21 1_555 1_555
H50 C47 1_555 1_555
H51 C47 1_555 1_555
H52 C47 1_555 1_555
C48 C27 1_555 1_555
H53 C48 1_555 1_555
H54 C48 1_555 1_555
H55 C48 1_555 1_555
C49 C27 1_555 1_555
H56 C49 1_555 1_555
H57 C49 1_555 1_555
H58 C49 1_555 1_555
C50 C27 1_555 1_555
H59 C50 1_555 1_555
H60 C50 1_555 1_555
H61 C50 1_555 1_555
C51 C32 1_555 1_555
C52 C51 1_555 1_555
H62 C52 1_555 1_555
H63 C52 1_555 1_555
H64 C52 1_555 1_555
C53 C51 1_555 1_555
H65 C53 1_555 1_555
H66 C53 1_555 1_555
H67 C53 1_555 1_555
C54 C51 1_555 1_555
H68 C54 1_555 1_555
H69 C54 1_555 1_555
H70 C54 1_555 1_555
N3 Co1 1_555 1_555
N4 C2 1_555 1_555
N5 C3 1_555 1_555
N6 Fe1 1_555 1_555
N7 B1 1_555 1_555
N8 Fe1 1_555 1_555
N9 B1 1_555 1_555
N10 Fe1 1_555 1_555
N11 B1 1_555 1_555
N12 Co1 1_555 1_555
N13 Co1 1_555 1_555
P1 F1 1_555 1_555
F2 P1 1_555 1_555
F3 P1 1_555 1_555
C55 H71 1_555 1_555
H72 C55 1_555 1_555
H73 C55 1_555 1_555
O1 C55 1_555 1_555
H74 O1 1_555 1_555
Co1D N4 1_555 1_555
Fe1D C1D 1_555 1_555
B1D H1D 1_555 1_555
C1D N3D 1_555 1_555
C2D Fe1D 1_555 1_555
C3D Fe1D 1_555 1_555
C4D C5D 1_555 1_555
C5D H2D 1_555 1_555
C6D C5D 1_555 1_555
C7D C8D 1_555 1_555
C8D H3D 1_555 1_555
C9D C8D 1_555 1_555
C10D C11D 1_555 1_555
C11D H4D 1_555 1_555
C12D C11D 1_555 1_555
C13D H5D 1_555 1_555
C14D C13D 1_555 1_555
H6D C14D 1_555 1_555
C15D C14D 1_555 1_555
C16D C15D 1_555 1_555
H7D C16D 1_555 1_555
C17D C16D 1_555 1_555
N1D Co1D 1_555 1_555
C18D C17D 1_555 1_555
C19D C18D 1_555 1_555
H8D C19D 1_555 1_555
C20D C19D 1_555 1_555
C21D C20D 1_555 1_555
C22D C20D 1_555 1_555
H9D C22D 1_555 1_555
C23D N1D 1_555 1_555
H10D C23D 1_555 1_555
N2D Co1D 1_555 1_555
C24D N2D 1_555 1_555
C25D C24D 1_555 1_555
H11D C25D 1_555 1_555
C26D C25D 1_555 1_555
C27D C26D 1_555 1_555
C28D C26D 1_555 1_555
H12D C28D 1_555 1_555
C29D N2D 1_555 1_555
H13D C29D 1_555 1_555
C30D C24D 1_555 1_555
C31D C30D 1_555 1_555
H14D C31D 1_555 1_555
C32D C31D 1_555 1_555
C33D C32D 1_555 1_555
H15D C33D 1_555 1_555
C34D C33D 1_555 1_555
H16D C34D 1_555 1_555
C35D C4D 1_555 1_555
H17D C35D 1_555 1_555
H18D C35D 1_555 1_555
H19D C35D 1_555 1_555
C36D C6D 1_555 1_555
H20D C36D 1_555 1_555
H21D C36D 1_555 1_555
H22D C36D 1_555 1_555
C37D C7D 1_555 1_555
H23D C37D 1_555 1_555
H24D C37D 1_555 1_555
H25D C37D 1_555 1_555
C38D C9D 1_555 1_555
H26D C38D 1_555 1_555
H27D C38D 1_555 1_555
H28D C38D 1_555 1_555
C39D C10D 1_555 1_555
H29D C39D 1_555 1_555
H30D C39D 1_555 1_555
H31D C39D 1_555 1_555
C40D C12D 1_555 1_555
H32D C40D 1_555 1_555
H33D C40D 1_555 1_555
H34D C40D 1_555 1_555
C41D C15D 1_555 1_555
C42D C41D 1_555 1_555
H35D C42D 1_555 1_555
H36D C42D 1_555 1_555
H37D C42D 1_555 1_555
C43D C41D 1_555 1_555
H38D C43D 1_555 1_555
H39D C43D 1_555 1_555
H40D C43D 1_555 1_555
C44D C41D 1_555 1_555
H41D C44D 1_555 1_555
H42D C44D 1_555 1_555
H43D C44D 1_555 1_555
C45D C21D 1_555 1_555
H44D C45D 1_555 1_555
H45D C45D 1_555 1_555
H46D C45D 1_555 1_555
C46D C21D 1_555 1_555
H47D C46D 1_555 1_555
H48D C46D 1_555 1_555
H49D C46D 1_555 1_555
C47D C21D 1_555 1_555
H50D C47D 1_555 1_555
H51D C47D 1_555 1_555
H52D C47D 1_555 1_555
C48D C27D 1_555 1_555
H53D C48D 1_555 1_555
H54D C48D 1_555 1_555
H55D C48D 1_555 1_555
C49D C27D 1_555 1_555
H56D C49D 1_555 1_555
H57D C49D 1_555 1_555
H58D C49D 1_555 1_555
C50D C27D 1_555 1_555
H59D C50D 1_555 1_555
H60D C50D 1_555 1_555
H61D C50D 1_555 1_555
C51D C32D 1_555 1_555
C52D C51D 1_555 1_555
H62D C52D 1_555 1_555
H63D C52D 1_555 1_555
H64D C52D 1_555 1_555
C53D C51D 1_555 1_555
H65D C53D 1_555 1_555
H66D C53D 1_555 1_555
H67D C53D 1_555 1_555
C54D C51D 1_555 1_555
H68D C54D 1_555 1_555
H69D C54D 1_555 1_555
H70D C54D 1_555 1_555
N3D Co1D 1_555 1_555
N4D Co1 1_555 1_555
N5D C3D 1_555 1_555
N6D Fe1D 1_555 1_555
N7D B1D 1_555 1_555
N8D Fe1D 1_555 1_555
N9D B1D 1_555 1_555
N10D Fe1D 1_555 1_555
N11D B1D 1_555 1_555
N12D Co1D 1_555 1_555
N13D Co1D 1_555 1_555
F1A P1 1_555 1_555
F2A P1 1_555 1_555
F3A P1 1_555 1_555
C4 N6 1_555 1_555
C6 N7 1_555 1_555
C7 N8 1_555 1_555
C9 N9 1_555 1_555
C10 N10 1_555 1_555
C12 N11 1_555 1_555
C13 N12 1_555 1_555
C17 N12 1_555 1_555
C22 C23 1_555 1_555
C28 C29 1_555 1_555
C30 N13 1_555 1_555
C34 N13 1_555 1_555
N6 N7 1_555 1_555
N8 N9 1_555 1_555
N10 N11 1_555 1_555
C2D N4D 1_555 1_555
C4D N6D 1_555 1_555
C6D N7D 1_555 1_555
C7D N8D 1_555 1_555
C9D N9D 1_555 1_555
C10D N10D 1_555 1_555
C12D N11D 1_555 1_555
C13D N12D 1_555 1_555
C17D N12D 1_555 1_555
N1D C18D 1_555 1_555
C22D C23D 1_555 1_555
C28D C29D 1_555 1_555
C30D N13D 1_555 1_555
C34D N13D 1_555 1_555
N6D N7D 1_555 1_555
N8D N9D 1_555 1_555
N10D N11D 1_555 1_555

#END
