
#######################################################################
#
#                 Cambridge Crystallographic Data Centre
#                                CCDC 
#
#######################################################################
#
# If this CIF has been generated from an entry in the Cambridge 
# Structural Database, then it will include bibliographic, chemical, 
# crystal, experimental, refinement or atomic coordinate data resulting 
# from the CCDC's data processing and validation procedures.
#
#######################################################################

data_KAFXAS03
_chemical_formula_moiety         
'C108 H140 B2 Co2 Fe2 N26 2+,2(F6 P1 1-),2(C1 H4 O1)'
_chemical_name_systematic        
"tetrakis(\m~2~-Cyano)-dicyano-tetrakis(4,4'-di-t-butyl-2,2'-bipyridine)-bis(hydrogen tris(3,5-dimethylpyrazolyl)borate-N,N',N'')-di-cobalt-di-iron bis(hexafluorophosphate) methanol solvate"
_symmetry_cell_setting           monoclinic
_symmetry_space_group_name_H-M   'C 2/c'
_symmetry_Int_Tables_number      15
_space_group_name_Hall           '-C 2yn'
loop_
_symmetry_equiv_pos_site_id
_symmetry_equiv_pos_as_xyz
1 x,y,z
2 -x,y,1/2-z
3 1/2+x,1/2+y,z
4 1/2-x,1/2+y,1/2-z
5 -x,-y,-z
6 x,-y,1/2+z
7 1/2-x,1/2-y,-z
8 1/2+x,1/2-y,1/2+z
_cell_length_a                   49.4505(12)
_cell_length_b                   38.6559(10)
_cell_length_c                   29.9596(9)
_cell_angle_alpha                90
_cell_angle_beta                 113.8840(8)
_cell_angle_gamma                90
_cell_volume                     52365.2
_exptl_crystal_colour            red
_exptl_crystal_description       plate
_cell_formula_units_Z            16
loop_
_atom_site_label
_atom_site_type_symbol
_atom_site_fract_x
_atom_site_fract_y
_atom_site_fract_z
C1 C -0.0992(3) 0.3291(4) 0.5976(6)
C2 C -0.0814(5) 0.2974(6) 0.6165(10)
H1 H -0.0608 0.3033 0.6313
H2 H -0.0848 0.2816 0.5900
H3 H -0.0871 0.2867 0.6403
C3 C -0.1105(9) 0.3435(10) 0.6312(13)
H4 H -0.1229 0.3268 0.6373
H5 H -0.1217 0.3639 0.6172
H6 H -0.0943 0.3493 0.6613
C4 C -0.1214(4) 0.3181(6) 0.5614(7)
H7 H -0.1150 0.3053 0.5401
H8 H -0.1333 0.3373 0.5440
H9 H -0.1330 0.3033 0.5727
C5 C 0.0578(3) 0.4999(3) 0.7549(5)
C6 C 0.0670(5) 0.5386(5) 0.7463(8)
H10 H 0.0498 0.5532 0.7347
H11 H 0.0754 0.5381 0.7225
H12 H 0.0813 0.5477 0.7765
C7 C 0.0434(5) 0.5016(8) 0.7840(11)
H13 H 0.0566 0.4960 0.8168
H14 H 0.0272 0.4855 0.7730
H15 H 0.0359 0.5246 0.7832
C8 C 0.0869(3) 0.4873(4) 0.7792(5)
H16 H 0.0940 0.4924 0.8134
H17 H 0.0995 0.4983 0.7660
H18 H 0.0871 0.4627 0.7747
C9 C -0.0714(4) 0.3310(5) 0.3676(6)
C10 C -0.0793(12) 0.3431(15) 0.322(2)
H19 H -0.0941 0.3607 0.3161
H20 H -0.0871 0.3246 0.2993
H21 H -0.0623 0.3528 0.3191
C11 C -0.0511(6) 0.3111(10) 0.3596(14)
H22 H -0.0530 0.2875 0.3678
H23 H -0.0316 0.3192 0.3795
H24 H -0.0543 0.3125 0.3258
C12 C -0.0873(3) 0.3046(5) 0.3716(5)
H25 H -0.0926 0.2900 0.3434
H26 H -0.1049 0.3131 0.3739
H27 H -0.0760 0.2916 0.4004
C13 C 0.0840(4) 0.3238(5) 0.6765(8)
C14 C 0.0674(14) 0.2989(19) 0.685(3)
C15 C 0.0970(6) 0.3022(8) 0.6459(11)
H28 H 0.1122 0.2871 0.6671
H29 H 0.1053 0.3175 0.6295
H30 H 0.0816 0.2887 0.6222
C16 C 0.0952(8) 0.3278(9) 0.7288(13)
H31 H 0.0879 0.3093 0.7423
H32 H 0.0886 0.3495 0.7364
H33 H 0.1164 0.3273 0.7426
N1 N 0.11000(16) 0.4762(2) 0.5054(3)
N2 N 0.13660(19) 0.4652(2) 0.5410(3)
C17 C 0.1594(2) 0.4772(3) 0.5312(5)
C18 C 0.1477(2) 0.4935(3) 0.4883(4)
H34 H 0.1583 0.5037 0.4722
C19 C 0.1164(2) 0.4928(3) 0.4714(4)
N3 N 0.09452(16) 0.4789(2) 0.5850(3)
N4 N 0.12245(18) 0.4651(2) 0.6119(3)
C20 C 0.1319(3) 0.4754(3) 0.6592(4)
C21 C 0.1114(3) 0.4961(3) 0.6633(4)
H35 H 0.1125 0.5071 0.6916
C22 C 0.0881(2) 0.4982(3) 0.6170(4)
N5 N 0.08866(18) 0.4162(2) 0.5329(3)
N6 N 0.11765(19) 0.4105(3) 0.5622(4)
C23 C 0.1235(3) 0.3768(4) 0.5648(5)
C24 C 0.0987(3) 0.3594(3) 0.5389(5)
H36 H 0.0964 0.3356 0.5354
C25 C 0.0777(3) 0.3840(4) 0.5188(5)
N7 N 0.00586(14) 0.45285(19) 0.6158(3)
C26 C -0.00077(18) 0.4851(2) 0.6265(3)
H37 H -0.0163 0.4975 0.6035
C27 C 0.0156(2) 0.4994(3) 0.6716(4)
H38 H 0.0099 0.5208 0.6792
C28 C 0.0401(2) 0.4835(3) 0.7060(4)
C29 C 0.0462(2) 0.4507(3) 0.6925(4)
H39 H 0.0623 0.4383 0.7142
C30 C 0.0293(2) 0.4363(2) 0.6482(4)
N8 N -0.03245(18) 0.4011(2) 0.4888(3)
C31 C -0.0264(2) 0.4044(3) 0.4498(4)
H40 H -0.0133 0.4218 0.4498
C32 C -0.0385(3) 0.3831(3) 0.4085(5)
H41 H -0.0344 0.3871 0.3812
C33 C -0.0564(3) 0.3564(3) 0.4092(4)
C34 C -0.0643(2) 0.3530(3) 0.4496(4)
H42 H -0.0773 0.3358 0.4505
C35 C -0.0519(2) 0.3764(3) 0.4879(4)
N9 N -0.04424(17) 0.4021(2) 0.5650(3)
C36 C -0.0495(3) 0.4058(3) 0.6059(4)
H43 H -0.0404 0.4236 0.6276
C37 C -0.0682(2) 0.3832(3) 0.6157(4)
H44 H -0.0718 0.3860 0.6437
C38 C -0.0813(2) 0.3568(3) 0.5837(4)
C39 C -0.0763(2) 0.3537(3) 0.5425(4)
H45 H -0.0854 0.3360 0.5206
C40 C -0.0581(2) 0.3763(3) 0.5324(4)
N10 N 0.01531(16) 0.3912(2) 0.5891(3)
C41 C 0.0346(2) 0.4008(3) 0.6339(4)
C42 C 0.0574(3) 0.3808(3) 0.6625(4)
H46 H 0.0712 0.3893 0.6919
C43 C 0.0606(3) 0.3455(4) 0.6470(5)
C44 C 0.0400(3) 0.3384(3) 0.6003(5)
H47 H 0.0414 0.3172 0.5865
C45 C 0.0183(2) 0.3596(3) 0.5738(4)
H48 H 0.0047 0.3522 0.5434
N11 N 0.01730(16) 0.4479(2) 0.5309(3)
N12 N 0.0384(2) 0.4425(3) 0.4089(4)
Co1 Co -0.01393(3) 0.42882(3) 0.54990(4)
Fe1 Fe 0.07270(3) 0.46442(4) 0.51466(5)
C46 C 0.0384(2) 0.4533(2) 0.5256(3)
C47 C 0.0606(2) 0.5200(3) 0.6042(4)
H49 H 0.0478 0.5166 0.5705
H50 H 0.0661 0.5440 0.6097
H51 H 0.0505 0.5133 0.6243
C48 C 0.0523(2) 0.4496(3) 0.4477(4)
C49 C 0.05538(18) 0.5084(2) 0.4942(3)
C50 C 0.0939(2) 0.5085(3) 0.4268(4)
H52 H 0.0745 0.5037 0.4254
H53 H 0.0956 0.4989 0.3985
H54 H 0.0969 0.5331 0.4275
C51 C 0.1546(3) 0.3622(4) 0.5953(5)
H55 H 0.1677 0.3809 0.6116
H56 H 0.1619 0.3505 0.5742
H57 H 0.1535 0.3463 0.6191
C52 C 0.1909(2) 0.4680(3) 0.5636(4)
H58 H 0.1913 0.4550 0.5912
H59 H 0.2022 0.4888 0.5748
H60 H 0.1992 0.4543 0.5455
C53 C 0.1617(3) 0.4633(4) 0.6978(5)
H61 H 0.1715 0.4491 0.6826
H62 H 0.1584 0.4501 0.7223
H63 H 0.1737 0.4830 0.7126
B1 B 0.1368(3) 0.4425(4) 0.5832(5)
H64 H 0.1570 0.4358 0.6047
C54 C 0.0464(2) 0.3765(3) 0.4864(4)
H65 H 0.0345 0.3967 0.4841
H66 H 0.0394 0.3577 0.4998
H67 H 0.0450 0.3704 0.4546
N13 N -0.04178(16) 0.4670(2) 0.5221(3)
C1D C 0.0992(3) 0.6709(4) 0.4024(6)
C2D C 0.0814(5) 0.7026(6) 0.3835(10)
H1D H 0.0608 0.6967 0.3687
H2D H 0.0848 0.7184 0.4100
H3D H 0.0871 0.7133 0.3597
C3D C 0.1105(9) 0.6565(10) 0.3688(13)
H4D H 0.1229 0.6732 0.3627
H5D H 0.1217 0.6361 0.3828
H6D H 0.0943 0.6507 0.3387
C4D C 0.1214(4) 0.6819(6) 0.4386(7)
H7D H 0.1150 0.6947 0.4599
H8D H 0.1333 0.6627 0.4560
H9D H 0.1330 0.6967 0.4273
C5D C -0.0578(3) 0.5001(3) 0.2451(5)
C6D C -0.0670(5) 0.4614(5) 0.2537(8)
H10D H -0.0498 0.4468 0.2653
H11D H -0.0754 0.4619 0.2775
H12D H -0.0813 0.4523 0.2235
C7D C -0.0434(5) 0.4984(8) 0.2160(11)
H13D H -0.0566 0.5040 0.1832
H14D H -0.0272 0.5145 0.2270
H15D H -0.0359 0.4754 0.2168
C8D C -0.0869(3) 0.5127(4) 0.2208(5)
H16D H -0.0940 0.5076 0.1866
H17D H -0.0995 0.5017 0.2340
H18D H -0.0871 0.5373 0.2253
C9D C 0.0714(4) 0.6690(5) 0.6324(6)
C10D C 0.0793(12) 0.6569(15) 0.678(2)
H19D H 0.0941 0.6393 0.6839
H20D H 0.0871 0.6754 0.7007
H21D H 0.0623 0.6472 0.6809
C11D C 0.0511(6) 0.6889(10) 0.6404(14)
H22D H 0.0530 0.7125 0.6322
H23D H 0.0316 0.6808 0.6205
H24D H 0.0543 0.6875 0.6742
C12D C 0.0873(3) 0.6954(5) 0.6284(5)
H25D H 0.0926 0.7100 0.6566
H26D H 0.1049 0.6869 0.6261
H27D H 0.0760 0.7084 0.5996
C13D C -0.0840(4) 0.6762(5) 0.3235(8)
C14D C -0.0674(14) 0.7011(19) 0.315(3)
C15D C -0.0970(6) 0.6978(8) 0.3541(11)
H28D H -0.1122 0.7129 0.3329
H29D H -0.1053 0.6825 0.3705
H30D H -0.0816 0.7113 0.3778
C16D C -0.0952(8) 0.6722(9) 0.2712(13)
H31D H -0.0879 0.6907 0.2577
H32D H -0.0886 0.6505 0.2636
H33D H -0.1164 0.6727 0.2574
N1D N -0.11000(16) 0.5238(2) 0.4946(3)
N2D N -0.13660(19) 0.5348(2) 0.4590(3)
C17D C -0.1594(2) 0.5228(3) 0.4688(5)
C18D C -0.1477(2) 0.5065(3) 0.5117(4)
H34D H -0.1583 0.4963 0.5278
C19D C -0.1164(2) 0.5072(3) 0.5286(4)
N3D N -0.09452(16) 0.5211(2) 0.4150(3)
N4D N -0.12245(18) 0.5349(2) 0.3881(3)
C20D C -0.1319(3) 0.5246(3) 0.3408(4)
C21D C -0.1114(3) 0.5039(3) 0.3367(4)
H35D H -0.1125 0.4929 0.3084
C22D C -0.0881(2) 0.5018(3) 0.3830(4)
N5D N -0.08866(18) 0.5838(2) 0.4671(3)
N6D N -0.11765(19) 0.5895(3) 0.4378(4)
C23D C -0.1235(3) 0.6232(4) 0.4352(5)
C24D C -0.0987(3) 0.6406(3) 0.4611(5)
H36D H -0.0964 0.6644 0.4646
C25D C -0.0777(3) 0.6160(4) 0.4812(5)
N7D N -0.00586(14) 0.54715(19) 0.3842(3)
C26D C 0.00077(18) 0.5149(2) 0.3735(3)
H37D H 0.0163 0.5025 0.3965
C27D C -0.0156(2) 0.5006(3) 0.3284(4)
H38D H -0.0099 0.4792 0.3208
C28D C -0.0401(2) 0.5165(3) 0.2940(4)
C29D C -0.0462(2) 0.5493(3) 0.3075(4)
H39D H -0.0623 0.5617 0.2858
C30D C -0.0293(2) 0.5637(2) 0.3518(4)
N8D N 0.03245(18) 0.5989(2) 0.5112(3)
C31D C 0.0264(2) 0.5956(3) 0.5502(4)
H40D H 0.0133 0.5782 0.5502
C32D C 0.0385(3) 0.6169(3) 0.5915(5)
H41D H 0.0344 0.6129 0.6188
C33D C 0.0564(3) 0.6436(3) 0.5908(4)
C34D C 0.0643(2) 0.6470(3) 0.5504(4)
H42D H 0.0773 0.6642 0.5495
C35D C 0.0519(2) 0.6236(3) 0.5121(4)
N9D N 0.04424(17) 0.5979(2) 0.4350(3)
C36D C 0.0495(3) 0.5942(3) 0.3941(4)
H43D H 0.0404 0.5764 0.3724
C37D C 0.0682(2) 0.6168(3) 0.3843(4)
H44D H 0.0718 0.6140 0.3563
C38D C 0.0813(2) 0.6432(3) 0.4163(4)
C39D C 0.0763(2) 0.6463(3) 0.4575(4)
H45D H 0.0854 0.6640 0.4794
C40D C 0.0581(2) 0.6237(3) 0.4676(4)
N10D N -0.01531(16) 0.6088(2) 0.4109(3)
C41D C -0.0346(2) 0.5992(3) 0.3661(4)
C42D C -0.0574(3) 0.6192(3) 0.3375(4)
H46D H -0.0712 0.6107 0.3081
C43D C -0.0606(3) 0.6545(4) 0.3530(5)
C44D C -0.0400(3) 0.6616(3) 0.3997(5)
H47D H -0.0414 0.6828 0.4135
C45D C -0.0183(2) 0.6404(3) 0.4262(4)
H48D H -0.0047 0.6478 0.4566
N11D N -0.01730(16) 0.5521(2) 0.4691(3)
N12D N -0.0384(2) 0.5575(3) 0.5911(4)
Co1D Co 0.01393(3) 0.57118(3) 0.45010(4)
Fe1D Fe -0.07270(3) 0.53558(4) 0.48534(5)
C46D C -0.0384(2) 0.5467(2) 0.4744(3)
C47D C -0.0606(2) 0.4800(3) 0.3958(4)
H49D H -0.0478 0.4834 0.4295
H50D H -0.0661 0.4560 0.3903
H51D H -0.0505 0.4867 0.3757
C48D C -0.0523(2) 0.5504(3) 0.5523(4)
C49D C -0.05538(18) 0.4916(2) 0.5058(3)
C50D C -0.0939(2) 0.4915(3) 0.5732(4)
H52D H -0.0745 0.4963 0.5746
H53D H -0.0956 0.5011 0.6015
H54D H -0.0969 0.4669 0.5725
C51D C -0.1546(3) 0.6378(4) 0.4047(5)
H55D H -0.1677 0.6191 0.3884
H56D H -0.1619 0.6495 0.4258
H57D H -0.1535 0.6537 0.3809
C52D C -0.1909(2) 0.5320(3) 0.4364(4)
H58D H -0.1913 0.5450 0.4088
H59D H -0.2022 0.5112 0.4252
H60D H -0.1992 0.5457 0.4545
C53D C -0.1617(3) 0.5367(4) 0.3022(5)
H61D H -0.1715 0.5509 0.3174
H62D H -0.1584 0.5499 0.2777
H63D H -0.1737 0.5170 0.2874
B1D B -0.1368(3) 0.5575(4) 0.4168(5)
H64D H -0.1570 0.5642 0.3953
C54D C -0.0464(2) 0.6235(3) 0.5136(4)
H65D H -0.0345 0.6033 0.5159
H66D H -0.0394 0.6423 0.5002
H67D H -0.0450 0.6296 0.5454
N13D N 0.04178(16) 0.5330(2) 0.4779(3)
C55 C -0.0752(4) 0.1719(4) -0.1358(6)
C56 C -0.0891(7) 0.1509(8) -0.1820(10)
H68 H -0.1030 0.1349 -0.1787
H69 H -0.0740 0.1383 -0.1875
H70 H -0.0991 0.1660 -0.2090
C57 C -0.0956(6) 0.2013(8) -0.1275(10)
H71 H -0.0994 0.2191 -0.1516
H72 H -0.0857 0.2111 -0.0955
H73 H -0.1140 0.1913 -0.1304
C58 C -0.0490(4) 0.1902(4) -0.1417(6)
H74 H -0.0563 0.2041 -0.1707
H75 H -0.0355 0.1732 -0.1442
H76 H -0.0388 0.2047 -0.1139
C59 C -0.0990(3) 0.1745(5) 0.0985(7)
C60 C -0.0845(4) 0.2037(5) 0.1088(7)
H77 H -0.0925 0.2190 0.0813
H78 H -0.0640 0.1995 0.1163
H79 H -0.0864 0.2142 0.1365
C61 C -0.1193(4) 0.1903(6) 0.0677(7)
H80 H -0.1361 0.1752 0.0534
H81 H -0.1133 0.1984 0.0429
H82 H -0.1246 0.2096 0.0827
C62 C -0.1154(5) 0.1671(5) 0.1205(8)
H83 H -0.1077 0.1778 0.1521
H84 H -0.1159 0.1424 0.1242
H85 H -0.1351 0.1754 0.1018
C63 C 0.0573(3) 0.0037(4) 0.2562(5)
C64 C 0.0854(8) 0.0169(10) 0.2854(13)
H86 H 0.0834 0.0390 0.2984
H87 H 0.0967 0.0195 0.2660
H88 H 0.0954 0.0012 0.3118
C65 C 0.0497(8) 0.0288(11) 0.2977(13)
H89 H 0.0528 0.0153 0.3263
H90 H 0.0294 0.0364 0.2831
H91 H 0.0625 0.0485 0.3066
C66 C 0.0488(10) -0.0295(11) 0.2703(16)
H92 H 0.0661 -0.0435 0.2860
H93 H 0.0352 -0.0412 0.2418
H94 H 0.0395 -0.0256 0.2925
C67 C 0.0816(4) 0.1782(5) 0.1763(8)
C68 C 0.0813(18) 0.1950(18) 0.210(3)
H95 H 0.0623 0.1927 0.2116
H96 H 0.0964 0.1867 0.2402
C69 C 0.1118(9) 0.1555(9) 0.1919(15)
H97 H 0.1287 0.1702 0.2074
H98 H 0.1127 0.1452 0.1633
H99 H 0.1119 0.1375 0.2141
H100 H 0.1091 0.2156 0.1703
H101 H 0.0774 0.2174 0.1283
C70 C 0.0916(15) 0.2170(16) 0.174(3)
N14 N 0.1142(2) 0.0971(3) 0.0577(4)
N15 N 0.08571(19) 0.0902(2) 0.0290(4)
C71 C 0.0719(3) 0.1237(4) 0.0124(5)
C72 C 0.0938(3) 0.1467(3) 0.0354(5)
H102 H 0.0910 0.1705 0.0327
C73 C 0.1190(3) 0.1328(4) 0.0613(5)
N16 N 0.10976(18) 0.0318(3) 0.0050(3)
N17 N 0.1360(2) 0.0436(2) 0.0406(4)
C74 C 0.1594(3) 0.0328(3) 0.0311(5)
C75 C 0.1486(2) 0.0133(3) -0.0101(4)
H103 H 0.1597 0.0016 -0.0240
C76 C 0.1177(2) 0.0140(3) -0.0277(4)
N18 N 0.09364(18) 0.0285(2) 0.0830(3)
N19 N 0.1212(2) 0.0442(2) 0.1101(4)
C77 C 0.1309(3) 0.0319(4) 0.1568(5)
C78 C 0.1113(3) 0.0107(4) 0.1617(5)
H104 H 0.1126 -0.0003 0.1901
C79 C 0.0879(2) 0.0083(3) 0.1151(4)
N20 N -0.03783(19) 0.1005(2) -0.0153(3)
C80 C -0.0568(2) 0.1261(3) -0.0149(4)
C81 C -0.0687(3) 0.1500(3) -0.0527(4)
H105 H -0.0812 0.1673 -0.0504
C82 C -0.0623(3) 0.1483(3) -0.0941(5)
C83 C -0.0447(3) 0.1206(3) -0.0955(4)
H106 H -0.0413 0.1167 -0.1233
C84 C -0.0321(2) 0.0983(3) -0.0550(4)
H107 H -0.0191 0.0812 -0.0561
N21 N -0.04888(18) 0.0997(2) 0.0615(3)
C85 C -0.0619(2) 0.1265(3) 0.0304(4)
C86 C -0.0792(2) 0.1507(3) 0.0403(4)
H108 H -0.0877 0.1686 0.0183
C87 C -0.0837(2) 0.1485(3) 0.0817(4)
C88 C -0.0703(2) 0.1210(3) 0.1139(4)
H109 H -0.0729 0.1184 0.1428
C89 C -0.0534(3) 0.0981(3) 0.1014(5)
H110 H -0.0444 0.0801 0.1230
N22 N 0.00423(16) 0.0483(2) 0.1157(3)
C90 C 0.0272(2) 0.0659(3) 0.1479(4)
C91 C 0.0447(2) 0.0517(3) 0.1924(4)
H111 H 0.0607 0.0645 0.2137
C92 C 0.0395(2) 0.0186(3) 0.2070(4)
C93 C 0.0153(2) 0.0006(3) 0.1727(4)
H112 H 0.0104 -0.0212 0.1802
C94 C -0.0012(2) 0.0154(2) 0.1272(4)
H113 H -0.0164 0.0027 0.1040
N23 N 0.01243(19) 0.1096(2) 0.0885(3)
C95 C 0.0319(2) 0.1001(3) 0.1324(4)
C96 C 0.0546(3) 0.1215(4) 0.1628(5)
H114 H 0.0674 0.1137 0.1934
C97 C 0.0580(3) 0.1543(4) 0.1474(6)
C98 C 0.0368(3) 0.1648(3) 0.1003(4)
H115 H 0.0380 0.1867 0.0884
C99 C 0.0151(3) 0.1428(3) 0.0731(4)
H116 H 0.0015 0.1502 0.0428
N24 N 0.01543(17) 0.0542(2) 0.0280(3)
Co2 Co -0.01741(3) 0.07138(3) 0.04763(5)
Fe2 Fe 0.07232(3) 0.04164(4) 0.01287(6)
C100 C 0.0513(2) 0.0536(3) -0.0539(4)
C101 C 0.0371(2) 0.0499(3) 0.0222(4)
N25 N 0.0377(2) 0.0597(3) -0.0941(4)
C102 C 0.0413(3) 0.1277(3) -0.0180(5)
H117 H 0.0323 0.1054 -0.0270
H118 H 0.0392 0.1403 -0.0468
H119 H 0.0318 0.1402 -0.0006
C103 C 0.0959(3) -0.0017(3) -0.0723(4)
H120 H 0.0764 0.0031 -0.0747
H121 H 0.0990 -0.0263 -0.0713
H122 H 0.0982 0.0077 -0.1002
C104 C 0.1902(2) 0.0415(3) 0.0650(4)
H123 H 0.1899 0.0551 0.0916
H124 H 0.1996 0.0544 0.0477
H125 H 0.2011 0.0206 0.0774
C105 C 0.1501(3) 0.1461(4) 0.0892(6)
H126 H 0.1628 0.1271 0.1053
H127 H 0.1501 0.1626 0.1132
H128 H 0.1570 0.1569 0.0670
C106 C 0.0608(2) -0.0140(3) 0.1026(4)
H129 H 0.0480 -0.0111 0.0687
H130 H 0.0505 -0.0074 0.1224
H131 H 0.0666 -0.0379 0.1087
C107 C 0.1602(3) 0.0449(4) 0.1955(5)
H132 H 0.1691 0.0608 0.1809
H133 H 0.1733 0.0257 0.2089
H134 H 0.1567 0.0563 0.2211
N26 N -0.04535(17) 0.0303(2) 0.0200(3)
C108 C 0.0574(2) -0.0034(3) -0.0047(4)
B2 B 0.1345(3) 0.0679(4) 0.0808(6)
H135 H 0.1542 0.0764 0.1021
C55D C 0.0752(4) -0.1719(4) 0.1358(6)
C56D C 0.0891(7) -0.1509(8) 0.1820(10)
H68D H 0.1030 -0.1349 0.1787
H69D H 0.0740 -0.1383 0.1875
H70D H 0.0991 -0.1660 0.2090
C57D C 0.0956(6) -0.2013(8) 0.1275(10)
H71D H 0.0994 -0.2191 0.1516
H72D H 0.0857 -0.2111 0.0955
H73D H 0.1140 -0.1913 0.1304
C58D C 0.0490(4) -0.1902(4) 0.1417(6)
H74D H 0.0563 -0.2041 0.1707
H75D H 0.0355 -0.1732 0.1442
H76D H 0.0388 -0.2047 0.1139
C59D C 0.0990(3) -0.1745(5) -0.0985(7)
C60D C 0.0845(4) -0.2037(5) -0.1088(7)
H77D H 0.0925 -0.2190 -0.0813
H78D H 0.0640 -0.1995 -0.1163
H79D H 0.0864 -0.2142 -0.1365
C61D C 0.1193(4) -0.1903(6) -0.0677(7)
H80D H 0.1361 -0.1752 -0.0534
H81D H 0.1133 -0.1984 -0.0429
H82D H 0.1246 -0.2096 -0.0827
C62D C 0.1154(5) -0.1671(5) -0.1205(8)
H83D H 0.1077 -0.1778 -0.1521
H84D H 0.1159 -0.1424 -0.1242
H85D H 0.1351 -0.1754 -0.1018
C63D C -0.0573(3) -0.0037(4) -0.2562(5)
C64D C -0.0854(8) -0.0169(10) -0.2854(13)
H86D H -0.0834 -0.0390 -0.2984
H87D H -0.0967 -0.0195 -0.2660
H88D H -0.0954 -0.0012 -0.3118
C65D C -0.0497(8) -0.0288(11) -0.2977(13)
H89D H -0.0528 -0.0153 -0.3263
H90D H -0.0294 -0.0364 -0.2831
H91D H -0.0625 -0.0485 -0.3066
C66D C -0.0488(10) 0.0295(11) -0.2703(16)
H92D H -0.0661 0.0435 -0.2860
H93D H -0.0352 0.0412 -0.2418
H94D H -0.0395 0.0256 -0.2925
C67D C -0.0816(4) -0.1782(5) -0.1763(8)
C68D C -0.0813(18) -0.1950(18) -0.210(3)
H95D H -0.0623 -0.1927 -0.2116
H96D H -0.0964 -0.1867 -0.2402
C69D C -0.1118(9) -0.1555(9) -0.1919(15)
H97D H -0.1287 -0.1702 -0.2074
H98D H -0.1127 -0.1452 -0.1633
H99D H -0.1119 -0.1375 -0.2141
H100D H -0.1091 -0.2156 -0.1703
H101D H -0.0774 -0.2174 -0.1283
C70D C -0.0916(15) -0.2170(16) -0.174(3)
N14D N -0.1142(2) -0.0971(3) -0.0577(4)
N15D N -0.08571(19) -0.0902(2) -0.0290(4)
C71D C -0.0719(3) -0.1237(4) -0.0124(5)
C72D C -0.0938(3) -0.1467(3) -0.0354(5)
H102D H -0.0910 -0.1705 -0.0327
C73D C -0.1190(3) -0.1328(4) -0.0613(5)
N16D N -0.10976(18) -0.0318(3) -0.0050(3)
N17D N -0.1360(2) -0.0436(2) -0.0406(4)
C74D C -0.1594(3) -0.0328(3) -0.0311(5)
C75D C -0.1486(2) -0.0133(3) 0.0101(4)
H103D H -0.1597 -0.0016 0.0240
C76D C -0.1177(2) -0.0140(3) 0.0277(4)
N18D N -0.09364(18) -0.0285(2) -0.0830(3)
N19D N -0.1212(2) -0.0442(2) -0.1101(4)
C77D C -0.1309(3) -0.0319(4) -0.1568(5)
C78D C -0.1113(3) -0.0107(4) -0.1617(5)
H104D H -0.1126 0.0003 -0.1901
C79D C -0.0879(2) -0.0083(3) -0.1151(4)
N20D N 0.03783(19) -0.1005(2) 0.0153(3)
C80D C 0.0568(2) -0.1261(3) 0.0149(4)
C81D C 0.0687(3) -0.1500(3) 0.0527(4)
H105D H 0.0812 -0.1673 0.0504
C82D C 0.0623(3) -0.1483(3) 0.0941(5)
C83D C 0.0447(3) -0.1206(3) 0.0955(4)
H106D H 0.0413 -0.1167 0.1233
C84D C 0.0321(2) -0.0983(3) 0.0550(4)
H107D H 0.0191 -0.0812 0.0561
N21D N 0.04888(18) -0.0997(2) -0.0615(3)
C85D C 0.0619(2) -0.1265(3) -0.0304(4)
C86D C 0.0792(2) -0.1507(3) -0.0403(4)
H108D H 0.0877 -0.1686 -0.0183
C87D C 0.0837(2) -0.1485(3) -0.0817(4)
C88D C 0.0703(2) -0.1210(3) -0.1139(4)
H109D H 0.0729 -0.1184 -0.1428
C89D C 0.0534(3) -0.0981(3) -0.1014(5)
H110D H 0.0444 -0.0801 -0.1230
N22D N -0.00423(16) -0.0483(2) -0.1157(3)
C90D C -0.0272(2) -0.0659(3) -0.1479(4)
C91D C -0.0447(2) -0.0517(3) -0.1924(4)
H111D H -0.0607 -0.0645 -0.2137
C92D C -0.0395(2) -0.0186(3) -0.2070(4)
C93D C -0.0153(2) -0.0006(3) -0.1727(4)
H112D H -0.0104 0.0212 -0.1802
C94D C 0.0012(2) -0.0154(2) -0.1272(4)
H113D H 0.0164 -0.0027 -0.1040
N23D N -0.01243(19) -0.1096(2) -0.0885(3)
C95D C -0.0319(2) -0.1001(3) -0.1324(4)
C96D C -0.0546(3) -0.1215(4) -0.1628(5)
H114D H -0.0674 -0.1137 -0.1934
C97D C -0.0580(3) -0.1543(4) -0.1474(6)
C98D C -0.0368(3) -0.1648(3) -0.1003(4)
H115D H -0.0380 -0.1867 -0.0884
C99D C -0.0151(3) -0.1428(3) -0.0731(4)
H116D H -0.0015 -0.1502 -0.0428
N24D N -0.01543(17) -0.0542(2) -0.0280(3)
Co2D Co 0.01741(3) -0.07138(3) -0.04763(5)
Fe2D Fe -0.07232(3) -0.04164(4) -0.01287(6)
C100D C -0.0513(2) -0.0536(3) 0.0539(4)
C101D C -0.0371(2) -0.0499(3) -0.0222(4)
N25D N -0.0377(2) -0.0597(3) 0.0941(4)
C102D C -0.0413(3) -0.1277(3) 0.0180(5)
H117D H -0.0323 -0.1054 0.0270
H118D H -0.0392 -0.1403 0.0468
H119D H -0.0318 -0.1402 0.0006
C103D C -0.0959(3) 0.0017(3) 0.0723(4)
H120D H -0.0764 -0.0031 0.0747
H121D H -0.0990 0.0263 0.0713
H122D H -0.0982 -0.0077 0.1002
C104D C -0.1902(2) -0.0415(3) -0.0650(4)
H123D H -0.1899 -0.0551 -0.0916
H124D H -0.1996 -0.0544 -0.0477
H125D H -0.2011 -0.0206 -0.0774
C105D C -0.1501(3) -0.1461(4) -0.0892(6)
H126D H -0.1628 -0.1271 -0.1053
H127D H -0.1501 -0.1626 -0.1132
H128D H -0.1570 -0.1569 -0.0670
C106D C -0.0608(2) 0.0140(3) -0.1026(4)
H129D H -0.0480 0.0111 -0.0687
H130D H -0.0505 0.0074 -0.1224
H131D H -0.0666 0.0379 -0.1087
C107D C -0.1602(3) -0.0449(4) -0.1955(5)
H132D H -0.1691 -0.0608 -0.1809
H133D H -0.1733 -0.0257 -0.2089
H134D H -0.1567 -0.0563 -0.2211
N26D N 0.04535(17) -0.0303(2) -0.0200(3)
C108D C -0.0574(2) 0.0034(3) 0.0047(4)
B2D B -0.1345(3) -0.0679(4) -0.0808(6)
H135D H -0.1542 -0.0764 -0.1021
C109 C 0.6751(3) 0.5762(4) 0.3663(5)
C110 C 0.6571(4) 0.5957(5) 0.3205(7)
H136 H 0.6529 0.5809 0.2928
H137 H 0.6681 0.6155 0.3177
H138 H 0.6389 0.6033 0.3217
C111 C 0.6584(3) 0.5505(4) 0.3711(5)
H139 H 0.6674 0.5413 0.4035
H140 H 0.6568 0.5327 0.3479
H141 H 0.6391 0.5592 0.3652
C112 C 0.7020(4) 0.5598(4) 0.3592(6)
H142 H 0.6951 0.5426 0.3340
H143 H 0.7151 0.5493 0.3892
H144 H 0.7125 0.5776 0.3502
C113 C 0.6489(3) 0.5731(3) 0.5986(5)
C114 C 0.6263(4) 0.5593(6) 0.5612(7)
H145 H 0.6158 0.5436 0.5733
H146 H 0.6337 0.5470 0.5406
H147 H 0.6132 0.5774 0.5428
C115 C 0.6409(6) 0.5811(7) 0.6372(8)
H148 H 0.6564 0.5739 0.6674
H149 H 0.6229 0.5694 0.6327
H150 H 0.6381 0.6056 0.6380
C116 C 0.6684(7) 0.5444(10) 0.6172(13)
H151 H 0.6596 0.5278 0.6312
H152 H 0.6868 0.5523 0.6418
H153 H 0.6719 0.5337 0.5911
C117 C 0.8306(5) 0.5721(5) 0.6757(8)
C118 C 0.8632(9) 0.5947(10) 0.6895(15)
H154 H 0.8796 0.5793 0.7042
H155 H 0.8645 0.6130 0.7119
H156 H 0.8634 0.6044 0.6602
C119 C 0.8395(10) 0.5391(10) 0.6789(18)
H157 H 0.8582 0.5380 0.6763
H158 H 0.8251 0.5260 0.6529
H159 H 0.8415 0.5297 0.7098
C120 C 0.8415(14) 0.5764(15) 0.7349(19)
H160 H 0.8323 0.5588 0.7468
H161 H 0.8359 0.5988 0.7421
H162 H 0.8626 0.5739 0.7506
C121 C 0.8086(3) 0.7466(4) 0.7572(5)
C122 C 0.7986(8) 0.7255(11) 0.8010(14)
H163 H 0.8043 0.7396 0.8298
H164 H 0.8084 0.7036 0.8093
H165 H 0.7775 0.7220 0.7875
C123 C 0.8004(11) 0.7805(13) 0.7722(19)
H166 H 0.8069 0.7810 0.8070
H167 H 0.7793 0.7833 0.7571
H168 H 0.8097 0.7989 0.7621
C124 C 0.8379(3) 0.7373(4) 0.7790(6)
H169 H 0.8472 0.7492 0.8096
H170 H 0.8476 0.7434 0.7580
H171 H 0.8394 0.7128 0.7846
N27 N 0.64010(17) 0.7815(2) 0.4954(3)
N28 N 0.61402(18) 0.7934(2) 0.4600(3)
C125 C 0.5906(2) 0.7824(3) 0.4691(5)
C126 C 0.6018(2) 0.7636(3) 0.5109(4)
H172 H 0.5909 0.7523 0.5256
C127 C 0.6327(2) 0.7644(3) 0.5280(4)
N29 N 0.65627(15) 0.7778(2) 0.4169(3)
N30 N 0.62908(17) 0.7941(2) 0.3904(3)
C128 C 0.6188(2) 0.7823(3) 0.3431(4)
C129 C 0.6388(2) 0.7612(3) 0.3390(4)
H173 H 0.6374 0.7503 0.3105
C130 C 0.6625(2) 0.7581(3) 0.3849(4)
N31 N 0.66437(18) 0.8402(2) 0.4706(3)
N32 N 0.6356(2) 0.8471(3) 0.4410(4)
C131 C 0.6304(3) 0.8823(4) 0.4387(5)
C132 C 0.6554(3) 0.8968(3) 0.4639(5)
H174 H 0.6581 0.9206 0.4665
C133 C 0.6778(3) 0.8730(3) 0.4869(5)
N33 N 0.71195(18) 0.6496(2) 0.4853(3)
C134 C 0.7180(2) 0.6528(3) 0.4460(4)
H175 H 0.7305 0.6703 0.4448
C135 C 0.7053(2) 0.6295(3) 0.4053(4)
H176 H 0.7090 0.6333 0.3776
C136 C 0.6879(3) 0.6016(3) 0.4062(5)
C137 C 0.6816(2) 0.5998(3) 0.4483(4)
H177 H 0.6694 0.5823 0.4508
C138 C 0.6935(2) 0.6240(3) 0.4861(4)
N34 N 0.70078(17) 0.6501(2) 0.5624(3)
C139 C 0.6878(2) 0.6235(3) 0.5309(4)
C140 C 0.6710(2) 0.5991(3) 0.5422(4)
H178 H 0.6630 0.5809 0.5205
C141 C 0.6655(2) 0.6004(3) 0.5835(4)
C142 C 0.6789(2) 0.6279(3) 0.6145(4)
H179 H 0.6762 0.6303 0.6433
C143 C 0.6961(2) 0.6518(3) 0.6033(4)
H180 H 0.7048 0.6698 0.6251
N35 N 0.76283(18) 0.6403(2) 0.5904(3)
C144 C 0.7654(2) 0.6078(3) 0.5754(4)
H181 H 0.7515 0.6003 0.5453
C145 C 0.7869(3) 0.5861(3) 0.6020(5)
H182 H 0.7885 0.5649 0.5886
C146 C 0.8074(3) 0.5944(3) 0.6497(5)
C147 C 0.8045(3) 0.6289(4) 0.6626(5)
H183 H 0.8187 0.6378 0.6915
C148 C 0.7821(2) 0.6495(3) 0.6347(4)
N36 N 0.75480(15) 0.7023(2) 0.6174(3)
C149 C 0.7777(2) 0.6849(3) 0.6493(4)
C150 C 0.7952(2) 0.6988(3) 0.6941(4)
H184 H 0.8107 0.6857 0.7158
C151 C 0.7905(2) 0.7320(3) 0.7080(4)
C152 C 0.7664(2) 0.7495(3) 0.6742(4)
H185 H 0.7615 0.7712 0.6819
C153 C 0.74947(19) 0.7350(2) 0.6285(4)
H186 H 0.7344 0.7478 0.6055
N37 N 0.76585(16) 0.6966(2) 0.5280(3)
N38 N 0.70485(16) 0.7199(2) 0.5209(3)
Co3 Co 0.73279(3) 0.67890(3) 0.54858(5)
Fe3 Fe 0.67765(3) 0.79165(4) 0.48722(5)
C154 C 0.6544(2) 0.7484(3) 0.5734(4)
H187 H 0.6739 0.7570 0.5798
H188 H 0.6541 0.7237 0.5697
H189 H 0.6494 0.7542 0.6002
C155 C 0.5598(2) 0.7908(3) 0.4354(4)
H190 H 0.5600 0.8049 0.4092
H191 H 0.5502 0.8030 0.4528
H192 H 0.5492 0.7697 0.4224
C156 C 0.6989(2) 0.8038(3) 0.5539(4)
C157 C 0.6893(2) 0.7360(3) 0.3976(4)
H193 H 0.7019 0.7388 0.4316
H194 H 0.6999 0.7428 0.3782
H195 H 0.6835 0.7122 0.3912
C158 C 0.5897(3) 0.7948(3) 0.3043(5)
H196 H 0.5804 0.8104 0.3188
H197 H 0.5770 0.7754 0.2906
H198 H 0.5934 0.8066 0.2791
N39 N 0.7127(2) 0.8101(3) 0.5936(4)
C159 C 0.69287(19) 0.7464(2) 0.5058(3)
C160 C 0.7085(2) 0.8774(3) 0.5167(4)
H199 H 0.7177 0.8551 0.5256
H200 H 0.7107 0.8899 0.5457
H201 H 0.7176 0.8901 0.4990
B3 B 0.6149(3) 0.8167(4) 0.4185(5)
H202 H 0.5950 0.8247 0.3969
C161 C 0.5996(3) 0.8968(4) 0.4098(5)
H203 H 0.5861 0.8782 0.3949
H204 H 0.6001 0.9122 0.3850
H205 H 0.5931 0.9093 0.4314
C162 C 0.7874(2) 0.7003(3) 0.5227(4)
C109F C 0.8249(3) 0.9238(4) 0.6337(5)
C110F C 0.8429(4) 0.9043(5) 0.6795(7)
H136F H 0.8471 0.9191 0.7072
H137F H 0.8319 0.8845 0.6823
H138F H 0.8611 0.8967 0.6783
C111F C 0.8416(3) 0.9495(4) 0.6289(5)
H139F H 0.8326 0.9587 0.5965
H140F H 0.8432 0.9673 0.6521
H141F H 0.8609 0.9408 0.6348
C112F C 0.7980(4) 0.9402(4) 0.6408(6)
H142F H 0.8049 0.9574 0.6660
H143F H 0.7849 0.9507 0.6108
H144F H 0.7875 0.9224 0.6498
C113F C 0.8511(3) 0.9269(3) 0.4014(5)
C114F C 0.8737(4) 0.9407(6) 0.4388(7)
H145F H 0.8842 0.9564 0.4267
H146F H 0.8663 0.9530 0.4594
H147F H 0.8868 0.9226 0.4572
C115F C 0.8591(6) 0.9189(7) 0.3628(8)
H148F H 0.8436 0.9261 0.3326
H149F H 0.8771 0.9306 0.3673
H150F H 0.8619 0.8944 0.3620
C116F C 0.8316(7) 0.9556(10) 0.3828(13)
H151F H 0.8404 0.9722 0.3688
H152F H 0.8132 0.9477 0.3582
H153F H 0.8281 0.9663 0.4089
C117F C 0.6694(5) 0.9279(5) 0.3243(8)
C118F C 0.6368(9) 0.9053(10) 0.3105(15)
H154F H 0.6204 0.9207 0.2958
H155F H 0.6355 0.8870 0.2881
H156F H 0.6366 0.8956 0.3398
C119F C 0.6605(10) 0.9609(10) 0.3211(18)
H157F H 0.6418 0.9620 0.3237
H158F H 0.6749 0.9740 0.3471
H159F H 0.6585 0.9703 0.2902
C120F C 0.6585(14) 0.9236(15) 0.2651(19)
H160F H 0.6677 0.9412 0.2532
H161F H 0.6641 0.9012 0.2579
H162F H 0.6374 0.9261 0.2494
C121F C 0.6914(3) 0.7534(4) 0.2428(5)
C122F C 0.7014(8) 0.7745(11) 0.1990(14)
H163F H 0.6957 0.7604 0.1702
H164F H 0.6916 0.7964 0.1907
H165F H 0.7225 0.7780 0.2125
C123F C 0.6996(11) 0.7195(13) 0.2278(19)
H166F H 0.6931 0.7190 0.1930
H167F H 0.7207 0.7167 0.2429
H168F H 0.6903 0.7011 0.2379
C124F C 0.6621(3) 0.7627(4) 0.2210(6)
H169F H 0.6528 0.7508 0.1904
H170F H 0.6524 0.7566 0.2420
H171F H 0.6606 0.7872 0.2154
N27F N 0.85990(17) 0.7185(2) 0.5046(3)
N28F N 0.88598(18) 0.7066(2) 0.5400(3)
C125F C 0.9094(2) 0.7176(3) 0.5309(5)
C126F C 0.8982(2) 0.7364(3) 0.4891(4)
H172F H 0.9091 0.7477 0.4744
C127F C 0.8673(2) 0.7356(3) 0.4720(4)
N29F N 0.84373(15) 0.7222(2) 0.5831(3)
N30F N 0.87092(17) 0.7059(2) 0.6096(3)
C128F C 0.8812(2) 0.7177(3) 0.6569(4)
C129F C 0.8612(2) 0.7388(3) 0.6610(4)
H173F H 0.8626 0.7497 0.6895
C130F C 0.8375(2) 0.7419(3) 0.6151(4)
N31F N 0.83563(18) 0.6598(2) 0.5294(3)
N32F N 0.8644(2) 0.6529(3) 0.5590(4)
C131F C 0.8696(3) 0.6177(4) 0.5613(5)
C132F C 0.8446(3) 0.6032(3) 0.5361(5)
H174F H 0.8419 0.5794 0.5335
C133F C 0.8222(3) 0.6270(3) 0.5131(5)
N33F N 0.78805(18) 0.8504(2) 0.5147(3)
C134F C 0.7820(2) 0.8472(3) 0.5540(4)
H175F H 0.7695 0.8297 0.5552
C135F C 0.7947(2) 0.8705(3) 0.5947(4)
H176F H 0.7910 0.8667 0.6224
C136F C 0.8121(3) 0.8984(3) 0.5938(5)
C137F C 0.8184(2) 0.9002(3) 0.5517(4)
H177F H 0.8306 0.9177 0.5492
C138F C 0.8065(2) 0.8760(3) 0.5139(4)
N34F N 0.79922(17) 0.8499(2) 0.4376(3)
C139F C 0.8122(2) 0.8765(3) 0.4691(4)
C140F C 0.8290(2) 0.9009(3) 0.4578(4)
H178F H 0.8370 0.9191 0.4795
C141F C 0.8345(2) 0.8996(3) 0.4165(4)
C142F C 0.8211(2) 0.8721(3) 0.3855(4)
H179F H 0.8238 0.8697 0.3567
C143F C 0.8039(2) 0.8482(3) 0.3967(4)
H180F H 0.7952 0.8302 0.3749
N35F N 0.73717(18) 0.8597(2) 0.4096(3)
C144F C 0.7346(2) 0.8922(3) 0.4246(4)
H181F H 0.7485 0.8997 0.4547
C145F C 0.7131(3) 0.9139(3) 0.3980(5)
H182F H 0.7115 0.9351 0.4114
C146F C 0.6926(3) 0.9056(3) 0.3503(5)
C147F C 0.6955(3) 0.8711(4) 0.3374(5)
H183F H 0.6813 0.8622 0.3085
C148F C 0.7179(2) 0.8505(3) 0.3653(4)
N36F N 0.74520(15) 0.7977(2) 0.3826(3)
C149F C 0.7223(2) 0.8151(3) 0.3507(4)
C150F C 0.7048(2) 0.8012(3) 0.3059(4)
H184F H 0.6893 0.8143 0.2842
C151F C 0.7095(2) 0.7680(3) 0.2920(4)
C152F C 0.7336(2) 0.7505(3) 0.3258(4)
H185F H 0.7385 0.7288 0.3181
C153F C 0.75053(19) 0.7650(2) 0.3715(4)
H186F H 0.7656 0.7522 0.3945
N37F N 0.73415(16) 0.8034(2) 0.4720(3)
N38F N 0.79515(16) 0.7801(2) 0.4791(3)
Co3F Co 0.76721(3) 0.82110(3) 0.45142(5)
Fe3F Fe 0.82235(3) 0.70835(4) 0.51278(5)
C154F C 0.8456(2) 0.7516(3) 0.4266(4)
H187F H 0.8261 0.7430 0.4202
H188F H 0.8459 0.7763 0.4303
H189F H 0.8506 0.7458 0.3998
C155F C 0.9402(2) 0.7092(3) 0.5646(4)
H190F H 0.9400 0.6951 0.5908
H191F H 0.9498 0.6970 0.5472
H192F H 0.9508 0.7303 0.5776
C156F C 0.8011(2) 0.6962(3) 0.4461(4)
C157F C 0.8107(2) 0.7640(3) 0.6024(4)
H193F H 0.7981 0.7612 0.5684
H194F H 0.8001 0.7572 0.6218
H195F H 0.8165 0.7878 0.6088
C158F C 0.9103(3) 0.7052(3) 0.6957(5)
H196F H 0.9196 0.6896 0.6812
H197F H 0.9230 0.7246 0.7094
H198F H 0.9066 0.6934 0.7209
N39F N 0.7873(2) 0.6899(3) 0.4064(4)
C159F C 0.80713(19) 0.7536(2) 0.4942(3)
C160F C 0.7915(2) 0.6226(3) 0.4833(4)
H199F H 0.7823 0.6449 0.4744
H200F H 0.7893 0.6101 0.4543
H201F H 0.7824 0.6099 0.5010
B3F B 0.8851(3) 0.6833(4) 0.5815(5)
H202F H 0.9050 0.6753 0.6031
C161F C 0.9004(3) 0.6032(4) 0.5902(5)
H203F H 0.9139 0.6218 0.6051
H204F H 0.8999 0.5878 0.6150
H205F H 0.9069 0.5907 0.5686
C162F C 0.7126(2) 0.7997(3) 0.4773(4)
P1 P 0.25100(8) 0.49759(13) 0.99959(13)
F1 F 0.2530(4) 0.4585(4) 0.9880(6)
F2 F 0.2528(3) 0.5077(4) 0.9505(6)
F3 F 0.2188(4) 0.4975(5) 0.9766(6)
F4 F 0.2481(4) 0.5340(4) 1.0123(6)
F5 F 0.2498(3) 0.4882(4) 1.0504(6)
F6 F 0.2831(3) 0.4958(4) 1.0230(6)
P2 P 1.0000 0.8761(3) 0.7500
F7 F 1.0060(4) 0.9053(4) 0.7903(6)
F8 F 0.9667(3) 0.8763(4) 0.7401(5)
F9 F 0.9920(5) 0.8468(6) 0.7077(8)
F7A F 0.9940(4) 0.9053(4) 0.7097(6)
F8A F 1.0333(3) 0.8763(4) 0.7599(5)
F9A F 1.0080(5) 0.8468(6) 0.7923(8)
P3 P 0.0000 0.3825(3) 0.7500
F10 F 0.0333(3) 0.3792(4) 0.7622(5)
F11 F -0.0060(3) 0.4093(4) 0.7084(5)
F12 F -0.0071(5) 0.3536(6) 0.7127(8)
F10A F -0.0333(3) 0.3792(4) 0.7378(5)
F11A F 0.0060(3) 0.4093(4) 0.7916(5)
F12A F 0.0071(5) 0.3536(6) 0.7873(8)
P4 P 0.49891(8) 0.75249(13) -0.00079(13)
F13 F 0.4970(3) 0.7426(4) 0.0488(5)
F14 F 0.5307(4) 0.7515(5) 0.0223(6)
F15 F 0.5015(3) 0.7159(4) -0.0133(6)
F16 F 0.5002(3) 0.7620(4) -0.0509(6)
F17 F 0.4661(3) 0.7534(4) -0.0242(6)
F18 F 0.4967(4) 0.7907(4) 0.0114(6)
P5 P 0.25158(12) 0.6294(2) 0.74853(14)
F19 F 0.2598(5) 0.6002(6) 0.7864(8)
F20 F 0.2447(5) 0.6011(6) 0.7062(8)
F21 F 0.2184(3) 0.6266(4) 0.7366(5)
F22 F 0.2450(3) 0.6587(4) 0.7098(6)
F23 F 0.2568(3) 0.6555(4) 0.7913(6)
F24 F 0.2851(3) 0.6289(4) 0.7594(5)
O1 O -0.0025(4) 0.4040(5) 0.3334(7)
H206 H -0.0048 0.4198 0.3141
C163 C 0.0130(8) 0.3796(10) 0.3254(13)
H207 H 0.0000 0.3634 0.3023
H208 H 0.0243 0.3678 0.3554
H209 H 0.0261 0.3894 0.3124
O2 O 0.2479(4) 0.6551(5) 0.3331(7)
H210 H 0.2416 0.6489 0.3533
C164 C 0.2636(8) 0.6283(10) 0.3244(12)
H211 H 0.2787 0.6375 0.3155
H212 H 0.2504 0.6142 0.2982
H213 H 0.2725 0.6145 0.3533
O3 O 0.2549(5) 0.6530(6) 0.1702(9)
H214 H 0.2630 0.6487 0.1517
C165 C 0.2410(10) 0.6234(11) 0.1770(15)
H215 H 0.2268 0.6154 0.1461
H216 H 0.2312 0.6287 0.1980
H217 H 0.2555 0.6057 0.1917
O4 O -0.0052(6) 0.0972(6) 0.8311(9)
H218 H -0.0115 0.1013 0.8521
C166 C 0.0094(9) 0.1283(11) 0.8228(14)
H219 H 0.0283 0.1312 0.8495
H220 H -0.0026 0.1482 0.8207
H221 H 0.0120 0.1257 0.7929
C167? C -0.0943(10) 0.3013(14) 0.6069(19)
H222? H -0.0860 0.2913 0.5860
H223? H -0.1123 0.2895 0.6025
H224? H -0.0805 0.2992 0.6403
C168? C -0.1201(12) 0.3478(14) 0.6129(18)
H225? H -0.1342 0.3318 0.6157
H226? H -0.1304 0.3651 0.5890
H227? H -0.1095 0.3588 0.6439
C169? C -0.1044(8) 0.1592(12) -0.1806(15)
H228? H -0.1047 0.1686 -0.2104
H229? H -0.1215 0.1670 -0.1760
H230? H -0.1045 0.1344 -0.1822
C170? C -0.0849(9) 0.1935(12) -0.1335(16)
H231? H -0.0761 0.2020 -0.1006
H232? H -0.1056 0.1893 -0.1424
H233? H -0.0826 0.2104 -0.1552
C171? C 0.0874(6) 0.0046(9) 0.2696(12)
H234? H 0.0918 -0.0030 0.2427
H235? H 0.0969 -0.0105 0.2970
H236? H 0.0945 0.0277 0.2785
C172? C 0.0416(7) -0.0021(10) 0.2843(12)
H237? H 0.0208 -0.0018 0.2639
H238? H 0.0461 0.0156 0.3086
H239? H 0.0469 -0.0242 0.2999
C173? C 0.0677(10) -0.0370(11) 0.2471(16)
H240? H 0.0853 -0.0435 0.2747
H241? H 0.0716 -0.0371 0.2182
H242? H 0.0522 -0.0530 0.2433
H243? H 0.0849 0.2189 0.2058
C174? C 0.0930(6) 0.2022(8) 0.1480(11)
H244? H 0.0997 0.1889 0.1273
C175? C 0.0946(7) 0.1717(8) 0.2275(11)
H245? H 0.1096 0.1887 0.2434
H246? H 0.1034 0.1491 0.2335
H247? H 0.0797 0.1729 0.2402
C176? C 0.0593(12) 0.2027(15) 0.1821(19)
H248? H 0.0584 0.1987 0.2131
H249? H 0.0402 0.1986 0.1564
H250? H 0.0652 0.2261 0.1804
H251? H 0.1118 0.2173 0.1779
H252? H 0.0897 0.2300 0.2001
H253? H 0.0792 0.2270 0.1433
C177? C 0.6268(8) 0.5866(11) 0.6105(14)
H254? H 0.6319 0.5832 0.6447
H255? H 0.6085 0.5750 0.5919
H256? H 0.6247 0.6109 0.6032
C178? C 0.6598(11) 0.5440(17) 0.603(2)
H257? H 0.6789 0.5440 0.6301
H258? H 0.6620 0.5378 0.5738
H259? H 0.6471 0.5276 0.6093
C179? C 0.8442(11) 0.5717(14) 0.719(2)
H260? H 0.8647 0.5674 0.7270
H261? H 0.8365 0.5538 0.7330
H262? H 0.8421 0.5936 0.7326
C180? C 0.8131(11) 0.5440(13) 0.6891(19)
H263? H 0.8225 0.5394 0.7235
H264? H 0.8126 0.5232 0.6713
H265? H 0.7932 0.5519 0.6809
C181? C 0.8426(6) 0.5474(8) 0.6470(11)
H266? H 0.8581 0.5587 0.6409
H267? H 0.8268 0.5413 0.6164
H268? H 0.8503 0.5268 0.6658
C182? C 0.7922(6) 0.7526(8) 0.7874(10)
H269? H 0.7831 0.7750 0.7804
H270? H 0.8054 0.7513 0.8213
H271? H 0.7771 0.7352 0.7805
C183? C 0.8193(7) 0.7852(8) 0.7462(11)
H272? H 0.8319 0.7958 0.7765
H273? H 0.8023 0.7995 0.7299
H274? H 0.8301 0.7826 0.7259
C184? C 0.0423(8) 0.4791(10) 0.7968(14)
H275? H 0.0497 0.4911 0.8276
H276? H 0.0483 0.4553 0.8020
H277? H 0.0211 0.4805 0.7822
C185? C 0.0460(13) 0.5323(16) 0.779(2)
H278? H 0.0247 0.5325 0.7648
H279? H 0.0531 0.5538 0.7716
H280? H 0.0532 0.5293 0.8134
C186? C -0.0876(5) 0.3543(6) 0.3193(8)
H281? H -0.0732 0.3682 0.3138
H282? H -0.1019 0.3690 0.3237
H283? H -0.0973 0.3395 0.2917
C187? C -0.0378(5) 0.3162(7) 0.3583(9)
H284? H -0.0212 0.3302 0.3778
H285? H -0.0414 0.3185 0.3245
H286? H -0.0338 0.2924 0.3680
C188? C 0.1155(8) 0.3457(10) 0.6949(14)
H287? H 0.1302 0.3343 0.7226
H288? H 0.1125 0.3687 0.7039
H289? H 0.1221 0.3467 0.6689
H290? H 0.0778 0.2898 0.7175
H291? H 0.0638 0.2806 0.6618
H292? H 0.0489 0.3086 0.6823
C189? C 0.0877(11) 0.2920(12) 0.6759(18)
H293? H 0.0718 0.2803 0.6801
H294? H 0.1062 0.2858 0.7019
H295? H 0.0881 0.2855 0.6452
C190? C 0.083(3) 0.304(3) 0.731(3)
H296? H 0.0856 0.2797 0.7300
H297? H 0.0637 0.3087 0.7312
H298? H 0.0979 0.3140 0.7592
loop_
_geom_bond_atom_site_label_1
_geom_bond_atom_site_label_2
_geom_bond_site_symmetry_1
_geom_bond_site_symmetry_2
C1 C2 1_555 1_555
C2 H1 1_555 1_555
H2 C2 1_555 1_555
H3 C2 1_555 1_555
C3 C1 1_555 1_555
H4 C3 1_555 1_555
H5 C3 1_555 1_555
H6 C3 1_555 1_555
C4 C1 1_555 1_555
H7 C4 1_555 1_555
H8 C4 1_555 1_555
H9 C4 1_555 1_555
C5 C6 1_555 1_555
C6 H10 1_555 1_555
H11 C6 1_555 1_555
H12 C6 1_555 1_555
C7 C5 1_555 1_555
H13 C7 1_555 1_555
H14 C7 1_555 1_555
H15 C7 1_555 1_555
C8 C5 1_555 1_555
H16 C8 1_555 1_555
H17 C8 1_555 1_555
H18 C8 1_555 1_555
C9 C10 1_555 1_555
C10 H19 1_555 1_555
H20 C10 1_555 1_555
H21 C10 1_555 1_555
C11 C9 1_555 1_555
H22 C11 1_555 1_555
H23 C11 1_555 1_555
H24 C11 1_555 1_555
C12 C9 1_555 1_555
H25 C12 1_555 1_555
H26 C12 1_555 1_555
H27 C12 1_555 1_555
C13 C14 1_555 1_555
C15 C13 1_555 1_555
H28 C15 1_555 1_555
H29 C15 1_555 1_555
H30 C15 1_555 1_555
C16 C13 1_555 1_555
H31 C16 1_555 1_555
H32 C16 1_555 1_555
H33 C16 1_555 1_555
N1 N2 1_555 1_555
N2 C17 1_555 1_555
C17 C18 1_555 1_555
C18 H34 1_555 1_555
C19 N1 1_555 1_555
N3 N4 1_555 1_555
N4 C20 1_555 1_555
C20 C21 1_555 1_555
C21 H35 1_555 1_555
C22 N3 1_555 1_555
N5 N6 1_555 1_555
N6 C23 1_555 1_555
C23 C24 1_555 1_555
C24 H36 1_555 1_555
C25 N5 1_555 1_555
N7 C26 1_555 1_555
C26 H37 1_555 1_555
C27 C26 1_555 1_555
H38 C27 1_555 1_555
C28 C5 1_555 1_555
C29 C28 1_555 1_555
H39 C29 1_555 1_555
C30 N7 1_555 1_555
N8 C31 1_555 1_555
C31 H40 1_555 1_555
C32 C31 1_555 1_555
H41 C32 1_555 1_555
C33 C9 1_555 1_555
C34 C33 1_555 1_555
H42 C34 1_555 1_555
C35 N8 1_555 1_555
N9 C36 1_555 1_555
C36 H43 1_555 1_555
C37 C36 1_555 1_555
H44 C37 1_555 1_555
C38 C1 1_555 1_555
C39 C38 1_555 1_555
H45 C39 1_555 1_555
C40 C35 1_555 1_555
N10 C41 1_555 1_555
C41 C30 1_555 1_555
C42 C41 1_555 1_555
H46 C42 1_555 1_555
C43 C13 1_555 1_555
C44 C43 1_555 1_555
H47 C44 1_555 1_555
C45 N10 1_555 1_555
H48 C45 1_555 1_555
N11 Co1 1_555 1_555
N12 C48 1_555 1_555
Co1 N7 1_555 1_555
Fe1 N1 1_555 1_555
C46 N11 1_555 1_555
C47 C22 1_555 1_555
H49 C47 1_555 1_555
H50 C47 1_555 1_555
H51 C47 1_555 1_555
C48 Fe1 1_555 1_555
C49 Fe1 1_555 1_555
C50 C19 1_555 1_555
H52 C50 1_555 1_555
H53 C50 1_555 1_555
H54 C50 1_555 1_555
C51 C23 1_555 1_555
H55 C51 1_555 1_555
H56 C51 1_555 1_555
H57 C51 1_555 1_555
C52 C17 1_555 1_555
H58 C52 1_555 1_555
H59 C52 1_555 1_555
H60 C52 1_555 1_555
C53 C20 1_555 1_555
H61 C53 1_555 1_555
H62 C53 1_555 1_555
H63 C53 1_555 1_555
B1 N2 1_555 1_555
H64 B1 1_555 1_555
C54 C25 1_555 1_555
H65 C54 1_555 1_555
H66 C54 1_555 1_555
H67 C54 1_555 1_555
N13 Co1 1_555 1_555
C55 C56 1_555 1_555
C56 H68 1_555 1_555
H69 C56 1_555 1_555
H70 C56 1_555 1_555
C57 C55 1_555 1_555
H71 C57 1_555 1_555
H72 C57 1_555 1_555
H73 C57 1_555 1_555
C58 C55 1_555 1_555
H74 C58 1_555 1_555
H75 C58 1_555 1_555
H76 C58 1_555 1_555
C59 C60 1_555 1_555
C60 H77 1_555 1_555
H78 C60 1_555 1_555
H79 C60 1_555 1_555
C61 C59 1_555 1_555
H80 C61 1_555 1_555
H81 C61 1_555 1_555
H82 C61 1_555 1_555
C62 C59 1_555 1_555
H83 C62 1_555 1_555
H84 C62 1_555 1_555
H85 C62 1_555 1_555
C63 C64 1_555 1_555
C64 H86 1_555 1_555
H87 C64 1_555 1_555
H88 C64 1_555 1_555
C65 C63 1_555 1_555
H89 C65 1_555 1_555
H90 C65 1_555 1_555
H91 C65 1_555 1_555
C66 C63 1_555 1_555
H92 C66 1_555 1_555
H93 C66 1_555 1_555
H94 C66 1_555 1_555
C67 C68 1_555 1_555
C68 H95 1_555 1_555
H96 C68 1_555 1_555
C69 C67 1_555 1_555
H97 C69 1_555 1_555
H98 C69 1_555 1_555
H99 C69 1_555 1_555
H100 C70 1_555 1_555
H101 C70 1_555 1_555
C70 C67 1_555 1_555
N14 N15 1_555 1_555
N15 C71 1_555 1_555
C71 C72 1_555 1_555
C72 H102 1_555 1_555
C73 N14 1_555 1_555
N16 N17 1_555 1_555
N17 C74 1_555 1_555
C74 C75 1_555 1_555
C75 H103 1_555 1_555
C76 N16 1_555 1_555
N18 N19 1_555 1_555
N19 C77 1_555 1_555
C77 C78 1_555 1_555
C78 H104 1_555 1_555
C79 N18 1_555 1_555
N20 C80 1_555 1_555
C80 C81 1_555 1_555
C81 H105 1_555 1_555
C82 C55 1_555 1_555
C83 C82 1_555 1_555
H106 C83 1_555 1_555
C84 N20 1_555 1_555
H107 C84 1_555 1_555
N21 C85 1_555 1_555
C85 C80 1_555 1_555
C86 C85 1_555 1_555
H108 C86 1_555 1_555
C87 C59 1_555 1_555
C88 C87 1_555 1_555
H109 C88 1_555 1_555
C89 N21 1_555 1_555
H110 C89 1_555 1_555
N22 C90 1_555 1_555
C90 C91 1_555 1_555
C91 H111 1_555 1_555
C92 C63 1_555 1_555
C93 C92 1_555 1_555
H112 C93 1_555 1_555
C94 N22 1_555 1_555
H113 C94 1_555 1_555
N23 C95 1_555 1_555
C95 C90 1_555 1_555
C96 C95 1_555 1_555
H114 C96 1_555 1_555
C97 C67 1_555 1_555
C98 C97 1_555 1_555
H115 C98 1_555 1_555
C99 N23 1_555 1_555
H116 C99 1_555 1_555
N24 Co2 1_555 1_555
Co2 N20 1_555 1_555
Fe2 N15 1_555 1_555
C100 Fe2 1_555 1_555
C101 N24 1_555 1_555
N25 C100 1_555 1_555
C102 C71 1_555 1_555
H117 C102 1_555 1_555
H118 C102 1_555 1_555
H119 C102 1_555 1_555
C103 C76 1_555 1_555
H120 C103 1_555 1_555
H121 C103 1_555 1_555
H122 C103 1_555 1_555
C104 C74 1_555 1_555
H123 C104 1_555 1_555
H124 C104 1_555 1_555
H125 C104 1_555 1_555
C105 C73 1_555 1_555
H126 C105 1_555 1_555
H127 C105 1_555 1_555
H128 C105 1_555 1_555
C106 C79 1_555 1_555
H129 C106 1_555 1_555
H130 C106 1_555 1_555
H131 C106 1_555 1_555
C107 C77 1_555 1_555
H132 C107 1_555 1_555
H133 C107 1_555 1_555
H134 C107 1_555 1_555
N26 Co2 1_555 1_555
C108 Fe2 1_555 1_555
B2 N14 1_555 1_555
H135 B2 1_555 1_555
C109 C110 1_555 1_555
C110 H136 1_555 1_555
H137 C110 1_555 1_555
H138 C110 1_555 1_555
C111 C109 1_555 1_555
H139 C111 1_555 1_555
H140 C111 1_555 1_555
H141 C111 1_555 1_555
C112 C109 1_555 1_555
H142 C112 1_555 1_555
H143 C112 1_555 1_555
H144 C112 1_555 1_555
C113 C114 1_555 1_555
C114 H145 1_555 1_555
H146 C114 1_555 1_555
H147 C114 1_555 1_555
C115 C113 1_555 1_555
H148 C115 1_555 1_555
H149 C115 1_555 1_555
H150 C115 1_555 1_555
C116 C113 1_555 1_555
H151 C116 1_555 1_555
H152 C116 1_555 1_555
H153 C116 1_555 1_555
C117 C118 1_555 1_555
C118 H154 1_555 1_555
H155 C118 1_555 1_555
H156 C118 1_555 1_555
C119 C117 1_555 1_555
H157 C119 1_555 1_555
H158 C119 1_555 1_555
H159 C119 1_555 1_555
C120 C117 1_555 1_555
H160 C120 1_555 1_555
H161 C120 1_555 1_555
H162 C120 1_555 1_555
C121 C122 1_555 1_555
C122 H163 1_555 1_555
H164 C122 1_555 1_555
H165 C122 1_555 1_555
C123 C121 1_555 1_555
H166 C123 1_555 1_555
H167 C123 1_555 1_555
H168 C123 1_555 1_555
C124 C121 1_555 1_555
H169 C124 1_555 1_555
H170 C124 1_555 1_555
H171 C124 1_555 1_555
N27 N28 1_555 1_555
N28 C125 1_555 1_555
C125 C126 1_555 1_555
C126 H172 1_555 1_555
C127 N27 1_555 1_555
N29 N30 1_555 1_555
N30 C128 1_555 1_555
C128 C129 1_555 1_555
C129 H173 1_555 1_555
C130 N29 1_555 1_555
N31 N32 1_555 1_555
N32 C131 1_555 1_555
C131 C132 1_555 1_555
C132 H174 1_555 1_555
C133 N31 1_555 1_555
N33 C134 1_555 1_555
C134 H175 1_555 1_555
C135 C134 1_555 1_555
H176 C135 1_555 1_555
C136 C109 1_555 1_555
C137 C136 1_555 1_555
H177 C137 1_555 1_555
C138 N33 1_555 1_555
N34 C139 1_555 1_555
C139 C138 1_555 1_555
C140 C139 1_555 1_555
H178 C140 1_555 1_555
C141 C113 1_555 1_555
C142 C141 1_555 1_555
H179 C142 1_555 1_555
C143 N34 1_555 1_555
H180 C143 1_555 1_555
N35 C144 1_555 1_555
C144 H181 1_555 1_555
C145 C144 1_555 1_555
H182 C145 1_555 1_555
C146 C117 1_555 1_555
C147 C146 1_555 1_555
H183 C147 1_555 1_555
C148 N35 1_555 1_555
N36 C149 1_555 1_555
C149 C148 1_555 1_555
C150 C149 1_555 1_555
H184 C150 1_555 1_555
C151 C121 1_555 1_555
C152 C151 1_555 1_555
H185 C152 1_555 1_555
C153 N36 1_555 1_555
H186 C153 1_555 1_555
N37 Co3 1_555 1_555
N38 Co3 1_555 1_555
Co3 N33 1_555 1_555
Fe3 N27 1_555 1_555
C154 C127 1_555 1_555
H187 C154 1_555 1_555
H188 C154 1_555 1_555
H189 C154 1_555 1_555
C155 C125 1_555 1_555
H190 C155 1_555 1_555
H191 C155 1_555 1_555
H192 C155 1_555 1_555
C156 Fe3 1_555 1_555
C157 C130 1_555 1_555
H193 C157 1_555 1_555
H194 C157 1_555 1_555
H195 C157 1_555 1_555
C158 C128 1_555 1_555
H196 C158 1_555 1_555
H197 C158 1_555 1_555
H198 C158 1_555 1_555
N39 C156 1_555 1_555
C159 N38 1_555 1_555
C160 C133 1_555 1_555
H199 C160 1_555 1_555
H200 C160 1_555 1_555
H201 C160 1_555 1_555
B3 N28 1_555 1_555
H202 B3 1_555 1_555
C161 C131 1_555 1_555
H203 C161 1_555 1_555
H204 C161 1_555 1_555
H205 C161 1_555 1_555
C162 N37 1_555 1_555
P1 F1 1_555 1_555
F2 P1 1_555 1_555
F3 P1 1_555 1_555
F4 P1 1_555 1_555
F5 P1 1_555 1_555
F6 P1 1_555 1_555
P2 F7 1_555 1_555
F8 P2 1_555 1_555
F9 P2 1_555 1_555
P3 F10 1_555 1_555
F11 P3 1_555 1_555
F12 P3 1_555 1_555
P4 F13 1_555 1_555
F14 P4 1_555 1_555
F15 P4 1_555 1_555
F16 P4 1_555 1_555
F17 P4 1_555 1_555
F18 P4 1_555 1_555
P5 F19 1_555 1_555
F20 P5 1_555 1_555
F21 P5 1_555 1_555
F22 P5 1_555 1_555
F23 P5 1_555 1_555
F24 P5 1_555 1_555
O1 H206 1_555 1_555
C163 O1 1_555 1_555
H207 C163 1_555 1_555
H208 C163 1_555 1_555
H209 C163 1_555 1_555
O2 H210 1_555 1_555
C164 O2 1_555 1_555
H211 C164 1_555 1_555
H212 C164 1_555 1_555
H213 C164 1_555 1_555
O3 H214 1_555 1_555
C165 O3 1_555 1_555
H215 C165 1_555 1_555
H216 C165 1_555 1_555
H217 C165 1_555 1_555
O4 H218 1_555 1_555
C166 O4 1_555 1_555
H219 C166 1_555 1_555
H220 C166 1_555 1_555
H221 C166 1_555 1_555
C1D C2D 1_555 1_555
C2D H1D 1_555 1_555
H2D C2D 1_555 1_555
H3D C2D 1_555 1_555
C3D C1D 1_555 1_555
H4D C3D 1_555 1_555
H5D C3D 1_555 1_555
H6D C3D 1_555 1_555
C4D C1D 1_555 1_555
H7D C4D 1_555 1_555
H8D C4D 1_555 1_555
H9D C4D 1_555 1_555
C5D C6D 1_555 1_555
C6D H10D 1_555 1_555
H11D C6D 1_555 1_555
H12D C6D 1_555 1_555
C7D C5D 1_555 1_555
H13D C7D 1_555 1_555
H14D C7D 1_555 1_555
H15D C7D 1_555 1_555
C8D C5D 1_555 1_555
H16D C8D 1_555 1_555
H17D C8D 1_555 1_555
H18D C8D 1_555 1_555
C9D C10D 1_555 1_555
C10D H19D 1_555 1_555
H20D C10D 1_555 1_555
H21D C10D 1_555 1_555
C11D C9D 1_555 1_555
H22D C11D 1_555 1_555
H23D C11D 1_555 1_555
H24D C11D 1_555 1_555
C12D C9D 1_555 1_555
H25D C12D 1_555 1_555
H26D C12D 1_555 1_555
H27D C12D 1_555 1_555
C13D C14D 1_555 1_555
C15D C13D 1_555 1_555
H28D C15D 1_555 1_555
H29D C15D 1_555 1_555
H30D C15D 1_555 1_555
C16D C13D 1_555 1_555
H31D C16D 1_555 1_555
H32D C16D 1_555 1_555
H33D C16D 1_555 1_555
N1D N2D 1_555 1_555
N2D C17D 1_555 1_555
C17D C18D 1_555 1_555
C18D H34D 1_555 1_555
C19D N1D 1_555 1_555
N3D N4D 1_555 1_555
N4D C20D 1_555 1_555
C20D C21D 1_555 1_555
C21D H35D 1_555 1_555
C22D N3D 1_555 1_555
N5D N6D 1_555 1_555
N6D C23D 1_555 1_555
C23D C24D 1_555 1_555
C24D H36D 1_555 1_555
C25D N5D 1_555 1_555
N7D C26D 1_555 1_555
C26D H37D 1_555 1_555
C27D C26D 1_555 1_555
H38D C27D 1_555 1_555
C28D C5D 1_555 1_555
C29D C28D 1_555 1_555
H39D C29D 1_555 1_555
C30D N7D 1_555 1_555
N8D C31D 1_555 1_555
C31D H40D 1_555 1_555
C32D C31D 1_555 1_555
H41D C32D 1_555 1_555
C33D C9D 1_555 1_555
C34D C33D 1_555 1_555
H42D C34D 1_555 1_555
C35D N8D 1_555 1_555
N9D C36D 1_555 1_555
C36D H43D 1_555 1_555
C37D C36D 1_555 1_555
H44D C37D 1_555 1_555
C38D C1D 1_555 1_555
C39D C38D 1_555 1_555
H45D C39D 1_555 1_555
C40D C35D 1_555 1_555
N10D C41D 1_555 1_555
C41D C30D 1_555 1_555
C42D C41D 1_555 1_555
H46D C42D 1_555 1_555
C43D C13D 1_555 1_555
C44D C43D 1_555 1_555
H47D C44D 1_555 1_555
C45D N10D 1_555 1_555
H48D C45D 1_555 1_555
N11D Co1D 1_555 1_555
N12D C48D 1_555 1_555
Co1D N7D 1_555 1_555
Fe1D N1D 1_555 1_555
C46D N11D 1_555 1_555
C47D C22D 1_555 1_555
H49D C47D 1_555 1_555
H50D C47D 1_555 1_555
H51D C47D 1_555 1_555
C48D Fe1D 1_555 1_555
C49D N13 1_555 1_555
C50D C19D 1_555 1_555
H52D C50D 1_555 1_555
H53D C50D 1_555 1_555
H54D C50D 1_555 1_555
C51D C23D 1_555 1_555
H55D C51D 1_555 1_555
H56D C51D 1_555 1_555
H57D C51D 1_555 1_555
C52D C17D 1_555 1_555
H58D C52D 1_555 1_555
H59D C52D 1_555 1_555
H60D C52D 1_555 1_555
C53D C20D 1_555 1_555
H61D C53D 1_555 1_555
H62D C53D 1_555 1_555
H63D C53D 1_555 1_555
B1D N2D 1_555 1_555
H64D B1D 1_555 1_555
C54D C25D 1_555 1_555
H65D C54D 1_555 1_555
H66D C54D 1_555 1_555
H67D C54D 1_555 1_555
N13D C49 1_555 1_555
C55D C56D 1_555 1_555
C56D H68D 1_555 1_555
H69D C56D 1_555 1_555
H70D C56D 1_555 1_555
C57D C55D 1_555 1_555
H71D C57D 1_555 1_555
H72D C57D 1_555 1_555
H73D C57D 1_555 1_555
C58D C55D 1_555 1_555
H74D C58D 1_555 1_555
H75D C58D 1_555 1_555
H76D C58D 1_555 1_555
C59D C60D 1_555 1_555
C60D H77D 1_555 1_555
H78D C60D 1_555 1_555
H79D C60D 1_555 1_555
C61D C59D 1_555 1_555
H80D C61D 1_555 1_555
H81D C61D 1_555 1_555
H82D C61D 1_555 1_555
C62D C59D 1_555 1_555
H83D C62D 1_555 1_555
H84D C62D 1_555 1_555
H85D C62D 1_555 1_555
C63D C64D 1_555 1_555
C64D H86D 1_555 1_555
H87D C64D 1_555 1_555
H88D C64D 1_555 1_555
C65D C63D 1_555 1_555
H89D C65D 1_555 1_555
H90D C65D 1_555 1_555
H91D C65D 1_555 1_555
C66D C63D 1_555 1_555
H92D C66D 1_555 1_555
H93D C66D 1_555 1_555
H94D C66D 1_555 1_555
C67D C68D 1_555 1_555
C68D H95D 1_555 1_555
H96D C68D 1_555 1_555
C69D C67D 1_555 1_555
H97D C69D 1_555 1_555
H98D C69D 1_555 1_555
H99D C69D 1_555 1_555
H100D C70D 1_555 1_555
H101D C70D 1_555 1_555
C70D C67D 1_555 1_555
N14D N15D 1_555 1_555
N15D C71D 1_555 1_555
C71D C72D 1_555 1_555
C72D H102D 1_555 1_555
C73D N14D 1_555 1_555
N16D N17D 1_555 1_555
N17D C74D 1_555 1_555
C74D C75D 1_555 1_555
C75D H103D 1_555 1_555
C76D N16D 1_555 1_555
N18D N19D 1_555 1_555
N19D C77D 1_555 1_555
C77D C78D 1_555 1_555
C78D H104D 1_555 1_555
C79D N18D 1_555 1_555
N20D C80D 1_555 1_555
C80D C81D 1_555 1_555
C81D H105D 1_555 1_555
C82D C55D 1_555 1_555
C83D C82D 1_555 1_555
H106D C83D 1_555 1_555
C84D N20D 1_555 1_555
H107D C84D 1_555 1_555
N21D C85D 1_555 1_555
C85D C80D 1_555 1_555
C86D C85D 1_555 1_555
H108D C86D 1_555 1_555
C87D C59D 1_555 1_555
C88D C87D 1_555 1_555
H109D C88D 1_555 1_555
C89D N21D 1_555 1_555
H110D C89D 1_555 1_555
N22D C90D 1_555 1_555
C90D C91D 1_555 1_555
C91D H111D 1_555 1_555
C92D C63D 1_555 1_555
C93D C92D 1_555 1_555
H112D C93D 1_555 1_555
C94D N22D 1_555 1_555
H113D C94D 1_555 1_555
N23D C95D 1_555 1_555
C95D C90D 1_555 1_555
C96D C95D 1_555 1_555
H114D C96D 1_555 1_555
C97D C67D 1_555 1_555
C98D C97D 1_555 1_555
H115D C98D 1_555 1_555
C99D N23D 1_555 1_555
H116D C99D 1_555 1_555
N24D Co2D 1_555 1_555
Co2D N20D 1_555 1_555
Fe2D N15D 1_555 1_555
C100D Fe2D 1_555 1_555
C101D N24D 1_555 1_555
N25D C100D 1_555 1_555
C102D C71D 1_555 1_555
H117D C102D 1_555 1_555
H118D C102D 1_555 1_555
H119D C102D 1_555 1_555
C103D C76D 1_555 1_555
H120D C103D 1_555 1_555
H121D C103D 1_555 1_555
H122D C103D 1_555 1_555
C104D C74D 1_555 1_555
H123D C104D 1_555 1_555
H124D C104D 1_555 1_555
H125D C104D 1_555 1_555
C105D C73D 1_555 1_555
H126D C105D 1_555 1_555
H127D C105D 1_555 1_555
H128D C105D 1_555 1_555
C106D C79D 1_555 1_555
H129D C106D 1_555 1_555
H130D C106D 1_555 1_555
H131D C106D 1_555 1_555
C107D C77D 1_555 1_555
H132D C107D 1_555 1_555
H133D C107D 1_555 1_555
H134D C107D 1_555 1_555
N26D C108 1_555 1_555
C108D N26 1_555 1_555
B2D N14D 1_555 1_555
H135D B2D 1_555 1_555
C109F C110F 1_555 1_555
C110F H136F 1_555 1_555
H137F C110F 1_555 1_555
H138F C110F 1_555 1_555
C111F C109F 1_555 1_555
H139F C111F 1_555 1_555
H140F C111F 1_555 1_555
H141F C111F 1_555 1_555
C112F C109F 1_555 1_555
H142F C112F 1_555 1_555
H143F C112F 1_555 1_555
H144F C112F 1_555 1_555
C113F C114F 1_555 1_555
C114F H145F 1_555 1_555
H146F C114F 1_555 1_555
H147F C114F 1_555 1_555
C115F C113F 1_555 1_555
H148F C115F 1_555 1_555
H149F C115F 1_555 1_555
H150F C115F 1_555 1_555
C116F C113F 1_555 1_555
H151F C116F 1_555 1_555
H152F C116F 1_555 1_555
H153F C116F 1_555 1_555
C117F C118F 1_555 1_555
C118F H154F 1_555 1_555
H155F C118F 1_555 1_555
H156F C118F 1_555 1_555
C119F C117F 1_555 1_555
H157F C119F 1_555 1_555
H158F C119F 1_555 1_555
H159F C119F 1_555 1_555
C120F C117F 1_555 1_555
H160F C120F 1_555 1_555
H161F C120F 1_555 1_555
H162F C120F 1_555 1_555
C121F C122F 1_555 1_555
C122F H163F 1_555 1_555
H164F C122F 1_555 1_555
H165F C122F 1_555 1_555
C123F C121F 1_555 1_555
H166F C123F 1_555 1_555
H167F C123F 1_555 1_555
H168F C123F 1_555 1_555
C124F C121F 1_555 1_555
H169F C124F 1_555 1_555
H170F C124F 1_555 1_555
H171F C124F 1_555 1_555
N27F N28F 1_555 1_555
N28F C125F 1_555 1_555
C125F C126F 1_555 1_555
C126F H172F 1_555 1_555
C127F N27F 1_555 1_555
N29F N30F 1_555 1_555
N30F C128F 1_555 1_555
C128F C129F 1_555 1_555
C129F H173F 1_555 1_555
C130F N29F 1_555 1_555
N31F N32F 1_555 1_555
N32F C131F 1_555 1_555
C131F C132F 1_555 1_555
C132F H174F 1_555 1_555
C133F N31F 1_555 1_555
N33F C134F 1_555 1_555
C134F H175F 1_555 1_555
C135F C134F 1_555 1_555
H176F C135F 1_555 1_555
C136F C109F 1_555 1_555
C137F C136F 1_555 1_555
H177F C137F 1_555 1_555
C138F N33F 1_555 1_555
N34F C139F 1_555 1_555
C139F C138F 1_555 1_555
C140F C139F 1_555 1_555
H178F C140F 1_555 1_555
C141F C113F 1_555 1_555
C142F C141F 1_555 1_555
H179F C142F 1_555 1_555
C143F N34F 1_555 1_555
H180F C143F 1_555 1_555
N35F C144F 1_555 1_555
C144F H181F 1_555 1_555
C145F C144F 1_555 1_555
H182F C145F 1_555 1_555
C146F C117F 1_555 1_555
C147F C146F 1_555 1_555
H183F C147F 1_555 1_555
C148F N35F 1_555 1_555
N36F C149F 1_555 1_555
C149F C148F 1_555 1_555
C150F C149F 1_555 1_555
H184F C150F 1_555 1_555
C151F C121F 1_555 1_555
C152F C151F 1_555 1_555
H185F C152F 1_555 1_555
C153F N36F 1_555 1_555
H186F C153F 1_555 1_555
N37F Co3F 1_555 1_555
N38F Co3F 1_555 1_555
Co3F N33F 1_555 1_555
Fe3F C162 1_555 1_555
C154F C127F 1_555 1_555
H187F C154F 1_555 1_555
H188F C154F 1_555 1_555
H189F C154F 1_555 1_555
C155F C125F 1_555 1_555
H190F C155F 1_555 1_555
H191F C155F 1_555 1_555
H192F C155F 1_555 1_555
C156F Fe3F 1_555 1_555
C157F C130F 1_555 1_555
H193F C157F 1_555 1_555
H194F C157F 1_555 1_555
H195F C157F 1_555 1_555
C158F C128F 1_555 1_555
H196F C158F 1_555 1_555
H197F C158F 1_555 1_555
H198F C158F 1_555 1_555
N39F C156F 1_555 1_555
C159F N38F 1_555 1_555
C160F C133F 1_555 1_555
H199F C160F 1_555 1_555
H200F C160F 1_555 1_555
H201F C160F 1_555 1_555
B3F N28F 1_555 1_555
H202F B3F 1_555 1_555
C161F C131F 1_555 1_555
H203F C161F 1_555 1_555
H204F C161F 1_555 1_555
H205F C161F 1_555 1_555
C162F Fe3 1_555 1_555
F7A P2 1_555 1_555
F8A P2 1_555 1_555
F9A P2 1_555 1_555
F10A P3 1_555 1_555
F11A P3 1_555 1_555
F12A P3 1_555 1_555
C18 C19 1_555 1_555
N3 Fe1 1_555 1_555
N4 B1 1_555 1_555
C21 C22 1_555 1_555
N5 Fe1 1_555 1_555
N6 B1 1_555 1_555
C24 C25 1_555 1_555
C27 C28 1_555 1_555
C29 C30 1_555 1_555
N8 Co1 1_555 1_555
C32 C33 1_555 1_555
C34 C35 1_555 1_555
N9 C40 1_555 1_555
N9 Co1 1_555 1_555
C37 C38 1_555 1_555
C39 C40 1_555 1_555
N10 Co1 1_555 1_555
C42 C43 1_555 1_555
C44 C45 1_555 1_555
Fe1 C46 1_555 1_555
C72 C73 1_555 1_555
N16 Fe2 1_555 1_555
N17 B2 1_555 1_555
C75 C76 1_555 1_555
N18 Fe2 1_555 1_555
N19 B2 1_555 1_555
C78 C79 1_555 1_555
C81 C82 1_555 1_555
C83 C84 1_555 1_555
N21 Co2 1_555 1_555
C86 C87 1_555 1_555
C88 C89 1_555 1_555
N22 Co2 1_555 1_555
C91 C92 1_555 1_555
C93 C94 1_555 1_555
N23 Co2 1_555 1_555
C96 C97 1_555 1_555
C98 C99 1_555 1_555
Fe2 C101 1_555 1_555
C126 C127 1_555 1_555
N29 Fe3 1_555 1_555
N30 B3 1_555 1_555
C129 C130 1_555 1_555
N31 Fe3 1_555 1_555
N32 B3 1_555 1_555
C132 C133 1_555 1_555
C135 C136 1_555 1_555
C137 C138 1_555 1_555
N34 Co3 1_555 1_555
C140 C141 1_555 1_555
C142 C143 1_555 1_555
N35 Co3 1_555 1_555
C145 C146 1_555 1_555
C147 C148 1_555 1_555
N36 Co3 1_555 1_555
C150 C151 1_555 1_555
C152 C153 1_555 1_555
Fe3 C159 1_555 1_555
C18D C19D 1_555 1_555
N3D Fe1D 1_555 1_555
N4D B1D 1_555 1_555
C21D C22D 1_555 1_555
N5D Fe1D 1_555 1_555
N6D B1D 1_555 1_555
C24D C25D 1_555 1_555
C27D C28D 1_555 1_555
C29D C30D 1_555 1_555
N8D Co1D 1_555 1_555
C32D C33D 1_555 1_555
C34D C35D 1_555 1_555
N9D C40D 1_555 1_555
N9D Co1D 1_555 1_555
C37D C38D 1_555 1_555
C39D C40D 1_555 1_555
N10D Co1D 1_555 1_555
C42D C43D 1_555 1_555
C44D C45D 1_555 1_555
Co1D N13D 1_555 1_555
Fe1D C46D 1_555 1_555
Fe1D C49D 1_555 1_555
C72D C73D 1_555 1_555
N16D Fe2D 1_555 1_555
N17D B2D 1_555 1_555
C75D C76D 1_555 1_555
N18D Fe2D 1_555 1_555
N19D B2D 1_555 1_555
C78D C79D 1_555 1_555
C81D C82D 1_555 1_555
C83D C84D 1_555 1_555
N21D Co2D 1_555 1_555
C86D C87D 1_555 1_555
C88D C89D 1_555 1_555
N22D Co2D 1_555 1_555
C91D C92D 1_555 1_555
C93D C94D 1_555 1_555
N23D Co2D 1_555 1_555
C96D C97D 1_555 1_555
C98D C99D 1_555 1_555
Co2D N26D 1_555 1_555
Fe2D C101D 1_555 1_555
Fe2D C108D 1_555 1_555
N27F Fe3F 1_555 1_555
C126F C127F 1_555 1_555
N29F Fe3F 1_555 1_555
N30F B3F 1_555 1_555
C129F C130F 1_555 1_555
N31F Fe3F 1_555 1_555
N32F B3F 1_555 1_555
C132F C133F 1_555 1_555
C135F C136F 1_555 1_555
C137F C138F 1_555 1_555
N34F Co3F 1_555 1_555
C140F C141F 1_555 1_555
C142F C143F 1_555 1_555
N35F Co3F 1_555 1_555
C145F C146F 1_555 1_555
C147F C148F 1_555 1_555
N36F Co3F 1_555 1_555
C150F C151F 1_555 1_555
C152F C153F 1_555 1_555
N37F C162F 1_555 1_555
Fe3F C159F 1_555 1_555

#END
