# generated using pymatgen
data_FeCoBPH92C61N13OF12
_symmetry_space_group_name_H-M   'P 1'
_cell_length_a   19.19260000
_cell_length_b   24.63900000
_cell_length_c   29.56162397
_cell_angle_alpha   113.74076935
_cell_angle_beta   90.00000000
_cell_angle_gamma   90.00000000
_symmetry_Int_Tables_number   1
_chemical_formula_structural   FeCoBPH92C61N13OF12
_chemical_formula_sum   'Fe8 Co8 B8 P8 H736 C488 N104 O8 F96'
_cell_volume   12796.31335726
_cell_formula_units_Z   8
loop_
 _symmetry_equiv_pos_site_id
 _symmetry_equiv_pos_as_xyz
  1  'x, y, z'
loop_
 _atom_site_type_symbol
 _atom_site_label
 _atom_site_symmetry_multiplicity
 _atom_site_fract_x
 _atom_site_fract_y
 _atom_site_fract_z
 _atom_site_occupancy
  Fe  Fe1  1  0.828700  0.397900  0.015710  1.0
  Fe  Fe2  1  0.828700  0.102100  0.484290  1.0
  Fe  Fe3  1  0.328700  0.897900  0.015710  1.0
  Fe  Fe4  1  0.328700  0.602100  0.484290  1.0
  Fe  Fe5  1  0.171300  0.602100  0.984290  1.0
  Fe  Fe6  1  0.171300  0.897900  0.515710  1.0
  Fe  Fe7  1  0.671300  0.102100  0.984290  1.0
  Fe  Fe8  1  0.671300  0.397900  0.515710  1.0
  Co  Co9  1  0.607230  0.281150  0.951110  1.0
  Co  Co10  1  0.607230  0.218850  0.548890  1.0
  Co  Co11  1  0.107230  0.781150  0.951110  1.0
  Co  Co12  1  0.107230  0.718850  0.548890  1.0
  Co  Co13  1  0.392770  0.718850  0.048890  1.0
  Co  Co14  1  0.392770  0.781150  0.451110  1.0
  Co  Co15  1  0.892770  0.218850  0.048890  1.0
  Co  Co16  1  0.892770  0.281150  0.451110  1.0
  B  B17  1  0.873700  0.525100  0.087100  1.0
  B  B18  1  0.873700  0.974900  0.412900  1.0
  B  B19  1  0.373700  0.025100  0.087100  1.0
  B  B20  1  0.373700  0.474900  0.412900  1.0
  B  B21  1  0.126300  0.474900  0.912900  1.0
  B  B22  1  0.126300  0.025100  0.587100  1.0
  B  B23  1  0.626300  0.974900  0.912900  1.0
  B  B24  1  0.626300  0.525100  0.587100  1.0
  P  P25  1  0.250000  0.250000  0.000000  1
  P  P26  1  0.250000  0.250000  0.500000  1
  P  P27  1  0.750000  0.750000  1.000000  1
  P  P28  1  0.750000  0.750000  0.500000  1
  P  P29  1  0.982900  0.250000  0.250000  1
  P  P30  1  0.482900  0.750000  0.250000  1
  P  P31  1  0.017100  0.750000  0.750000  1
  P  P32  1  0.517100  0.250000  0.750000  1
  H  H33  1  0.032300  0.236300  0.801200  1
  H  H34  1  0.032300  0.263700  0.698800  1
  H  H35  1  0.532300  0.736300  0.801200  1
  H  H36  1  0.532300  0.763700  0.698800  1
  H  H37  1  0.967700  0.763700  0.198800  1
  H  H38  1  0.967700  0.736300  0.301200  1
  H  H39  1  0.467700  0.263700  0.198800  1
  H  H40  1  0.467700  0.236300  0.301200  1
  H  H41  1  0.015600  0.297600  0.846800  1
  H  H42  1  0.015600  0.202400  0.653200  1
  H  H43  1  0.515600  0.797600  0.846800  1
  H  H44  1  0.515600  0.702400  0.653200  1
  H  H45  1  0.984400  0.702400  0.153200  1
  H  H46  1  0.984400  0.797600  0.346800  1
  H  H47  1  0.484400  0.202400  0.153200  1
  H  H48  1  0.484400  0.297600  0.346800  1
  H  H49  1  0.978900  0.282400  0.794500  1
  H  H50  1  0.978900  0.217600  0.705500  1
  H  H51  1  0.478900  0.782400  0.794500  1
  H  H52  1  0.478900  0.717600  0.705500  1
  H  H53  1  0.021100  0.717600  0.205500  1
  H  H54  1  0.021100  0.782400  0.294500  1
  H  H55  1  0.521100  0.217600  0.205500  1
  H  H56  1  0.521100  0.282400  0.294500  1
  H  H57  1  0.910000  0.264000  0.842400  1
  H  H58  1  0.910000  0.236000  0.657600  1
  H  H59  1  0.410000  0.764000  0.842400  1
  H  H60  1  0.410000  0.736000  0.657600  1
  H  H61  1  0.090000  0.736000  0.157600  1
  H  H62  1  0.090000  0.764000  0.342400  1
  H  H63  1  0.590000  0.236000  0.157600  1
  H  H64  1  0.590000  0.264000  0.342400  1
  H  H65  1  0.717100  0.054400  0.743500  1
  H  H66  1  0.717100  0.445600  0.756500  1
  H  H67  1  0.217100  0.554400  0.743500  1
  H  H68  1  0.217100  0.945600  0.756500  1
  H  H69  1  0.282900  0.945600  0.256500  1
  H  H70  1  0.282900  0.554400  0.243500  1
  H  H71  1  0.782900  0.445600  0.256500  1
  H  H72  1  0.782900  0.054400  0.243500  1
  H  H73  1  0.787800  0.047100  0.712900  1
  H  H74  1  0.787800  0.452900  0.787100  1
  H  H75  1  0.287800  0.547100  0.712900  1
  H  H76  1  0.287800  0.952900  0.787100  1
  H  H77  1  0.212200  0.952900  0.287100  1
  H  H78  1  0.212200  0.547100  0.212900  1
  H  H79  1  0.712200  0.452900  0.287100  1
  H  H80  1  0.712200  0.047100  0.212900  1
  H  H81  1  0.715100  0.054400  0.689400  1
  H  H82  1  0.715100  0.445600  0.810600  1
  H  H83  1  0.215100  0.554400  0.689400  1
  H  H84  1  0.215100  0.945600  0.810600  1
  H  H85  1  0.284900  0.945600  0.310600  1
  H  H86  1  0.284900  0.554400  0.189400  1
  H  H87  1  0.784900  0.445600  0.310600  1
  H  H88  1  0.784900  0.054400  0.189400  1
  H  H89  1  0.833200  0.193200  0.755200  1
  H  H90  1  0.833200  0.306800  0.744800  1
  H  H91  1  0.333200  0.693200  0.755200  1
  H  H92  1  0.333200  0.806800  0.744800  1
  H  H93  1  0.166800  0.806800  0.244800  1
  H  H94  1  0.166800  0.693200  0.255200  1
  H  H95  1  0.666800  0.306800  0.244800  1
  H  H96  1  0.666800  0.193200  0.255200  1
  H  H97  1  0.803800  0.169700  0.699900  1
  H  H98  1  0.803800  0.330300  0.800100  1
  H  H99  1  0.303800  0.669700  0.699900  1
  H  H100  1  0.303800  0.830300  0.800100  1
  H  H101  1  0.196200  0.830300  0.300100  1
  H  H102  1  0.196200  0.669700  0.199900  1
  H  H103  1  0.696200  0.330300  0.300100  1
  H  H104  1  0.696200  0.169700  0.199900  1
  H  H105  1  0.851900  0.127700  0.716200  1
  H  H106  1  0.851900  0.372300  0.783800  1
  H  H107  1  0.351900  0.627700  0.716200  1
  H  H108  1  0.351900  0.872300  0.783800  1
  H  H109  1  0.148100  0.872300  0.283800  1
  H  H110  1  0.148100  0.627700  0.216200  1
  H  H111  1  0.648100  0.372300  0.283800  1
  H  H112  1  0.648100  0.127700  0.216200  1
  H  H113  1  0.663000  0.126800  0.693500  1
  H  H114  1  0.663000  0.373200  0.806500  1
  H  H115  1  0.163000  0.626800  0.693500  1
  H  H116  1  0.163000  0.873200  0.806500  1
  H  H117  1  0.337000  0.873200  0.306500  1
  H  H118  1  0.337000  0.626800  0.193500  1
  H  H119  1  0.837000  0.373200  0.306500  1
  H  H120  1  0.837000  0.126800  0.193500  1
  H  H121  1  0.725400  0.164200  0.684100  1
  H  H122  1  0.725400  0.335800  0.815900  1
  H  H123  1  0.225400  0.664200  0.684100  1
  H  H124  1  0.225400  0.835800  0.815900  1
  H  H125  1  0.274600  0.835800  0.315900  1
  H  H126  1  0.274600  0.664200  0.184100  1
  H  H127  1  0.774600  0.335800  0.315900  1
  H  H128  1  0.774600  0.164200  0.184100  1
  H  H129  1  0.675600  0.194300  0.731100  1
  H  H130  1  0.675600  0.305700  0.768900  1
  H  H131  1  0.175600  0.694300  0.731100  1
  H  H132  1  0.175600  0.805700  0.768900  1
  H  H133  1  0.324400  0.805700  0.268900  1
  H  H134  1  0.324400  0.694300  0.231100  1
  H  H135  1  0.824400  0.305700  0.268900  1
  H  H136  1  0.824400  0.194300  0.231100  1
  H  H137  1  0.340400  0.080400  0.883200  1
  H  H138  1  0.340400  0.419600  0.616800  1
  H  H139  1  0.840400  0.580400  0.883200  1
  H  H140  1  0.840400  0.919600  0.616800  1
  H  H141  1  0.659600  0.919600  0.116800  1
  H  H142  1  0.659600  0.580400  0.383200  1
  H  H143  1  0.159600  0.419600  0.116800  1
  H  H144  1  0.159600  0.080400  0.383200  1
  H  H145  1  0.390500  0.023800  0.861300  1
  H  H146  1  0.390500  0.476200  0.638700  1
  H  H147  1  0.890500  0.523800  0.861300  1
  H  H148  1  0.890500  0.976200  0.638700  1
  H  H149  1  0.609500  0.976200  0.138700  1
  H  H150  1  0.609500  0.523800  0.361300  1
  H  H151  1  0.109500  0.476200  0.138700  1
  H  H152  1  0.109500  0.023800  0.361300  1
  H  H153  1  0.319400  0.025100  0.833500  1
  H  H154  1  0.319400  0.474900  0.666500  1
  H  H155  1  0.819400  0.525100  0.833500  1
  H  H156  1  0.819400  0.974900  0.666500  1
  H  H157  1  0.680600  0.974900  0.166500  1
  H  H158  1  0.680600  0.525100  0.333500  1
  H  H159  1  0.180600  0.474900  0.166500  1
  H  H160  1  0.180600  0.025100  0.333500  1
  H  H161  1  0.451200  0.051300  0.755400  1
  H  H162  1  0.451200  0.448700  0.744600  1
  H  H163  1  0.951200  0.551300  0.755400  1
  H  H164  1  0.951200  0.948700  0.744600  1
  H  H165  1  0.548800  0.948700  0.244600  1
  H  H166  1  0.548800  0.551300  0.255400  1
  H  H167  1  0.048800  0.448700  0.244600  1
  H  H168  1  0.048800  0.051300  0.255400  1
  H  H169  1  0.389900  0.006600  0.753900  1
  H  H170  1  0.389900  0.493400  0.746100  1
  H  H171  1  0.889900  0.506600  0.753900  1
  H  H172  1  0.889900  0.993400  0.746100  1
  H  H173  1  0.610100  0.993400  0.246100  1
  H  H174  1  0.610100  0.506600  0.253900  1
  H  H175  1  0.110100  0.493400  0.246100  1
  H  H176  1  0.110100  0.006600  0.253900  1
  H  H177  1  0.461200  0.006700  0.782000  1
  H  H178  1  0.461200  0.493300  0.718000  1
  H  H179  1  0.961200  0.506700  0.782000  1
  H  H180  1  0.961200  0.993300  0.718000  1
  H  H181  1  0.538800  0.993300  0.218000  1
  H  H182  1  0.538800  0.506700  0.282000  1
  H  H183  1  0.038800  0.493300  0.218000  1
  H  H184  1  0.038800  0.006700  0.282000  1
  H  H185  1  0.319700  0.143200  0.835000  1
  H  H186  1  0.319700  0.356800  0.665000  1
  H  H187  1  0.819700  0.643200  0.835000  1
  H  H188  1  0.819700  0.856800  0.665000  1
  H  H189  1  0.680300  0.856800  0.165000  1
  H  H190  1  0.680300  0.643200  0.335000  1
  H  H191  1  0.180300  0.356800  0.165000  1
  H  H192  1  0.180300  0.143200  0.335000  1
  H  H193  1  0.300800  0.082600  0.789200  1
  H  H194  1  0.300800  0.417400  0.710800  1
  H  H195  1  0.800800  0.582600  0.789200  1
  H  H196  1  0.800800  0.917400  0.710800  1
  H  H197  1  0.699200  0.917400  0.210800  1
  H  H198  1  0.699200  0.582600  0.289200  1
  H  H199  1  0.199200  0.417400  0.210800  1
  H  H200  1  0.199200  0.082600  0.289200  1
  H  H201  1  0.357300  0.126700  0.782800  1
  H  H202  1  0.357300  0.373300  0.717200  1
  H  H203  1  0.857300  0.626700  0.782800  1
  H  H204  1  0.857300  0.873300  0.717200  1
  H  H205  1  0.642700  0.873300  0.217200  1
  H  H206  1  0.642700  0.626700  0.282800  1
  H  H207  1  0.142700  0.373300  0.217200  1
  H  H208  1  0.142700  0.126700  0.282800  1
  H  H209  1  0.091800  0.441300  0.036200  1.0
  H  H210  1  0.091800  0.058700  0.463800  1.0
  H  H211  1  0.591800  0.941300  0.036200  1.0
  H  H212  1  0.591800  0.558700  0.463800  1.0
  H  H213  1  0.908200  0.558700  0.963800  1.0
  H  H214  1  0.908200  0.941300  0.536200  1.0
  H  H215  1  0.408200  0.058700  0.963800  1.0
  H  H216  1  0.408200  0.441300  0.536200  1.0
  H  H217  1  0.746800  0.573200  0.975400  1.0
  H  H218  1  0.746800  0.926800  0.524600  1.0
  H  H219  1  0.246800  0.073200  0.975400  1.0
  H  H220  1  0.246800  0.426800  0.524600  1.0
  H  H221  1  0.253200  0.426800  0.024600  1.0
  H  H222  1  0.253200  0.073200  0.475400  1.0
  H  H223  1  0.753200  0.926800  0.024600  1.0
  H  H224  1  0.753200  0.573200  0.475400  1.0
  H  H225  1  0.742300  0.476000  0.196000  1.0
  H  H226  1  0.742300  0.024000  0.304000  1.0
  H  H227  1  0.242300  0.976000  0.196000  1.0
  H  H228  1  0.242300  0.524000  0.304000  1.0
  H  H229  1  0.257700  0.524000  0.804000  1.0
  H  H230  1  0.257700  0.976000  0.696000  1.0
  H  H231  1  0.757700  0.024000  0.804000  1.0
  H  H232  1  0.757700  0.476000  0.696000  1.0
  H  H233  1  0.452000  0.243600  0.957400  1.0
  H  H234  1  0.452000  0.256400  0.542600  1.0
  H  H235  1  0.952000  0.743600  0.957400  1.0
  H  H236  1  0.952000  0.756400  0.542600  1.0
  H  H237  1  0.548000  0.756400  0.042600  1.0
  H  H238  1  0.548000  0.743600  0.457400  1.0
  H  H239  1  0.048000  0.256400  0.042600  1.0
  H  H240  1  0.048000  0.243600  0.457400  1.0
  H  H241  1  0.378400  0.167200  0.911500  1.0
  H  H242  1  0.378400  0.332800  0.588500  1.0
  H  H243  1  0.878400  0.667200  0.911500  1.0
  H  H244  1  0.878400  0.832800  0.588500  1.0
  H  H245  1  0.621600  0.832800  0.088500  1.0
  H  H246  1  0.621600  0.667200  0.411500  1.0
  H  H247  1  0.121600  0.332800  0.088500  1.0
  H  H248  1  0.121600  0.167200  0.411500  1.0
  H  H249  1  0.529100  0.105700  0.808400  1.0
  H  H250  1  0.529100  0.394300  0.691600  1.0
  H  H251  1  0.029100  0.605700  0.808400  1.0
  H  H252  1  0.029100  0.894300  0.691600  1.0
  H  H253  1  0.470900  0.894300  0.191600  1.0
  H  H254  1  0.470900  0.605700  0.308400  1.0
  H  H255  1  0.970900  0.394300  0.191600  1.0
  H  H256  1  0.970900  0.105700  0.308400  1.0
  H  H257  1  0.630300  0.122700  0.784900  1.0
  H  H258  1  0.630300  0.377300  0.715100  1.0
  H  H259  1  0.130300  0.622700  0.784900  1.0
  H  H260  1  0.130300  0.877300  0.715100  1.0
  H  H261  1  0.369700  0.877300  0.215100  1.0
  H  H262  1  0.369700  0.622700  0.284900  1.0
  H  H263  1  0.869700  0.377300  0.215100  1.0
  H  H264  1  0.869700  0.122700  0.284900  1.0
  H  H265  1  0.798400  0.230300  0.821500  1.0
  H  H266  1  0.798400  0.269700  0.678500  1.0
  H  H267  1  0.298400  0.730300  0.821500  1.0
  H  H268  1  0.298400  0.769700  0.678500  1.0
  H  H269  1  0.201600  0.769700  0.178500  1.0
  H  H270  1  0.201600  0.730300  0.321500  1.0
  H  H271  1  0.701600  0.269700  0.178500  1.0
  H  H272  1  0.701600  0.230300  0.321500  1.0
  H  H273  1  0.744200  0.285800  0.894800  1.0
  H  H274  1  0.744200  0.214200  0.605200  1.0
  H  H275  1  0.244200  0.785800  0.894800  1.0
  H  H276  1  0.244200  0.714200  0.605200  1.0
  H  H277  1  0.255800  0.714200  0.105200  1.0
  H  H278  1  0.255800  0.785800  0.394800  1.0
  H  H279  1  0.755800  0.214200  0.105200  1.0
  H  H280  1  0.755800  0.285800  0.394800  1.0
  H  H281  1  0.593200  0.336500  0.873500  1.0
  H  H282  1  0.593200  0.163500  0.626500  1.0
  H  H283  1  0.093200  0.836500  0.873500  1.0
  H  H284  1  0.093200  0.663500  0.626500  1.0
  H  H285  1  0.406800  0.663500  0.126500  1.0
  H  H286  1  0.406800  0.836500  0.373500  1.0
  H  H287  1  0.906800  0.163500  0.126500  1.0
  H  H288  1  0.906800  0.336500  0.373500  1.0
  H  H289  1  0.518600  0.396900  0.855100  1.0
  H  H290  1  0.518600  0.103100  0.644900  1.0
  H  H291  1  0.018600  0.896900  0.855100  1.0
  H  H292  1  0.018600  0.603100  0.644900  1.0
  H  H293  1  0.481400  0.603100  0.144900  1.0
  H  H294  1  0.481400  0.896900  0.355100  1.0
  H  H295  1  0.981400  0.103100  0.144900  1.0
  H  H296  1  0.981400  0.396900  0.355100  1.0
  H  H297  1  0.414200  0.424600  0.981300  1.0
  H  H298  1  0.414200  0.075400  0.518700  1.0
  H  H299  1  0.914200  0.924600  0.981300  1.0
  H  H300  1  0.914200  0.575400  0.518700  1.0
  H  H301  1  0.585800  0.575400  0.018700  1.0
  H  H302  1  0.585800  0.924600  0.481300  1.0
  H  H303  1  0.085800  0.075400  0.018700  1.0
  H  H304  1  0.085800  0.424600  0.481300  1.0
  H  H305  1  0.414100  0.406700  0.050300  1.0
  H  H306  1  0.414100  0.093300  0.449700  1.0
  H  H307  1  0.914100  0.906700  0.050300  1.0
  H  H308  1  0.914100  0.593300  0.449700  1.0
  H  H309  1  0.585900  0.593300  0.949700  1.0
  H  H310  1  0.585900  0.906700  0.550300  1.0
  H  H311  1  0.085900  0.093300  0.949700  1.0
  H  H312  1  0.085900  0.406700  0.550300  1.0
  H  H313  1  0.513800  0.322800  0.123300  1.0
  H  H314  1  0.513800  0.177200  0.376700  1.0
  H  H315  1  0.013800  0.822800  0.123300  1.0
  H  H316  1  0.013800  0.677200  0.376700  1.0
  H  H317  1  0.486200  0.677200  0.876700  1.0
  H  H318  1  0.486200  0.822800  0.623300  1.0
  H  H319  1  0.986200  0.177200  0.876700  1.0
  H  H320  1  0.986200  0.322800  0.623300  1.0
  H  H321  1  0.590900  0.282500  0.056800  1.0
  H  H322  1  0.590900  0.217500  0.443200  1.0
  H  H323  1  0.090900  0.782500  0.056800  1.0
  H  H324  1  0.090900  0.717500  0.443200  1.0
  H  H325  1  0.409100  0.717500  0.943200  1.0
  H  H326  1  0.409100  0.782500  0.556800  1.0
  H  H327  1  0.909100  0.217500  0.943200  1.0
  H  H328  1  0.909100  0.282500  0.556800  1.0
  H  H329  1  0.972700  0.313400  0.993000  1.0
  H  H330  1  0.972700  0.186600  0.507000  1.0
  H  H331  1  0.472700  0.813400  0.993000  1.0
  H  H332  1  0.472700  0.686600  0.507000  1.0
  H  H333  1  0.027300  0.686600  0.007000  1.0
  H  H334  1  0.027300  0.813400  0.493000  1.0
  H  H335  1  0.527300  0.186600  0.007000  1.0
  H  H336  1  0.527300  0.313400  0.493000  1.0
  H  H337  1  0.052400  0.328700  0.987300  1.0
  H  H338  1  0.052400  0.171300  0.512700  1.0
  H  H339  1  0.552400  0.828700  0.987300  1.0
  H  H340  1  0.552400  0.671300  0.512700  1.0
  H  H341  1  0.947600  0.671300  0.012700  1.0
  H  H342  1  0.947600  0.828700  0.487300  1.0
  H  H343  1  0.447600  0.171300  0.012700  1.0
  H  H344  1  0.447600  0.328700  0.487300  1.0
  H  H345  1  0.994800  0.334000  0.950100  1.0
  H  H346  1  0.994800  0.166000  0.549900  1.0
  H  H347  1  0.494800  0.834000  0.950100  1.0
  H  H348  1  0.494800  0.666000  0.549900  1.0
  H  H349  1  0.005200  0.666000  0.049900  1.0
  H  H350  1  0.005200  0.834000  0.450100  1.0
  H  H351  1  0.505200  0.166000  0.049900  1.0
  H  H352  1  0.505200  0.334000  0.450100  1.0
  H  H353  1  0.015200  0.588600  0.088600  1.0
  H  H354  1  0.015200  0.911400  0.411400  1.0
  H  H355  1  0.515200  0.088600  0.088600  1.0
  H  H356  1  0.515200  0.411400  0.411400  1.0
  H  H357  1  0.984800  0.411400  0.911400  1.0
  H  H358  1  0.984800  0.088600  0.588600  1.0
  H  H359  1  0.484800  0.911400  0.911400  1.0
  H  H360  1  0.484800  0.588600  0.588600  1.0
  H  H361  1  0.085500  0.560400  0.098800  1.0
  H  H362  1  0.085500  0.939600  0.401200  1.0
  H  H363  1  0.585500  0.060400  0.098800  1.0
  H  H364  1  0.585500  0.439600  0.401200  1.0
  H  H365  1  0.914500  0.439600  0.901200  1.0
  H  H366  1  0.914500  0.060400  0.598800  1.0
  H  H367  1  0.414500  0.939600  0.901200  1.0
  H  H368  1  0.414500  0.560400  0.598800  1.0
  H  H369  1  0.020100  0.570700  0.134900  1.0
  H  H370  1  0.020100  0.929300  0.365100  1.0
  H  H371  1  0.520100  0.070700  0.134900  1.0
  H  H372  1  0.520100  0.429300  0.365100  1.0
  H  H373  1  0.979900  0.429300  0.865100  1.0
  H  H374  1  0.979900  0.070700  0.634900  1.0
  H  H375  1  0.479900  0.929300  0.865100  1.0
  H  H376  1  0.479900  0.570700  0.634900  1.0
  H  H377  1  0.772900  0.419100  0.907000  1.0
  H  H378  1  0.772900  0.080900  0.593000  1.0
  H  H379  1  0.272900  0.919100  0.907000  1.0
  H  H380  1  0.272900  0.580900  0.593000  1.0
  H  H381  1  0.227100  0.580900  0.093000  1.0
  H  H382  1  0.227100  0.919100  0.407000  1.0
  H  H383  1  0.727100  0.080900  0.093000  1.0
  H  H384  1  0.727100  0.419100  0.407000  1.0
  H  H385  1  0.709800  0.464100  0.913100  1.0
  H  H386  1  0.709800  0.035900  0.586900  1.0
  H  H387  1  0.209800  0.964100  0.913100  1.0
  H  H388  1  0.209800  0.535900  0.586900  1.0
  H  H389  1  0.290200  0.535900  0.086900  1.0
  H  H390  1  0.290200  0.964100  0.413100  1.0
  H  H391  1  0.790200  0.035900  0.086900  1.0
  H  H392  1  0.790200  0.464100  0.413100  1.0
  H  H393  1  0.706400  0.418900  0.939600  1.0
  H  H394  1  0.706400  0.081100  0.560400  1.0
  H  H395  1  0.206400  0.918900  0.939600  1.0
  H  H396  1  0.206400  0.581100  0.560400  1.0
  H  H397  1  0.293600  0.581100  0.060400  1.0
  H  H398  1  0.293600  0.918900  0.439600  1.0
  H  H399  1  0.793600  0.081100  0.060400  1.0
  H  H400  1  0.793600  0.418900  0.439600  1.0
  H  H401  1  0.800000  0.645500  0.100500  1.0
  H  H402  1  0.800000  0.854500  0.399500  1.0
  H  H403  1  0.300000  0.145500  0.100500  1.0
  H  H404  1  0.300000  0.354500  0.399500  1.0
  H  H405  1  0.200000  0.354500  0.899500  1.0
  H  H406  1  0.200000  0.145500  0.600500  1.0
  H  H407  1  0.700000  0.854500  0.899500  1.0
  H  H408  1  0.700000  0.645500  0.600500  1.0
  H  H409  1  0.803800  0.663000  0.054000  1.0
  H  H410  1  0.803800  0.837000  0.446000  1.0
  H  H411  1  0.303800  0.163000  0.054000  1.0
  H  H412  1  0.303800  0.337000  0.446000  1.0
  H  H413  1  0.196200  0.337000  0.946000  1.0
  H  H414  1  0.196200  0.163000  0.554000  1.0
  H  H415  1  0.696200  0.837000  0.946000  1.0
  H  H416  1  0.696200  0.663000  0.554000  1.0
  H  H417  1  0.872500  0.641600  0.072700  1.0
  H  H418  1  0.872500  0.858400  0.427300  1.0
  H  H419  1  0.372500  0.141600  0.072700  1.0
  H  H420  1  0.372500  0.358400  0.427300  1.0
  H  H421  1  0.127500  0.358400  0.927300  1.0
  H  H422  1  0.127500  0.141600  0.572700  1.0
  H  H423  1  0.627500  0.858400  0.927300  1.0
  H  H424  1  0.627500  0.641600  0.572700  1.0
  H  H425  1  0.679300  0.374000  0.082100  1.0
  H  H426  1  0.679300  0.126000  0.417900  1.0
  H  H427  1  0.179300  0.874000  0.082100  1.0
  H  H428  1  0.179300  0.626000  0.417900  1.0
  H  H429  1  0.320700  0.626000  0.917900  1.0
  H  H430  1  0.320700  0.874000  0.582100  1.0
  H  H431  1  0.820700  0.126000  0.917900  1.0
  H  H432  1  0.820700  0.374000  0.582100  1.0
  H  H433  1  0.694600  0.371400  0.134400  1.0
  H  H434  1  0.694600  0.128600  0.365600  1.0
  H  H435  1  0.194600  0.871400  0.134400  1.0
  H  H436  1  0.194600  0.628600  0.365600  1.0
  H  H437  1  0.305400  0.628600  0.865600  1.0
  H  H438  1  0.305400  0.871400  0.634400  1.0
  H  H439  1  0.805400  0.128600  0.865600  1.0
  H  H440  1  0.805400  0.371400  0.634400  1.0
  H  H441  1  0.745100  0.337800  0.088500  1.0
  H  H442  1  0.745100  0.162200  0.411500  1.0
  H  H443  1  0.245100  0.837800  0.088500  1.0
  H  H444  1  0.245100  0.662200  0.411500  1.0
  H  H445  1  0.254900  0.662200  0.911500  1.0
  H  H446  1  0.254900  0.837800  0.588500  1.0
  H  H447  1  0.754900  0.162200  0.911500  1.0
  H  H448  1  0.754900  0.337800  0.588500  1.0
  H  H449  1  0.882000  0.575600  0.204600  1.0
  H  H450  1  0.882000  0.924400  0.295400  1.0
  H  H451  1  0.382000  0.075600  0.204600  1.0
  H  H452  1  0.382000  0.424400  0.295400  1.0
  H  H453  1  0.118000  0.424400  0.795400  1.0
  H  H454  1  0.118000  0.075600  0.704600  1.0
  H  H455  1  0.618000  0.924400  0.795400  1.0
  H  H456  1  0.618000  0.575600  0.704600  1.0
  H  H457  1  0.808400  0.583500  0.232000  1.0
  H  H458  1  0.808400  0.916500  0.268000  1.0
  H  H459  1  0.308400  0.083500  0.232000  1.0
  H  H460  1  0.308400  0.416500  0.268000  1.0
  H  H461  1  0.191600  0.416500  0.768000  1.0
  H  H462  1  0.191600  0.083500  0.732000  1.0
  H  H463  1  0.691600  0.916500  0.768000  1.0
  H  H464  1  0.691600  0.583500  0.732000  1.0
  H  H465  1  0.818800  0.607200  0.189400  1.0
  H  H466  1  0.818800  0.892800  0.310600  1.0
  H  H467  1  0.318800  0.107200  0.189400  1.0
  H  H468  1  0.318800  0.392800  0.310600  1.0
  H  H469  1  0.181200  0.392800  0.810600  1.0
  H  H470  1  0.181200  0.107200  0.689400  1.0
  H  H471  1  0.681200  0.892800  0.810600  1.0
  H  H472  1  0.681200  0.607200  0.689400  1.0
  H  H473  1  0.888600  0.565900  0.109600  1.0
  H  H474  1  0.888600  0.934100  0.390400  1.0
  H  H475  1  0.388600  0.065900  0.109600  1.0
  H  H476  1  0.388600  0.434100  0.390400  1.0
  H  H477  1  0.111400  0.434100  0.890400  1.0
  H  H478  1  0.111400  0.065900  0.609600  1.0
  H  H479  1  0.611400  0.934100  0.890400  1.0
  H  H480  1  0.611400  0.565900  0.609600  1.0
  H  H481  1  0.413200  0.531000  0.967300  1.0
  H  H482  1  0.413200  0.969000  0.532700  1.0
  H  H483  1  0.913200  0.031000  0.967300  1.0
  H  H484  1  0.913200  0.469000  0.532700  1.0
  H  H485  1  0.586800  0.469000  0.032700  1.0
  H  H486  1  0.586800  0.031000  0.467300  1.0
  H  H487  1  0.086800  0.969000  0.032700  1.0
  H  H488  1  0.086800  0.531000  0.467300  1.0
  H  H489  1  0.348800  0.491000  0.969700  1.0
  H  H490  1  0.348800  0.009000  0.530300  1.0
  H  H491  1  0.848800  0.991000  0.969700  1.0
  H  H492  1  0.848800  0.509000  0.530300  1.0
  H  H493  1  0.651200  0.509000  0.030300  1.0
  H  H494  1  0.651200  0.991000  0.469700  1.0
  H  H495  1  0.151200  0.009000  0.030300  1.0
  H  H496  1  0.151200  0.491000  0.469700  1.0
  H  H497  1  0.342500  0.531100  0.938700  1.0
  H  H498  1  0.342500  0.968900  0.561300  1.0
  H  H499  1  0.842500  0.031100  0.938700  1.0
  H  H500  1  0.842500  0.468900  0.561300  1.0
  H  H501  1  0.657500  0.468900  0.061300  1.0
  H  H502  1  0.657500  0.031100  0.438700  1.0
  H  H503  1  0.157500  0.968900  0.061300  1.0
  H  H504  1  0.157500  0.531100  0.438700  1.0
  H  H505  1  0.304900  0.433800  0.868100  1.0
  H  H506  1  0.304900  0.066200  0.631900  1.0
  H  H507  1  0.804900  0.933800  0.868100  1.0
  H  H508  1  0.804900  0.566200  0.631900  1.0
  H  H509  1  0.695100  0.566200  0.131900  1.0
  H  H510  1  0.695100  0.933800  0.368100  1.0
  H  H511  1  0.195100  0.066200  0.131900  1.0
  H  H512  1  0.195100  0.433800  0.368100  1.0
  H  H513  1  0.322200  0.396500  0.900300  1.0
  H  H514  1  0.322200  0.103500  0.599700  1.0
  H  H515  1  0.822200  0.896500  0.900300  1.0
  H  H516  1  0.822200  0.603500  0.599700  1.0
  H  H517  1  0.677800  0.603500  0.099700  1.0
  H  H518  1  0.677800  0.896500  0.400300  1.0
  H  H519  1  0.177800  0.103500  0.099700  1.0
  H  H520  1  0.177800  0.396500  0.400300  1.0
  H  H521  1  0.358800  0.379800  0.847800  1.0
  H  H522  1  0.358800  0.120200  0.652200  1.0
  H  H523  1  0.858800  0.879800  0.847800  1.0
  H  H524  1  0.858800  0.620200  0.652200  1.0
  H  H525  1  0.641200  0.620200  0.152200  1.0
  H  H526  1  0.641200  0.879800  0.347800  1.0
  H  H527  1  0.141200  0.120200  0.152200  1.0
  H  H528  1  0.141200  0.379800  0.347800  1.0
  H  H529  1  0.472200  0.505700  0.883300  1.0
  H  H530  1  0.472200  0.994300  0.616700  1.0
  H  H531  1  0.972200  0.005700  0.883300  1.0
  H  H532  1  0.972200  0.494300  0.616700  1.0
  H  H533  1  0.527800  0.494300  0.116700  1.0
  H  H534  1  0.527800  0.005700  0.383300  1.0
  H  H535  1  0.027800  0.994300  0.116700  1.0
  H  H536  1  0.027800  0.505700  0.383300  1.0
  H  H537  1  0.396200  0.505400  0.861000  1.0
  H  H538  1  0.396200  0.994600  0.639000  1.0
  H  H539  1  0.896200  0.005400  0.861000  1.0
  H  H540  1  0.896200  0.494600  0.639000  1.0
  H  H541  1  0.603800  0.494600  0.139000  1.0
  H  H542  1  0.603800  0.005400  0.361000  1.0
  H  H543  1  0.103800  0.994600  0.139000  1.0
  H  H544  1  0.103800  0.505400  0.361000  1.0
  H  H545  1  0.445800  0.448700  0.836800  1.0
  H  H546  1  0.445800  0.051300  0.663200  1.0
  H  H547  1  0.945800  0.948700  0.836800  1.0
  H  H548  1  0.945800  0.551300  0.663200  1.0
  H  H549  1  0.554200  0.551300  0.163200  1.0
  H  H550  1  0.554200  0.948700  0.336800  1.0
  H  H551  1  0.054200  0.051300  0.163200  1.0
  H  H552  1  0.054200  0.448700  0.336800  1.0
  H  H553  1  0.336500  0.351600  0.171700  1.0
  H  H554  1  0.336500  0.148400  0.328300  1.0
  H  H555  1  0.836500  0.851600  0.171700  1.0
  H  H556  1  0.836500  0.648400  0.328300  1.0
  H  H557  1  0.663500  0.648400  0.828300  1.0
  H  H558  1  0.663500  0.851600  0.671700  1.0
  H  H559  1  0.163500  0.148400  0.828300  1.0
  H  H560  1  0.163500  0.351600  0.671700  1.0
  H  H561  1  0.405800  0.313600  0.150800  1.0
  H  H562  1  0.405800  0.186400  0.349200  1.0
  H  H563  1  0.905800  0.813600  0.150800  1.0
  H  H564  1  0.905800  0.686400  0.349200  1.0
  H  H565  1  0.594200  0.686400  0.849200  1.0
  H  H566  1  0.594200  0.813600  0.650800  1.0
  H  H567  1  0.094200  0.186400  0.849200  1.0
  H  H568  1  0.094200  0.313600  0.650800  1.0
  H  H569  1  0.344200  0.312000  0.113800  1.0
  H  H570  1  0.344200  0.188000  0.386200  1.0
  H  H571  1  0.844200  0.812000  0.113800  1.0
  H  H572  1  0.844200  0.688000  0.386200  1.0
  H  H573  1  0.655800  0.688000  0.886200  1.0
  H  H574  1  0.655800  0.812000  0.613800  1.0
  H  H575  1  0.155800  0.188000  0.886200  1.0
  H  H576  1  0.155800  0.312000  0.613800  1.0
  H  H577  1  0.368200  0.467800  0.132100  1.0
  H  H578  1  0.368200  0.032200  0.367900  1.0
  H  H579  1  0.868200  0.967800  0.132100  1.0
  H  H580  1  0.868200  0.532200  0.367900  1.0
  H  H581  1  0.631800  0.532200  0.867900  1.0
  H  H582  1  0.631800  0.967800  0.632100  1.0
  H  H583  1  0.131800  0.032200  0.867900  1.0
  H  H584  1  0.131800  0.467800  0.632100  1.0
  H  H585  1  0.310600  0.436700  0.152800  1.0
  H  H586  1  0.310600  0.063300  0.347200  1.0
  H  H587  1  0.810600  0.936700  0.152800  1.0
  H  H588  1  0.810600  0.563300  0.347200  1.0
  H  H589  1  0.689400  0.563300  0.847200  1.0
  H  H590  1  0.689400  0.936700  0.652800  1.0
  H  H591  1  0.189400  0.063300  0.847200  1.0
  H  H592  1  0.189400  0.436700  0.652800  1.0
  H  H593  1  0.328600  0.409900  0.095100  1.0
  H  H594  1  0.328600  0.090100  0.404900  1.0
  H  H595  1  0.828600  0.909900  0.095100  1.0
  H  H596  1  0.828600  0.590100  0.404900  1.0
  H  H597  1  0.671400  0.590100  0.904900  1.0
  H  H598  1  0.671400  0.909900  0.595100  1.0
  H  H599  1  0.171400  0.090100  0.904900  1.0
  H  H600  1  0.171400  0.409900  0.595100  1.0
  H  H601  1  0.467800  0.461100  0.180800  1.0
  H  H602  1  0.467800  0.038900  0.319200  1.0
  H  H603  1  0.967800  0.961100  0.180800  1.0
  H  H604  1  0.967800  0.538900  0.319200  1.0
  H  H605  1  0.532200  0.538900  0.819200  1.0
  H  H606  1  0.532200  0.961100  0.680800  1.0
  H  H607  1  0.032200  0.038900  0.819200  1.0
  H  H608  1  0.032200  0.461100  0.680800  1.0
  H  H609  1  0.480400  0.401800  0.189400  1.0
  H  H610  1  0.480400  0.098200  0.310600  1.0
  H  H611  1  0.980400  0.901800  0.189400  1.0
  H  H612  1  0.980400  0.598200  0.310600  1.0
  H  H613  1  0.519600  0.598200  0.810600  1.0
  H  H614  1  0.519600  0.901800  0.689400  1.0
  H  H615  1  0.019600  0.098200  0.810600  1.0
  H  H616  1  0.019600  0.401800  0.689400  1.0
  H  H617  1  0.413200  0.441900  0.212500  1.0
  H  H618  1  0.413200  0.058100  0.287500  1.0
  H  H619  1  0.913200  0.941900  0.212500  1.0
  H  H620  1  0.913200  0.558100  0.287500  1.0
  H  H621  1  0.586800  0.558100  0.787500  1.0
  H  H622  1  0.586800  0.941900  0.712500  1.0
  H  H623  1  0.086800  0.058100  0.787500  1.0
  H  H624  1  0.086800  0.441900  0.712500  1.0
  H  H625  1  0.857100  0.150800  0.772500  1.0
  H  H626  1  0.857100  0.349200  0.727500  1.0
  H  H627  1  0.357100  0.650800  0.772500  1.0
  H  H628  1  0.357100  0.849200  0.727500  1.0
  H  H629  1  0.142900  0.849200  0.227500  1.0
  H  H630  1  0.142900  0.650800  0.272500  1.0
  H  H631  1  0.642900  0.349200  0.227500  1.0
  H  H632  1  0.642900  0.150800  0.272500  1.0
  H  H633  1  0.853300  0.092500  0.722100  1.0
  H  H634  1  0.853300  0.407500  0.777900  1.0
  H  H635  1  0.353300  0.592500  0.722100  1.0
  H  H636  1  0.353300  0.907500  0.777900  1.0
  H  H637  1  0.146700  0.907500  0.277900  1.0
  H  H638  1  0.146700  0.592500  0.222100  1.0
  H  H639  1  0.646700  0.407500  0.277900  1.0
  H  H640  1  0.646700  0.092500  0.222100  1.0
  H  H641  1  0.825900  0.090500  0.772500  1.0
  H  H642  1  0.825900  0.409500  0.727500  1.0
  H  H643  1  0.325900  0.590500  0.772500  1.0
  H  H644  1  0.325900  0.909500  0.727500  1.0
  H  H645  1  0.174100  0.909500  0.227500  1.0
  H  H646  1  0.174100  0.590500  0.272500  1.0
  H  H647  1  0.674100  0.409500  0.227500  1.0
  H  H648  1  0.674100  0.090500  0.272500  1.0
  H  H649  1  0.713000  0.052500  0.735000  1.0
  H  H650  1  0.713000  0.447500  0.765000  1.0
  H  H651  1  0.213000  0.552500  0.735000  1.0
  H  H652  1  0.213000  0.947500  0.765000  1.0
  H  H653  1  0.287000  0.947500  0.265000  1.0
  H  H654  1  0.287000  0.552500  0.235000  1.0
  H  H655  1  0.787000  0.447500  0.265000  1.0
  H  H656  1  0.787000  0.052500  0.235000  1.0
  H  H657  1  0.742600  0.052200  0.684300  1.0
  H  H658  1  0.742600  0.447800  0.815700  1.0
  H  H659  1  0.242600  0.552200  0.684300  1.0
  H  H660  1  0.242600  0.947800  0.815700  1.0
  H  H661  1  0.257400  0.947800  0.315700  1.0
  H  H662  1  0.257400  0.552200  0.184300  1.0
  H  H663  1  0.757400  0.447800  0.315700  1.0
  H  H664  1  0.757400  0.052200  0.184300  1.0
  H  H665  1  0.668600  0.081700  0.704800  1.0
  H  H666  1  0.668600  0.418300  0.795200  1.0
  H  H667  1  0.168600  0.581700  0.704800  1.0
  H  H668  1  0.168600  0.918300  0.795200  1.0
  H  H669  1  0.331400  0.918300  0.295200  1.0
  H  H670  1  0.331400  0.581700  0.204800  1.0
  H  H671  1  0.831400  0.418300  0.295200  1.0
  H  H672  1  0.831400  0.081700  0.204800  1.0
  H  H673  1  0.794600  0.150200  0.686900  1.0
  H  H674  1  0.794600  0.349800  0.813100  1.0
  H  H675  1  0.294600  0.650200  0.686900  1.0
  H  H676  1  0.294600  0.849800  0.813100  1.0
  H  H677  1  0.205400  0.849800  0.313100  1.0
  H  H678  1  0.205400  0.650200  0.186900  1.0
  H  H679  1  0.705400  0.349800  0.313100  1.0
  H  H680  1  0.705400  0.150200  0.186900  1.0
  H  H681  1  0.782600  0.209000  0.735800  1.0
  H  H682  1  0.782600  0.291000  0.764200  1.0
  H  H683  1  0.282600  0.709000  0.735800  1.0
  H  H684  1  0.282600  0.791000  0.764200  1.0
  H  H685  1  0.217400  0.791000  0.264200  1.0
  H  H686  1  0.217400  0.709000  0.235800  1.0
  H  H687  1  0.717400  0.291000  0.264200  1.0
  H  H688  1  0.717400  0.209000  0.235800  1.0
  H  H689  1  0.717900  0.177100  0.701100  1.0
  H  H690  1  0.717900  0.322900  0.798900  1.0
  H  H691  1  0.217900  0.677100  0.701100  1.0
  H  H692  1  0.217900  0.822900  0.798900  1.0
  H  H693  1  0.282100  0.822900  0.298900  1.0
  H  H694  1  0.282100  0.677100  0.201100  1.0
  H  H695  1  0.782100  0.322900  0.298900  1.0
  H  H696  1  0.782100  0.177100  0.201100  1.0
  H  H697  1  0.340600  0.077000  0.879000  1.0
  H  H698  1  0.340600  0.423000  0.621000  1.0
  H  H699  1  0.840600  0.577000  0.879000  1.0
  H  H700  1  0.840600  0.923000  0.621000  1.0
  H  H701  1  0.659400  0.923000  0.121000  1.0
  H  H702  1  0.659400  0.577000  0.379000  1.0
  H  H703  1  0.159400  0.423000  0.121000  1.0
  H  H704  1  0.159400  0.077000  0.379000  1.0
  H  H705  1  0.317400  0.027100  0.826900  1.0
  H  H706  1  0.317400  0.472900  0.673100  1.0
  H  H707  1  0.817400  0.527100  0.826900  1.0
  H  H708  1  0.817400  0.972900  0.673100  1.0
  H  H709  1  0.682600  0.972900  0.173100  1.0
  H  H710  1  0.682600  0.527100  0.326900  1.0
  H  H711  1  0.182600  0.472900  0.173100  1.0
  H  H712  1  0.182600  0.027100  0.326900  1.0
  H  H713  1  0.296100  0.094800  0.841200  1.0
  H  H714  1  0.296100  0.405200  0.658800  1.0
  H  H715  1  0.796100  0.594800  0.841200  1.0
  H  H716  1  0.796100  0.905200  0.658800  1.0
  H  H717  1  0.703900  0.905200  0.158800  1.0
  H  H718  1  0.703900  0.594800  0.341200  1.0
  H  H719  1  0.203900  0.405200  0.158800  1.0
  H  H720  1  0.203900  0.094800  0.341200  1.0
  H  H721  1  0.440500  0.086500  0.761800  1.0
  H  H722  1  0.440500  0.413500  0.738200  1.0
  H  H723  1  0.940500  0.586500  0.761800  1.0
  H  H724  1  0.940500  0.913500  0.738200  1.0
  H  H725  1  0.559500  0.913500  0.238200  1.0
  H  H726  1  0.559500  0.586500  0.261800  1.0
  H  H727  1  0.059500  0.413500  0.238200  1.0
  H  H728  1  0.059500  0.086500  0.261800  1.0
  H  H729  1  0.357100  0.089600  0.762500  1.0
  H  H730  1  0.357100  0.410400  0.737500  1.0
  H  H731  1  0.857100  0.589600  0.762500  1.0
  H  H732  1  0.857100  0.910400  0.737500  1.0
  H  H733  1  0.642900  0.910400  0.237500  1.0
  H  H734  1  0.642900  0.589600  0.262500  1.0
  H  H735  1  0.142900  0.410400  0.237500  1.0
  H  H736  1  0.142900  0.089600  0.262500  1.0
  H  H737  1  0.395700  0.027100  0.747600  1.0
  H  H738  1  0.395700  0.472900  0.752400  1.0
  H  H739  1  0.895700  0.527100  0.747600  1.0
  H  H740  1  0.895700  0.972900  0.752400  1.0
  H  H741  1  0.604300  0.972900  0.252400  1.0
  H  H742  1  0.604300  0.527100  0.247600  1.0
  H  H743  1  0.104300  0.472900  0.252400  1.0
  H  H744  1  0.104300  0.027100  0.247600  1.0
  H  H745  1  0.455800  0.008700  0.844600  1.0
  H  H746  1  0.455800  0.491300  0.655400  1.0
  H  H747  1  0.955800  0.508700  0.844600  1.0
  H  H748  1  0.955800  0.991300  0.655400  1.0
  H  H749  1  0.544200  0.991300  0.155400  1.0
  H  H750  1  0.544200  0.508700  0.344600  1.0
  H  H751  1  0.044200  0.491300  0.155400  1.0
  H  H752  1  0.044200  0.008700  0.344600  1.0
  H  H753  1  0.499400  0.019400  0.802800  1.0
  H  H754  1  0.499400  0.480600  0.697200  1.0
  H  H755  1  0.999400  0.519400  0.802800  1.0
  H  H756  1  0.999400  0.980600  0.697200  1.0
  H  H757  1  0.500600  0.980600  0.197200  1.0
  H  H758  1  0.500600  0.519400  0.302800  1.0
  H  H759  1  0.000600  0.480600  0.197200  1.0
  H  H760  1  0.000600  0.019400  0.302800  1.0
  H  H761  1  0.432100  0.977600  0.788100  1.0
  H  H762  1  0.432100  0.522400  0.711900  1.0
  H  H763  1  0.932100  0.477600  0.788100  1.0
  H  H764  1  0.932100  0.022400  0.711900  1.0
  H  H765  1  0.567900  0.022400  0.211900  1.0
  H  H766  1  0.567900  0.477600  0.288100  1.0
  H  H767  1  0.067900  0.522400  0.211900  1.0
  H  H768  1  0.067900  0.977600  0.288100  1.0
  C  C769  1  0.996000  0.265800  0.817400  1
  C  C770  1  0.996000  0.234200  0.682600  1
  C  C771  1  0.496000  0.765800  0.817400  1
  C  C772  1  0.496000  0.734200  0.682600  1
  C  C773  1  0.004000  0.734200  0.182600  1
  C  C774  1  0.004000  0.765800  0.317400  1
  C  C775  1  0.504000  0.234200  0.182600  1
  C  C776  1  0.504000  0.265800  0.317400  1
  C  C777  1  0.742000  0.066300  0.720000  1
  C  C778  1  0.742000  0.433700  0.780000  1
  C  C779  1  0.242000  0.566300  0.720000  1
  C  C780  1  0.242000  0.933700  0.780000  1
  C  C781  1  0.258000  0.933700  0.280000  1
  C  C782  1  0.258000  0.566300  0.220000  1
  C  C783  1  0.758000  0.433700  0.280000  1
  C  C784  1  0.758000  0.066300  0.220000  1
  C  C785  1  0.815800  0.158400  0.727100  1
  C  C786  1  0.815800  0.341600  0.772900  1
  C  C787  1  0.315800  0.658400  0.727100  1
  C  C788  1  0.315800  0.841600  0.772900  1
  C  C789  1  0.184200  0.841600  0.272900  1
  C  C790  1  0.184200  0.658400  0.227100  1
  C  C791  1  0.684200  0.341600  0.272900  1
  C  C792  1  0.684200  0.158400  0.227100  1
  C  C793  1  0.698400  0.157300  0.709400  1
  C  C794  1  0.698400  0.342700  0.790600  1
  C  C795  1  0.198400  0.657300  0.709400  1
  C  C796  1  0.198400  0.842700  0.790600  1
  C  C797  1  0.301600  0.842700  0.290600  1
  C  C798  1  0.301600  0.657300  0.209400  1
  C  C799  1  0.801600  0.342700  0.290600  1
  C  C800  1  0.801600  0.157300  0.209400  1
  C  C801  1  0.358300  0.049100  0.852800  1
  C  C802  1  0.358300  0.450900  0.647200  1
  C  C803  1  0.858300  0.549100  0.852800  1
  C  C804  1  0.858300  0.950900  0.647200  1
  C  C805  1  0.641700  0.950900  0.147200  1
  C  C806  1  0.641700  0.549100  0.352800  1
  C  C807  1  0.141700  0.450900  0.147200  1
  C  C808  1  0.141700  0.049100  0.352800  1
  C  C809  1  0.427700  0.031400  0.773900  1
  C  C810  1  0.427700  0.468600  0.726100  1
  C  C811  1  0.927700  0.531400  0.773900  1
  C  C812  1  0.927700  0.968600  0.726100  1
  C  C813  1  0.572300  0.968600  0.226100  1
  C  C814  1  0.572300  0.531400  0.273900  1
  C  C815  1  0.072300  0.468600  0.226100  1
  C  C816  1  0.072300  0.031400  0.273900  1
  C  C817  1  0.338300  0.110700  0.805600  1
  C  C818  1  0.338300  0.389300  0.694400  1
  C  C819  1  0.838300  0.610700  0.805600  1
  C  C820  1  0.838300  0.889300  0.694400  1
  C  C821  1  0.661700  0.889300  0.194400  1
  C  C822  1  0.661700  0.610700  0.305600  1
  C  C823  1  0.161700  0.389300  0.194400  1
  C  C824  1  0.161700  0.110700  0.305600  1
  C  C825  1  0.738800  0.365000  0.995400  1.0
  C  C826  1  0.738800  0.135000  0.504600  1.0
  C  C827  1  0.238800  0.865000  0.995400  1.0
  C  C828  1  0.238800  0.635000  0.504600  1.0
  C  C829  1  0.261200  0.635000  0.004600  1.0
  C  C830  1  0.261200  0.865000  0.495400  1.0
  C  C831  1  0.761200  0.135000  0.004600  1.0
  C  C832  1  0.761200  0.365000  0.495400  1.0
  C  C833  1  0.653100  0.173300  0.975800  1.0
  C  C834  1  0.653100  0.326700  0.524200  1.0
  C  C835  1  0.153100  0.673300  0.975800  1.0
  C  C836  1  0.153100  0.826700  0.524200  1.0
  C  C837  1  0.346900  0.826700  0.024200  1.0
  C  C838  1  0.346900  0.673300  0.475800  1.0
  C  C839  1  0.846900  0.326700  0.024200  1.0
  C  C840  1  0.846900  0.173300  0.475800  1.0
  C  C841  1  0.854200  0.355700  0.947800  1.0
  C  C842  1  0.854200  0.144300  0.552200  1.0
  C  C843  1  0.354200  0.855700  0.947800  1.0
  C  C844  1  0.354200  0.644300  0.552200  1.0
  C  C845  1  0.145800  0.644300  0.052200  1.0
  C  C846  1  0.145800  0.855700  0.447800  1.0
  C  C847  1  0.645800  0.144300  0.052200  1.0
  C  C848  1  0.645800  0.355700  0.447800  1.0
  C  C849  1  0.991500  0.402000  0.018100  1.0
  C  C850  1  0.991500  0.098000  0.481900  1.0
  C  C851  1  0.491500  0.902000  0.018100  1.0
  C  C852  1  0.491500  0.598000  0.481900  1.0
  C  C853  1  0.008500  0.598000  0.981900  1.0
  C  C854  1  0.008500  0.902000  0.518100  1.0
  C  C855  1  0.508500  0.098000  0.981900  1.0
  C  C856  1  0.508500  0.402000  0.518100  1.0
  C  C857  1  0.042700  0.446200  0.040100  1.0
  C  C858  1  0.042700  0.053800  0.459900  1.0
  C  C859  1  0.542700  0.946200  0.040100  1.0
  C  C860  1  0.542700  0.553800  0.459900  1.0
  C  C861  1  0.957300  0.553800  0.959900  1.0
  C  C862  1  0.957300  0.946200  0.540100  1.0
  C  C863  1  0.457300  0.053800  0.959900  1.0
  C  C864  1  0.457300  0.446200  0.540100  1.0
  C  C865  1  0.007500  0.497600  0.068300  1.0
  C  C866  1  0.007500  0.002400  0.431700  1.0
  C  C867  1  0.507500  0.997600  0.068300  1.0
  C  C868  1  0.507500  0.502400  0.431700  1.0
  C  C869  1  0.992500  0.502400  0.931700  1.0
  C  C870  1  0.992500  0.997600  0.568300  1.0
  C  C871  1  0.492500  0.002400  0.931700  1.0
  C  C872  1  0.492500  0.497600  0.568300  1.0
  C  C873  1  0.770700  0.487800  0.973300  1.0
  C  C874  1  0.770700  0.012200  0.526700  1.0
  C  C875  1  0.270700  0.987800  0.973300  1.0
  C  C876  1  0.270700  0.512200  0.526700  1.0
  C  C877  1  0.229300  0.512200  0.026700  1.0
  C  C878  1  0.229300  0.987800  0.473300  1.0
  C  C879  1  0.729300  0.012200  0.026700  1.0
  C  C880  1  0.729300  0.487800  0.473300  1.0
  C  C881  1  0.769100  0.550800  0.990900  1.0
  C  C882  1  0.769100  0.949200  0.509100  1.0
  C  C883  1  0.269100  0.050800  0.990900  1.0
  C  C884  1  0.269100  0.449200  0.509100  1.0
  C  C885  1  0.230900  0.449200  0.009100  1.0
  C  C886  1  0.230900  0.050800  0.490900  1.0
  C  C887  1  0.730900  0.949200  0.009100  1.0
  C  C888  1  0.730900  0.550800  0.490900  1.0
  C  C889  1  0.806200  0.573000  0.034400  1.0
  C  C890  1  0.806200  0.927000  0.465600  1.0
  C  C891  1  0.306200  0.073000  0.034400  1.0
  C  C892  1  0.306200  0.427000  0.465600  1.0
  C  C893  1  0.193800  0.427000  0.965600  1.0
  C  C894  1  0.193800  0.073000  0.534400  1.0
  C  C895  1  0.693800  0.927000  0.965600  1.0
  C  C896  1  0.693800  0.573000  0.534400  1.0
  C  C897  1  0.760600  0.428400  0.119600  1.0
  C  C898  1  0.760600  0.071600  0.380400  1.0
  C  C899  1  0.260600  0.928400  0.119600  1.0
  C  C900  1  0.260600  0.571600  0.380400  1.0
  C  C901  1  0.239400  0.571600  0.880400  1.0
  C  C902  1  0.239400  0.928400  0.619600  1.0
  C  C903  1  0.739400  0.071600  0.880400  1.0
  C  C904  1  0.739400  0.428400  0.619600  1.0
  C  C905  1  0.764700  0.474400  0.166800  1.0
  C  C906  1  0.764700  0.025600  0.333200  1.0
  C  C907  1  0.264700  0.974400  0.166800  1.0
  C  C908  1  0.264700  0.525600  0.333200  1.0
  C  C909  1  0.235300  0.525600  0.833200  1.0
  C  C910  1  0.235300  0.974400  0.666800  1.0
  C  C911  1  0.735300  0.025600  0.833200  1.0
  C  C912  1  0.735300  0.474400  0.666800  1.0
  C  C913  1  0.807900  0.516700  0.162300  1.0
  C  C914  1  0.807900  0.983300  0.337700  1.0
  C  C915  1  0.307900  0.016700  0.162300  1.0
  C  C916  1  0.307900  0.483300  0.337700  1.0
  C  C917  1  0.192100  0.483300  0.837700  1.0
  C  C918  1  0.192100  0.016700  0.662300  1.0
  C  C919  1  0.692100  0.983300  0.837700  1.0
  C  C920  1  0.692100  0.516700  0.662300  1.0
  C  C921  1  0.467700  0.215300  0.926300  1.0
  C  C922  1  0.467700  0.284700  0.573700  1.0
  C  C923  1  0.967700  0.715300  0.926300  1.0
  C  C924  1  0.967700  0.784700  0.573700  1.0
  C  C925  1  0.532300  0.784700  0.073700  1.0
  C  C926  1  0.532300  0.715300  0.426300  1.0
  C  C927  1  0.032300  0.284700  0.073700  1.0
  C  C928  1  0.032300  0.215300  0.426300  1.0
  C  C929  1  0.423100  0.170400  0.899000  1.0
  C  C930  1  0.423100  0.329600  0.601000  1.0
  C  C931  1  0.923100  0.670400  0.899000  1.0
  C  C932  1  0.923100  0.829600  0.601000  1.0
  C  C933  1  0.576900  0.829600  0.101000  1.0
  C  C934  1  0.576900  0.670400  0.399000  1.0
  C  C935  1  0.076900  0.329600  0.101000  1.0
  C  C936  1  0.076900  0.170400  0.399000  1.0
  C  C937  1  0.444600  0.128900  0.852100  1.0
  C  C938  1  0.444600  0.371100  0.647900  1.0
  C  C939  1  0.944600  0.628900  0.852100  1.0
  C  C940  1  0.944600  0.871100  0.647900  1.0
  C  C941  1  0.555400  0.871100  0.147900  1.0
  C  C942  1  0.555400  0.628900  0.352100  1.0
  C  C943  1  0.055400  0.371100  0.147900  1.0
  C  C944  1  0.055400  0.128900  0.352100  1.0
  C  C945  1  0.511200  0.134700  0.838300  1.0
  C  C946  1  0.511200  0.365300  0.661700  1.0
  C  C947  1  0.011200  0.634700  0.838300  1.0
  C  C948  1  0.011200  0.865300  0.661700  1.0
  C  C949  1  0.488800  0.865300  0.161700  1.0
  C  C950  1  0.488800  0.634700  0.338300  1.0
  C  C951  1  0.988800  0.365300  0.161700  1.0
  C  C952  1  0.988800  0.134700  0.338300  1.0
  C  C953  1  0.553400  0.181500  0.866500  1.0
  C  C954  1  0.553400  0.318500  0.633500  1.0
  C  C955  1  0.053400  0.681500  0.866500  1.0
  C  C956  1  0.053400  0.818500  0.633500  1.0
  C  C957  1  0.446600  0.818500  0.133500  1.0
  C  C958  1  0.446600  0.681500  0.366500  1.0
  C  C959  1  0.946600  0.318500  0.133500  1.0
  C  C960  1  0.946600  0.181500  0.366500  1.0
  C  C961  1  0.623600  0.191900  0.851000  1.0
  C  C962  1  0.623600  0.308100  0.649000  1.0
  C  C963  1  0.123600  0.691900  0.851000  1.0
  C  C964  1  0.123600  0.808100  0.649000  1.0
  C  C965  1  0.376400  0.808100  0.149000  1.0
  C  C966  1  0.376400  0.691900  0.351000  1.0
  C  C967  1  0.876400  0.308100  0.149000  1.0
  C  C968  1  0.876400  0.191900  0.351000  1.0
  C  C969  1  0.654400  0.157100  0.806600  1.0
  C  C970  1  0.654400  0.342900  0.693400  1.0
  C  C971  1  0.154400  0.657100  0.806600  1.0
  C  C972  1  0.154400  0.842900  0.693400  1.0
  C  C973  1  0.345600  0.842900  0.193400  1.0
  C  C974  1  0.345600  0.657100  0.306600  1.0
  C  C975  1  0.845600  0.342900  0.193400  1.0
  C  C976  1  0.845600  0.157100  0.306600  1.0
  C  C977  1  0.718300  0.169700  0.792200  1.0
  C  C978  1  0.718300  0.330300  0.707800  1.0
  C  C979  1  0.218300  0.669700  0.792200  1.0
  C  C980  1  0.218300  0.830300  0.707800  1.0
  C  C981  1  0.281700  0.830300  0.207800  1.0
  C  C982  1  0.281700  0.669700  0.292200  1.0
  C  C983  1  0.781700  0.330300  0.207800  1.0
  C  C984  1  0.781700  0.169700  0.292200  1.0
  C  C985  1  0.753100  0.219800  0.828000  1.0
  C  C986  1  0.753100  0.280200  0.672000  1.0
  C  C987  1  0.253100  0.719800  0.828000  1.0
  C  C988  1  0.253100  0.780200  0.672000  1.0
  C  C989  1  0.246900  0.780200  0.172000  1.0
  C  C990  1  0.246900  0.719800  0.328000  1.0
  C  C991  1  0.746900  0.280200  0.172000  1.0
  C  C992  1  0.746900  0.219800  0.328000  1.0
  C  C993  1  0.720300  0.252400  0.871700  1.0
  C  C994  1  0.720300  0.247600  0.628300  1.0
  C  C995  1  0.220300  0.752400  0.871700  1.0
  C  C996  1  0.220300  0.747600  0.628300  1.0
  C  C997  1  0.279700  0.747600  0.128300  1.0
  C  C998  1  0.279700  0.752400  0.371700  1.0
  C  C999  1  0.779700  0.247600  0.128300  1.0
  C  C1000  1  0.779700  0.252400  0.371700  1.0
  C  C1001  1  0.556400  0.354700  0.896000  1.0
  C  C1002  1  0.556400  0.145300  0.604000  1.0
  C  C1003  1  0.056400  0.854700  0.896000  1.0
  C  C1004  1  0.056400  0.645300  0.604000  1.0
  C  C1005  1  0.443600  0.645300  0.104000  1.0
  C  C1006  1  0.443600  0.854700  0.396000  1.0
  C  C1007  1  0.943600  0.145300  0.104000  1.0
  C  C1008  1  0.943600  0.354700  0.396000  1.0
  C  C1009  1  0.511700  0.390700  0.884500  1.0
  C  C1010  1  0.511700  0.109300  0.615500  1.0
  C  C1011  1  0.011700  0.890700  0.884500  1.0
  C  C1012  1  0.011700  0.609300  0.615500  1.0
  C  C1013  1  0.488300  0.609300  0.115500  1.0
  C  C1014  1  0.488300  0.890700  0.384500  1.0
  C  C1015  1  0.988300  0.109300  0.115500  1.0
  C  C1016  1  0.988300  0.390700  0.384500  1.0
  C  C1017  1  0.455800  0.418800  0.916000  1.0
  C  C1018  1  0.455800  0.081200  0.584000  1.0
  C  C1019  1  0.955800  0.918800  0.916000  1.0
  C  C1020  1  0.955800  0.581200  0.584000  1.0
  C  C1021  1  0.544200  0.581200  0.084000  1.0
  C  C1022  1  0.544200  0.918800  0.416000  1.0
  C  C1023  1  0.044200  0.081200  0.084000  1.0
  C  C1024  1  0.044200  0.418800  0.416000  1.0
  C  C1025  1  0.450900  0.406900  0.958500  1.0
  C  C1026  1  0.450900  0.093100  0.541500  1.0
  C  C1027  1  0.950900  0.906900  0.958500  1.0
  C  C1028  1  0.950900  0.593100  0.541500  1.0
  C  C1029  1  0.549100  0.593100  0.041500  1.0
  C  C1030  1  0.549100  0.906900  0.458500  1.0
  C  C1031  1  0.049100  0.093100  0.041500  1.0
  C  C1032  1  0.049100  0.406900  0.458500  1.0
  C  C1033  1  0.498400  0.370100  0.968700  1.0
  C  C1034  1  0.498400  0.129900  0.531300  1.0
  C  C1035  1  0.998400  0.870100  0.968700  1.0
  C  C1036  1  0.998400  0.629900  0.531300  1.0
  C  C1037  1  0.501600  0.629900  0.031300  1.0
  C  C1038  1  0.501600  0.870100  0.468700  1.0
  C  C1039  1  0.001600  0.129900  0.031300  1.0
  C  C1040  1  0.001600  0.370100  0.468700  1.0
  C  C1041  1  0.497600  0.357200  0.013300  1.0
  C  C1042  1  0.497600  0.142800  0.486700  1.0
  C  C1043  1  0.997600  0.857200  0.013300  1.0
  C  C1044  1  0.997600  0.642800  0.486700  1.0
  C  C1045  1  0.502400  0.642800  0.986700  1.0
  C  C1046  1  0.502400  0.857200  0.513300  1.0
  C  C1047  1  0.002400  0.142800  0.986700  1.0
  C  C1048  1  0.002400  0.357200  0.513300  1.0
  C  C1049  1  0.449900  0.381100  0.052300  1.0
  C  C1050  1  0.449900  0.118900  0.447700  1.0
  C  C1051  1  0.949900  0.881100  0.052300  1.0
  C  C1052  1  0.949900  0.618900  0.447700  1.0
  C  C1053  1  0.550100  0.618900  0.947700  1.0
  C  C1054  1  0.550100  0.881100  0.552300  1.0
  C  C1055  1  0.050100  0.118900  0.947700  1.0
  C  C1056  1  0.050100  0.381100  0.552300  1.0
  C  C1057  1  0.453900  0.368400  0.094100  1.0
  C  C1058  1  0.453900  0.131600  0.405900  1.0
  C  C1059  1  0.953900  0.868400  0.094100  1.0
  C  C1060  1  0.953900  0.631600  0.405900  1.0
  C  C1061  1  0.546100  0.631600  0.905900  1.0
  C  C1062  1  0.546100  0.868400  0.594100  1.0
  C  C1063  1  0.046100  0.131600  0.905900  1.0
  C  C1064  1  0.046100  0.368400  0.594100  1.0
  C  C1065  1  0.507900  0.331700  0.095100  1.0
  C  C1066  1  0.507900  0.168300  0.404900  1.0
  C  C1067  1  0.007900  0.831700  0.095100  1.0
  C  C1068  1  0.007900  0.668300  0.404900  1.0
  C  C1069  1  0.492100  0.668300  0.904900  1.0
  C  C1070  1  0.492100  0.831700  0.595100  1.0
  C  C1071  1  0.992100  0.168300  0.904900  1.0
  C  C1072  1  0.992100  0.331700  0.595100  1.0
  C  C1073  1  0.554400  0.307500  0.055000  1.0
  C  C1074  1  0.554400  0.192500  0.445000  1.0
  C  C1075  1  0.054400  0.807500  0.055000  1.0
  C  C1076  1  0.054400  0.692500  0.445000  1.0
  C  C1077  1  0.445600  0.692500  0.945000  1.0
  C  C1078  1  0.445600  0.807500  0.555000  1.0
  C  C1079  1  0.945600  0.192500  0.945000  1.0
  C  C1080  1  0.945600  0.307500  0.555000  1.0
  C  C1081  1  0.003900  0.339200  0.984300  1.0
  C  C1082  1  0.003900  0.160800  0.515700  1.0
  C  C1083  1  0.503900  0.839200  0.984300  1.0
  C  C1084  1  0.503900  0.660800  0.515700  1.0
  C  C1085  1  0.996100  0.660800  0.015700  1.0
  C  C1086  1  0.996100  0.839200  0.484300  1.0
  C  C1087  1  0.496100  0.160800  0.015700  1.0
  C  C1088  1  0.496100  0.339200  0.484300  1.0
  C  C1089  1  0.034500  0.560000  0.100600  1.0
  C  C1090  1  0.034500  0.940000  0.399400  1.0
  C  C1091  1  0.534500  0.060000  0.100600  1.0
  C  C1092  1  0.534500  0.440000  0.399400  1.0
  C  C1093  1  0.965500  0.440000  0.899400  1.0
  C  C1094  1  0.965500  0.060000  0.600600  1.0
  C  C1095  1  0.465500  0.940000  0.899400  1.0
  C  C1096  1  0.465500  0.560000  0.600600  1.0
  C  C1097  1  0.737200  0.443900  0.929700  1.0
  C  C1098  1  0.737200  0.056100  0.570300  1.0
  C  C1099  1  0.237200  0.943900  0.929700  1.0
  C  C1100  1  0.237200  0.556100  0.570300  1.0
  C  C1101  1  0.262800  0.556100  0.070300  1.0
  C  C1102  1  0.262800  0.943900  0.429700  1.0
  C  C1103  1  0.762800  0.056100  0.070300  1.0
  C  C1104  1  0.762800  0.443900  0.429700  1.0
  C  C1105  1  0.822000  0.636300  0.068400  1.0
  C  C1106  1  0.822000  0.863700  0.431600  1.0
  C  C1107  1  0.322000  0.136300  0.068400  1.0
  C  C1108  1  0.322000  0.363700  0.431600  1.0
  C  C1109  1  0.178000  0.363700  0.931600  1.0
  C  C1110  1  0.178000  0.136300  0.568400  1.0
  C  C1111  1  0.678000  0.863700  0.931600  1.0
  C  C1112  1  0.678000  0.636300  0.568400  1.0
  C  C1113  1  0.715900  0.373000  0.104800  1.0
  C  C1114  1  0.715900  0.127000  0.395200  1.0
  C  C1115  1  0.215900  0.873000  0.104800  1.0
  C  C1116  1  0.215900  0.627000  0.395200  1.0
  C  C1117  1  0.284100  0.627000  0.895200  1.0
  C  C1118  1  0.284100  0.873000  0.604800  1.0
  C  C1119  1  0.784100  0.127000  0.895200  1.0
  C  C1120  1  0.784100  0.373000  0.604800  1.0
  C  C1121  1  0.831300  0.575900  0.200400  1.0
  C  C1122  1  0.831300  0.924100  0.299600  1.0
  C  C1123  1  0.331300  0.075900  0.200400  1.0
  C  C1124  1  0.331300  0.424100  0.299600  1.0
  C  C1125  1  0.168700  0.424100  0.799600  1.0
  C  C1126  1  0.168700  0.075900  0.700400  1.0
  C  C1127  1  0.668700  0.924100  0.799600  1.0
  C  C1128  1  0.668700  0.575900  0.700400  1.0
  C  C1129  1  0.751500  0.134600  0.742800  1.0
  C  C1130  1  0.751500  0.365400  0.757200  1.0
  C  C1131  1  0.251500  0.634600  0.742800  1.0
  C  C1132  1  0.251500  0.865400  0.757200  1.0
  C  C1133  1  0.248500  0.865400  0.257200  1.0
  C  C1134  1  0.248500  0.634600  0.242800  1.0
  C  C1135  1  0.748500  0.365400  0.257200  1.0
  C  C1136  1  0.748500  0.134600  0.242800  1.0
  C  C1137  1  0.403300  0.391500  0.136500  1.0
  C  C1138  1  0.403300  0.108500  0.363500  1.0
  C  C1139  1  0.903300  0.891500  0.136500  1.0
  C  C1140  1  0.903300  0.608500  0.363500  1.0
  C  C1141  1  0.596700  0.608500  0.863500  1.0
  C  C1142  1  0.596700  0.891500  0.636500  1.0
  C  C1143  1  0.096700  0.108500  0.863500  1.0
  C  C1144  1  0.096700  0.391500  0.636500  1.0
  C  C1145  1  0.374000  0.506800  0.948800  1.0
  C  C1146  1  0.374000  0.993200  0.551200  1.0
  C  C1147  1  0.874000  0.006800  0.948800  1.0
  C  C1148  1  0.874000  0.493200  0.551200  1.0
  C  C1149  1  0.626000  0.493200  0.051200  1.0
  C  C1150  1  0.626000  0.006800  0.448800  1.0
  C  C1151  1  0.126000  0.993200  0.051200  1.0
  C  C1152  1  0.126000  0.506800  0.448800  1.0
  C  C1153  1  0.341400  0.412400  0.877400  1.0
  C  C1154  1  0.341400  0.087600  0.622600  1.0
  C  C1155  1  0.841400  0.912400  0.877400  1.0
  C  C1156  1  0.841400  0.587600  0.622600  1.0
  C  C1157  1  0.658600  0.587600  0.122600  1.0
  C  C1158  1  0.658600  0.912400  0.377400  1.0
  C  C1159  1  0.158600  0.087600  0.122600  1.0
  C  C1160  1  0.158600  0.412400  0.377400  1.0
  C  C1161  1  0.431600  0.481000  0.867800  1.0
  C  C1162  1  0.431600  0.019000  0.632200  1.0
  C  C1163  1  0.931600  0.981000  0.867800  1.0
  C  C1164  1  0.931600  0.519000  0.632200  1.0
  C  C1165  1  0.568400  0.519000  0.132200  1.0
  C  C1166  1  0.568400  0.981000  0.367800  1.0
  C  C1167  1  0.068400  0.019000  0.132200  1.0
  C  C1168  1  0.068400  0.481000  0.367800  1.0
  C  C1169  1  0.369200  0.336900  0.143900  1.0
  C  C1170  1  0.369200  0.163100  0.356100  1.0
  C  C1171  1  0.869200  0.836900  0.143900  1.0
  C  C1172  1  0.869200  0.663100  0.356100  1.0
  C  C1173  1  0.630800  0.663100  0.856100  1.0
  C  C1174  1  0.630800  0.836900  0.643900  1.0
  C  C1175  1  0.130800  0.163100  0.856100  1.0
  C  C1176  1  0.130800  0.336900  0.643900  1.0
  C  C1177  1  0.347800  0.429800  0.128400  1.0
  C  C1178  1  0.347800  0.070200  0.371600  1.0
  C  C1179  1  0.847800  0.929800  0.128400  1.0
  C  C1180  1  0.847800  0.570200  0.371600  1.0
  C  C1181  1  0.652200  0.570200  0.871600  1.0
  C  C1182  1  0.652200  0.929800  0.628400  1.0
  C  C1183  1  0.152200  0.070200  0.871600  1.0
  C  C1184  1  0.152200  0.429800  0.628400  1.0
  C  C1185  1  0.445000  0.427400  0.184200  1.0
  C  C1186  1  0.445000  0.072600  0.315800  1.0
  C  C1187  1  0.945000  0.927400  0.184200  1.0
  C  C1188  1  0.945000  0.572600  0.315800  1.0
  C  C1189  1  0.555000  0.572600  0.815800  1.0
  C  C1190  1  0.555000  0.927400  0.684200  1.0
  C  C1191  1  0.055000  0.072600  0.815800  1.0
  C  C1192  1  0.055000  0.427400  0.684200  1.0
  C  C1193  1  0.829900  0.115200  0.753600  1.0
  C  C1194  1  0.829900  0.384800  0.746400  1.0
  C  C1195  1  0.329900  0.615200  0.753600  1.0
  C  C1196  1  0.329900  0.884800  0.746400  1.0
  C  C1197  1  0.170100  0.884800  0.246400  1.0
  C  C1198  1  0.170100  0.615200  0.253600  1.0
  C  C1199  1  0.670100  0.384800  0.246400  1.0
  C  C1200  1  0.670100  0.115200  0.253600  1.0
  C  C1201  1  0.715700  0.074800  0.714100  1.0
  C  C1202  1  0.715700  0.425200  0.785900  1.0
  C  C1203  1  0.215700  0.574800  0.714100  1.0
  C  C1204  1  0.215700  0.925200  0.785900  1.0
  C  C1205  1  0.284300  0.925200  0.285900  1.0
  C  C1206  1  0.284300  0.574800  0.214100  1.0
  C  C1207  1  0.784300  0.425200  0.285900  1.0
  C  C1208  1  0.784300  0.074800  0.214100  1.0
  C  C1209  1  0.762600  0.170700  0.714300  1.0
  C  C1210  1  0.762600  0.329300  0.785700  1.0
  C  C1211  1  0.262600  0.670700  0.714300  1.0
  C  C1212  1  0.262600  0.829300  0.785700  1.0
  C  C1213  1  0.237400  0.829300  0.285700  1.0
  C  C1214  1  0.237400  0.670700  0.214300  1.0
  C  C1215  1  0.737400  0.329300  0.285700  1.0
  C  C1216  1  0.737400  0.170700  0.214300  1.0
  C  C1217  1  0.401600  0.455200  0.902700  1.0
  C  C1218  1  0.401600  0.044800  0.597300  1.0
  C  C1219  1  0.901600  0.955200  0.902700  1.0
  C  C1220  1  0.901600  0.544800  0.597300  1.0
  C  C1221  1  0.598400  0.544800  0.097300  1.0
  C  C1222  1  0.598400  0.955200  0.402700  1.0
  C  C1223  1  0.098400  0.044800  0.097300  1.0
  C  C1224  1  0.098400  0.455200  0.402700  1.0
  C  C1225  1  0.332400  0.068400  0.844100  1.0
  C  C1226  1  0.332400  0.431600  0.655900  1.0
  C  C1227  1  0.832400  0.568400  0.844100  1.0
  C  C1228  1  0.832400  0.931600  0.655900  1.0
  C  C1229  1  0.667600  0.931600  0.155900  1.0
  C  C1230  1  0.667600  0.568400  0.344100  1.0
  C  C1231  1  0.167600  0.431600  0.155900  1.0
  C  C1232  1  0.167600  0.068400  0.344100  1.0
  C  C1233  1  0.397800  0.069600  0.768900  1.0
  C  C1234  1  0.397800  0.430400  0.731100  1.0
  C  C1235  1  0.897800  0.569600  0.768900  1.0
  C  C1236  1  0.897800  0.930400  0.731100  1.0
  C  C1237  1  0.602200  0.930400  0.231100  1.0
  C  C1238  1  0.602200  0.569600  0.268900  1.0
  C  C1239  1  0.102200  0.430400  0.231100  1.0
  C  C1240  1  0.102200  0.069600  0.268900  1.0
  C  C1241  1  0.397700  0.077900  0.821500  1.0
  C  C1242  1  0.397700  0.422100  0.678500  1.0
  C  C1243  1  0.897700  0.577900  0.821500  1.0
  C  C1244  1  0.897700  0.922100  0.678500  1.0
  C  C1245  1  0.602300  0.922100  0.178500  1.0
  C  C1246  1  0.602300  0.577900  0.321500  1.0
  C  C1247  1  0.102300  0.422100  0.178500  1.0
  C  C1248  1  0.102300  0.077900  0.321500  1.0
  C  C1249  1  0.452700  0.013400  0.813300  1.0
  C  C1250  1  0.452700  0.486600  0.686700  1.0
  C  C1251  1  0.952700  0.513400  0.813300  1.0
  C  C1252  1  0.952700  0.986600  0.686700  1.0
  C  C1253  1  0.547300  0.986600  0.186700  1.0
  C  C1254  1  0.547300  0.513400  0.313300  1.0
  C  C1255  1  0.047300  0.486600  0.186700  1.0
  C  C1256  1  0.047300  0.013400  0.313300  1.0
  N  N1257  1  0.686500  0.338090  0.980390  1.0
  N  N1258  1  0.686500  0.161910  0.519610  1.0
  N  N1259  1  0.186500  0.838090  0.980390  1.0
  N  N1260  1  0.186500  0.661910  0.519610  1.0
  N  N1261  1  0.313500  0.661910  0.019610  1.0
  N  N1262  1  0.313500  0.838090  0.480390  1.0
  N  N1263  1  0.813500  0.161910  0.019610  1.0
  N  N1264  1  0.813500  0.338090  0.480390  1.0
  N  N1265  1  0.644100  0.217360  0.970710  1.0
  N  N1266  1  0.644100  0.282640  0.529290  1.0
  N  N1267  1  0.144100  0.717360  0.970710  1.0
  N  N1268  1  0.144100  0.782640  0.529290  1.0
  N  N1269  1  0.355900  0.782640  0.029290  1.0
  N  N1270  1  0.355900  0.717360  0.470710  1.0
  N  N1271  1  0.855900  0.282640  0.029290  1.0
  N  N1272  1  0.855900  0.217360  0.470710  1.0
  N  N1273  1  0.868500  0.327000  0.906300  1.0
  N  N1274  1  0.868500  0.173000  0.593700  1.0
  N  N1275  1  0.368500  0.827000  0.906300  1.0
  N  N1276  1  0.368500  0.673000  0.593700  1.0
  N  N1277  1  0.131500  0.673000  0.093700  1.0
  N  N1278  1  0.131500  0.827000  0.406300  1.0
  N  N1279  1  0.631500  0.173000  0.093700  1.0
  N  N1280  1  0.631500  0.327000  0.406300  1.0
  N  N1281  1  0.927500  0.426700  0.032600  1.0
  N  N1282  1  0.927500  0.073300  0.467400  1.0
  N  N1283  1  0.427500  0.926700  0.032600  1.0
  N  N1284  1  0.427500  0.573300  0.467400  1.0
  N  N1285  1  0.072500  0.573300  0.967400  1.0
  N  N1286  1  0.072500  0.926700  0.532600  1.0
  N  N1287  1  0.572500  0.073300  0.967400  1.0
  N  N1288  1  0.572500  0.426700  0.532600  1.0
  N  N1289  1  0.937400  0.485700  0.064100  1.0
  N  N1290  1  0.937400  0.014300  0.435900  1.0
  N  N1291  1  0.437400  0.985700  0.064100  1.0
  N  N1292  1  0.437400  0.514300  0.435900  1.0
  N  N1293  1  0.062600  0.514300  0.935900  1.0
  N  N1294  1  0.062600  0.985700  0.564100  1.0
  N  N1295  1  0.562600  0.014300  0.935900  1.0
  N  N1296  1  0.562600  0.485700  0.564100  1.0
  N  N1297  1  0.807800  0.474200  0.006600  1.0
  N  N1298  1  0.807800  0.025800  0.493400  1.0
  N  N1299  1  0.307800  0.974200  0.006600  1.0
  N  N1300  1  0.307800  0.525800  0.493400  1.0
  N  N1301  1  0.192200  0.525800  0.993400  1.0
  N  N1302  1  0.192200  0.974200  0.506600  1.0
  N  N1303  1  0.692200  0.025800  0.993400  1.0
  N  N1304  1  0.692200  0.474200  0.506600  1.0
  N  N1305  1  0.829300  0.526800  0.044500  1.0
  N  N1306  1  0.829300  0.973200  0.455500  1.0
  N  N1307  1  0.329300  0.026800  0.044500  1.0
  N  N1308  1  0.329300  0.473200  0.455500  1.0
  N  N1309  1  0.170700  0.473200  0.955500  1.0
  N  N1310  1  0.170700  0.026800  0.544500  1.0
  N  N1311  1  0.670700  0.973200  0.955500  1.0
  N  N1312  1  0.670700  0.526800  0.544500  1.0
  N  N1313  1  0.800700  0.441000  0.088010  1.0
  N  N1314  1  0.800700  0.059000  0.411990  1.0
  N  N1315  1  0.300700  0.941000  0.088010  1.0
  N  N1316  1  0.300700  0.559000  0.411990  1.0
  N  N1317  1  0.199300  0.559000  0.911990  1.0
  N  N1318  1  0.199300  0.941000  0.588010  1.0
  N  N1319  1  0.699300  0.059000  0.911990  1.0
  N  N1320  1  0.699300  0.441000  0.588010  1.0
  N  N1321  1  0.829700  0.496600  0.115400  1.0
  N  N1322  1  0.829700  0.003400  0.384600  1.0
  N  N1323  1  0.329700  0.996600  0.115400  1.0
  N  N1324  1  0.329700  0.503400  0.384600  1.0
  N  N1325  1  0.170300  0.503400  0.884600  1.0
  N  N1326  1  0.170300  0.996600  0.615400  1.0
  N  N1327  1  0.670300  0.003400  0.884600  1.0
  N  N1328  1  0.670300  0.496600  0.615400  1.0
  N  N1329  1  0.531700  0.221200  0.911400  1.0
  N  N1330  1  0.531700  0.278800  0.588600  1.0
  N  N1331  1  0.031700  0.721200  0.911400  1.0
  N  N1332  1  0.031700  0.778800  0.588600  1.0
  N  N1333  1  0.468300  0.778800  0.088600  1.0
  N  N1334  1  0.468300  0.721200  0.411400  1.0
  N  N1335  1  0.968300  0.278800  0.088600  1.0
  N  N1336  1  0.968300  0.221200  0.411400  1.0
  N  N1337  1  0.656300  0.240500  0.884300  1.0
  N  N1338  1  0.656300  0.259500  0.615700  1.0
  N  N1339  1  0.156300  0.740500  0.884300  1.0
  N  N1340  1  0.156300  0.759500  0.615700  1.0
  N  N1341  1  0.343700  0.759500  0.115700  1.0
  N  N1342  1  0.343700  0.740500  0.384300  1.0
  N  N1343  1  0.843700  0.259500  0.115700  1.0
  N  N1344  1  0.843700  0.240500  0.384300  1.0
  N  N1345  1  0.551800  0.343440  0.936540  1.0
  N  N1346  1  0.551800  0.156560  0.563460  1.0
  N  N1347  1  0.051800  0.843440  0.936540  1.0
  N  N1348  1  0.051800  0.656560  0.563460  1.0
  N  N1349  1  0.448200  0.656560  0.063460  1.0
  N  N1350  1  0.448200  0.843440  0.436540  1.0
  N  N1351  1  0.948200  0.156560  0.063460  1.0
  N  N1352  1  0.948200  0.343440  0.436540  1.0
  N  N1353  1  0.548400  0.319000  0.013700  1.0
  N  N1354  1  0.548400  0.181000  0.486300  1.0
  N  N1355  1  0.048400  0.819000  0.013700  1.0
  N  N1356  1  0.048400  0.681000  0.486300  1.0
  N  N1357  1  0.451600  0.681000  0.986300  1.0
  N  N1358  1  0.451600  0.819000  0.513700  1.0
  N  N1359  1  0.951600  0.181000  0.986300  1.0
  N  N1360  1  0.951600  0.319000  0.513700  1.0
  O  O1361  1  0.942700  0.239500  0.831000  1
  O  O1362  1  0.942700  0.260500  0.669000  1
  O  O1363  1  0.442700  0.739500  0.831000  1
  O  O1364  1  0.442700  0.760500  0.669000  1
  O  O1365  1  0.057300  0.760500  0.169000  1
  O  O1366  1  0.057300  0.739500  0.331000  1
  O  O1367  1  0.557300  0.260500  0.169000  1
  O  O1368  1  0.557300  0.239500  0.331000  1
  F  F1369  1  0.219100  0.186400  0.991800  1
  F  F1370  1  0.219100  0.313600  0.508200  1
  F  F1371  1  0.719100  0.686400  0.991800  1
  F  F1372  1  0.719100  0.813600  0.508200  1
  F  F1373  1  0.780900  0.813600  0.008200  1
  F  F1374  1  0.780900  0.686400  0.491800  1
  F  F1375  1  0.280900  0.313600  0.008200  1
  F  F1376  1  0.280900  0.186400  0.491800  1
  F  F1377  1  0.247600  0.257600  0.052700  1
  F  F1378  1  0.247600  0.242400  0.447300  1
  F  F1379  1  0.747600  0.757600  0.052700  1
  F  F1380  1  0.747600  0.742400  0.447300  1
  F  F1381  1  0.752400  0.742400  0.947300  1
  F  F1382  1  0.752400  0.757600  0.552700  1
  F  F1383  1  0.252400  0.242400  0.947300  1
  F  F1384  1  0.252400  0.257600  0.552700  1
  F  F1385  1  0.164200  0.260300  0.989800  1
  F  F1386  1  0.164200  0.239700  0.510200  1
  F  F1387  1  0.664200  0.760300  0.989800  1
  F  F1388  1  0.664200  0.739700  0.510200  1
  F  F1389  1  0.835800  0.739700  0.010200  1
  F  F1390  1  0.835800  0.760300  0.489800  1
  F  F1391  1  0.335800  0.239700  0.010200  1
  F  F1392  1  0.335800  0.260300  0.489800  1
  F  F1393  1  0.008300  0.264100  0.201400  1
  F  F1394  1  0.008300  0.235900  0.298600  1
  F  F1395  1  0.508300  0.764100  0.201400  1
  F  F1396  1  0.508300  0.735900  0.298600  1
  F  F1397  1  0.991700  0.735900  0.798600  1
  F  F1398  1  0.991700  0.764100  0.701400  1
  F  F1399  1  0.491700  0.235900  0.798600  1
  F  F1400  1  0.491700  0.264100  0.701400  1
  F  F1401  1  0.033700  0.197300  0.225700  1
  F  F1402  1  0.033700  0.302700  0.274300  1
  F  F1403  1  0.533700  0.697300  0.225700  1
  F  F1404  1  0.533700  0.802700  0.274300  1
  F  F1405  1  0.966300  0.802700  0.774300  1
  F  F1406  1  0.966300  0.697300  0.725700  1
  F  F1407  1  0.466300  0.302700  0.774300  1
  F  F1408  1  0.466300  0.197300  0.725700  1
  F  F1409  1  0.912500  0.226700  0.225100  1
  F  F1410  1  0.912500  0.273300  0.274900  1
  F  F1411  1  0.412500  0.726700  0.225100  1
  F  F1412  1  0.412500  0.773300  0.274900  1
  F  F1413  1  0.087500  0.773300  0.774900  1
  F  F1414  1  0.087500  0.726700  0.725100  1
  F  F1415  1  0.587500  0.273300  0.774900  1
  F  F1416  1  0.587500  0.226700  0.725100  1
  F  F1417  1  0.228400  0.248400  0.052100  1.0
  F  F1418  1  0.228400  0.251600  0.447900  1.0
  F  F1419  1  0.728400  0.748400  0.052100  1.0
  F  F1420  1  0.728400  0.751600  0.447900  1.0
  F  F1421  1  0.771600  0.751600  0.947900  1.0
  F  F1422  1  0.771600  0.748400  0.552100  1.0
  F  F1423  1  0.271600  0.251600  0.947900  1.0
  F  F1424  1  0.271600  0.248400  0.552100  1.0
  F  F1425  1  0.176100  0.258100  0.984800  1.0
  F  F1426  1  0.176100  0.241900  0.515200  1.0
  F  F1427  1  0.676100  0.758100  0.984800  1.0
  F  F1428  1  0.676100  0.741900  0.515200  1.0
  F  F1429  1  0.823900  0.741900  0.015200  1.0
  F  F1430  1  0.823900  0.758100  0.484800  1.0
  F  F1431  1  0.323900  0.241900  0.015200  1.0
  F  F1432  1  0.323900  0.258100  0.484800  1.0
  F  F1433  1  0.247900  0.319700  0.029300  1.0
  F  F1434  1  0.247900  0.180300  0.470700  1.0
  F  F1435  1  0.747900  0.819700  0.029300  1.0
  F  F1436  1  0.747900  0.680300  0.470700  1.0
  F  F1437  1  0.752100  0.680300  0.970700  1.0
  F  F1438  1  0.752100  0.819700  0.529300  1.0
  F  F1439  1  0.252100  0.180300  0.970700  1.0
  F  F1440  1  0.252100  0.319700  0.529300  1.0
  F  F1441  1  0.053700  0.228100  0.214100  1.0
  F  F1442  1  0.053700  0.271900  0.285900  1.0
  F  F1443  1  0.553700  0.728100  0.214100  1.0
  F  F1444  1  0.553700  0.771900  0.285900  1.0
  F  F1445  1  0.946300  0.771900  0.785900  1.0
  F  F1446  1  0.946300  0.728100  0.714100  1.0
  F  F1447  1  0.446300  0.271900  0.785900  1.0
  F  F1448  1  0.446300  0.228100  0.714100  1.0
  F  F1449  1  0.982300  0.319800  0.262700  1.0
  F  F1450  1  0.982300  0.180200  0.237300  1.0
  F  F1451  1  0.482300  0.819800  0.262700  1.0
  F  F1452  1  0.482300  0.680200  0.237300  1.0
  F  F1453  1  0.017700  0.680200  0.737300  1.0
  F  F1454  1  0.017700  0.819800  0.762700  1.0
  F  F1455  1  0.517700  0.180200  0.737300  1.0
  F  F1456  1  0.517700  0.319800  0.762700  1.0
  F  F1457  1  0.934300  0.239200  0.205800  1.0
  F  F1458  1  0.934300  0.260800  0.294200  1.0
  F  F1459  1  0.434300  0.739200  0.205800  1.0
  F  F1460  1  0.434300  0.760800  0.294200  1.0
  F  F1461  1  0.065700  0.760800  0.794200  1.0
  F  F1462  1  0.065700  0.739200  0.705800  1.0
  F  F1463  1  0.565700  0.260800  0.794200  1.0
  F  F1464  1  0.565700  0.239200  0.705800  1.0
