# generated using pymatgen
data_FeCoBPH92C61N13OF9
_symmetry_space_group_name_H-M   'P 1'
_cell_length_a   18.76200000
_cell_length_b   24.55600000
_cell_length_c   29.25500000
_cell_angle_alpha   113.42700000
_cell_angle_beta   90.00000000
_cell_angle_gamma   90.00000000
_symmetry_Int_Tables_number   1
_chemical_formula_structural   FeCoBPH92C61N13OF9
_chemical_formula_sum   'Fe8 Co8 B8 P8 H736 C488 N104 O8 F72'
_cell_volume   12367.29786611
_cell_formula_units_Z   8
loop_
 _symmetry_equiv_pos_site_id
 _symmetry_equiv_pos_as_xyz
  1  'x, y, z'
loop_
 _atom_site_type_symbol
 _atom_site_label
 _atom_site_symmetry_multiplicity
 _atom_site_fract_x
 _atom_site_fract_y
 _atom_site_fract_z
 _atom_site_occupancy
  Fe  Fe1  1  0.072830  0.356050  0.984970  1.0
  Fe  Fe2  1  0.072830  0.643950  0.515030  1.0
  Fe  Fe3  1  0.572830  0.856050  0.984970  1.0
  Fe  Fe4  1  0.572830  0.143950  0.515030  1.0
  Fe  Fe5  1  0.927170  0.643950  0.015030  1.0
  Fe  Fe6  1  0.927170  0.356050  0.484970  1.0
  Fe  Fe7  1  0.427170  0.143950  0.015030  1.0
  Fe  Fe8  1  0.427170  0.856050  0.484970  1.0
  Co  Co9  1  0.855940  0.472450  0.050250  1.0
  Co  Co10  1  0.855940  0.527550  0.449750  1.0
  Co  Co11  1  0.355940  0.972450  0.050250  1.0
  Co  Co12  1  0.355940  0.027550  0.449750  1.0
  Co  Co13  1  0.144060  0.527550  0.949750  1.0
  Co  Co14  1  0.144060  0.472450  0.550250  1.0
  Co  Co15  1  0.644060  0.027550  0.949750  1.0
  Co  Co16  1  0.644060  0.972450  0.550250  1.0
  B  B17  1  0.121100  0.228000  0.915600  1.0
  B  B18  1  0.121100  0.772000  0.584400  1.0
  B  B19  1  0.621100  0.728000  0.915600  1.0
  B  B20  1  0.621100  0.272000  0.584400  1.0
  B  B21  1  0.878900  0.772000  0.084400  1.0
  B  B22  1  0.878900  0.228000  0.415600  1.0
  B  B23  1  0.378900  0.272000  0.084400  1.0
  B  B24  1  0.378900  0.728000  0.415600  1.0
  P  P25  1  0.760500  0.500000  0.250000  1
  P  P26  1  0.260500  0.000000  0.250000  1
  P  P27  1  0.239500  0.500000  0.750000  1
  P  P28  1  0.739500  0.000000  0.750000  1
  P  P29  1  0.000000  0.000000  0.000000  1
  P  P30  1  0.000000  0.000000  0.500000  1
  P  P31  1  0.500000  0.500000  0.000000  1
  P  P32  1  0.500000  0.500000  0.500000  1
  H  H33  1  0.847400  0.502500  0.824000  1
  H  H34  1  0.847400  0.497500  0.676000  1
  H  H35  1  0.347400  0.002500  0.824000  1
  H  H36  1  0.347400  0.997500  0.676000  1
  H  H37  1  0.152600  0.497500  0.176000  1
  H  H38  1  0.152600  0.502500  0.324000  1
  H  H39  1  0.652600  0.997500  0.176000  1
  H  H40  1  0.652600  0.002500  0.324000  1
  H  H41  1  0.773900  0.534200  0.783900  1
  H  H42  1  0.773900  0.465800  0.716100  1
  H  H43  1  0.273900  0.034200  0.783900  1
  H  H44  1  0.273900  0.965800  0.716100  1
  H  H45  1  0.226100  0.465800  0.216100  1
  H  H46  1  0.226100  0.534200  0.283900  1
  H  H47  1  0.726100  0.965800  0.216100  1
  H  H48  1  0.726100  0.034200  0.283900  1
  H  H49  1  0.736700  0.563000  0.837400  1
  H  H50  1  0.736700  0.437000  0.662600  1
  H  H51  1  0.236700  0.063000  0.837400  1
  H  H52  1  0.236700  0.937000  0.662600  1
  H  H53  1  0.263300  0.437000  0.162600  1
  H  H54  1  0.263300  0.563000  0.337400  1
  H  H55  1  0.763300  0.937000  0.162600  1
  H  H56  1  0.763300  0.063000  0.337400  1
  H  H57  1  0.710900  0.499700  0.797900  1
  H  H58  1  0.710900  0.500300  0.702100  1
  H  H59  1  0.210900  0.999700  0.797900  1
  H  H60  1  0.210900  0.000300  0.702100  1
  H  H61  1  0.289100  0.500300  0.202100  1
  H  H62  1  0.289100  0.499700  0.297900  1
  H  H63  1  0.789100  0.000300  0.202100  1
  H  H64  1  0.789100  0.999700  0.297900  1
  H  H65  1  0.542100  0.637500  0.143300  1
  H  H66  1  0.542100  0.362500  0.356700  1
  H  H67  1  0.042100  0.137500  0.143300  1
  H  H68  1  0.042100  0.862500  0.356700  1
  H  H69  1  0.457900  0.362500  0.856700  1
  H  H70  1  0.457900  0.637500  0.643300  1
  H  H71  1  0.957900  0.862500  0.856700  1
  H  H72  1  0.957900  0.137500  0.643300  1
  H  H73  1  0.586100  0.681400  0.125500  1
  H  H74  1  0.586100  0.318600  0.374500  1
  H  H75  1  0.086100  0.181400  0.125500  1
  H  H76  1  0.086100  0.818600  0.374500  1
  H  H77  1  0.413900  0.318600  0.874500  1
  H  H78  1  0.413900  0.681400  0.625500  1
  H  H79  1  0.913900  0.818600  0.874500  1
  H  H80  1  0.913900  0.181400  0.625500  1
  H  H81  1  0.545900  0.706900  0.178100  1
  H  H82  1  0.545900  0.293100  0.321900  1
  H  H83  1  0.045900  0.206900  0.178100  1
  H  H84  1  0.045900  0.793100  0.321900  1
  H  H85  1  0.454100  0.293100  0.821900  1
  H  H86  1  0.454100  0.706900  0.678100  1
  H  H87  1  0.954100  0.793100  0.821900  1
  H  H88  1  0.954100  0.206900  0.678100  1
  H  H89  1  0.586200  0.693900  0.245400  1
  H  H90  1  0.586200  0.306100  0.254600  1
  H  H91  1  0.086200  0.193900  0.245400  1
  H  H92  1  0.086200  0.806100  0.254600  1
  H  H93  1  0.413800  0.306100  0.754600  1
  H  H94  1  0.413800  0.693900  0.745400  1
  H  H95  1  0.913800  0.806100  0.754600  1
  H  H96  1  0.913800  0.193900  0.745400  1
  H  H97  1  0.670900  0.687300  0.247100  1
  H  H98  1  0.670900  0.312700  0.252900  1
  H  H99  1  0.170900  0.187300  0.247100  1
  H  H100  1  0.170900  0.812700  0.252900  1
  H  H101  1  0.329100  0.312700  0.752900  1
  H  H102  1  0.329100  0.687300  0.747100  1
  H  H103  1  0.829100  0.812700  0.752900  1
  H  H104  1  0.829100  0.187300  0.747100  1
  H  H105  1  0.621300  0.629600  0.229600  1
  H  H106  1  0.621300  0.370400  0.270400  1
  H  H107  1  0.121300  0.129600  0.229600  1
  H  H108  1  0.121300  0.870400  0.270400  1
  H  H109  1  0.378700  0.370400  0.770400  1
  H  H110  1  0.378700  0.629600  0.729600  1
  H  H111  1  0.878700  0.870400  0.770400  1
  H  H112  1  0.878700  0.129600  0.729600  1
  H  H113  1  0.717700  0.740900  0.215600  1
  H  H114  1  0.717700  0.259100  0.284400  1
  H  H115  1  0.217700  0.240900  0.215600  1
  H  H116  1  0.217700  0.759100  0.284400  1
  H  H117  1  0.282300  0.259100  0.784400  1
  H  H118  1  0.282300  0.740900  0.715600  1
  H  H119  1  0.782300  0.759100  0.784400  1
  H  H120  1  0.782300  0.240900  0.715600  1
  H  H121  1  0.649100  0.767800  0.199600  1
  H  H122  1  0.649100  0.232200  0.300400  1
  H  H123  1  0.149100  0.267800  0.199600  1
  H  H124  1  0.149100  0.732200  0.300400  1
  H  H125  1  0.350900  0.232200  0.800400  1
  H  H126  1  0.350900  0.767800  0.699600  1
  H  H127  1  0.850900  0.732200  0.800400  1
  H  H128  1  0.850900  0.267800  0.699600  1
  H  H129  1  0.707100  0.731600  0.158700  1
  H  H130  1  0.707100  0.268400  0.341300  1
  H  H131  1  0.207100  0.231600  0.158700  1
  H  H132  1  0.207100  0.768400  0.341300  1
  H  H133  1  0.292900  0.268400  0.841300  1
  H  H134  1  0.292900  0.731600  0.658700  1
  H  H135  1  0.792900  0.768400  0.841300  1
  H  H136  1  0.792900  0.231600  0.658700  1
  H  H137  1  0.983200  0.600100  0.321900  1
  H  H138  1  0.983200  0.399900  0.178100  1
  H  H139  1  0.483200  0.100100  0.321900  1
  H  H140  1  0.483200  0.899900  0.178100  1
  H  H141  1  0.016800  0.399900  0.678100  1
  H  H142  1  0.016800  0.600100  0.821900  1
  H  H143  1  0.516800  0.899900  0.678100  1
  H  H144  1  0.516800  0.100100  0.821900  1
  H  H145  1  0.966100  0.543000  0.272200  1
  H  H146  1  0.966100  0.457000  0.227800  1
  H  H147  1  0.466100  0.043000  0.272200  1
  H  H148  1  0.466100  0.957000  0.227800  1
  H  H149  1  0.033900  0.457000  0.727800  1
  H  H150  1  0.033900  0.543000  0.772200  1
  H  H151  1  0.533900  0.957000  0.727800  1
  H  H152  1  0.533900  0.043000  0.772200  1
  H  H153  1  0.912000  0.597800  0.291100  1
  H  H154  1  0.912000  0.402200  0.208900  1
  H  H155  1  0.412000  0.097800  0.291100  1
  H  H156  1  0.412000  0.902200  0.208900  1
  H  H157  1  0.088000  0.402200  0.708900  1
  H  H158  1  0.088000  0.597800  0.791100  1
  H  H159  1  0.588000  0.902200  0.708900  1
  H  H160  1  0.588000  0.097800  0.791100  1
  H  H161  1  0.936500  0.682500  0.298100  1
  H  H162  1  0.936500  0.317500  0.201900  1
  H  H163  1  0.436500  0.182500  0.298100  1
  H  H164  1  0.436500  0.817500  0.201900  1
  H  H165  1  0.063500  0.317500  0.701900  1
  H  H166  1  0.063500  0.682500  0.798100  1
  H  H167  1  0.563500  0.817500  0.701900  1
  H  H168  1  0.563500  0.182500  0.798100  1
  H  H169  1  0.978700  0.696600  0.256500  1
  H  H170  1  0.978700  0.303400  0.243500  1
  H  H171  1  0.478700  0.196600  0.256500  1
  H  H172  1  0.478700  0.803400  0.243500  1
  H  H173  1  0.021300  0.303400  0.743500  1
  H  H174  1  0.021300  0.696600  0.756500  1
  H  H175  1  0.521300  0.803400  0.743500  1
  H  H176  1  0.521300  0.196600  0.756500  1
  H  H177  1  0.018700  0.701200  0.306200  1
  H  H178  1  0.018700  0.298800  0.193800  1
  H  H179  1  0.518700  0.201200  0.306200  1
  H  H180  1  0.518700  0.798800  0.193800  1
  H  H181  1  0.981300  0.298800  0.693800  1
  H  H182  1  0.981300  0.701200  0.806200  1
  H  H183  1  0.481300  0.798800  0.693800  1
  H  H184  1  0.481300  0.201200  0.806200  1
  H  H185  1  0.100100  0.636700  0.288900  1
  H  H186  1  0.100100  0.363300  0.211100  1
  H  H187  1  0.600100  0.136700  0.288900  1
  H  H188  1  0.600100  0.863300  0.211100  1
  H  H189  1  0.899900  0.363300  0.711100  1
  H  H190  1  0.899900  0.636700  0.788900  1
  H  H191  1  0.399900  0.863300  0.711100  1
  H  H192  1  0.399900  0.136700  0.788900  1
  H  H193  1  0.104000  0.599700  0.230000  1
  H  H194  1  0.104000  0.400300  0.270000  1
  H  H195  1  0.604000  0.099700  0.230000  1
  H  H196  1  0.604000  0.900300  0.270000  1
  H  H197  1  0.896000  0.400300  0.770000  1
  H  H198  1  0.896000  0.599700  0.730000  1
  H  H199  1  0.396000  0.900300  0.770000  1
  H  H200  1  0.396000  0.099700  0.730000  1
  H  H201  1  0.084500  0.566900  0.265900  1
  H  H202  1  0.084500  0.433100  0.234100  1
  H  H203  1  0.584500  0.066900  0.265900  1
  H  H204  1  0.584500  0.933100  0.234100  1
  H  H205  1  0.915500  0.433100  0.734100  1
  H  H206  1  0.915500  0.566900  0.765900  1
  H  H207  1  0.415500  0.933100  0.734100  1
  H  H208  1  0.415500  0.066900  0.765900  1
  H  H209  1  0.634400  0.285100  0.869700  1.0
  H  H210  1  0.634400  0.714900  0.630300  1.0
  H  H211  1  0.134400  0.785100  0.869700  1.0
  H  H212  1  0.134400  0.214900  0.630300  1.0
  H  H213  1  0.365600  0.714900  0.130300  1.0
  H  H214  1  0.365600  0.285100  0.369700  1.0
  H  H215  1  0.865600  0.214900  0.130300  1.0
  H  H216  1  0.865600  0.785100  0.369700  1.0
  H  H217  1  0.578400  0.303400  0.837000  1.0
  H  H218  1  0.578400  0.696600  0.663000  1.0
  H  H219  1  0.078400  0.803400  0.837000  1.0
  H  H220  1  0.078400  0.196600  0.663000  1.0
  H  H221  1  0.421600  0.696600  0.163000  1.0
  H  H222  1  0.421600  0.303400  0.337000  1.0
  H  H223  1  0.921600  0.196600  0.163000  1.0
  H  H224  1  0.921600  0.803400  0.337000  1.0
  H  H225  1  0.579500  0.338300  0.896300  1.0
  H  H226  1  0.579500  0.661700  0.603700  1.0
  H  H227  1  0.079500  0.838300  0.896300  1.0
  H  H228  1  0.079500  0.161700  0.603700  1.0
  H  H229  1  0.420500  0.661700  0.103700  1.0
  H  H230  1  0.420500  0.338300  0.396300  1.0
  H  H231  1  0.920500  0.161700  0.103700  1.0
  H  H232  1  0.920500  0.838300  0.396300  1.0
  H  H233  1  0.738300  0.359400  0.807600  1.0
  H  H234  1  0.738300  0.640600  0.692400  1.0
  H  H235  1  0.238300  0.859400  0.807600  1.0
  H  H236  1  0.238300  0.140600  0.692400  1.0
  H  H237  1  0.261700  0.640600  0.192400  1.0
  H  H238  1  0.261700  0.359400  0.307600  1.0
  H  H239  1  0.761700  0.140600  0.192400  1.0
  H  H240  1  0.761700  0.859400  0.307600  1.0
  H  H241  1  0.677800  0.309700  0.785900  1.0
  H  H242  1  0.677800  0.690300  0.714100  1.0
  H  H243  1  0.177800  0.809700  0.785900  1.0
  H  H244  1  0.177800  0.190300  0.714100  1.0
  H  H245  1  0.322200  0.690300  0.214100  1.0
  H  H246  1  0.322200  0.309700  0.285900  1.0
  H  H247  1  0.822200  0.190300  0.214100  1.0
  H  H248  1  0.822200  0.809700  0.285900  1.0
  H  H249  1  0.740200  0.301400  0.819800  1.0
  H  H250  1  0.740200  0.698600  0.680200  1.0
  H  H251  1  0.240200  0.801400  0.819800  1.0
  H  H252  1  0.240200  0.198600  0.680200  1.0
  H  H253  1  0.259800  0.698600  0.180200  1.0
  H  H254  1  0.259800  0.301400  0.319800  1.0
  H  H255  1  0.759800  0.198600  0.180200  1.0
  H  H256  1  0.759800  0.801400  0.319800  1.0
  H  H257  1  0.591600  0.434600  0.885700  1.0
  H  H258  1  0.591600  0.565400  0.614300  1.0
  H  H259  1  0.091600  0.934600  0.885700  1.0
  H  H260  1  0.091600  0.065400  0.614300  1.0
  H  H261  1  0.408400  0.565400  0.114300  1.0
  H  H262  1  0.408400  0.434600  0.385700  1.0
  H  H263  1  0.908400  0.065400  0.114300  1.0
  H  H264  1  0.908400  0.934600  0.385700  1.0
  H  H265  1  0.591800  0.399800  0.826400  1.0
  H  H266  1  0.591800  0.600200  0.673600  1.0
  H  H267  1  0.091800  0.899800  0.826400  1.0
  H  H268  1  0.091800  0.100200  0.673600  1.0
  H  H269  1  0.408200  0.600200  0.173600  1.0
  H  H270  1  0.408200  0.399800  0.326400  1.0
  H  H271  1  0.908200  0.100200  0.173600  1.0
  H  H272  1  0.908200  0.899800  0.326400  1.0
  H  H273  1  0.655800  0.444000  0.853600  1.0
  H  H274  1  0.655800  0.556000  0.646400  1.0
  H  H275  1  0.155800  0.944000  0.853600  1.0
  H  H276  1  0.155800  0.056000  0.646400  1.0
  H  H277  1  0.344200  0.556000  0.146400  1.0
  H  H278  1  0.344200  0.444000  0.353600  1.0
  H  H279  1  0.844200  0.056000  0.146400  1.0
  H  H280  1  0.844200  0.944000  0.353600  1.0
  H  H281  1  0.341800  0.306900  0.965400  1.0
  H  H282  1  0.341800  0.693100  0.534600  1.0
  H  H283  1  0.841800  0.806900  0.965400  1.0
  H  H284  1  0.841800  0.193100  0.534600  1.0
  H  H285  1  0.658200  0.693100  0.034600  1.0
  H  H286  1  0.658200  0.306900  0.465400  1.0
  H  H287  1  0.158200  0.193100  0.034600  1.0
  H  H288  1  0.158200  0.806900  0.465400  1.0
  H  H289  1  0.990500  0.181500  0.028200  1.0
  H  H290  1  0.990500  0.818500  0.471800  1.0
  H  H291  1  0.490500  0.681500  0.028200  1.0
  H  H292  1  0.490500  0.318500  0.471800  1.0
  H  H293  1  0.009500  0.818500  0.971800  1.0
  H  H294  1  0.009500  0.181500  0.528200  1.0
  H  H295  1  0.509500  0.318500  0.971800  1.0
  H  H296  1  0.509500  0.681500  0.528200  1.0
  H  H297  1  0.986600  0.273600  0.803100  1.0
  H  H298  1  0.986600  0.726400  0.696900  1.0
  H  H299  1  0.486600  0.773600  0.803100  1.0
  H  H300  1  0.486600  0.226400  0.696900  1.0
  H  H301  1  0.013400  0.726400  0.196900  1.0
  H  H302  1  0.013400  0.273600  0.303100  1.0
  H  H303  1  0.513400  0.226400  0.196900  1.0
  H  H304  1  0.513400  0.773600  0.303100  1.0
  H  H305  1  0.701600  0.506600  0.037000  1.0
  H  H306  1  0.701600  0.493400  0.463000  1.0
  H  H307  1  0.201600  0.006600  0.037000  1.0
  H  H308  1  0.201600  0.993400  0.463000  1.0
  H  H309  1  0.298400  0.493400  0.963000  1.0
  H  H310  1  0.298400  0.506600  0.537000  1.0
  H  H311  1  0.798400  0.993400  0.963000  1.0
  H  H312  1  0.798400  0.006600  0.537000  1.0
  H  H313  1  0.621800  0.577600  0.083400  1.0
  H  H314  1  0.621800  0.422400  0.416600  1.0
  H  H315  1  0.121800  0.077600  0.083400  1.0
  H  H316  1  0.121800  0.922400  0.416600  1.0
  H  H317  1  0.378200  0.422400  0.916600  1.0
  H  H318  1  0.378200  0.577600  0.583400  1.0
  H  H319  1  0.878200  0.922400  0.916600  1.0
  H  H320  1  0.878200  0.077600  0.583400  1.0
  H  H321  1  0.769100  0.638900  0.191200  1.0
  H  H322  1  0.769100  0.361100  0.308800  1.0
  H  H323  1  0.269100  0.138900  0.191200  1.0
  H  H324  1  0.269100  0.861100  0.308800  1.0
  H  H325  1  0.230900  0.361100  0.808800  1.0
  H  H326  1  0.230900  0.638900  0.691200  1.0
  H  H327  1  0.730900  0.861100  0.808800  1.0
  H  H328  1  0.730900  0.138900  0.691200  1.0
  H  H329  1  0.879400  0.625900  0.215100  1.0
  H  H330  1  0.879400  0.374100  0.284900  1.0
  H  H331  1  0.379400  0.125900  0.215100  1.0
  H  H332  1  0.379400  0.874100  0.284900  1.0
  H  H333  1  0.120600  0.374100  0.784900  1.0
  H  H334  1  0.120600  0.625900  0.715100  1.0
  H  H335  1  0.620600  0.874100  0.784900  1.0
  H  H336  1  0.620600  0.125900  0.715100  1.0
  H  H337  1  0.048900  0.517600  0.176700  1.0
  H  H338  1  0.048900  0.482400  0.323300  1.0
  H  H339  1  0.548900  0.017600  0.176700  1.0
  H  H340  1  0.548900  0.982400  0.323300  1.0
  H  H341  1  0.951100  0.482400  0.823300  1.0
  H  H342  1  0.951100  0.517600  0.676700  1.0
  H  H343  1  0.451100  0.982400  0.823300  1.0
  H  H344  1  0.451100  0.017600  0.676700  1.0
  H  H345  1  0.994300  0.462400  0.101500  1.0
  H  H346  1  0.994300  0.537600  0.398500  1.0
  H  H347  1  0.494300  0.962400  0.101500  1.0
  H  H348  1  0.494300  0.037600  0.398500  1.0
  H  H349  1  0.005700  0.537600  0.898500  1.0
  H  H350  1  0.005700  0.462400  0.601500  1.0
  H  H351  1  0.505700  0.037600  0.898500  1.0
  H  H352  1  0.505700  0.962400  0.601500  1.0
  H  H353  1  0.851400  0.421400  0.129000  1.0
  H  H354  1  0.851400  0.578600  0.371000  1.0
  H  H355  1  0.351400  0.921400  0.129000  1.0
  H  H356  1  0.351400  0.078600  0.371000  1.0
  H  H357  1  0.148600  0.578600  0.871000  1.0
  H  H358  1  0.148600  0.421400  0.629000  1.0
  H  H359  1  0.648600  0.078600  0.871000  1.0
  H  H360  1  0.648600  0.921400  0.629000  1.0
  H  H361  1  0.777700  0.355900  0.145900  1.0
  H  H362  1  0.777700  0.644100  0.354100  1.0
  H  H363  1  0.277700  0.855900  0.145900  1.0
  H  H364  1  0.277700  0.144100  0.354100  1.0
  H  H365  1  0.222300  0.644100  0.854100  1.0
  H  H366  1  0.222300  0.355900  0.645900  1.0
  H  H367  1  0.722300  0.144100  0.854100  1.0
  H  H368  1  0.722300  0.855900  0.645900  1.0
  H  H369  1  0.669400  0.327800  0.019100  1.0
  H  H370  1  0.669400  0.672200  0.480900  1.0
  H  H371  1  0.169400  0.827800  0.019100  1.0
  H  H372  1  0.169400  0.172200  0.480900  1.0
  H  H373  1  0.330600  0.672200  0.980900  1.0
  H  H374  1  0.330600  0.327800  0.519100  1.0
  H  H375  1  0.830600  0.172200  0.980900  1.0
  H  H376  1  0.830600  0.827800  0.519100  1.0
  H  H377  1  0.670300  0.346600  0.948500  1.0
  H  H378  1  0.670300  0.653400  0.551500  1.0
  H  H379  1  0.170300  0.846600  0.948500  1.0
  H  H380  1  0.170300  0.153400  0.551500  1.0
  H  H381  1  0.329700  0.653400  0.051500  1.0
  H  H382  1  0.329700  0.346600  0.448500  1.0
  H  H383  1  0.829700  0.153400  0.051500  1.0
  H  H384  1  0.829700  0.846600  0.448500  1.0
  H  H385  1  0.773500  0.437600  0.881000  1.0
  H  H386  1  0.773500  0.562400  0.619000  1.0
  H  H387  1  0.273500  0.937600  0.881000  1.0
  H  H388  1  0.273500  0.062400  0.619000  1.0
  H  H389  1  0.226500  0.562400  0.119000  1.0
  H  H390  1  0.226500  0.437600  0.381000  1.0
  H  H391  1  0.726500  0.062400  0.119000  1.0
  H  H392  1  0.726500  0.937600  0.381000  1.0
  H  H393  1  0.847400  0.476900  0.948600  1.0
  H  H394  1  0.847400  0.523100  0.551400  1.0
  H  H395  1  0.347400  0.976900  0.948600  1.0
  H  H396  1  0.347400  0.023100  0.551400  1.0
  H  H397  1  0.152600  0.523100  0.051400  1.0
  H  H398  1  0.152600  0.476900  0.448600  1.0
  H  H399  1  0.652600  0.023100  0.051400  1.0
  H  H400  1  0.652600  0.976900  0.448600  1.0
  H  H401  1  0.244300  0.416000  0.051500  1.0
  H  H402  1  0.244300  0.584000  0.448500  1.0
  H  H403  1  0.744300  0.916000  0.051500  1.0
  H  H404  1  0.744300  0.084000  0.448500  1.0
  H  H405  1  0.755700  0.584000  0.948500  1.0
  H  H406  1  0.755700  0.416000  0.551500  1.0
  H  H407  1  0.255700  0.084000  0.948500  1.0
  H  H408  1  0.255700  0.916000  0.551500  1.0
  H  H409  1  0.304000  0.420700  0.014100  1.0
  H  H410  1  0.304000  0.579300  0.485900  1.0
  H  H411  1  0.804000  0.920700  0.014100  1.0
  H  H412  1  0.804000  0.079300  0.485900  1.0
  H  H413  1  0.696000  0.579300  0.985900  1.0
  H  H414  1  0.696000  0.420700  0.514100  1.0
  H  H415  1  0.196000  0.079300  0.985900  1.0
  H  H416  1  0.196000  0.920700  0.514100  1.0
  H  H417  1  0.222900  0.436900  0.008000  1.0
  H  H418  1  0.222900  0.563100  0.492000  1.0
  H  H419  1  0.722900  0.936900  0.008000  1.0
  H  H420  1  0.722900  0.063100  0.492000  1.0
  H  H421  1  0.777100  0.563100  0.992000  1.0
  H  H422  1  0.777100  0.436900  0.508000  1.0
  H  H423  1  0.277100  0.063100  0.992000  1.0
  H  H424  1  0.277100  0.936900  0.508000  1.0
  H  H425  1  0.266700  0.164000  0.916300  1.0
  H  H426  1  0.266700  0.836000  0.583700  1.0
  H  H427  1  0.766700  0.664000  0.916300  1.0
  H  H428  1  0.766700  0.336000  0.583700  1.0
  H  H429  1  0.733300  0.836000  0.083700  1.0
  H  H430  1  0.733300  0.164000  0.416300  1.0
  H  H431  1  0.233300  0.336000  0.083700  1.0
  H  H432  1  0.233300  0.664000  0.416300  1.0
  H  H433  1  0.266700  0.179700  0.868200  1.0
  H  H434  1  0.266700  0.820300  0.631800  1.0
  H  H435  1  0.766700  0.679700  0.868200  1.0
  H  H436  1  0.766700  0.320300  0.631800  1.0
  H  H437  1  0.733300  0.820300  0.131800  1.0
  H  H438  1  0.733300  0.179700  0.368200  1.0
  H  H439  1  0.233300  0.320300  0.131800  1.0
  H  H440  1  0.233300  0.679700  0.368200  1.0
  H  H441  1  0.335700  0.193200  0.903100  1.0
  H  H442  1  0.335700  0.806800  0.596900  1.0
  H  H443  1  0.835700  0.693200  0.903100  1.0
  H  H444  1  0.835700  0.306800  0.596900  1.0
  H  H445  1  0.664300  0.806800  0.096900  1.0
  H  H446  1  0.664300  0.193200  0.403100  1.0
  H  H447  1  0.164300  0.306800  0.096900  1.0
  H  H448  1  0.164300  0.693200  0.403100  1.0
  H  H449  1  0.945400  0.333333  0.062700  1.0
  H  H450  1  0.945400  0.666667  0.437300  1.0
  H  H451  1  0.445400  0.833333  0.062700  1.0
  H  H452  1  0.445400  0.166667  0.437300  1.0
  H  H453  1  0.054600  0.666667  0.937300  1.0
  H  H454  1  0.054600  0.333333  0.562700  1.0
  H  H455  1  0.554600  0.166667  0.937300  1.0
  H  H456  1  0.554600  0.833333  0.562700  1.0
  H  H457  1  0.956300  0.290800  0.091700  1.0
  H  H458  1  0.956300  0.709200  0.408300  1.0
  H  H459  1  0.456300  0.790800  0.091700  1.0
  H  H460  1  0.456300  0.209200  0.408300  1.0
  H  H461  1  0.043700  0.709200  0.908300  1.0
  H  H462  1  0.043700  0.290800  0.591700  1.0
  H  H463  1  0.543700  0.209200  0.908300  1.0
  H  H464  1  0.543700  0.790800  0.591700  1.0
  H  H465  1  0.016900  0.337600  0.093800  1.0
  H  H466  1  0.016900  0.662400  0.406200  1.0
  H  H467  1  0.516900  0.837600  0.093800  1.0
  H  H468  1  0.516900  0.162400  0.406200  1.0
  H  H469  1  0.983100  0.662400  0.906200  1.0
  H  H470  1  0.983100  0.337600  0.593800  1.0
  H  H471  1  0.483100  0.162400  0.906200  1.0
  H  H472  1  0.483100  0.837600  0.593800  1.0
  H  H473  1  0.117000  0.109500  0.934000  1.0
  H  H474  1  0.117000  0.890500  0.566000  1.0
  H  H475  1  0.617000  0.609500  0.934000  1.0
  H  H476  1  0.617000  0.390500  0.566000  1.0
  H  H477  1  0.883000  0.890500  0.066000  1.0
  H  H478  1  0.883000  0.109500  0.434000  1.0
  H  H479  1  0.383000  0.390500  0.066000  1.0
  H  H480  1  0.383000  0.609500  0.434000  1.0
  H  H481  1  0.040700  0.090700  0.947400  1.0
  H  H482  1  0.040700  0.909300  0.552600  1.0
  H  H483  1  0.540700  0.590700  0.947400  1.0
  H  H484  1  0.540700  0.409300  0.552600  1.0
  H  H485  1  0.959300  0.909300  0.052600  1.0
  H  H486  1  0.959300  0.090700  0.447400  1.0
  H  H487  1  0.459300  0.409300  0.052600  1.0
  H  H488  1  0.459300  0.590700  0.447400  1.0
  H  H489  1  0.048900  0.108800  0.900800  1.0
  H  H490  1  0.048900  0.891200  0.599200  1.0
  H  H491  1  0.548900  0.608800  0.900800  1.0
  H  H492  1  0.548900  0.391200  0.599200  1.0
  H  H493  1  0.951100  0.891200  0.099200  1.0
  H  H494  1  0.951100  0.108800  0.400800  1.0
  H  H495  1  0.451100  0.391200  0.099200  1.0
  H  H496  1  0.451100  0.608800  0.400800  1.0
  H  H497  1  0.984700  0.410900  0.915100  1.0
  H  H498  1  0.984700  0.589100  0.584900  1.0
  H  H499  1  0.484700  0.910900  0.915100  1.0
  H  H500  1  0.484700  0.089100  0.584900  1.0
  H  H501  1  0.015300  0.589100  0.084900  1.0
  H  H502  1  0.015300  0.410900  0.415100  1.0
  H  H503  1  0.515300  0.089100  0.084900  1.0
  H  H504  1  0.515300  0.910900  0.415100  1.0
  H  H505  1  0.942700  0.380500  0.863500  1.0
  H  H506  1  0.942700  0.619500  0.636500  1.0
  H  H507  1  0.442700  0.880500  0.863500  1.0
  H  H508  1  0.442700  0.119500  0.636500  1.0
  H  H509  1  0.057300  0.619500  0.136500  1.0
  H  H510  1  0.057300  0.380500  0.363500  1.0
  H  H511  1  0.557300  0.119500  0.136500  1.0
  H  H512  1  0.557300  0.880500  0.363500  1.0
  H  H513  1  0.916400  0.370400  0.911600  1.0
  H  H514  1  0.916400  0.629600  0.588400  1.0
  H  H515  1  0.416400  0.870400  0.911600  1.0
  H  H516  1  0.416400  0.129600  0.588400  1.0
  H  H517  1  0.083600  0.629600  0.088400  1.0
  H  H518  1  0.083600  0.370400  0.411600  1.0
  H  H519  1  0.583600  0.129600  0.088400  1.0
  H  H520  1  0.583600  0.870400  0.411600  1.0
  H  H521  1  0.062900  0.144200  0.810900  1.0
  H  H522  1  0.062900  0.855800  0.689100  1.0
  H  H523  1  0.562900  0.644200  0.810900  1.0
  H  H524  1  0.562900  0.355800  0.689100  1.0
  H  H525  1  0.937100  0.855800  0.189100  1.0
  H  H526  1  0.937100  0.144200  0.310900  1.0
  H  H527  1  0.437100  0.355800  0.189100  1.0
  H  H528  1  0.437100  0.644200  0.310900  1.0
  H  H529  1  0.060100  0.168600  0.767700  1.0
  H  H530  1  0.060100  0.831400  0.732300  1.0
  H  H531  1  0.560100  0.668600  0.767700  1.0
  H  H532  1  0.560100  0.331400  0.732300  1.0
  H  H533  1  0.939900  0.831400  0.232300  1.0
  H  H534  1  0.939900  0.168600  0.267700  1.0
  H  H535  1  0.439900  0.331400  0.232300  1.0
  H  H536  1  0.439900  0.668600  0.267700  1.0
  H  H537  1  0.131900  0.174400  0.798800  1.0
  H  H538  1  0.131900  0.825600  0.701200  1.0
  H  H539  1  0.631900  0.674400  0.798800  1.0
  H  H540  1  0.631900  0.325600  0.701200  1.0
  H  H541  1  0.868100  0.825600  0.201200  1.0
  H  H542  1  0.868100  0.174400  0.298800  1.0
  H  H543  1  0.368100  0.325600  0.201200  1.0
  H  H544  1  0.368100  0.674400  0.298800  1.0
  H  H545  1  0.730400  0.249400  0.120700  1.0
  H  H546  1  0.730400  0.750600  0.379300  1.0
  H  H547  1  0.230400  0.749400  0.120700  1.0
  H  H548  1  0.230400  0.250600  0.379300  1.0
  H  H549  1  0.269600  0.750600  0.879300  1.0
  H  H550  1  0.269600  0.249400  0.620700  1.0
  H  H551  1  0.769600  0.250600  0.879300  1.0
  H  H552  1  0.769600  0.749400  0.620700  1.0
  H  H553  1  0.652300  0.248400  0.142400  1.0
  H  H554  1  0.652300  0.751600  0.357600  1.0
  H  H555  1  0.152300  0.748400  0.142400  1.0
  H  H556  1  0.152300  0.251600  0.357600  1.0
  H  H557  1  0.347700  0.751600  0.857600  1.0
  H  H558  1  0.347700  0.248400  0.642400  1.0
  H  H559  1  0.847700  0.251600  0.857600  1.0
  H  H560  1  0.847700  0.748400  0.642400  1.0
  H  H561  1  0.701500  0.306000  0.166900  1.0
  H  H562  1  0.701500  0.694000  0.333100  1.0
  H  H563  1  0.201500  0.806000  0.166900  1.0
  H  H564  1  0.201500  0.194000  0.333100  1.0
  H  H565  1  0.298500  0.694000  0.833100  1.0
  H  H566  1  0.298500  0.306000  0.666900  1.0
  H  H567  1  0.798500  0.194000  0.833100  1.0
  H  H568  1  0.798500  0.806000  0.666900  1.0
  H  H569  1  0.606500  0.259900  0.030500  1.0
  H  H570  1  0.606500  0.740100  0.469500  1.0
  H  H571  1  0.106500  0.759900  0.030500  1.0
  H  H572  1  0.106500  0.240100  0.469500  1.0
  H  H573  1  0.393500  0.740100  0.969500  1.0
  H  H574  1  0.393500  0.259900  0.530500  1.0
  H  H575  1  0.893500  0.240100  0.969500  1.0
  H  H576  1  0.893500  0.759900  0.530500  1.0
  H  H577  1  0.599500  0.220800  0.062900  1.0
  H  H578  1  0.599500  0.779200  0.437100  1.0
  H  H579  1  0.099500  0.720800  0.062900  1.0
  H  H580  1  0.099500  0.279200  0.437100  1.0
  H  H581  1  0.400500  0.779200  0.937100  1.0
  H  H582  1  0.400500  0.220800  0.562900  1.0
  H  H583  1  0.900500  0.279200  0.937100  1.0
  H  H584  1  0.900500  0.720800  0.562900  1.0
  H  H585  1  0.673000  0.221800  0.035500  1.0
  H  H586  1  0.673000  0.778200  0.464500  1.0
  H  H587  1  0.173000  0.721800  0.035500  1.0
  H  H588  1  0.173000  0.278200  0.464500  1.0
  H  H589  1  0.327000  0.778200  0.964500  1.0
  H  H590  1  0.327000  0.221800  0.535500  1.0
  H  H591  1  0.827000  0.278200  0.964500  1.0
  H  H592  1  0.827000  0.721800  0.535500  1.0
  H  H593  1  0.608400  0.370900  0.154700  1.0
  H  H594  1  0.608400  0.629100  0.345300  1.0
  H  H595  1  0.108400  0.870900  0.154700  1.0
  H  H596  1  0.108400  0.129100  0.345300  1.0
  H  H597  1  0.391600  0.629100  0.845300  1.0
  H  H598  1  0.391600  0.370900  0.654700  1.0
  H  H599  1  0.891600  0.129100  0.845300  1.0
  H  H600  1  0.891600  0.870900  0.654700  1.0
  H  H601  1  0.555100  0.316300  0.129300  1.0
  H  H602  1  0.555100  0.683700  0.370700  1.0
  H  H603  1  0.055100  0.816300  0.129300  1.0
  H  H604  1  0.055100  0.183700  0.370700  1.0
  H  H605  1  0.444900  0.683700  0.870700  1.0
  H  H606  1  0.444900  0.316300  0.629300  1.0
  H  H607  1  0.944900  0.183700  0.870700  1.0
  H  H608  1  0.944900  0.816300  0.629300  1.0
  H  H609  1  0.576600  0.357200  0.100400  1.0
  H  H610  1  0.576600  0.642800  0.399600  1.0
  H  H611  1  0.076600  0.857200  0.100400  1.0
  H  H612  1  0.076600  0.142800  0.399600  1.0
  H  H613  1  0.423400  0.642800  0.899600  1.0
  H  H614  1  0.423400  0.357200  0.600400  1.0
  H  H615  1  0.923400  0.142800  0.899600  1.0
  H  H616  1  0.923400  0.857200  0.600400  1.0
  H  H617  1  0.136200  0.187000  0.893300  1.0
  H  H618  1  0.136200  0.813000  0.606700  1.0
  H  H619  1  0.636200  0.687000  0.893300  1.0
  H  H620  1  0.636200  0.313000  0.606700  1.0
  H  H621  1  0.863800  0.813000  0.106700  1.0
  H  H622  1  0.863800  0.187000  0.393300  1.0
  H  H623  1  0.363800  0.313000  0.106700  1.0
  H  H624  1  0.363800  0.687000  0.393300  1.0
  H  H625  1  0.042400  0.543100  0.264700  1.0
  H  H626  1  0.042400  0.456900  0.235300  1.0
  H  H627  1  0.542400  0.043100  0.264700  1.0
  H  H628  1  0.542400  0.956900  0.235300  1.0
  H  H629  1  0.957600  0.456900  0.735300  1.0
  H  H630  1  0.957600  0.543100  0.764700  1.0
  H  H631  1  0.457600  0.956900  0.735300  1.0
  H  H632  1  0.457600  0.043100  0.764700  1.0
  H  H633  1  0.968400  0.566200  0.293000  1.0
  H  H634  1  0.968400  0.433800  0.207000  1.0
  H  H635  1  0.468400  0.066200  0.293000  1.0
  H  H636  1  0.468400  0.933800  0.207000  1.0
  H  H637  1  0.031600  0.433800  0.707000  1.0
  H  H638  1  0.031600  0.566200  0.793000  1.0
  H  H639  1  0.531600  0.933800  0.707000  1.0
  H  H640  1  0.531600  0.066200  0.793000  1.0
  H  H641  1  0.040700  0.601200  0.315600  1.0
  H  H642  1  0.040700  0.398800  0.184400  1.0
  H  H643  1  0.540700  0.101200  0.315600  1.0
  H  H644  1  0.540700  0.898800  0.184400  1.0
  H  H645  1  0.959300  0.398800  0.684400  1.0
  H  H646  1  0.959300  0.601200  0.815600  1.0
  H  H647  1  0.459300  0.898800  0.684400  1.0
  H  H648  1  0.459300  0.101200  0.815600  1.0
  H  H649  1  0.984400  0.694700  0.316300  1.0
  H  H650  1  0.984400  0.305300  0.183700  1.0
  H  H651  1  0.484400  0.194700  0.316300  1.0
  H  H652  1  0.484400  0.805300  0.183700  1.0
  H  H653  1  0.015600  0.305300  0.683700  1.0
  H  H654  1  0.015600  0.694700  0.816300  1.0
  H  H655  1  0.515600  0.805300  0.683700  1.0
  H  H656  1  0.515600  0.194700  0.816300  1.0
  H  H657  1  0.912700  0.660300  0.291300  1.0
  H  H658  1  0.912700  0.339700  0.208700  1.0
  H  H659  1  0.412700  0.160300  0.291300  1.0
  H  H660  1  0.412700  0.839700  0.208700  1.0
  H  H661  1  0.087300  0.339700  0.708700  1.0
  H  H662  1  0.087300  0.660300  0.791300  1.0
  H  H663  1  0.587300  0.839700  0.708700  1.0
  H  H664  1  0.587300  0.160300  0.791300  1.0
  H  H665  1  0.957100  0.695000  0.264600  1.0
  H  H666  1  0.957100  0.305000  0.235400  1.0
  H  H667  1  0.457100  0.195000  0.264600  1.0
  H  H668  1  0.457100  0.805000  0.235400  1.0
  H  H669  1  0.042900  0.305000  0.735400  1.0
  H  H670  1  0.042900  0.695000  0.764600  1.0
  H  H671  1  0.542900  0.805000  0.735400  1.0
  H  H672  1  0.542900  0.195000  0.764600  1.0
  H  H673  1  0.104700  0.658100  0.277300  1.0
  H  H674  1  0.104700  0.341900  0.222700  1.0
  H  H675  1  0.604700  0.158100  0.277300  1.0
  H  H676  1  0.604700  0.841900  0.222700  1.0
  H  H677  1  0.895300  0.341900  0.722700  1.0
  H  H678  1  0.895300  0.658100  0.777300  1.0
  H  H679  1  0.395300  0.841900  0.722700  1.0
  H  H680  1  0.395300  0.158100  0.777300  1.0
  H  H681  1  0.075900  0.659500  0.226300  1.0
  H  H682  1  0.075900  0.340500  0.273700  1.0
  H  H683  1  0.575900  0.159500  0.226300  1.0
  H  H684  1  0.575900  0.840500  0.273700  1.0
  H  H685  1  0.924100  0.340500  0.773700  1.0
  H  H686  1  0.924100  0.659500  0.726300  1.0
  H  H687  1  0.424100  0.840500  0.773700  1.0
  H  H688  1  0.424100  0.159500  0.726300  1.0
  H  H689  1  0.109200  0.599700  0.226800  1.0
  H  H690  1  0.109200  0.400300  0.273200  1.0
  H  H691  1  0.609200  0.099700  0.226800  1.0
  H  H692  1  0.609200  0.900300  0.273200  1.0
  H  H693  1  0.890800  0.400300  0.773200  1.0
  H  H694  1  0.890800  0.599700  0.726800  1.0
  H  H695  1  0.390800  0.900300  0.773200  1.0
  H  H696  1  0.390800  0.099700  0.726800  1.0
  H  H697  1  0.559100  0.720300  0.164500  1.0
  H  H698  1  0.559100  0.279700  0.335500  1.0
  H  H699  1  0.059100  0.220300  0.164500  1.0
  H  H700  1  0.059100  0.779700  0.335500  1.0
  H  H701  1  0.440900  0.279700  0.835500  1.0
  H  H702  1  0.440900  0.720300  0.664500  1.0
  H  H703  1  0.940900  0.779700  0.835500  1.0
  H  H704  1  0.940900  0.220300  0.664500  1.0
  H  H705  1  0.576100  0.662800  0.115100  1.0
  H  H706  1  0.576100  0.337200  0.384900  1.0
  H  H707  1  0.076100  0.162800  0.115100  1.0
  H  H708  1  0.076100  0.837200  0.384900  1.0
  H  H709  1  0.423900  0.337200  0.884900  1.0
  H  H710  1  0.423900  0.662800  0.615100  1.0
  H  H711  1  0.923900  0.837200  0.884900  1.0
  H  H712  1  0.923900  0.162800  0.615100  1.0
  H  H713  1  0.632200  0.716200  0.135200  1.0
  H  H714  1  0.632200  0.283800  0.364800  1.0
  H  H715  1  0.132200  0.216200  0.135200  1.0
  H  H716  1  0.132200  0.783800  0.364800  1.0
  H  H717  1  0.367800  0.283800  0.864800  1.0
  H  H718  1  0.367800  0.716200  0.635200  1.0
  H  H719  1  0.867800  0.783800  0.864800  1.0
  H  H720  1  0.867800  0.216200  0.635200  1.0
  H  H721  1  0.536300  0.653700  0.208500  1.0
  H  H722  1  0.536300  0.346300  0.291500  1.0
  H  H723  1  0.036300  0.153700  0.208500  1.0
  H  H724  1  0.036300  0.846300  0.291500  1.0
  H  H725  1  0.463700  0.346300  0.791500  1.0
  H  H726  1  0.463700  0.653700  0.708500  1.0
  H  H727  1  0.963700  0.846300  0.791500  1.0
  H  H728  1  0.963700  0.153700  0.708500  1.0
  H  H729  1  0.597800  0.611600  0.214100  1.0
  H  H730  1  0.597800  0.388400  0.285900  1.0
  H  H731  1  0.097800  0.111600  0.214100  1.0
  H  H732  1  0.097800  0.888400  0.285900  1.0
  H  H733  1  0.402200  0.388400  0.785900  1.0
  H  H734  1  0.402200  0.611600  0.714100  1.0
  H  H735  1  0.902200  0.888400  0.785900  1.0
  H  H736  1  0.902200  0.111600  0.714100  1.0
  H  H737  1  0.558800  0.595000  0.161700  1.0
  H  H738  1  0.558800  0.405000  0.338300  1.0
  H  H739  1  0.058800  0.095000  0.161700  1.0
  H  H740  1  0.058800  0.905000  0.338300  1.0
  H  H741  1  0.441200  0.405000  0.838300  1.0
  H  H742  1  0.441200  0.595000  0.661700  1.0
  H  H743  1  0.941200  0.905000  0.838300  1.0
  H  H744  1  0.941200  0.095000  0.661700  1.0
  H  H745  1  0.629900  0.739100  0.239400  1.0
  H  H746  1  0.629900  0.260900  0.260600  1.0
  H  H747  1  0.129900  0.239100  0.239400  1.0
  H  H748  1  0.129900  0.760900  0.260600  1.0
  H  H749  1  0.370100  0.260900  0.760600  1.0
  H  H750  1  0.370100  0.739100  0.739400  1.0
  H  H751  1  0.870100  0.760900  0.760600  1.0
  H  H752  1  0.870100  0.239100  0.739400  1.0
  H  H753  1  0.705900  0.726500  0.212300  1.0
  H  H754  1  0.705900  0.273500  0.287700  1.0
  H  H755  1  0.205900  0.226500  0.212300  1.0
  H  H756  1  0.205900  0.773500  0.287700  1.0
  H  H757  1  0.294100  0.273500  0.787700  1.0
  H  H758  1  0.294100  0.726500  0.712300  1.0
  H  H759  1  0.794100  0.773500  0.787700  1.0
  H  H760  1  0.794100  0.226500  0.712300  1.0
  H  H761  1  0.681300  0.689400  0.243900  1.0
  H  H762  1  0.681300  0.310600  0.256100  1.0
  H  H763  1  0.181300  0.189400  0.243900  1.0
  H  H764  1  0.181300  0.810600  0.256100  1.0
  H  H765  1  0.318700  0.310600  0.756100  1.0
  H  H766  1  0.318700  0.689400  0.743900  1.0
  H  H767  1  0.818700  0.810600  0.756100  1.0
  H  H768  1  0.818700  0.189400  0.743900  1.0
  C  C769  1  0.752100  0.525800  0.810800  1
  C  C770  1  0.752100  0.474200  0.689200  1
  C  C771  1  0.252100  0.025800  0.810800  1
  C  C772  1  0.252100  0.974200  0.689200  1
  C  C773  1  0.247900  0.474200  0.189200  1
  C  C774  1  0.247900  0.525800  0.310800  1
  C  C775  1  0.747900  0.974200  0.189200  1
  C  C776  1  0.747900  0.025800  0.310800  1
  C  C777  1  0.572400  0.673000  0.154300  1
  C  C778  1  0.572400  0.327000  0.345700  1
  C  C779  1  0.072400  0.173000  0.154300  1
  C  C780  1  0.072400  0.827000  0.345700  1
  C  C781  1  0.427600  0.327000  0.845700  1
  C  C782  1  0.427600  0.673000  0.654300  1
  C  C783  1  0.927600  0.827000  0.845700  1
  C  C784  1  0.927600  0.173000  0.654300  1
  C  C785  1  0.627000  0.669000  0.229200  1
  C  C786  1  0.627000  0.331000  0.270800  1
  C  C787  1  0.127000  0.169000  0.229200  1
  C  C788  1  0.127000  0.831000  0.270800  1
  C  C789  1  0.373000  0.331000  0.770800  1
  C  C790  1  0.373000  0.669000  0.729200  1
  C  C791  1  0.873000  0.831000  0.770800  1
  C  C792  1  0.873000  0.169000  0.729200  1
  C  C793  1  0.683000  0.734500  0.189200  1
  C  C794  1  0.683000  0.265500  0.310800  1
  C  C795  1  0.183000  0.234500  0.189200  1
  C  C796  1  0.183000  0.765500  0.310800  1
  C  C797  1  0.317000  0.265500  0.810800  1
  C  C798  1  0.317000  0.734500  0.689200  1
  C  C799  1  0.817000  0.765500  0.810800  1
  C  C800  1  0.817000  0.234500  0.689200  1
  C  C801  1  0.962300  0.586300  0.288500  1
  C  C802  1  0.962300  0.413700  0.211500  1
  C  C803  1  0.462300  0.086300  0.288500  1
  C  C804  1  0.462300  0.913700  0.211500  1
  C  C805  1  0.037700  0.413700  0.711500  1
  C  C806  1  0.037700  0.586300  0.788500  1
  C  C807  1  0.537700  0.913700  0.711500  1
  C  C808  1  0.537700  0.086300  0.788500  1
  C  C809  1  0.983000  0.679500  0.281500  1
  C  C810  1  0.983000  0.320500  0.218500  1
  C  C811  1  0.483000  0.179500  0.281500  1
  C  C812  1  0.483000  0.820500  0.218500  1
  C  C813  1  0.017000  0.320500  0.718500  1
  C  C814  1  0.017000  0.679500  0.781500  1
  C  C815  1  0.517000  0.820500  0.718500  1
  C  C816  1  0.517000  0.179500  0.781500  1
  C  C817  1  0.079300  0.603700  0.260700  1
  C  C818  1  0.079300  0.396300  0.239300  1
  C  C819  1  0.579300  0.103700  0.260700  1
  C  C820  1  0.579300  0.896300  0.239300  1
  C  C821  1  0.920700  0.396300  0.739300  1
  C  C822  1  0.920700  0.603700  0.760700  1
  C  C823  1  0.420700  0.896300  0.739300  1
  C  C824  1  0.420700  0.103700  0.760700  1
  C  C825  1  0.608900  0.318300  0.866600  1.0
  C  C826  1  0.608900  0.681700  0.633400  1.0
  C  C827  1  0.108900  0.818300  0.866600  1.0
  C  C828  1  0.108900  0.181700  0.633400  1.0
  C  C829  1  0.391100  0.681700  0.133400  1.0
  C  C830  1  0.391100  0.318300  0.366600  1.0
  C  C831  1  0.891100  0.181700  0.133400  1.0
  C  C832  1  0.891100  0.818300  0.366600  1.0
  C  C833  1  0.709100  0.330300  0.814400  1.0
  C  C834  1  0.709100  0.669700  0.685600  1.0
  C  C835  1  0.209100  0.830300  0.814400  1.0
  C  C836  1  0.209100  0.169700  0.685600  1.0
  C  C837  1  0.290900  0.669700  0.185600  1.0
  C  C838  1  0.290900  0.330300  0.314400  1.0
  C  C839  1  0.790900  0.169700  0.185600  1.0
  C  C840  1  0.790900  0.830300  0.314400  1.0
  C  C841  1  0.621700  0.415200  0.856300  1.0
  C  C842  1  0.621700  0.584800  0.643700  1.0
  C  C843  1  0.121700  0.915200  0.856300  1.0
  C  C844  1  0.121700  0.084800  0.643700  1.0
  C  C845  1  0.378300  0.584800  0.143700  1.0
  C  C846  1  0.378300  0.415200  0.356300  1.0
  C  C847  1  0.878300  0.084800  0.143700  1.0
  C  C848  1  0.878300  0.915200  0.356300  1.0
  C  C849  1  0.632300  0.663400  0.176900  1.0
  C  C850  1  0.632300  0.336600  0.323100  1.0
  C  C851  1  0.132300  0.163400  0.176900  1.0
  C  C852  1  0.132300  0.836600  0.323100  1.0
  C  C853  1  0.367700  0.336600  0.823100  1.0
  C  C854  1  0.367700  0.663400  0.676900  1.0
  C  C855  1  0.867700  0.836600  0.823100  1.0
  C  C856  1  0.867700  0.163400  0.676900  1.0
  C  C857  1  0.982900  0.388900  0.004400  1.0
  C  C858  1  0.982900  0.611100  0.495600  1.0
  C  C859  1  0.482900  0.888900  0.004400  1.0
  C  C860  1  0.482900  0.111100  0.495600  1.0
  C  C861  1  0.017100  0.611100  0.995600  1.0
  C  C862  1  0.017100  0.388900  0.504400  1.0
  C  C863  1  0.517100  0.111100  0.995600  1.0
  C  C864  1  0.517100  0.888900  0.504400  1.0
  C  C865  1  0.906800  0.577000  0.027200  1.0
  C  C866  1  0.906800  0.423000  0.472800  1.0
  C  C867  1  0.406800  0.077000  0.027200  1.0
  C  C868  1  0.406800  0.923000  0.472800  1.0
  C  C869  1  0.093200  0.423000  0.972800  1.0
  C  C870  1  0.093200  0.577000  0.527200  1.0
  C  C871  1  0.593200  0.923000  0.972800  1.0
  C  C872  1  0.593200  0.077000  0.527200  1.0
  C  C873  1  0.101100  0.397800  0.053100  1.0
  C  C874  1  0.101100  0.602200  0.446900  1.0
  C  C875  1  0.601100  0.897800  0.053100  1.0
  C  C876  1  0.601100  0.102200  0.446900  1.0
  C  C877  1  0.898900  0.602200  0.946900  1.0
  C  C878  1  0.898900  0.397800  0.553100  1.0
  C  C879  1  0.398900  0.102200  0.946900  1.0
  C  C880  1  0.398900  0.897800  0.553100  1.0
  C  C881  1  0.240500  0.348200  0.983200  1.0
  C  C882  1  0.240500  0.651800  0.516800  1.0
  C  C883  1  0.740500  0.848200  0.983200  1.0
  C  C884  1  0.740500  0.151800  0.516800  1.0
  C  C885  1  0.759500  0.651800  0.016800  1.0
  C  C886  1  0.759500  0.348200  0.483200  1.0
  C  C887  1  0.259500  0.151800  0.016800  1.0
  C  C888  1  0.259500  0.848200  0.483200  1.0
  C  C889  1  0.291500  0.303100  0.961400  1.0
  C  C890  1  0.291500  0.696900  0.538600  1.0
  C  C891  1  0.791500  0.803100  0.961400  1.0
  C  C892  1  0.791500  0.196900  0.538600  1.0
  C  C893  1  0.708500  0.696900  0.038600  1.0
  C  C894  1  0.708500  0.303100  0.461400  1.0
  C  C895  1  0.208500  0.196900  0.038600  1.0
  C  C896  1  0.208500  0.803100  0.461400  1.0
  C  C897  1  0.255000  0.253100  0.933700  1.0
  C  C898  1  0.255000  0.746900  0.566300  1.0
  C  C899  1  0.755000  0.753100  0.933700  1.0
  C  C900  1  0.755000  0.246900  0.566300  1.0
  C  C901  1  0.745000  0.746900  0.066300  1.0
  C  C902  1  0.745000  0.253100  0.433700  1.0
  C  C903  1  0.245000  0.246900  0.066300  1.0
  C  C904  1  0.245000  0.753100  0.433700  1.0
  C  C905  1  0.014300  0.265500  0.027800  1.0
  C  C906  1  0.014300  0.734500  0.472200  1.0
  C  C907  1  0.514300  0.765500  0.027800  1.0
  C  C908  1  0.514300  0.234500  0.472200  1.0
  C  C909  1  0.985700  0.734500  0.972200  1.0
  C  C910  1  0.985700  0.265500  0.527800  1.0
  C  C911  1  0.485700  0.234500  0.972200  1.0
  C  C912  1  0.485700  0.765500  0.527800  1.0
  C  C913  1  0.013000  0.203300  0.011800  1.0
  C  C914  1  0.013000  0.796700  0.488200  1.0
  C  C915  1  0.513000  0.703300  0.011800  1.0
  C  C916  1  0.513000  0.296700  0.488200  1.0
  C  C917  1  0.987000  0.796700  0.988200  1.0
  C  C918  1  0.987000  0.203300  0.511800  1.0
  C  C919  1  0.487000  0.296700  0.988200  1.0
  C  C920  1  0.487000  0.703300  0.511800  1.0
  C  C921  1  0.050500  0.180300  0.967800  1.0
  C  C922  1  0.050500  0.819700  0.532200  1.0
  C  C923  1  0.550500  0.680300  0.967800  1.0
  C  C924  1  0.550500  0.319700  0.532200  1.0
  C  C925  1  0.949500  0.819700  0.032200  1.0
  C  C926  1  0.949500  0.180300  0.467800  1.0
  C  C927  1  0.449500  0.319700  0.032200  1.0
  C  C928  1  0.449500  0.680300  0.467800  1.0
  C  C929  1  0.004200  0.323200  0.879700  1.0
  C  C930  1  0.004200  0.676800  0.620300  1.0
  C  C931  1  0.504200  0.823200  0.879700  1.0
  C  C932  1  0.504200  0.176800  0.620300  1.0
  C  C933  1  0.995800  0.676800  0.120300  1.0
  C  C934  1  0.995800  0.323200  0.379700  1.0
  C  C935  1  0.495800  0.176800  0.120300  1.0
  C  C936  1  0.495800  0.823200  0.379700  1.0
  C  C937  1  0.009800  0.276400  0.832800  1.0
  C  C938  1  0.009800  0.723600  0.667200  1.0
  C  C939  1  0.509800  0.776400  0.832800  1.0
  C  C940  1  0.509800  0.223600  0.667200  1.0
  C  C941  1  0.990200  0.723600  0.167200  1.0
  C  C942  1  0.990200  0.276400  0.332800  1.0
  C  C943  1  0.490200  0.223600  0.167200  1.0
  C  C944  1  0.490200  0.776400  0.332800  1.0
  C  C945  1  0.055600  0.235200  0.837900  1.0
  C  C946  1  0.055600  0.764800  0.662100  1.0
  C  C947  1  0.555600  0.735200  0.837900  1.0
  C  C948  1  0.555600  0.264800  0.662100  1.0
  C  C949  1  0.944400  0.764800  0.162100  1.0
  C  C950  1  0.944400  0.235200  0.337900  1.0
  C  C951  1  0.444400  0.264800  0.162100  1.0
  C  C952  1  0.444400  0.735200  0.337900  1.0
  C  C953  1  0.715800  0.534000  0.069100  1.0
  C  C954  1  0.715800  0.466000  0.430900  1.0
  C  C955  1  0.215800  0.034000  0.069100  1.0
  C  C956  1  0.215800  0.966000  0.430900  1.0
  C  C957  1  0.284200  0.466000  0.930900  1.0
  C  C958  1  0.284200  0.534000  0.569100  1.0
  C  C959  1  0.784200  0.966000  0.930900  1.0
  C  C960  1  0.784200  0.034000  0.569100  1.0
  C  C961  1  0.667800  0.576200  0.096400  1.0
  C  C962  1  0.667800  0.423800  0.403600  1.0
  C  C963  1  0.167800  0.076200  0.096400  1.0
  C  C964  1  0.167800  0.923800  0.403600  1.0
  C  C965  1  0.332200  0.423800  0.903600  1.0
  C  C966  1  0.332200  0.576200  0.596400  1.0
  C  C967  1  0.832200  0.923800  0.903600  1.0
  C  C968  1  0.832200  0.076200  0.596400  1.0
  C  C969  1  0.686900  0.617000  0.143300  1.0
  C  C970  1  0.686900  0.383000  0.356700  1.0
  C  C971  1  0.186900  0.117000  0.143300  1.0
  C  C972  1  0.186900  0.883000  0.356700  1.0
  C  C973  1  0.313100  0.383000  0.856700  1.0
  C  C974  1  0.313100  0.617000  0.643300  1.0
  C  C975  1  0.813100  0.883000  0.856700  1.0
  C  C976  1  0.813100  0.117000  0.643300  1.0
  C  C977  1  0.754100  0.611400  0.159400  1.0
  C  C978  1  0.754100  0.388600  0.340600  1.0
  C  C979  1  0.254100  0.111400  0.159400  1.0
  C  C980  1  0.254100  0.888600  0.340600  1.0
  C  C981  1  0.245900  0.388600  0.840600  1.0
  C  C982  1  0.245900  0.611400  0.659400  1.0
  C  C983  1  0.745900  0.888600  0.840600  1.0
  C  C984  1  0.745900  0.111400  0.659400  1.0
  C  C985  1  0.800800  0.567600  0.131100  1.0
  C  C986  1  0.800800  0.432400  0.368900  1.0
  C  C987  1  0.300800  0.067600  0.131100  1.0
  C  C988  1  0.300800  0.932400  0.368900  1.0
  C  C989  1  0.199200  0.432400  0.868900  1.0
  C  C990  1  0.199200  0.567600  0.631100  1.0
  C  C991  1  0.699200  0.932400  0.868900  1.0
  C  C992  1  0.699200  0.067600  0.631100  1.0
  C  C993  1  0.872000  0.557600  0.147100  1.0
  C  C994  1  0.872000  0.442400  0.352900  1.0
  C  C995  1  0.372000  0.057600  0.147100  1.0
  C  C996  1  0.372000  0.942400  0.352900  1.0
  C  C997  1  0.128000  0.442400  0.852900  1.0
  C  C998  1  0.128000  0.557600  0.647100  1.0
  C  C999  1  0.628000  0.942400  0.852900  1.0
  C  C1000  1  0.628000  0.057600  0.647100  1.0
  C  C1001  1  0.903900  0.592100  0.192500  1.0
  C  C1002  1  0.903900  0.407900  0.307500  1.0
  C  C1003  1  0.403900  0.092100  0.192500  1.0
  C  C1004  1  0.403900  0.907900  0.307500  1.0
  C  C1005  1  0.096100  0.407900  0.807500  1.0
  C  C1006  1  0.096100  0.592100  0.692500  1.0
  C  C1007  1  0.596100  0.907900  0.807500  1.0
  C  C1008  1  0.596100  0.092100  0.692500  1.0
  C  C1009  1  0.970000  0.578300  0.205300  1.0
  C  C1010  1  0.970000  0.421700  0.294700  1.0
  C  C1011  1  0.470000  0.078300  0.205300  1.0
  C  C1012  1  0.470000  0.921700  0.294700  1.0
  C  C1013  1  0.030000  0.421700  0.794700  1.0
  C  C1014  1  0.030000  0.578300  0.705300  1.0
  C  C1015  1  0.530000  0.921700  0.794700  1.0
  C  C1016  1  0.530000  0.078300  0.705300  1.0
  C  C1017  1  0.003000  0.528900  0.170000  1.0
  C  C1018  1  0.003000  0.471100  0.330000  1.0
  C  C1019  1  0.503000  0.028900  0.170000  1.0
  C  C1020  1  0.503000  0.971100  0.330000  1.0
  C  C1021  1  0.997000  0.471100  0.830000  1.0
  C  C1022  1  0.997000  0.528900  0.670000  1.0
  C  C1023  1  0.497000  0.971100  0.830000  1.0
  C  C1024  1  0.497000  0.028900  0.670000  1.0
  C  C1025  1  0.970100  0.495800  0.125000  1.0
  C  C1026  1  0.970100  0.504200  0.375000  1.0
  C  C1027  1  0.470100  0.995800  0.125000  1.0
  C  C1028  1  0.470100  0.004200  0.375000  1.0
  C  C1029  1  0.029900  0.504200  0.875000  1.0
  C  C1030  1  0.029900  0.495800  0.625000  1.0
  C  C1031  1  0.529900  0.004200  0.875000  1.0
  C  C1032  1  0.529900  0.995800  0.625000  1.0
  C  C1033  1  0.813900  0.402300  0.106600  1.0
  C  C1034  1  0.813900  0.597700  0.393400  1.0
  C  C1035  1  0.313900  0.902300  0.106600  1.0
  C  C1036  1  0.313900  0.097700  0.393400  1.0
  C  C1037  1  0.186100  0.597700  0.893400  1.0
  C  C1038  1  0.186100  0.402300  0.606600  1.0
  C  C1039  1  0.686100  0.097700  0.893400  1.0
  C  C1040  1  0.686100  0.902300  0.606600  1.0
  C  C1041  1  0.769300  0.363600  0.117000  1.0
  C  C1042  1  0.769300  0.636400  0.383000  1.0
  C  C1043  1  0.269300  0.863600  0.117000  1.0
  C  C1044  1  0.269300  0.136400  0.383000  1.0
  C  C1045  1  0.230700  0.636400  0.883000  1.0
  C  C1046  1  0.230700  0.363600  0.617000  1.0
  C  C1047  1  0.730700  0.136400  0.883000  1.0
  C  C1048  1  0.730700  0.863600  0.617000  1.0
  C  C1049  1  0.712700  0.336100  0.086000  1.0
  C  C1050  1  0.712700  0.663900  0.414000  1.0
  C  C1051  1  0.212700  0.836100  0.086000  1.0
  C  C1052  1  0.212700  0.163900  0.414000  1.0
  C  C1053  1  0.287300  0.663900  0.914000  1.0
  C  C1054  1  0.287300  0.336100  0.586000  1.0
  C  C1055  1  0.787300  0.163900  0.914000  1.0
  C  C1056  1  0.787300  0.836100  0.586000  1.0
  C  C1057  1  0.705900  0.347000  0.042400  1.0
  C  C1058  1  0.705900  0.653000  0.457600  1.0
  C  C1059  1  0.205900  0.847000  0.042400  1.0
  C  C1060  1  0.205900  0.153000  0.457600  1.0
  C  C1061  1  0.294100  0.653000  0.957600  1.0
  C  C1062  1  0.294100  0.347000  0.542400  1.0
  C  C1063  1  0.794100  0.153000  0.957600  1.0
  C  C1064  1  0.794100  0.847000  0.542400  1.0
  C  C1065  1  0.752000  0.385400  0.033500  1.0
  C  C1066  1  0.752000  0.614600  0.466500  1.0
  C  C1067  1  0.252000  0.885400  0.033500  1.0
  C  C1068  1  0.252000  0.114600  0.466500  1.0
  C  C1069  1  0.248000  0.614600  0.966500  1.0
  C  C1070  1  0.248000  0.385400  0.533500  1.0
  C  C1071  1  0.748000  0.114600  0.966500  1.0
  C  C1072  1  0.748000  0.885400  0.533500  1.0
  C  C1073  1  0.752000  0.398000  0.988000  1.0
  C  C1074  1  0.752000  0.602000  0.512000  1.0
  C  C1075  1  0.252000  0.898000  0.988000  1.0
  C  C1076  1  0.252000  0.102000  0.512000  1.0
  C  C1077  1  0.248000  0.602000  0.012000  1.0
  C  C1078  1  0.248000  0.398000  0.488000  1.0
  C  C1079  1  0.748000  0.102000  0.012000  1.0
  C  C1080  1  0.748000  0.898000  0.488000  1.0
  C  C1081  1  0.706400  0.373400  0.947900  1.0
  C  C1082  1  0.706400  0.626600  0.552100  1.0
  C  C1083  1  0.206400  0.873400  0.947900  1.0
  C  C1084  1  0.206400  0.126600  0.552100  1.0
  C  C1085  1  0.293600  0.626600  0.052100  1.0
  C  C1086  1  0.293600  0.373400  0.447900  1.0
  C  C1087  1  0.793600  0.126600  0.052100  1.0
  C  C1088  1  0.793600  0.873400  0.447900  1.0
  C  C1089  1  0.713000  0.387700  0.906500  1.0
  C  C1090  1  0.713000  0.612300  0.593500  1.0
  C  C1091  1  0.213000  0.887700  0.906500  1.0
  C  C1092  1  0.213000  0.112300  0.593500  1.0
  C  C1093  1  0.287000  0.612300  0.093500  1.0
  C  C1094  1  0.287000  0.387700  0.406500  1.0
  C  C1095  1  0.787000  0.112300  0.093500  1.0
  C  C1096  1  0.787000  0.887700  0.406500  1.0
  C  C1097  1  0.766700  0.426800  0.908500  1.0
  C  C1098  1  0.766700  0.573200  0.591500  1.0
  C  C1099  1  0.266700  0.926800  0.908500  1.0
  C  C1100  1  0.266700  0.073200  0.591500  1.0
  C  C1101  1  0.233300  0.573200  0.091500  1.0
  C  C1102  1  0.233300  0.426800  0.408500  1.0
  C  C1103  1  0.733300  0.073200  0.091500  1.0
  C  C1104  1  0.733300  0.926800  0.408500  1.0
  C  C1105  1  0.810400  0.450700  0.949000  1.0
  C  C1106  1  0.810400  0.549300  0.551000  1.0
  C  C1107  1  0.310400  0.950700  0.949000  1.0
  C  C1108  1  0.310400  0.049300  0.551000  1.0
  C  C1109  1  0.189600  0.549300  0.051000  1.0
  C  C1110  1  0.189600  0.450700  0.449000  1.0
  C  C1111  1  0.689600  0.049300  0.051000  1.0
  C  C1112  1  0.689600  0.950700  0.449000  1.0
  C  C1113  1  0.254000  0.410700  0.017000  1.0
  C  C1114  1  0.254000  0.589300  0.483000  1.0
  C  C1115  1  0.754000  0.910700  0.017000  1.0
  C  C1116  1  0.754000  0.089300  0.483000  1.0
  C  C1117  1  0.746000  0.589300  0.983000  1.0
  C  C1118  1  0.746000  0.410700  0.517000  1.0
  C  C1119  1  0.246000  0.089300  0.983000  1.0
  C  C1120  1  0.246000  0.910700  0.517000  1.0
  C  C1121  1  0.283500  0.192200  0.902600  1.0
  C  C1122  1  0.283500  0.807800  0.597400  1.0
  C  C1123  1  0.783500  0.692200  0.902600  1.0
  C  C1124  1  0.783500  0.307800  0.597400  1.0
  C  C1125  1  0.716500  0.807800  0.097400  1.0
  C  C1126  1  0.716500  0.192200  0.402600  1.0
  C  C1127  1  0.216500  0.307800  0.097400  1.0
  C  C1128  1  0.216500  0.692200  0.402600  1.0
  C  C1129  1  0.980300  0.310700  0.072900  1.0
  C  C1130  1  0.980300  0.689300  0.427100  1.0
  C  C1131  1  0.480300  0.810700  0.072900  1.0
  C  C1132  1  0.480300  0.189300  0.427100  1.0
  C  C1133  1  0.019700  0.689300  0.927100  1.0
  C  C1134  1  0.019700  0.310700  0.572900  1.0
  C  C1135  1  0.519700  0.189300  0.927100  1.0
  C  C1136  1  0.519700  0.810700  0.572900  1.0
  C  C1137  1  0.065600  0.116800  0.934600  1.0
  C  C1138  1  0.065600  0.883200  0.565400  1.0
  C  C1139  1  0.565600  0.616800  0.934600  1.0
  C  C1140  1  0.565600  0.383200  0.565400  1.0
  C  C1141  1  0.934400  0.883200  0.065400  1.0
  C  C1142  1  0.934400  0.116800  0.434600  1.0
  C  C1143  1  0.434400  0.383200  0.065400  1.0
  C  C1144  1  0.434400  0.616800  0.434600  1.0
  C  C1145  1  0.958200  0.375600  0.893600  1.0
  C  C1146  1  0.958200  0.624400  0.606400  1.0
  C  C1147  1  0.458200  0.875600  0.893600  1.0
  C  C1148  1  0.458200  0.124400  0.606400  1.0
  C  C1149  1  0.041800  0.624400  0.106400  1.0
  C  C1150  1  0.041800  0.375600  0.393600  1.0
  C  C1151  1  0.541800  0.124400  0.106400  1.0
  C  C1152  1  0.541800  0.875600  0.393600  1.0
  C  C1153  1  0.079700  0.175400  0.800500  1.0
  C  C1154  1  0.079700  0.824600  0.699500  1.0
  C  C1155  1  0.579700  0.675400  0.800500  1.0
  C  C1156  1  0.579700  0.324600  0.699500  1.0
  C  C1157  1  0.920300  0.824600  0.199500  1.0
  C  C1158  1  0.920300  0.175400  0.300500  1.0
  C  C1159  1  0.420300  0.324600  0.199500  1.0
  C  C1160  1  0.420300  0.675400  0.300500  1.0
  C  C1161  1  0.003800  0.615400  0.256500  1.0
  C  C1162  1  0.003800  0.384600  0.243500  1.0
  C  C1163  1  0.503800  0.115400  0.256500  1.0
  C  C1164  1  0.503800  0.884600  0.243500  1.0
  C  C1165  1  0.996200  0.384600  0.743500  1.0
  C  C1166  1  0.996200  0.615400  0.756500  1.0
  C  C1167  1  0.496200  0.884600  0.743500  1.0
  C  C1168  1  0.496200  0.115400  0.756500  1.0
  C  C1169  1  0.657000  0.298700  0.099400  1.0
  C  C1170  1  0.657000  0.701300  0.400600  1.0
  C  C1171  1  0.157000  0.798700  0.099400  1.0
  C  C1172  1  0.157000  0.201300  0.400600  1.0
  C  C1173  1  0.343000  0.701300  0.900600  1.0
  C  C1174  1  0.343000  0.298700  0.599400  1.0
  C  C1175  1  0.843000  0.201300  0.900600  1.0
  C  C1176  1  0.843000  0.798700  0.599400  1.0
  C  C1177  1  0.688100  0.273300  0.135700  1.0
  C  C1178  1  0.688100  0.726700  0.364300  1.0
  C  C1179  1  0.188100  0.773300  0.135700  1.0
  C  C1180  1  0.188100  0.226700  0.364300  1.0
  C  C1181  1  0.311900  0.726700  0.864300  1.0
  C  C1182  1  0.311900  0.273300  0.635700  1.0
  C  C1183  1  0.811900  0.226700  0.864300  1.0
  C  C1184  1  0.811900  0.773300  0.635700  1.0
  C  C1185  1  0.631700  0.245500  0.052800  1.0
  C  C1186  1  0.631700  0.754500  0.447200  1.0
  C  C1187  1  0.131700  0.745500  0.052800  1.0
  C  C1188  1  0.131700  0.254500  0.447200  1.0
  C  C1189  1  0.368300  0.754500  0.947200  1.0
  C  C1190  1  0.368300  0.245500  0.552800  1.0
  C  C1191  1  0.868300  0.254500  0.947200  1.0
  C  C1192  1  0.868300  0.745500  0.552800  1.0
  C  C1193  1  0.593600  0.339500  0.123100  1.0
  C  C1194  1  0.593600  0.660500  0.376900  1.0
  C  C1195  1  0.093600  0.839500  0.123100  1.0
  C  C1196  1  0.093600  0.160500  0.376900  1.0
  C  C1197  1  0.406400  0.660500  0.876900  1.0
  C  C1198  1  0.406400  0.339500  0.623100  1.0
  C  C1199  1  0.906400  0.160500  0.876900  1.0
  C  C1200  1  0.906400  0.839500  0.623100  1.0
  C  C1201  1  0.663300  0.362800  0.861600  1.0
  C  C1202  1  0.663300  0.637200  0.638400  1.0
  C  C1203  1  0.163300  0.862800  0.861600  1.0
  C  C1204  1  0.163300  0.137200  0.638400  1.0
  C  C1205  1  0.336700  0.637200  0.138400  1.0
  C  C1206  1  0.336700  0.362800  0.361600  1.0
  C  C1207  1  0.836700  0.137200  0.138400  1.0
  C  C1208  1  0.836700  0.862800  0.361600  1.0
  C  C1209  1  0.014700  0.578400  0.284800  1.0
  C  C1210  1  0.014700  0.421600  0.215200  1.0
  C  C1211  1  0.514700  0.078400  0.284800  1.0
  C  C1212  1  0.514700  0.921600  0.215200  1.0
  C  C1213  1  0.985300  0.421600  0.715200  1.0
  C  C1214  1  0.985300  0.578400  0.784800  1.0
  C  C1215  1  0.485300  0.921600  0.715200  1.0
  C  C1216  1  0.485300  0.078400  0.784800  1.0
  C  C1217  1  0.960600  0.671400  0.284700  1.0
  C  C1218  1  0.960600  0.328600  0.215300  1.0
  C  C1219  1  0.460600  0.171400  0.284700  1.0
  C  C1220  1  0.460600  0.828600  0.215300  1.0
  C  C1221  1  0.039400  0.328600  0.715300  1.0
  C  C1222  1  0.039400  0.671400  0.784700  1.0
  C  C1223  1  0.539400  0.828600  0.715300  1.0
  C  C1224  1  0.539400  0.171400  0.784700  1.0
  C  C1225  1  0.080900  0.635100  0.245600  1.0
  C  C1226  1  0.080900  0.364900  0.254400  1.0
  C  C1227  1  0.580900  0.135100  0.245600  1.0
  C  C1228  1  0.580900  0.864900  0.254400  1.0
  C  C1229  1  0.919100  0.364900  0.754400  1.0
  C  C1230  1  0.919100  0.635100  0.745600  1.0
  C  C1231  1  0.419100  0.864900  0.754400  1.0
  C  C1232  1  0.419100  0.135100  0.745600  1.0
  C  C1233  1  0.596800  0.693500  0.145000  1.0
  C  C1234  1  0.596800  0.306500  0.355000  1.0
  C  C1235  1  0.096800  0.193500  0.145000  1.0
  C  C1236  1  0.096800  0.806500  0.355000  1.0
  C  C1237  1  0.403200  0.306500  0.855000  1.0
  C  C1238  1  0.403200  0.693500  0.645000  1.0
  C  C1239  1  0.903200  0.806500  0.855000  1.0
  C  C1240  1  0.903200  0.193500  0.645000  1.0
  C  C1241  1  0.576200  0.627700  0.191600  1.0
  C  C1242  1  0.576200  0.372300  0.308400  1.0
  C  C1243  1  0.076200  0.127700  0.191600  1.0
  C  C1244  1  0.076200  0.872300  0.308400  1.0
  C  C1245  1  0.423800  0.372300  0.808400  1.0
  C  C1246  1  0.423800  0.627700  0.691600  1.0
  C  C1247  1  0.923800  0.872300  0.808400  1.0
  C  C1248  1  0.923800  0.127700  0.691600  1.0
  C  C1249  1  0.665100  0.708400  0.221900  1.0
  C  C1250  1  0.665100  0.291600  0.278100  1.0
  C  C1251  1  0.165100  0.208400  0.221900  1.0
  C  C1252  1  0.165100  0.791600  0.278100  1.0
  C  C1253  1  0.334900  0.291600  0.778100  1.0
  C  C1254  1  0.334900  0.708400  0.721900  1.0
  C  C1255  1  0.834900  0.791600  0.778100  1.0
  C  C1256  1  0.834900  0.208400  0.721900  1.0
  N  N1257  1  0.931000  0.418300  0.021100  1.0
  N  N1258  1  0.931000  0.581700  0.478900  1.0
  N  N1259  1  0.431000  0.918300  0.021100  1.0
  N  N1260  1  0.431000  0.081700  0.478900  1.0
  N  N1261  1  0.069000  0.581700  0.978900  1.0
  N  N1262  1  0.069000  0.418300  0.521100  1.0
  N  N1263  1  0.569000  0.081700  0.978900  1.0
  N  N1264  1  0.569000  0.918300  0.521100  1.0
  N  N1265  1  0.896000  0.533100  0.032500  1.0
  N  N1266  1  0.896000  0.466900  0.467500  1.0
  N  N1267  1  0.396000  0.033100  0.032500  1.0
  N  N1268  1  0.396000  0.966900  0.467500  1.0
  N  N1269  1  0.104000  0.466900  0.967500  1.0
  N  N1270  1  0.104000  0.533100  0.532500  1.0
  N  N1271  1  0.604000  0.966900  0.967500  1.0
  N  N1272  1  0.604000  0.033100  0.532500  1.0
  N  N1273  1  0.116200  0.426500  0.094500  1.0
  N  N1274  1  0.116200  0.573500  0.405500  1.0
  N  N1275  1  0.616200  0.926500  0.094500  1.0
  N  N1276  1  0.616200  0.073500  0.405500  1.0
  N  N1277  1  0.883800  0.573500  0.905500  1.0
  N  N1278  1  0.883800  0.426500  0.594500  1.0
  N  N1279  1  0.383800  0.073500  0.905500  1.0
  N  N1280  1  0.383800  0.926500  0.594500  1.0
  N  N1281  1  0.174500  0.324700  0.968000  1.0
  N  N1282  1  0.174500  0.675300  0.532000  1.0
  N  N1283  1  0.674500  0.824700  0.968000  1.0
  N  N1284  1  0.674500  0.175300  0.532000  1.0
  N  N1285  1  0.825500  0.675300  0.032000  1.0
  N  N1286  1  0.825500  0.324700  0.468000  1.0
  N  N1287  1  0.325500  0.175300  0.032000  1.0
  N  N1288  1  0.325500  0.824700  0.468000  1.0
  N  N1289  1  0.184400  0.266400  0.937000  1.0
  N  N1290  1  0.184400  0.733600  0.563000  1.0
  N  N1291  1  0.684400  0.766400  0.937000  1.0
  N  N1292  1  0.684400  0.233600  0.563000  1.0
  N  N1293  1  0.815600  0.733600  0.063000  1.0
  N  N1294  1  0.815600  0.266400  0.437000  1.0
  N  N1295  1  0.315600  0.233600  0.063000  1.0
  N  N1296  1  0.315600  0.766400  0.437000  1.0
  N  N1297  1  0.050200  0.279900  0.994200  1.0
  N  N1298  1  0.050200  0.720100  0.505800  1.0
  N  N1299  1  0.550200  0.779900  0.994200  1.0
  N  N1300  1  0.550200  0.220100  0.505800  1.0
  N  N1301  1  0.949800  0.720100  0.005800  1.0
  N  N1302  1  0.949800  0.279900  0.494200  1.0
  N  N1303  1  0.449800  0.220100  0.005800  1.0
  N  N1304  1  0.449800  0.779900  0.494200  1.0
  N  N1305  1  0.072400  0.226800  0.957600  1.0
  N  N1306  1  0.072400  0.773200  0.542400  1.0
  N  N1307  1  0.572400  0.726800  0.957600  1.0
  N  N1308  1  0.572400  0.273200  0.542400  1.0
  N  N1309  1  0.927600  0.773200  0.042400  1.0
  N  N1310  1  0.927600  0.226800  0.457600  1.0
  N  N1311  1  0.427600  0.273200  0.042400  1.0
  N  N1312  1  0.427600  0.726800  0.457600  1.0
  N  N1313  1  0.045200  0.311000  0.912000  1.0
  N  N1314  1  0.045200  0.689000  0.588000  1.0
  N  N1315  1  0.545200  0.811000  0.912000  1.0
  N  N1316  1  0.545200  0.189000  0.588000  1.0
  N  N1317  1  0.954800  0.689000  0.088000  1.0
  N  N1318  1  0.954800  0.311000  0.412000  1.0
  N  N1319  1  0.454800  0.189000  0.088000  1.0
  N  N1320  1  0.454800  0.811000  0.412000  1.0
  N  N1321  1  0.075900  0.256900  0.886400  1.0
  N  N1322  1  0.075900  0.743100  0.613600  1.0
  N  N1323  1  0.575900  0.756900  0.886400  1.0
  N  N1324  1  0.575900  0.243100  0.613600  1.0
  N  N1325  1  0.924100  0.743100  0.113600  1.0
  N  N1326  1  0.924100  0.256900  0.386400  1.0
  N  N1327  1  0.424100  0.243100  0.113600  1.0
  N  N1328  1  0.424100  0.756900  0.386400  1.0
  N  N1329  1  0.782000  0.528700  0.084900  1.0
  N  N1330  1  0.782000  0.471300  0.415100  1.0
  N  N1331  1  0.282000  0.028700  0.084900  1.0
  N  N1332  1  0.282000  0.971300  0.415100  1.0
  N  N1333  1  0.218000  0.471300  0.915100  1.0
  N  N1334  1  0.218000  0.528700  0.584900  1.0
  N  N1335  1  0.718000  0.971300  0.915100  1.0
  N  N1336  1  0.718000  0.028700  0.584900  1.0
  N  N1337  1  0.904700  0.509600  0.113800  1.0
  N  N1338  1  0.904700  0.490400  0.386200  1.0
  N  N1339  1  0.404700  0.009600  0.113800  1.0
  N  N1340  1  0.404700  0.990400  0.386200  1.0
  N  N1341  1  0.095300  0.490400  0.886200  1.0
  N  N1342  1  0.095300  0.509600  0.613800  1.0
  N  N1343  1  0.595300  0.990400  0.886200  1.0
  N  N1344  1  0.595300  0.009600  0.613800  1.0
  N  N1345  1  0.805500  0.413400  0.065800  1.0
  N  N1346  1  0.805500  0.586600  0.434200  1.0
  N  N1347  1  0.305500  0.913400  0.065800  1.0
  N  N1348  1  0.305500  0.086600  0.434200  1.0
  N  N1349  1  0.194500  0.586600  0.934200  1.0
  N  N1350  1  0.194500  0.413400  0.565800  1.0
  N  N1351  1  0.694500  0.086600  0.934200  1.0
  N  N1352  1  0.694500  0.913400  0.565800  1.0
  N  N1353  1  0.802700  0.438300  0.988900  1.0
  N  N1354  1  0.802700  0.561700  0.511100  1.0
  N  N1355  1  0.302700  0.938300  0.988900  1.0
  N  N1356  1  0.302700  0.061700  0.511100  1.0
  N  N1357  1  0.197300  0.561700  0.011100  1.0
  N  N1358  1  0.197300  0.438300  0.488900  1.0
  N  N1359  1  0.697300  0.061700  0.011100  1.0
  N  N1360  1  0.697300  0.938300  0.488900  1.0
  O  O1361  1  0.806100  0.495500  0.831300  1
  O  O1362  1  0.806100  0.504500  0.668700  1
  O  O1363  1  0.306100  0.995500  0.831300  1
  O  O1364  1  0.306100  0.004500  0.668700  1
  O  O1365  1  0.193900  0.504500  0.168700  1
  O  O1366  1  0.193900  0.495500  0.331300  1
  O  O1367  1  0.693900  0.004500  0.168700  1
  O  O1368  1  0.693900  0.995500  0.331300  1
  F  F1369  1  0.787800  0.500400  0.201300  1
  F  F1370  1  0.787800  0.499600  0.298700  1
  F  F1371  1  0.287800  0.000400  0.201300  1
  F  F1372  1  0.287800  0.999600  0.298700  1
  F  F1373  1  0.212200  0.499600  0.798700  1
  F  F1374  1  0.212200  0.500400  0.701300  1
  F  F1375  1  0.712200  0.999600  0.798700  1
  F  F1376  1  0.712200  0.000400  0.701300  1
  F  F1377  1  0.791700  0.436400  0.237500  1
  F  F1378  1  0.791700  0.563600  0.262500  1
  F  F1379  1  0.291700  0.936400  0.237500  1
  F  F1380  1  0.291700  0.063600  0.262500  1
  F  F1381  1  0.208300  0.563600  0.762500  1
  F  F1382  1  0.208300  0.436400  0.737500  1
  F  F1383  1  0.708300  0.063600  0.762500  1
  F  F1384  1  0.708300  0.936400  0.737500  1
  F  F1385  1  0.682700  0.474300  0.225900  1
  F  F1386  1  0.682700  0.525700  0.274100  1
  F  F1387  1  0.182700  0.974300  0.225900  1
  F  F1388  1  0.182700  0.025700  0.274100  1
  F  F1389  1  0.317300  0.525700  0.774100  1
  F  F1390  1  0.317300  0.474300  0.725900  1
  F  F1391  1  0.817300  0.025700  0.774100  1
  F  F1392  1  0.817300  0.974300  0.725900  1
  F  F1393  1  0.832900  0.476400  0.218600  1.0
  F  F1394  1  0.832900  0.523600  0.281400  1.0
  F  F1395  1  0.332900  0.976400  0.218600  1.0
  F  F1396  1  0.332900  0.023600  0.281400  1.0
  F  F1397  1  0.167100  0.523600  0.781400  1.0
  F  F1398  1  0.167100  0.476400  0.718600  1.0
  F  F1399  1  0.667100  0.023600  0.781400  1.0
  F  F1400  1  0.667100  0.976400  0.718600  1.0
  F  F1401  1  0.734900  0.433500  0.235600  1.0
  F  F1402  1  0.734900  0.566500  0.264400  1.0
  F  F1403  1  0.234900  0.933500  0.235600  1.0
  F  F1404  1  0.234900  0.066500  0.264400  1.0
  F  F1405  1  0.265100  0.566500  0.764400  1.0
  F  F1406  1  0.265100  0.433500  0.735600  1.0
  F  F1407  1  0.765100  0.066500  0.764400  1.0
  F  F1408  1  0.765100  0.933500  0.735600  1.0
  F  F1409  1  0.718300  0.496200  0.198300  1.0
  F  F1410  1  0.718300  0.503800  0.301700  1.0
  F  F1411  1  0.218300  0.996200  0.198300  1.0
  F  F1412  1  0.218300  0.003800  0.301700  1.0
  F  F1413  1  0.281700  0.503800  0.801700  1.0
  F  F1414  1  0.281700  0.496200  0.698300  1.0
  F  F1415  1  0.781700  0.003800  0.801700  1.0
  F  F1416  1  0.781700  0.996200  0.698300  1.0
  F  F1417  1  0.997100  0.070100  0.028900  1.0
  F  F1418  1  0.997100  0.929900  0.471100  1.0
  F  F1419  1  0.497100  0.570100  0.028900  1.0
  F  F1420  1  0.497100  0.429900  0.471100  1.0
  F  F1421  1  0.002900  0.929900  0.971100  1.0
  F  F1422  1  0.002900  0.070100  0.528900  1.0
  F  F1423  1  0.502900  0.429900  0.971100  1.0
  F  F1424  1  0.502900  0.570100  0.528900  1.0
  F  F1425  1  0.022800  0.995400  0.050840  1.0
  F  F1426  1  0.022800  0.004600  0.449160  1.0
  F  F1427  1  0.522800  0.495400  0.050840  1.0
  F  F1428  1  0.522800  0.504600  0.449160  1.0
  F  F1429  1  0.977200  0.004600  0.949160  1.0
  F  F1430  1  0.977200  0.995400  0.550840  1.0
  F  F1431  1  0.477200  0.504600  0.949160  1.0
  F  F1432  1  0.477200  0.495400  0.550840  1.0
  F  F1433  1  0.918000  0.994900  0.013060  1.0
  F  F1434  1  0.918000  0.005100  0.486940  1.0
  F  F1435  1  0.418000  0.494900  0.013060  1.0
  F  F1436  1  0.418000  0.505100  0.486940  1.0
  F  F1437  1  0.082000  0.005100  0.986940  1.0
  F  F1438  1  0.082000  0.994900  0.513060  1.0
  F  F1439  1  0.582000  0.505100  0.986940  1.0
  F  F1440  1  0.582000  0.494900  0.513060  1.0
