
#######################################################################
#
#                 Cambridge Crystallographic Data Centre
#                                CCDC 
#
#######################################################################
#
# If this CIF has been generated from an entry in the Cambridge 
# Structural Database, then it will include bibliographic, chemical, 
# crystal, experimental, refinement or atomic coordinate data resulting 
# from the CCDC's data processing and validation procedures.
#
#######################################################################

data_KAFXAS
_chemical_formula_moiety         
'C108 H140 B2 Co2 Fe2 N26 2+,2(F6 P1 1-),2(C1 H4 O1)'
_chemical_name_systematic        
"tetrakis(\m~2~-cyano)-bis(tris(3,5-dimethyl-1H-pyrazol-1-yl)(hydrido)borate)-tetrakis(4,4'-di-t-butyl-2,2'-bipyridine)-dicyano-di-cobalt(iii)-di-iron(ii) bis(hexafluorophosphate) methanol solvate"
_symmetry_cell_setting           monoclinic
_symmetry_space_group_name_H-M   'C 2/c'
_symmetry_Int_Tables_number      15
_space_group_name_Hall           '-C 2yn'
loop_
_symmetry_equiv_pos_site_id
_symmetry_equiv_pos_as_xyz
1 x,y,z
2 -x,y,1/2-z
3 1/2+x,1/2+y,z
4 1/2-x,1/2+y,1/2-z
5 -x,-y,-z
6 x,-y,1/2+z
7 1/2-x,1/2-y,-z
8 1/2+x,1/2-y,1/2+z
_cell_length_a                   24.556(4)
_cell_length_b                   18.762(3)
_cell_length_c                   29.255(5)
_cell_angle_alpha                90
_cell_angle_beta                 113.427(2)
_cell_angle_gamma                90
_cell_volume                     12367.3
_exptl_crystal_colour            green
_exptl_crystal_description       plate
_cell_formula_units_Z            4
loop_
_atom_site_label
_atom_site_type_symbol
_atom_site_fract_x
_atom_site_fract_y
_atom_site_fract_z
F1 F 0.5236(6) 0.1671(7) 0.7814(5)
F2 F 0.5665(5) 0.2651(9) 0.7644(4)
F3 F 0.5038(7) 0.2817(11) 0.8017(6)
P1 P 0.5000 0.2395(3) 0.7500
F1A F 0.4764(6) 0.1671(7) 0.7186(5)
F2A F 0.4335(5) 0.2651(9) 0.7356(4)
F3A F 0.4962(7) 0.2817(11) 0.6983(6)
C1 C 0.6817(4) 0.3911(5) 1.1334(3)
H1 H 0.7149 0.3656 1.1303
H2 H 0.6966 0.4216 1.1630
H3 H 0.6617 0.4205 1.1037
C2 C 0.6697(4) 0.2909(5) 1.1856(3)
H4 H 0.6406 0.2617 1.1924
H5 H 0.6903 0.3222 1.2141
H6 H 0.6986 0.2598 1.1802
C3 C 0.5848(4) 0.3783(5) 1.1437(3)
H7 H 0.5654 0.4084 1.1143
H8 H 0.6002 0.4082 1.1736
H9 H 0.5560 0.3442 1.1464
C4 C 0.3366(5) 0.3677(6) 0.8231(4)
Co1 Co 0.52755(4) 0.14406(5) 0.94975(3)
Fe1 Fe 0.64395(5) -0.07283(6) 1.01503(4)
N1 N 0.5817(3) 0.0690(4) 0.9789(2)
N2 N 0.4669(3) 0.1040(3) 0.9675(2)
N3 N 0.5735(3) -0.1162(4) 0.9055(3)
N4 N 0.6753(3) -0.1745(4) 1.0320(2)
N5 N 0.7336(3) -0.1844(4) 1.0630(2)
N6 N 0.7201(3) -0.0502(3) 1.0058(2)
N7 N 0.7732(3) -0.0724(3) 1.0424(2)
N8 N 0.6890(3) -0.0452(3) 1.0880(2)
N9 N 0.7431(3) -0.0759(3) 1.1136(2)
N10 N 0.4713(3) 0.2180(3) 0.9151(2)
N11 N 0.4904(3) 0.0953(3) 0.8862(2)
N12 N 0.5866(2) 0.1945(3) 0.9342(2)
N13 N 0.5617(2) 0.1973(3) 1.0111(2)
C5 C 0.6111(3) 0.0171(4) 0.9956(3)
C6 C 0.4230(3) 0.0932(4) 0.9728(3)
C7 C 0.6022(3) -0.1011(4) 0.9469(3)
C8 C 0.6518(4) -0.2405(5) 1.0168(3)
C9 C 0.6969(4) -0.2915(5) 1.0386(3)
H10 H 0.6931 -0.3418 1.0346
C10 C 0.7469(4) -0.2550(5) 1.0663(3)
C11 C 0.7345(3) -0.0143(4) 0.9722(3)
C12 C 0.7967(4) -0.0130(4) 0.9882(3)
H11 H 0.8185 0.0095 0.9718
C13 C 0.8197(3) -0.0505(4) 1.0322(3)
C14 C 0.6768(3) -0.0042(4) 1.1203(3)
C15 C 0.7236(3) -0.0098(4) 1.1672(3)
H12 H 0.7264 0.0134 1.1969
C16 C 0.7648(3) -0.0556(4) 1.1621(3)
C17 C 0.4660(3) 0.2842(4) 0.9309(3)
H13 H 0.4934 0.2984 0.9630
C18 C 0.4238(4) 0.3322(5) 0.9036(3)
H14 H 0.4224 0.3782 0.9166
C19 C 0.3830(4) 0.3131(5) 0.8567(3)
C20 C 0.3886(4) 0.2459(5) 0.8406(3)
H15 H 0.3611 0.2309 0.8088
C21 C 0.4324(3) 0.1992(4) 0.8689(3)
C22 C 0.4424(3) 0.1280(4) 0.8529(3)
C23 C 0.4079(3) 0.0961(5) 0.8075(3)
H16 H 0.3741 0.1206 0.7849
C24 C 0.4217(4) 0.0300(5) 0.7947(3)
C25 C 0.4711(3) -0.0030(4) 0.8300(3)
H17 H 0.4824 -0.0489 0.8233
C26 C 0.5042(3) 0.0299(4) 0.8750(3)
H18 H 0.5376 0.0057 0.8985
C27 C 0.5977(3) 0.1861(4) 0.8934(3)
H19 H 0.5786 0.1486 0.8710
C28 C 0.6364(3) 0.2307(4) 0.8830(3)
H20 H 0.6441 0.2223 0.8541
C29 C 0.6639(3) 0.2873(4) 0.9140(3)
C30 C 0.6530(3) 0.2941(4) 0.9576(3)
H21 H 0.6722 0.3306 0.9809
C31 C 0.6146(3) 0.2480(4) 0.9665(3)
C32 C 0.6020(3) 0.2480(4) 1.0120(2)
C33 C 0.6266(3) 0.2936(4) 1.0521(3)
H22 H 0.6534 0.3297 1.0515
C34 C 0.6123(3) 0.2870(4) 1.0935(3)
C35 C 0.5732(3) 0.2333(4) 1.0915(3)
H23 H 0.5624 0.2265 1.1190
C36 C 0.5493(3) 0.1896(4) 1.0510(3)
H24 H 0.5231 0.1526 1.0514
C37 C 0.5893(3) -0.2540(4) 0.9830(3)
H25 H 0.5840 -0.2443 0.9485
H26 H 0.5793 -0.3040 0.9859
H27 H 0.5631 -0.2229 0.9920
C38 C 0.8078(4) -0.2835(5) 1.0974(4)
H28 H 0.8360 -0.2667 1.0837
H29 H 0.8203 -0.2667 1.1318
H30 H 0.8068 -0.3357 1.0969
C39 C 0.6893(3) 0.0197(4) 0.9271(3)
H31 H 0.6666 0.0546 0.9373
H32 H 0.7092 0.0437 0.9083
H33 H 0.6624 -0.0169 0.9062
C40 C 0.8832(3) -0.0656(5) 1.0654(3)
H34 H 0.8905 -0.1170 1.0660
H35 H 0.9093 -0.0407 1.0526
H36 H 0.8912 -0.0489 1.0992
C41 C 0.6244(3) 0.0418(4) 1.1064(3)
H37 H 0.5891 0.0153 1.0849
H38 H 0.6195 0.0573 1.1365
H39 H 0.6296 0.0836 1.0884
C42 C 0.8246(4) -0.0797(5) 1.1995(3)
H40 H 0.8558 -0.0629 1.1891
H41 H 0.8314 -0.0601 1.2323
H42 H 0.8256 -0.1319 1.2012
C43 C 0.3846(4) -0.0038(5) 0.7435(3)
C44 C 0.7013(3) 0.3430(4) 0.9006(3)
C45 C 0.7267(4) 0.3119(5) 0.8643(3)
H43 H 0.7506 0.2696 0.8793
H44 H 0.7516 0.3477 0.8576
H45 H 0.6940 0.2985 0.8331
C46 C 0.7545(3) 0.3683(4) 0.9472(3)
H46 H 0.7401 0.3935 0.9695
H47 H 0.7792 0.4005 0.9371
H48 H 0.7782 0.3270 0.9645
C47 C 0.6605(4) 0.4064(5) 0.8769(3)
H49 H 0.6291 0.3916 0.8453
H50 H 0.6837 0.4449 0.8707
H51 H 0.6428 0.4234 0.8996
C48 C 0.6372(4) 0.3367(4) 1.1384(3)
B1 B 0.7720(4) -0.1211(5) 1.0844(3)
H52 H 0.8130 -0.1362 1.1067
C49 C 0.4216(6) -0.0147(8) 0.7152(5)
H53 H 0.4569 -0.0424 0.7353
H54 H 0.4338 0.0316 0.7070
H55 H 0.3988 -0.0407 0.6844
C50 C 0.3286(6) 0.0394(9) 0.7153(7)
H56 H 0.3053 0.0156 0.6837
H57 H 0.3397 0.0873 0.7087
H58 H 0.3050 0.0429 0.7354
C51 C 0.3649(5) -0.0809(5) 0.7544(4)
H59 H 0.3419 -0.1047 0.7227
H60 H 0.3405 -0.0759 0.7737
H61 H 0.4003 -0.1092 0.7732
C52 C 0.3065(6) 0.4032(5) 0.8550(5)
H62 H 0.2797 0.4409 0.8355
H63 H 0.3372 0.4239 0.8849
H64 H 0.2838 0.3678 0.8648
C53 C 0.3723(7) 0.4238(9) 0.8084(7)
H65 H 0.3463 0.4637 0.7915
H66 H 0.3884 0.4022 0.7859
H67 H 0.4050 0.4412 0.8383
C54 C 0.2916(7) 0.3349(8) 0.7781(6)
H68 H 0.2609 0.3701 0.7606
H69 H 0.2735 0.2941 0.7877
H70 H 0.3106 0.3187 0.7561
C1D C 0.3183(4) -0.3911(5) 0.8666(3)
H1D H 0.2851 -0.3656 0.8697
H2D H 0.3034 -0.4216 0.8370
H3D H 0.3383 -0.4205 0.8963
C2D C 0.3303(4) -0.2909(5) 0.8144(3)
H4D H 0.3594 -0.2617 0.8076
H5D H 0.3097 -0.3222 0.7859
H6D H 0.3014 -0.2598 0.8198
C3D C 0.4152(4) -0.3783(5) 0.8563(3)
H7D H 0.4346 -0.4084 0.8857
H8D H 0.3998 -0.4082 0.8264
H9D H 0.4440 -0.3442 0.8536
C4D C 0.6634(5) -0.3677(6) 1.1769(4)
Co1D Co 0.47245(4) -0.14406(5) 1.05025(3)
Fe1D Fe 0.35605(5) 0.07283(6) 0.98497(4)
N1D N 0.4183(3) -0.0690(4) 1.0211(2)
N2D N 0.5331(3) -0.1040(3) 1.0325(2)
N3D N 0.4265(3) 0.1162(4) 1.0945(3)
N4D N 0.3247(3) 0.1745(4) 0.9680(2)
N5D N 0.2664(3) 0.1844(4) 0.9370(2)
N6D N 0.2799(3) 0.0502(3) 0.9942(2)
N7D N 0.2268(3) 0.0724(3) 0.9576(2)
N8D N 0.3110(3) 0.0452(3) 0.9120(2)
N9D N 0.2569(3) 0.0759(3) 0.8864(2)
N10D N 0.5287(3) -0.2180(3) 1.0849(2)
N11D N 0.5096(3) -0.0953(3) 1.1138(2)
N12D N 0.4134(2) -0.1945(3) 1.0658(2)
N13D N 0.4383(2) -0.1973(3) 0.9889(2)
C5D C 0.3889(3) -0.0171(4) 1.0044(3)
C6D C 0.5770(3) -0.0932(4) 1.0272(3)
C7D C 0.3978(3) 0.1011(4) 1.0531(3)
C8D C 0.3482(4) 0.2405(5) 0.9832(3)
C9D C 0.3031(4) 0.2915(5) 0.9614(3)
H10D H 0.3069 0.3418 0.9654
C10D C 0.2531(4) 0.2550(5) 0.9337(3)
C11D C 0.2655(3) 0.0143(4) 1.0278(3)
C12D C 0.2033(4) 0.0130(4) 1.0118(3)
H11D H 0.1815 -0.0095 1.0282
C13D C 0.1803(3) 0.0505(4) 0.9678(3)
C14D C 0.3232(3) 0.0042(4) 0.8797(3)
C15D C 0.2764(3) 0.0098(4) 0.8328(3)
H12D H 0.2736 -0.0134 0.8031
C16D C 0.2352(3) 0.0556(4) 0.8379(3)
C17D C 0.5340(3) -0.2842(4) 1.0691(3)
H13D H 0.5066 -0.2984 1.0370
C18D C 0.5762(4) -0.3322(5) 1.0964(3)
H14D H 0.5776 -0.3782 1.0834
C19D C 0.6170(4) -0.3131(5) 1.1433(3)
C20D C 0.6114(4) -0.2459(5) 1.1594(3)
H15D H 0.6389 -0.2309 1.1912
C21D C 0.5676(3) -0.1992(4) 1.1311(3)
C22D C 0.5576(3) -0.1280(4) 1.1471(3)
C23D C 0.5921(3) -0.0961(5) 1.1925(3)
H16D H 0.6259 -0.1206 1.2151
C24D C 0.5783(4) -0.0300(5) 1.2053(3)
C25D C 0.5289(3) 0.0030(4) 1.1700(3)
H17D H 0.5176 0.0489 1.1767
C26D C 0.4958(3) -0.0299(4) 1.1250(3)
H18D H 0.4624 -0.0057 1.1015
C27D C 0.4023(3) -0.1861(4) 1.1066(3)
H19D H 0.4214 -0.1486 1.1290
C28D C 0.3636(3) -0.2307(4) 1.1170(3)
H20D H 0.3559 -0.2223 1.1459
C29D C 0.3361(3) -0.2873(4) 1.0860(3)
C30D C 0.3470(3) -0.2941(4) 1.0424(3)
H21D H 0.3278 -0.3306 1.0191
C31D C 0.3854(3) -0.2480(4) 1.0335(3)
C32D C 0.3980(3) -0.2480(4) 0.9880(2)
C33D C 0.3734(3) -0.2936(4) 0.9479(3)
H22D H 0.3466 -0.3297 0.9485
C34D C 0.3877(3) -0.2870(4) 0.9065(3)
C35D C 0.4268(3) -0.2333(4) 0.9085(3)
H23D H 0.4376 -0.2265 0.8810
C36D C 0.4507(3) -0.1896(4) 0.9490(3)
H24D H 0.4769 -0.1526 0.9486
C37D C 0.4107(3) 0.2540(4) 1.0170(3)
H25D H 0.4160 0.2443 1.0515
H26D H 0.4207 0.3040 1.0141
H27D H 0.4369 0.2229 1.0080
C38D C 0.1922(4) 0.2835(5) 0.9026(4)
H28D H 0.1640 0.2667 0.9163
H29D H 0.1797 0.2667 0.8682
H30D H 0.1932 0.3357 0.9031
C39D C 0.3107(3) -0.0197(4) 1.0729(3)
H31D H 0.3334 -0.0546 1.0627
H32D H 0.2908 -0.0437 1.0917
H33D H 0.3376 0.0169 1.0938
C40D C 0.1168(3) 0.0656(5) 0.9346(3)
H34D H 0.1095 0.1170 0.9340
H35D H 0.0907 0.0407 0.9474
H36D H 0.1088 0.0489 0.9008
C41D C 0.3756(3) -0.0418(4) 0.8936(3)
H37D H 0.4109 -0.0153 0.9151
H38D H 0.3805 -0.0573 0.8635
H39D H 0.3704 -0.0836 0.9116
C42D C 0.1754(4) 0.0797(5) 0.8005(3)
H40D H 0.1442 0.0629 0.8109
H41D H 0.1686 0.0601 0.7677
H42D H 0.1744 0.1319 0.7988
C43D C 0.6154(4) 0.0038(5) 1.2565(3)
C44D C 0.2987(3) -0.3430(4) 1.0994(3)
C45D C 0.2733(4) -0.3119(5) 1.1357(3)
H43D H 0.2494 -0.2696 1.1207
H44D H 0.2484 -0.3477 1.1424
H45D H 0.3060 -0.2985 1.1669
C46D C 0.2455(3) -0.3683(4) 1.0528(3)
H46D H 0.2599 -0.3935 1.0305
H47D H 0.2208 -0.4005 1.0629
H48D H 0.2218 -0.3270 1.0355
C47D C 0.3395(4) -0.4064(5) 1.1231(3)
H49D H 0.3709 -0.3916 1.1547
H50D H 0.3163 -0.4449 1.1293
H51D H 0.3572 -0.4234 1.1004
C48D C 0.3628(4) -0.3367(4) 0.8616(3)
B1D B 0.2280(4) 0.1211(5) 0.9156(3)
H52D H 0.1870 0.1362 0.8933
C49D C 0.5784(6) 0.0147(8) 1.2848(5)
H53D H 0.5431 0.0424 1.2647
H54D H 0.5662 -0.0316 1.2930
H55D H 0.6012 0.0407 1.3156
C50D C 0.6714(6) -0.0394(9) 1.2847(7)
H56D H 0.6947 -0.0156 1.3163
H57D H 0.6603 -0.0873 1.2913
H58D H 0.6950 -0.0429 1.2646
C51D C 0.6351(5) 0.0809(5) 1.2456(4)
H59D H 0.6581 0.1047 1.2773
H60D H 0.6595 0.0759 1.2263
H61D H 0.5997 0.1092 1.2268
C52D C 0.6935(6) -0.4032(5) 1.1450(5)
H62D H 0.7203 -0.4409 1.1645
H63D H 0.6628 -0.4239 1.1151
H64D H 0.7162 -0.3678 1.1352
C53D C 0.6277(7) -0.4238(9) 1.1916(7)
H65D H 0.6537 -0.4637 1.2085
H66D H 0.6116 -0.4022 1.2141
H67D H 0.5950 -0.4412 1.1617
C54D C 0.7084(7) -0.3349(8) 1.2219(6)
H68D H 0.7391 -0.3701 1.2394
H69D H 0.7265 -0.2941 1.2123
H70D H 0.6894 -0.3187 1.2439
P2 P 1.0000 0.0000 1.0000
F4 F 0.9299(2) 0.0029(3) 0.9711(2)
F5 F 1.0046(3) -0.0228(3) 0.94916(19)
F6 F 1.0051(3) 0.0820(3) 0.98694(19)
F4D F 1.0701(2) -0.0029(3) 1.0289(2)
F5D F 0.9954(3) 0.0228(3) 1.05084(19)
F6D F 0.9949(3) -0.0820(3) 1.01306(19)
O1 O 0.5045(9) 0.1939(9) 0.1687(7)
H71 H 0.4975 0.1526 0.1760
C55 C 0.4742(9) 0.2479(6) 0.1892(5)
H72 H 0.4658 0.2261 0.2161
H73 H 0.4370 0.2633 0.1626
H74 H 0.5003 0.2891 0.2021
C56? C 0.3270(17) 0.4276(18) 0.8457(14)
H75? H 0.3625 0.4579 0.8567
H76? H 0.3186 0.4139 0.8745
H77? H 0.2931 0.4541 0.8219
C57? C 0.331(2) 0.373(3) 0.7708(16)
H78? H 0.3061 0.4138 0.7546
H79? H 0.3127 0.3291 0.7529
H80? H 0.3704 0.3787 0.7704
C58? C 0.2655(17) 0.317(2) 0.8108(17)
H81? H 0.2591 0.2823 0.7844
H82? H 0.2322 0.3509 0.8004
H83? H 0.2684 0.2929 0.8413
C59? C 0.4137(14) 0.0377(17) 0.7115(12)
C60? C 0.3205(9) 0.017(2) 0.7185(18)
C61? C 0.3963(19) -0.0793(12) 0.7393(18)
F7? F 0.4996(5) 0.2122(9) 0.7987(4)
F8? F 0.5636(9) 0.2083(13) 0.7625(6)
F9? F 0.5257(8) 0.3173(10) 0.7741(6)
H84? H 0.3999 0.0168 0.6781
H85? H 0.4570 0.0339 0.7278
H86? H 0.4022 0.0880 0.7089
H87? H 0.3175 0.0635 0.7019
H88? H 0.3034 0.0213 0.7435
H89? H 0.2988 -0.0187 0.6938
H90? H 0.3633 -0.1001 0.7111
H91? H 0.4003 -0.1040 0.7700
H92? H 0.4331 -0.0845 0.7341
loop_
_geom_bond_atom_site_label_1
_geom_bond_atom_site_label_2
_geom_bond_site_symmetry_1
_geom_bond_site_symmetry_2
F1 P1 1_555 1_555
F2 P1 1_555 1_555
F3 P1 1_555 1_555
P1 F1A 1_555 1_555
C1 H1 1_555 1_555
H2 C1 1_555 1_555
H3 C1 1_555 1_555
C2 H4 1_555 1_555
H5 C2 1_555 1_555
H6 C2 1_555 1_555
C3 H7 1_555 1_555
H8 C3 1_555 1_555
H9 C3 1_555 1_555
C4 C19 1_555 1_555
Co1 N1 1_555 1_555
Fe1 N4 1_555 1_555
N1 C5 1_555 1_555
N2 Co1 1_555 1_555
N3 C7 1_555 1_555
N4 N5 1_555 1_555
N5 C10 1_555 1_555
N6 Fe1 1_555 1_555
N7 N6 1_555 1_555
N8 Fe1 1_555 1_555
N9 N8 1_555 1_555
N10 Co1 1_555 1_555
N11 Co1 1_555 1_555
N12 Co1 1_555 1_555
N13 Co1 1_555 1_555
C5 Fe1 1_555 1_555
C6 N2 1_555 1_555
C7 Fe1 1_555 1_555
C8 N4 1_555 1_555
C9 C8 1_555 1_555
H10 C9 1_555 1_555
C10 C9 1_555 1_555
C11 N6 1_555 1_555
C12 C11 1_555 1_555
H11 C12 1_555 1_555
C13 N7 1_555 1_555
C14 N8 1_555 1_555
C15 C14 1_555 1_555
H12 C15 1_555 1_555
C16 N9 1_555 1_555
C17 N10 1_555 1_555
H13 C17 1_555 1_555
C18 C17 1_555 1_555
H14 C18 1_555 1_555
C19 C18 1_555 1_555
C20 C19 1_555 1_555
H15 C20 1_555 1_555
C21 N10 1_555 1_555
C22 N11 1_555 1_555
C23 C22 1_555 1_555
H16 C23 1_555 1_555
C24 C23 1_555 1_555
C25 C24 1_555 1_555
H17 C25 1_555 1_555
C26 N11 1_555 1_555
H18 C26 1_555 1_555
C27 N12 1_555 1_555
H19 C27 1_555 1_555
C28 C27 1_555 1_555
H20 C28 1_555 1_555
C29 C28 1_555 1_555
C30 C29 1_555 1_555
H21 C30 1_555 1_555
C31 N12 1_555 1_555
C32 N13 1_555 1_555
C33 C32 1_555 1_555
H22 C33 1_555 1_555
C34 C33 1_555 1_555
C35 C34 1_555 1_555
H23 C35 1_555 1_555
C36 N13 1_555 1_555
H24 C36 1_555 1_555
C37 C8 1_555 1_555
H25 C37 1_555 1_555
H26 C37 1_555 1_555
H27 C37 1_555 1_555
C38 C10 1_555 1_555
H28 C38 1_555 1_555
H29 C38 1_555 1_555
H30 C38 1_555 1_555
C39 C11 1_555 1_555
H31 C39 1_555 1_555
H32 C39 1_555 1_555
H33 C39 1_555 1_555
C40 C13 1_555 1_555
H34 C40 1_555 1_555
H35 C40 1_555 1_555
H36 C40 1_555 1_555
C41 C14 1_555 1_555
H37 C41 1_555 1_555
H38 C41 1_555 1_555
H39 C41 1_555 1_555
C42 C16 1_555 1_555
H40 C42 1_555 1_555
H41 C42 1_555 1_555
H42 C42 1_555 1_555
C43 C24 1_555 1_555
C44 C29 1_555 1_555
C45 C44 1_555 1_555
H43 C45 1_555 1_555
H44 C45 1_555 1_555
H45 C45 1_555 1_555
C46 C44 1_555 1_555
H46 C46 1_555 1_555
H47 C46 1_555 1_555
H48 C46 1_555 1_555
C47 C44 1_555 1_555
H49 C47 1_555 1_555
H50 C47 1_555 1_555
H51 C47 1_555 1_555
C48 C1 1_555 1_555
B1 N5 1_555 1_555
H52 B1 1_555 1_555
C49 C43 1_555 1_555
H53 C49 1_555 1_555
H54 C49 1_555 1_555
H55 C49 1_555 1_555
C50 C43 1_555 1_555
H56 C50 1_555 1_555
H57 C50 1_555 1_555
H58 C50 1_555 1_555
C51 C43 1_555 1_555
H59 C51 1_555 1_555
H60 C51 1_555 1_555
H61 C51 1_555 1_555
C52 C4 1_555 1_555
H62 C52 1_555 1_555
H63 C52 1_555 1_555
H64 C52 1_555 1_555
C53 C4 1_555 1_555
H65 C53 1_555 1_555
H66 C53 1_555 1_555
H67 C53 1_555 1_555
C54 C4 1_555 1_555
H68 C54 1_555 1_555
H69 C54 1_555 1_555
H70 C54 1_555 1_555
P2 F4 1_555 1_555
F5 P2 1_555 1_555
F6 P2 1_555 1_555
O1 H71 1_555 1_555
C55 O1 1_555 1_555
H72 C55 1_555 1_555
H73 C55 1_555 1_555
H74 C55 1_555 1_555
F2A P1 1_555 1_555
F3A P1 1_555 1_555
C1D H1D 1_555 1_555
H2D C1D 1_555 1_555
H3D C1D 1_555 1_555
C2D H4D 1_555 1_555
H5D C2D 1_555 1_555
H6D C2D 1_555 1_555
C3D H7D 1_555 1_555
H8D C3D 1_555 1_555
H9D C3D 1_555 1_555
C4D C19D 1_555 1_555
Co1D N1D 1_555 1_555
Fe1D C6 1_555 1_555
N1D C5D 1_555 1_555
N2D Co1D 1_555 1_555
N3D C7D 1_555 1_555
N4D Fe1D 1_555 1_555
N5D N4D 1_555 1_555
N6D Fe1D 1_555 1_555
N7D N6D 1_555 1_555
N8D Fe1D 1_555 1_555
N9D N8D 1_555 1_555
N10D Co1D 1_555 1_555
N11D Co1D 1_555 1_555
N12D Co1D 1_555 1_555
N13D Co1D 1_555 1_555
C5D Fe1D 1_555 1_555
C6D Fe1 1_555 1_555
C7D Fe1D 1_555 1_555
C8D N4D 1_555 1_555
C9D C8D 1_555 1_555
H10D C9D 1_555 1_555
C10D N5D 1_555 1_555
C11D N6D 1_555 1_555
C12D C11D 1_555 1_555
H11D C12D 1_555 1_555
C13D N7D 1_555 1_555
C14D N8D 1_555 1_555
C15D C14D 1_555 1_555
H12D C15D 1_555 1_555
C16D N9D 1_555 1_555
C17D N10D 1_555 1_555
H13D C17D 1_555 1_555
C18D C17D 1_555 1_555
H14D C18D 1_555 1_555
C19D C18D 1_555 1_555
C20D C19D 1_555 1_555
H15D C20D 1_555 1_555
C21D N10D 1_555 1_555
C22D N11D 1_555 1_555
C23D C22D 1_555 1_555
H16D C23D 1_555 1_555
C24D C23D 1_555 1_555
C25D C24D 1_555 1_555
H17D C25D 1_555 1_555
C26D N11D 1_555 1_555
H18D C26D 1_555 1_555
C27D N12D 1_555 1_555
H19D C27D 1_555 1_555
C28D C27D 1_555 1_555
H20D C28D 1_555 1_555
C29D C28D 1_555 1_555
C30D C29D 1_555 1_555
H21D C30D 1_555 1_555
C31D N12D 1_555 1_555
C32D N13D 1_555 1_555
C33D C32D 1_555 1_555
H22D C33D 1_555 1_555
C34D C33D 1_555 1_555
C35D C34D 1_555 1_555
H23D C35D 1_555 1_555
C36D N13D 1_555 1_555
H24D C36D 1_555 1_555
C37D C8D 1_555 1_555
H25D C37D 1_555 1_555
H26D C37D 1_555 1_555
H27D C37D 1_555 1_555
C38D C10D 1_555 1_555
H28D C38D 1_555 1_555
H29D C38D 1_555 1_555
H30D C38D 1_555 1_555
C39D C11D 1_555 1_555
H31D C39D 1_555 1_555
H32D C39D 1_555 1_555
H33D C39D 1_555 1_555
C40D C13D 1_555 1_555
H34D C40D 1_555 1_555
H35D C40D 1_555 1_555
H36D C40D 1_555 1_555
C41D C14D 1_555 1_555
H37D C41D 1_555 1_555
H38D C41D 1_555 1_555
H39D C41D 1_555 1_555
C42D C16D 1_555 1_555
H40D C42D 1_555 1_555
H41D C42D 1_555 1_555
H42D C42D 1_555 1_555
C43D C24D 1_555 1_555
C44D C29D 1_555 1_555
C45D C44D 1_555 1_555
H43D C45D 1_555 1_555
H44D C45D 1_555 1_555
H45D C45D 1_555 1_555
C46D C44D 1_555 1_555
H46D C46D 1_555 1_555
H47D C46D 1_555 1_555
H48D C46D 1_555 1_555
C47D C44D 1_555 1_555
H49D C47D 1_555 1_555
H50D C47D 1_555 1_555
H51D C47D 1_555 1_555
C48D C1D 1_555 1_555
B1D N5D 1_555 1_555
H52D B1D 1_555 1_555
C49D C43D 1_555 1_555
H53D C49D 1_555 1_555
H54D C49D 1_555 1_555
H55D C49D 1_555 1_555
C50D C43D 1_555 1_555
H56D C50D 1_555 1_555
H57D C50D 1_555 1_555
H58D C50D 1_555 1_555
C51D C43D 1_555 1_555
H59D C51D 1_555 1_555
H60D C51D 1_555 1_555
H61D C51D 1_555 1_555
C52D C4D 1_555 1_555
H62D C52D 1_555 1_555
H63D C52D 1_555 1_555
H64D C52D 1_555 1_555
C53D C4D 1_555 1_555
H65D C53D 1_555 1_555
H66D C53D 1_555 1_555
H67D C53D 1_555 1_555
C54D C4D 1_555 1_555
H68D C54D 1_555 1_555
H69D C54D 1_555 1_555
H70D C54D 1_555 1_555
F4D P2 1_555 1_555
F5D P2 1_555 1_555
F6D P2 1_555 1_555
C2 C48 1_555 1_555
C3 C48 1_555 1_555
N7 B1 1_555 1_555
N9 B1 1_555 1_555
C12 C13 1_555 1_555
C15 C16 1_555 1_555
C20 C21 1_555 1_555
C21 C22 1_555 1_555
C25 C26 1_555 1_555
C30 C31 1_555 1_555
C31 C32 1_555 1_555
C34 C48 1_555 1_555
C35 C36 1_555 1_555
C2D C48D 1_555 1_555
C3D C48D 1_555 1_555
N2D C6D 1_555 1_555
N7D B1D 1_555 1_555
N9D B1D 1_555 1_555
C9D C10D 1_555 1_555
C12D C13D 1_555 1_555
C15D C16D 1_555 1_555
C20D C21D 1_555 1_555
C21D C22D 1_555 1_555
C25D C26D 1_555 1_555
C30D C31D 1_555 1_555
C31D C32D 1_555 1_555
C34D C48D 1_555 1_555
C35D C36D 1_555 1_555

#END
