
#######################################################################
#
#                 Cambridge Crystallographic Data Centre
#                                CCDC 
#
#######################################################################
#
# If this CIF has been generated from an entry in the Cambridge 
# Structural Database, then it will include bibliographic, chemical, 
# crystal, experimental, refinement or atomic coordinate data resulting 
# from the CCDC's data processing and validation procedures.
#
#######################################################################

data_KAVWEM
_chemical_formula_moiety         
'C128 H160 Mn8 N24 O32,C120 H146 Mn8 N22 O32,2(C4 H9 N1 O1),4(H2 O1)'
_chemical_name_systematic        
"octakis(\m-2-oxido-4-methyl-N'-(2-methylacryloyl)benzohydrazidato)-octakis(N,N-dimethylformamide)-octa-manganese(iii) octakis(\m-2-oxido-4-methyl-N'-(2-methylacryloyl)benzohydrazidato)-diaqua-hexakis(N,N-dimethylformamide)-octa-manganese(iii)  N,N-dimethylformamide solvate tetrahydrate"
_symmetry_cell_setting           triclinic
_symmetry_space_group_name_H-M   'P -1'
_symmetry_Int_Tables_number      2
_space_group_name_Hall           '-P 1'
loop_
_symmetry_equiv_pos_site_id
_symmetry_equiv_pos_as_xyz
1 x,y,z
2 -x,-y,-z
_cell_length_a                   20.725(5)
_cell_length_b                   26.712(6)
_cell_length_c                   29.357(7)
_cell_angle_alpha                77.353(4)
_cell_angle_beta                 73.717(3)
_cell_angle_gamma                74.031(3)
_cell_volume                     14820.2
_cell_formula_units_Z            1
loop_
_atom_site_label
_atom_site_type_symbol
_atom_site_fract_x
_atom_site_fract_y
_atom_site_fract_z
Mn1 Mn 0.30560(7) 0.60059(6) 0.09596(5)
Mn2 Mn 0.33232(8) 0.53256(6) 0.26283(5)
Mn3 Mn 0.51983(9) 0.41523(7) 0.33385(7)
Mn4 Mn 0.74503(9) 0.44008(7) 0.33796(6)
Mn5 Mn 0.89784(8) 0.51664(6) 0.19423(6)
Mn6 Mn 0.83187(7) 0.67389(6) 0.07668(5)
Mn7 Mn 0.70467(7) 0.69451(6) -0.04917(6)
Mn8 Mn 0.44993(8) 0.71529(6) -0.01397(6)
N1 N 0.3029(4) 0.5860(3) 0.1640(3)
N2 N 0.3573(4) 0.5438(3) 0.1783(3)
N3 N 0.3928(4) 0.4751(3) 0.2935(3)
N4 N 0.4502(4) 0.4877(4) 0.3023(3)
N5 N 0.6002(5) 0.4241(4) 0.3513(3)
N6 N 0.6586(5) 0.4270(4) 0.3121(3)
N7 N 0.8165(4) 0.4552(3) 0.2810(3)
N8 N 0.8035(4) 0.5075(3) 0.2563(3)
N9 N 0.8725(4) 0.5863(3) 0.1576(3)
N10 N 0.8470(4) 0.5869(3) 0.1175(3)
N11 N 0.8023(4) 0.6800(3) 0.0182(3)
N12 N 0.7283(4) 0.6937(3) 0.0237(3)
N13 N 0.6043(4) 0.7161(3) -0.0415(3)
N14 N 0.5675(4) 0.6763(3) -0.0197(3)
N15 N 0.3941(4) 0.6640(3) 0.0168(3)
N16 N 0.3753(4) 0.6584(3) 0.0681(3)
N17 N 0.1248(5) 0.5910(5) 0.1018(4)
N18 N 0.1765(6) 0.6076(4) 0.3577(4)
N19 N 0.6212(8) 0.2700(8) 0.3963(6)
N20 N 0.7814(9) 0.4958(8) 0.4542(7)
N21 N 1.1056(6) 0.4563(5) 0.1067(5)
N22 N 0.8641(6) 0.8119(5) -0.0044(4)
N23 N 0.6567(6) 0.6407(5) -0.1518(4)
N24 N 0.2520(6) 0.7846(5) -0.0354(5)
O1 O 0.2673(3) 0.5966(3) 0.2432(2)
O2 O 0.2290(3) 0.6567(3) 0.1039(2)
O3 O 0.3810(3) 0.5412(3) 0.0973(2)
O4 O 0.4460(4) 0.3911(3) 0.3191(3)
O5 O 0.2771(3) 0.4879(3) 0.2643(2)
O6 O 0.4030(3) 0.5671(3) 0.2625(2)
O7 O 0.6682(4) 0.4342(3) 0.3954(3)
O8 O 0.4677(4) 0.4249(4) 0.3960(3)
O9 O 0.5833(4) 0.4189(3) 0.2709(3)
O10 O 0.9188(3) 0.4438(3) 0.2251(2)
O11 O 0.7887(4) 0.3684(3) 0.3434(3)
O12 O 0.7116(4) 0.5156(3) 0.3224(3)
O13 O 0.8529(3) 0.6758(3) 0.1371(2)
O14 O 0.9337(4) 0.5442(3) 0.2323(3)
O15 O 0.8596(4) 0.4994(3) 0.1488(2)
O16 O 0.8059(3) 0.6697(3) -0.0579(2)
O17 O 0.9238(3) 0.6631(3) 0.0422(2)
O18 O 0.7334(3) 0.6850(3) 0.1028(2)
O19 O 0.4985(3) 0.7721(3) -0.0398(2)
O20 O 0.7133(3) 0.7632(3) -0.0725(2)
O21 O 0.6792(3) 0.6279(3) -0.0220(2)
O22 O 0.3206(3) 0.6106(3) 0.0262(2)
O23 O 0.4553(3) 0.7008(3) -0.0743(2)
O24 O 0.4340(3) 0.7236(3) 0.0521(2)
O25 O 0.2291(3) 0.5485(3) 0.1064(3)
O26 O 0.2754(4) 0.5541(3) 0.3368(3)
O27 O 0.5606(5) 0.3290(4) 0.3479(4)
O28 O 0.7963(4) 0.4499(4) 0.3921(3)
O29 O 1.0025(4) 0.4943(3) 0.1485(3)
O30 O 0.8229(4) 0.7635(3) 0.0618(3)
O31 O 0.7229(4) 0.6690(3) -0.1220(3)
O32 O 0.3518(4) 0.7803(3) -0.0161(3)
C1 C 0.2606(5) 0.6103(4) 0.1999(4)
C2 C 0.2025(5) 0.6539(4) 0.1904(4)
C3 C 0.1891(5) 0.6746(4) 0.1443(4)
C4 C 0.1317(5) 0.7156(4) 0.1397(4)
H1 H 0.1239 0.7294 0.1092
C5 C 0.0855(5) 0.7366(4) 0.1796(4)
C6 C 0.0985(5) 0.7163(4) 0.2245(4)
H2 H 0.0685 0.7293 0.2516
C7 C 0.1560(5) 0.6766(4) 0.2289(4)
H3 H 0.1643 0.6641 0.2594
C8 C 0.0229(6) 0.7796(5) 0.1729(5)
H4 H 0.0231 0.7886 0.1393
H5 H 0.0237 0.8100 0.1848
H6 H -0.0181 0.7674 0.1902
C9 C 0.3956(5) 0.5235(4) 0.1399(4)
C10 C 0.4583(5) 0.4801(4) 0.1408(4)
C11 C 0.4908(5) 0.4577(4) 0.1018(4)
H7 H 0.5296 0.4302 0.1025
H8 H 0.4747 0.4696 0.0739
C12 C 0.4828(6) 0.4621(5) 0.1847(4)
H9 H 0.5238 0.4344 0.1795
H10 H 0.4477 0.4490 0.2099
H11 H 0.4931 0.4909 0.1938
C13 C 0.3961(5) 0.4247(5) 0.3028(4)
C14 C 0.3407(6) 0.4051(4) 0.2952(4)
C15 C 0.2842(5) 0.4367(4) 0.2759(4)
C16 C 0.2375(6) 0.4136(4) 0.2692(4)
H12 H 0.2019 0.4348 0.2555
C17 C 0.2399(6) 0.3603(5) 0.2815(4)
C18 C 0.2938(6) 0.3277(5) 0.3014(5)
H13 H 0.2964 0.2917 0.3099
C19 C 0.3440(6) 0.3496(5) 0.3084(5)
H14 H 0.3798 0.3278 0.3217
C20 C 0.1881(7) 0.3350(5) 0.2733(5)
H15 H 0.1544 0.3617 0.2593
H16 H 0.1655 0.3177 0.3034
H17 H 0.2114 0.3097 0.2519
C21 C 0.4495(5) 0.5379(4) 0.2848(4)
C22 C 0.5063(5) 0.5604(4) 0.2865(4)
C23 C 0.5323(7) 0.5466(5) 0.3256(5)
H18 H 0.5690 0.5596 0.3266
H19 H 0.5136 0.5239 0.3517
C24 C 0.5328(6) 0.5962(5) 0.2434(4)
H20 H 0.5693 0.6083 0.2487
H21 H 0.4961 0.6259 0.2372
H22 H 0.5502 0.5777 0.2162
C25 C 0.6108(6) 0.4283(5) 0.3916(5)
C26 C 0.5555(6) 0.4272(5) 0.4367(4)
C27 C 0.4865(7) 0.4247(6) 0.4381(5)
C28 C 0.4358(7) 0.4237(6) 0.4807(5)
H23 H 0.3917 0.4216 0.4806
C29 C 0.4514(7) 0.4258(6) 0.5247(5)
C30 C 0.5173(7) 0.4290(6) 0.5228(5)
H24 H 0.5284 0.4305 0.5509
C31 C 0.5679(7) 0.4300(5) 0.4800(5)
H25 H 0.6115 0.4325 0.4805
C32 C 0.3939(8) 0.4260(7) 0.5730(5)
H26 H 0.4132 0.4275 0.5988
H27 H 0.3770 0.3945 0.5798
H28 H 0.3567 0.4563 0.5699
C33 C 0.6440(6) 0.4237(5) 0.2713(4)
C34 C 0.6954(5) 0.4290(5) 0.2261(4)
C35 C 0.7583(6) 0.3996(5) 0.2208(5)
H29 H 0.7711 0.3747 0.2462
H30 H 0.7902 0.4037 0.1916
C36 C 0.6739(7) 0.4705(6) 0.1882(5)
H31 H 0.7115 0.4706 0.1602
H32 H 0.6609 0.5040 0.1991
H33 H 0.6352 0.4642 0.1803
C37 C 0.8776(5) 0.4248(4) 0.2622(4)
C38 C 0.8967(5) 0.3699(4) 0.2834(4)
C39 C 0.8528(6) 0.3442(5) 0.3233(4)
C40 C 0.8769(6) 0.2911(4) 0.3393(4)
H34 H 0.8486 0.2738 0.3647
C41 C 0.9419(6) 0.2630(5) 0.3186(5)
C42 C 0.9840(6) 0.2886(5) 0.2820(4)
H35 H 1.0280 0.2703 0.2686
C43 C 0.9623(6) 0.3408(4) 0.2648(4)
H36 H 0.9922 0.3572 0.2399
C44 C 0.9687(7) 0.2058(5) 0.3388(5)
H37 H 1.0139 0.1927 0.3199
H38 H 0.9380 0.1851 0.3379
H39 H 0.9710 0.2036 0.3714
C45 C 0.7483(5) 0.5355(4) 0.2813(4)
C46 C 0.7250(5) 0.5913(4) 0.2643(4)
C47 C 0.7167(5) 0.6067(5) 0.2209(5)
H40 H 0.7256 0.5821 0.2006
H41 H 0.7018 0.6424 0.2100
C48 C 0.7128(7) 0.6276(5) 0.3007(5)
H42 H 0.6975 0.6635 0.2865
H43 H 0.7550 0.6238 0.3099
H44 H 0.6781 0.6185 0.3285
C49 C 0.8733(5) 0.6330(4) 0.1654(3)
C50 C 0.8956(5) 0.6375(4) 0.2071(4)
C51 C 0.9232(5) 0.5938(4) 0.2384(4)
C52 C 0.9428(6) 0.6037(5) 0.2768(4)
H45 H 0.9611 0.5748 0.2972
C53 C 0.9372(6) 0.6518(5) 0.2868(4)
C54 C 0.9086(6) 0.6940(5) 0.2570(4)
H46 H 0.9029 0.7279 0.2633
C55 C 0.8878(6) 0.6880(4) 0.2179(4)
H47 H 0.8685 0.7177 0.1986
C56 C 0.9569(7) 0.6592(6) 0.3300(5)
H48 H 0.9487 0.6961 0.3310
H49 H 1.0050 0.6432 0.3280
H50 H 0.9298 0.6428 0.3586
C57 C 0.8402(5) 0.5404(4) 0.1162(4)
C58 C 0.8109(6) 0.5281(4) 0.0818(4)
C59 C 0.7578(6) 0.5618(4) 0.0663(4)
H51 H 0.7390 0.5938 0.0776
H52 H 0.7398 0.5531 0.0442
C60 C 0.8404(7) 0.4758(5) 0.0669(5)
H53 H 0.8174 0.4719 0.0441
H54 H 0.8342 0.4490 0.0944
H55 H 0.8887 0.4723 0.0523
C61 C 0.8366(5) 0.6689(4) -0.0255(4)
C62 C 0.9129(5) 0.6606(4) -0.0381(4)
C63 C 0.9507(5) 0.6632(4) -0.0053(4)
C64 C 1.0199(5) 0.6629(4) -0.0233(4)
H56 H 1.0446 0.6655 -0.0022
C65 C 1.0550(5) 0.6589(4) -0.0702(4)
C66 C 1.0176(5) 0.6530(4) -0.1005(4)
H57 H 1.0401 0.6478 -0.1319
C67 C 0.9488(5) 0.6546(4) -0.0852(4)
H58 H 0.9251 0.6516 -0.1066
C68 C 1.1292(5) 0.6631(5) -0.0879(4)
H59 H 1.1456 0.6673 -0.0618
H60 H 1.1325 0.6930 -0.1127
H61 H 1.1568 0.6316 -0.1004
C69 C 0.6989(5) 0.6949(4) 0.0688(4)
C70 C 0.6221(5) 0.7055(4) 0.0842(4)
C71 C 0.5839(6) 0.7448(4) 0.0605(4)
H62 H 0.6050 0.7660 0.0341
H63 H 0.5360 0.7514 0.0702
C72 C 0.5946(6) 0.6671(5) 0.1291(5)
H64 H 0.5451 0.6762 0.1371
H65 H 0.6113 0.6697 0.1556
H66 H 0.6105 0.6317 0.1221
C73 C 0.5661(5) 0.7643(4) -0.0518(4)
C74 C 0.5953(5) 0.8084(4) -0.0744(4)
C75 C 0.6669(5) 0.8067(4) -0.0841(4)
C76 C 0.6901(5) 0.8525(4) -0.1051(4)
H67 H 0.7368 0.8514 -0.1102
C77 C 0.6471(6) 0.8991(4) -0.1187(4)
C78 C 0.5758(5) 0.9000(4) -0.1101(4)
H68 H 0.5454 0.9310 -0.1193
C79 C 0.5516(5) 0.8564(4) -0.0888(4)
H69 H 0.5047 0.8582 -0.0835
C80 C 0.6747(6) 0.9485(4) -0.1422(5)
H70 H 0.7236 0.9405 -0.1449
H71 H 0.6523 0.9759 -0.1229
H72 H 0.6656 0.9599 -0.1736
C81 C 0.6126(5) 0.6317(4) -0.0107(4)
C82 C 0.5872(5) 0.5843(4) 0.0152(4)
C83 C 0.5393(7) 0.5884(6) 0.0538(5)
H73 H 0.5216 0.6207 0.0648
H74 H 0.5224 0.5592 0.0708
C84 C 0.6298(7) 0.5324(5) -0.0015(5)
H75 H 0.6092 0.5041 0.0173
H76 H 0.6759 0.5264 0.0025
H77 H 0.6313 0.5340 -0.0347
C85 C 0.3618(5) 0.6404(4) -0.0014(4)
C86 C 0.3676(5) 0.6498(4) -0.0538(4)
C87 C 0.4113(5) 0.6806(4) -0.0857(4)
C88 C 0.4084(5) 0.6902(4) -0.1356(4)
H78 H 0.4369 0.7103 -0.1577
C89 C 0.3658(6) 0.6710(4) -0.1516(4)
C90 C 0.3249(5) 0.6395(4) -0.1194(4)
H79 H 0.2976 0.6246 -0.1304
C91 C 0.3244(5) 0.6300(4) -0.0718(4)
H80 H 0.2949 0.6100 -0.0506
C92 C 0.3662(7) 0.6829(5) -0.2039(4)
H81 H 0.3980 0.7049 -0.2204
H82 H 0.3207 0.7009 -0.2079
H83 H 0.3802 0.6506 -0.2170
C93 C 0.3973(5) 0.6927(4) 0.0814(4)
C94 C 0.3752(5) 0.6994(4) 0.1339(4)
C95 C 0.3984(6) 0.6607(5) 0.1662(4)
H84 H 0.3850 0.6644 0.1985
H85 H 0.4282 0.6298 0.1565
C96 C 0.3275(6) 0.7504(5) 0.1449(4)
H86 H 0.3167 0.7509 0.1788
H87 H 0.2858 0.7544 0.1349
H88 H 0.3493 0.7788 0.1280
C97 C 0.1650(6) 0.5630(5) 0.1274(4)
C98 C 0.1317(7) 0.5518(5) 0.1806(4)
H89 H 0.0832 0.5677 0.1861
H90 H 0.1526 0.5662 0.1985
H91 H 0.1383 0.5144 0.1906
C99 C 0.1564(6) 0.6042(5) 0.0487(4)
H92 H 0.2040 0.5859 0.0417
H93 H 0.1531 0.6415 0.0404
H94 H 0.1320 0.5936 0.0304
C100 C 0.0519(5) 0.6156(5) 0.1212(6)
H95 H 0.0393 0.6034 0.1550
H96 H 0.0231 0.6063 0.1054
H97 H 0.0457 0.6533 0.1158
C101 C 0.2412(6) 0.5986(5) 0.3474(5)
C102 C 0.2616(8) 0.6506(5) 0.3398(6)
H98 H 0.3110 0.6447 0.3322
H99 H 0.2426 0.6662 0.3687
H100 H 0.2441 0.6739 0.3139
C103 C 0.1464(8) 0.5619(6) 0.3563(7)
H101 H 0.1833 0.5326 0.3469
H102 H 0.1179 0.5728 0.3335
H103 H 0.1192 0.5517 0.3875
C104 C 0.1241(7) 0.6553(5) 0.3713(5)
H104 H 0.1466 0.6824 0.3709
H105 H 0.0964 0.6471 0.4030
H106 H 0.0951 0.6675 0.3488
C105 C 0.5628(8) 0.3053(7) 0.3884(5)
C106 C 0.5029(10) 0.3002(9) 0.4306(7)
H107 H 0.4615 0.3233 0.4231
H108 H 0.5111 0.3095 0.4579
H109 H 0.4977 0.2644 0.4379
C107 C 0.6849(9) 0.2747(9) 0.3596(7)
H110 H 0.6743 0.3020 0.3337
H111 H 0.7056 0.2419 0.3475
H112 H 0.7165 0.2833 0.3735
C108 C 0.6182(11) 0.2393(9) 0.4448(7)
H113 H 0.5710 0.2439 0.4627
H114 H 0.6443 0.2512 0.4609
H115 H 0.6374 0.2026 0.4423
C109 C 0.8014(10) 0.4926(9) 0.4023(7)
C110 C 0.8339(8) 0.5380(6) 0.3678(6)
H116 H 0.8464 0.5312 0.3353
H117 H 0.8744 0.5395 0.3768
H118 H 0.8009 0.5711 0.3702
C111 C 0.7415(11) 0.4492(9) 0.4924(7)
H119 H 0.7436 0.4219 0.4752
H120 H 0.6941 0.4652 0.5053
H121 H 0.7644 0.4343 0.5181
C112 C 0.7802(13) 0.5463(11) 0.4766(10)
H122 H 0.8026 0.5703 0.4520
H123 H 0.8040 0.5349 0.5021
H124 H 0.7332 0.5637 0.4889
C113 C 1.0455(7) 0.4872(5) 0.1133(5)
C114 C 1.0263(7) 0.5148(6) 0.0614(5)
H125 H 0.9811 0.5377 0.0669
H126 H 1.0270 0.4879 0.0442
H127 H 1.0596 0.5348 0.0430
C115 C 1.1207(8) 0.4279(6) 0.1538(5)
H128 H 1.0799 0.4350 0.1790
H129 H 1.1569 0.4398 0.1598
H130 H 1.1351 0.3907 0.1529
C116 C 1.1592(6) 0.4526(5) 0.0619(5)
H131 H 1.1407 0.4740 0.0356
H132 H 1.1747 0.4166 0.0565
H133 H 1.1975 0.4648 0.0642
C117 C 0.8694(6) 0.7834(5) 0.0361(4)
C118 C 0.9362(7) 0.7805(6) 0.0493(6)
H134 H 0.9369 0.7592 0.0801
H135 H 0.9395 0.8153 0.0504
H136 H 0.9746 0.7650 0.0256
C119 C 0.9174(8) 0.8359(7) -0.0403(5)
H137 H 0.9570 0.8302 -0.0274
H138 H 0.8992 0.8731 -0.0478
H139 H 0.9306 0.8201 -0.0689
C120 C 0.7985(7) 0.8175(6) -0.0188(6)
H140 H 0.7675 0.8008 0.0070
H141 H 0.8083 0.8012 -0.0468
H142 H 0.7774 0.8543 -0.0259
C121 C 0.6810(7) 0.6737(6) -0.1447(5)
C122 C 0.6494(7) 0.7325(6) -0.1691(5)
H143 H 0.6164 0.7311 -0.1859
H144 H 0.6859 0.7469 -0.1914
H145 H 0.6271 0.7544 -0.1446
C123 C 0.5996(7) 0.6464(6) -0.1755(5)
H146 H 0.5837 0.6828 -0.1877
H147 H 0.5622 0.6336 -0.1526
H148 H 0.6161 0.6263 -0.2015
C124 C 0.6866(7) 0.5830(5) -0.1306(5)
H149 H 0.7224 0.5824 -0.1154
H150 H 0.7055 0.5619 -0.1559
H151 H 0.6505 0.5690 -0.1073
C125 C 0.3111(7) 0.7911(5) -0.0414(5)
C126 C 0.3346(9) 0.8155(7) -0.0952(6)
H152 H 0.3800 0.8213 -0.1010
H153 H 0.3030 0.8484 -0.1020
H154 H 0.3351 0.7917 -0.1156
C127 C 0.2296(9) 0.7594(7) 0.0159(7)
H155 H 0.2634 0.7579 0.0331
H156 H 0.2254 0.7243 0.0165
H157 H 0.1858 0.7798 0.0307
C128 C 0.2088(9) 0.7884(7) -0.0654(7)
H158 H 0.2272 0.8056 -0.0969
H159 H 0.1636 0.8085 -0.0527
H160 H 0.2059 0.7537 -0.0675
Mn9 Mn 0.93117(8) 0.79607(7) 0.54507(6)
Mn10 Mn 0.72578(9) 0.76188(7) 0.51626(7)
Mn11 Mn 0.57983(8) 0.87263(7) 0.40930(6)
Mn12 Mn 0.68169(8) 0.93876(6) 0.23901(6)
Mn13 Mn 0.83107(8) 1.06645(7) 0.17595(6)
Mn14 Mn 1.08029(8) 1.03789(6) 0.16511(5)
Mn15 Mn 1.19765(8) 0.94321(6) 0.29208(5)
Mn16 Mn 1.14538(8) 0.79818(6) 0.41859(5)
N25 N 0.8573(5) 0.7682(3) 0.5411(3)
N26 N 0.8074(5) 0.8049(4) 0.5167(3)
N27 N 0.6544(4) 0.8093(4) 0.4860(3)
N28 N 0.6699(5) 0.8163(4) 0.4353(3)
N29 N 0.6158(4) 0.8856(3) 0.3409(3)
N30 N 0.6459(4) 0.9298(4) 0.3236(3)
N31 N 0.7219(4) 0.9982(3) 0.2110(3)
N32 N 0.7958(4) 0.9883(4) 0.2016(3)
N33 N 0.9304(4) 1.0574(3) 0.1574(3)
N34 N 0.9626(4) 1.0512(3) 0.1952(3)
N35 N 1.1240(4) 1.0165(3) 0.2184(3)
N36 N 1.1331(4) 0.9622(3) 0.2382(3)
N37 N 1.1899(4) 0.8758(3) 0.3310(3)
N38 N 1.1325(4) 0.8769(4) 0.3718(3)
N39 N 1.0709(4) 0.8041(3) 0.4744(3)
N40 N 1.0128(4) 0.7841(3) 0.4741(3)
N41 N 0.8023(6) 0.8961(5) 0.6304(5)
N42 N 0.4498(6) 1.0141(5) 0.3932(5)
N43 N 0.6722(7) 0.8442(5) 0.1546(4)
N44 N 0.8738(8) 1.2013(6) 0.1961(6)
N45 N 1.3850(5) 0.9300(4) 0.2930(4)
N46 N 1.2546(8) 0.6905(6) 0.4923(5)
O33 O 0.7959(4) 0.7079(3) 0.5436(3)
O34 O 0.9706(4) 0.7320(3) 0.5768(3)
O35 O 0.8784(4) 0.8577(3) 0.5124(3)
O36 O 0.5492(4) 0.8631(3) 0.4801(3)
O37 O 0.6751(4) 0.7807(3) 0.5761(3)
O38 O 0.7667(4) 0.7535(3) 0.4493(3)
O39 O 0.6495(4) 0.8727(3) 0.2622(3)
O40 O 0.5441(4) 0.8181(3) 0.4041(3)
O41 O 0.6140(4) 0.9345(3) 0.4042(3)
O42 O 0.7300(4) 1.0853(3) 0.1958(3)
O43 O 0.5946(4) 0.9810(3) 0.2331(3)
O44 O 0.7767(4) 0.9073(3) 0.2408(3)
O45 O 1.0395(3) 1.0520(3) 0.1095(2)
O46 O 0.8281(4) 1.0712(3) 0.1126(3)
O47 O 0.8511(4) 1.0570(3) 0.2385(2)
O48 O 1.1979(3) 1.0175(3) 0.2637(2)
O49 O 1.0794(3) 1.1088(3) 0.1641(2)
O50 O 1.0862(3) 0.9628(3) 0.1759(2)
O51 O 1.2182(3) 0.7876(3) 0.3598(2)
O52 O 1.2696(3) 0.9099(3) 0.2452(2)
O53 O 1.1203(3) 0.9655(3) 0.3433(2)
O54 O 1.0030(4) 0.8318(3) 0.5452(3)
O55 O 1.1999(4) 0.8166(3) 0.4497(3)
O56 O 1.0783(4) 0.7775(3) 0.3971(2)
O57 O 0.8748(4) 0.8239(3) 0.6154(3)
O58 O 0.6797(5) 0.6923(4) 0.5238(4)
O59 O 0.4734(4) 0.9281(3) 0.4085(3)
O60 O 0.7023(4) 0.9107(3) 0.1691(3)
O61 O 0.8228(4) 1.1539(3) 0.1699(3)
O62 O 1.1813(3) 1.0253(3) 0.1111(2)
O63 O 1.2758(4) 0.9491(3) 0.3309(3)
O64 O 1.1866(4) 0.7125(3) 0.4443(3)
C129 C 0.8448(6) 0.7199(4) 0.5538(4)
C130 C 0.8906(6) 0.6796(4) 0.5814(4)
C131 C 0.9475(5) 0.6879(4) 0.5929(4)
C132 C 0.9827(6) 0.6467(5) 0.6223(4)
H161 H 1.0206 0.6522 0.6300
C133 C 0.9651(6) 0.5987(5) 0.6407(5)
C134 C 0.9088(6) 0.5916(5) 0.6273(5)
H162 H 0.8950 0.5599 0.6384
C135 C 0.8733(6) 0.6308(5) 0.5980(5)
H163 H 0.8369 0.6244 0.5891
C136 C 1.0032(7) 0.5583(5) 0.6713(5)
H164 H 1.0398 0.5708 0.6760
H165 H 1.0224 0.5271 0.6565
H166 H 0.9727 0.5502 0.7018
C137 C 0.8258(6) 0.8490(5) 0.5037(4)
C138 C 0.7812(8) 0.8938(5) 0.4771(5)
C139 C 0.7893(11) 0.9024(8) 0.4364(8)
H167 H 0.8253 0.8812 0.4173
H168 H 0.7599 0.9307 0.4222
C140 C 0.7836(12) 0.9480(7) 0.4886(8)
H169 H 0.7549 0.9762 0.4717
H170 H 0.8303 0.9523 0.4785
H171 H 0.7671 0.9486 0.5225
C141 C 0.5903(6) 0.8333(4) 0.5063(4)
C142 C 0.5641(6) 0.8230(4) 0.5574(4)
C143 C 0.6062(6) 0.7962(5) 0.5901(4)
C144 C 0.5747(7) 0.7846(5) 0.6377(5)
H172 H 0.6029 0.7679 0.6588
C145 C 0.5061(7) 0.7957(5) 0.6561(5)
C146 C 0.4632(7) 0.8256(5) 0.6242(5)
H173 H 0.4158 0.8364 0.6359
C147 C 0.4925(6) 0.8382(5) 0.5758(4)
H174 H 0.4643 0.8571 0.5552
C148 C 0.4724(9) 0.7777(7) 0.7083(6)
H175 H 0.5075 0.7588 0.7252
H176 H 0.4430 0.7550 0.7094
H177 H 0.4454 0.8078 0.7232
C149 C 0.7295(6) 0.7828(5) 0.4195(5)
C150 C 0.7532(6) 0.7781(5) 0.3669(5)
C151 C 0.7708(6) 0.8168(6) 0.3360(5)
H178 H 0.7690 0.8480 0.3460
H179 H 0.7854 0.8137 0.3035
C152 C 0.7542(8) 0.7241(6) 0.3580(6)
H180 H 0.7698 0.7225 0.3242
H181 H 0.7084 0.7178 0.3694
H182 H 0.7849 0.6977 0.3748
C153 C 0.6198(5) 0.8584(4) 0.3066(4)
C154 C 0.5902(5) 0.8129(4) 0.3194(4)
C155 C 0.5524(5) 0.7955(4) 0.3650(4)
C156 C 0.5208(6) 0.7542(4) 0.3730(4)
H183 H 0.4960 0.7438 0.4037
C157 C 0.5254(6) 0.7274(5) 0.3354(4)
C158 C 0.5634(6) 0.7433(5) 0.2905(4)
H184 H 0.5676 0.7260 0.2651
C159 C 0.5947(6) 0.7835(4) 0.2827(4)
H185 H 0.6205 0.7926 0.2519
C160 C 0.4914(7) 0.6825(5) 0.3439(5)
H186 H 0.4675 0.6767 0.3770
H187 H 0.5258 0.6512 0.3361
H188 H 0.4591 0.6906 0.3240
C161 C 0.6419(5) 0.9524(5) 0.3606(4)
C162 C 0.6703(6) 0.9982(5) 0.3523(5)
C163 C 0.7290(7) 1.0023(6) 0.3230(5)
H189 H 0.7477 1.0307 0.3216
H190 H 0.7525 0.9768 0.3033
C164 C 0.6337(8) 1.0375(6) 0.3828(6)
H191 H 0.6562 1.0664 0.3740
H192 H 0.6335 1.0223 0.4157
H193 H 0.5871 1.0500 0.3792
C165 C 0.6930(6) 1.0517(5) 0.2050(4)
C166 C 0.6177(5) 1.0674(4) 0.2121(4)
C167 C 0.5756(5) 1.0331(4) 0.2233(4)
C168 C 0.5048(6) 1.0540(5) 0.2251(4)
H194 H 0.4762 1.0306 0.2316
C169 C 0.4760(6) 1.1065(5) 0.2177(5)
C170 C 0.5209(6) 1.1408(5) 0.2066(5)
H195 H 0.5037 1.1771 0.2010
C171 C 0.5898(6) 1.1209(5) 0.2041(5)
H196 H 0.6188 1.1440 0.1968
C172 C 0.3993(6) 1.1276(5) 0.2228(5)
H197 H 0.3771 1.0987 0.2298
H198 H 0.3910 1.1492 0.1934
H199 H 0.3811 1.1482 0.2484
C173 C 0.8183(6) 0.9388(4) 0.2182(4)
C174 C 0.8941(6) 0.9175(4) 0.2127(4)
C175 C 0.9387(6) 0.9298(5) 0.1727(5)
H200 H 0.9231 0.9523 0.1470
H201 H 0.9857 0.9161 0.1701
C176 C 0.9141(7) 0.8805(5) 0.2569(5)
H202 H 0.9634 0.8682 0.2506
H203 H 0.8932 0.8510 0.2638
H204 H 0.8984 0.8991 0.2839
C177 C 0.9755(6) 1.0576(4) 0.1140(4)
C178 C 0.9486(6) 1.0644(4) 0.0705(4)
C179 C 0.8785(6) 1.0706(5) 0.0725(4)
C180 C 0.8613(6) 1.0791(5) 0.0269(4)
H205 H 0.8150 1.0848 0.0269
C181 C 0.9068(7) 1.0794(5) -0.0155(4)
C182 C 0.9777(7) 1.0703(5) -0.0155(4)
H206 H 1.0111 1.0690 -0.0443
C183 C 0.9968(6) 1.0636(4) 0.0272(4)
H207 H 1.0432 1.0584 0.0268
C184 C 0.8859(8) 1.0861(6) -0.0619(5)
H208 H 0.8366 1.0918 -0.0556
H209 H 0.9073 1.0550 -0.0766
H210 H 0.9004 1.1159 -0.0831
C185 C 0.9171(6) 1.0528(4) 0.2357(4)
C186 C 0.9373(6) 1.0470(4) 0.2813(4)
C187 C 0.9786(6) 1.0758(5) 0.2835(5)
H211 H 0.9942 1.0991 0.2566
H212 H 0.9920 1.0728 0.3118
C188 C 0.9112(8) 1.0096(6) 0.3241(5)
H213 H 0.9294 1.0109 0.3504
H214 H 0.9256 0.9745 0.3164
H215 H 0.8617 1.0194 0.3331
C189 C 1.1589(5) 1.0415(4) 0.2338(4)
C190 C 1.1536(5) 1.0985(4) 0.2174(4)
C191 C 1.1145(5) 1.1283(4) 0.1841(4)
C192 C 1.1132(5) 1.1830(4) 0.1730(4)
H216 H 1.0880 1.2032 0.1509
C193 C 1.1456(5) 1.2076(4) 0.1917(4)
C194 C 1.1854(6) 1.1773(4) 0.2253(4)
H217 H 1.2090 1.1932 0.2386
C195 C 1.1879(5) 1.1244(4) 0.2374(4)
H218 H 1.2131 1.1048 0.2596
C196 C 1.1430(6) 1.2665(4) 0.1777(4)
H219 H 1.1144 1.2816 0.1552
H220 H 1.1888 1.2717 0.1632
H221 H 1.1241 1.2834 0.2058
C197 C 1.1111(5) 0.9390(4) 0.2136(4)
C198 C 1.1202(5) 0.8796(4) 0.2259(4)
C199 C 1.0935(6) 0.8592(5) 0.2710(5)
H222 H 1.0982 0.8230 0.2794
H223 H 1.0703 0.8813 0.2938
C200 C 1.1582(6) 0.8484(5) 0.1866(4)
H224 H 1.1603 0.8117 0.1984
H225 H 1.2041 0.8541 0.1749
H226 H 1.1346 0.8593 0.1609
C201 C 1.2315(5) 0.8276(4) 0.3282(4)
C202 C 1.2922(5) 0.8203(4) 0.2883(4)
C203 C 1.3088(5) 0.8603(4) 0.2501(4)
C204 C 1.3698(5) 0.8489(5) 0.2139(4)
H227 H 1.3816 0.8757 0.1892
C205 C 1.4123(5) 0.7988(5) 0.2141(4)
C206 C 1.3958(5) 0.7587(5) 0.2533(4)
H228 H 1.4249 0.7252 0.2547
C207 C 1.3370(5) 0.7693(4) 0.2893(4)
H229 H 1.3265 0.7427 0.3146
C208 C 1.4751(6) 0.7882(5) 0.1731(5)
H230 H 1.4771 0.8198 0.1502
H231 H 1.4719 0.7609 0.1578
H232 H 1.5160 0.7772 0.1853
C209 C 1.1001(5) 0.9262(4) 0.3742(4)
C210 C 1.0371(6) 0.9378(4) 0.4131(4)
C211 C 0.9894(6) 0.9113(5) 0.4216(4)
H233 H 0.9952 0.8853 0.4033
H234 H 0.9498 0.9183 0.4460
C212 C 1.0323(8) 0.9823(6) 0.4399(5)
H235 H 0.9898 0.9869 0.4640
H236 H 1.0336 1.0145 0.4176
H237 H 1.0705 0.9736 0.4548
C213 C 1.0594(6) 0.8280(4) 0.5120(4)
C214 C 1.1111(6) 0.8517(5) 0.5166(5)
C215 C 1.1782(7) 0.8442(6) 0.4854(5)
C216 C 1.2337(8) 0.8552(6) 0.5009(6)
H238 H 1.2795 0.8457 0.4842
C217 C 1.2163(9) 0.8806(7) 0.5418(6)
C218 C 1.1468(8) 0.8952(7) 0.5669(6)
H239 H 1.1354 0.9126 0.5933
C219 C 1.0960(7) 0.8836(6) 0.5521(5)
H240 H 1.0501 0.8973 0.5661
C220 C 1.2732(10) 0.8951(10) 0.5558(9)
H241 H 1.3167 0.8829 0.5345
H242 H 1.2748 0.8789 0.5882
H243 H 1.2641 0.9327 0.5535
C221 C 1.0232(5) 0.7715(4) 0.4324(4)
C222 C 0.9675(6) 0.7540(5) 0.4211(4)
C223 C 0.9443(7) 0.7148(5) 0.4461(5)
H244 H 0.9619 0.6960 0.4723
H245 H 0.9096 0.7048 0.4382
C224 C 0.9445(7) 0.7846(6) 0.3766(5)
H246 H 0.9089 0.7709 0.3719
H247 H 0.9830 0.7813 0.3493
H248 H 0.9268 0.8211 0.3802
C225 C 0.8153(6) 0.8462(5) 0.6301(6)
C226 C 0.7483(7) 0.8274(6) 0.6458(6)
H249 H 0.7583 0.7904 0.6444
H250 H 0.7186 0.8465 0.6248
H251 H 0.7259 0.8335 0.6781
C227 C 0.8650(8) 0.9200(6) 0.6142(6)
H252 H 0.9052 0.8939 0.6026
H253 H 0.8712 0.9322 0.6407
H254 H 0.8582 0.9491 0.5889
C228 C 0.7333(7) 0.9290(6) 0.6488(6)
H255 H 0.6990 0.9087 0.6556
H256 H 0.7231 0.9591 0.6250
H257 H 0.7329 0.9405 0.6776
C229 C 0.4560(7) 0.9713(6) 0.4195(5)
C230 C 0.4313(9) 0.9744(7) 0.4772(6)
H258 H 0.4385 0.9394 0.4950
H259 H 0.3832 0.9913 0.4852
H260 H 0.4577 0.9942 0.4852
C231 C 0.4236(9) 1.0676(6) 0.4092(7)
H261 H 0.4140 1.0634 0.4436
H262 H 0.3822 1.0856 0.3987
H263 H 0.4581 1.0879 0.3955
C232 C 0.4659(8) 1.0133(7) 0.3419(6)
H264 H 0.4802 0.9775 0.3360
H265 H 0.5025 1.0312 0.3260
H266 H 0.4257 1.0308 0.3297
C233 C 0.7122(7) 0.8623(6) 0.1642(5)
C234 C 0.7780(7) 0.8219(6) 0.1682(5)
H267 H 0.7743 0.7885 0.1633
H268 H 0.7858 0.8185 0.1996
H269 H 0.8159 0.8328 0.1443
C235 C 0.6740(8) 0.7922(5) 0.1448(5)
H270 H 0.7188 0.7696 0.1451
H271 H 0.6646 0.7959 0.1139
H272 H 0.6397 0.7771 0.1691
C236 C 0.5976(8) 0.8856(6) 0.1532(6)
H273 H 0.5984 0.9188 0.1604
H274 H 0.5616 0.8716 0.1766
H275 H 0.5892 0.8907 0.1218
C237 C 0.8269(8) 1.1777(6) 0.1978(6)
C238 C 0.7726(10) 1.1796(7) 0.2478(7)
H276 H 0.7832 1.2007 0.2661
H277 H 0.7747 1.1445 0.2652
H278 H 0.7271 1.1946 0.2426
C239 C 0.8843(11) 1.2323(8) 0.2284(8)
H279 H 0.8474 1.2331 0.2568
H280 H 0.8848 1.2676 0.2123
H281 H 0.9275 1.2162 0.2372
C240 C 0.9281(8) 1.1949(6) 0.1485(7)
H282 H 0.9141 1.1759 0.1300
H283 H 0.9719 1.1757 0.1550
H284 H 0.9322 1.2290 0.1306
C241 C 1.3355(7) 0.9223(5) 0.3280(5)
C242 C 1.3509(7) 0.8742(6) 0.3676(5)
H285 H 1.3991 0.8574 0.3600
H286 H 1.3240 0.8496 0.3690
H287 H 1.3390 0.8860 0.3981
C243 C 1.4572(7) 0.8980(7) 0.2879(7)
H288 H 1.4604 0.8723 0.3161
H289 H 1.4879 0.9206 0.2839
H290 H 1.4698 0.8805 0.2603
C244 C 1.3722(7) 0.9721(6) 0.2526(5)
H291 H 1.3251 0.9916 0.2600
H292 H 1.3807 0.9568 0.2242
H293 H 1.4025 0.9954 0.2472
C245 C 1.1999(8) 0.6978(6) 0.4848(6)
C246 C 1.1396(7) 0.6836(6) 0.5325(5)
H294 H 1.1587 0.6729 0.5602
H295 H 1.1224 0.6555 0.5280
H296 H 1.1024 0.7142 0.5369
C247 C 1.2722(8) 0.6814(7) 0.5407(5)
H297 H 1.2339 0.6726 0.5656
H298 H 1.2815 0.7129 0.5455
H299 H 1.3122 0.6530 0.5415
C248 C 1.3113(7) 0.7033(7) 0.4470(5)
H300 H 1.2946 0.7073 0.4188
H301 H 1.3518 0.6750 0.4460
H302 H 1.3226 0.7354 0.4483
N47 N 0.5210(7) 0.9284(6) 0.0459(5)
O65 O 0.4113(6) 0.9380(5) 0.0898(4)
C249 C 0.4615(9) 0.9138(7) 0.0622(6)
C250 C 0.4535(9) 0.8678(7) 0.0455(6)
H303 H 0.4084 0.8615 0.0607
H304 H 0.4879 0.8373 0.0538
H305 H 0.4591 0.8748 0.0113
C251 C 0.5810(8) 0.9027(7) 0.0139(6)
H306 H 0.5720 0.8723 0.0066
H307 H 0.6192 0.8919 0.0290
H308 H 0.5918 0.9266 -0.0152
C252 C 0.5267(10) 0.9741(7) 0.0586(7)
H309 H 0.4843 0.9887 0.0796
H310 H 0.5361 0.9993 0.0301
H311 H 0.5637 0.9657 0.0746
N48 N 0.2712(9) -0.0079(7) 0.9596(6)
O66 O 0.1920(7) 0.0349(5) 1.0132(4)
C253 C 0.2153(12) 0.0242(9) 0.9720(7)
C254 C 0.1825(10) 0.0482(8) 0.9320(5)
H312 H 0.2108 0.0346 0.9034
H313 H 0.1769 0.0857 0.9272
H314 H 0.1380 0.0400 0.9392
C255 C 0.3021(9) -0.0256(7) 0.9120(5)
H315 H 0.2766 -0.0041 0.8892
H316 H 0.3006 -0.0617 0.9146
H317 H 0.3493 -0.0224 0.9014
C256 C 0.3054(11) -0.0353(9) 1.0035(7)
H318 H 0.2799 -0.0189 1.0312
H319 H 0.3523 -0.0317 0.9956
H320 H 0.3049 -0.0721 1.0104
O67 O 1.2730(4) 0.9389(3) 0.1404(3)
O68 O 0.3288(6) 0.4840(5) 0.4090(4)
O69 O 0.7247(8) 0.5986(6) 0.5795(6)
O70 O 0.9710(15) 0.5220(12) 0.4661(11)
loop_
_geom_bond_atom_site_label_1
_geom_bond_atom_site_label_2
_geom_bond_site_symmetry_1
_geom_bond_site_symmetry_2
Mn1 N1 1_555 1_555
Mn2 N2 1_555 1_555
Mn3 N4 1_555 1_555
Mn4 N6 1_555 1_555
Mn5 N8 1_555 1_555
Mn6 N10 1_555 1_555
Mn7 N12 1_555 1_555
Mn8 N14 1_555 1_555
N1 N2 1_555 1_555
N2 C9 1_555 1_555
N3 Mn2 1_555 1_555
N4 N3 1_555 1_555
N5 Mn3 1_555 1_555
N6 N5 1_555 1_555
N7 Mn4 1_555 1_555
N8 N7 1_555 1_555
N9 Mn5 1_555 1_555
N10 N9 1_555 1_555
N11 Mn6 1_555 1_555
N12 N11 1_555 1_555
N13 Mn7 1_555 1_555
N14 N13 1_555 1_555
N15 Mn8 1_555 1_555
N16 Mn1 1_555 1_555
N17 C97 1_555 1_555
N18 C101 1_555 1_555
N19 C105 1_555 1_555
N20 C109 1_555 1_555
N21 C113 1_555 1_555
N22 C117 1_555 1_555
N23 C121 1_555 1_555
N24 C125 1_555 1_555
O1 Mn2 1_555 1_555
O2 Mn1 1_555 1_555
O3 Mn1 1_555 1_555
O4 Mn3 1_555 1_555
O5 Mn2 1_555 1_555
O6 Mn2 1_555 1_555
O7 Mn4 1_555 1_555
O8 Mn3 1_555 1_555
O9 Mn3 1_555 1_555
O10 Mn5 1_555 1_555
O11 Mn4 1_555 1_555
O12 Mn4 1_555 1_555
O13 Mn6 1_555 1_555
O14 Mn5 1_555 1_555
O15 Mn5 1_555 1_555
O16 Mn7 1_555 1_555
O17 Mn6 1_555 1_555
O18 Mn6 1_555 1_555
O19 Mn8 1_555 1_555
O20 Mn7 1_555 1_555
O21 Mn7 1_555 1_555
O22 Mn1 1_555 1_555
O23 Mn8 1_555 1_555
O24 Mn8 1_555 1_555
O25 Mn1 1_555 1_555
O26 Mn2 1_555 1_555
O27 Mn3 1_555 1_555
O28 Mn4 1_555 1_555
O29 Mn5 1_555 1_555
O30 Mn6 1_555 1_555
O31 Mn7 1_555 1_555
O32 Mn8 1_555 1_555
C1 N1 1_555 1_555
C2 C1 1_555 1_555
C3 O2 1_555 1_555
C4 C3 1_555 1_555
H1 C4 1_555 1_555
C5 C4 1_555 1_555
C6 C5 1_555 1_555
H2 C6 1_555 1_555
C7 C2 1_555 1_555
H3 C7 1_555 1_555
C8 C5 1_555 1_555
H4 C8 1_555 1_555
H5 C8 1_555 1_555
H6 C8 1_555 1_555
C9 O3 1_555 1_555
C10 C9 1_555 1_555
C11 C10 1_555 1_555
H7 C11 1_555 1_555
H8 C11 1_555 1_555
C12 C10 1_555 1_555
H9 C12 1_555 1_555
H10 C12 1_555 1_555
H11 C12 1_555 1_555
C13 N3 1_555 1_555
C14 C13 1_555 1_555
C15 O5 1_555 1_555
C16 C15 1_555 1_555
H12 C16 1_555 1_555
C17 C16 1_555 1_555
C18 C17 1_555 1_555
H13 C18 1_555 1_555
C19 C14 1_555 1_555
H14 C19 1_555 1_555
C20 C17 1_555 1_555
H15 C20 1_555 1_555
H16 C20 1_555 1_555
H17 C20 1_555 1_555
C21 N4 1_555 1_555
C22 C21 1_555 1_555
C23 C22 1_555 1_555
H18 C23 1_555 1_555
H19 C23 1_555 1_555
C24 C22 1_555 1_555
H20 C24 1_555 1_555
H21 C24 1_555 1_555
H22 C24 1_555 1_555
C25 N5 1_555 1_555
C26 C25 1_555 1_555
C27 O8 1_555 1_555
C28 C27 1_555 1_555
H23 C28 1_555 1_555
C29 C28 1_555 1_555
C30 C29 1_555 1_555
H24 C30 1_555 1_555
C31 C26 1_555 1_555
H25 C31 1_555 1_555
C32 C29 1_555 1_555
H26 C32 1_555 1_555
H27 C32 1_555 1_555
H28 C32 1_555 1_555
C33 N6 1_555 1_555
C34 C33 1_555 1_555
C35 C34 1_555 1_555
H29 C35 1_555 1_555
H30 C35 1_555 1_555
C36 C34 1_555 1_555
H31 C36 1_555 1_555
H32 C36 1_555 1_555
H33 C36 1_555 1_555
C37 N7 1_555 1_555
C38 C37 1_555 1_555
C39 O11 1_555 1_555
C40 C39 1_555 1_555
H34 C40 1_555 1_555
C41 C40 1_555 1_555
C42 C41 1_555 1_555
H35 C42 1_555 1_555
C43 C38 1_555 1_555
H36 C43 1_555 1_555
C44 C41 1_555 1_555
H37 C44 1_555 1_555
H38 C44 1_555 1_555
H39 C44 1_555 1_555
C45 N8 1_555 1_555
C46 C45 1_555 1_555
C47 C46 1_555 1_555
H40 C47 1_555 1_555
H41 C47 1_555 1_555
C48 C46 1_555 1_555
H42 C48 1_555 1_555
H43 C48 1_555 1_555
H44 C48 1_555 1_555
C49 N9 1_555 1_555
C50 C49 1_555 1_555
C51 O14 1_555 1_555
C52 C51 1_555 1_555
H45 C52 1_555 1_555
C53 C52 1_555 1_555
C54 C53 1_555 1_555
H46 C54 1_555 1_555
C55 C50 1_555 1_555
H47 C55 1_555 1_555
C56 C53 1_555 1_555
H48 C56 1_555 1_555
H49 C56 1_555 1_555
H50 C56 1_555 1_555
C57 N10 1_555 1_555
C58 C57 1_555 1_555
C59 C58 1_555 1_555
H51 C59 1_555 1_555
H52 C59 1_555 1_555
C60 C58 1_555 1_555
H53 C60 1_555 1_555
H54 C60 1_555 1_555
H55 C60 1_555 1_555
C61 N11 1_555 1_555
C62 C61 1_555 1_555
C63 O17 1_555 1_555
C64 C63 1_555 1_555
H56 C64 1_555 1_555
C65 C64 1_555 1_555
C66 C65 1_555 1_555
H57 C66 1_555 1_555
C67 C62 1_555 1_555
H58 C67 1_555 1_555
C68 C65 1_555 1_555
H59 C68 1_555 1_555
H60 C68 1_555 1_555
H61 C68 1_555 1_555
C69 N12 1_555 1_555
C70 C69 1_555 1_555
C71 C70 1_555 1_555
H62 C71 1_555 1_555
H63 C71 1_555 1_555
C72 C70 1_555 1_555
H64 C72 1_555 1_555
H65 C72 1_555 1_555
H66 C72 1_555 1_555
C73 N13 1_555 1_555
C74 C73 1_555 1_555
C75 O20 1_555 1_555
C76 C75 1_555 1_555
H67 C76 1_555 1_555
C77 C76 1_555 1_555
C78 C77 1_555 1_555
H68 C78 1_555 1_555
C79 C74 1_555 1_555
H69 C79 1_555 1_555
C80 C77 1_555 1_555
H70 C80 1_555 1_555
H71 C80 1_555 1_555
H72 C80 1_555 1_555
C81 N14 1_555 1_555
C82 C81 1_555 1_555
C83 C82 1_555 1_555
H73 C83 1_555 1_555
H74 C83 1_555 1_555
C84 C82 1_555 1_555
H75 C84 1_555 1_555
H76 C84 1_555 1_555
H77 C84 1_555 1_555
C85 N15 1_555 1_555
C86 C85 1_555 1_555
C87 O23 1_555 1_555
C88 C87 1_555 1_555
H78 C88 1_555 1_555
C89 C88 1_555 1_555
C90 C89 1_555 1_555
H79 C90 1_555 1_555
C91 C86 1_555 1_555
H80 C91 1_555 1_555
C92 C89 1_555 1_555
H81 C92 1_555 1_555
H82 C92 1_555 1_555
H83 C92 1_555 1_555
C93 N16 1_555 1_555
C94 C93 1_555 1_555
C95 C94 1_555 1_555
H84 C95 1_555 1_555
H85 C95 1_555 1_555
C96 C94 1_555 1_555
H86 C96 1_555 1_555
H87 C96 1_555 1_555
H88 C96 1_555 1_555
C97 O25 1_555 1_555
C98 C97 1_555 1_555
H89 C98 1_555 1_555
H90 C98 1_555 1_555
H91 C98 1_555 1_555
C99 N17 1_555 1_555
H92 C99 1_555 1_555
H93 C99 1_555 1_555
H94 C99 1_555 1_555
C100 N17 1_555 1_555
H95 C100 1_555 1_555
H96 C100 1_555 1_555
H97 C100 1_555 1_555
C101 O26 1_555 1_555
C102 C101 1_555 1_555
H98 C102 1_555 1_555
H99 C102 1_555 1_555
H100 C102 1_555 1_555
C103 N18 1_555 1_555
H101 C103 1_555 1_555
H102 C103 1_555 1_555
H103 C103 1_555 1_555
C104 N18 1_555 1_555
H104 C104 1_555 1_555
H105 C104 1_555 1_555
H106 C104 1_555 1_555
C105 O27 1_555 1_555
C106 C105 1_555 1_555
H107 C106 1_555 1_555
H108 C106 1_555 1_555
H109 C106 1_555 1_555
C107 N19 1_555 1_555
H110 C107 1_555 1_555
H111 C107 1_555 1_555
H112 C107 1_555 1_555
C108 N19 1_555 1_555
H113 C108 1_555 1_555
H114 C108 1_555 1_555
H115 C108 1_555 1_555
C109 O28 1_555 1_555
C110 C109 1_555 1_555
H116 C110 1_555 1_555
H117 C110 1_555 1_555
H118 C110 1_555 1_555
C111 N20 1_555 1_555
H119 C111 1_555 1_555
H120 C111 1_555 1_555
H121 C111 1_555 1_555
C112 N20 1_555 1_555
H122 C112 1_555 1_555
H123 C112 1_555 1_555
H124 C112 1_555 1_555
C113 O29 1_555 1_555
C114 C113 1_555 1_555
H125 C114 1_555 1_555
H126 C114 1_555 1_555
H127 C114 1_555 1_555
C115 N21 1_555 1_555
H128 C115 1_555 1_555
H129 C115 1_555 1_555
H130 C115 1_555 1_555
C116 N21 1_555 1_555
H131 C116 1_555 1_555
H132 C116 1_555 1_555
H133 C116 1_555 1_555
C117 O30 1_555 1_555
C118 C117 1_555 1_555
H134 C118 1_555 1_555
H135 C118 1_555 1_555
H136 C118 1_555 1_555
C119 N22 1_555 1_555
H137 C119 1_555 1_555
H138 C119 1_555 1_555
H139 C119 1_555 1_555
C120 N22 1_555 1_555
H140 C120 1_555 1_555
H141 C120 1_555 1_555
H142 C120 1_555 1_555
C121 O31 1_555 1_555
C122 C121 1_555 1_555
H143 C122 1_555 1_555
H144 C122 1_555 1_555
H145 C122 1_555 1_555
C123 N23 1_555 1_555
H146 C123 1_555 1_555
H147 C123 1_555 1_555
H148 C123 1_555 1_555
C124 N23 1_555 1_555
H149 C124 1_555 1_555
H150 C124 1_555 1_555
H151 C124 1_555 1_555
C125 O32 1_555 1_555
C126 C125 1_555 1_555
H152 C126 1_555 1_555
H153 C126 1_555 1_555
H154 C126 1_555 1_555
C127 N24 1_555 1_555
H155 C127 1_555 1_555
H156 C127 1_555 1_555
H157 C127 1_555 1_555
C128 N24 1_555 1_555
H158 C128 1_555 1_555
H159 C128 1_555 1_555
H160 C128 1_555 1_555
Mn9 N25 1_555 1_555
Mn10 N26 1_555 1_555
Mn11 N28 1_555 1_555
Mn12 N30 1_555 1_555
Mn13 N32 1_555 1_555
Mn14 N34 1_555 1_555
Mn15 N36 1_555 1_555
Mn16 N38 1_555 1_555
N25 N26 1_555 1_555
N26 C137 1_555 1_555
N27 Mn10 1_555 1_555
N28 N27 1_555 1_555
N29 Mn11 1_555 1_555
N30 N29 1_555 1_555
N31 Mn12 1_555 1_555
N32 N31 1_555 1_555
N33 Mn13 1_555 1_555
N34 N33 1_555 1_555
N35 Mn14 1_555 1_555
N36 N35 1_555 1_555
N37 Mn15 1_555 1_555
N38 N37 1_555 1_555
N39 Mn16 1_555 1_555
N40 Mn9 1_555 1_555
N41 C225 1_555 1_555
N42 C229 1_555 1_555
N43 C233 1_555 1_555
N44 C237 1_555 1_555
N45 C241 1_555 1_555
N46 C245 1_555 1_555
O33 Mn10 1_555 1_555
O34 Mn9 1_555 1_555
O35 Mn9 1_555 1_555
O36 Mn11 1_555 1_555
O37 Mn10 1_555 1_555
O38 Mn10 1_555 1_555
O39 Mn12 1_555 1_555
O40 Mn11 1_555 1_555
O41 Mn11 1_555 1_555
O42 Mn13 1_555 1_555
O43 Mn12 1_555 1_555
O44 Mn12 1_555 1_555
O45 Mn14 1_555 1_555
O46 Mn13 1_555 1_555
O47 Mn13 1_555 1_555
O48 Mn15 1_555 1_555
O49 Mn14 1_555 1_555
O50 Mn14 1_555 1_555
O51 Mn16 1_555 1_555
O52 Mn15 1_555 1_555
O53 Mn15 1_555 1_555
O54 Mn9 1_555 1_555
O55 Mn16 1_555 1_555
O56 Mn16 1_555 1_555
O57 Mn9 1_555 1_555
O58 Mn10 1_555 1_555
O59 Mn11 1_555 1_555
O60 Mn12 1_555 1_555
O61 Mn13 1_555 1_555
O62 Mn14 1_555 1_555
O63 Mn15 1_555 1_555
O64 Mn16 1_555 1_555
C129 N25 1_555 1_555
C130 C129 1_555 1_555
C131 O34 1_555 1_555
C132 C131 1_555 1_555
H161 C132 1_555 1_555
C133 C132 1_555 1_555
C134 C133 1_555 1_555
H162 C134 1_555 1_555
C135 C130 1_555 1_555
H163 C135 1_555 1_555
C136 C133 1_555 1_555
H164 C136 1_555 1_555
H165 C136 1_555 1_555
H166 C136 1_555 1_555
C137 O35 1_555 1_555
C138 C137 1_555 1_555
C139 C138 1_555 1_555
H167 C139 1_555 1_555
H168 C139 1_555 1_555
C140 C138 1_555 1_555
H169 C140 1_555 1_555
H170 C140 1_555 1_555
H171 C140 1_555 1_555
C141 N27 1_555 1_555
C142 C141 1_555 1_555
C143 O37 1_555 1_555
C144 C143 1_555 1_555
H172 C144 1_555 1_555
C145 C144 1_555 1_555
C146 C145 1_555 1_555
H173 C146 1_555 1_555
C147 C142 1_555 1_555
H174 C147 1_555 1_555
C148 C145 1_555 1_555
H175 C148 1_555 1_555
H176 C148 1_555 1_555
H177 C148 1_555 1_555
C149 N28 1_555 1_555
C150 C149 1_555 1_555
C151 C150 1_555 1_555
H178 C151 1_555 1_555
H179 C151 1_555 1_555
C152 C150 1_555 1_555
H180 C152 1_555 1_555
H181 C152 1_555 1_555
H182 C152 1_555 1_555
C153 N29 1_555 1_555
C154 C153 1_555 1_555
C155 O40 1_555 1_555
C156 C155 1_555 1_555
H183 C156 1_555 1_555
C157 C156 1_555 1_555
C158 C157 1_555 1_555
H184 C158 1_555 1_555
C159 C154 1_555 1_555
H185 C159 1_555 1_555
C160 C157 1_555 1_555
H186 C160 1_555 1_555
H187 C160 1_555 1_555
H188 C160 1_555 1_555
C161 N30 1_555 1_555
C162 C161 1_555 1_555
C163 C162 1_555 1_555
H189 C163 1_555 1_555
H190 C163 1_555 1_555
C164 C162 1_555 1_555
H191 C164 1_555 1_555
H192 C164 1_555 1_555
H193 C164 1_555 1_555
C165 N31 1_555 1_555
C166 C165 1_555 1_555
C167 O43 1_555 1_555
C168 C167 1_555 1_555
H194 C168 1_555 1_555
C169 C168 1_555 1_555
C170 C169 1_555 1_555
H195 C170 1_555 1_555
C171 C166 1_555 1_555
H196 C171 1_555 1_555
C172 C169 1_555 1_555
H197 C172 1_555 1_555
H198 C172 1_555 1_555
H199 C172 1_555 1_555
C173 N32 1_555 1_555
C174 C173 1_555 1_555
C175 C174 1_555 1_555
H200 C175 1_555 1_555
H201 C175 1_555 1_555
C176 C174 1_555 1_555
H202 C176 1_555 1_555
H203 C176 1_555 1_555
H204 C176 1_555 1_555
C177 N33 1_555 1_555
C178 C177 1_555 1_555
C179 O46 1_555 1_555
C180 C179 1_555 1_555
H205 C180 1_555 1_555
C181 C180 1_555 1_555
C182 C181 1_555 1_555
H206 C182 1_555 1_555
C183 C178 1_555 1_555
H207 C183 1_555 1_555
C184 C181 1_555 1_555
H208 C184 1_555 1_555
H209 C184 1_555 1_555
H210 C184 1_555 1_555
C185 N34 1_555 1_555
C186 C185 1_555 1_555
C187 C186 1_555 1_555
H211 C187 1_555 1_555
H212 C187 1_555 1_555
C188 C186 1_555 1_555
H213 C188 1_555 1_555
H214 C188 1_555 1_555
H215 C188 1_555 1_555
C189 N35 1_555 1_555
C190 C189 1_555 1_555
C191 O49 1_555 1_555
C192 C191 1_555 1_555
H216 C192 1_555 1_555
C193 C192 1_555 1_555
C194 C193 1_555 1_555
H217 C194 1_555 1_555
C195 C190 1_555 1_555
H218 C195 1_555 1_555
C196 C193 1_555 1_555
H219 C196 1_555 1_555
H220 C196 1_555 1_555
H221 C196 1_555 1_555
C197 N36 1_555 1_555
C198 C197 1_555 1_555
C199 C198 1_555 1_555
H222 C199 1_555 1_555
H223 C199 1_555 1_555
C200 C198 1_555 1_555
H224 C200 1_555 1_555
H225 C200 1_555 1_555
H226 C200 1_555 1_555
C201 N37 1_555 1_555
C202 C201 1_555 1_555
C203 O52 1_555 1_555
C204 C203 1_555 1_555
H227 C204 1_555 1_555
C205 C204 1_555 1_555
C206 C205 1_555 1_555
H228 C206 1_555 1_555
C207 C202 1_555 1_555
H229 C207 1_555 1_555
C208 C205 1_555 1_555
H230 C208 1_555 1_555
H231 C208 1_555 1_555
H232 C208 1_555 1_555
C209 N38 1_555 1_555
C210 C209 1_555 1_555
C211 C210 1_555 1_555
H233 C211 1_555 1_555
H234 C211 1_555 1_555
C212 C210 1_555 1_555
H235 C212 1_555 1_555
H236 C212 1_555 1_555
H237 C212 1_555 1_555
C213 N39 1_555 1_555
C214 C213 1_555 1_555
C215 O55 1_555 1_555
C216 C215 1_555 1_555
H238 C216 1_555 1_555
C217 C216 1_555 1_555
C218 C217 1_555 1_555
H239 C218 1_555 1_555
C219 C214 1_555 1_555
H240 C219 1_555 1_555
C220 C217 1_555 1_555
H241 C220 1_555 1_555
H242 C220 1_555 1_555
H243 C220 1_555 1_555
C221 N40 1_555 1_555
C222 C221 1_555 1_555
C223 C222 1_555 1_555
H244 C223 1_555 1_555
H245 C223 1_555 1_555
C224 C222 1_555 1_555
H246 C224 1_555 1_555
H247 C224 1_555 1_555
H248 C224 1_555 1_555
C225 O57 1_555 1_555
C226 C225 1_555 1_555
H249 C226 1_555 1_555
H250 C226 1_555 1_555
H251 C226 1_555 1_555
C227 N41 1_555 1_555
H252 C227 1_555 1_555
H253 C227 1_555 1_555
H254 C227 1_555 1_555
C228 N41 1_555 1_555
H255 C228 1_555 1_555
H256 C228 1_555 1_555
H257 C228 1_555 1_555
C229 O59 1_555 1_555
C230 C229 1_555 1_555
H258 C230 1_555 1_555
H259 C230 1_555 1_555
H260 C230 1_555 1_555
C231 N42 1_555 1_555
H261 C231 1_555 1_555
H262 C231 1_555 1_555
H263 C231 1_555 1_555
C232 N42 1_555 1_555
H264 C232 1_555 1_555
H265 C232 1_555 1_555
H266 C232 1_555 1_555
C233 O60 1_555 1_555
C234 C233 1_555 1_555
H267 C234 1_555 1_555
H268 C234 1_555 1_555
H269 C234 1_555 1_555
C235 N43 1_555 1_555
H270 C235 1_555 1_555
H271 C235 1_555 1_555
H272 C235 1_555 1_555
C236 N43 1_555 1_555
H273 C236 1_555 1_555
H274 C236 1_555 1_555
H275 C236 1_555 1_555
C237 O61 1_555 1_555
C238 C237 1_555 1_555
H276 C238 1_555 1_555
H277 C238 1_555 1_555
H278 C238 1_555 1_555
C239 N44 1_555 1_555
H279 C239 1_555 1_555
H280 C239 1_555 1_555
H281 C239 1_555 1_555
C240 N44 1_555 1_555
H282 C240 1_555 1_555
H283 C240 1_555 1_555
H284 C240 1_555 1_555
C241 O63 1_555 1_555
C242 C241 1_555 1_555
H285 C242 1_555 1_555
H286 C242 1_555 1_555
H287 C242 1_555 1_555
C243 N45 1_555 1_555
H288 C243 1_555 1_555
H289 C243 1_555 1_555
H290 C243 1_555 1_555
C244 N45 1_555 1_555
H291 C244 1_555 1_555
H292 C244 1_555 1_555
H293 C244 1_555 1_555
C245 O64 1_555 1_555
C246 C245 1_555 1_555
H294 C246 1_555 1_555
H295 C246 1_555 1_555
H296 C246 1_555 1_555
C247 N46 1_555 1_555
H297 C247 1_555 1_555
H298 C247 1_555 1_555
H299 C247 1_555 1_555
C248 N46 1_555 1_555
H300 C248 1_555 1_555
H301 C248 1_555 1_555
H302 C248 1_555 1_555
N47 C249 1_555 1_555
O65 C249 1_555 1_555
C249 C250 1_555 1_555
C250 H303 1_555 1_555
H304 C250 1_555 1_555
H305 C250 1_555 1_555
C251 N47 1_555 1_555
H306 C251 1_555 1_555
H307 C251 1_555 1_555
H308 C251 1_555 1_555
C252 N47 1_555 1_555
H309 C252 1_555 1_555
H310 C252 1_555 1_555
H311 C252 1_555 1_555
N48 C253 1_555 1_555
O66 C253 1_555 1_555
C253 C254 1_555 1_555
C254 H312 1_555 1_555
H313 C254 1_555 1_555
H314 C254 1_555 1_555
C255 N48 1_555 1_555
H315 C255 1_555 1_555
H316 C255 1_555 1_555
H317 C255 1_555 1_555
C256 N48 1_555 1_555
H318 C256 1_555 1_555
H319 C256 1_555 1_555
H320 C256 1_555 1_555
N15 N16 1_555 1_555
O1 C1 1_555 1_555
O4 C13 1_555 1_555
O6 C21 1_555 1_555
O7 C25 1_555 1_555
O9 C33 1_555 1_555
O10 C37 1_555 1_555
O12 C45 1_555 1_555
O13 C49 1_555 1_555
O15 C57 1_555 1_555
O16 C61 1_555 1_555
O18 C69 1_555 1_555
O19 C73 1_555 1_555
O21 C81 1_555 1_555
O22 C85 1_555 1_555
O24 C93 1_555 1_555
C2 C3 1_555 1_555
C6 C7 1_555 1_555
C14 C15 1_555 1_555
C18 C19 1_555 1_555
C26 C27 1_555 1_555
C30 C31 1_555 1_555
C38 C39 1_555 1_555
C42 C43 1_555 1_555
C50 C51 1_555 1_555
C54 C55 1_555 1_555
C62 C63 1_555 1_555
C66 C67 1_555 1_555
C74 C75 1_555 1_555
C78 C79 1_555 1_555
C86 C87 1_555 1_555
C90 C91 1_555 1_555
N39 N40 1_555 1_555
O33 C129 1_555 1_555
O36 C141 1_555 1_555
O38 C149 1_555 1_555
O39 C153 1_555 1_555
O41 C161 1_555 1_555
O42 C165 1_555 1_555
O44 C173 1_555 1_555
O45 C177 1_555 1_555
O47 C185 1_555 1_555
O48 C189 1_555 1_555
O50 C197 1_555 1_555
O51 C201 1_555 1_555
O53 C209 1_555 1_555
O54 C213 1_555 1_555
O56 C221 1_555 1_555
C130 C131 1_555 1_555
C134 C135 1_555 1_555
C142 C143 1_555 1_555
C146 C147 1_555 1_555
C154 C155 1_555 1_555
C158 C159 1_555 1_555
C166 C167 1_555 1_555
C170 C171 1_555 1_555
C178 C179 1_555 1_555
C182 C183 1_555 1_555
C190 C191 1_555 1_555
C194 C195 1_555 1_555
C202 C203 1_555 1_555
C206 C207 1_555 1_555
C214 C215 1_555 1_555
C218 C219 1_555 1_555

#END
