# generated using pymatgen
data_Mn8H160C128N24O35
_symmetry_space_group_name_H-M   'P 1'
_cell_length_a   20.72500000
_cell_length_b   26.71200000
_cell_length_c   29.35700000
_cell_angle_alpha   77.35300000
_cell_angle_beta   73.71700000
_cell_angle_gamma   74.03100000
_symmetry_Int_Tables_number   1
_chemical_formula_structural   Mn8H160C128N24O35
_chemical_formula_sum   'Mn32 H640 C512 N96 O140'
_cell_volume   14820.18521570
_cell_formula_units_Z   4
loop_
 _symmetry_equiv_pos_site_id
 _symmetry_equiv_pos_as_xyz
  1  'x, y, z'
loop_
 _atom_site_type_symbol
 _atom_site_label
 _atom_site_symmetry_multiplicity
 _atom_site_fract_x
 _atom_site_fract_y
 _atom_site_fract_z
 _atom_site_occupancy
  Mn  Mn1  1  0.305600  0.600590  0.095960  1
  Mn  Mn2  1  0.694400  0.399410  0.904040  1
  Mn  Mn3  1  0.332320  0.532560  0.262830  1
  Mn  Mn4  1  0.667680  0.467440  0.737170  1
  Mn  Mn5  1  0.519830  0.415230  0.333850  1
  Mn  Mn6  1  0.480170  0.584770  0.666150  1
  Mn  Mn7  1  0.745030  0.440080  0.337960  1
  Mn  Mn8  1  0.254970  0.559920  0.662040  1
  Mn  Mn9  1  0.897840  0.516640  0.194230  1
  Mn  Mn10  1  0.102160  0.483360  0.805770  1
  Mn  Mn11  1  0.831870  0.673890  0.076680  1
  Mn  Mn12  1  0.168130  0.326110  0.923320  1
  Mn  Mn13  1  0.704670  0.694510  0.950830  1
  Mn  Mn14  1  0.295330  0.305490  0.049170  1
  Mn  Mn15  1  0.449930  0.715290  0.986030  1
  Mn  Mn16  1  0.550070  0.284710  0.013970  1
  Mn  Mn17  1  0.931170  0.796070  0.545070  1
  Mn  Mn18  1  0.068830  0.203930  0.454930  1
  Mn  Mn19  1  0.725780  0.761880  0.516260  1
  Mn  Mn20  1  0.274220  0.238120  0.483740  1
  Mn  Mn21  1  0.579830  0.872630  0.409300  1
  Mn  Mn22  1  0.420170  0.127370  0.590700  1
  Mn  Mn23  1  0.681690  0.938760  0.239010  1
  Mn  Mn24  1  0.318310  0.061240  0.760990  1
  Mn  Mn25  1  0.831070  0.066450  0.175950  1
  Mn  Mn26  1  0.168930  0.933550  0.824050  1
  Mn  Mn27  1  0.080290  0.037890  0.165110  1
  Mn  Mn28  1  0.919710  0.962110  0.834890  1
  Mn  Mn29  1  0.197650  0.943210  0.292080  1
  Mn  Mn30  1  0.802350  0.056790  0.707920  1
  Mn  Mn31  1  0.145380  0.798180  0.418590  1
  Mn  Mn32  1  0.854620  0.201820  0.581410  1
  H  H33  1  0.123900  0.729400  0.109200  1
  H  H34  1  0.876100  0.270600  0.890800  1
  H  H35  1  0.068500  0.729300  0.251600  1
  H  H36  1  0.931500  0.270700  0.748400  1
  H  H37  1  0.164300  0.664100  0.259400  1
  H  H38  1  0.835700  0.335900  0.740600  1
  H  H39  1  0.023100  0.788600  0.139300  1
  H  H40  1  0.976900  0.211400  0.860700  1
  H  H41  1  0.023700  0.810000  0.184800  1
  H  H42  1  0.976300  0.190000  0.815200  1
  H  H43  1  0.981900  0.767400  0.190200  1
  H  H44  1  0.018100  0.232600  0.809800  1
  H  H45  1  0.529600  0.430200  0.102500  1
  H  H46  1  0.470400  0.569800  0.897500  1
  H  H47  1  0.474700  0.469600  0.073900  1
  H  H48  1  0.525300  0.530400  0.926100  1
  H  H49  1  0.523800  0.434400  0.179500  1
  H  H50  1  0.476200  0.565600  0.820500  1
  H  H51  1  0.447700  0.449000  0.209900  1
  H  H52  1  0.552300  0.551000  0.790100  1
  H  H53  1  0.493100  0.490900  0.193800  1
  H  H54  1  0.506900  0.509100  0.806200  1
  H  H55  1  0.201900  0.434800  0.255500  1
  H  H56  1  0.798100  0.565200  0.744500  1
  H  H57  1  0.296400  0.291700  0.309900  1
  H  H58  1  0.703600  0.708300  0.690100  1
  H  H59  1  0.379800  0.327800  0.321700  1
  H  H60  1  0.620200  0.672200  0.678300  1
  H  H61  1  0.154400  0.361700  0.259300  1
  H  H62  1  0.845600  0.638300  0.740700  1
  H  H63  1  0.165500  0.317700  0.303400  1
  H  H64  1  0.834500  0.682300  0.696600  1
  H  H65  1  0.211400  0.309700  0.251900  1
  H  H66  1  0.788600  0.690300  0.748100  1
  H  H67  1  0.569000  0.559600  0.326600  1
  H  H68  1  0.431000  0.440400  0.673400  1
  H  H69  1  0.513600  0.523900  0.351700  1
  H  H70  1  0.486400  0.476100  0.648300  1
  H  H71  1  0.569300  0.608300  0.248700  1
  H  H72  1  0.430700  0.391700  0.751300  1
  H  H73  1  0.496100  0.625900  0.237200  1
  H  H74  1  0.503900  0.374100  0.762800  1
  H  H75  1  0.550200  0.577700  0.216200  1
  H  H76  1  0.449800  0.422300  0.783800  1
  H  H77  1  0.391700  0.421600  0.480600  1
  H  H78  1  0.608300  0.578400  0.519400  1
  H  H79  1  0.528400  0.430500  0.550900  1
  H  H80  1  0.471600  0.569500  0.449100  1
  H  H81  1  0.611500  0.432500  0.480500  1
  H  H82  1  0.388500  0.567500  0.519500  1
  H  H83  1  0.413200  0.427500  0.598800  1
  H  H84  1  0.586800  0.572500  0.401200  1
  H  H85  1  0.377000  0.394500  0.579800  1
  H  H86  1  0.623000  0.605500  0.420200  1
  H  H87  1  0.356700  0.456300  0.569900  1
  H  H88  1  0.643300  0.543700  0.430100  1
  H  H89  1  0.771100  0.374700  0.246200  1
  H  H90  1  0.228900  0.625300  0.753800  1
  H  H91  1  0.790200  0.403700  0.191600  1
  H  H92  1  0.209800  0.596300  0.808400  1
  H  H93  1  0.711500  0.470600  0.160200  1
  H  H94  1  0.288500  0.529400  0.839800  1
  H  H95  1  0.660900  0.504000  0.199100  1
  H  H96  1  0.339100  0.496000  0.800900  1
  H  H97  1  0.635200  0.464200  0.180300  1
  H  H98  1  0.364800  0.535800  0.819700  1
  H  H99  1  0.848600  0.273800  0.364700  1
  H  H100  1  0.151400  0.726200  0.635300  1
  H  H101  1  0.028000  0.270300  0.268600  1
  H  H102  1  0.972000  0.729700  0.731400  1
  H  H103  1  0.992200  0.357200  0.239900  1
  H  H104  1  0.007800  0.642800  0.760100  1
  H  H105  1  0.013900  0.192700  0.319900  1
  H  H106  1  0.986100  0.807300  0.680100  1
  H  H107  1  0.938000  0.185100  0.337900  1
  H  H108  1  0.062000  0.814900  0.662100  1
  H  H109  1  0.971000  0.203600  0.371400  1
  H  H110  1  0.029000  0.796400  0.628600  1
  H  H111  1  0.725600  0.582100  0.200600  1
  H  H112  1  0.274400  0.417900  0.799400  1
  H  H113  1  0.701800  0.642400  0.210000  1
  H  H114  1  0.298200  0.357600  0.790000  1
  H  H115  1  0.697500  0.663500  0.286500  1
  H  H116  1  0.302500  0.336500  0.713500  1
  H  H117  1  0.755000  0.623800  0.309900  1
  H  H118  1  0.245000  0.376200  0.690100  1
  H  H119  1  0.678100  0.618500  0.328500  1
  H  H120  1  0.321900  0.381500  0.671500  1
  H  H121  1  0.961100  0.574800  0.297200  1
  H  H122  1  0.038900  0.425200  0.702800  1
  H  H123  1  0.902900  0.727900  0.263300  1
  H  H124  1  0.097100  0.272100  0.736700  1
  H  H125  1  0.868500  0.717700  0.198600  1
  H  H126  1  0.131500  0.282300  0.801400  1
  H  H127  1  0.948700  0.696100  0.331000  1
  H  H128  1  0.051300  0.303900  0.669000  1
  H  H129  1  0.005000  0.643200  0.328000  1
  H  H130  1  0.995000  0.356800  0.672000  1
  H  H131  1  0.929800  0.642800  0.358600  1
  H  H132  1  0.070200  0.357200  0.641400  1
  H  H133  1  0.739000  0.593800  0.077600  1
  H  H134  1  0.261000  0.406200  0.922400  1
  H  H135  1  0.739800  0.553100  0.044200  1
  H  H136  1  0.260200  0.446900  0.955800  1
  H  H137  1  0.817400  0.471900  0.044100  1
  H  H138  1  0.182600  0.528100  0.955900  1
  H  H139  1  0.834200  0.449000  0.094400  1
  H  H140  1  0.165800  0.551000  0.905600  1
  H  H141  1  0.888700  0.472300  0.052300  1
  H  H142  1  0.111300  0.527700  0.947700  1
  H  H143  1  0.044600  0.665500  0.997800  1
  H  H144  1  0.955400  0.334500  0.002200  1
  H  H145  1  0.040100  0.647800  0.868100  1
  H  H146  1  0.959900  0.352200  0.131900  1
  H  H147  1  0.925100  0.651600  0.893400  1
  H  H148  1  0.074900  0.348400  0.106600  1
  H  H149  1  0.145600  0.667300  0.938200  1
  H  H150  1  0.854400  0.332700  0.061800  1
  H  H151  1  0.132500  0.693000  0.887300  1
  H  H152  1  0.867500  0.307000  0.112700  1
  H  H153  1  0.156800  0.631600  0.899600  1
  H  H154  1  0.843200  0.368400  0.100400  1
  H  H155  1  0.605000  0.766000  0.034100  1
  H  H156  1  0.395000  0.234000  0.965900  1
  H  H157  1  0.536000  0.751400  0.070200  1
  H  H158  1  0.464000  0.248600  0.929800  1
  H  H159  1  0.545100  0.676200  0.137100  1
  H  H160  1  0.454900  0.323800  0.862900  1
  H  H161  1  0.611300  0.669700  0.155600  1
  H  H162  1  0.388700  0.330300  0.844400  1
  H  H163  1  0.610500  0.631700  0.122100  1
  H  H164  1  0.389500  0.368300  0.877900  1
  H  H165  1  0.736800  0.851400  0.889800  1
  H  H166  1  0.263200  0.148600  0.110200  1
  H  H167  1  0.545400  0.931000  0.880700  1
  H  H168  1  0.454600  0.069000  0.119300  1
  H  H169  1  0.504700  0.858200  0.916500  1
  H  H170  1  0.495300  0.141800  0.083500  1
  H  H171  1  0.723600  0.940500  0.855100  1
  H  H172  1  0.276400  0.059500  0.144900  1
  H  H173  1  0.652300  0.975900  0.877100  1
  H  H174  1  0.347700  0.024100  0.122900  1
  H  H175  1  0.665600  0.959900  0.826400  1
  H  H176  1  0.334400  0.040100  0.173600  1
  H  H177  1  0.521600  0.620700  0.064800  1
  H  H178  1  0.478400  0.379300  0.935200  1
  H  H179  1  0.522400  0.559200  0.070800  1
  H  H180  1  0.477600  0.440800  0.929200  1
  H  H181  1  0.609200  0.504100  0.017300  1
  H  H182  1  0.390800  0.495900  0.982700  1
  H  H183  1  0.675900  0.526400  0.002500  1
  H  H184  1  0.324100  0.473600  0.997500  1
  H  H185  1  0.631300  0.534000  0.965300  1
  H  H186  1  0.368700  0.466000  0.034700  1
  H  H187  1  0.436900  0.710300  0.842300  1
  H  H188  1  0.563100  0.289700  0.157700  1
  H  H189  1  0.297600  0.624600  0.869600  1
  H  H190  1  0.702400  0.375400  0.130400  1
  H  H191  1  0.294900  0.610000  0.949400  1
  H  H192  1  0.705100  0.390000  0.050600  1
  H  H193  1  0.398000  0.704900  0.779600  1
  H  H194  1  0.602000  0.295100  0.220400  1
  H  H195  1  0.320700  0.700900  0.792100  1
  H  H196  1  0.679300  0.299100  0.207900  1
  H  H197  1  0.380200  0.650600  0.783000  1
  H  H198  1  0.619800  0.349400  0.217000  1
  H  H199  1  0.385000  0.664400  0.198500  1
  H  H200  1  0.615000  0.335600  0.801500  1
  H  H201  1  0.428200  0.629800  0.156500  1
  H  H202  1  0.571800  0.370200  0.843500  1
  H  H203  1  0.316700  0.750900  0.178800  1
  H  H204  1  0.683300  0.249100  0.821200  1
  H  H205  1  0.285800  0.754400  0.134900  1
  H  H206  1  0.714200  0.245600  0.865100  1
  H  H207  1  0.349300  0.778800  0.128000  1
  H  H208  1  0.650700  0.221200  0.872000  1
  H  H209  1  0.083200  0.567700  0.186100  1
  H  H210  1  0.916800  0.432300  0.813900  1
  H  H211  1  0.152600  0.566200  0.198500  1
  H  H212  1  0.847400  0.433800  0.801500  1
  H  H213  1  0.138300  0.514400  0.190600  1
  H  H214  1  0.861700  0.485600  0.809400  1
  H  H215  1  0.204000  0.585900  0.041700  1
  H  H216  1  0.796000  0.414100  0.958300  1
  H  H217  1  0.153100  0.641500  0.040400  1
  H  H218  1  0.846900  0.358500  0.959600  1
  H  H219  1  0.132000  0.593600  0.030400  1
  H  H220  1  0.868000  0.406400  0.969600  1
  H  H221  1  0.039300  0.603400  0.155000  1
  H  H222  1  0.960700  0.396600  0.845000  1
  H  H223  1  0.023100  0.606300  0.105400  1
  H  H224  1  0.976900  0.393700  0.894600  1
  H  H225  1  0.045700  0.653300  0.115800  1
  H  H226  1  0.954300  0.346700  0.884200  1
  H  H227  1  0.311000  0.644700  0.332200  1
  H  H228  1  0.689000  0.355300  0.667800  1
  H  H229  1  0.242600  0.666200  0.368700  1
  H  H230  1  0.757400  0.333800  0.631300  1
  H  H231  1  0.244100  0.673900  0.313900  1
  H  H232  1  0.755900  0.326100  0.686100  1
  H  H233  1  0.183300  0.532600  0.346900  1
  H  H234  1  0.816700  0.467400  0.653100  1
  H  H235  1  0.117900  0.572800  0.333500  1
  H  H236  1  0.882100  0.427200  0.666500  1
  H  H237  1  0.119200  0.551700  0.387500  1
  H  H238  1  0.880800  0.448300  0.612500  1
  H  H239  1  0.146600  0.682400  0.370900  1
  H  H240  1  0.853400  0.317600  0.629100  1
  H  H241  1  0.096400  0.647100  0.403000  1
  H  H242  1  0.903600  0.352900  0.597000  1
  H  H243  1  0.095100  0.667500  0.348800  1
  H  H244  1  0.904900  0.332500  0.651200  1
  H  H245  1  0.461500  0.323300  0.423100  1
  H  H246  1  0.538500  0.676700  0.576900  1
  H  H247  1  0.511100  0.309500  0.457900  1
  H  H248  1  0.488900  0.690500  0.542100  1
  H  H249  1  0.497700  0.264400  0.437900  1
  H  H250  1  0.502300  0.735600  0.562100  1
  H  H251  1  0.674300  0.302000  0.333700  1
  H  H252  1  0.325700  0.698000  0.666300  1
  H  H253  1  0.705600  0.241900  0.347500  1
  H  H254  1  0.294400  0.758100  0.652500  1
  H  H255  1  0.716500  0.283300  0.373500  1
  H  H256  1  0.283500  0.716700  0.626500  1
  H  H257  1  0.571000  0.243900  0.462700  1
  H  H258  1  0.429000  0.756100  0.537300  1
  H  H259  1  0.644300  0.251200  0.460900  1
  H  H260  1  0.355700  0.748800  0.539100  1
  H  H261  1  0.637400  0.202600  0.442300  1
  H  H262  1  0.362600  0.797400  0.557700  1
  H  H263  1  0.846400  0.531200  0.335300  1
  H  H264  1  0.153600  0.468800  0.664700  1
  H  H265  1  0.874400  0.539500  0.376800  1
  H  H266  1  0.125600  0.460500  0.623200  1
  H  H267  1  0.800900  0.571100  0.370200  1
  H  H268  1  0.199100  0.428900  0.629800  1
  H  H269  1  0.743600  0.421900  0.475200  1
  H  H270  1  0.256400  0.578100  0.524800  1
  H  H271  1  0.694100  0.465200  0.505300  1
  H  H272  1  0.305900  0.534800  0.494700  1
  H  H273  1  0.764400  0.434300  0.518100  1
  H  H274  1  0.235600  0.565700  0.481900  1
  H  H275  1  0.802600  0.570300  0.452000  1
  H  H276  1  0.197400  0.429700  0.548000  1
  H  H277  1  0.804000  0.534900  0.502100  1
  H  H278  1  0.196000  0.465100  0.497900  1
  H  H279  1  0.733200  0.563700  0.488900  1
  H  H280  1  0.266800  0.436300  0.511100  1
  H  H281  1  0.981100  0.537700  0.066900  1
  H  H282  1  0.018900  0.462300  0.933100  1
  H  H283  1  0.027000  0.487900  0.044200  1
  H  H284  1  0.973000  0.512100  0.955800  1
  H  H285  1  0.059600  0.534800  0.043000  1
  H  H286  1  0.940400  0.465200  0.957000  1
  H  H287  1  0.079900  0.435000  0.179000  1
  H  H288  1  0.920100  0.565000  0.821000  1
  H  H289  1  0.156900  0.439800  0.159800  1
  H  H290  1  0.843100  0.560200  0.840200  1
  H  H291  1  0.135100  0.390700  0.152900  1
  H  H292  1  0.864900  0.609300  0.847100  1
  H  H293  1  0.140700  0.474000  0.035600  1
  H  H294  1  0.859300  0.526000  0.964400  1
  H  H295  1  0.174700  0.416600  0.056500  1
  H  H296  1  0.825300  0.583400  0.943500  1
  H  H297  1  0.197500  0.464800  0.064200  1
  H  H298  1  0.802500  0.535200  0.935800  1
  H  H299  1  0.936900  0.759200  0.080100  1
  H  H300  1  0.063100  0.240800  0.919900  1
  H  H301  1  0.939500  0.815300  0.050400  1
  H  H302  1  0.060500  0.184700  0.949600  1
  H  H303  1  0.974600  0.765000  0.025600  1
  H  H304  1  0.025400  0.235000  0.974400  1
  H  H305  1  0.957000  0.830200  0.972600  1
  H  H306  1  0.043000  0.169800  0.027400  1
  H  H307  1  0.899200  0.873100  0.952200  1
  H  H308  1  0.100800  0.126900  0.047800  1
  H  H309  1  0.930600  0.820100  0.931100  1
  H  H310  1  0.069400  0.179900  0.068900  1
  H  H311  1  0.767500  0.800800  0.007000  1
  H  H312  1  0.232500  0.199200  0.993000  1
  H  H313  1  0.808300  0.801200  0.953200  1
  H  H314  1  0.191700  0.198800  0.046800  1
  H  H315  1  0.777400  0.854300  0.974100  1
  H  H316  1  0.222600  0.145700  0.025900  1
  H  H317  1  0.616400  0.731100  0.814100  1
  H  H318  1  0.383600  0.268900  0.185900  1
  H  H319  1  0.685900  0.746900  0.808600  1
  H  H320  1  0.314100  0.253100  0.191400  1
  H  H321  1  0.627100  0.754400  0.855400  1
  H  H322  1  0.372900  0.245600  0.144600  1
  H  H323  1  0.583700  0.682800  0.812300  1
  H  H324  1  0.416300  0.317200  0.187700  1
  H  H325  1  0.562200  0.633600  0.847400  1
  H  H326  1  0.437800  0.366400  0.152600  1
  H  H327  1  0.616100  0.626300  0.798500  1
  H  H328  1  0.383900  0.373700  0.201500  1
  H  H329  1  0.722400  0.582400  0.884600  1
  H  H330  1  0.277600  0.417600  0.115400  1
  H  H331  1  0.705500  0.561900  0.844100  1
  H  H332  1  0.294500  0.438100  0.155900  1
  H  H333  1  0.650500  0.569000  0.892700  1
  H  H334  1  0.349500  0.431000  0.107300  1
  H  H335  1  0.380000  0.821300  0.899000  1
  H  H336  1  0.620000  0.178700  0.101000  1
  H  H337  1  0.303000  0.848400  0.898000  1
  H  H338  1  0.697000  0.151600  0.102000  1
  H  H339  1  0.335100  0.791700  0.884400  1
  H  H340  1  0.664900  0.208300  0.115600  1
  H  H341  1  0.263400  0.757900  0.033100  1
  H  H342  1  0.736600  0.242100  0.966900  1
  H  H343  1  0.225400  0.724300  0.016500  1
  H  H344  1  0.774600  0.275700  0.983500  1
  H  H345  1  0.185800  0.779800  0.030700  1
  H  H346  1  0.814200  0.220200  0.969300  1
  H  H347  1  0.227200  0.805600  0.903100  1
  H  H348  1  0.772800  0.194400  0.096900  1
  H  H349  1  0.163600  0.808500  0.947300  1
  H  H350  1  0.836400  0.191500  0.052700  1
  H  H351  1  0.205900  0.753700  0.932500  1
  H  H352  1  0.794100  0.246300  0.067500  1
  H  H353  1  0.020600  0.652200  0.630000  1
  H  H354  1  0.979400  0.347800  0.370000  1
  H  H355  1  0.895000  0.559900  0.638400  1
  H  H356  1  0.105000  0.440100  0.361600  1
  H  H357  1  0.836900  0.624400  0.589100  1
  H  H358  1  0.163100  0.375600  0.410900  1
  H  H359  1  0.039800  0.570800  0.676000  1
  H  H360  1  0.960200  0.429200  0.324000  1
  H  H361  1  0.022400  0.527100  0.656500  1
  H  H362  1  0.977600  0.472900  0.343500  1
  H  H363  1  0.972700  0.550200  0.701800  1
  H  H364  1  0.027300  0.449800  0.298200  1
  H  H365  1  0.825300  0.881200  0.417300  1
  H  H366  1  0.174700  0.118800  0.582700  1
  H  H367  1  0.759900  0.930700  0.422200  1
  H  H368  1  0.240100  0.069300  0.577800  1
  H  H369  1  0.754900  0.976200  0.471700  1
  H  H370  1  0.245100  0.023800  0.528300  1
  H  H371  1  0.830300  0.952300  0.478500  1
  H  H372  1  0.169700  0.047700  0.521500  1
  H  H373  1  0.767100  0.948600  0.522500  1
  H  H374  1  0.232900  0.051400  0.477500  1
  H  H375  1  0.602900  0.767900  0.658800  1
  H  H376  1  0.397100  0.232100  0.341200  1
  H  H377  1  0.415800  0.836400  0.635900  1
  H  H378  1  0.584200  0.163600  0.364100  1
  H  H379  1  0.464300  0.857100  0.555200  1
  H  H380  1  0.535700  0.142900  0.444800  1
  H  H381  1  0.507500  0.758800  0.725200  1
  H  H382  1  0.492500  0.241200  0.274800  1
  H  H383  1  0.443000  0.755000  0.709400  1
  H  H384  1  0.557000  0.245000  0.290600  1
  H  H385  1  0.445400  0.807800  0.723200  1
  H  H386  1  0.554600  0.192200  0.276800  1
  H  H387  1  0.769000  0.848000  0.346000  1
  H  H388  1  0.231000  0.152000  0.654000  1
  H  H389  1  0.785400  0.813700  0.303500  1
  H  H390  1  0.214600  0.186300  0.696500  1
  H  H391  1  0.769800  0.722500  0.324200  1
  H  H392  1  0.230200  0.277500  0.675800  1
  H  H393  1  0.708400  0.717800  0.369400  1
  H  H394  1  0.291600  0.282200  0.630600  1
  H  H395  1  0.784900  0.697700  0.374800  1
  H  H396  1  0.215100  0.302300  0.625200  1
  H  H397  1  0.496000  0.743800  0.403700  1
  H  H398  1  0.504000  0.256200  0.596300  1
  H  H399  1  0.567600  0.726000  0.265100  1
  H  H400  1  0.432400  0.274000  0.734900  1
  H  H401  1  0.620500  0.792600  0.251900  1
  H  H402  1  0.379500  0.207400  0.748100  1
  H  H403  1  0.467500  0.676700  0.377000  1
  H  H404  1  0.532500  0.323300  0.623000  1
  H  H405  1  0.525800  0.651200  0.336100  1
  H  H406  1  0.474200  0.348800  0.663900  1
  H  H407  1  0.459100  0.690600  0.324000  1
  H  H408  1  0.540900  0.309400  0.676000  1
  H  H409  1  0.747700  0.030700  0.321600  1
  H  H410  1  0.252300  0.969300  0.678400  1
  H  H411  1  0.752500  0.976800  0.303300  1
  H  H412  1  0.247500  0.023200  0.696700  1
  H  H413  1  0.656200  0.066400  0.374000  1
  H  H414  1  0.343800  0.933600  0.626000  1
  H  H415  1  0.633500  0.022300  0.415700  1
  H  H416  1  0.366500  0.977700  0.584300  1
  H  H417  1  0.587100  0.050000  0.379200  1
  H  H418  1  0.412900  0.950000  0.620800  1
  H  H419  1  0.476200  0.030600  0.231600  1
  H  H420  1  0.523800  0.969400  0.768400  1
  H  H421  1  0.503700  0.177100  0.201000  1
  H  H422  1  0.496300  0.822900  0.799000  1
  H  H423  1  0.618800  0.144000  0.196800  1
  H  H424  1  0.381200  0.856000  0.803200  1
  H  H425  1  0.377100  0.098700  0.229800  1
  H  H426  1  0.622900  0.901300  0.770200  1
  H  H427  1  0.391000  0.149200  0.193400  1
  H  H428  1  0.609000  0.850800  0.806600  1
  H  H429  1  0.381100  0.148200  0.248400  1
  H  H430  1  0.618900  0.851800  0.751600  1
  H  H431  1  0.923100  0.952300  0.147000  1
  H  H432  1  0.076900  0.047700  0.853000  1
  H  H433  1  0.985700  0.916100  0.170100  1
  H  H434  1  0.014300  0.083900  0.829900  1
  H  H435  1  0.963400  0.868200  0.250600  1
  H  H436  1  0.036600  0.131800  0.749400  1
  H  H437  1  0.893200  0.851000  0.263800  1
  H  H438  1  0.106800  0.149000  0.736200  1
  H  H439  1  0.898400  0.899100  0.283900  1
  H  H440  1  0.101600  0.100900  0.716100  1
  H  H441  1  0.815000  0.084800  0.026900  1
  H  H442  1  0.185000  0.915200  0.973100  1
  H  H443  1  0.011100  0.069000  0.955700  1
  H  H444  1  0.988900  0.931000  0.044300  1
  H  H445  1  0.043200  0.058400  0.026800  1
  H  H446  1  0.956800  0.941600  0.973200  1
  H  H447  1  0.836600  0.091800  0.944400  1
  H  H448  1  0.163400  0.908200  0.055600  1
  H  H449  1  0.907300  0.055000  0.923400  1
  H  H450  1  0.092700  0.945000  0.076600  1
  H  H451  1  0.900400  0.115900  0.916900  1
  H  H452  1  0.099600  0.884100  0.083100  1
  H  H453  1  0.994200  0.099100  0.256600  1
  H  H454  1  0.005800  0.900900  0.743400  1
  H  H455  1  0.992000  0.072800  0.311800  1
  H  H456  1  0.008000  0.927200  0.688200  1
  H  H457  1  0.929400  0.010900  0.350400  1
  H  H458  1  0.070600  0.989100  0.649600  1
  H  H459  1  0.925600  0.974500  0.316400  1
  H  H460  1  0.074400  0.025500  0.683600  1
  H  H461  1  0.861700  0.019400  0.333100  1
  H  H462  1  0.138300  0.980600  0.666900  1
  H  H463  1  0.088000  0.203200  0.150900  1
  H  H464  1  0.912000  0.796800  0.849100  1
  H  H465  1  0.209000  0.193200  0.238600  1
  H  H466  1  0.791000  0.806800  0.761400  1
  H  H467  1  0.213100  0.104800  0.259600  1
  H  H468  1  0.786900  0.895200  0.740400  1
  H  H469  1  0.114400  0.281600  0.155200  1
  H  H470  1  0.885600  0.718400  0.844800  1
  H  H471  1  0.188800  0.271700  0.163200  1
  H  H472  1  0.811200  0.728300  0.836800  1
  H  H473  1  0.124100  0.283400  0.205800  1
  H  H474  1  0.875900  0.716600  0.794200  1
  H  H475  1  0.098200  0.823000  0.279400  1
  H  H476  1  0.901800  0.177000  0.720600  1
  H  H477  1  0.070300  0.881300  0.293800  1
  H  H478  1  0.929700  0.118700  0.706200  1
  H  H479  1  0.160300  0.811700  0.198400  1
  H  H480  1  0.839700  0.188300  0.801600  1
  H  H481  1  0.204100  0.854100  0.174900  1
  H  H482  1  0.795900  0.145900  0.825100  1
  H  H483  1  0.134600  0.859300  0.160900  1
  H  H484  1  0.865400  0.140700  0.839100  1
  H  H485  1  0.381600  0.875700  0.189200  1
  H  H486  1  0.618400  0.124300  0.810800  1
  H  H487  1  0.424900  0.725200  0.254700  1
  H  H488  1  0.575100  0.274800  0.745300  1
  H  H489  1  0.326500  0.742700  0.314600  1
  H  H490  1  0.673500  0.257300  0.685400  1
  H  H491  1  0.477100  0.819800  0.150200  1
  H  H492  1  0.522900  0.180200  0.849800  1
  H  H493  1  0.471900  0.760900  0.157800  1
  H  H494  1  0.528100  0.239100  0.842200  1
  H  H495  1  0.516000  0.777200  0.185300  1
  H  H496  1  0.484000  0.222800  0.814700  1
  H  H497  1  0.995200  0.885300  0.403300  1
  H  H498  1  0.004800  0.114700  0.596700  1
  H  H499  1  0.949800  0.918300  0.446000  1
  H  H500  1  0.050200  0.081700  0.554000  1
  H  H501  1  0.989800  0.986900  0.464000  1
  H  H502  1  0.010200  0.013100  0.536000  1
  H  H503  1  0.033600  0.014500  0.417600  1
  H  H504  1  0.966400  0.985500  0.582400  1
  H  H505  1  0.070500  0.973600  0.454800  1
  H  H506  1  0.929500  0.026400  0.545200  1
  H  H507  1  0.279500  0.845700  0.484200  1
  H  H508  1  0.720500  0.154300  0.515800  1
  H  H509  1  0.135400  0.912600  0.593300  1
  H  H510  1  0.864600  0.087400  0.406700  1
  H  H511  1  0.050100  0.897300  0.566100  1
  H  H512  1  0.949900  0.102700  0.433900  1
  H  H513  1  0.316700  0.882900  0.534500  1
  H  H514  1  0.683300  0.117100  0.465500  1
  H  H515  1  0.274800  0.878900  0.588200  1
  H  H516  1  0.725200  0.121100  0.411800  1
  H  H517  1  0.264100  0.932700  0.553500  1
  H  H518  1  0.735900  0.067300  0.446500  1
  H  H519  1  0.961900  0.696000  0.472300  1
  H  H520  1  0.038100  0.304000  0.527700  1
  H  H521  1  0.909600  0.704800  0.438200  1
  H  H522  1  0.090400  0.295200  0.561800  1
  H  H523  1  0.908900  0.770900  0.371900  1
  H  H524  1  0.091100  0.229100  0.628100  1
  H  H525  1  0.983000  0.781300  0.349300  1
  H  H526  1  0.017000  0.218700  0.650700  1
  H  H527  1  0.926800  0.821100  0.380200  1
  H  H528  1  0.073200  0.178900  0.619800  1
  H  H529  1  0.758300  0.790400  0.644400  1
  H  H530  1  0.241700  0.209600  0.355600  1
  H  H531  1  0.718600  0.846500  0.624800  1
  H  H532  1  0.281400  0.153500  0.375200  1
  H  H533  1  0.725900  0.833500  0.678100  1
  H  H534  1  0.274100  0.166500  0.321900  1
  H  H535  1  0.905200  0.893900  0.602600  1
  H  H536  1  0.094800  0.106100  0.397400  1
  H  H537  1  0.871200  0.932200  0.640700  1
  H  H538  1  0.128800  0.067800  0.359300  1
  H  H539  1  0.858200  0.949100  0.588900  1
  H  H540  1  0.141800  0.050900  0.411100  1
  H  H541  1  0.699000  0.908700  0.655600  1
  H  H542  1  0.301000  0.091300  0.344400  1
  H  H543  1  0.723100  0.959100  0.625000  1
  H  H544  1  0.276900  0.040900  0.375000  1
  H  H545  1  0.732900  0.940500  0.677600  1
  H  H546  1  0.267100  0.059500  0.322400  1
  H  H547  1  0.438500  0.939400  0.495000  1
  H  H548  1  0.561500  0.060600  0.505000  1
  H  H549  1  0.383200  0.991300  0.485200  1
  H  H550  1  0.616800  0.008700  0.514800  1
  H  H551  1  0.457700  0.994200  0.485200  1
  H  H552  1  0.542300  0.005800  0.514800  1
  H  H553  1  0.414000  0.063400  0.443600  1
  H  H554  1  0.586000  0.936600  0.556400  1
  H  H555  1  0.382200  0.085600  0.398700  1
  H  H556  1  0.617800  0.914400  0.601300  1
  H  H557  1  0.458100  0.087900  0.395500  1
  H  H558  1  0.541900  0.912100  0.604500  1
  H  H559  1  0.480200  0.977500  0.336000  1
  H  H560  1  0.519800  0.022500  0.664000  1
  H  H561  1  0.502500  0.031200  0.326000  1
  H  H562  1  0.497500  0.968800  0.674000  1
  H  H563  1  0.425700  0.030800  0.329700  1
  H  H564  1  0.574300  0.969200  0.670300  1
  H  H565  1  0.774300  0.788500  0.163300  1
  H  H566  1  0.225700  0.211500  0.836700  1
  H  H567  1  0.785800  0.818500  0.199600  1
  H  H568  1  0.214200  0.181500  0.800400  1
  H  H569  1  0.815900  0.832800  0.144300  1
  H  H570  1  0.184100  0.167200  0.855700  1
  H  H571  1  0.718800  0.769600  0.145100  1
  H  H572  1  0.281200  0.230400  0.854900  1
  H  H573  1  0.664600  0.795900  0.113900  1
  H  H574  1  0.335400  0.204100  0.886100  1
  H  H575  1  0.639700  0.777100  0.169100  1
  H  H576  1  0.360300  0.222900  0.830900  1
  H  H577  1  0.598400  0.918800  0.160400  1
  H  H578  1  0.401600  0.081200  0.839600  1
  H  H579  1  0.561600  0.871600  0.176600  1
  H  H580  1  0.438400  0.128400  0.823400  1
  H  H581  1  0.589200  0.890700  0.121800  1
  H  H582  1  0.410800  0.109300  0.878200  1
  H  H583  1  0.783200  0.200700  0.266100  1
  H  H584  1  0.216800  0.799300  0.733900  1
  H  H585  1  0.774700  0.144500  0.265200  1
  H  H586  1  0.225300  0.855500  0.734800  1
  H  H587  1  0.727100  0.194600  0.242600  1
  H  H588  1  0.272900  0.805400  0.757400  1
  H  H589  1  0.847400  0.233100  0.256800  1
  H  H590  1  0.152600  0.766900  0.743200  1
  H  H591  1  0.884800  0.267600  0.212300  1
  H  H592  1  0.115200  0.732400  0.787700  1
  H  H593  1  0.927500  0.216200  0.237200  1
  H  H594  1  0.072500  0.783800  0.762800  1
  H  H595  1  0.914100  0.175900  0.130000  1
  H  H596  1  0.085900  0.824100  0.870000  1
  H  H597  1  0.971900  0.175700  0.155000  1
  H  H598  1  0.028100  0.824300  0.845000  1
  H  H599  1  0.932200  0.229000  0.130600  1
  H  H600  1  0.067800  0.771000  0.869400  1
  H  H601  1  0.399100  0.857400  0.360000  1
  H  H602  1  0.600900  0.142600  0.640000  1
  H  H603  1  0.324000  0.849600  0.369000  1
  H  H604  1  0.676000  0.150400  0.631000  1
  H  H605  1  0.339000  0.886000  0.398100  1
  H  H606  1  0.661000  0.114000  0.601900  1
  H  H607  1  0.460400  0.872300  0.316100  1
  H  H608  1  0.539600  0.127700  0.683900  1
  H  H609  1  0.487900  0.920600  0.283900  1
  H  H610  1  0.512100  0.079400  0.716100  1
  H  H611  1  0.469800  0.880500  0.260300  1
  H  H612  1  0.530200  0.119500  0.739700  1
  H  H613  1  0.325100  0.991600  0.260000  1
  H  H614  1  0.674900  0.008400  0.740000  1
  H  H615  1  0.380700  0.956800  0.224200  1
  H  H616  1  0.619300  0.043200  0.775800  1
  H  H617  1  0.402500  0.995400  0.247200  1
  H  H618  1  0.597500  0.004600  0.752800  1
  H  H619  1  0.158700  0.672900  0.560200  1
  H  H620  1  0.841300  0.327100  0.439800  1
  H  H621  1  0.122400  0.655500  0.528000  1
  H  H622  1  0.877600  0.344500  0.472000  1
  H  H623  1  0.102400  0.714200  0.536900  1
  H  H624  1  0.897600  0.285800  0.463100  1
  H  H625  1  0.233900  0.672600  0.565600  1
  H  H626  1  0.766100  0.327400  0.434400  1
  H  H627  1  0.281500  0.712900  0.545500  1
  H  H628  1  0.718500  0.287100  0.454500  1
  H  H629  1  0.312200  0.653000  0.541500  1
  H  H630  1  0.687800  0.347000  0.458500  1
  H  H631  1  0.294600  0.707300  0.418800  1
  H  H632  1  0.705400  0.292700  0.581200  1
  H  H633  1  0.351800  0.675000  0.446000  1
  H  H634  1  0.648200  0.325000  0.554000  1
  H  H635  1  0.322600  0.735400  0.448300  1
  H  H636  1  0.677400  0.264600  0.551700  1
  H  H637  1  0.408400  0.861500  0.060700  1
  H  H638  1  0.591600  0.138500  0.939300  1
  H  H639  1  0.487900  0.837300  0.053800  1
  H  H640  1  0.512100  0.162700  0.946200  1
  H  H641  1  0.459100  0.874800  0.011300  1
  H  H642  1  0.540900  0.125200  0.988700  1
  H  H643  1  0.572000  0.872300  0.006600  1
  H  H644  1  0.428000  0.127700  0.993400  1
  H  H645  1  0.619200  0.891900  0.029000  1
  H  H646  1  0.380800  0.108100  0.971000  1
  H  H647  1  0.591800  0.926600  0.984800  1
  H  H648  1  0.408200  0.073400  0.015200  1
  H  H649  1  0.484300  0.988700  0.079600  1
  H  H650  1  0.515700  0.011300  0.920400  1
  H  H651  1  0.536100  0.999300  0.030100  1
  H  H652  1  0.463900  0.000700  0.969900  1
  H  H653  1  0.563700  0.965700  0.074600  1
  H  H654  1  0.436300  0.034300  0.925400  1
  H  H655  1  0.210800  0.034600  0.903400  1
  H  H656  1  0.789200  0.965400  0.096600  1
  H  H657  1  0.176900  0.085700  0.927200  1
  H  H658  1  0.823100  0.914300  0.072800  1
  H  H659  1  0.138000  0.040000  0.939200  1
  H  H660  1  0.862000  0.960000  0.060800  1
  H  H661  1  0.276600  0.995900  0.889200  1
  H  H662  1  0.723400  0.004100  0.110800  1
  H  H663  1  0.300600  0.938300  0.914600  1
  H  H664  1  0.699400  0.061700  0.085400  1
  H  H665  1  0.349300  0.977600  0.901400  1
  H  H666  1  0.650700  0.022400  0.098600  1
  H  H667  1  0.279900  0.981100  0.031200  1
  H  H668  1  0.720100  0.018900  0.968800  1
  H  H669  1  0.352300  0.968300  0.995600  1
  H  H670  1  0.647700  0.031700  0.004400  1
  H  H671  1  0.304900  0.927900  0.010400  1
  H  H672  1  0.695100  0.072100  0.989600  1
  C  C673  1  0.260600  0.610300  0.199900  1
  C  C674  1  0.739400  0.389700  0.800100  1
  C  C675  1  0.202500  0.653900  0.190400  1
  C  C676  1  0.797500  0.346100  0.809600  1
  C  C677  1  0.189100  0.674600  0.144300  1
  C  C678  1  0.810900  0.325400  0.855700  1
  C  C679  1  0.131700  0.715600  0.139700  1
  C  C680  1  0.868300  0.284400  0.860300  1
  C  C681  1  0.085500  0.736600  0.179600  1
  C  C682  1  0.914500  0.263400  0.820400  1
  C  C683  1  0.098500  0.716300  0.224500  1
  C  C684  1  0.901500  0.283700  0.775500  1
  C  C685  1  0.156000  0.676600  0.228900  1
  C  C686  1  0.844000  0.323400  0.771100  1
  C  C687  1  0.022900  0.779600  0.172900  1
  C  C688  1  0.977100  0.220400  0.827100  1
  C  C689  1  0.395600  0.523500  0.139900  1
  C  C690  1  0.604400  0.476500  0.860100  1
  C  C691  1  0.458300  0.480100  0.140800  1
  C  C692  1  0.541700  0.519900  0.859200  1
  C  C693  1  0.490800  0.457700  0.101800  1
  C  C694  1  0.509200  0.542300  0.898200  1
  C  C695  1  0.482800  0.462100  0.184700  1
  C  C696  1  0.517200  0.537900  0.815300  1
  C  C697  1  0.396100  0.424700  0.302800  1
  C  C698  1  0.603900  0.575300  0.697200  1
  C  C699  1  0.340700  0.405100  0.295200  1
  C  C700  1  0.659300  0.594900  0.704800  1
  C  C701  1  0.284200  0.436700  0.275900  1
  C  C702  1  0.715800  0.563300  0.724100  1
  C  C703  1  0.237500  0.413600  0.269200  1
  C  C704  1  0.762500  0.586400  0.730800  1
  C  C705  1  0.239900  0.360300  0.281500  1
  C  C706  1  0.760100  0.639700  0.718500  1
  C  C707  1  0.293800  0.327700  0.301400  1
  C  C708  1  0.706200  0.672300  0.698600  1
  C  C709  1  0.344000  0.349600  0.308400  1
  C  C710  1  0.656000  0.650400  0.691600  1
  C  C711  1  0.188100  0.335000  0.273300  1
  C  C712  1  0.811900  0.665000  0.726700  1
  C  C713  1  0.449500  0.537900  0.284800  1
  C  C714  1  0.550500  0.462100  0.715200  1
  C  C715  1  0.506300  0.560400  0.286500  1
  C  C716  1  0.493700  0.439600  0.713500  1
  C  C717  1  0.532300  0.546600  0.325600  1
  C  C718  1  0.467700  0.453400  0.674400  1
  C  C719  1  0.532800  0.596200  0.243400  1
  C  C720  1  0.467200  0.403800  0.756600  1
  C  C721  1  0.610800  0.428300  0.391600  1
  C  C722  1  0.389200  0.571700  0.608400  1
  C  C723  1  0.555500  0.427200  0.436700  1
  C  C724  1  0.444500  0.572800  0.563300  1
  C  C725  1  0.486500  0.424700  0.438100  1
  C  C726  1  0.513500  0.575300  0.561900  1
  C  C727  1  0.435800  0.423700  0.480700  1
  C  C728  1  0.564200  0.576300  0.519300  1
  C  C729  1  0.451400  0.425800  0.524700  1
  C  C730  1  0.548600  0.574200  0.475300  1
  C  C731  1  0.517300  0.429000  0.522800  1
  C  C732  1  0.482700  0.571000  0.477200  1
  C  C733  1  0.567900  0.430000  0.480000  1
  C  C734  1  0.432100  0.570000  0.520000  1
  C  C735  1  0.393900  0.426000  0.573000  1
  C  C736  1  0.606100  0.574000  0.427000  1
  C  C737  1  0.644000  0.423700  0.271300  1
  C  C738  1  0.356000  0.576300  0.728700  1
  C  C739  1  0.695400  0.429000  0.226100  1
  C  C740  1  0.304600  0.571000  0.773900  1
  C  C741  1  0.758300  0.399600  0.220800  1
  C  C742  1  0.241700  0.600400  0.779200  1
  C  C743  1  0.673900  0.470500  0.188200  1
  C  C744  1  0.326100  0.529500  0.811800  1
  C  C745  1  0.877600  0.424800  0.262200  1
  C  C746  1  0.122400  0.575200  0.737800  1
  C  C747  1  0.896700  0.369900  0.283400  1
  C  C748  1  0.103300  0.630100  0.716600  1
  C  C749  1  0.852800  0.344200  0.323300  1
  C  C750  1  0.147200  0.655800  0.676700  1
  C  C751  1  0.876900  0.291100  0.339300  1
  C  C752  1  0.123100  0.708900  0.660700  1
  C  C753  1  0.941900  0.263000  0.318600  1
  C  C754  1  0.058100  0.737000  0.681400  1
  C  C755  1  0.984000  0.288600  0.282000  1
  C  C756  1  0.016000  0.711400  0.718000  1
  C  C757  1  0.962300  0.340800  0.264800  1
  C  C758  1  0.037700  0.659200  0.735200  1
  C  C759  1  0.968700  0.205800  0.338800  1
  C  C760  1  0.031300  0.794200  0.661200  1
  C  C761  1  0.748300  0.535500  0.281300  1
  C  C762  1  0.251700  0.464500  0.718700  1
  C  C763  1  0.725000  0.591300  0.264300  1
  C  C764  1  0.275000  0.408700  0.735700  1
  C  C765  1  0.716700  0.606700  0.220900  1
  C  C766  1  0.283300  0.393300  0.779100  1
  C  C767  1  0.712800  0.627600  0.300700  1
  C  C768  1  0.287200  0.372400  0.699300  1
  C  C769  1  0.873300  0.633000  0.165400  1
  C  C770  1  0.126700  0.367000  0.834600  1
  C  C771  1  0.895600  0.637500  0.207100  1
  C  C772  1  0.104400  0.362500  0.792900  1
  C  C773  1  0.923200  0.593800  0.238400  1
  C  C774  1  0.076800  0.406200  0.761600  1
  C  C775  1  0.942800  0.603700  0.276800  1
  C  C776  1  0.057200  0.396300  0.723200  1
  C  C777  1  0.937200  0.651800  0.286800  1
  C  C778  1  0.062800  0.348200  0.713200  1
  C  C779  1  0.908600  0.694000  0.257000  1
  C  C780  1  0.091400  0.306000  0.743000  1
  C  C781  1  0.887800  0.688000  0.217900  1
  C  C782  1  0.112200  0.312000  0.782100  1
  C  C783  1  0.956900  0.659200  0.330000  1
  C  C784  1  0.043100  0.340800  0.670000  1
  C  C785  1  0.840200  0.540400  0.116200  1
  C  C786  1  0.159800  0.459600  0.883800  1
  C  C787  1  0.810900  0.528100  0.081800  1
  C  C788  1  0.189100  0.471900  0.918200  1
  C  C789  1  0.757800  0.561800  0.066300  1
  C  C790  1  0.242200  0.438200  0.933700  1
  C  C791  1  0.840400  0.475800  0.066900  1
  C  C792  1  0.159600  0.524200  0.933100  1
  C  C793  1  0.836600  0.668900  0.974500  1
  C  C794  1  0.163400  0.331100  0.025500  1
  C  C795  1  0.912900  0.660600  0.961900  1
  C  C796  1  0.087100  0.339400  0.038100  1
  C  C797  1  0.950700  0.663200  0.994700  1
  C  C798  1  0.049300  0.336800  0.005300  1
  C  C799  1  0.019900  0.662900  0.976700  1
  C  C800  1  0.980100  0.337100  0.023300  1
  C  C801  1  0.055000  0.658900  0.929800  1
  C  C802  1  0.945000  0.341100  0.070200  1
  C  C803  1  0.017600  0.653000  0.899500  1
  C  C804  1  0.982400  0.347000  0.100500  1
  C  C805  1  0.948800  0.654600  0.914800  1
  C  C806  1  0.051200  0.345400  0.085200  1
  C  C807  1  0.129200  0.663100  0.912100  1
  C  C808  1  0.870800  0.336900  0.087900  1
  C  C809  1  0.698900  0.694900  0.068800  1
  C  C810  1  0.301100  0.305100  0.931200  1
  C  C811  1  0.622100  0.705500  0.084200  1
  C  C812  1  0.377900  0.294500  0.915800  1
  C  C813  1  0.583900  0.744800  0.060500  1
  C  C814  1  0.416100  0.255200  0.939500  1
  C  C815  1  0.594600  0.667100  0.129100  1
  C  C816  1  0.405400  0.332900  0.870900  1
  C  C817  1  0.566100  0.764300  0.948200  1
  C  C818  1  0.433900  0.235700  0.051800  1
  C  C819  1  0.595300  0.808400  0.925600  1
  C  C820  1  0.404700  0.191600  0.074400  1
  C  C821  1  0.666900  0.806700  0.915900  1
  C  C822  1  0.333100  0.193300  0.084100  1
  C  C823  1  0.690100  0.852500  0.894900  1
  C  C824  1  0.309900  0.147500  0.105100  1
  C  C825  1  0.647100  0.899100  0.881300  1
  C  C826  1  0.352900  0.100900  0.118700  1
  C  C827  1  0.575800  0.900000  0.889900  1
  C  C828  1  0.424200  0.100000  0.110100  1
  C  C829  1  0.551600  0.856400  0.911200  1
  C  C830  1  0.448400  0.143600  0.088800  1
  C  C831  1  0.674700  0.948500  0.857800  1
  C  C832  1  0.325300  0.051500  0.142200  1
  C  C833  1  0.612600  0.631700  0.989300  1
  C  C834  1  0.387400  0.368300  0.010700  1
  C  C835  1  0.587200  0.584300  0.015200  1
  C  C836  1  0.412800  0.415700  0.984800  1
  C  C837  1  0.539300  0.588400  0.053800  1
  C  C838  1  0.460700  0.411600  0.946200  1
  C  C839  1  0.629800  0.532400  0.998500  1
  C  C840  1  0.370200  0.467600  0.001500  1
  C  C841  1  0.361800  0.640400  0.998600  1
  C  C842  1  0.638200  0.359600  0.001400  1
  C  C843  1  0.367600  0.649800  0.946200  1
  C  C844  1  0.632400  0.350200  0.053800  1
  C  C845  1  0.411300  0.680600  0.914300  1
  C  C846  1  0.588700  0.319400  0.085700  1
  C  C847  1  0.408400  0.690200  0.864400  1
  C  C848  1  0.591600  0.309800  0.135600  1
  C  C849  1  0.365800  0.671000  0.848400  1
  C  C850  1  0.634200  0.329000  0.151600  1
  C  C851  1  0.324900  0.639500  0.880600  1
  C  C852  1  0.675100  0.360500  0.119400  1
  C  C853  1  0.324400  0.630000  0.928200  1
  C  C854  1  0.675600  0.370000  0.071800  1
  C  C855  1  0.366200  0.682900  0.796100  1
  C  C856  1  0.633800  0.317100  0.203900  1
  C  C857  1  0.397300  0.692700  0.081400  1
  C  C858  1  0.602700  0.307300  0.918600  1
  C  C859  1  0.375200  0.699400  0.133900  1
  C  C860  1  0.624800  0.300600  0.866100  1
  C  C861  1  0.398400  0.660700  0.166200  1
  C  C862  1  0.601600  0.339300  0.833800  1
  C  C863  1  0.327500  0.750400  0.144900  1
  C  C864  1  0.672500  0.249600  0.855100  1
  C  C865  1  0.165000  0.563000  0.127400  1
  C  C866  1  0.835000  0.437000  0.872600  1
  C  C867  1  0.131700  0.551800  0.180600  1
  C  C868  1  0.868300  0.448200  0.819400  1
  C  C869  1  0.156400  0.604200  0.048700  1
  C  C870  1  0.843600  0.395800  0.951300  1
  C  C871  1  0.051900  0.615600  0.121200  1
  C  C872  1  0.948100  0.384400  0.878800  1
  C  C873  1  0.241200  0.598600  0.347400  1
  C  C874  1  0.758800  0.401400  0.652600  1
  C  C875  1  0.261600  0.650600  0.339800  1
  C  C876  1  0.738400  0.349400  0.660200  1
  C  C877  1  0.146400  0.561900  0.356300  1
  C  C878  1  0.853600  0.438100  0.643700  1
  C  C879  1  0.124100  0.655300  0.371300  1
  C  C880  1  0.875900  0.344700  0.628700  1
  C  C881  1  0.562800  0.305300  0.388400  1
  C  C882  1  0.437200  0.694700  0.611600  1
  C  C883  1  0.502900  0.300200  0.430600  1
  C  C884  1  0.497100  0.699800  0.569400  1
  C  C885  1  0.684900  0.274700  0.359600  1
  C  C886  1  0.315100  0.725300  0.640400  1
  C  C887  1  0.618200  0.239300  0.444800  1
  C  C888  1  0.381800  0.760700  0.555200  1
  C  C889  1  0.801400  0.492600  0.402300  1
  C  C890  1  0.198600  0.507400  0.597700  1
  C  C891  1  0.833900  0.538000  0.367800  1
  C  C892  1  0.166100  0.462000  0.632200  1
  C  C893  1  0.741500  0.449200  0.492400  1
  C  C894  1  0.258500  0.550800  0.507600  1
  C  C895  1  0.780200  0.546300  0.476600  1
  C  C896  1  0.219800  0.453700  0.523400  1
  C  C897  1  0.045500  0.487200  0.113300  1
  C  C898  1  0.954500  0.512800  0.886700  1
  C  C899  1  0.026300  0.514800  0.061400  1
  C  C900  1  0.973700  0.485200  0.938600  1
  C  C901  1  0.120700  0.427900  0.153800  1
  C  C902  1  0.879300  0.572100  0.846200  1
  C  C903  1  0.159200  0.452600  0.061900  1
  C  C904  1  0.840800  0.547400  0.938100  1
  C  C905  1  0.869400  0.783400  0.036100  1
  C  C906  1  0.130600  0.216600  0.963900  1
  C  C907  1  0.936200  0.780500  0.049300  1
  C  C908  1  0.063800  0.219500  0.950700  1
  C  C909  1  0.917400  0.835900  0.959700  1
  C  C910  1  0.082600  0.164100  0.040300  1
  C  C911  1  0.798500  0.817500  0.981200  1
  C  C912  1  0.201500  0.182500  0.018800  1
  C  C913  1  0.681000  0.673700  0.855300  1
  C  C914  1  0.319000  0.326300  0.144700  1
  C  C915  1  0.649400  0.732500  0.830900  1
  C  C916  1  0.350600  0.267500  0.169100  1
  C  C917  1  0.599600  0.646400  0.824500  1
  C  C918  1  0.400400  0.353600  0.175500  1
  C  C919  1  0.686600  0.583000  0.869400  1
  C  C920  1  0.313400  0.417000  0.130600  1
  C  C921  1  0.311100  0.791100  0.958600  1
  C  C922  1  0.688900  0.208900  0.041400  1
  C  C923  1  0.334600  0.815500  0.904800  1
  C  C924  1  0.665400  0.184500  0.095200  1
  C  C925  1  0.229600  0.759400  0.015900  1
  C  C926  1  0.770400  0.240600  0.984100  1
  C  C927  1  0.208800  0.788400  0.934600  1
  C  C928  1  0.791200  0.211600  0.065400  1
  C  C929  1  0.844800  0.719900  0.553800  1
  C  C930  1  0.155200  0.280100  0.446200  1
  C  C931  1  0.890600  0.679600  0.581400  1
  C  C932  1  0.109400  0.320400  0.418600  1
  C  C933  1  0.947500  0.687900  0.592900  1
  C  C934  1  0.052500  0.312100  0.407100  1
  C  C935  1  0.982700  0.646700  0.622300  1
  C  C936  1  0.017300  0.353300  0.377700  1
  C  C937  1  0.965100  0.598700  0.640700  1
  C  C938  1  0.034900  0.401300  0.359300  1
  C  C939  1  0.908800  0.591600  0.627300  1
  C  C940  1  0.091200  0.408400  0.372700  1
  C  C941  1  0.873300  0.630800  0.598000  1
  C  C942  1  0.126700  0.369200  0.402000  1
  C  C943  1  0.003200  0.558300  0.671300  1
  C  C944  1  0.996800  0.441700  0.328700  1
  C  C945  1  0.825800  0.849000  0.503700  1
  C  C946  1  0.174200  0.151000  0.496300  1
  C  C947  1  0.781200  0.893800  0.477100  1
  C  C948  1  0.218800  0.106200  0.522900  1
  C  C949  1  0.789300  0.902400  0.436400  1
  C  C950  1  0.210700  0.097600  0.563600  1
  C  C951  1  0.783600  0.948000  0.488600  1
  C  C952  1  0.216400  0.052000  0.511400  1
  C  C953  1  0.590300  0.833300  0.506300  1
  C  C954  1  0.409700  0.166700  0.493700  1
  C  C955  1  0.564100  0.823000  0.557400  1
  C  C956  1  0.435900  0.177000  0.442600  1
  C  C957  1  0.606200  0.796200  0.590100  1
  C  C958  1  0.393800  0.203800  0.409900  1
  C  C959  1  0.574700  0.784600  0.637700  1
  C  C960  1  0.425300  0.215400  0.362300  1
  C  C961  1  0.506100  0.795700  0.656100  1
  C  C962  1  0.493900  0.204300  0.343900  1
  C  C963  1  0.463200  0.825600  0.624200  1
  C  C964  1  0.536800  0.174400  0.375800  1
  C  C965  1  0.492500  0.838200  0.575800  1
  C  C966  1  0.507500  0.161800  0.424200  1
  C  C967  1  0.472400  0.777700  0.708300  1
  C  C968  1  0.527600  0.222300  0.291700  1
  C  C969  1  0.729500  0.782800  0.419500  1
  C  C970  1  0.270500  0.217200  0.580500  1
  C  C971  1  0.753200  0.778100  0.366900  1
  C  C972  1  0.246800  0.221900  0.633100  1
  C  C973  1  0.770800  0.816800  0.336000  1
  C  C974  1  0.229200  0.183200  0.664000  1
  C  C975  1  0.754200  0.724100  0.358000  1
  C  C976  1  0.245800  0.275900  0.642000  1
  C  C977  1  0.619800  0.858400  0.306600  1
  C  C978  1  0.380200  0.141600  0.693400  1
  C  C979  1  0.590200  0.812900  0.319400  1
  C  C980  1  0.409800  0.187100  0.680600  1
  C  C981  1  0.552400  0.795500  0.365000  1
  C  C982  1  0.447600  0.204500  0.635000  1
  C  C983  1  0.520800  0.754200  0.373000  1
  C  C984  1  0.479200  0.245800  0.627000  1
  C  C985  1  0.525400  0.727400  0.335400  1
  C  C986  1  0.474600  0.272600  0.664600  1
  C  C987  1  0.563400  0.743300  0.290500  1
  C  C988  1  0.436600  0.256700  0.709500  1
  C  C989  1  0.594700  0.783500  0.282700  1
  C  C990  1  0.405300  0.216500  0.717300  1
  C  C991  1  0.491400  0.682500  0.343900  1
  C  C992  1  0.508600  0.317500  0.656100  1
  C  C993  1  0.641900  0.952400  0.360600  1
  C  C994  1  0.358100  0.047600  0.639400  1
  C  C995  1  0.670300  0.998200  0.352300  1
  C  C996  1  0.329700  0.001800  0.647700  1
  C  C997  1  0.729000  0.002300  0.323000  1
  C  C998  1  0.271000  0.997700  0.677000  1
  C  C999  1  0.633700  0.037500  0.382800  1
  C  C1000  1  0.366300  0.962500  0.617200  1
  C  C1001  1  0.693000  0.051700  0.205000  1
  C  C1002  1  0.307000  0.948300  0.795000  1
  C  C1003  1  0.617700  0.067400  0.212100  1
  C  C1004  1  0.382300  0.932600  0.787900  1
  C  C1005  1  0.575600  0.033100  0.223300  1
  C  C1006  1  0.424400  0.966900  0.776700  1
  C  C1007  1  0.504800  0.054000  0.225100  1
  C  C1008  1  0.495200  0.946000  0.774900  1
  C  C1009  1  0.476000  0.106500  0.217700  1
  C  C1010  1  0.524000  0.893500  0.782300  1
  C  C1011  1  0.520900  0.140800  0.206600  1
  C  C1012  1  0.479100  0.859200  0.793400  1
  C  C1013  1  0.589800  0.120900  0.204100  1
  C  C1014  1  0.410200  0.879100  0.795900  1
  C  C1015  1  0.399300  0.127600  0.222800  1
  C  C1016  1  0.600700  0.872400  0.777200  1
  C  C1017  1  0.818300  0.938800  0.218200  1
  C  C1018  1  0.181700  0.061200  0.781800  1
  C  C1019  1  0.894100  0.917500  0.212700  1
  C  C1020  1  0.105900  0.082500  0.787300  1
  C  C1021  1  0.938700  0.929800  0.172700  1
  C  C1022  1  0.061300  0.070200  0.827300  1
  C  C1023  1  0.914100  0.880500  0.256900  1
  C  C1024  1  0.085900  0.119500  0.743100  1
  C  C1025  1  0.975500  0.057600  0.114000  1
  C  C1026  1  0.024500  0.942400  0.886000  1
  C  C1027  1  0.948600  0.064400  0.070500  1
  C  C1028  1  0.051400  0.935600  0.929500  1
  C  C1029  1  0.878500  0.070600  0.072500  1
  C  C1030  1  0.121500  0.929400  0.927500  1
  C  C1031  1  0.861300  0.079100  0.026900  1
  C  C1032  1  0.138700  0.920900  0.973100  1
  C  C1033  1  0.906800  0.079400  0.984500  1
  C  C1034  1  0.093200  0.920600  0.015500  1
  C  C1035  1  0.977700  0.070300  0.984500  1
  C  C1036  1  0.022300  0.929700  0.015500  1
  C  C1037  1  0.996800  0.063600  0.027200  1
  C  C1038  1  0.003200  0.936400  0.972800  1
  C  C1039  1  0.885900  0.086100  0.938100  1
  C  C1040  1  0.114100  0.913900  0.061900  1
  C  C1041  1  0.917100  0.052800  0.235700  1
  C  C1042  1  0.082900  0.947200  0.764300  1
  C  C1043  1  0.937300  0.047000  0.281300  1
  C  C1044  1  0.062700  0.953000  0.718700  1
  C  C1045  1  0.978600  0.075800  0.283500  1
  C  C1046  1  0.021400  0.924200  0.716500  1
  C  C1047  1  0.911200  0.009600  0.324100  1
  C  C1048  1  0.088800  0.990400  0.675900  1
  C  C1049  1  0.158900  0.041500  0.233800  1
  C  C1050  1  0.841100  0.958500  0.766200  1
  C  C1051  1  0.153600  0.098500  0.217400  1
  C  C1052  1  0.846400  0.901500  0.782600  1
  C  C1053  1  0.114500  0.128300  0.184100  1
  C  C1054  1  0.885500  0.871700  0.815900  1
  C  C1055  1  0.113200  0.183000  0.173000  1
  C  C1056  1  0.886800  0.817000  0.827000  1
  C  C1057  1  0.145600  0.207600  0.191700  1
  C  C1058  1  0.854400  0.792400  0.808300  1
  C  C1059  1  0.185400  0.177300  0.225300  1
  C  C1060  1  0.814600  0.822700  0.774700  1
  C  C1061  1  0.187900  0.124400  0.237400  1
  C  C1062  1  0.812100  0.875600  0.762600  1
  C  C1063  1  0.143000  0.266500  0.177700  1
  C  C1064  1  0.857000  0.733500  0.822300  1
  C  C1065  1  0.111100  0.939000  0.213600  1
  C  C1066  1  0.888900  0.061000  0.786400  1
  C  C1067  1  0.120200  0.879600  0.225900  1
  C  C1068  1  0.879800  0.120400  0.774100  1
  C  C1069  1  0.093500  0.859200  0.271000  1
  C  C1070  1  0.906500  0.140800  0.729000  1
  C  C1071  1  0.158200  0.848400  0.186600  1
  C  C1072  1  0.841800  0.151600  0.813400  1
  C  C1073  1  0.231500  0.827600  0.328200  1
  C  C1074  1  0.768500  0.172400  0.671800  1
  C  C1075  1  0.292200  0.820300  0.288300  1
  C  C1076  1  0.707800  0.179700  0.711700  1
  C  C1077  1  0.308800  0.860300  0.250100  1
  C  C1078  1  0.691200  0.139700  0.749900  1
  C  C1079  1  0.369800  0.848900  0.213900  1
  C  C1080  1  0.630200  0.151100  0.786100  1
  C  C1081  1  0.412300  0.798800  0.214100  1
  C  C1082  1  0.587700  0.201200  0.785900  1
  C  C1083  1  0.395800  0.758700  0.253300  1
  C  C1084  1  0.604200  0.241300  0.746700  1
  C  C1085  1  0.337000  0.769300  0.289300  1
  C  C1086  1  0.663000  0.230700  0.710700  1
  C  C1087  1  0.475100  0.788200  0.173100  1
  C  C1088  1  0.524900  0.211800  0.826900  1
  C  C1089  1  0.100100  0.926200  0.374200  1
  C  C1090  1  0.899900  0.073800  0.625800  1
  C  C1091  1  0.037100  0.937800  0.413100  1
  C  C1092  1  0.962900  0.062200  0.586900  1
  C  C1093  1  0.989400  0.911300  0.421600  1
  C  C1094  1  0.010600  0.088700  0.578400  1
  C  C1095  1  0.032300  0.982300  0.439900  1
  C  C1096  1  0.967700  0.017700  0.560100  1
  C  C1097  1  0.059400  0.828000  0.512000  1
  C  C1098  1  0.940600  0.172000  0.488000  1
  C  C1099  1  0.111100  0.851700  0.516600  1
  C  C1100  1  0.888900  0.148300  0.483400  1
  C  C1101  1  0.178200  0.844200  0.485400  1
  C  C1102  1  0.821800  0.155800  0.514600  1
  C  C1103  1  0.233700  0.855200  0.500900  1
  C  C1104  1  0.766300  0.144800  0.499100  1
  C  C1105  1  0.216300  0.880600  0.541800  1
  C  C1106  1  0.783700  0.119400  0.458200  1
  C  C1107  1  0.146800  0.895200  0.566900  1
  C  C1108  1  0.853200  0.104800  0.433100  1
  C  C1109  1  0.096000  0.883600  0.552100  1
  C  C1110  1  0.904000  0.116400  0.447900  1
  C  C1111  1  0.273200  0.895100  0.555800  1
  C  C1112  1  0.726800  0.104900  0.444200  1
  C  C1113  1  0.023200  0.771500  0.432400  1
  C  C1114  1  0.976800  0.228500  0.567600  1
  C  C1115  1  0.967500  0.754000  0.421100  1
  C  C1116  1  0.032500  0.246000  0.578900  1
  C  C1117  1  0.944300  0.714800  0.446100  1
  C  C1118  1  0.055700  0.285200  0.553900  1
  C  C1119  1  0.944500  0.784600  0.376600  1
  C  C1120  1  0.055500  0.215400  0.623400  1
  C  C1121  1  0.815300  0.846200  0.630100  1
  C  C1122  1  0.184700  0.153800  0.369900  1
  C  C1123  1  0.748300  0.827400  0.645800  1
  C  C1124  1  0.251700  0.172600  0.354200  1
  C  C1125  1  0.865000  0.920000  0.614200  1
  C  C1126  1  0.135000  0.080000  0.385800  1
  C  C1127  1  0.733300  0.929000  0.648800  1
  C  C1128  1  0.266700  0.071000  0.351200  1
  C  C1129  1  0.456000  0.971300  0.419500  1
  C  C1130  1  0.544000  0.028700  0.580500  1
  C  C1131  1  0.431300  0.974400  0.477200  1
  C  C1132  1  0.568700  0.025600  0.522800  1
  C  C1133  1  0.423600  0.067600  0.409200  1
  C  C1134  1  0.576400  0.932400  0.590800  1
  C  C1135  1  0.465900  0.013300  0.341900  1
  C  C1136  1  0.534100  0.986700  0.658100  1
  C  C1137  1  0.712200  0.862300  0.164200  1
  C  C1138  1  0.287800  0.137700  0.835800  1
  C  C1139  1  0.778000  0.821900  0.168200  1
  C  C1140  1  0.222000  0.178100  0.831800  1
  C  C1141  1  0.674000  0.792200  0.144800  1
  C  C1142  1  0.326000  0.207800  0.855200  1
  C  C1143  1  0.597600  0.885600  0.153200  1
  C  C1144  1  0.402400  0.114400  0.846800  1
  C  C1145  1  0.826900  0.177700  0.197800  1
  C  C1146  1  0.173100  0.822300  0.802200  1
  C  C1147  1  0.772600  0.179600  0.247800  1
  C  C1148  1  0.227400  0.820400  0.752200  1
  C  C1149  1  0.884300  0.232300  0.228400  1
  C  C1150  1  0.115700  0.767700  0.771600  1
  C  C1151  1  0.928100  0.194900  0.148500  1
  C  C1152  1  0.071900  0.805100  0.851500  1
  C  C1153  1  0.335500  0.922300  0.328000  1
  C  C1154  1  0.664500  0.077700  0.672000  1
  C  C1155  1  0.350900  0.874200  0.367600  1
  C  C1156  1  0.649100  0.125800  0.632400  1
  C  C1157  1  0.457200  0.898000  0.287900  1
  C  C1158  1  0.542800  0.102000  0.712100  1
  C  C1159  1  0.372200  0.972100  0.252600  1
  C  C1160  1  0.627800  0.027900  0.747400  1
  C  C1161  1  0.199900  0.697800  0.484800  1
  C  C1162  1  0.800100  0.302200  0.515200  1
  C  C1163  1  0.139600  0.683600  0.532500  1
  C  C1164  1  0.860400  0.316400  0.467500  1
  C  C1165  1  0.272200  0.681400  0.540700  1
  C  C1166  1  0.727800  0.318600  0.459300  1
  C  C1167  1  0.311300  0.703300  0.447000  1
  C  C1168  1  0.688700  0.296700  0.553000  1
  C  C1169  1  0.461500  0.913800  0.062200  1
  C  C1170  1  0.538500  0.086200  0.937800  1
  C  C1171  1  0.453500  0.867800  0.045500  1
  C  C1172  1  0.546500  0.132200  0.954500  1
  C  C1173  1  0.581000  0.902700  0.013900  1
  C  C1174  1  0.419000  0.097300  0.986100  1
  C  C1175  1  0.526700  0.974100  0.058600  1
  C  C1176  1  0.473300  0.025900  0.941400  1
  C  C1177  1  0.215300  0.024200  0.972000  1
  C  C1178  1  0.784700  0.975800  0.028000  1
  C  C1179  1  0.182500  0.048200  0.932000  1
  C  C1180  1  0.817500  0.951800  0.068000  1
  C  C1181  1  0.302100  0.974400  0.912000  1
  C  C1182  1  0.697900  0.025600  0.088000  1
  C  C1183  1  0.305400  0.964700  0.003500  1
  C  C1184  1  0.694600  0.035300  0.996500  1
  N  N1185  1  0.302900  0.586000  0.164000  1
  N  N1186  1  0.697100  0.414000  0.836000  1
  N  N1187  1  0.357300  0.543800  0.178300  1
  N  N1188  1  0.642700  0.456200  0.821700  1
  N  N1189  1  0.392800  0.475100  0.293500  1
  N  N1190  1  0.607200  0.524900  0.706500  1
  N  N1191  1  0.450200  0.487700  0.302300  1
  N  N1192  1  0.549800  0.512300  0.697700  1
  N  N1193  1  0.600200  0.424100  0.351300  1
  N  N1194  1  0.399800  0.575900  0.648700  1
  N  N1195  1  0.658600  0.427000  0.312100  1
  N  N1196  1  0.341400  0.573000  0.687900  1
  N  N1197  1  0.816500  0.455200  0.281000  1
  N  N1198  1  0.183500  0.544800  0.719000  1
  N  N1199  1  0.803500  0.507500  0.256300  1
  N  N1200  1  0.196500  0.492500  0.743700  1
  N  N1201  1  0.872500  0.586300  0.157600  1
  N  N1202  1  0.127500  0.413700  0.842400  1
  N  N1203  1  0.847000  0.586900  0.117500  1
  N  N1204  1  0.153000  0.413100  0.882500  1
  N  N1205  1  0.802300  0.680000  0.018200  1
  N  N1206  1  0.197700  0.320000  0.981800  1
  N  N1207  1  0.728300  0.693700  0.023700  1
  N  N1208  1  0.271700  0.306300  0.976300  1
  N  N1209  1  0.604300  0.716100  0.958500  1
  N  N1210  1  0.395700  0.283900  0.041500  1
  N  N1211  1  0.567500  0.676300  0.980300  1
  N  N1212  1  0.432500  0.323700  0.019700  1
  N  N1213  1  0.394100  0.664000  0.016800  1
  N  N1214  1  0.605900  0.336000  0.983200  1
  N  N1215  1  0.375300  0.658400  0.068100  1
  N  N1216  1  0.624700  0.341600  0.931900  1
  N  N1217  1  0.124800  0.591000  0.101800  1
  N  N1218  1  0.875200  0.409000  0.898200  1
  N  N1219  1  0.176500  0.607600  0.357700  1
  N  N1220  1  0.823500  0.392400  0.642300  1
  N  N1221  1  0.621200  0.270000  0.396300  1
  N  N1222  1  0.378800  0.730000  0.603700  1
  N  N1223  1  0.781400  0.495800  0.454200  1
  N  N1224  1  0.218600  0.504200  0.545800  1
  N  N1225  1  0.105600  0.456300  0.106700  1
  N  N1226  1  0.894400  0.543700  0.893300  1
  N  N1227  1  0.864100  0.811900  0.995600  1
  N  N1228  1  0.135900  0.188100  0.004400  1
  N  N1229  1  0.656700  0.640700  0.848200  1
  N  N1230  1  0.343300  0.359300  0.151800  1
  N  N1231  1  0.252000  0.784600  0.964600  1
  N  N1232  1  0.748000  0.215400  0.035400  1
  N  N1233  1  0.857300  0.768200  0.541100  1
  N  N1234  1  0.142700  0.231800  0.458900  1
  N  N1235  1  0.807400  0.804900  0.516700  1
  N  N1236  1  0.192600  0.195100  0.483300  1
  N  N1237  1  0.654400  0.809300  0.486000  1
  N  N1238  1  0.345600  0.190700  0.514000  1
  N  N1239  1  0.669900  0.816300  0.435300  1
  N  N1240  1  0.330100  0.183700  0.564700  1
  N  N1241  1  0.615800  0.885600  0.340900  1
  N  N1242  1  0.384200  0.114400  0.659100  1
  N  N1243  1  0.645900  0.929800  0.323600  1
  N  N1244  1  0.354100  0.070200  0.676400  1
  N  N1245  1  0.721900  0.998200  0.211000  1
  N  N1246  1  0.278100  0.001800  0.789000  1
  N  N1247  1  0.795800  0.988300  0.201600  1
  N  N1248  1  0.204200  0.011700  0.798400  1
  N  N1249  1  0.930400  0.057400  0.157400  1
  N  N1250  1  0.069600  0.942600  0.842600  1
  N  N1251  1  0.962600  0.051200  0.195200  1
  N  N1252  1  0.037400  0.948800  0.804800  1
  N  N1253  1  0.124000  0.016500  0.218400  1
  N  N1254  1  0.876000  0.983500  0.781600  1
  N  N1255  1  0.133100  0.962200  0.238200  1
  N  N1256  1  0.866900  0.037800  0.761800  1
  N  N1257  1  0.189900  0.875800  0.331000  1
  N  N1258  1  0.810100  0.124200  0.669000  1
  N  N1259  1  0.132500  0.876900  0.371800  1
  N  N1260  1  0.867500  0.123100  0.628200  1
  N  N1261  1  0.070900  0.804100  0.474400  1
  N  N1262  1  0.929100  0.195900  0.525600  1
  N  N1263  1  0.012800  0.784100  0.474100  1
  N  N1264  1  0.987200  0.215900  0.525900  1
  N  N1265  1  0.802300  0.896100  0.630400  1
  N  N1266  1  0.197700  0.103900  0.369600  1
  N  N1267  1  0.449800  0.014100  0.393200  1
  N  N1268  1  0.550200  0.985900  0.606800  1
  N  N1269  1  0.672200  0.844200  0.154600  1
  N  N1270  1  0.327800  0.155800  0.845400  1
  N  N1271  1  0.873800  0.201300  0.196100  1
  N  N1272  1  0.126200  0.798700  0.803900  1
  N  N1273  1  0.385000  0.930000  0.293000  1
  N  N1274  1  0.615000  0.070000  0.707000  1
  N  N1275  1  0.254600  0.690500  0.492300  1
  N  N1276  1  0.745400  0.309500  0.507700  1
  N  N1277  1  0.521000  0.928400  0.045900  1
  N  N1278  1  0.479000  0.071600  0.954100  1
  N  N1279  1  0.271200  0.992100  0.959600  1
  N  N1280  1  0.728800  0.007900  0.040400  1
  O  O1281  1  0.267300  0.596600  0.243200  1
  O  O1282  1  0.732700  0.403400  0.756800  1
  O  O1283  1  0.229000  0.656700  0.103900  1
  O  O1284  1  0.771000  0.343300  0.896100  1
  O  O1285  1  0.381000  0.541200  0.097300  1
  O  O1286  1  0.619000  0.458800  0.902700  1
  O  O1287  1  0.446000  0.391100  0.319100  1
  O  O1288  1  0.554000  0.608900  0.680900  1
  O  O1289  1  0.277100  0.487900  0.264300  1
  O  O1290  1  0.722900  0.512100  0.735700  1
  O  O1291  1  0.403000  0.567100  0.262500  1
  O  O1292  1  0.597000  0.432900  0.737500  1
  O  O1293  1  0.668200  0.434200  0.395400  1
  O  O1294  1  0.331800  0.565800  0.604600  1
  O  O1295  1  0.467700  0.424900  0.396000  1
  O  O1296  1  0.532300  0.575100  0.604000  1
  O  O1297  1  0.583300  0.418900  0.270900  1
  O  O1298  1  0.416700  0.581100  0.729100  1
  O  O1299  1  0.918800  0.443800  0.225100  1
  O  O1300  1  0.081200  0.556200  0.774900  1
  O  O1301  1  0.788700  0.368400  0.343400  1
  O  O1302  1  0.211300  0.631600  0.656600  1
  O  O1303  1  0.711600  0.515600  0.322400  1
  O  O1304  1  0.288400  0.484400  0.677600  1
  O  O1305  1  0.852900  0.675800  0.137100  1
  O  O1306  1  0.147100  0.324200  0.862900  1
  O  O1307  1  0.933700  0.544200  0.232300  1
  O  O1308  1  0.066300  0.455800  0.767700  1
  O  O1309  1  0.859600  0.499400  0.148800  1
  O  O1310  1  0.140400  0.500600  0.851200  1
  O  O1311  1  0.805900  0.669700  0.942100  1
  O  O1312  1  0.194100  0.330300  0.057900  1
  O  O1313  1  0.923800  0.663100  0.042200  1
  O  O1314  1  0.076200  0.336900  0.957800  1
  O  O1315  1  0.733400  0.685000  0.102800  1
  O  O1316  1  0.266600  0.315000  0.897200  1
  O  O1317  1  0.498500  0.772100  0.960200  1
  O  O1318  1  0.501500  0.227900  0.039800  1
  O  O1319  1  0.713300  0.763200  0.927500  1
  O  O1320  1  0.286700  0.236800  0.072500  1
  O  O1321  1  0.679200  0.627900  0.978000  1
  O  O1322  1  0.320800  0.372100  0.022000  1
  O  O1323  1  0.320600  0.610600  0.026200  1
  O  O1324  1  0.679400  0.389400  0.973800  1
  O  O1325  1  0.455300  0.700800  0.925700  1
  O  O1326  1  0.544700  0.299200  0.074300  1
  O  O1327  1  0.434000  0.723600  0.052100  1
  O  O1328  1  0.566000  0.276400  0.947900  1
  O  O1329  1  0.229100  0.548500  0.106400  1
  O  O1330  1  0.770900  0.451500  0.893600  1
  O  O1331  1  0.275400  0.554100  0.336800  1
  O  O1332  1  0.724600  0.445900  0.663200  1
  O  O1333  1  0.560600  0.329000  0.347900  1
  O  O1334  1  0.439400  0.671000  0.652100  1
  O  O1335  1  0.796300  0.449900  0.392100  1
  O  O1336  1  0.203700  0.550100  0.607900  1
  O  O1337  1  0.002500  0.494300  0.148500  1
  O  O1338  1  0.997500  0.505700  0.851500  1
  O  O1339  1  0.822900  0.763500  0.061800  1
  O  O1340  1  0.177100  0.236500  0.938200  1
  O  O1341  1  0.722900  0.669000  0.878000  1
  O  O1342  1  0.277100  0.331000  0.122000  1
  O  O1343  1  0.351800  0.780300  0.983900  1
  O  O1344  1  0.648200  0.219700  0.016100  1
  O  O1345  1  0.795900  0.707900  0.543600  1
  O  O1346  1  0.204100  0.292100  0.456400  1
  O  O1347  1  0.970600  0.732000  0.576800  1
  O  O1348  1  0.029400  0.268000  0.423200  1
  O  O1349  1  0.878400  0.857700  0.512400  1
  O  O1350  1  0.121600  0.142300  0.487600  1
  O  O1351  1  0.549200  0.863100  0.480100  1
  O  O1352  1  0.450800  0.136900  0.519900  1
  O  O1353  1  0.675100  0.780700  0.576100  1
  O  O1354  1  0.324900  0.219300  0.423900  1
  O  O1355  1  0.766700  0.753500  0.449300  1
  O  O1356  1  0.233300  0.246500  0.550700  1
  O  O1357  1  0.649500  0.872700  0.262200  1
  O  O1358  1  0.350500  0.127300  0.737800  1
  O  O1359  1  0.544100  0.818100  0.404100  1
  O  O1360  1  0.455900  0.181900  0.595900  1
  O  O1361  1  0.614000  0.934500  0.404200  1
  O  O1362  1  0.386000  0.065500  0.595800  1
  O  O1363  1  0.730000  0.085300  0.195800  1
  O  O1364  1  0.270000  0.914700  0.804200  1
  O  O1365  1  0.594600  0.981000  0.233100  1
  O  O1366  1  0.405400  0.019000  0.766900  1
  O  O1367  1  0.776700  0.907300  0.240800  1
  O  O1368  1  0.223300  0.092700  0.759200  1
  O  O1369  1  0.039500  0.052000  0.109500  1
  O  O1370  1  0.960500  0.948000  0.890500  1
  O  O1371  1  0.828100  0.071200  0.112600  1
  O  O1372  1  0.171900  0.928800  0.887400  1
  O  O1373  1  0.851100  0.057000  0.238500  1
  O  O1374  1  0.148900  0.943000  0.761500  1
  O  O1375  1  0.197900  0.017500  0.263700  1
  O  O1376  1  0.802100  0.982500  0.736300  1
  O  O1377  1  0.079400  0.108800  0.164100  1
  O  O1378  1  0.920600  0.891200  0.835900  1
  O  O1379  1  0.086200  0.962800  0.175900  1
  O  O1380  1  0.913800  0.037200  0.824100  1
  O  O1381  1  0.218200  0.787600  0.359800  1
  O  O1382  1  0.781800  0.212400  0.640200  1
  O  O1383  1  0.269600  0.909900  0.245200  1
  O  O1384  1  0.730400  0.090100  0.754800  1
  O  O1385  1  0.120300  0.965500  0.343300  1
  O  O1386  1  0.879700  0.034500  0.656700  1
  O  O1387  1  0.003000  0.831800  0.545200  1
  O  O1388  1  0.997000  0.168200  0.454800  1
  O  O1389  1  0.199900  0.816600  0.449700  1
  O  O1390  1  0.800100  0.183400  0.550300  1
  O  O1391  1  0.078300  0.777500  0.397100  1
  O  O1392  1  0.921700  0.222500  0.602900  1
  O  O1393  1  0.874800  0.823900  0.615400  1
  O  O1394  1  0.125200  0.176100  0.384600  1
  O  O1395  1  0.679700  0.692300  0.523800  1
  O  O1396  1  0.320300  0.307700  0.476200  1
  O  O1397  1  0.473400  0.928100  0.408500  1
  O  O1398  1  0.526600  0.071900  0.591500  1
  O  O1399  1  0.702300  0.910700  0.169100  1
  O  O1400  1  0.297700  0.089300  0.830900  1
  O  O1401  1  0.822800  0.153900  0.169900  1
  O  O1402  1  0.177200  0.846100  0.830100  1
  O  O1403  1  0.181300  0.025300  0.111100  1
  O  O1404  1  0.818700  0.974700  0.888900  1
  O  O1405  1  0.275800  0.949100  0.330900  1
  O  O1406  1  0.724200  0.050900  0.669100  1
  O  O1407  1  0.186600  0.712500  0.444300  1
  O  O1408  1  0.813400  0.287500  0.555700  1
  O  O1409  1  0.411300  0.938000  0.089800  1
  O  O1410  1  0.588700  0.062000  0.910200  1
  O  O1411  1  0.192000  0.034900  0.013200  1
  O  O1412  1  0.808000  0.965100  0.986800  1
  O  O1413  1  0.273000  0.938900  0.140400  1
  O  O1414  1  0.727000  0.061100  0.859600  1
  O  O1415  1  0.328800  0.484000  0.409000  1
  O  O1416  1  0.671200  0.516000  0.591000  1
  O  O1417  1  0.724700  0.598600  0.579500  1
  O  O1418  1  0.275300  0.401400  0.420500  1
  O  O1419  1  0.971000  0.522000  0.466100  1
  O  O1420  1  0.029000  0.478000  0.533900  1
