
#######################################################################
#
#                 Cambridge Crystallographic Data Centre
#                                CCDC 
#
#######################################################################
#
# If this CIF has been generated from an entry in the Cambridge 
# Structural Database, then it will include bibliographic, chemical, 
# crystal, experimental, refinement or atomic coordinate data resulting 
# from the CCDC's data processing and validation procedures.
#
#######################################################################

data_KAXNED
_chemical_formula_moiety         
'C228 H240 N36 Zn4 8+,8(B1 F4 1-),11(C1 H2 Cl2)'
_chemical_name_systematic        
"hexakis(\m~2~-1,1'-(1,2-Phenylenebis(methylene))bis(3-(10,10-dimethyl-4-azatricyclo(7.1.1.0^2,7^)undeca-2,4,6-trien-5-yl)-1H-pyrazole)-N,N',N'',N''')-tetra-zinc(ii) octakis(tetrafluoroborate) dichloromethane solvate"
_symmetry_cell_setting           monoclinic
_symmetry_space_group_name_H-M   'C 2'
_symmetry_Int_Tables_number      5
_space_group_name_Hall           'C 2y'
loop_
_symmetry_equiv_pos_site_id
_symmetry_equiv_pos_as_xyz
1 x,y,z
2 -x,y,-z
3 1/2+x,1/2+y,z
4 1/2-x,1/2+y,-z
_cell_length_a                   32.3394(5)
_cell_length_b                   22.8698(4)
_cell_length_c                   22.8658(6)
_cell_angle_alpha                90
_cell_angle_beta                 134.9860(10)
_cell_angle_gamma                90
_cell_volume                     11961.1
_exptl_crystal_colour            colorless
_exptl_crystal_description       block
_cell_formula_units_Z            2
loop_
_atom_site_label
_atom_site_type_symbol
_atom_site_fract_x
_atom_site_fract_y
_atom_site_fract_z
Zn1 Zn 0.15230(4) 0.65225(4) 0.00008(6)
Zn2 Zn 0.15227(4) 0.34756(4) 0.30454(6)
C1 C 0.2088(4) 0.6437(5) -0.1834(6)
H1 H 0.250(5) 0.648(5) -0.131(7)
C2 C 0.1937(4) 0.5917(5) -0.2400(6)
C3 C 0.1745(4) 0.5342(5) -0.2322(7)
H2 H 0.1517 0.5418 -0.2206
H3 H 0.2084 0.5116 -0.1880
H4 H 0.1514 0.5128 -0.2831
C4 C 0.2450(5) 0.5808(6) -0.2309(8)
H5 H 0.2358 0.5485 -0.2653
H6 H 0.2796 0.5719 -0.1743
H7 H 0.2516 0.6151 -0.2475
C5 C 0.1865(5) 0.6837(5) -0.2551(7)
H8 H 0.2163 0.6948 -0.2534
H9 H 0.1646 0.7174 -0.2636
C6 C 0.1478(4) 0.6312(5) -0.3136(7)
H10 H 0.143(5) 0.627(6) -0.361(8)
C7 C 0.0897(4) 0.6310(5) -0.3353(6)
H11 H 0.0634 0.6609 -0.3762
H12 H 0.0704 0.5934 -0.3585
N1 N 0.1353(2) 0.6561(3) -0.1079(4)
C8 C 0.0782(3) 0.6547(4) -0.1828(5)
C9 C 0.0629(3) 0.6465(4) -0.2549(5)
H13 H 0.0236 0.6435 -0.3041
C10 C 0.1038(4) 0.6428(4) -0.2562(6)
C11 C 0.1641(3) 0.6476(4) -0.1797(5)
C12 C 0.1767(3) 0.6522(4) -0.1097(5)
H14 H 0.2158 0.6527 -0.0596
N2 N 0.0537(2) 0.6566(3) -0.1045(4)
C13 C 0.0362(3) 0.6599(4) -0.1770(5)
C14 C -0.0251(3) 0.6699(4) -0.2415(6)
H15 H -0.0482 0.6733 -0.2979
C15 C -0.0424(4) 0.6734(4) -0.2019(6)
H16 H -0.0803 0.6807 -0.2268
N3 N 0.0055(3) 0.6642(3) -0.1188(4)
C16 C 0.0066(3) 0.6614(3) -0.0553(5)
H17 H 0.0421 0.6417 -0.0078
H18 H -0.0261 0.6377 -0.0750
C17 C 0.0036(3) 0.7198(3) -0.0275(6)
C18 C 0.0046(4) 0.7729(4) -0.0567(6)
H19 H 0.0079 0.7735 -0.0939
C19 C 0.0007(5) 0.8240(4) -0.0297(8)
H20 H -0.0012 0.8593 -0.0516
C20 C 0.3924(4) 0.7092(5) 0.2483(6)
H21 H 0.381(5) 0.750(5) 0.233(7)
C21 C 0.4338(4) 0.6926(5) 0.3419(6)
C22 C 0.4068(5) 0.6751(5) 0.3722(7)
H22 H 0.3724 0.6522 0.3307
H23 H 0.3964 0.7096 0.3834
H24 H 0.4343 0.6525 0.4220
C23 C 0.4766(5) 0.7437(6) 0.3958(7)
H25 H 0.4551 0.7776 0.3865
H26 H 0.4974 0.7524 0.3812
H27 H 0.5039 0.7328 0.4530
C24 C 0.4430(5) 0.6859(6) 0.2586(8)
H28 H 0.4298 0.6638 0.2117
H29 H 0.4717 0.7152 0.2765
C25 C 0.4606(4) 0.6480(6) 0.3290(6)
H30 H 0.503(6) 0.643(6) 0.376(8)
C26 C 0.4250(4) 0.5902(5) 0.2934(6)
H31 H 0.4395 0.5644 0.2773
H32 H 0.4293 0.5706 0.3350
N4 N 0.2435(3) 0.6349(3) 0.0876(4)
C27 C 0.2593(3) 0.5786(4) 0.1044(5)
C28 C 0.3174(3) 0.5609(4) 0.1713(6)
H33 H 0.3270 0.5215 0.1844
C29 C 0.3607(4) 0.6046(4) 0.2181(6)
C30 C 0.3441(3) 0.6635(4) 0.1963(5)
C31 C 0.2862(3) 0.6766(4) 0.1346(5)
H34 H 0.2751 0.7157 0.1238
N5 N 0.1575(3) 0.5544(3) 0.0003(4)
C32 C 0.2130(3) 0.5353(4) 0.0528(5)
C33 C 0.2158(4) 0.4751(4) 0.0455(6)
H35 H 0.2492 0.4523 0.0750
C34 C 0.1599(4) 0.4571(4) -0.0132(6)
H36 H 0.1475 0.4190 -0.0323
N6 N 0.1241(3) 0.5049(3) -0.0403(4)
C35 C 0.0610(3) 0.5065(4) -0.1009(5)
H37 H 0.0493 0.5426 -0.0936
H38 H 0.0477 0.4744 -0.0899
C36 C 0.0305(3) 0.5028(4) -0.1895(5)
C37 C 0.0604(4) 0.5043(5) -0.2128(6)
H39 H 0.1009 0.5069 -0.1727
C38 C 0.0300(4) 0.5022(6) -0.2942(6)
H40 H 0.0501 0.5029 -0.3094
C39 C 0.1448(4) 0.8919(4) -0.0642(7)
H41 H 0.149(5) 0.881(5) -0.101(8)
C40 C 0.0925(4) 0.9335(4) -0.1000(7)
C41 C 0.0812(5) 0.9752(5) -0.1634(8)
H42 H 0.1135 1.0018 -0.1350
H43 H 0.0459 0.9969 -0.1917
H44 H 0.0772 0.9528 -0.2027
C42 C 0.0348(4) 0.9065(5) -0.1407(6)
H45 H 0.0417 0.8711 -0.1125
H46 H 0.0127 0.8979 -0.1975
H47 H 0.0133 0.9335 -0.1382
C43 C 0.1846(5) 0.9419(5) -0.0013(8)
H48 H 0.1959 0.9702 -0.0195
H49 H 0.2181 0.9285 0.0545
C44 C 0.1312(5) 0.9611(4) -0.0163(8)
H50 H 0.126(5) 1.003(6) -0.016(7)
C45 C 0.1324(5) 0.9254(4) 0.0428(7)
H51 H 0.1635 0.9398 0.0989
H52 H 0.0956 0.9300 0.0265
N7 N 0.1564(3) 0.7436(3) 0.0206(4)
C46 C 0.1551(3) 0.7599(4) 0.0775(5)
C47 C 0.1469(4) 0.8185(4) 0.0845(6)
H53 H 0.1443 0.8288 0.1212
C48 C 0.1428(4) 0.8602(4) 0.0391(6)
C49 C 0.1480(3) 0.8439(4) -0.0162(6)
C50 C 0.1521(3) 0.7858(4) -0.0254(5)
H54 H 0.1519 0.7746 -0.0647
N8 N 0.1566(2) 0.6569(3) 0.1034(4)
C51 C 0.1589(3) 0.7127(4) 0.1233(5)
C52 C 0.1700(4) 0.7156(5) 0.1954(6)
H55 H 0.1742 0.7489 0.2225
C53 C 0.1731(3) 0.6594(5) 0.2156(5)
H56 H 0.1800 0.6465 0.2604
N9 N 0.1647(3) 0.6242(3) 0.1595(4)
C54 C 0.1620(3) 0.5611(4) 0.1554(5)
H57 H 0.1425 0.5494 0.1001
H58 H 0.1380 0.5480 0.1638
C55 C 0.2197(3) 0.5301(4) 0.2162(5)
C56 C 0.2720(4) 0.5610(4) 0.2679(6)
H59 H 0.2722 0.6016 0.2664
C57 C 0.3235(4) 0.5298(5) 0.3214(6)
H60 H 0.3588 0.5500 0.3556
C58 C 0.3243(4) 0.4703(5) 0.3258(7)
H61 H 0.3598 0.4505 0.3614
C59 C 0.2726(3) 0.4391(4) 0.2777(6)
H62 H 0.2729 0.3986 0.2818
C60 C 0.2196(3) 0.4700(4) 0.2226(5)
N10 N 0.1567(2) 0.3427(3) 0.2109(4)
C61 C 0.1602(3) 0.2862(4) 0.1961(5)
C62 C 0.1700(4) 0.2839(4) 0.1456(6)
H63 H 0.1734 0.2505 0.1262
C63 C 0.1733(3) 0.3402(4) 0.1305(6)
H64 H 0.1803 0.3527 0.0994
N11 N 0.1645(3) 0.3752(3) 0.1701(4)
C64 C 0.1616(3) 0.4385(4) 0.1681(5)
H65 H 0.1420 0.4505 0.1842
H66 H 0.1375 0.4512 0.1115
N12 N 0.1557(3) 0.2566(3) 0.2904(4)
C65 C 0.1547(3) 0.2396(4) 0.2338(5)
C66 C 0.1475(4) 0.1815(4) 0.2103(6)
H67 H 0.1464 0.1716 0.1697
C67 C 0.1420(4) 0.1391(4) 0.2457(7)
C68 C 0.1482(4) 0.1557(5) 0.3127(6)
C69 C 0.1516(4) 0.2140(4) 0.3275(6)
H68 H 0.1510 0.2256 0.3660
C70 C 0.1447(4) 0.1082(4) 0.3540(7)
H69 H 0.149(5) 0.120(5) 0.399(8)
C71 C 0.0917(4) 0.0656(4) 0.2845(7)
C72 C 0.0344(5) 0.0932(6) 0.2094(7)
H70 H 0.0420 0.1281 0.1949
H71 H 0.0123 0.1029 0.2215
H72 H 0.0126 0.0662 0.1640
C73 C 0.0810(5) 0.0234(5) 0.3268(8)
H73 H 0.0584 0.0433 0.3335
H74 H 0.1179 0.0118 0.3800
H75 H 0.0601 -0.0105 0.2928
C74 C 0.1847(5) 0.0581(6) 0.3713(8)
H76 H 0.1956 0.0298 0.4118
H77 H 0.2186 0.0714 0.3834
C75 C 0.1322(5) 0.0386(5) 0.2794(8)
H78 H 0.128(5) -0.004(7) 0.270(8)
C76 C 0.1309(5) 0.0749(4) 0.2209(7)
H79 H 0.1606 0.0606 0.2240
H80 H 0.0931 0.0706 0.1643
C77 C 0.2095(4) 0.3548(5) 0.6007(6)
H81 H 0.251(5) 0.350(5) 0.630(7)
C78 C 0.1925(4) 0.4078(5) 0.6259(6)
C79 C 0.1744(4) 0.4645(5) 0.5806(6)
H82 H 0.1484 0.4569 0.5225
H83 H 0.2084 0.4848 0.6006
H84 H 0.1548 0.4881 0.5896
C80 C 0.2443(5) 0.4178(6) 0.7206(7)
H85 H 0.2782 0.4298 0.7328
H86 H 0.2527 0.3821 0.7493
H87 H 0.2341 0.4476 0.7380
C81 C 0.1849(5) 0.3138(6) 0.6276(7)
H88 H 0.1618 0.2807 0.5912
H89 H 0.2138 0.3022 0.6853
C82 C 0.1479(5) 0.3699(6) 0.6079(7)
H90 H 0.143(6) 0.375(6) 0.645(9)
C83 C 0.0898(5) 0.3685(6) 0.5146(7)
H91 H 0.0646 0.3377 0.5043
H92 H 0.0695 0.4055 0.4984
N13 N 0.1354(3) 0.3437(3) 0.3784(4)
C84 C 0.0780(3) 0.3452(3) 0.3380(5)
C85 C 0.0619(3) 0.3536(4) 0.3793(5)
H93 H 0.0225 0.3568 0.3496
C86 C 0.1040(4) 0.3573(4) 0.4646(6)
C87 C 0.1646(4) 0.3520(5) 0.5093(6)
C88 C 0.1768(3) 0.3478(4) 0.4627(5)
H94 H 0.2158 0.3478 0.4904
N14 N 0.0545(3) 0.3435(3) 0.2119(4)
C89 C 0.0356(3) 0.3395(3) 0.2493(5)
C90 C -0.0254(3) 0.3300(4) 0.1900(6)
H95 H -0.0488 0.3274 0.1996
C91 C -0.0424(4) 0.3255(4) 0.1173(6)
H96 H -0.0801 0.3172 0.0669
N15 N 0.0052(3) 0.3352(3) 0.1294(4)
C92 C 0.0062(4) 0.3378(4) 0.0669(5)
H97 H 0.0417 0.3576 0.0903
H98 H -0.0265 0.3615 0.0211
C93 C 0.0033(3) 0.2798(4) 0.0333(5)
C94 C 0.0046(4) 0.2273(4) 0.0650(6)
H99 H 0.0075 0.2267 0.1084
C95 C 0.0016(5) 0.1767(4) 0.0311(6)
H100 H 0.0019 0.1412 0.0512
C96 C 0.3922(4) 0.2913(5) 0.5367(6)
H101 H 0.381(5) 0.250(6) 0.530(7)
C97 C 0.4341(4) 0.3069(5) 0.5258(7)
C98 C 0.4052(5) 0.3240(5) 0.4391(8)
H102 H 0.3728 0.3495 0.4142
H103 H 0.3914 0.2894 0.4059
H104 H 0.4331 0.3436 0.4426
C99 C 0.4768(5) 0.2540(6) 0.5584(8)
H105 H 0.4552 0.2212 0.5221
H106 H 0.4951 0.2437 0.6130
H107 H 0.5063 0.2649 0.5600
C100 C 0.4435(4) 0.3132(6) 0.6272(7)
H108 H 0.4312 0.3347 0.6493
H109 H 0.4718 0.2832 0.6654
C101 C 0.4614(4) 0.3522(6) 0.5928(7)
H110 H 0.504(6) 0.357(6) 0.630(8)
C102 C 0.4255(4) 0.4091(5) 0.5568(7)
H111 H 0.4406 0.4355 0.6015
H112 H 0.4291 0.4282 0.5227
N16 N 0.2433(3) 0.3646(3) 0.3994(5)
C103 C 0.2610(3) 0.4211(4) 0.4162(5)
C104 C 0.3186(4) 0.4385(4) 0.4656(6)
H113 H 0.3281 0.4779 0.4720
C105 C 0.3616(3) 0.3958(4) 0.5052(6)
C106 C 0.3442(4) 0.3351(4) 0.4922(6)
C107 C 0.2863(3) 0.3230(4) 0.4385(5)
H114 H 0.2750 0.2840 0.4275
N17 N 0.1577(3) 0.4459(3) 0.3149(4)
C108 C 0.2131(3) 0.4640(3) 0.3731(5)
C109 C 0.2155(4) 0.5253(4) 0.3843(6)
H115 H 0.2486 0.5487 0.4202
C110 C 0.1590(4) 0.5423(4) 0.3315(7)
H116 H 0.1460 0.5802 0.3251
N18 N 0.1243(3) 0.4943(3) 0.2891(4)
C111 C 0.0614(3) 0.4932(4) 0.2228(5)
H117 H 0.0494 0.4575 0.1914
H118 H 0.0485 0.5258 0.1860
C112 C -0.0311(3) 0.4967(4) -0.2503(5)
C113 C -0.0610(4) 0.4947(4) -0.3334(6)
H119 H -0.1014 0.4905 -0.3744
C114 C -0.0300(4) 0.4989(6) -0.3543(7)
H120 H -0.0500 0.4996 -0.4097
Zn1A Zn -0.15230(4) 0.65225(4) -0.00008(6)
Zn2A Zn -0.15227(4) 0.34756(4) -0.30454(6)
C1A C -0.2088(4) 0.6437(5) 0.1834(6)
H1A H -0.250(5) 0.648(5) 0.131(7)
C2A C -0.1937(4) 0.5917(5) 0.2400(6)
C3A C -0.1745(4) 0.5342(5) 0.2322(7)
H2A H -0.1517 0.5418 0.2206
H3A H -0.2084 0.5116 0.1880
H4A H -0.1514 0.5128 0.2831
C4A C -0.2450(5) 0.5808(6) 0.2309(8)
H5A H -0.2358 0.5485 0.2653
H6A H -0.2796 0.5719 0.1743
H7A H -0.2516 0.6151 0.2475
C5A C -0.1865(5) 0.6837(5) 0.2551(7)
H8A H -0.2163 0.6948 0.2534
H9A H -0.1646 0.7174 0.2636
C6A C -0.1478(4) 0.6312(5) 0.3136(7)
H10A H -0.143(5) 0.627(6) 0.361(8)
C7A C -0.0897(4) 0.6310(5) 0.3353(6)
H11A H -0.0634 0.6609 0.3762
H12A H -0.0704 0.5934 0.3585
N1A N -0.1353(2) 0.6561(3) 0.1079(4)
C8A C -0.0782(3) 0.6547(4) 0.1828(5)
C9A C -0.0629(3) 0.6465(4) 0.2549(5)
H13A H -0.0236 0.6435 0.3041
C10A C -0.1038(4) 0.6428(4) 0.2562(6)
C11A C -0.1641(3) 0.6476(4) 0.1797(5)
C12A C -0.1767(3) 0.6522(4) 0.1097(5)
H14A H -0.2158 0.6527 0.0596
N2A N -0.0537(2) 0.6566(3) 0.1045(4)
C13A C -0.0362(3) 0.6599(4) 0.1770(5)
C14A C 0.0251(3) 0.6699(4) 0.2415(6)
H15A H 0.0482 0.6733 0.2979
C15A C 0.0424(4) 0.6734(4) 0.2019(6)
H16A H 0.0803 0.6807 0.2268
N3A N -0.0055(3) 0.6642(3) 0.1188(4)
C16A C -0.0066(3) 0.6614(3) 0.0553(5)
H17A H -0.0421 0.6417 0.0078
H18A H 0.0261 0.6377 0.0750
C17A C -0.0036(3) 0.7198(3) 0.0275(6)
C18A C -0.0046(4) 0.7729(4) 0.0567(6)
H19A H -0.0079 0.7735 0.0939
C19A C -0.0007(5) 0.8240(4) 0.0297(8)
H20A H 0.0012 0.8593 0.0516
C20A C -0.3924(4) 0.7092(5) -0.2483(6)
H21A H -0.381(5) 0.750(5) -0.233(7)
C21A C -0.4338(4) 0.6926(5) -0.3419(6)
C22A C -0.4068(5) 0.6751(5) -0.3722(7)
H22A H -0.3724 0.6522 -0.3307
H23A H -0.3964 0.7096 -0.3834
H24A H -0.4343 0.6525 -0.4220
C23A C -0.4766(5) 0.7437(6) -0.3958(7)
H25A H -0.4551 0.7776 -0.3865
H26A H -0.4974 0.7524 -0.3812
H27A H -0.5039 0.7328 -0.4530
C24A C -0.4430(5) 0.6859(6) -0.2586(8)
H28A H -0.4298 0.6638 -0.2117
H29A H -0.4717 0.7152 -0.2765
C25A C -0.4606(4) 0.6480(6) -0.3290(6)
H30A H -0.503(6) 0.643(6) -0.376(8)
C26A C -0.4250(4) 0.5902(5) -0.2934(6)
H31A H -0.4395 0.5644 -0.2773
H32A H -0.4293 0.5706 -0.3350
N4A N -0.2435(3) 0.6349(3) -0.0876(4)
C27A C -0.2593(3) 0.5786(4) -0.1044(5)
C28A C -0.3174(3) 0.5609(4) -0.1713(6)
H33A H -0.3270 0.5215 -0.1844
C29A C -0.3607(4) 0.6046(4) -0.2181(6)
C30A C -0.3441(3) 0.6635(4) -0.1963(5)
C31A C -0.2862(3) 0.6766(4) -0.1346(5)
H34A H -0.2751 0.7157 -0.1238
N5A N -0.1575(3) 0.5544(3) -0.0003(4)
C32A C -0.2130(3) 0.5353(4) -0.0528(5)
C33A C -0.2158(4) 0.4751(4) -0.0455(6)
H35A H -0.2492 0.4523 -0.0750
C34A C -0.1599(4) 0.4571(4) 0.0132(6)
H36A H -0.1475 0.4190 0.0323
N6A N -0.1241(3) 0.5049(3) 0.0403(4)
C35A C -0.0610(3) 0.5065(4) 0.1009(5)
H37A H -0.0493 0.5426 0.0936
H38A H -0.0477 0.4744 0.0899
C36A C -0.0305(3) 0.5028(4) 0.1895(5)
C37A C -0.0604(4) 0.5043(5) 0.2128(6)
H39A H -0.1009 0.5069 0.1727
C38A C -0.0300(4) 0.5022(6) 0.2942(6)
H40A H -0.0501 0.5029 0.3094
C39A C -0.1448(4) 0.8919(4) 0.0642(7)
H41A H -0.149(5) 0.881(5) 0.101(8)
C40A C -0.0925(4) 0.9335(4) 0.1000(7)
C41A C -0.0812(5) 0.9752(5) 0.1634(8)
H42A H -0.1135 1.0018 0.1350
H43A H -0.0459 0.9969 0.1917
H44A H -0.0772 0.9528 0.2027
C42A C -0.0348(4) 0.9065(5) 0.1407(6)
H45A H -0.0417 0.8711 0.1125
H46A H -0.0127 0.8979 0.1975
H47A H -0.0133 0.9335 0.1382
C43A C -0.1846(5) 0.9419(5) 0.0013(8)
H48A H -0.1959 0.9702 0.0195
H49A H -0.2181 0.9285 -0.0545
C44A C -0.1312(5) 0.9611(4) 0.0163(8)
H50A H -0.126(5) 1.003(6) 0.016(7)
C45A C -0.1324(5) 0.9254(4) -0.0428(7)
H51A H -0.1635 0.9398 -0.0989
H52A H -0.0956 0.9300 -0.0265
N7A N -0.1564(3) 0.7436(3) -0.0206(4)
C46A C -0.1551(3) 0.7599(4) -0.0775(5)
C47A C -0.1469(4) 0.8185(4) -0.0845(6)
H53A H -0.1443 0.8288 -0.1212
C48A C -0.1428(4) 0.8602(4) -0.0391(6)
C49A C -0.1480(3) 0.8439(4) 0.0162(6)
C50A C -0.1521(3) 0.7858(4) 0.0254(5)
H54A H -0.1519 0.7746 0.0647
N8A N -0.1566(2) 0.6569(3) -0.1034(4)
C51A C -0.1589(3) 0.7127(4) -0.1233(5)
C52A C -0.1700(4) 0.7156(5) -0.1954(6)
H55A H -0.1742 0.7489 -0.2225
C53A C -0.1731(3) 0.6594(5) -0.2156(5)
H56A H -0.1800 0.6465 -0.2604
N9A N -0.1647(3) 0.6242(3) -0.1595(4)
C54A C -0.1620(3) 0.5611(4) -0.1554(5)
H57A H -0.1425 0.5494 -0.1001
H58A H -0.1380 0.5480 -0.1638
C55A C -0.2197(3) 0.5301(4) -0.2162(5)
C56A C -0.2720(4) 0.5610(4) -0.2679(6)
H59A H -0.2722 0.6016 -0.2664
C57A C -0.3235(4) 0.5298(5) -0.3214(6)
H60A H -0.3588 0.5500 -0.3556
C58A C -0.3243(4) 0.4703(5) -0.3258(7)
H61A H -0.3598 0.4505 -0.3614
C59A C -0.2726(3) 0.4391(4) -0.2777(6)
H62A H -0.2729 0.3986 -0.2818
C60A C -0.2196(3) 0.4700(4) -0.2226(5)
N10A N -0.1567(2) 0.3427(3) -0.2109(4)
C61A C -0.1602(3) 0.2862(4) -0.1961(5)
C62A C -0.1700(4) 0.2839(4) -0.1456(6)
H63A H -0.1734 0.2505 -0.1262
C63A C -0.1733(3) 0.3402(4) -0.1305(6)
H64A H -0.1803 0.3527 -0.0994
N11A N -0.1645(3) 0.3752(3) -0.1701(4)
C64A C -0.1616(3) 0.4385(4) -0.1681(5)
H65A H -0.1420 0.4505 -0.1842
H66A H -0.1375 0.4512 -0.1115
N12A N -0.1557(3) 0.2566(3) -0.2904(4)
C65A C -0.1547(3) 0.2396(4) -0.2338(5)
C66A C -0.1475(4) 0.1815(4) -0.2103(6)
H67A H -0.1464 0.1716 -0.1697
C67A C -0.1420(4) 0.1391(4) -0.2457(7)
C68A C -0.1482(4) 0.1557(5) -0.3127(6)
C69A C -0.1516(4) 0.2140(4) -0.3275(6)
H68A H -0.1510 0.2256 -0.3660
C70A C -0.1447(4) 0.1082(4) -0.3540(7)
H69A H -0.149(5) 0.120(5) -0.399(8)
C71A C -0.0917(4) 0.0656(4) -0.2845(7)
C72A C -0.0344(5) 0.0932(6) -0.2094(7)
H70A H -0.0420 0.1281 -0.1949
H71A H -0.0123 0.1029 -0.2215
H72A H -0.0126 0.0662 -0.1640
C73A C -0.0810(5) 0.0234(5) -0.3268(8)
H73A H -0.0584 0.0433 -0.3335
H74A H -0.1179 0.0118 -0.3800
H75A H -0.0601 -0.0105 -0.2928
C74A C -0.1847(5) 0.0581(6) -0.3713(8)
H76A H -0.1956 0.0298 -0.4118
H77A H -0.2186 0.0714 -0.3834
C75A C -0.1322(5) 0.0386(5) -0.2794(8)
H78A H -0.128(5) -0.004(7) -0.270(8)
C76A C -0.1309(5) 0.0749(4) -0.2209(7)
H79A H -0.1606 0.0606 -0.2240
H80A H -0.0931 0.0706 -0.1643
C77A C -0.2095(4) 0.3548(5) -0.6007(6)
H81A H -0.251(5) 0.350(5) -0.630(7)
C78A C -0.1925(4) 0.4078(5) -0.6259(6)
C79A C -0.1744(4) 0.4645(5) -0.5806(6)
H82A H -0.1484 0.4569 -0.5225
H83A H -0.2084 0.4848 -0.6006
H84A H -0.1548 0.4881 -0.5896
C80A C -0.2443(5) 0.4178(6) -0.7206(7)
H85A H -0.2782 0.4298 -0.7328
H86A H -0.2527 0.3821 -0.7493
H87A H -0.2341 0.4476 -0.7380
C81A C -0.1849(5) 0.3138(6) -0.6276(7)
H88A H -0.1618 0.2807 -0.5912
H89A H -0.2138 0.3022 -0.6853
C82A C -0.1479(5) 0.3699(6) -0.6079(7)
H90A H -0.143(6) 0.375(6) -0.645(9)
C83A C -0.0898(5) 0.3685(6) -0.5146(7)
H91A H -0.0646 0.3377 -0.5043
H92A H -0.0695 0.4055 -0.4984
N13A N -0.1354(3) 0.3437(3) -0.3784(4)
C84A C -0.0780(3) 0.3452(3) -0.3380(5)
C85A C -0.0619(3) 0.3536(4) -0.3793(5)
H93A H -0.0225 0.3568 -0.3496
C86A C -0.1040(4) 0.3573(4) -0.4646(6)
C87A C -0.1646(4) 0.3520(5) -0.5093(6)
C88A C -0.1768(3) 0.3478(4) -0.4627(5)
H94A H -0.2158 0.3478 -0.4904
N14A N -0.0545(3) 0.3435(3) -0.2119(4)
C89A C -0.0356(3) 0.3395(3) -0.2493(5)
C90A C 0.0254(3) 0.3300(4) -0.1900(6)
H95A H 0.0488 0.3274 -0.1996
C91A C 0.0424(4) 0.3255(4) -0.1173(6)
H96A H 0.0801 0.3172 -0.0669
N15A N -0.0052(3) 0.3352(3) -0.1294(4)
C92A C -0.0062(4) 0.3378(4) -0.0669(5)
H97A H -0.0417 0.3576 -0.0903
H98A H 0.0265 0.3615 -0.0211
C93A C -0.0033(3) 0.2798(4) -0.0333(5)
C94A C -0.0046(4) 0.2273(4) -0.0650(6)
H99A H -0.0075 0.2267 -0.1084
C95A C -0.0016(5) 0.1767(4) -0.0311(6)
H100A H -0.0019 0.1412 -0.0512
C96A C -0.3922(4) 0.2913(5) -0.5367(6)
H101A H -0.381(5) 0.250(6) -0.530(7)
C97A C -0.4341(4) 0.3069(5) -0.5258(7)
C98A C -0.4052(5) 0.3240(5) -0.4391(8)
H102A H -0.3728 0.3495 -0.4142
H103A H -0.3914 0.2894 -0.4059
H104A H -0.4331 0.3436 -0.4426
C99A C -0.4768(5) 0.2540(6) -0.5584(8)
H105A H -0.4552 0.2212 -0.5221
H106A H -0.4951 0.2437 -0.6130
H107A H -0.5063 0.2649 -0.5600
C100A C -0.4435(4) 0.3132(6) -0.6272(7)
H108A H -0.4312 0.3347 -0.6493
H109A H -0.4718 0.2832 -0.6654
C101A C -0.4614(4) 0.3522(6) -0.5928(7)
H110A H -0.504(6) 0.357(6) -0.630(8)
C102A C -0.4255(4) 0.4091(5) -0.5568(7)
H111A H -0.4406 0.4355 -0.6015
H112A H -0.4291 0.4282 -0.5227
N16A N -0.2433(3) 0.3646(3) -0.3994(5)
C103A C -0.2610(3) 0.4211(4) -0.4162(5)
C104A C -0.3186(4) 0.4385(4) -0.4656(6)
H113A H -0.3281 0.4779 -0.4720
C105A C -0.3616(3) 0.3958(4) -0.5052(6)
C106A C -0.3442(4) 0.3351(4) -0.4922(6)
C107A C -0.2863(3) 0.3230(4) -0.4385(5)
H114A H -0.2750 0.2840 -0.4275
N17A N -0.1577(3) 0.4459(3) -0.3149(4)
C108A C -0.2131(3) 0.4640(3) -0.3731(5)
C109A C -0.2155(4) 0.5253(4) -0.3843(6)
H115A H -0.2486 0.5487 -0.4202
C110A C -0.1590(4) 0.5423(4) -0.3315(7)
H116A H -0.1460 0.5802 -0.3251
N18A N -0.1243(3) 0.4943(3) -0.2891(4)
C111A C -0.0614(3) 0.4932(4) -0.2228(5)
H117A H -0.0494 0.4575 -0.1914
H118A H -0.0485 0.5258 -0.1860
C112A C 0.0311(3) 0.4967(4) 0.2503(5)
C113A C 0.0610(4) 0.4947(4) 0.3334(6)
H119A H 0.1014 0.4905 0.3744
C114A C 0.0300(4) 0.4989(6) 0.3543(7)
H120A H 0.0500 0.4996 0.4097
B1 B 0.0000 1.0005(8) 0.0000
F1 F -0.0341(6) 1.0352(4) -0.0020(9)
F2 F 0.0341(6) 0.9634(5) 0.0654(8)
F1A F 0.0341(6) 1.0352(4) 0.0020(9)
F2A F -0.0341(6) 0.9634(5) -0.0654(8)
B2 B 1.0000 0.5000(9) 0.5000
F3 F 0.9684(5) 0.5323(7) 0.5047(7)
F4 F 1.0315(5) 0.4658(8) 0.5663(6)
F3A F 1.0316(5) 0.5323(7) 0.4953(7)
F4A F 0.9685(5) 0.4658(8) 0.4337(6)
B3 B 0.5000 0.0013(6) 1.0000
F5 F 0.46541(19) 0.0351(2) 0.9308(3)
F6 F 0.46498(19) -0.0349(2) 0.9999(3)
F5A F 0.53459(19) 0.0351(2) 1.0692(3)
F6A F 0.53502(19) -0.0349(2) 1.0001(3)
B4 B 0.0000 0.9985(10) 0.5000
F7 F -0.0361(4) 1.0311(6) 0.4979(8)
F8 F 0.0363(4) 0.9688(5) 0.5707(7)
F7A F 0.0361(4) 1.0311(6) 0.5021(8)
F8A F -0.0363(4) 0.9688(5) 0.4293(7)
B5 B 0.2182(8) 0.7011(9) 0.4160(12)
F9 F 0.2523(9) 0.6503(8) 0.4531(13)
F10 F 0.1608(7) 0.6825(9) 0.3551(11)
F11 F 0.2309(6) 0.7345(6) 0.4775(8)
F12 F 0.2312(8) 0.7342(8) 0.3798(11)
B7 B 0.2058(6) 0.3013(7) 0.9915(10)
F17 F 0.2366(6) 0.2516(6) 1.0096(9)
F18 F 0.1582(8) 0.3029(11) 0.9041(9)
F19 F 0.2436(7) 0.3486(7) 1.0219(11)
F20 F 0.1808(7) 0.3034(9) 1.0213(11)
C115 C 0.1624(11) 0.8309(12) 0.7969(16)
H121 H 0.1950 0.8358 0.8562
H122 H 0.1764 0.8104 0.7765
Cl1 Cl 0.1364(4) 0.8968(4) 0.7514(5)
Cl2 Cl 0.1085(2) 0.7903(2) 0.7762(3)
C116 C 0.1594(16) 0.3703(18) 0.823(2)
H123 H 0.1533 0.3443 0.8503
H124 H 0.1780 0.4055 0.8564
Cl3 Cl 0.1018(3) 0.3855(3) 0.7396(6)
Cl4 Cl 0.21006(17) 0.3328(2) 0.8178(3)
C117 C 0.6653(13) 0.1319(15) 0.5040(19)
H125 H 0.6610 0.1576 0.4662
H126 H 0.6848 0.0966 0.5103
Cl5 Cl 0.6024(4) 0.1152(4) 0.4647(5)
Cl6 Cl 0.70972(19) 0.1669(2) 0.6011(3)
C118 C 0.3643(10) 0.6680(11) 0.0323(16)
H127 H 0.3359 0.6988 -0.0022
H128 H 0.3981 0.6841 0.0861
Cl7 Cl 0.3845(3) 0.6370(4) -0.0132(5)
Cl8 Cl 0.33253(19) 0.6078(2) 0.0424(3)
C119 C 0.3674(11) 0.3354(13) 0.6989(16)
H129 H 0.3411 0.3025 0.6774
H130 H 0.4022 0.3219 0.7133
Cl9 Cl 0.33258(19) 0.3914(2) 0.6224(3)
Cl10 Cl 0.3856(3) 0.3623(4) 0.7822(5)
C120 C 0.1625(12) 0.1652(13) 0.5303(18)
H131 H 0.1955 0.1602 0.5371
H132 H 0.1763 0.1847 0.5791
Cl11 Cl 0.10809(19) 0.2095(2) 0.4411(3)
Cl12 Cl 0.1367(4) 0.1028(4) 0.5213(5)
loop_
_geom_bond_atom_site_label_1
_geom_bond_atom_site_label_2
_geom_bond_site_symmetry_1
_geom_bond_site_symmetry_2
Zn1 N1 1_555 1_555
Zn2 N10 1_555 1_555
C1 H1 1_555 1_555
C2 C1 1_555 1_555
C3 C2 1_555 1_555
H2 C3 1_555 1_555
H3 C3 1_555 1_555
H4 C3 1_555 1_555
C4 C2 1_555 1_555
H5 C4 1_555 1_555
H6 C4 1_555 1_555
H7 C4 1_555 1_555
C5 C1 1_555 1_555
H8 C5 1_555 1_555
H9 C5 1_555 1_555
C6 C2 1_555 1_555
H10 C6 1_555 1_555
C7 C6 1_555 1_555
H11 C7 1_555 1_555
H12 C7 1_555 1_555
N1 C8 1_555 1_555
C8 C9 1_555 1_555
C9 H13 1_555 1_555
C10 C7 1_555 1_555
C11 C1 1_555 1_555
C12 N1 1_555 1_555
H14 C12 1_555 1_555
N2 Zn1 1_555 1_555
C13 C8 1_555 1_555
C14 C13 1_555 1_555
H15 C14 1_555 1_555
C15 C14 1_555 1_555
H16 C15 1_555 1_555
N3 N2 1_555 1_555
C16 N3 1_555 1_555
H17 C16 1_555 1_555
H18 C16 1_555 1_555
C17 C16 1_555 1_555
C18 C17 1_555 1_555
H19 C18 1_555 1_555
C19 C18 1_555 1_555
H20 C19 1_555 1_555
C20 H21 1_555 1_555
C21 C20 1_555 1_555
C22 C21 1_555 1_555
H22 C22 1_555 1_555
H23 C22 1_555 1_555
H24 C22 1_555 1_555
C23 C21 1_555 1_555
H25 C23 1_555 1_555
H26 C23 1_555 1_555
H27 C23 1_555 1_555
C24 C20 1_555 1_555
H28 C24 1_555 1_555
H29 C24 1_555 1_555
C25 C21 1_555 1_555
H30 C25 1_555 1_555
C26 C25 1_555 1_555
H31 C26 1_555 1_555
H32 C26 1_555 1_555
N4 Zn1 1_555 1_555
C27 N4 1_555 1_555
C28 C27 1_555 1_555
H33 C28 1_555 1_555
C29 C26 1_555 1_555
C30 C20 1_555 1_555
C31 N4 1_555 1_555
H34 C31 1_555 1_555
N5 Zn1 1_555 1_555
C32 C27 1_555 1_555
C33 C32 1_555 1_555
H35 C33 1_555 1_555
C34 C33 1_555 1_555
H36 C34 1_555 1_555
N6 N5 1_555 1_555
C35 N6 1_555 1_555
H37 C35 1_555 1_555
H38 C35 1_555 1_555
C36 C35 1_555 1_555
C37 C36 1_555 1_555
H39 C37 1_555 1_555
C38 C37 1_555 1_555
H40 C38 1_555 1_555
C39 H41 1_555 1_555
C40 C39 1_555 1_555
C41 C40 1_555 1_555
H42 C41 1_555 1_555
H43 C41 1_555 1_555
H44 C41 1_555 1_555
C42 C40 1_555 1_555
H45 C42 1_555 1_555
H46 C42 1_555 1_555
H47 C42 1_555 1_555
C43 C39 1_555 1_555
H48 C43 1_555 1_555
H49 C43 1_555 1_555
C44 C40 1_555 1_555
H50 C44 1_555 1_555
C45 C44 1_555 1_555
H51 C45 1_555 1_555
H52 C45 1_555 1_555
N7 Zn1 1_555 1_555
C46 N7 1_555 1_555
C47 C46 1_555 1_555
H53 C47 1_555 1_555
C48 C45 1_555 1_555
C49 C39 1_555 1_555
C50 N7 1_555 1_555
H54 C50 1_555 1_555
N8 Zn1 1_555 1_555
C51 C46 1_555 1_555
C52 C51 1_555 1_555
H55 C52 1_555 1_555
C53 C52 1_555 1_555
H56 C53 1_555 1_555
N9 N8 1_555 1_555
C54 N9 1_555 1_555
H57 C54 1_555 1_555
H58 C54 1_555 1_555
C55 C54 1_555 1_555
C56 C55 1_555 1_555
H59 C56 1_555 1_555
C57 C56 1_555 1_555
H60 C57 1_555 1_555
C58 C57 1_555 1_555
H61 C58 1_555 1_555
C59 C58 1_555 1_555
H62 C59 1_555 1_555
C60 C55 1_555 1_555
N10 C61 1_555 1_555
C61 C62 1_555 1_555
C62 H63 1_555 1_555
C63 C62 1_555 1_555
H64 C63 1_555 1_555
N11 N10 1_555 1_555
C64 C60 1_555 1_555
H65 C64 1_555 1_555
H66 C64 1_555 1_555
N12 Zn2 1_555 1_555
C65 C61 1_555 1_555
C66 C65 1_555 1_555
H67 C66 1_555 1_555
C67 C66 1_555 1_555
C68 C67 1_555 1_555
C69 N12 1_555 1_555
H68 C69 1_555 1_555
C70 C68 1_555 1_555
H69 C70 1_555 1_555
C71 C70 1_555 1_555
C72 C71 1_555 1_555
H70 C72 1_555 1_555
H71 C72 1_555 1_555
H72 C72 1_555 1_555
C73 C71 1_555 1_555
H73 C73 1_555 1_555
H74 C73 1_555 1_555
H75 C73 1_555 1_555
C74 C70 1_555 1_555
H76 C74 1_555 1_555
H77 C74 1_555 1_555
C75 C71 1_555 1_555
H78 C75 1_555 1_555
C76 C67 1_555 1_555
H79 C76 1_555 1_555
H80 C76 1_555 1_555
C77 H81 1_555 1_555
C78 C77 1_555 1_555
C79 C78 1_555 1_555
H82 C79 1_555 1_555
H83 C79 1_555 1_555
H84 C79 1_555 1_555
C80 C78 1_555 1_555
H85 C80 1_555 1_555
H86 C80 1_555 1_555
H87 C80 1_555 1_555
C81 C77 1_555 1_555
H88 C81 1_555 1_555
H89 C81 1_555 1_555
C82 C78 1_555 1_555
H90 C82 1_555 1_555
C83 C82 1_555 1_555
H91 C83 1_555 1_555
H92 C83 1_555 1_555
N13 Zn2 1_555 1_555
C84 N13 1_555 1_555
C85 C84 1_555 1_555
H93 C85 1_555 1_555
C86 C83 1_555 1_555
C87 C77 1_555 1_555
C88 N13 1_555 1_555
H94 C88 1_555 1_555
N14 Zn2 1_555 1_555
C89 C84 1_555 1_555
C90 C89 1_555 1_555
H95 C90 1_555 1_555
C91 C90 1_555 1_555
H96 C91 1_555 1_555
N15 N14 1_555 1_555
C92 N15 1_555 1_555
H97 C92 1_555 1_555
H98 C92 1_555 1_555
C93 C92 1_555 1_555
C94 C93 1_555 1_555
H99 C94 1_555 1_555
C95 C94 1_555 1_555
H100 C95 1_555 1_555
C96 H101 1_555 1_555
C97 C96 1_555 1_555
C98 C97 1_555 1_555
H102 C98 1_555 1_555
H103 C98 1_555 1_555
H104 C98 1_555 1_555
C99 C97 1_555 1_555
H105 C99 1_555 1_555
H106 C99 1_555 1_555
H107 C99 1_555 1_555
C100 C96 1_555 1_555
H108 C100 1_555 1_555
H109 C100 1_555 1_555
C101 C97 1_555 1_555
H110 C101 1_555 1_555
C102 C101 1_555 1_555
H111 C102 1_555 1_555
H112 C102 1_555 1_555
N16 Zn2 1_555 1_555
C103 N16 1_555 1_555
C104 C103 1_555 1_555
H113 C104 1_555 1_555
C105 C102 1_555 1_555
C106 C96 1_555 1_555
C107 N16 1_555 1_555
H114 C107 1_555 1_555
N17 Zn2 1_555 1_555
C108 C103 1_555 1_555
C109 C108 1_555 1_555
H115 C109 1_555 1_555
C110 C109 1_555 1_555
H116 C110 1_555 1_555
N18 N17 1_555 1_555
C111 N18 1_555 1_555
H117 C111 1_555 1_555
H118 C111 1_555 1_555
C112 C36 1_555 1_555
C113 C112 1_555 1_555
H119 C113 1_555 1_555
C114 C38 1_555 1_555
H120 C114 1_555 1_555
B1 F1 1_555 1_555
F2 B1 1_555 1_555
B2 F3 1_555 1_555
F4 B2 1_555 1_555
B3 F5 1_555 1_555
F6 B3 1_555 1_555
B4 F7 1_555 1_555
F8 B4 1_555 1_555
B5 F9 1_555 1_555
F10 B5 1_555 1_555
F11 B5 1_555 1_555
F12 B5 1_555 1_555
B7 F17 1_555 1_555
F18 B7 1_555 1_555
F19 B7 1_555 1_555
F20 B7 1_555 1_555
C115 H121 1_555 1_555
H122 C115 1_555 1_555
Cl1 C115 1_555 1_555
Cl2 C115 1_555 1_555
C116 H123 1_555 1_555
H124 C116 1_555 1_555
Cl3 C116 1_555 1_555
Cl4 C116 1_555 1_555
C117 H125 1_555 1_555
H126 C117 1_555 1_555
Cl5 C117 1_555 1_555
Cl6 C117 1_555 1_555
C118 H127 1_555 1_555
H128 C118 1_555 1_555
Cl7 C118 1_555 1_555
Cl8 C118 1_555 1_555
C119 H129 1_555 1_555
H130 C119 1_555 1_555
Cl9 C119 1_555 1_555
Cl10 C119 1_555 1_555
C120 H131 1_555 1_555
H132 C120 1_555 1_555
Cl11 C120 1_555 1_555
Cl12 C120 1_555 1_555
Zn1A N1A 1_555 1_555
Zn2A N10A 1_555 1_555
C1A H1A 1_555 1_555
C2A C1A 1_555 1_555
C3A C2A 1_555 1_555
H2A C3A 1_555 1_555
H3A C3A 1_555 1_555
H4A C3A 1_555 1_555
C4A C2A 1_555 1_555
H5A C4A 1_555 1_555
H6A C4A 1_555 1_555
H7A C4A 1_555 1_555
C5A C1A 1_555 1_555
H8A C5A 1_555 1_555
H9A C5A 1_555 1_555
C6A C2A 1_555 1_555
H10A C6A 1_555 1_555
C7A C6A 1_555 1_555
H11A C7A 1_555 1_555
H12A C7A 1_555 1_555
N1A C8A 1_555 1_555
C8A C9A 1_555 1_555
C9A H13A 1_555 1_555
C10A C7A 1_555 1_555
C11A C1A 1_555 1_555
C12A N1A 1_555 1_555
H14A C12A 1_555 1_555
N2A Zn1A 1_555 1_555
C13A C8A 1_555 1_555
C14A C13A 1_555 1_555
H15A C14A 1_555 1_555
C15A C14A 1_555 1_555
H16A C15A 1_555 1_555
N3A N2A 1_555 1_555
C16A N3A 1_555 1_555
H17A C16A 1_555 1_555
H18A C16A 1_555 1_555
C17A C17 1_555 1_555
C18A C17A 1_555 1_555
H19A C18A 1_555 1_555
C19A C19 1_555 1_555
H20A C19A 1_555 1_555
C20A H21A 1_555 1_555
C21A C20A 1_555 1_555
C22A C21A 1_555 1_555
H22A C22A 1_555 1_555
H23A C22A 1_555 1_555
H24A C22A 1_555 1_555
C23A C21A 1_555 1_555
H25A C23A 1_555 1_555
H26A C23A 1_555 1_555
H27A C23A 1_555 1_555
C24A C20A 1_555 1_555
H28A C24A 1_555 1_555
H29A C24A 1_555 1_555
C25A C21A 1_555 1_555
H30A C25A 1_555 1_555
C26A C25A 1_555 1_555
H31A C26A 1_555 1_555
H32A C26A 1_555 1_555
N4A Zn1A 1_555 1_555
C27A N4A 1_555 1_555
C28A C27A 1_555 1_555
H33A C28A 1_555 1_555
C29A C26A 1_555 1_555
C30A C20A 1_555 1_555
C31A N4A 1_555 1_555
H34A C31A 1_555 1_555
N5A Zn1A 1_555 1_555
C32A C27A 1_555 1_555
C33A C32A 1_555 1_555
H35A C33A 1_555 1_555
C34A C33A 1_555 1_555
H36A C34A 1_555 1_555
N6A N5A 1_555 1_555
C35A N6A 1_555 1_555
H37A C35A 1_555 1_555
H38A C35A 1_555 1_555
C36A C35A 1_555 1_555
C37A C36A 1_555 1_555
H39A C37A 1_555 1_555
C38A C37A 1_555 1_555
H40A C38A 1_555 1_555
C39A H41A 1_555 1_555
C40A C39A 1_555 1_555
C41A C40A 1_555 1_555
H42A C41A 1_555 1_555
H43A C41A 1_555 1_555
H44A C41A 1_555 1_555
C42A C40A 1_555 1_555
H45A C42A 1_555 1_555
H46A C42A 1_555 1_555
H47A C42A 1_555 1_555
C43A C39A 1_555 1_555
H48A C43A 1_555 1_555
H49A C43A 1_555 1_555
C44A C40A 1_555 1_555
H50A C44A 1_555 1_555
C45A C44A 1_555 1_555
H51A C45A 1_555 1_555
H52A C45A 1_555 1_555
N7A Zn1A 1_555 1_555
C46A N7A 1_555 1_555
C47A C46A 1_555 1_555
H53A C47A 1_555 1_555
C48A C45A 1_555 1_555
C49A C39A 1_555 1_555
C50A N7A 1_555 1_555
H54A C50A 1_555 1_555
N8A Zn1A 1_555 1_555
C51A C46A 1_555 1_555
C52A C51A 1_555 1_555
H55A C52A 1_555 1_555
C53A C52A 1_555 1_555
H56A C53A 1_555 1_555
N9A N8A 1_555 1_555
C54A N9A 1_555 1_555
H57A C54A 1_555 1_555
H58A C54A 1_555 1_555
C55A C54A 1_555 1_555
C56A C55A 1_555 1_555
H59A C56A 1_555 1_555
C57A C56A 1_555 1_555
H60A C57A 1_555 1_555
C58A C57A 1_555 1_555
H61A C58A 1_555 1_555
C59A C58A 1_555 1_555
H62A C59A 1_555 1_555
C60A C55A 1_555 1_555
N10A C61A 1_555 1_555
C61A C62A 1_555 1_555
C62A H63A 1_555 1_555
C63A C62A 1_555 1_555
H64A C63A 1_555 1_555
N11A N10A 1_555 1_555
C64A C60A 1_555 1_555
H65A C64A 1_555 1_555
H66A C64A 1_555 1_555
N12A Zn2A 1_555 1_555
C65A C61A 1_555 1_555
C66A C65A 1_555 1_555
H67A C66A 1_555 1_555
C67A C66A 1_555 1_555
C68A C67A 1_555 1_555
C69A N12A 1_555 1_555
H68A C69A 1_555 1_555
C70A C68A 1_555 1_555
H69A C70A 1_555 1_555
C71A C70A 1_555 1_555
C72A C71A 1_555 1_555
H70A C72A 1_555 1_555
H71A C72A 1_555 1_555
H72A C72A 1_555 1_555
C73A C71A 1_555 1_555
H73A C73A 1_555 1_555
H74A C73A 1_555 1_555
H75A C73A 1_555 1_555
C74A C70A 1_555 1_555
H76A C74A 1_555 1_555
H77A C74A 1_555 1_555
C75A C71A 1_555 1_555
H78A C75A 1_555 1_555
C76A C67A 1_555 1_555
H79A C76A 1_555 1_555
H80A C76A 1_555 1_555
C77A H81A 1_555 1_555
C78A C77A 1_555 1_555
C79A C78A 1_555 1_555
H82A C79A 1_555 1_555
H83A C79A 1_555 1_555
H84A C79A 1_555 1_555
C80A C78A 1_555 1_555
H85A C80A 1_555 1_555
H86A C80A 1_555 1_555
H87A C80A 1_555 1_555
C81A C77A 1_555 1_555
H88A C81A 1_555 1_555
H89A C81A 1_555 1_555
C82A C78A 1_555 1_555
H90A C82A 1_555 1_555
C83A C82A 1_555 1_555
H91A C83A 1_555 1_555
H92A C83A 1_555 1_555
N13A Zn2A 1_555 1_555
C84A N13A 1_555 1_555
C85A C84A 1_555 1_555
H93A C85A 1_555 1_555
C86A C83A 1_555 1_555
C87A C77A 1_555 1_555
C88A N13A 1_555 1_555
H94A C88A 1_555 1_555
N14A Zn2A 1_555 1_555
C89A C84A 1_555 1_555
C90A C89A 1_555 1_555
H95A C90A 1_555 1_555
C91A C90A 1_555 1_555
H96A C91A 1_555 1_555
N15A N14A 1_555 1_555
C92A N15A 1_555 1_555
H97A C92A 1_555 1_555
H98A C92A 1_555 1_555
C93A C93 1_555 1_555
C94A C93A 1_555 1_555
H99A C94A 1_555 1_555
C95A C95 1_555 1_555
H100A C95A 1_555 1_555
C96A H101A 1_555 1_555
C97A C96A 1_555 1_555
C98A C97A 1_555 1_555
H102A C98A 1_555 1_555
H103A C98A 1_555 1_555
H104A C98A 1_555 1_555
C99A C97A 1_555 1_555
H105A C99A 1_555 1_555
H106A C99A 1_555 1_555
H107A C99A 1_555 1_555
C100A C96A 1_555 1_555
H108A C100A 1_555 1_555
H109A C100A 1_555 1_555
C101A C97A 1_555 1_555
H110A C101A 1_555 1_555
C102A C101A 1_555 1_555
H111A C102A 1_555 1_555
H112A C102A 1_555 1_555
N16A Zn2A 1_555 1_555
C103A N16A 1_555 1_555
C104A C103A 1_555 1_555
H113A C104A 1_555 1_555
C105A C102A 1_555 1_555
C106A C96A 1_555 1_555
C107A N16A 1_555 1_555
H114A C107A 1_555 1_555
N17A Zn2A 1_555 1_555
C108A C103A 1_555 1_555
C109A C108A 1_555 1_555
H115A C109A 1_555 1_555
C110A C109A 1_555 1_555
H116A C110A 1_555 1_555
N18A N17A 1_555 1_555
C111A C112 1_555 1_555
H117A C111A 1_555 1_555
H118A C111A 1_555 1_555
C112A C111 1_555 1_555
C113A C112A 1_555 1_555
H119A C113A 1_555 1_555
C114A C38A 1_555 1_555
H120A C114A 1_555 1_555
F1A B1 1_555 1_555
F2A B1 1_555 1_555
F3A B2 1_555 1_555
F4A B2 1_555 1_555
F5A B3 1_555 1_555
F6A B3 1_555 1_555
F7A B4 1_555 1_555
F8A B4 1_555 1_555
C5 C6 1_555 1_555
C9 C10 1_555 1_555
C10 C11 1_555 1_555
C11 C12 1_555 1_555
N2 C13 1_555 1_555
C15 N3 1_555 1_555
C24 C25 1_555 1_555
C28 C29 1_555 1_555
C29 C30 1_555 1_555
C30 C31 1_555 1_555
N5 C32 1_555 1_555
C34 N6 1_555 1_555
C43 C44 1_555 1_555
C47 C48 1_555 1_555
C48 C49 1_555 1_555
C49 C50 1_555 1_555
N8 C51 1_555 1_555
C53 N9 1_555 1_555
C59 C60 1_555 1_555
C63 N11 1_555 1_555
N11 C64 1_555 1_555
N12 C65 1_555 1_555
C68 C69 1_555 1_555
C74 C75 1_555 1_555
C75 C76 1_555 1_555
C81 C82 1_555 1_555
C85 C86 1_555 1_555
C86 C87 1_555 1_555
C87 C88 1_555 1_555
N14 C89 1_555 1_555
C91 N15 1_555 1_555
C100 C101 1_555 1_555
C104 C105 1_555 1_555
C105 C106 1_555 1_555
C106 C107 1_555 1_555
N17 C108 1_555 1_555
C110 N18 1_555 1_555
C113 C114 1_555 1_555
C5A C6A 1_555 1_555
C9A C10A 1_555 1_555
C10A C11A 1_555 1_555
C11A C12A 1_555 1_555
N2A C13A 1_555 1_555
C15A N3A 1_555 1_555
C16A C17A 1_555 1_555
C18A C19A 1_555 1_555
C24A C25A 1_555 1_555
C28A C29A 1_555 1_555
C29A C30A 1_555 1_555
C30A C31A 1_555 1_555
N5A C32A 1_555 1_555
C34A N6A 1_555 1_555
C36A C112A 1_555 1_555
C43A C44A 1_555 1_555
C47A C48A 1_555 1_555
C48A C49A 1_555 1_555
C49A C50A 1_555 1_555
N8A C51A 1_555 1_555
C53A N9A 1_555 1_555
C59A C60A 1_555 1_555
C63A N11A 1_555 1_555
N11A C64A 1_555 1_555
N12A C65A 1_555 1_555
C68A C69A 1_555 1_555
C74A C75A 1_555 1_555
C75A C76A 1_555 1_555
C81A C82A 1_555 1_555
C85A C86A 1_555 1_555
C86A C87A 1_555 1_555
C87A C88A 1_555 1_555
N14A C89A 1_555 1_555
C91A N15A 1_555 1_555
C92A C93A 1_555 1_555
C94A C95A 1_555 1_555
C100A C101A 1_555 1_555
C104A C105A 1_555 1_555
C105A C106A 1_555 1_555
C106A C107A 1_555 1_555
N17A C108A 1_555 1_555
C110A N18A 1_555 1_555
N18A C111A 1_555 1_555
C113A C114A 1_555 1_555

#END
