
#######################################################################
#
#                 Cambridge Crystallographic Data Centre
#                                CCDC 
#
#######################################################################
#
# If this CIF has been generated from an entry in the Cambridge 
# Structural Database, then it will include bibliographic, chemical, 
# crystal, experimental, refinement or atomic coordinate data resulting 
# from the CCDC's data processing and validation procedures.
#
#######################################################################

data_KEHLIT
_chemical_formula_moiety         
'C132 H96 N36 Pd6 6+,3.18(C8 H5 Mn1 O3),6(N1 O3 1-),73.1(H2 O1)'
_chemical_name_systematic        
"tetrakis(\m~3~-2,4,6-tris(4-Pyridyl)-1,3,5-triazine)-hexakis(2,2'-bipyridine)-hexa-palladium (tricarbonyl-(\h^5^-cyclopentadienyl)-manganese) clathrate hexanitrate hydrate"
_symmetry_cell_setting           tetragonal
_symmetry_space_group_name_H-M   'P 41 21 2'
_symmetry_Int_Tables_number      92
_space_group_name_Hall           'P 4abw 2nw'
loop_
_symmetry_equiv_pos_site_id
_symmetry_equiv_pos_as_xyz
1 x,y,z
2 -x,-y,1/2+z
3 1/2-y,1/2+x,1/4+z
4 1/2+y,1/2-x,3/4+z
5 1/2-x,1/2+y,1/4-z
6 1/2+x,1/2-y,3/4-z
7 y,x,-z
8 -y,-x,1/2-z
_cell_length_a                   29.055(3)
_cell_length_b                   29.055(3)
_cell_length_c                   30.767(7)
_cell_angle_alpha                90
_cell_angle_beta                 90
_cell_angle_gamma                90
_cell_volume                     25973.3
_exptl_crystal_colour            yellow
_exptl_crystal_description       block
_cell_formula_units_Z            4
loop_
_atom_site_label
_atom_site_type_symbol
_atom_site_fract_x
_atom_site_fract_y
_atom_site_fract_z
Pd1 Pd 0.52004(3) 0.04784(3) 0.82730(2)
Pd2 Pd 0.79642(3) 0.32162(3) 1.03966(2)
Pd3 Pd 0.50996(3) 0.49004(3) 0.7500
Pd4 Pd 0.96247(3) 0.03753(3) 0.7500
N1 N 0.5173(4) -0.0030(3) 0.8722(3)
N2 N 0.4547(3) 0.0279(3) 0.8204(3)
N3 N 0.5852(3) 0.0667(3) 0.8422(3)
N4 N 0.5209(3) 0.1001(3) 0.7826(2)
N5 N 0.7561(3) 0.0891(3) 0.8523(3)
N6 N 0.5308(3) 0.2539(3) 0.7108(3)
N7 N 0.5591(3) 0.2031(3) 0.6566(2)
N8 N 0.5594(3) 0.2841(3) 0.6434(3)
N9 N 0.5163(3) 0.4238(3) 0.7277(3)
N10 N 0.7822(3) 0.3589(3) 0.9854(2)
N11 N 0.8094(3) 0.3748(3) 1.0786(3)
N12 N 0.8152(3) 0.2880(3) 1.0938(3)
N13 N 0.7864(3) 0.2651(3) 1.0020(2)
N14 N 0.8048(3) 0.1399(3) 0.8922(3)
N15 N 0.7242(3) 0.1417(3) 0.9047(3)
N16 N 0.9094(4) 0.0566(3) 0.7883(3)
N17 N 0.9827(5) -0.0155(4) 0.7863(4)
N18 N 0.4998(4) 0.5553(4) 0.7683(3)
C1 C 0.7367(4) 0.2145(4) 0.9633(3)
H1 H 0.7064 0.2042 0.9567
C2 C 0.4258(3) 0.0452(4) 0.7906(4)
H2 H 0.4361 0.0669 0.7697
C3 C 0.5092(3) 0.3884(4) 0.7537(3)
H3 H 0.4990 0.3940 0.7826
C4 C 0.5302(3) 0.3363(4) 0.6989(3)
C5 C 0.8358(3) 0.0879(4) 0.8383(3)
C6 C 0.7677(3) 0.1565(3) 0.9119(3)
C7 C 0.5319(3) 0.1722(4) 0.7247(3)
C8 C 0.5681(3) 0.2397(4) 0.6320(3)
C9 C 0.8173(3) 0.2089(3) 0.9547(3)
H4 H 0.8436 0.1952 0.9417
C10 C 0.9159(4) 0.0899(4) 0.8182(3)
H5 H 0.9457 0.1030 0.8210
C11 C 0.8809(4) 0.1060(4) 0.8451(3)
H6 H 0.8868 0.1282 0.8671
C12 C 0.6209(3) 0.0499(4) 0.8201(3)
H7 H 0.6156 0.0290 0.7969
C13 C 0.5181(4) 0.1788(4) 0.7675(3)
H8 H 0.5123 0.2090 0.7782
C14 C 0.6658(4) 0.0625(4) 0.8302(4)
H9 H 0.6909 0.0507 0.8139
C15 C 0.8307(5) 0.3152(5) 1.1258(3)
C16 C 0.5397(4) 0.2882(4) 0.6844(3)
C17 C 0.6109(4) 0.1893(4) 0.5811(3)
H10 H 0.6066 0.1642 0.6005
C18 C 0.5399(4) 0.1264(4) 0.7119(3)
H11 H 0.5494 0.1198 0.6830
C19 C 0.8049(4) 0.4196(4) 1.0678(4)
H12 H 0.7919 0.4269 1.0403
C20 C 0.7205(4) 0.1084(4) 0.8764(3)
C21 C 0.7437(4) 0.2504(4) 0.9919(3)
H13 H 0.7179 0.2650 1.0047
C22 C 0.5406(3) 0.2113(4) 0.6954(3)
C23 C 0.8224(4) 0.2440(3) 0.9838(3)
H14 H 0.8525 0.2538 0.9914
C24 C 0.5925(3) 0.2322(4) 0.5901(3)
C25 C 0.5985(4) 0.2685(4) 0.5607(3)
H15 H 0.5860 0.2982 0.5662
C26 C 0.5129(4) 0.1421(3) 0.7937(3)
H16 H 0.5026 0.1475 0.8225
C27 C 0.6732(4) 0.0927(4) 0.8647(3)
C28 C 0.8182(5) 0.4555(6) 1.0947(5)
H17 H 0.8128 0.4867 1.0871
C29 C 0.7746(3) 0.1938(3) 0.9445(3)
C30 C 0.4403(4) -0.0019(4) 0.8497(4)
C31 C 0.5161(4) 0.3443(4) 0.7406(3)
H18 H 0.5112 0.3195 0.7601
C32 C 0.6235(4) 0.2592(4) 0.5233(3)
H19 H 0.6282 0.2833 0.5029
C33 C 0.5276(5) 0.4175(5) 0.6866(4)
H20 H 0.5300 0.4431 0.6675
C34 C 0.6357(4) 0.1842(4) 0.5431(3)
H21 H 0.6495 0.1553 0.5371
C35 C 0.8142(5) 0.2417(5) 1.0986(4)
H22 H 0.8020 0.2222 1.0767
C36 C 0.6349(4) 0.1107(5) 0.8869(4)
H23 H 0.6385 0.1331 0.9091
C37 C 0.7965(4) 0.1063(4) 0.8633(3)
C38 C 0.5917(4) 0.0945(4) 0.8752(4)
H24 H 0.5658 0.1039 0.8918
C39 C 0.8676(4) 0.0378(4) 0.7828(4)
H25 H 0.8635 0.0134 0.7627
C40 C 0.5363(4) 0.3728(4) 0.6711(4)
H26 H 0.5461 0.3679 0.6420
C41 C 0.5342(3) 0.0915(4) 0.7409(3)
H27 H 0.5395 0.0607 0.7319
C42 C 0.8486(7) 0.2510(7) 1.1702(4)
H28 H 0.8598 0.2380 1.1965
C43 C 0.4755(4) -0.0201(4) 0.8781(4)
C44 C 0.5529(5) -0.0190(5) 0.8964(4)
H29 H 0.5827 -0.0063 0.8921
C45 C 0.8278(5) 0.3640(5) 1.1177(4)
C46 C 0.3790(5) 0.0300(6) 0.7912(7)
H30 H 0.3588 0.0409 0.7693
C47 C 0.8490(6) 0.2990(7) 1.1646(4)
H31 H 0.8610 0.3191 1.1861
C48 C 0.5468(11) -0.0545(8) 0.9283(6)
H32 H 0.5721 -0.0665 0.9442
C49 C 0.8305(4) 0.0540(5) 0.8063(4)
H33 H 0.8008 0.0418 0.8008
C50 C 0.5027(9) -0.0706(6) 0.9350(7)
H34 H 0.4975 -0.0928 0.9571
C51 C 0.8445(7) 0.3988(7) 1.1438(5)
H35 H 0.8596 0.3909 1.1702
C52 C 0.8399(8) 0.4432(6) 1.1333(6)
H36 H 0.8514 0.4664 1.1521
C53 C 0.9642(7) -0.0296(6) 0.8241(6)
H37 H 0.9387 -0.0135 0.8361
C54 C 0.3634(5) 0.0027(7) 0.8198(8)
H38 H 0.3315 -0.0048 0.8203
C55 C 1.0352(7) -0.0765(7) 0.7929(8)
H39 H 1.0606 -0.0927 0.7810
C56 C 0.8326(5) 0.2234(6) 1.1385(5)
H40 H 0.8334 0.1910 1.1426
C57 C 0.3928(6) -0.0161(6) 0.8501(8)
H41 H 0.3820 -0.0379 0.8708
C58 C 0.4607(5) 0.5738(5) 0.7606(6)
C59 C 1.0167(7) -0.0415(7) 0.7707(5)
C60 C 0.5236(6) 0.6263(4) 0.8023(5)
H42 H 0.5463 0.6441 0.8168
C61 C 0.4643(9) -0.0543(6) 0.9094(6)
H43 H 0.4339 -0.0656 0.9131
C62 C 0.5316(6) 0.5815(5) 0.7892(5)
H44 H 0.5609 0.5684 0.7950
C63 C 1.0175(8) -0.0898(8) 0.8338(7)
H45 H 1.0307 -0.1136 0.8510
C64 C 0.9818(9) -0.0667(7) 0.8454(7)
H46 H 0.9664 -0.0763 0.8711
C65 C 0.4819(9) 0.6429(6) 0.7931(7)
H47 H 0.4746 0.6735 0.8014
C66 C 0.4498(8) 0.6175(6) 0.7724(9)
H48 H 0.4203 0.6299 0.7662
Pd1G Pd 0.95216(3) 0.47996(3) 0.67270(2)
Pd2G Pd 0.67838(3) 0.20358(3) 0.46034(2)
N1G N 1.0030(3) 0.4827(4) 0.6278(3)
N2G N 0.9721(3) 0.5453(3) 0.6796(3)
N3G N 0.9333(3) 0.4148(3) 0.6578(3)
N4G N 0.8999(3) 0.4791(3) 0.7174(2)
N5G N 0.9109(3) 0.2439(3) 0.6477(3)
N6G N 0.7461(3) 0.4692(3) 0.7892(3)
N7G N 0.7969(3) 0.4409(3) 0.8434(2)
N8G N 0.7159(3) 0.4406(3) 0.8566(3)
N9G N 0.5762(3) 0.4837(3) 0.7723(3)
N10G N 0.6411(3) 0.2178(3) 0.5146(2)
N11G N 0.6252(3) 0.1906(3) 0.4214(3)
N12G N 0.7120(3) 0.1848(3) 0.4062(3)
N13G N 0.7349(3) 0.2136(3) 0.4980(2)
N14G N 0.8601(3) 0.1952(3) 0.6078(3)
N15G N 0.8583(3) 0.2758(3) 0.5953(3)
N16G N 0.9434(3) 0.0906(4) 0.7117(3)
N17G N 1.0155(4) 0.0173(5) 0.7137(4)
N18G N 0.4447(4) 0.5002(4) 0.7317(3)
C1G C 0.7855(4) 0.2633(4) 0.5367(3)
H1G H 0.7958 0.2936 0.5433
C2G C 0.9548(4) 0.5742(3) 0.7094(4)
H2G H 0.9331 0.5639 0.7303
C3G C 0.6116(4) 0.4908(3) 0.7463(3)
H3G H 0.6060 0.5010 0.7174
C4G C 0.6637(4) 0.4698(3) 0.8011(3)
C5G C 0.9121(4) 0.1642(3) 0.6617(3)
C6G C 0.8435(3) 0.2323(3) 0.5881(3)
C7G C 0.8278(4) 0.4681(3) 0.7753(3)
C8G C 0.7603(4) 0.4319(3) 0.8680(3)
C9G C 0.7911(3) 0.1827(3) 0.5453(3)
H4G H 0.8048 0.1564 0.5583
C10G C 0.9101(4) 0.0841(4) 0.6818(3)
H5G H 0.8970 0.0543 0.6790
C11G C 0.8940(4) 0.1191(4) 0.6549(3)
H6G H 0.8718 0.1132 0.6329
C12G C 0.9501(4) 0.3791(3) 0.6799(3)
H7G H 0.9710 0.3844 0.7031
C13G C 0.8212(4) 0.4819(4) 0.7325(3)
H8G H 0.7910 0.4877 0.7218
C14G C 0.9375(4) 0.3342(4) 0.6698(4)
H9G H 0.9493 0.3091 0.6861
C15G C 0.6848(5) 0.1693(5) 0.3742(3)
C16G C 0.7118(4) 0.4603(4) 0.8156(3)
C17G C 0.8107(4) 0.3891(4) 0.9189(3)
H10G H 0.8358 0.3934 0.8995
C18G C 0.8736(4) 0.4601(4) 0.7881(3)
H11G H 0.8802 0.4506 0.8170
C19G C 0.5804(4) 0.1951(4) 0.4322(4)
H12G H 0.5731 0.2081 0.4597
C20G C 0.8916(4) 0.2795(4) 0.6236(3)
C21G C 0.7496(4) 0.2563(4) 0.5081(3)
H13G H 0.7350 0.2821 0.4953
C22G C 0.7887(4) 0.4594(3) 0.8046(3)
C23G C 0.7560(3) 0.1776(4) 0.5162(3)
H14G H 0.7462 0.1475 0.5086
C24G C 0.7678(4) 0.4075(3) 0.9099(3)
C25G C 0.7315(4) 0.4015(4) 0.9393(3)
H15G H 0.7018 0.4140 0.9338
C26G C 0.8579(3) 0.4871(4) 0.7063(3)
H16G H 0.8525 0.4974 0.6775
C27G C 0.9073(4) 0.3268(4) 0.6353(3)
C28G C 0.5445(6) 0.1818(5) 0.4053(5)
H17G H 0.5133 0.1872 0.4129
C29G C 0.8062(3) 0.2254(3) 0.5555(3)
C30G C 1.0019(4) 0.5597(4) 0.6503(4)
C31G C 0.6557(4) 0.4839(4) 0.7594(3)
H18G H 0.6805 0.4888 0.7399
C32G C 0.7408(4) 0.3765(4) 0.9767(3)
H19G H 0.7167 0.3718 0.9971
C33G C 0.5825(5) 0.4724(5) 0.8134(4)
H20G H 0.5569 0.4700 0.8325
C34G C 0.8158(4) 0.3643(4) 0.9569(3)
H21G H 0.8447 0.3505 0.9629
C35G C 0.7583(5) 0.1858(5) 0.4014(4)
H22G H 0.7778 0.1980 0.4233
C36G C 0.8893(5) 0.3651(4) 0.6131(4)
H23G H 0.8669 0.3615 0.5909
C37G C 0.8937(4) 0.2035(4) 0.6367(3)
C38G C 0.9055(4) 0.4083(4) 0.6248(4)
H24G H 0.8961 0.4342 0.6082
C39G C 0.9622(4) 0.1324(4) 0.7172(4)
H25G H 0.9866 0.1365 0.7373
C40G C 0.6272(4) 0.4637(4) 0.8289(4)
H26G H 0.6321 0.4539 0.8580
C41G C 0.9085(4) 0.4658(3) 0.7591(3)
H27G H 0.9393 0.4605 0.7681
C42G C 0.7490(7) 0.1514(7) 0.3298(4)
H28G H 0.7620 0.1402 0.3035
C43G C 1.0201(4) 0.5245(4) 0.6219(4)
C44G C 1.0190(5) 0.4471(5) 0.6036(4)
H29G H 1.0063 0.4173 0.6079
C45G C 0.6360(5) 0.1722(5) 0.3823(4)
C46G C 0.9700(6) 0.6210(5) 0.7088(7)
H30G H 0.9591 0.6412 0.7307
C47G C 0.7010(7) 0.1510(6) 0.3354(4)
H31G H 0.6809 0.1390 0.3139
C48G C 1.0545(8) 0.4532(11) 0.5717(6)
H32G H 1.0665 0.4279 0.5558
C49G C 0.9460(5) 0.1695(4) 0.6937(4)
H33G H 0.9582 0.1992 0.6992
C50G C 1.0706(6) 0.4973(9) 0.5650(7)
H34G H 1.0928 0.5025 0.5429
C51G C 0.6012(7) 0.1555(7) 0.3562(5)
H35G H 0.6091 0.1404 0.3298
C52G C 0.5568(6) 0.1601(8) 0.3667(6)
H36G H 0.5336 0.1486 0.3479
C53G C 1.0296(6) 0.0358(7) 0.6759(6)
H37G H 1.0135 0.0613 0.6639
C54G C 0.9973(7) 0.6366(5) 0.6802(8)
H38G H 1.0048 0.6685 0.6797
C55G C 1.0765(7) -0.0352(7) 0.7071(8)
H39G H 1.0927 -0.0606 0.7190
C56G C 0.7766(6) 0.1674(5) 0.3615(5)
H40G H 0.8090 0.1666 0.3574
C57G C 1.0161(6) 0.6072(6) 0.6499(8)
H41G H 1.0379 0.6180 0.6292
C58G C 0.4262(5) 0.5393(5) 0.7394(6)
C59G C 1.0415(7) -0.0167(7) 0.7293(5)
C60G C 0.3737(4) 0.4764(6) 0.6977(5)
H42G H 0.3559 0.4537 0.6832
C61G C 1.0543(6) 0.5357(9) 0.5906(6)
H43G H 1.0656 0.5661 0.5869
C62G C 0.4185(5) 0.4684(6) 0.7108(5)
H44G H 0.4316 0.4391 0.7050
C63G C 1.0898(8) -0.0175(8) 0.6662(7)
H45G H 1.1136 -0.0307 0.6490
C64G C 1.0667(7) 0.0182(9) 0.6546(7)
H46G H 1.0763 0.0336 0.6289
C65G C 0.3571(6) 0.5181(9) 0.7069(7)
H47G H 0.3265 0.5254 0.6986
C66G C 0.3825(6) 0.5502(8) 0.7276(9)
H48G H 0.3701 0.5797 0.7338
C67 C 0.7106(8) 0.6493(9) 0.5558(9)
H49 H 0.6866 0.6622 0.5359
C68 C 0.7244(8) 0.6033(9) 0.5539(8)
H50 H 0.7116 0.5782 0.5353
C69 C 0.7558(7) 0.5996(7) 0.5874(6)
H51 H 0.7721 0.5709 0.5966
C70 C 0.7609(9) 0.6428(8) 0.6059(7)
H52 H 0.7821 0.6495 0.6307
C71 C 0.7340(10) 0.6761(12) 0.5854(10)
H53 H 0.7287 0.7089 0.5936
Mn1 Mn 0.77987(8) 0.64871(9) 0.53973(8)
C72 C 0.7712(3) 0.6638(3) 0.4847(4)
O1 O 0.7652(4) 0.6741(4) 0.4492(4)
C73 C 0.8171(7) 0.6956(7) 0.5493(4)
O2 O 0.8450(6) 0.7245(6) 0.5544(5)
C74 C 0.8262(6) 0.6105(6) 0.5277(5)
O3 O 0.8567(5) 0.5834(5) 0.5199(4)
Mn2 Mn 0.79317(13) 0.85920(18) 0.60429(14)
C75 C 0.7449(10) 0.9062(11) 0.6246(12)
H54 H 0.7460 0.9194 0.6545
C76 C 0.7706(11) 0.9228(10) 0.5935(11)
H55 H 0.7896 0.9515 0.5953
C77 C 0.7646(11) 0.8960(12) 0.5569(12)
H56 H 0.7768 0.9016 0.5269
C78 C 0.7352(9) 0.8627(11) 0.5701(9)
H57 H 0.7237 0.8375 0.5508
C79 C 0.7228(9) 0.8674(12) 0.6168(10)
H58 H 0.7012 0.8491 0.6353
C80 C 0.8318(8) 0.8410(6) 0.5664(7)
O4 O 0.8600(10) 0.8278(9) 0.5387(8)
C81 C 0.7918(10) 0.8005(9) 0.6262(8)
O5 O 0.7921(10) 0.7612(10) 0.6419(9)
C82 C 0.8321(11) 0.8756(11) 0.6402(10)
O6 O 0.8707(11) 0.8843(10) 0.6611(9)
N19 N 0.6584(5) 0.0855(4) 0.4587(4)
O7 O 0.6625(5) 0.0723(4) 0.4202(4)
O8 O 0.6919(4) 0.0928(4) 0.4811(4)
O9 O 0.6191(5) 0.0914(4) 0.4730(4)
N20 N 0.8842(4) 0.5458(4) 0.6069(3)
O10 O 0.9188(3) 0.5325(4) 0.5846(3)
O11 O 0.8820(3) 0.5823(3) 0.6275(3)
O12 O 0.8476(3) 0.5195(3) 0.6053(3)
N21 N 1.0489(10) 0.4671(9) 0.7301(9)
O13 O 1.0243(15) 0.4886(13) 0.7564(13)
O14 O 1.0775(10) 0.4899(9) 0.7106(9)
O15 O 1.0356(8) 0.4272(8) 0.7232(8)
N22 N 0.572(2) 0.4335(18) 0.9507(19)
O16 O 0.6060(17) 0.4458(16) 0.9736(13)
O17 O 0.5631(12) 0.4584(13) 0.9201(11)
O18 O 0.5356(9) 0.3962(9) 0.9535(8)
N23 N -0.4704(8) 0.5781(8) 0.6734(9)
O19 O -0.4444(7) 0.6092(7) 0.6898(7)
O20 O -0.5045(6) 0.5940(6) 0.6581(6)
O21 O -0.4525(7) 0.5400(7) 0.6642(7)
O22 O 0.5689(12) 0.8274(11) 0.8784(10)
O23 O 0.7589(8) 0.0618(7) 0.4101(7)
O24 O -0.3554(8) 0.5888(8) 0.7135(7)
O25 O 0.8427(8) 0.1081(8) 0.4474(7)
O27 O 0.0222(13) 0.8358(13) 1.3885(11)
O28 O -0.403(2) 0.6770(19) 0.7287(18)
O29 O -0.4130(14) 0.7422(14) 0.7543(13)
O30 O 0.2998(4) -0.0840(4) 1.0680(4)
O31 O 0.6157(14) 0.8282(13) 0.7663(13)
O33 O 1.0333(5) 0.3513(5) 0.7804(5)
O34 O 0.0016(8) 0.7371(8) 1.2499(9)
O37 O 0.7971(7) 0.1423(7) 1.0549(6)
O38 O 0.6836(7) 0.8776(7) 0.7259(6)
O39 O 0.9738(10) 0.1464(9) 1.1810(8)
O40 O 0.9732(8) 0.2424(8) 1.1637(8)
O41 O 0.9547(10) 0.2107(10) 0.9254(9)
O42 O -0.0061(15) 0.8082(15) 1.3122(13)
O43 O 0.6039(13) 0.8922(13) 0.8370(12)
O44 O 0.8864(10) 0.0957(10) 0.3753(9)
O45 O -0.4729(13) 0.7015(14) 0.6839(12)
O46 O 0.6858(14) 0.4519(14) 1.0382(13)
O47 O 0.7015(15) 0.4960(15) 1.1042(13)
O48 O 0.5026(9) 0.8385(9) 0.6761(9)
O49 O 0.8804(12) 0.3722(13) 1.2510(12)
O50 O 0.784(2) 0.368(2) 0.446(2)
O51 O -0.2598(19) 0.8080(19) 0.8513(17)
O52 O 0.3415(16) 0.3928(17) 0.4835(15)
O53 O -0.132(2) 0.940(2) 0.8801(17)
O54 O -0.1500(15) 0.9122(14) 0.7822(13)
O55 O 0.876(2) 0.445(2) 1.2390(19)
O56 O 0.7582(15) 0.5273(14) 1.1655(13)
O57 O 0.738(2) 0.393(2) 1.2298(18)
O58 O 0.7665(18) 0.4636(18) 1.2190(16)
O59 O -0.0529(19) 0.7393(19) 1.1654(18)
O60 O 0.5967(11) 0.6789(11) 0.8819(11)
O61 O 0.6075(11) 0.6792(11) 0.9424(10)
O62 O 0.9361(13) 0.3276(13) 1.2756(11)
O63 O -0.1781(10) 0.8096(10) 0.8135(9)
O64 O 1.0019(7) 0.2722(8) 1.2495(7)
loop_
_geom_bond_atom_site_label_1
_geom_bond_atom_site_label_2
_geom_bond_site_symmetry_1
_geom_bond_site_symmetry_2
Pd1 N1 1_555 1_555
Pd2 N10 1_555 1_555
Pd3 N9 1_555 1_555
Pd4 N16 1_555 1_555
N1 C43 1_555 1_555
N2 Pd1 1_555 1_555
N3 Pd1 1_555 1_555
N4 Pd1 1_555 1_555
N5 C20 1_555 1_555
N6 C16 1_555 1_555
N7 C8 1_555 1_555
N8 C8 1_555 1_555
N9 C3 1_555 1_555
N10 C32G 1_555 1_555
N11 Pd2 1_555 1_555
N12 Pd2 1_555 1_555
N13 Pd2 1_555 1_555
N14 C6 1_555 1_555
N15 C6 1_555 1_555
N16 C10 1_555 1_555
N17 Pd4 1_555 1_555
N18 Pd3 1_555 1_555
C1 H1 1_555 1_555
C2 N2 1_555 1_555
H2 C2 1_555 1_555
C3 H3 1_555 1_555
C4 C16 1_555 1_555
C5 C11 1_555 1_555
C6 C29 1_555 1_555
C7 C13 1_555 1_555
C8 C24 1_555 1_555
C9 H4 1_555 1_555
C10 H5 1_555 1_555
C11 C10 1_555 1_555
H6 C11 1_555 1_555
C12 N3 1_555 1_555
H7 C12 1_555 1_555
C13 H8 1_555 1_555
C14 C12 1_555 1_555
H9 C14 1_555 1_555
C15 N12 1_555 1_555
C16 N8 1_555 1_555
C17 H10 1_555 1_555
C18 C7 1_555 1_555
H11 C18 1_555 1_555
C19 N11 1_555 1_555
H12 C19 1_555 1_555
C20 N15 1_555 1_555
C21 N13 1_555 1_555
H13 C21 1_555 1_555
C22 N6 1_555 1_555
C23 N13 1_555 1_555
H14 C23 1_555 1_555
C24 C17 1_555 1_555
C25 C24 1_555 1_555
H15 C25 1_555 1_555
C26 N4 1_555 1_555
H16 C26 1_555 1_555
C27 C14 1_555 1_555
C28 C19 1_555 1_555
H17 C28 1_555 1_555
C29 C1 1_555 1_555
C30 N2 1_555 1_555
C31 C3 1_555 1_555
H18 C31 1_555 1_555
C32 C25 1_555 1_555
H19 C32 1_555 1_555
C33 N9 1_555 1_555
H20 C33 1_555 1_555
C34 C17 1_555 1_555
H21 C34 1_555 1_555
C35 N12 1_555 1_555
H22 C35 1_555 1_555
C36 C27 1_555 1_555
H23 C36 1_555 1_555
C37 N5 1_555 1_555
C38 N3 1_555 1_555
H24 C38 1_555 1_555
C39 N16 1_555 1_555
H25 C39 1_555 1_555
C40 C4 1_555 1_555
H26 C40 1_555 1_555
C41 N4 1_555 1_555
H27 C41 1_555 1_555
C42 H28 1_555 1_555
C43 C30 1_555 1_555
C44 N1 1_555 1_555
H29 C44 1_555 1_555
C45 N11 1_555 1_555
C46 C2 1_555 1_555
H30 C46 1_555 1_555
C47 C15 1_555 1_555
H31 C47 1_555 1_555
C48 C44 1_555 1_555
H32 C48 1_555 1_555
C49 C5 1_555 1_555
H33 C49 1_555 1_555
C50 C48 1_555 1_555
H34 C50 1_555 1_555
C51 C45 1_555 1_555
H35 C51 1_555 1_555
C52 C28 1_555 1_555
H36 C52 1_555 1_555
C53 N17 1_555 1_555
H37 C53 1_555 1_555
C54 C46 1_555 1_555
H38 C54 1_555 1_555
C55 H39 1_555 1_555
C56 C35 1_555 1_555
H40 C56 1_555 1_555
C57 C30 1_555 1_555
H41 C57 1_555 1_555
C58 N18 1_555 1_555
C59 N17 1_555 1_555
C60 H42 1_555 1_555
C61 C43 1_555 1_555
H43 C61 1_555 1_555
C62 N18 1_555 1_555
H44 C62 1_555 1_555
C63 C55 1_555 1_555
H45 C63 1_555 1_555
C64 C53 1_555 1_555
H46 C64 1_555 1_555
C65 C60 1_555 1_555
H47 C65 1_555 1_555
C66 C58 1_555 1_555
H48 C66 1_555 1_555
C67 H49 1_555 1_555
C68 C67 1_555 1_555
H50 C68 1_555 1_555
C69 C68 1_555 1_555
H51 C69 1_555 1_555
C70 C69 1_555 1_555
H52 C70 1_555 1_555
C71 C67 1_555 1_555
H53 C71 1_555 1_555
Mn1 C67 1_555 1_555
C72 Mn1 1_555 1_555
O1 C72 1_555 1_555
C73 Mn1 1_555 1_555
O2 C73 1_555 1_555
C74 Mn1 1_555 1_555
O3 C74 1_555 1_555
Mn2 C75 1_555 1_555
C75 H54 1_555 1_555
C76 Mn2 1_555 1_555
H55 C76 1_555 1_555
C77 Mn2 1_555 1_555
H56 C77 1_555 1_555
C78 Mn2 1_555 1_555
H57 C78 1_555 1_555
C79 Mn2 1_555 1_555
H58 C79 1_555 1_555
C80 Mn2 1_555 1_555
O4 C80 1_555 1_555
C81 Mn2 1_555 1_555
O5 C81 1_555 1_555
C82 Mn2 1_555 1_555
O6 C82 1_555 1_555
N19 O7 1_555 1_555
O8 N19 1_555 1_555
O9 N19 1_555 1_555
N20 O10 1_555 1_555
O11 N20 1_555 1_555
O12 N20 1_555 1_555
N21 O13 1_555 1_555
O14 N21 1_555 1_555
O15 N21 1_555 1_555
N22 O16 1_555 1_555
O17 N22 1_555 1_555
O18 N22 1_555 1_555
N23 O19 1_555 1_555
O20 N23 1_555 1_555
O21 N23 1_555 1_555
Pd1G N1G 1_555 1_555
Pd2G N10G 1_555 1_555
N1G C43G 1_555 1_555
N2G Pd1G 1_555 1_555
N3G Pd1G 1_555 1_555
N4G Pd1G 1_555 1_555
N5G C20G 1_555 1_555
N6G C16G 1_555 1_555
N7G C8G 1_555 1_555
N8G C8G 1_555 1_555
N9G Pd3 1_555 1_555
N10G C32 1_555 1_555
N11G Pd2G 1_555 1_555
N12G Pd2G 1_555 1_555
N13G Pd2G 1_555 1_555
N14G C6G 1_555 1_555
N15G C6G 1_555 1_555
N16G Pd4 1_555 1_555
N17G Pd4 1_555 1_555
N18G Pd3 1_555 1_555
C1G H1G 1_555 1_555
C2G N2G 1_555 1_555
H2G C2G 1_555 1_555
C3G N9G 1_555 1_555
H3G C3G 1_555 1_555
C4G C16G 1_555 1_555
C5G C11G 1_555 1_555
C6G C29G 1_555 1_555
C7G C13G 1_555 1_555
C8G C24G 1_555 1_555
C9G H4G 1_555 1_555
C10G N16G 1_555 1_555
H5G C10G 1_555 1_555
C11G C10G 1_555 1_555
H6G C11G 1_555 1_555
C12G N3G 1_555 1_555
H7G C12G 1_555 1_555
C13G H8G 1_555 1_555
C14G C12G 1_555 1_555
H9G C14G 1_555 1_555
C15G N12G 1_555 1_555
C16G N8G 1_555 1_555
C17G H10G 1_555 1_555
C18G C7G 1_555 1_555
H11G C18G 1_555 1_555
C19G N11G 1_555 1_555
H12G C19G 1_555 1_555
C20G N15G 1_555 1_555
C21G N13G 1_555 1_555
H13G C21G 1_555 1_555
C22G N6G 1_555 1_555
C23G N13G 1_555 1_555
H14G C23G 1_555 1_555
C24G C17G 1_555 1_555
C25G C24G 1_555 1_555
H15G C25G 1_555 1_555
C26G N4G 1_555 1_555
H16G C26G 1_555 1_555
C27G C14G 1_555 1_555
C28G C19G 1_555 1_555
H17G C28G 1_555 1_555
C29G C1G 1_555 1_555
C30G N2G 1_555 1_555
C31G C3G 1_555 1_555
H18G C31G 1_555 1_555
C32G C25G 1_555 1_555
H19G C32G 1_555 1_555
C33G N9G 1_555 1_555
H20G C33G 1_555 1_555
C34G N10 1_555 1_555
H21G C34G 1_555 1_555
C35G N12G 1_555 1_555
H22G C35G 1_555 1_555
C36G C27G 1_555 1_555
H23G C36G 1_555 1_555
C37G N5G 1_555 1_555
C38G N3G 1_555 1_555
H24G C38G 1_555 1_555
C39G N16G 1_555 1_555
H25G C39G 1_555 1_555
C40G C4G 1_555 1_555
H26G C40G 1_555 1_555
C41G N4G 1_555 1_555
H27G C41G 1_555 1_555
C42G H28G 1_555 1_555
C43G C30G 1_555 1_555
C44G N1G 1_555 1_555
H29G C44G 1_555 1_555
C45G N11G 1_555 1_555
C46G C2G 1_555 1_555
H30G C46G 1_555 1_555
C47G C15G 1_555 1_555
H31G C47G 1_555 1_555
C48G C44G 1_555 1_555
H32G C48G 1_555 1_555
C49G C5G 1_555 1_555
H33G C49G 1_555 1_555
C50G C48G 1_555 1_555
H34G C50G 1_555 1_555
C51G C45G 1_555 1_555
H35G C51G 1_555 1_555
C52G C28G 1_555 1_555
H36G C52G 1_555 1_555
C53G N17G 1_555 1_555
H37G C53G 1_555 1_555
C54G C46G 1_555 1_555
H38G C54G 1_555 1_555
C55G H39G 1_555 1_555
C56G C35G 1_555 1_555
H40G C56G 1_555 1_555
C57G C30G 1_555 1_555
H41G C57G 1_555 1_555
C58G C58 1_555 1_555
C59G C59 1_555 1_555
C60G H42G 1_555 1_555
C61G C43G 1_555 1_555
H43G C61G 1_555 1_555
C62G N18G 1_555 1_555
H44G C62G 1_555 1_555
C63G C55G 1_555 1_555
H45G C63G 1_555 1_555
C64G C53G 1_555 1_555
H46G C64G 1_555 1_555
C65G C60G 1_555 1_555
H47G C65G 1_555 1_555
C66G C58G 1_555 1_555
H48G C66G 1_555 1_555
N7 C22 1_555 1_555
N14 C37 1_555 1_555
C1 C21 1_555 1_555
C4 C31 1_555 1_555
C5 C37 1_555 1_555
C7 C22 1_555 1_555
C9 C23 1_555 1_555
C9 C29 1_555 1_555
C13 C26 1_555 1_555
C15 C45 1_555 1_555
C18 C41 1_555 1_555
C20 C27 1_555 1_555
C33 C40 1_555 1_555
C34 N10G 1_555 1_555
C36 C38 1_555 1_555
C39 C49 1_555 1_555
C42 C47 1_555 1_555
C42 C56 1_555 1_555
C50 C61 1_555 1_555
C51 C52 1_555 1_555
C54 C57 1_555 1_555
C55 C59 1_555 1_555
C60 C62 1_555 1_555
C63 C64 1_555 1_555
C65 C66 1_555 1_555
C68 Mn1 1_555 1_555
C69 Mn1 1_555 1_555
C70 C71 1_555 1_555
C70 Mn1 1_555 1_555
C71 Mn1 1_555 1_555
C75 C76 1_555 1_555
C75 C79 1_555 1_555
C76 C77 1_555 1_555
C77 C78 1_555 1_555
C78 C79 1_555 1_555
N7G C22G 1_555 1_555
N14G C37G 1_555 1_555
N17G C59G 1_555 1_555
N18G C58G 1_555 1_555
C1G C21G 1_555 1_555
C4G C31G 1_555 1_555
C5G C37G 1_555 1_555
C7G C22G 1_555 1_555
C9G C23G 1_555 1_555
C9G C29G 1_555 1_555
C13G C26G 1_555 1_555
C15G C45G 1_555 1_555
C17G C34G 1_555 1_555
C18G C41G 1_555 1_555
C20G C27G 1_555 1_555
C33G C40G 1_555 1_555
C36G C38G 1_555 1_555
C39G C49G 1_555 1_555
C42G C47G 1_555 1_555
C42G C56G 1_555 1_555
C50G C61G 1_555 1_555
C51G C52G 1_555 1_555
C54G C57G 1_555 1_555
C55G C59G 1_555 1_555
C60G C62G 1_555 1_555
C63G C64G 1_555 1_555
C65G C66G 1_555 1_555

#END
