# generated using pymatgen
data_Mn10Pd12C307N100O121
_symmetry_space_group_name_H-M   'P 1'
_cell_length_a   24.33110000
_cell_length_b   46.31860000
_cell_length_c   46.72000000
_cell_angle_alpha   90.00000000
_cell_angle_beta   99.66560000
_cell_angle_gamma   90.00000000
_symmetry_Int_Tables_number   1
_chemical_formula_structural   Mn10Pd12C307N100O121
_chemical_formula_sum   'Mn40 Pd48 C1228 N400 O484'
_cell_volume   51905.18900367
_cell_formula_units_Z   4
loop_
 _symmetry_equiv_pos_site_id
 _symmetry_equiv_pos_as_xyz
  1  'x, y, z'
loop_
 _atom_site_type_symbol
 _atom_site_label
 _atom_site_symmetry_multiplicity
 _atom_site_fract_x
 _atom_site_fract_y
 _atom_site_fract_z
 _atom_site_occupancy
  Mn  Mn1  1  0.019220  0.588370  0.092150  1
  Mn  Mn2  1  0.980780  0.088370  0.407850  1
  Mn  Mn3  1  0.980780  0.411630  0.907850  1
  Mn  Mn4  1  0.019220  0.911630  0.592150  1
  Mn  Mn5  1  0.949040  0.710210  0.110280  1
  Mn  Mn6  1  0.050960  0.210210  0.389720  1
  Mn  Mn7  1  0.050960  0.289790  0.889720  1
  Mn  Mn8  1  0.949040  0.789790  0.610280  1
  Mn  Mn9  1  0.204800  0.735810  0.138760  1
  Mn  Mn10  1  0.795200  0.235810  0.361240  1
  Mn  Mn11  1  0.795200  0.264190  0.861240  1
  Mn  Mn12  1  0.204800  0.764190  0.638760  1
  Mn  Mn13  1  0.988500  0.732240  0.986030  1
  Mn  Mn14  1  0.011500  0.232240  0.513970  1
  Mn  Mn15  1  0.011500  0.267760  0.013970  1
  Mn  Mn16  1  0.988500  0.767760  0.486030  1
  Mn  Mn17  1  0.628600  0.927060  0.286750  1
  Mn  Mn18  1  0.371400  0.427060  0.213250  1
  Mn  Mn19  1  0.371400  0.072940  0.713250  1
  Mn  Mn20  1  0.628600  0.572940  0.786750  1
  Mn  Mn21  1  0.672200  0.774010  0.372470  1
  Mn  Mn22  1  0.327800  0.274010  0.127530  1
  Mn  Mn23  1  0.327800  0.225990  0.627530  1
  Mn  Mn24  1  0.672200  0.725990  0.872470  1
  Mn  Mn25  1  0.704400  0.806780  0.251580  1
  Mn  Mn26  1  0.295600  0.306780  0.248420  1
  Mn  Mn27  1  0.295600  0.193220  0.748420  1
  Mn  Mn28  1  0.704400  0.693220  0.751580  1
  Mn  Mn29  1  0.444200  0.776800  0.233600  1
  Mn  Mn30  1  0.555800  0.276800  0.266400  1
  Mn  Mn31  1  0.555800  0.223200  0.766400  1
  Mn  Mn32  1  0.444200  0.723200  0.733600  1
  Mn  Mn33  1  0.681500  0.794400  0.221300  1
  Mn  Mn34  1  0.318500  0.294400  0.278700  1
  Mn  Mn35  1  0.318500  0.205600  0.778700  1
  Mn  Mn36  1  0.681500  0.705600  0.721300  1
  Mn  Mn37  1  0.450300  0.782100  0.212500  1
  Mn  Mn38  1  0.549700  0.282100  0.287500  1
  Mn  Mn39  1  0.549700  0.217900  0.787500  1
  Mn  Mn40  1  0.450300  0.717900  0.712500  1
  Pd  Pd41  1  0.857590  0.947940  0.205280  1
  Pd  Pd42  1  0.142410  0.447940  0.294720  1
  Pd  Pd43  1  0.142410  0.052060  0.794720  1
  Pd  Pd44  1  0.857590  0.552060  0.705280  1
  Pd  Pd45  1  0.579170  0.715740  0.099120  1
  Pd  Pd46  1  0.420830  0.215740  0.400880  1
  Pd  Pd47  1  0.420830  0.284260  0.900880  1
  Pd  Pd48  1  0.579170  0.784260  0.599120  1
  Pd  Pd49  1  0.320260  0.927980  0.199920  1
  Pd  Pd50  1  0.679740  0.427980  0.300080  1
  Pd  Pd51  1  0.679740  0.072020  0.800080  1
  Pd  Pd52  1  0.320260  0.572020  0.699920  1
  Pd  Pd53  1  0.654960  0.922770  0.446480  1
  Pd  Pd54  1  0.345040  0.422770  0.053520  1
  Pd  Pd55  1  0.345040  0.077230  0.553520  1
  Pd  Pd56  1  0.654960  0.577230  0.946480  1
  Pd  Pd57  1  0.920290  0.705590  0.350650  1
  Pd  Pd58  1  0.079710  0.205590  0.149350  1
  Pd  Pd59  1  0.079710  0.294410  0.649350  1
  Pd  Pd60  1  0.920290  0.794410  0.850650  1
  Pd  Pd61  1  0.383690  0.684680  0.344110  1
  Pd  Pd62  1  0.616310  0.184680  0.155890  1
  Pd  Pd63  1  0.616310  0.315320  0.655890  1
  Pd  Pd64  1  0.383690  0.815320  0.844110  1
  Pd  Pd65  1  0.779810  0.582570  0.168230  1
  Pd  Pd66  1  0.220190  0.082570  0.331770  1
  Pd  Pd67  1  0.220190  0.417430  0.831770  1
  Pd  Pd68  1  0.779810  0.917430  0.668230  1
  Pd  Pd69  1  0.323450  0.579070  0.187090  1
  Pd  Pd70  1  0.676550  0.079070  0.312910  1
  Pd  Pd71  1  0.676550  0.420930  0.812910  1
  Pd  Pd72  1  0.323450  0.920930  0.687090  1
  Pd  Pd73  1  0.068140  0.816510  0.250580  1
  Pd  Pd74  1  0.931860  0.316510  0.249420  1
  Pd  Pd75  1  0.931860  0.183490  0.749420  1
  Pd  Pd76  1  0.068140  0.683490  0.750580  1
  Pd  Pd77  1  0.742750  0.809220  0.996720  1
  Pd  Pd78  1  0.257250  0.309220  0.503280  1
  Pd  Pd79  1  0.257250  0.190780  0.003280  1
  Pd  Pd80  1  0.742750  0.690780  0.496720  1
  Pd  Pd81  1  0.283690  0.801260  0.013450  1
  Pd  Pd82  1  0.716310  0.301260  0.486550  1
  Pd  Pd83  1  0.716310  0.198740  0.986550  1
  Pd  Pd84  1  0.283690  0.698740  0.513450  1
  Pd  Pd85  1  0.991760  0.568600  0.933150  1
  Pd  Pd86  1  0.008240  0.068600  0.566850  1
  Pd  Pd87  1  0.008240  0.431400  0.066850  1
  Pd  Pd88  1  0.991760  0.931400  0.433150  1
  C  C89  1  0.784200  0.901700  0.176500  1
  C  C90  1  0.215800  0.401700  0.323500  1
  C  C91  1  0.215800  0.098300  0.823500  1
  C  C92  1  0.784200  0.598300  0.676500  1
  C  C93  1  0.736200  0.886700  0.169100  1
  C  C94  1  0.263800  0.386700  0.330900  1
  C  C95  1  0.263800  0.113300  0.830900  1
  C  C96  1  0.736200  0.613300  0.669100  1
  C  C97  1  0.685700  0.896800  0.174000  1
  C  C98  1  0.314300  0.396800  0.326000  1
  C  C99  1  0.314300  0.103200  0.826000  1
  C  C100  1  0.685700  0.603200  0.674000  1
  C  C101  1  0.686800  0.923500  0.189000  1
  C  C102  1  0.313200  0.423500  0.311000  1
  C  C103  1  0.313200  0.076500  0.811000  1
  C  C104  1  0.686800  0.576500  0.689000  1
  C  C105  1  0.738400  0.937500  0.195100  1
  C  C106  1  0.261600  0.437500  0.304900  1
  C  C107  1  0.261600  0.062500  0.804900  1
  C  C108  1  0.738400  0.562500  0.695100  1
  C  C109  1  0.531800  0.771700  0.112600  1
  C  C110  1  0.468200  0.271700  0.387400  1
  C  C111  1  0.468200  0.228300  0.887400  1
  C  C112  1  0.531800  0.728300  0.612600  1
  C  C113  1  0.532200  0.798700  0.124000  1
  C  C114  1  0.467800  0.298700  0.376000  1
  C  C115  1  0.467800  0.201300  0.876000  1
  C  C116  1  0.532200  0.701300  0.624000  1
  C  C117  1  0.584900  0.814100  0.130900  1
  C  C118  1  0.415100  0.314100  0.369100  1
  C  C119  1  0.415100  0.185900  0.869100  1
  C  C120  1  0.584900  0.685900  0.630900  1
  C  C121  1  0.630900  0.801400  0.126300  1
  C  C122  1  0.369100  0.301400  0.373700  1
  C  C123  1  0.369100  0.198600  0.873700  1
  C  C124  1  0.630900  0.698600  0.626300  1
  C  C125  1  0.629100  0.773900  0.114800  1
  C  C126  1  0.370900  0.273900  0.385200  1
  C  C127  1  0.370900  0.226100  0.885200  1
  C  C128  1  0.629100  0.726100  0.614800  1
  C  C129  1  0.437500  0.926900  0.192100  1
  C  C130  1  0.562500  0.426900  0.307900  1
  C  C131  1  0.562500  0.073100  0.807900  1
  C  C132  1  0.437500  0.573100  0.692100  1
  C  C133  1  0.485300  0.917700  0.184600  1
  C  C134  1  0.514700  0.417700  0.315400  1
  C  C135  1  0.514700  0.082300  0.815400  1
  C  C136  1  0.485300  0.582300  0.684600  1
  C  C137  1  0.487700  0.890700  0.170600  1
  C  C138  1  0.512300  0.390700  0.329400  1
  C  C139  1  0.512300  0.109300  0.829400  1
  C  C140  1  0.487700  0.609300  0.670600  1
  C  C141  1  0.439000  0.877100  0.162900  1
  C  C142  1  0.561000  0.377100  0.337100  1
  C  C143  1  0.561000  0.122900  0.837100  1
  C  C144  1  0.439000  0.622900  0.662900  1
  C  C145  1  0.389100  0.889700  0.170600  1
  C  C146  1  0.610900  0.389700  0.329400  1
  C  C147  1  0.610900  0.110300  0.829400  1
  C  C148  1  0.389100  0.610300  0.670600  1
  C  C149  1  0.836300  0.939400  0.265300  1
  C  C150  1  0.163700  0.439400  0.234700  1
  C  C151  1  0.163700  0.060600  0.734700  1
  C  C152  1  0.836300  0.560600  0.765300  1
  C  C153  1  0.830500  0.924000  0.290000  1
  C  C154  1  0.169500  0.424000  0.210000  1
  C  C155  1  0.169500  0.076000  0.710000  1
  C  C156  1  0.830500  0.576000  0.790000  1
  C  C157  1  0.848500  0.895100  0.292500  1
  C  C158  1  0.151500  0.395100  0.207500  1
  C  C159  1  0.151500  0.104900  0.707500  1
  C  C160  1  0.848500  0.604900  0.792500  1
  C  C161  1  0.867100  0.882500  0.270500  1
  C  C162  1  0.132900  0.382500  0.229500  1
  C  C163  1  0.132900  0.117500  0.729500  1
  C  C164  1  0.867100  0.617500  0.770500  1
  C  C165  1  0.871700  0.898100  0.245600  1
  C  C166  1  0.128300  0.398100  0.254400  1
  C  C167  1  0.128300  0.101900  0.754400  1
  C  C168  1  0.871700  0.601900  0.745600  1
  C  C169  1  0.732500  0.881400  0.424800  1
  C  C170  1  0.267500  0.381400  0.075200  1
  C  C171  1  0.267500  0.118600  0.575200  1
  C  C172  1  0.732500  0.618600  0.924800  1
  C  C173  1  0.764400  0.869500  0.405700  1
  C  C174  1  0.235600  0.369500  0.094300  1
  C  C175  1  0.235600  0.130500  0.594300  1
  C  C176  1  0.764400  0.630500  0.905700  1
  C  C177  1  0.773600  0.886100  0.382400  1
  C  C178  1  0.226400  0.386100  0.117600  1
  C  C179  1  0.226400  0.113900  0.617600  1
  C  C180  1  0.773600  0.613900  0.882400  1
  C  C181  1  0.752400  0.912900  0.378100  1
  C  C182  1  0.247600  0.412900  0.121900  1
  C  C183  1  0.247600  0.087100  0.621900  1
  C  C184  1  0.752400  0.587100  0.878100  1
  C  C185  1  0.718400  0.924200  0.398200  1
  C  C186  1  0.281600  0.424200  0.101800  1
  C  C187  1  0.281600  0.075800  0.601800  1
  C  C188  1  0.718400  0.575800  0.898200  1
  C  C189  1  0.910100  0.764600  0.326800  1
  C  C190  1  0.089900  0.264600  0.173200  1
  C  C191  1  0.089900  0.235400  0.673200  1
  C  C192  1  0.910100  0.735400  0.826800  1
  C  C193  1  0.894000  0.793300  0.324800  1
  C  C194  1  0.106000  0.293300  0.175200  1
  C  C195  1  0.106000  0.206700  0.675200  1
  C  C196  1  0.894000  0.706700  0.824800  1
  C  C197  1  0.868900  0.806500  0.345500  1
  C  C198  1  0.131100  0.306500  0.154500  1
  C  C199  1  0.131100  0.193500  0.654500  1
  C  C200  1  0.868900  0.693500  0.845500  1
  C  C201  1  0.866000  0.788200  0.370200  1
  C  C202  1  0.134000  0.288200  0.129800  1
  C  C203  1  0.134000  0.211800  0.629800  1
  C  C204  1  0.866000  0.711800  0.870200  1
  C  C205  1  0.879600  0.760500  0.371100  1
  C  C206  1  0.120400  0.260500  0.128900  1
  C  C207  1  0.120400  0.239500  0.628900  1
  C  C208  1  0.879600  0.739500  0.871100  1
  C  C209  1  0.641800  0.710000  0.159000  1
  C  C210  1  0.358200  0.210000  0.341000  1
  C  C211  1  0.358200  0.290000  0.841000  1
  C  C212  1  0.641800  0.790000  0.659000  1
  C  C213  1  0.653100  0.706700  0.187900  1
  C  C214  1  0.346900  0.206700  0.312100  1
  C  C215  1  0.346900  0.293300  0.812100  1
  C  C216  1  0.653100  0.793300  0.687900  1
  C  C217  1  0.609500  0.702100  0.203100  1
  C  C218  1  0.390500  0.202100  0.296900  1
  C  C219  1  0.390500  0.297900  0.796900  1
  C  C220  1  0.609500  0.797900  0.703100  1
  C  C221  1  0.555400  0.702000  0.186500  1
  C  C222  1  0.444600  0.202000  0.313500  1
  C  C223  1  0.444600  0.298000  0.813500  1
  C  C224  1  0.555400  0.798000  0.686500  1
  C  C225  1  0.548200  0.704500  0.157400  1
  C  C226  1  0.451800  0.204500  0.342600  1
  C  C227  1  0.451800  0.295500  0.842600  1
  C  C228  1  0.548200  0.795500  0.657400  1
  C  C229  1  0.796700  0.697800  0.339400  1
  C  C230  1  0.203300  0.197800  0.160600  1
  C  C231  1  0.203300  0.302200  0.660600  1
  C  C232  1  0.796700  0.802200  0.839400  1
  C  C233  1  0.744800  0.696500  0.325200  1
  C  C234  1  0.255200  0.196500  0.174800  1
  C  C235  1  0.255200  0.303500  0.674800  1
  C  C236  1  0.744800  0.803500  0.825200  1
  C  C237  1  0.733800  0.699000  0.294100  1
  C  C238  1  0.266200  0.199000  0.205900  1
  C  C239  1  0.266200  0.301000  0.705900  1
  C  C240  1  0.733800  0.801000  0.794100  1
  C  C241  1  0.782500  0.702200  0.281400  1
  C  C242  1  0.217500  0.202200  0.218600  1
  C  C243  1  0.217500  0.297800  0.718600  1
  C  C244  1  0.782500  0.797800  0.781400  1
  C  C245  1  0.835100  0.702600  0.297700  1
  C  C246  1  0.164900  0.202600  0.202300  1
  C  C247  1  0.164900  0.297400  0.702300  1
  C  C248  1  0.835100  0.797400  0.797700  1
  C  C249  1  0.440100  0.686400  0.293200  1
  C  C250  1  0.559900  0.186400  0.206800  1
  C  C251  1  0.559900  0.313600  0.706800  1
  C  C252  1  0.440100  0.813600  0.793200  1
  C  C253  1  0.486100  0.689300  0.277400  1
  C  C254  1  0.513900  0.189300  0.222600  1
  C  C255  1  0.513900  0.310700  0.722600  1
  C  C256  1  0.486100  0.810700  0.777400  1
  C  C257  1  0.538800  0.689900  0.292400  1
  C  C258  1  0.461200  0.189900  0.207600  1
  C  C259  1  0.461200  0.310100  0.707600  1
  C  C260  1  0.538800  0.810100  0.792400  1
  C  C261  1  0.546300  0.687200  0.322400  1
  C  C262  1  0.453700  0.187200  0.177600  1
  C  C263  1  0.453700  0.312800  0.677600  1
  C  C264  1  0.546300  0.812800  0.822400  1
  C  C265  1  0.500500  0.685600  0.336200  1
  C  C266  1  0.499500  0.185600  0.163800  1
  C  C267  1  0.499500  0.314400  0.663800  1
  C  C268  1  0.500500  0.814400  0.836200  1
  C  C269  1  0.336500  0.878000  0.240200  1
  C  C270  1  0.663500  0.378000  0.259800  1
  C  C271  1  0.663500  0.122000  0.759800  1
  C  C272  1  0.336500  0.622000  0.740200  1
  C  C273  1  0.358100  0.862500  0.264000  1
  C  C274  1  0.641900  0.362500  0.236000  1
  C  C275  1  0.641900  0.137500  0.736000  1
  C  C276  1  0.358100  0.637500  0.764000  1
  C  C277  1  0.395400  0.875400  0.284900  1
  C  C278  1  0.604600  0.375400  0.215100  1
  C  C279  1  0.604600  0.124600  0.715100  1
  C  C280  1  0.395400  0.624600  0.784900  1
  C  C281  1  0.409800  0.904200  0.282700  1
  C  C282  1  0.590200  0.404200  0.217300  1
  C  C283  1  0.590200  0.095800  0.717300  1
  C  C284  1  0.409800  0.595800  0.782700  1
  C  C285  1  0.383200  0.917000  0.256700  1
  C  C286  1  0.616800  0.417000  0.243300  1
  C  C287  1  0.616800  0.083000  0.743300  1
  C  C288  1  0.383200  0.583000  0.756700  1
  C  C289  1  0.429000  0.741300  0.365600  1
  C  C290  1  0.571000  0.241300  0.134400  1
  C  C291  1  0.571000  0.258700  0.634400  1
  C  C292  1  0.429000  0.758700  0.865600  1
  C  C293  1  0.441500  0.770800  0.363500  1
  C  C294  1  0.558500  0.270800  0.136500  1
  C  C295  1  0.558500  0.229200  0.636500  1
  C  C296  1  0.441500  0.729200  0.863500  1
  C  C297  1  0.418100  0.786400  0.341100  1
  C  C298  1  0.581900  0.286400  0.158900  1
  C  C299  1  0.581900  0.213600  0.658900  1
  C  C300  1  0.418100  0.713600  0.841100  1
  C  C301  1  0.379100  0.774400  0.319500  1
  C  C302  1  0.620900  0.274400  0.180500  1
  C  C303  1  0.620900  0.225600  0.680500  1
  C  C304  1  0.379100  0.725600  0.819500  1
  C  C305  1  0.368300  0.745400  0.322900  1
  C  C306  1  0.631700  0.245400  0.177100  1
  C  C307  1  0.631700  0.254600  0.677100  1
  C  C308  1  0.368300  0.754600  0.822900  1
  C  C309  1  0.572900  0.914300  0.394800  1
  C  C310  1  0.427100  0.414300  0.105200  1
  C  C311  1  0.427100  0.085700  0.605200  1
  C  C312  1  0.572900  0.585700  0.894800  1
  C  C313  1  0.534200  0.900000  0.373600  1
  C  C314  1  0.465800  0.400000  0.126400  1
  C  C315  1  0.465800  0.100000  0.626400  1
  C  C316  1  0.534200  0.600000  0.873600  1
  C  C317  1  0.519100  0.871600  0.378700  1
  C  C318  1  0.480900  0.371600  0.121300  1
  C  C319  1  0.480900  0.128400  0.621300  1
  C  C320  1  0.519100  0.628400  0.878700  1
  C  C321  1  0.544000  0.858100  0.403600  1
  C  C322  1  0.456000  0.358100  0.096400  1
  C  C323  1  0.456000  0.141900  0.596400  1
  C  C324  1  0.544000  0.641900  0.903600  1
  C  C325  1  0.581000  0.873600  0.422900  1
  C  C326  1  0.419000  0.373600  0.077100  1
  C  C327  1  0.419000  0.126400  0.577100  1
  C  C328  1  0.581000  0.626400  0.922900  1
  C  C329  1  0.634200  0.881300  0.164900  1
  C  C330  1  0.365800  0.381300  0.335100  1
  C  C331  1  0.365800  0.118700  0.835100  1
  C  C332  1  0.634200  0.618700  0.664900  1
  C  C333  1  0.584900  0.843300  0.144800  1
  C  C334  1  0.415100  0.343300  0.355200  1
  C  C335  1  0.415100  0.156700  0.855200  1
  C  C336  1  0.584900  0.656700  0.644800  1
  C  C337  1  0.538700  0.878700  0.163900  1
  C  C338  1  0.461300  0.378700  0.336100  1
  C  C339  1  0.461300  0.121300  0.836100  1
  C  C340  1  0.538700  0.621300  0.663900  1
  C  C341  1  0.839500  0.876900  0.319200  1
  C  C342  1  0.160500  0.376900  0.180800  1
  C  C343  1  0.160500  0.123100  0.680800  1
  C  C344  1  0.839500  0.623100  0.819200  1
  C  C345  1  0.806000  0.872200  0.360700  1
  C  C346  1  0.194000  0.372200  0.139300  1
  C  C347  1  0.194000  0.127800  0.639300  1
  C  C348  1  0.806000  0.627800  0.860700  1
  C  C349  1  0.850300  0.836200  0.343400  1
  C  C350  1  0.149700  0.336200  0.156600  1
  C  C351  1  0.149700  0.163800  0.656600  1
  C  C352  1  0.850300  0.663800  0.843400  1
  C  C353  1  0.620600  0.699200  0.234900  1
  C  C354  1  0.379400  0.199200  0.265100  1
  C  C355  1  0.379400  0.300800  0.765100  1
  C  C356  1  0.620600  0.800800  0.734900  1
  C  C357  1  0.677800  0.698300  0.277700  1
  C  C358  1  0.322200  0.198300  0.222300  1
  C  C359  1  0.322200  0.301700  0.722300  1
  C  C360  1  0.677800  0.801700  0.777700  1
  C  C361  1  0.585700  0.693600  0.276500  1
  C  C362  1  0.414300  0.193600  0.223500  1
  C  C363  1  0.414300  0.306400  0.723500  1
  C  C364  1  0.585700  0.806400  0.776500  1
  C  C365  1  0.421300  0.856400  0.311900  1
  C  C366  1  0.578700  0.356400  0.188100  1
  C  C367  1  0.578700  0.143600  0.688100  1
  C  C368  1  0.421300  0.643600  0.811900  1
  C  C369  1  0.430600  0.817500  0.338100  1
  C  C370  1  0.569400  0.317500  0.161900  1
  C  C371  1  0.569400  0.182500  0.661900  1
  C  C372  1  0.430600  0.682500  0.838100  1
  C  C373  1  0.478500  0.856600  0.353800  1
  C  C374  1  0.521500  0.356600  0.146200  1
  C  C375  1  0.521500  0.143400  0.646200  1
  C  C376  1  0.478500  0.643400  0.853800  1
  C  C377  1  0.807000  0.986700  0.159100  1
  C  C378  1  0.193000  0.486700  0.340900  1
  C  C379  1  0.193000  0.013300  0.840900  1
  C  C380  1  0.807000  0.513300  0.659100  1
  C  C381  1  0.864000  0.951200  0.143200  1
  C  C382  1  0.136000  0.451200  0.356800  1
  C  C383  1  0.136000  0.048800  0.856800  1
  C  C384  1  0.864000  0.548800  0.643200  1
  C  C385  1  0.901600  0.993300  0.171400  1
  C  C386  1  0.098400  0.493300  0.328600  1
  C  C387  1  0.098400  0.006700  0.828600  1
  C  C388  1  0.901600  0.506700  0.671400  1
  C  C389  1  0.948100  0.981400  0.192800  1
  C  C390  1  0.051900  0.481400  0.307200  1
  C  C391  1  0.051900  0.018600  0.807200  1
  C  C392  1  0.948100  0.518600  0.692800  1
  C  C393  1  0.973800  0.947900  0.231900  1
  C  C394  1  0.026200  0.447900  0.268100  1
  C  C395  1  0.026200  0.052100  0.768100  1
  C  C396  1  0.973800  0.552100  0.731900  1
  C  C397  1  0.923200  0.989500  0.242400  1
  C  C398  1  0.076800  0.489500  0.257600  1
  C  C399  1  0.076800  0.010500  0.757600  1
  C  C400  1  0.923200  0.510500  0.742400  1
  C  C401  1  0.522300  0.660600  0.092100  1
  C  C402  1  0.477700  0.160600  0.407900  1
  C  C403  1  0.477700  0.339400  0.907900  1
  C  C404  1  0.522300  0.839400  0.592100  1
  C  C405  1  0.620600  0.655200  0.108100  1
  C  C406  1  0.379400  0.155200  0.391900  1
  C  C407  1  0.379400  0.344800  0.891900  1
  C  C408  1  0.620600  0.844800  0.608100  1
  C  C409  1  0.586200  0.670200  0.059000  1
  C  C410  1  0.413800  0.170200  0.441000  1
  C  C411  1  0.413800  0.329800  0.941000  1
  C  C412  1  0.586200  0.829800  0.559000  1
  C  C413  1  0.555700  0.693500  0.041700  1
  C  C414  1  0.444300  0.193500  0.458300  1
  C  C415  1  0.444300  0.306500  0.958300  1
  C  C416  1  0.555700  0.806500  0.541700  1
  C  C417  1  0.626000  0.732400  0.047500  1
  C  C418  1  0.374000  0.232400  0.452500  1
  C  C419  1  0.374000  0.267600  0.952500  1
  C  C420  1  0.626000  0.767600  0.547500  1
  C  C421  1  0.525700  0.742000  0.043300  1
  C  C422  1  0.474300  0.242000  0.456700  1
  C  C423  1  0.474300  0.258000  0.956700  1
  C  C424  1  0.525700  0.758000  0.543300  1
  C  C425  1  0.270900  0.929400  0.137600  1
  C  C426  1  0.729100  0.429400  0.362400  1
  C  C427  1  0.729100  0.070600  0.862400  1
  C  C428  1  0.270900  0.570600  0.637600  1
  C  C429  1  0.330900  0.970700  0.153200  1
  C  C430  1  0.669100  0.470700  0.346800  1
  C  C431  1  0.669100  0.029300  0.846800  1
  C  C432  1  0.330900  0.529300  0.653200  1
  C  C433  1  0.241800  0.966300  0.169100  1
  C  C434  1  0.758200  0.466300  0.330900  1
  C  C435  1  0.758200  0.033700  0.830900  1
  C  C436  1  0.241800  0.533700  0.669100  1
  C  C437  1  0.216900  0.955000  0.188700  1
  C  C438  1  0.783100  0.455000  0.311300  1
  C  C439  1  0.783100  0.045000  0.811300  1
  C  C440  1  0.216900  0.545000  0.688700  1
  C  C441  1  0.217800  0.919900  0.224800  1
  C  C442  1  0.782200  0.419900  0.275200  1
  C  C443  1  0.782200  0.080100  0.775200  1
  C  C444  1  0.217800  0.580100  0.724800  1
  C  C445  1  0.266900  0.963400  0.237500  1
  C  C446  1  0.733100  0.463400  0.262500  1
  C  C447  1  0.733100  0.036600  0.762500  1
  C  C448  1  0.266900  0.536600  0.737500  1
  C  C449  1  0.753600  0.927900  0.489500  1
  C  C450  1  0.246400  0.427900  0.010500  1
  C  C451  1  0.246400  0.072100  0.510500  1
  C  C452  1  0.753600  0.572100  0.989500  1
  C  C453  1  0.740400  0.966400  0.459400  1
  C  C454  1  0.259600  0.466400  0.040600  1
  C  C455  1  0.259600  0.033600  0.540600  1
  C  C456  1  0.740400  0.533600  0.959400  1
  C  C457  1  0.686500  0.960000  0.494000  1
  C  C458  1  0.313500  0.460000  0.006000  1
  C  C459  1  0.313500  0.040000  0.506000  1
  C  C460  1  0.686500  0.540000  0.994000  1
  C  C461  1  0.631100  0.955400  0.495100  1
  C  C462  1  0.368900  0.455400  0.004900  1
  C  C463  1  0.368900  0.044600  0.504900  1
  C  C464  1  0.631100  0.544600  0.995100  1
  C  C465  1  0.569000  0.916000  0.483500  1
  C  C466  1  0.431000  0.416000  0.016500  1
  C  C467  1  0.431000  0.084000  0.516500  1
  C  C468  1  0.569000  0.584000  0.983500  1
  C  C469  1  0.557800  0.958500  0.456100  1
  C  C470  1  0.442200  0.458500  0.043900  1
  C  C471  1  0.442200  0.041500  0.543900  1
  C  C472  1  0.557800  0.541500  0.956100  1
  C  C473  1  0.897700  0.644300  0.365800  1
  C  C474  1  0.102300  0.144300  0.134200  1
  C  C475  1  0.102300  0.355700  0.634200  1
  C  C476  1  0.897700  0.855700  0.865800  1
  C  C477  1  0.937700  0.650000  0.323600  1
  C  C478  1  0.062300  0.150000  0.176400  1
  C  C479  1  0.062300  0.350000  0.676400  1
  C  C480  1  0.937700  0.850000  0.823600  1
  C  C481  1  0.992600  0.660000  0.371400  1
  C  C482  1  0.007400  0.160000  0.128600  1
  C  C483  1  0.007400  0.340000  0.628600  1
  C  C484  1  0.992600  0.840000  0.871400  1
  C  C485  1  0.028000  0.681600  0.376300  1
  C  C486  1  0.972000  0.181600  0.123700  1
  C  C487  1  0.972000  0.318400  0.623700  1
  C  C488  1  0.028000  0.818400  0.876300  1
  C  C489  1  0.033200  0.729500  0.358700  1
  C  C490  1  0.966800  0.229500  0.141300  1
  C  C491  1  0.966800  0.270500  0.641300  1
  C  C492  1  0.033200  0.770500  0.858700  1
  C  C493  1  0.999200  0.721600  0.403700  1
  C  C494  1  0.000800  0.221600  0.096300  1
  C  C495  1  0.000800  0.278400  0.596300  1
  C  C496  1  0.999200  0.778400  0.903700  1
  C  C497  1  0.420500  0.626800  0.359800  1
  C  C498  1  0.579500  0.126800  0.140200  1
  C  C499  1  0.579500  0.373200  0.640200  1
  C  C500  1  0.420500  0.873200  0.859800  1
  C  C501  1  0.364400  0.629500  0.312500  1
  C  C502  1  0.635600  0.129500  0.187500  1
  C  C503  1  0.635600  0.370500  0.687500  1
  C  C504  1  0.364400  0.870500  0.812500  1
  C  C505  1  0.320000  0.635500  0.353400  1
  C  C506  1  0.680000  0.135500  0.146600  1
  C  C507  1  0.680000  0.364500  0.646600  1
  C  C508  1  0.320000  0.864500  0.853400  1
  C  C509  1  0.310900  0.655700  0.374500  1
  C  C510  1  0.689100  0.155700  0.125500  1
  C  C511  1  0.689100  0.344300  0.625500  1
  C  C512  1  0.310900  0.844300  0.874500  1
  C  C513  1  0.266500  0.697700  0.348600  1
  C  C514  1  0.733500  0.197700  0.151400  1
  C  C515  1  0.733500  0.302300  0.651400  1
  C  C516  1  0.266500  0.802300  0.848600  1
  C  C517  1  0.327100  0.704600  0.393400  1
  C  C518  1  0.672900  0.204600  0.106600  1
  C  C519  1  0.672900  0.295400  0.606600  1
  C  C520  1  0.327100  0.795400  0.893400  1
  C  C521  1  0.903700  0.588300  0.176700  1
  C  C522  1  0.096300  0.088300  0.323300  1
  C  C523  1  0.096300  0.411700  0.823300  1
  C  C524  1  0.903700  0.911700  0.676700  1
  C  C525  1  0.954500  0.601000  0.182400  1
  C  C526  1  0.045500  0.101000  0.317600  1
  C  C527  1  0.045500  0.399000  0.817600  1
  C  C528  1  0.954500  0.899000  0.682400  1
  C  C529  1  0.957600  0.629200  0.191400  1
  C  C530  1  0.042400  0.129200  0.308600  1
  C  C531  1  0.042400  0.370800  0.808600  1
  C  C532  1  0.957600  0.870800  0.691400  1
  C  C533  1  0.907300  0.644400  0.194800  1
  C  C534  1  0.092700  0.144400  0.305200  1
  C  C535  1  0.092700  0.355600  0.805200  1
  C  C536  1  0.907300  0.855600  0.694800  1
  C  C537  1  0.858400  0.629700  0.188300  1
  C  C538  1  0.141600  0.129700  0.311700  1
  C  C539  1  0.141600  0.370300  0.811700  1
  C  C540  1  0.858400  0.870300  0.688300  1
  C  C541  1  0.256100  0.627500  0.203500  1
  C  C542  1  0.743900  0.127500  0.296500  1
  C  C543  1  0.743900  0.372500  0.796500  1
  C  C544  1  0.256100  0.872500  0.703500  1
  C  C545  1  0.209700  0.642600  0.206500  1
  C  C546  1  0.790300  0.142600  0.293500  1
  C  C547  1  0.790300  0.357400  0.793500  1
  C  C548  1  0.209700  0.857400  0.706500  1
  C  C549  1  0.157300  0.628500  0.200800  1
  C  C550  1  0.842700  0.128500  0.299200  1
  C  C551  1  0.842700  0.371500  0.799200  1
  C  C552  1  0.157300  0.871500  0.700800  1
  C  C553  1  0.155500  0.599700  0.194000  1
  C  C554  1  0.844500  0.099700  0.306000  1
  C  C555  1  0.844500  0.400300  0.806000  1
  C  C556  1  0.155500  0.900300  0.694000  1
  C  C557  1  0.205100  0.585800  0.191200  1
  C  C558  1  0.794900  0.085800  0.308800  1
  C  C559  1  0.794900  0.414200  0.808800  1
  C  C560  1  0.205100  0.914200  0.691200  1
  C  C561  1  0.018500  0.760100  0.232900  1
  C  C562  1  0.981500  0.260100  0.267100  1
  C  C563  1  0.981500  0.239900  0.767100  1
  C  C564  1  0.018500  0.739900  0.732900  1
  C  C565  1  0.015900  0.731300  0.223500  1
  C  C566  1  0.984100  0.231300  0.276500  1
  C  C567  1  0.984100  0.268700  0.776500  1
  C  C568  1  0.015900  0.768700  0.723500  1
  C  C569  1  0.063100  0.716500  0.222500  1
  C  C570  1  0.936900  0.216500  0.277500  1
  C  C571  1  0.936900  0.283500  0.777500  1
  C  C572  1  0.063100  0.783500  0.722500  1
  C  C573  1  0.114500  0.729400  0.230600  1
  C  C574  1  0.885500  0.229400  0.269400  1
  C  C575  1  0.885500  0.270600  0.769400  1
  C  C576  1  0.114500  0.770600  0.730600  1
  C  C577  1  0.115600  0.758000  0.240400  1
  C  C578  1  0.884400  0.258000  0.259600  1
  C  C579  1  0.884400  0.242000  0.759600  1
  C  C580  1  0.115600  0.742000  0.740400  1
  C  C581  1  0.765400  0.627600  0.123100  1
  C  C582  1  0.234600  0.127600  0.376900  1
  C  C583  1  0.234600  0.372400  0.876900  1
  C  C584  1  0.765400  0.872400  0.623100  1
  C  C585  1  0.773800  0.641600  0.096700  1
  C  C586  1  0.226200  0.141600  0.403300  1
  C  C587  1  0.226200  0.358400  0.903300  1
  C  C588  1  0.773800  0.858400  0.596700  1
  C  C589  1  0.797500  0.626600  0.076600  1
  C  C590  1  0.202500  0.126600  0.423400  1
  C  C591  1  0.202500  0.373400  0.923400  1
  C  C592  1  0.797500  0.873400  0.576600  1
  C  C593  1  0.811500  0.597700  0.082500  1
  C  C594  1  0.188500  0.097700  0.417500  1
  C  C595  1  0.188500  0.402300  0.917500  1
  C  C596  1  0.811500  0.902300  0.582500  1
  C  C597  1  0.802700  0.585700  0.108600  1
  C  C598  1  0.197300  0.085700  0.391400  1
  C  C599  1  0.197300  0.414300  0.891400  1
  C  C600  1  0.802700  0.914300  0.608600  1
  C  C601  1  0.781100  0.750500  0.984300  1
  C  C602  1  0.218900  0.250500  0.515700  1
  C  C603  1  0.218900  0.249500  0.015700  1
  C  C604  1  0.781100  0.749500  0.484300  1
  C  C605  1  0.797500  0.723600  0.989600  1
  C  C606  1  0.202500  0.223600  0.510400  1
  C  C607  1  0.202500  0.276400  0.010400  1
  C  C608  1  0.797500  0.776400  0.489600  1
  C  C609  1  0.790400  0.709700  0.014900  1
  C  C610  1  0.209600  0.209700  0.485100  1
  C  C611  1  0.209600  0.290300  0.985100  1
  C  C612  1  0.790400  0.790300  0.514900  1
  C  C613  1  0.765600  0.725100  0.034200  1
  C  C614  1  0.234400  0.225100  0.465800  1
  C  C615  1  0.234400  0.274900  0.965800  1
  C  C616  1  0.765600  0.774900  0.534200  1
  C  C617  1  0.749500  0.753400  0.028000  1
  C  C618  1  0.250500  0.253400  0.472000  1
  C  C619  1  0.250500  0.246600  0.972000  1
  C  C620  1  0.749500  0.746600  0.528000  1
  C  C621  1  0.928600  0.578800  0.979200  1
  C  C622  1  0.071400  0.078800  0.520800  1
  C  C623  1  0.071400  0.421200  0.020800  1
  C  C624  1  0.928600  0.921200  0.479200  1
  C  C625  1  0.896900  0.594700  0.998000  1
  C  C626  1  0.103100  0.094700  0.502000  1
  C  C627  1  0.103100  0.405300  0.002000  1
  C  C628  1  0.896900  0.905300  0.498000  1
  C  C629  1  0.879100  0.620700  0.990200  1
  C  C630  1  0.120900  0.120700  0.509800  1
  C  C631  1  0.120900  0.379300  0.009800  1
  C  C632  1  0.879100  0.879300  0.490200  1
  C  C633  1  0.892200  0.632800  0.964700  1
  C  C634  1  0.107800  0.132800  0.535300  1
  C  C635  1  0.107800  0.367200  0.035300  1
  C  C636  1  0.892200  0.867200  0.464700  1
  C  C637  1  0.921300  0.617500  0.947600  1
  C  C638  1  0.078700  0.117500  0.552400  1
  C  C639  1  0.078700  0.382500  0.052400  1
  C  C640  1  0.921300  0.882500  0.447600  1
  C  C641  1  0.261900  0.580400  0.125900  1
  C  C642  1  0.738100  0.080400  0.374100  1
  C  C643  1  0.738100  0.419600  0.874100  1
  C  C644  1  0.261900  0.919600  0.625900  1
  C  C645  1  0.237900  0.592600  0.100800  1
  C  C646  1  0.762100  0.092600  0.399200  1
  C  C647  1  0.762100  0.407400  0.899200  1
  C  C648  1  0.237900  0.907400  0.600800  1
  C  C649  1  0.254100  0.620200  0.094700  1
  C  C650  1  0.745900  0.120200  0.405300  1
  C  C651  1  0.745900  0.379800  0.905300  1
  C  C652  1  0.254100  0.879800  0.594700  1
  C  C653  1  0.291100  0.634000  0.112800  1
  C  C654  1  0.708900  0.134000  0.387200  1
  C  C655  1  0.708900  0.366000  0.887200  1
  C  C656  1  0.291100  0.866000  0.612800  1
  C  C657  1  0.314000  0.619600  0.139500  1
  C  C658  1  0.686000  0.119600  0.360500  1
  C  C659  1  0.686000  0.380400  0.860500  1
  C  C660  1  0.314000  0.880400  0.639500  1
  C  C661  1  0.072600  0.614900  0.954500  1
  C  C662  1  0.927400  0.114900  0.545500  1
  C  C663  1  0.927400  0.385100  0.045500  1
  C  C664  1  0.072600  0.885100  0.454500  1
  C  C665  1  0.111300  0.631000  0.973500  1
  C  C666  1  0.888700  0.131000  0.526500  1
  C  C667  1  0.888700  0.369000  0.026500  1
  C  C668  1  0.111300  0.869000  0.473500  1
  C  C669  1  0.131100  0.616700  0.001600  1
  C  C670  1  0.868900  0.116700  0.498400  1
  C  C671  1  0.868900  0.383300  0.998400  1
  C  C672  1  0.131100  0.883300  0.501600  1
  C  C673  1  0.114900  0.588600  0.006900  1
  C  C674  1  0.885100  0.088600  0.493100  1
  C  C675  1  0.885100  0.411400  0.993100  1
  C  C676  1  0.114900  0.911400  0.506900  1
  C  C677  1  0.076500  0.575200  0.985600  1
  C  C678  1  0.923500  0.075200  0.514400  1
  C  C679  1  0.923500  0.424800  0.014400  1
  C  C680  1  0.076500  0.924800  0.485600  1
  C  C681  1  0.290100  0.745200  0.045000  1
  C  C682  1  0.709900  0.245200  0.455000  1
  C  C683  1  0.709900  0.254800  0.955000  1
  C  C684  1  0.290100  0.754800  0.545000  1
  C  C685  1  0.275400  0.716600  0.050700  1
  C  C686  1  0.724600  0.216600  0.449300  1
  C  C687  1  0.724600  0.283400  0.949300  1
  C  C688  1  0.275400  0.783400  0.550700  1
  C  C689  1  0.237900  0.702600  0.031200  1
  C  C690  1  0.762100  0.202600  0.468800  1
  C  C691  1  0.762100  0.297400  0.968800  1
  C  C692  1  0.237900  0.797400  0.531200  1
  C  C693  1  0.208500  0.717900  0.007100  1
  C  C694  1  0.791500  0.217900  0.492900  1
  C  C695  1  0.791500  0.282100  0.992900  1
  C  C696  1  0.208500  0.782100  0.507100  1
  C  C697  1  0.225200  0.746300  0.002300  1
  C  C698  1  0.774800  0.246300  0.497700  1
  C  C699  1  0.774800  0.253700  0.997700  1
  C  C700  1  0.225200  0.753700  0.502300  1
  C  C701  1  0.166300  0.811900  0.017500  1
  C  C702  1  0.833700  0.311900  0.482500  1
  C  C703  1  0.833700  0.188100  0.982500  1
  C  C704  1  0.166300  0.688100  0.517500  1
  C  C705  1  0.117600  0.814600  0.030000  1
  C  C706  1  0.882400  0.314600  0.470000  1
  C  C707  1  0.882400  0.185400  0.970000  1
  C  C708  1  0.117600  0.685400  0.530000  1
  C  C709  1  0.124000  0.816900  0.060100  1
  C  C710  1  0.876000  0.316900  0.439900  1
  C  C711  1  0.876000  0.183100  0.939900  1
  C  C712  1  0.124000  0.683100  0.560100  1
  C  C713  1  0.178100  0.818900  0.075700  1
  C  C714  1  0.821900  0.318900  0.424300  1
  C  C715  1  0.821900  0.181100  0.924300  1
  C  C716  1  0.178100  0.681100  0.575700  1
  C  C717  1  0.222600  0.814100  0.061100  1
  C  C718  1  0.777400  0.314100  0.438900  1
  C  C719  1  0.777400  0.185900  0.938900  1
  C  C720  1  0.222600  0.685900  0.561100  1
  C  C721  1  0.827500  0.817300  0.049900  1
  C  C722  1  0.172500  0.317300  0.450100  1
  C  C723  1  0.172500  0.182700  0.950100  1
  C  C724  1  0.827500  0.682700  0.549900  1
  C  C725  1  0.878000  0.819800  0.067300  1
  C  C726  1  0.122000  0.319800  0.432700  1
  C  C727  1  0.122000  0.180200  0.932700  1
  C  C728  1  0.878000  0.680200  0.567300  1
  C  C729  1  0.924700  0.819100  0.054400  1
  C  C730  1  0.075300  0.319100  0.445600  1
  C  C731  1  0.075300  0.180900  0.945600  1
  C  C732  1  0.924700  0.680900  0.554400  1
  C  C733  1  0.917600  0.819100  0.023300  1
  C  C734  1  0.082400  0.319100  0.476700  1
  C  C735  1  0.082400  0.180900  0.976700  1
  C  C736  1  0.917600  0.680900  0.523300  1
  C  C737  1  0.865500  0.817100  0.007800  1
  C  C738  1  0.134500  0.317100  0.492200  1
  C  C739  1  0.134500  0.182900  0.992200  1
  C  C740  1  0.865500  0.682900  0.507800  1
  C  C741  1  0.102900  0.822900  0.193500  1
  C  C742  1  0.897100  0.322900  0.306500  1
  C  C743  1  0.897100  0.177100  0.806500  1
  C  C744  1  0.102900  0.677100  0.693500  1
  C  C745  1  0.097500  0.824000  0.164200  1
  C  C746  1  0.902500  0.324000  0.335800  1
  C  C747  1  0.902500  0.176000  0.835800  1
  C  C748  1  0.097500  0.676000  0.664200  1
  C  C749  1  0.044800  0.824800  0.147200  1
  C  C750  1  0.955200  0.324800  0.352800  1
  C  C751  1  0.955200  0.175200  0.852800  1
  C  C752  1  0.044800  0.675200  0.647200  1
  C  C753  1  0.998500  0.826000  0.160200  1
  C  C754  1  0.001500  0.326000  0.339800  1
  C  C755  1  0.001500  0.174000  0.839800  1
  C  C756  1  0.998500  0.674000  0.660200  1
  C  C757  1  0.007800  0.825700  0.191100  1
  C  C758  1  0.992200  0.325700  0.308900  1
  C  C759  1  0.992200  0.174300  0.808900  1
  C  C760  1  0.007800  0.674300  0.691100  1
  C  C761  1  0.010600  0.646700  0.198400  1
  C  C762  1  0.989400  0.146700  0.301600  1
  C  C763  1  0.989400  0.353300  0.801600  1
  C  C764  1  0.010600  0.853300  0.698400  1
  C  C765  1  0.105200  0.644400  0.202900  1
  C  C766  1  0.894800  0.144400  0.297100  1
  C  C767  1  0.894800  0.355600  0.797100  1
  C  C768  1  0.105200  0.855600  0.702900  1
  C  C769  1  0.061800  0.685000  0.213000  1
  C  C770  1  0.938200  0.185000  0.287000  1
  C  C771  1  0.938200  0.315000  0.787000  1
  C  C772  1  0.061800  0.815000  0.713000  1
  C  C773  1  0.810300  0.640600  0.049800  1
  C  C774  1  0.189700  0.140600  0.450200  1
  C  C775  1  0.189700  0.359400  0.950200  1
  C  C776  1  0.810300  0.859400  0.549800  1
  C  C777  1  0.807500  0.679100  0.021800  1
  C  C778  1  0.192500  0.179100  0.478200  1
  C  C779  1  0.192500  0.320900  0.978200  1
  C  C780  1  0.807500  0.820900  0.521800  1
  C  C781  1  0.847800  0.637800  0.010200  1
  C  C782  1  0.152200  0.137800  0.489800  1
  C  C783  1  0.152200  0.362200  0.989800  1
  C  C784  1  0.847800  0.862200  0.510200  1
  C  C785  1  0.228800  0.635100  0.066700  1
  C  C786  1  0.771200  0.135100  0.433300  1
  C  C787  1  0.771200  0.364900  0.933300  1
  C  C788  1  0.228800  0.864900  0.566700  1
  C  C789  1  0.170900  0.634300  0.023100  1
  C  C790  1  0.829100  0.134300  0.476900  1
  C  C791  1  0.829100  0.365700  0.976900  1
  C  C792  1  0.170900  0.865700  0.523100  1
  C  C793  1  0.218400  0.673200  0.037600  1
  C  C794  1  0.781600  0.173200  0.462400  1
  C  C795  1  0.781600  0.326800  0.962400  1
  C  C796  1  0.218400  0.826800  0.537600  1
  C  C797  1  0.074500  0.820100  0.073200  1
  C  C798  1  0.925500  0.320100  0.426800  1
  C  C799  1  0.925500  0.179900  0.926800  1
  C  C800  1  0.074500  0.679900  0.573200  1
  C  C801  1  0.981400  0.820400  0.071600  1
  C  C802  1  0.018600  0.320400  0.428400  1
  C  C803  1  0.018600  0.179600  0.928400  1
  C  C804  1  0.981400  0.679600  0.571600  1
  C  C805  1  0.035400  0.822900  0.114900  1
  C  C806  1  0.964600  0.322900  0.385100  1
  C  C807  1  0.964600  0.177100  0.885100  1
  C  C808  1  0.035400  0.677100  0.614900  1
  C  C809  1  0.775600  0.585000  0.230000  1
  C  C810  1  0.224400  0.085000  0.270000  1
  C  C811  1  0.224400  0.415000  0.770000  1
  C  C812  1  0.775600  0.915000  0.730000  1
  C  C813  1  0.831600  0.546900  0.218000  1
  C  C814  1  0.168400  0.046900  0.282000  1
  C  C815  1  0.168400  0.453100  0.782000  1
  C  C816  1  0.831600  0.953100  0.718000  1
  C  C817  1  0.730200  0.544300  0.205300  1
  C  C818  1  0.269800  0.044300  0.294700  1
  C  C819  1  0.269800  0.455700  0.794700  1
  C  C820  1  0.730200  0.955700  0.705300  1
  C  C821  1  0.685000  0.556400  0.186100  1
  C  C822  1  0.315000  0.056400  0.313900  1
  C  C823  1  0.315000  0.443600  0.813900  1
  C  C824  1  0.685000  0.943600  0.686100  1
  C  C825  1  0.705200  0.538600  0.139000  1
  C  C826  1  0.294800  0.038600  0.361000  1
  C  C827  1  0.294800  0.461400  0.861000  1
  C  C828  1  0.705200  0.961400  0.639000  1
  C  C829  1  0.659500  0.585600  0.141300  1
  C  C830  1  0.340500  0.085600  0.358700  1
  C  C831  1  0.340500  0.414400  0.858700  1
  C  C832  1  0.659500  0.914400  0.641300  1
  C  C833  1  0.310300  0.541700  0.235600  1
  C  C834  1  0.689700  0.041700  0.264400  1
  C  C835  1  0.689700  0.458300  0.764400  1
  C  C836  1  0.310300  0.958300  0.735600  1
  C  C837  1  0.355500  0.588000  0.251100  1
  C  C838  1  0.644500  0.088000  0.248900  1
  C  C839  1  0.644500  0.412000  0.748900  1
  C  C840  1  0.355500  0.912000  0.751100  1
  C  C841  1  0.409200  0.554000  0.228800  1
  C  C842  1  0.590800  0.054000  0.271200  1
  C  C843  1  0.590800  0.446000  0.771200  1
  C  C844  1  0.409200  0.946000  0.728800  1
  C  C845  1  0.412800  0.539700  0.202500  1
  C  C846  1  0.587200  0.039700  0.297500  1
  C  C847  1  0.587200  0.460300  0.797500  1
  C  C848  1  0.412800  0.960300  0.702500  1
  C  C849  1  0.379600  0.539900  0.150700  1
  C  C850  1  0.620400  0.039900  0.349300  1
  C  C851  1  0.620400  0.460100  0.849300  1
  C  C852  1  0.379600  0.960100  0.650700  1
  C  C853  1  0.435000  0.579700  0.172200  1
  C  C854  1  0.565000  0.079700  0.327800  1
  C  C855  1  0.565000  0.420300  0.827800  1
  C  C856  1  0.435000  0.920300  0.672200  1
  C  C857  1  0.010600  0.871200  0.253400  1
  C  C858  1  0.989400  0.371200  0.246600  1
  C  C859  1  0.989400  0.128800  0.746600  1
  C  C860  1  0.010600  0.628800  0.753400  1
  C  C861  1  0.106300  0.878100  0.247100  1
  C  C862  1  0.893700  0.378100  0.252900  1
  C  C863  1  0.893700  0.121900  0.752900  1
  C  C864  1  0.106300  0.621900  0.747100  1
  C  C865  1  0.083800  0.860400  0.294300  1
  C  C866  1  0.916200  0.360400  0.205700  1
  C  C867  1  0.916200  0.139600  0.705700  1
  C  C868  1  0.083800  0.639600  0.794300  1
  C  C869  1  0.060000  0.836500  0.307200  1
  C  C870  1  0.940000  0.336500  0.192800  1
  C  C871  1  0.940000  0.163500  0.692800  1
  C  C872  1  0.060000  0.663500  0.807200  1
  C  C873  1  0.136800  0.801500  0.307000  1
  C  C874  1  0.863200  0.301500  0.193000  1
  C  C875  1  0.863200  0.198500  0.693000  1
  C  C876  1  0.136800  0.698500  0.807000  1
  C  C877  1  0.041600  0.784700  0.301800  1
  C  C878  1  0.958400  0.284700  0.198200  1
  C  C879  1  0.958400  0.215300  0.698200  1
  C  C880  1  0.041600  0.715300  0.801800  1
  C  C881  1  0.719000  0.867200  0.014500  1
  C  C882  1  0.281000  0.367200  0.485500  1
  C  C883  1  0.281000  0.132800  0.985500  1
  C  C884  1  0.719000  0.632800  0.514500  1
  C  C885  1  0.773600  0.867200  0.977300  1
  C  C886  1  0.226400  0.367200  0.522700  1
  C  C887  1  0.226400  0.132800  0.022700  1
  C  C888  1  0.773600  0.632800  0.477300  1
  C  C889  1  0.678700  0.853900  0.966500  1
  C  C890  1  0.321300  0.353900  0.533500  1
  C  C891  1  0.321300  0.146100  0.033500  1
  C  C892  1  0.678700  0.646100  0.466500  1
  C  C893  1  0.638400  0.832000  0.970200  1
  C  C894  1  0.361600  0.332000  0.529800  1
  C  C895  1  0.361600  0.168000  0.029800  1
  C  C896  1  0.638400  0.668000  0.470200  1
  C  C897  1  0.667500  0.790400  0.945300  1
  C  C898  1  0.332500  0.290400  0.554700  1
  C  C899  1  0.332500  0.209600  0.054700  1
  C  C900  1  0.667500  0.709600  0.445300  1
  C  C901  1  0.629400  0.784000  0.987100  1
  C  C902  1  0.370600  0.284000  0.512900  1
  C  C903  1  0.370600  0.216000  0.012900  1
  C  C904  1  0.629400  0.716000  0.487100  1
  C  C905  1  0.393100  0.772900  0.011300  1
  C  C906  1  0.606900  0.272900  0.488700  1
  C  C907  1  0.606900  0.227100  0.988700  1
  C  C908  1  0.393100  0.727100  0.511300  1
  C  C909  1  0.329900  0.774400  0.966300  1
  C  C910  1  0.670100  0.274400  0.533700  1
  C  C911  1  0.670100  0.225600  0.033700  1
  C  C912  1  0.329900  0.725600  0.466300  1
  C  C913  1  0.372400  0.817500  0.985000  1
  C  C914  1  0.627600  0.317500  0.515000  1
  C  C915  1  0.627600  0.182500  0.015000  1
  C  C916  1  0.372400  0.682500  0.485000  1
  C  C917  1  0.346200  0.841500  0.989300  1
  C  C918  1  0.653800  0.341500  0.510700  1
  C  C919  1  0.653800  0.158500  0.010700  1
  C  C920  1  0.346200  0.658500  0.489300  1
  C  C921  1  0.253700  0.859200  0.994200  1
  C  C922  1  0.746300  0.359200  0.505800  1
  C  C923  1  0.746300  0.140800  0.005800  1
  C  C924  1  0.253700  0.640800  0.494200  1
  C  C925  1  0.322800  0.859700  0.032200  1
  C  C926  1  0.677200  0.359700  0.467800  1
  C  C927  1  0.677200  0.140300  0.967800  1
  C  C928  1  0.322800  0.640300  0.532200  1
  C  C929  1  0.903200  0.570500  0.887700  1
  C  C930  1  0.096800  0.070500  0.612300  1
  C  C931  1  0.096800  0.429500  0.112300  1
  C  C932  1  0.903200  0.929500  0.387700  1
  C  C933  1  0.891000  0.532800  0.923000  1
  C  C934  1  0.109000  0.032800  0.577000  1
  C  C935  1  0.109000  0.467200  0.077000  1
  C  C936  1  0.891000  0.967200  0.423000  1
  C  C937  1  0.955400  0.525800  0.891600  1
  C  C938  1  0.044600  0.025800  0.608400  1
  C  C939  1  0.044600  0.474200  0.108400  1
  C  C940  1  0.955400  0.974200  0.391600  1
  C  C941  1  0.010800  0.532300  0.887600  1
  C  C942  1  0.989200  0.032300  0.612400  1
  C  C943  1  0.989200  0.467700  0.112400  1
  C  C944  1  0.010800  0.967700  0.387600  1
  C  C945  1  0.075900  0.524600  0.929700  1
  C  C946  1  0.924100  0.024600  0.570300  1
  C  C947  1  0.924100  0.475400  0.070300  1
  C  C948  1  0.075900  0.975400  0.429700  1
  C  C949  1  0.085100  0.566400  0.898800  1
  C  C950  1  0.914900  0.066400  0.601200  1
  C  C951  1  0.914900  0.433600  0.101200  1
  C  C952  1  0.085100  0.933600  0.398800  1
  C  C953  1  0.111400  0.549300  0.127100  1
  C  C954  1  0.888600  0.049300  0.372900  1
  C  C955  1  0.888600  0.450700  0.872900  1
  C  C956  1  0.111400  0.950700  0.627100  1
  C  C957  1  0.061700  0.552400  0.109700  1
  C  C958  1  0.938300  0.052400  0.390300  1
  C  C959  1  0.938300  0.447600  0.890300  1
  C  C960  1  0.061700  0.947600  0.609700  1
  C  C961  1  0.007300  0.553100  0.117300  1
  C  C962  1  0.992700  0.053100  0.382700  1
  C  C963  1  0.992700  0.446900  0.882700  1
  C  C964  1  0.007300  0.946900  0.617300  1
  C  C965  1  0.969200  0.551900  0.089900  1
  C  C966  1  0.030800  0.051900  0.410100  1
  C  C967  1  0.030800  0.448100  0.910100  1
  C  C968  1  0.969200  0.948100  0.589900  1
  C  C969  1  0.000200  0.550500  0.066100  1
  C  C970  1  0.999800  0.050500  0.433900  1
  C  C971  1  0.999800  0.449500  0.933900  1
  C  C972  1  0.000200  0.949500  0.566100  1
  C  C973  1  0.057600  0.551300  0.079000  1
  C  C974  1  0.942400  0.051300  0.421000  1
  C  C975  1  0.942400  0.448700  0.921000  1
  C  C976  1  0.057600  0.948700  0.579000  1
  C  C977  1  0.074900  0.607500  0.108700  1
  C  C978  1  0.925100  0.107500  0.391300  1
  C  C979  1  0.925100  0.392500  0.891300  1
  C  C980  1  0.074900  0.892500  0.608700  1
  C  C981  1  0.969700  0.610800  0.103600  1
  C  C982  1  0.030300  0.110800  0.396400  1
  C  C983  1  0.030300  0.389200  0.896400  1
  C  C984  1  0.969700  0.889200  0.603600  1
  C  C985  1  0.018100  0.607400  0.059800  1
  C  C986  1  0.981900  0.107400  0.440200  1
  C  C987  1  0.981900  0.392600  0.940200  1
  C  C988  1  0.018100  0.892600  0.559800  1
  C  C989  1  0.926300  0.763200  0.147200  1
  C  C990  1  0.073700  0.263200  0.352800  1
  C  C991  1  0.073700  0.236800  0.852800  1
  C  C992  1  0.926300  0.736800  0.647200  1
  C  C993  1  0.913400  0.738000  0.134600  1
  C  C994  1  0.086600  0.238000  0.365400  1
  C  C995  1  0.086600  0.262000  0.865400  1
  C  C996  1  0.913400  0.762000  0.634600  1
  C  C997  1  0.919000  0.710800  0.149100  1
  C  C998  1  0.081000  0.210800  0.350900  1
  C  C999  1  0.081000  0.289200  0.850900  1
  C  C1000  1  0.919000  0.789200  0.649100  1
  C  C1001  1  0.886100  0.691500  0.130000  1
  C  C1002  1  0.113900  0.191500  0.370000  1
  C  C1003  1  0.113900  0.308500  0.870000  1
  C  C1004  1  0.886100  0.808500  0.630000  1
  C  C1005  1  0.861900  0.705600  0.103100  1
  C  C1006  1  0.138100  0.205600  0.396900  1
  C  C1007  1  0.138100  0.294400  0.896900  1
  C  C1008  1  0.861900  0.794400  0.603100  1
  C  C1009  1  0.879200  0.735400  0.106400  1
  C  C1010  1  0.120800  0.235400  0.393600  1
  C  C1011  1  0.120800  0.264600  0.893600  1
  C  C1012  1  0.879200  0.764600  0.606400  1
  C  C1013  1  0.991200  0.734500  0.096700  1
  C  C1014  1  0.008800  0.234500  0.403300  1
  C  C1015  1  0.008800  0.265500  0.903300  1
  C  C1016  1  0.991200  0.765500  0.596700  1
  C  C1017  1  0.004300  0.692100  0.128700  1
  C  C1018  1  0.995700  0.192100  0.371300  1
  C  C1019  1  0.995700  0.307900  0.871300  1
  C  C1020  1  0.004300  0.807900  0.628700  1
  C  C1021  1  0.943900  0.687700  0.080400  1
  C  C1022  1  0.056100  0.187700  0.419600  1
  C  C1023  1  0.056100  0.312300  0.919600  1
  C  C1024  1  0.943900  0.812300  0.580400  1
  C  C1025  1  0.230000  0.761200  0.197000  1
  C  C1026  1  0.770000  0.261200  0.303000  1
  C  C1027  1  0.770000  0.238800  0.803000  1
  C  C1028  1  0.230000  0.738800  0.697000  1
  C  C1029  1  0.251300  0.755400  0.172800  1
  C  C1030  1  0.748700  0.255400  0.327200  1
  C  C1031  1  0.748700  0.244600  0.827200  1
  C  C1032  1  0.251300  0.744600  0.672800  1
  C  C1033  1  0.249800  0.772900  0.147400  1
  C  C1034  1  0.750200  0.272900  0.352600  1
  C  C1035  1  0.750200  0.227100  0.852600  1
  C  C1036  1  0.249800  0.727100  0.647400  1
  C  C1037  1  0.275500  0.754500  0.127800  1
  C  C1038  1  0.724500  0.254500  0.372200  1
  C  C1039  1  0.724500  0.245500  0.872200  1
  C  C1040  1  0.275500  0.745500  0.627800  1
  C  C1041  1  0.289800  0.726000  0.139900  1
  C  C1042  1  0.710200  0.226000  0.360100  1
  C  C1043  1  0.710200  0.274000  0.860100  1
  C  C1044  1  0.289800  0.774000  0.639900  1
  C  C1045  1  0.275800  0.727600  0.168600  1
  C  C1046  1  0.724200  0.227600  0.331400  1
  C  C1047  1  0.724200  0.272400  0.831400  1
  C  C1048  1  0.275800  0.772400  0.668600  1
  C  C1049  1  0.140100  0.742400  0.148600  1
  C  C1050  1  0.859900  0.242400  0.351400  1
  C  C1051  1  0.859900  0.257600  0.851400  1
  C  C1052  1  0.140100  0.757600  0.648600  1
  C  C1053  1  0.177800  0.741500  0.102000  1
  C  C1054  1  0.822200  0.241500  0.398000  1
  C  C1055  1  0.822200  0.258500  0.898000  1
  C  C1056  1  0.177800  0.758500  0.602000  1
  C  C1057  1  0.191500  0.699100  0.136100  1
  C  C1058  1  0.808500  0.199100  0.363900  1
  C  C1059  1  0.808500  0.300900  0.863900  1
  C  C1060  1  0.191500  0.800900  0.636100  1
  C  C1061  1  0.050000  0.695000  0.035500  1
  C  C1062  1  0.950000  0.195000  0.464500  1
  C  C1063  1  0.950000  0.305000  0.964500  1
  C  C1064  1  0.050000  0.805000  0.535500  1
  C  C1065  1  0.050000  0.712400  0.012900  1
  C  C1066  1  0.950000  0.212400  0.487100  1
  C  C1067  1  0.950000  0.287600  0.987100  1
  C  C1068  1  0.050000  0.787600  0.512900  1
  C  C1069  1  0.061100  0.742600  0.012500  1
  C  C1070  1  0.938900  0.242600  0.487500  1
  C  C1071  1  0.938900  0.257400  0.987500  1
  C  C1072  1  0.061100  0.757400  0.512500  1
  C  C1073  1  0.065600  0.749100  0.982100  1
  C  C1074  1  0.934400  0.249100  0.517900  1
  C  C1075  1  0.934400  0.250900  0.017900  1
  C  C1076  1  0.065600  0.750900  0.482100  1
  C  C1077  1  0.056800  0.722900  0.964900  1
  C  C1078  1  0.943200  0.222900  0.535100  1
  C  C1079  1  0.943200  0.277100  0.035100  1
  C  C1080  1  0.056800  0.777100  0.464900  1
  C  C1081  1  0.046600  0.700300  0.984300  1
  C  C1082  1  0.953400  0.200300  0.515700  1
  C  C1083  1  0.953400  0.299700  0.015700  1
  C  C1084  1  0.046600  0.799700  0.484300  1
  C  C1085  1  0.963600  0.766500  0.974400  1
  C  C1086  1  0.036400  0.266500  0.525600  1
  C  C1087  1  0.036400  0.233500  0.025600  1
  C  C1088  1  0.963600  0.733500  0.474400  1
  C  C1089  1  0.935300  0.716600  0.961000  1
  C  C1090  1  0.064700  0.216600  0.539000  1
  C  C1091  1  0.064700  0.283400  0.039000  1
  C  C1092  1  0.935300  0.783400  0.461000  1
  C  C1093  1  0.946800  0.734800  0.013100  1
  C  C1094  1  0.053200  0.234800  0.486900  1
  C  C1095  1  0.053200  0.265200  0.986900  1
  C  C1096  1  0.946800  0.765200  0.513100  1
  C  C1097  1  0.530000  0.965400  0.263600  1
  C  C1098  1  0.470000  0.465400  0.236400  1
  C  C1099  1  0.470000  0.034600  0.736400  1
  C  C1100  1  0.530000  0.534600  0.763600  1
  C  C1101  1  0.582500  0.963100  0.278000  1
  C  C1102  1  0.417500  0.463100  0.222000  1
  C  C1103  1  0.417500  0.036900  0.722000  1
  C  C1104  1  0.582500  0.536900  0.778000  1
  C  C1105  1  0.633500  0.965900  0.266800  1
  C  C1106  1  0.366500  0.465900  0.233200  1
  C  C1107  1  0.366500  0.034100  0.733200  1
  C  C1108  1  0.633500  0.534100  0.766800  1
  C  C1109  1  0.675700  0.964300  0.292800  1
  C  C1110  1  0.324300  0.464300  0.207200  1
  C  C1111  1  0.324300  0.035700  0.707200  1
  C  C1112  1  0.675700  0.535700  0.792800  1
  C  C1113  1  0.651600  0.958600  0.318900  1
  C  C1114  1  0.348400  0.458600  0.181100  1
  C  C1115  1  0.348400  0.041400  0.681100  1
  C  C1116  1  0.651600  0.541400  0.818900  1
  C  C1117  1  0.592800  0.958600  0.308800  1
  C  C1118  1  0.407200  0.458600  0.191200  1
  C  C1119  1  0.407200  0.041400  0.691200  1
  C  C1120  1  0.592800  0.541400  0.808800  1
  C  C1121  1  0.576900  0.906200  0.266400  1
  C  C1122  1  0.423100  0.406200  0.233600  1
  C  C1123  1  0.423100  0.093800  0.733600  1
  C  C1124  1  0.576900  0.593800  0.766400  1
  C  C1125  1  0.636900  0.902800  0.316600  1
  C  C1126  1  0.363100  0.402800  0.183400  1
  C  C1127  1  0.363100  0.097200  0.683400  1
  C  C1128  1  0.636900  0.597200  0.816600  1
  C  C1129  1  0.675600  0.907200  0.268400  1
  C  C1130  1  0.324400  0.407200  0.231600  1
  C  C1131  1  0.324400  0.092800  0.731600  1
  C  C1132  1  0.675600  0.592800  0.768400  1
  C  C1133  1  0.633900  0.822100  0.336900  1
  C  C1134  1  0.366100  0.322100  0.163100  1
  C  C1135  1  0.366100  0.177900  0.663100  1
  C  C1136  1  0.633900  0.677900  0.836900  1
  C  C1137  1  0.613400  0.800000  0.350600  1
  C  C1138  1  0.386600  0.300000  0.149400  1
  C  C1139  1  0.386600  0.200000  0.649400  1
  C  C1140  1  0.613400  0.700000  0.850600  1
  C  C1141  1  0.601100  0.771000  0.341600  1
  C  C1142  1  0.398900  0.271000  0.158400  1
  C  C1143  1  0.398900  0.229000  0.658400  1
  C  C1144  1  0.601100  0.729000  0.841600  1
  C  C1145  1  0.594100  0.754800  0.367600  1
  C  C1146  1  0.405900  0.254800  0.132400  1
  C  C1147  1  0.405900  0.245200  0.632400  1
  C  C1148  1  0.594100  0.745200  0.867600  1
  C  C1149  1  0.602700  0.773600  0.393400  1
  C  C1150  1  0.397300  0.273600  0.106600  1
  C  C1151  1  0.397300  0.226400  0.606600  1
  C  C1152  1  0.602700  0.726400  0.893400  1
  C  C1153  1  0.610400  0.801170  0.381120  1
  C  C1154  1  0.389600  0.301170  0.118880  1
  C  C1155  1  0.389600  0.198830  0.618880  1
  C  C1156  1  0.610400  0.698830  0.881120  1
  C  C1157  1  0.690000  0.738060  0.377610  1
  C  C1158  1  0.310000  0.238060  0.122390  1
  C  C1159  1  0.310000  0.261940  0.622390  1
  C  C1160  1  0.690000  0.761940  0.877610  1
  C  C1161  1  0.725400  0.786310  0.400530  1
  C  C1162  1  0.274600  0.286310  0.099470  1
  C  C1163  1  0.274600  0.213690  0.599470  1
  C  C1164  1  0.725400  0.713690  0.900530  1
  C  C1165  1  0.718100  0.772440  0.346230  1
  C  C1166  1  0.281900  0.272440  0.153770  1
  C  C1167  1  0.281900  0.227560  0.653770  1
  C  C1168  1  0.718100  0.727560  0.846230  1
  C  C1169  1  0.715000  0.790300  0.189600  1
  C  C1170  1  0.285000  0.290300  0.310400  1
  C  C1171  1  0.285000  0.209700  0.810400  1
  C  C1172  1  0.715000  0.709700  0.689600  1
  C  C1173  1  0.739100  0.796000  0.216800  1
  C  C1174  1  0.260900  0.296000  0.283200  1
  C  C1175  1  0.260900  0.204000  0.783200  1
  C  C1176  1  0.739100  0.704000  0.716800  1
  C  C1177  1  0.764300  0.821800  0.229100  1
  C  C1178  1  0.235700  0.321800  0.270900  1
  C  C1179  1  0.235700  0.178200  0.770900  1
  C  C1180  1  0.764300  0.678200  0.729100  1
  C  C1181  1  0.789700  0.813300  0.258600  1
  C  C1182  1  0.210300  0.313300  0.241400  1
  C  C1183  1  0.210300  0.186700  0.741400  1
  C  C1184  1  0.789700  0.686700  0.758600  1
  C  C1185  1  0.779200  0.783000  0.263900  1
  C  C1186  1  0.220800  0.283000  0.236100  1
  C  C1187  1  0.220800  0.217000  0.736100  1
  C  C1188  1  0.779200  0.717000  0.763900  1
  C  C1189  1  0.748000  0.772600  0.237600  1
  C  C1190  1  0.252000  0.272600  0.262400  1
  C  C1191  1  0.252000  0.227400  0.762400  1
  C  C1192  1  0.748000  0.727400  0.737600  1
  C  C1193  1  0.660200  0.782500  0.264700  1
  C  C1194  1  0.339800  0.282500  0.235300  1
  C  C1195  1  0.339800  0.217500  0.735300  1
  C  C1196  1  0.660200  0.717500  0.764700  1
  C  C1197  1  0.648400  0.828000  0.233600  1
  C  C1198  1  0.351600  0.328000  0.266400  1
  C  C1199  1  0.351600  0.172000  0.766400  1
  C  C1200  1  0.648400  0.672000  0.733600  1
  C  C1201  1  0.706000  0.825100  0.285590  1
  C  C1202  1  0.294000  0.325100  0.214410  1
  C  C1203  1  0.294000  0.174900  0.714410  1
  C  C1204  1  0.706000  0.674900  0.785590  1
  C  C1205  1  0.386000  0.729000  0.260000  1
  C  C1206  1  0.614000  0.229000  0.240000  1
  C  C1207  1  0.614000  0.271000  0.740000  1
  C  C1208  1  0.386000  0.771000  0.760000  1
  C  C1209  1  0.384000  0.747700  0.238100  1
  C  C1210  1  0.616000  0.247700  0.261900  1
  C  C1211  1  0.616000  0.252300  0.761900  1
  C  C1212  1  0.384000  0.752300  0.738100  1
  C  C1213  1  0.402000  0.743400  0.211000  1
  C  C1214  1  0.598000  0.243400  0.289000  1
  C  C1215  1  0.598000  0.256600  0.789000  1
  C  C1216  1  0.402000  0.756600  0.711000  1
  C  C1217  1  0.386000  0.770500  0.196600  1
  C  C1218  1  0.614000  0.270500  0.303400  1
  C  C1219  1  0.614000  0.229500  0.803400  1
  C  C1220  1  0.386000  0.729500  0.696600  1
  C  C1221  1  0.364000  0.791700  0.215000  1
  C  C1222  1  0.636000  0.291700  0.285000  1
  C  C1223  1  0.636000  0.208300  0.785000  1
  C  C1224  1  0.364000  0.708300  0.715000  1
  C  C1225  1  0.362700  0.776200  0.240800  1
  C  C1226  1  0.637300  0.276200  0.259200  1
  C  C1227  1  0.637300  0.223800  0.759200  1
  C  C1228  1  0.362700  0.723800  0.740800  1
  C  C1229  1  0.465000  0.807700  0.217300  1
  C  C1230  1  0.535000  0.307700  0.282700  1
  C  C1231  1  0.535000  0.192300  0.782700  1
  C  C1232  1  0.465000  0.692300  0.717300  1
  C  C1233  1  0.509100  0.760500  0.235300  1
  C  C1234  1  0.490900  0.260500  0.264700  1
  C  C1235  1  0.490900  0.239500  0.764700  1
  C  C1236  1  0.509100  0.739500  0.735300  1
  C  C1237  1  0.463000  0.792000  0.268200  1
  C  C1238  1  0.537000  0.292000  0.231800  1
  C  C1239  1  0.537000  0.208000  0.731800  1
  C  C1240  1  0.463000  0.708000  0.768200  1
  C  C1241  1  0.783000  0.781000  0.266700  1
  C  C1242  1  0.217000  0.281000  0.233300  1
  C  C1243  1  0.217000  0.219000  0.733300  1
  C  C1244  1  0.783000  0.719000  0.766700  1
  C  C1245  1  0.762200  0.788500  0.239500  1
  C  C1246  1  0.237800  0.288500  0.260500  1
  C  C1247  1  0.237800  0.211500  0.760500  1
  C  C1248  1  0.762200  0.711500  0.739500  1
  C  C1249  1  0.756000  0.816300  0.226200  1
  C  C1250  1  0.244000  0.316300  0.273800  1
  C  C1251  1  0.244000  0.183700  0.773800  1
  C  C1252  1  0.756000  0.683700  0.726200  1
  C  C1253  1  0.736000  0.810600  0.195700  1
  C  C1254  1  0.264000  0.310600  0.304300  1
  C  C1255  1  0.264000  0.189400  0.804300  1
  C  C1256  1  0.736000  0.689400  0.695700  1
  C  C1257  1  0.730000  0.779700  0.190300  1
  C  C1258  1  0.270000  0.279700  0.309700  1
  C  C1259  1  0.270000  0.220300  0.809700  1
  C  C1260  1  0.730000  0.720300  0.690300  1
  C  C1261  1  0.746000  0.766400  0.217900  1
  C  C1262  1  0.254000  0.266400  0.282100  1
  C  C1263  1  0.254000  0.233600  0.782100  1
  C  C1264  1  0.746000  0.733600  0.717900  1
  C  C1265  1  0.625500  0.778100  0.199200  1
  C  C1266  1  0.374500  0.278100  0.300800  1
  C  C1267  1  0.374500  0.221900  0.800800  1
  C  C1268  1  0.625500  0.721900  0.699200  1
  C  C1269  1  0.644300  0.827000  0.224200  1
  C  C1270  1  0.355700  0.327000  0.275800  1
  C  C1271  1  0.355700  0.173000  0.775800  1
  C  C1272  1  0.644300  0.673000  0.724200  1
  C  C1273  1  0.654800  0.777400  0.250600  1
  C  C1274  1  0.345200  0.277400  0.249400  1
  C  C1275  1  0.345200  0.222600  0.749400  1
  C  C1276  1  0.654800  0.722600  0.750600  1
  C  C1277  1  0.455000  0.753000  0.154100  1
  C  C1278  1  0.545000  0.253000  0.345900  1
  C  C1279  1  0.545000  0.247000  0.845900  1
  C  C1280  1  0.455000  0.747000  0.654100  1
  C  C1281  1  0.420000  0.719400  0.205000  1
  C  C1282  1  0.580000  0.219400  0.295000  1
  C  C1283  1  0.580000  0.280600  0.795000  1
  C  C1284  1  0.420000  0.780600  0.705000  1
  C  C1285  1  0.407300  0.746500  0.197000  1
  C  C1286  1  0.592700  0.246500  0.303000  1
  C  C1287  1  0.592700  0.253500  0.803000  1
  C  C1288  1  0.407300  0.753500  0.697000  1
  C  C1289  1  0.423400  0.762000  0.173300  1
  C  C1290  1  0.576600  0.262000  0.326700  1
  C  C1291  1  0.576600  0.238000  0.826700  1
  C  C1292  1  0.423400  0.738000  0.673300  1
  C  C1293  1  0.397100  0.790300  0.174100  1
  C  C1294  1  0.602900  0.290300  0.325900  1
  C  C1295  1  0.602900  0.209700  0.825900  1
  C  C1296  1  0.397100  0.709700  0.674100  1
  C  C1297  1  0.366100  0.792400  0.198300  1
  C  C1298  1  0.633900  0.292400  0.301700  1
  C  C1299  1  0.633900  0.207600  0.801700  1
  C  C1300  1  0.366100  0.707600  0.698300  1
  C  C1301  1  0.372700  0.764500  0.211800  1
  C  C1302  1  0.627300  0.264500  0.288200  1
  C  C1303  1  0.627300  0.235500  0.788200  1
  C  C1304  1  0.372700  0.735500  0.711800  1
  C  C1305  1  0.460400  0.818000  0.222800  1
  C  C1306  1  0.539600  0.318000  0.277200  1
  C  C1307  1  0.539600  0.182000  0.777200  1
  C  C1308  1  0.460400  0.682000  0.722800  1
  C  C1309  1  0.515900  0.779800  0.202100  1
  C  C1310  1  0.484100  0.279800  0.297900  1
  C  C1311  1  0.484100  0.220200  0.797900  1
  C  C1312  1  0.515900  0.720200  0.702100  1
  C  C1313  1  0.478000  0.770900  0.248000  1
  C  C1314  1  0.522000  0.270900  0.252000  1
  C  C1315  1  0.522000  0.229100  0.752000  1
  C  C1316  1  0.478000  0.729100  0.748000  1
  N  N1317  1  0.785300  0.927700  0.190900  1
  N  N1318  1  0.214700  0.427700  0.309100  1
  N  N1319  1  0.214700  0.072300  0.809100  1
  N  N1320  1  0.785300  0.572300  0.690900  1
  N  N1321  1  0.580200  0.758300  0.108400  1
  N  N1322  1  0.419800  0.258300  0.391600  1
  N  N1323  1  0.419800  0.241700  0.891600  1
  N  N1324  1  0.580200  0.741700  0.608400  1
  N  N1325  1  0.390200  0.914000  0.185300  1
  N  N1326  1  0.609800  0.414000  0.314700  1
  N  N1327  1  0.609800  0.086000  0.814700  1
  N  N1328  1  0.390200  0.586000  0.685300  1
  N  N1329  1  0.857600  0.926000  0.243800  1
  N  N1330  1  0.142400  0.426000  0.256200  1
  N  N1331  1  0.142400  0.074000  0.756200  1
  N  N1332  1  0.857600  0.574000  0.743800  1
  N  N1333  1  0.709900  0.908300  0.421800  1
  N  N1334  1  0.290100  0.408300  0.078200  1
  N  N1335  1  0.290100  0.091700  0.578200  1
  N  N1336  1  0.709900  0.591700  0.921800  1
  N  N1337  1  0.903000  0.748700  0.349700  1
  N  N1338  1  0.097000  0.248700  0.150300  1
  N  N1339  1  0.097000  0.251300  0.650300  1
  N  N1340  1  0.903000  0.751300  0.849700  1
  N  N1341  1  0.590500  0.708700  0.142900  1
  N  N1342  1  0.409500  0.208700  0.357100  1
  N  N1343  1  0.409500  0.291300  0.857100  1
  N  N1344  1  0.590500  0.791300  0.642900  1
  N  N1345  1  0.840200  0.700600  0.325700  1
  N  N1346  1  0.159800  0.200600  0.174300  1
  N  N1347  1  0.159800  0.299400  0.674300  1
  N  N1348  1  0.840200  0.799400  0.825700  1
  N  N1349  1  0.448400  0.684700  0.322500  1
  N  N1350  1  0.551600  0.184700  0.177500  1
  N  N1351  1  0.551600  0.315300  0.677500  1
  N  N1352  1  0.448400  0.815300  0.822500  1
  N  N1353  1  0.348300  0.905000  0.235700  1
  N  N1354  1  0.651700  0.405000  0.264300  1
  N  N1355  1  0.651700  0.095000  0.764300  1
  N  N1356  1  0.348300  0.595000  0.735700  1
  N  N1357  1  0.393100  0.728400  0.344600  1
  N  N1358  1  0.606900  0.228400  0.155400  1
  N  N1359  1  0.606900  0.271600  0.655400  1
  N  N1360  1  0.393100  0.771600  0.844600  1
  N  N1361  1  0.595100  0.900900  0.418800  1
  N  N1362  1  0.404900  0.400900  0.081200  1
  N  N1363  1  0.404900  0.099100  0.581200  1
  N  N1364  1  0.595100  0.599100  0.918800  1
  N  N1365  1  0.635300  0.855500  0.152300  1
  N  N1366  1  0.364700  0.355500  0.347700  1
  N  N1367  1  0.364700  0.144500  0.847700  1
  N  N1368  1  0.635300  0.644500  0.652300  1
  N  N1369  1  0.536100  0.853400  0.150900  1
  N  N1370  1  0.463900  0.353400  0.349100  1
  N  N1371  1  0.463900  0.146600  0.849100  1
  N  N1372  1  0.536100  0.646600  0.650900  1
  N  N1373  1  0.586200  0.893800  0.171800  1
  N  N1374  1  0.413800  0.393800  0.328200  1
  N  N1375  1  0.413800  0.106200  0.828200  1
  N  N1376  1  0.586200  0.606200  0.671800  1
  N  N1377  1  0.812000  0.890300  0.338000  1
  N  N1378  1  0.188000  0.390300  0.162000  1
  N  N1379  1  0.188000  0.109700  0.662000  1
  N  N1380  1  0.812000  0.609700  0.838000  1
  N  N1381  1  0.822700  0.845500  0.364000  1
  N  N1382  1  0.177300  0.345500  0.136000  1
  N  N1383  1  0.177300  0.154500  0.636000  1
  N  N1384  1  0.822700  0.654500  0.864000  1
  N  N1385  1  0.858300  0.850900  0.320300  1
  N  N1386  1  0.141700  0.350900  0.179700  1
  N  N1387  1  0.141700  0.149100  0.679700  1
  N  N1388  1  0.858300  0.649100  0.820300  1
  N  N1389  1  0.672900  0.701600  0.248800  1
  N  N1390  1  0.327100  0.201600  0.251200  1
  N  N1391  1  0.327100  0.298400  0.751200  1
  N  N1392  1  0.672900  0.798400  0.748800  1
  N  N1393  1  0.636300  0.694300  0.292500  1
  N  N1394  1  0.363700  0.194300  0.207500  1
  N  N1395  1  0.363700  0.305700  0.707500  1
  N  N1396  1  0.636300  0.805700  0.792500  1
  N  N1397  1  0.574300  0.695700  0.248000  1
  N  N1398  1  0.425700  0.195700  0.252000  1
  N  N1399  1  0.425700  0.304300  0.752000  1
  N  N1400  1  0.574300  0.804300  0.748000  1
  N  N1401  1  0.407200  0.830500  0.313600  1
  N  N1402  1  0.592800  0.330500  0.186400  1
  N  N1403  1  0.592800  0.169500  0.686400  1
  N  N1404  1  0.407200  0.669500  0.813600  1
  N  N1405  1  0.467600  0.829300  0.358700  1
  N  N1406  1  0.532400  0.329300  0.141300  1
  N  N1407  1  0.532400  0.170700  0.641300  1
  N  N1408  1  0.467600  0.670700  0.858700  1
  N  N1409  1  0.459900  0.872500  0.331700  1
  N  N1410  1  0.540100  0.372500  0.168300  1
  N  N1411  1  0.540100  0.127500  0.668300  1
  N  N1412  1  0.459900  0.627500  0.831700  1
  N  N1413  1  0.859100  0.970900  0.167400  1
  N  N1414  1  0.140900  0.470900  0.332600  1
  N  N1415  1  0.140900  0.029100  0.832600  1
  N  N1416  1  0.859100  0.529100  0.667400  1
  N  N1417  1  0.932100  0.969000  0.219500  1
  N  N1418  1  0.067900  0.469000  0.280500  1
  N  N1419  1  0.067900  0.031000  0.780500  1
  N  N1420  1  0.932100  0.531000  0.719500  1
  N  N1421  1  0.577500  0.672700  0.089600  1
  N  N1422  1  0.422500  0.172700  0.410400  1
  N  N1423  1  0.422500  0.327300  0.910400  1
  N  N1424  1  0.577500  0.827300  0.589600  1
  N  N1425  1  0.570000  0.722200  0.054400  1
  N  N1426  1  0.430000  0.222200  0.445600  1
  N  N1427  1  0.430000  0.277800  0.945600  1
  N  N1428  1  0.570000  0.777800  0.554400  1
  N  N1429  1  0.251300  0.942300  0.215600  1
  N  N1430  1  0.748700  0.442300  0.284400  1
  N  N1431  1  0.748700  0.057700  0.784400  1
  N  N1432  1  0.251300  0.557700  0.715600  1
  N  N1433  1  0.290600  0.950700  0.162100  1
  N  N1434  1  0.709400  0.450700  0.337900  1
  N  N1435  1  0.709400  0.049300  0.837900  1
  N  N1436  1  0.290600  0.549300  0.662100  1
  N  N1437  1  0.714700  0.945900  0.473200  1
  N  N1438  1  0.285300  0.445900  0.026800  1
  N  N1439  1  0.285300  0.054100  0.526800  1
  N  N1440  1  0.714700  0.554100  0.973200  1
  N  N1441  1  0.599900  0.938100  0.471600  1
  N  N1442  1  0.400100  0.438100  0.028400  1
  N  N1443  1  0.400100  0.061900  0.528400  1
  N  N1444  1  0.599900  0.561900  0.971600  1
  N  N1445  1  0.938100  0.662600  0.352100  1
  N  N1446  1  0.061900  0.162600  0.147900  1
  N  N1447  1  0.061900  0.337400  0.647900  1
  N  N1448  1  0.938100  0.837400  0.852100  1
  N  N1449  1  0.000400  0.710200  0.374000  1
  N  N1450  1  0.999600  0.210200  0.126000  1
  N  N1451  1  0.999600  0.289800  0.626000  1
  N  N1452  1  0.000400  0.789800  0.874000  1
  N  N1453  1  0.373200  0.640800  0.343500  1
  N  N1454  1  0.626800  0.140800  0.156500  1
  N  N1455  1  0.626800  0.359200  0.656500  1
  N  N1456  1  0.373200  0.859200  0.843500  1
  N  N1457  1  0.317200  0.684900  0.365700  1
  N  N1458  1  0.682800  0.184900  0.134300  1
  N  N1459  1  0.682800  0.315100  0.634300  1
  N  N1460  1  0.317200  0.815100  0.865700  1
  N  N1461  1  0.856700  0.601300  0.179700  1
  N  N1462  1  0.143300  0.101300  0.320300  1
  N  N1463  1  0.143300  0.398700  0.820300  1
  N  N1464  1  0.856700  0.898700  0.679700  1
  N  N1465  1  0.254600  0.599600  0.196400  1
  N  N1466  1  0.745400  0.099600  0.303600  1
  N  N1467  1  0.745400  0.400400  0.803600  1
  N  N1468  1  0.254600  0.900400  0.696400  1
  N  N1469  1  0.067200  0.772900  0.240200  1
  N  N1470  1  0.932800  0.272900  0.259800  1
  N  N1471  1  0.932800  0.227100  0.759800  1
  N  N1472  1  0.067200  0.727100  0.740200  1
  N  N1473  1  0.780700  0.600400  0.128000  1
  N  N1474  1  0.219300  0.100400  0.372000  1
  N  N1475  1  0.219300  0.399600  0.872000  1
  N  N1476  1  0.780700  0.899600  0.628000  1
  N  N1477  1  0.759600  0.766700  0.003500  1
  N  N1478  1  0.240400  0.266700  0.496500  1
  N  N1479  1  0.240400  0.233300  0.996500  1
  N  N1480  1  0.759600  0.733300  0.503500  1
  N  N1481  1  0.940100  0.590300  0.954500  1
  N  N1482  1  0.059900  0.090300  0.545500  1
  N  N1483  1  0.059900  0.409700  0.045500  1
  N  N1484  1  0.940100  0.909700  0.454500  1
  N  N1485  1  0.299100  0.593600  0.146200  1
  N  N1486  1  0.700900  0.093600  0.353800  1
  N  N1487  1  0.700900  0.406400  0.853800  1
  N  N1488  1  0.299100  0.906400  0.646200  1
  N  N1489  1  0.054900  0.588100  0.960200  1
  N  N1490  1  0.945100  0.088100  0.539800  1
  N  N1491  1  0.945100  0.411900  0.039800  1
  N  N1492  1  0.054900  0.911900  0.460200  1
  N  N1493  1  0.265200  0.759600  0.020200  1
  N  N1494  1  0.734800  0.259600  0.479800  1
  N  N1495  1  0.734800  0.240400  0.979800  1
  N  N1496  1  0.265200  0.740400  0.520200  1
  N  N1497  1  0.217800  0.811200  0.032900  1
  N  N1498  1  0.782200  0.311200  0.467100  1
  N  N1499  1  0.782200  0.188800  0.967100  1
  N  N1500  1  0.217800  0.688800  0.532900  1
  N  N1501  1  0.821000  0.816800  0.021500  1
  N  N1502  1  0.179000  0.316800  0.478500  1
  N  N1503  1  0.179000  0.183200  0.978500  1
  N  N1504  1  0.821000  0.683200  0.521500  1
  N  N1505  1  0.057700  0.824500  0.207200  1
  N  N1506  1  0.942300  0.324500  0.292800  1
  N  N1507  1  0.942300  0.175500  0.792800  1
  N  N1508  1  0.057700  0.675500  0.707200  1
  N  N1509  1  0.057800  0.630300  0.196300  1
  N  N1510  1  0.942200  0.130300  0.303700  1
  N  N1511  1  0.942200  0.369700  0.803700  1
  N  N1512  1  0.057800  0.869700  0.696300  1
  N  N1513  1  0.109500  0.672300  0.212300  1
  N  N1514  1  0.890500  0.172300  0.287700  1
  N  N1515  1  0.890500  0.327700  0.787700  1
  N  N1516  1  0.109500  0.827700  0.712300  1
  N  N1517  1  0.011200  0.673900  0.206200  1
  N  N1518  1  0.988800  0.173900  0.293800  1
  N  N1519  1  0.988800  0.326100  0.793800  1
  N  N1520  1  0.011200  0.826100  0.706200  1
  N  N1521  1  0.796200  0.667300  0.045300  1
  N  N1522  1  0.203800  0.167300  0.454700  1
  N  N1523  1  0.203800  0.332700  0.954700  1
  N  N1524  1  0.796200  0.832700  0.545300  1
  N  N1525  1  0.833800  0.664500  0.002200  1
  N  N1526  1  0.166200  0.164500  0.497800  1
  N  N1527  1  0.166200  0.335500  0.997800  1
  N  N1528  1  0.833800  0.835500  0.502200  1
  N  N1529  1  0.836800  0.624500  0.032500  1
  N  N1530  1  0.163200  0.124500  0.467500  1
  N  N1531  1  0.163200  0.375500  0.967500  1
  N  N1532  1  0.836800  0.875500  0.532500  1
  N  N1533  1  0.191000  0.619900  0.047200  1
  N  N1534  1  0.809000  0.119900  0.452800  1
  N  N1535  1  0.809000  0.380100  0.952800  1
  N  N1536  1  0.191000  0.880100  0.547200  1
  N  N1537  1  0.182200  0.659800  0.017400  1
  N  N1538  1  0.817800  0.159800  0.482600  1
  N  N1539  1  0.817800  0.340200  0.982600  1
  N  N1540  1  0.182200  0.840200  0.517400  1
  N  N1541  1  0.243000  0.661700  0.062600  1
  N  N1542  1  0.757000  0.161700  0.437400  1
  N  N1543  1  0.757000  0.338300  0.937400  1
  N  N1544  1  0.243000  0.838300  0.562600  1
  N  N1545  1  0.024800  0.819500  0.057400  1
  N  N1546  1  0.975200  0.319500  0.442600  1
  N  N1547  1  0.975200  0.180500  0.942600  1
  N  N1548  1  0.024800  0.680500  0.557400  1
  N  N1549  1  0.985800  0.823100  0.101000  1
  N  N1550  1  0.014200  0.323100  0.399000  1
  N  N1551  1  0.014200  0.176900  0.899000  1
  N  N1552  1  0.985800  0.676900  0.601000  1
  N  N1553  1  0.084100  0.820900  0.102600  1
  N  N1554  1  0.915900  0.320900  0.397400  1
  N  N1555  1  0.915900  0.179100  0.897400  1
  N  N1556  1  0.084100  0.679100  0.602600  1
  N  N1557  1  0.780200  0.563700  0.209000  1
  N  N1558  1  0.219800  0.063700  0.291000  1
  N  N1559  1  0.219800  0.436300  0.791000  1
  N  N1560  1  0.780200  0.936300  0.709000  1
  N  N1561  1  0.704200  0.564400  0.158300  1
  N  N1562  1  0.295800  0.064400  0.341700  1
  N  N1563  1  0.295800  0.435600  0.841700  1
  N  N1564  1  0.704200  0.935600  0.658300  1
  N  N1565  1  0.350200  0.565200  0.228800  1
  N  N1566  1  0.649800  0.065200  0.271200  1
  N  N1567  1  0.649800  0.434800  0.771200  1
  N  N1568  1  0.350200  0.934800  0.728800  1
  N  N1569  1  0.392400  0.559400  0.177700  1
  N  N1570  1  0.607600  0.059400  0.322300  1
  N  N1571  1  0.607600  0.440600  0.822300  1
  N  N1572  1  0.392400  0.940600  0.677700  1
  N  N1573  1  0.065500  0.859400  0.261200  1
  N  N1574  1  0.934500  0.359400  0.238800  1
  N  N1575  1  0.934500  0.140600  0.738800  1
  N  N1576  1  0.065500  0.640600  0.761200  1
  N  N1577  1  0.076200  0.808200  0.294100  1
  N  N1578  1  0.923800  0.308200  0.205900  1
  N  N1579  1  0.923800  0.191800  0.705900  1
  N  N1580  1  0.076200  0.691800  0.794100  1
  N  N1581  1  0.726200  0.852500  0.988400  1
  N  N1582  1  0.273800  0.352500  0.511600  1
  N  N1583  1  0.273800  0.147500  0.011600  1
  N  N1584  1  0.726200  0.647500  0.488400  1
  N  N1585  1  0.664900  0.802600  0.973200  1
  N  N1586  1  0.335100  0.302600  0.526800  1
  N  N1587  1  0.335100  0.197400  0.026800  1
  N  N1588  1  0.664900  0.697400  0.473200  1
  N  N1589  1  0.348600  0.790600  0.993200  1
  N  N1590  1  0.651400  0.290600  0.506800  1
  N  N1591  1  0.651400  0.209400  0.006800  1
  N  N1592  1  0.348600  0.709400  0.493200  1
  N  N1593  1  0.301800  0.842500  0.006300  1
  N  N1594  1  0.698200  0.342500  0.493700  1
  N  N1595  1  0.698200  0.157500  0.993700  1
  N  N1596  1  0.301800  0.657500  0.506300  1
  N  N1597  1  0.042700  0.545900  0.911500  1
  N  N1598  1  0.957300  0.045900  0.588500  1
  N  N1599  1  0.957300  0.454100  0.088500  1
  N  N1600  1  0.042700  0.954100  0.411500  1
  N  N1601  1  0.928800  0.547900  0.907400  1
  N  N1602  1  0.071200  0.047900  0.592600  1
  N  N1603  1  0.071200  0.452100  0.092600  1
  N  N1604  1  0.928800  0.952100  0.407400  1
  N  N1605  1  0.290500  0.694800  0.251500  1
  N  N1606  1  0.709500  0.194800  0.248500  1
  N  N1607  1  0.709500  0.305200  0.748500  1
  N  N1608  1  0.290500  0.805200  0.751500  1
  N  N1609  1  0.901300  0.812100  0.233100  1
  N  N1610  1  0.098700  0.312100  0.266900  1
  N  N1611  1  0.098700  0.187900  0.766900  1
  N  N1612  1  0.901300  0.687900  0.733100  1
  N  N1613  1  0.181800  0.785700  0.929700  1
  N  N1614  1  0.818200  0.285700  0.570300  1
  N  N1615  1  0.818200  0.214300  0.070300  1
  N  N1616  1  0.181800  0.714300  0.429700  1
  N  N1617  1  0.020100  0.650500  0.269600  1
  N  N1618  1  0.979900  0.150500  0.230400  1
  N  N1619  1  0.979900  0.349500  0.730400  1
  N  N1620  1  0.020100  0.849500  0.769600  1
  N  N1621  1  0.584500  0.992300  0.394400  1
  N  N1622  1  0.415500  0.492300  0.105600  1
  N  N1623  1  0.415500  0.007700  0.605600  1
  N  N1624  1  0.584500  0.507700  0.894400  1
  N  N1625  1  0.933700  0.886500  0.158900  1
  N  N1626  1  0.066300  0.386500  0.341100  1
  N  N1627  1  0.066300  0.113500  0.841100  1
  N  N1628  1  0.933700  0.613500  0.658900  1
  N  N1629  1  0.706900  0.645800  0.207200  1
  N  N1630  1  0.293100  0.145800  0.292800  1
  N  N1631  1  0.293100  0.354200  0.792800  1
  N  N1632  1  0.706900  0.854200  0.707200  1
  N  N1633  1  0.413400  0.704400  0.088800  1
  N  N1634  1  0.586600  0.204400  0.411200  1
  N  N1635  1  0.586600  0.295600  0.911200  1
  N  N1636  1  0.413400  0.795600  0.588800  1
  N  N1637  1  0.744500  0.729800  0.113300  1
  N  N1638  1  0.255500  0.229800  0.386700  1
  N  N1639  1  0.255500  0.270200  0.886700  1
  N  N1640  1  0.744500  0.770200  0.613300  1
  N  N1641  1  0.394000  0.810100  0.088000  1
  N  N1642  1  0.606000  0.310100  0.412000  1
  N  N1643  1  0.606000  0.189900  0.912000  1
  N  N1644  1  0.394000  0.689900  0.588000  1
  N  N1645  1  0.238200  0.821600  0.261600  1
  N  N1646  1  0.761800  0.321600  0.238400  1
  N  N1647  1  0.761800  0.178400  0.738400  1
  N  N1648  1  0.238200  0.678400  0.761600  1
  N  N1649  1  0.677100  0.642200  0.004800  1
  N  N1650  1  0.322900  0.142200  0.495200  1
  N  N1651  1  0.322900  0.357800  0.995200  1
  N  N1652  1  0.677100  0.857800  0.504800  1
  N  N1653  1  0.849600  0.524300  0.030200  1
  N  N1654  1  0.150400  0.024300  0.469800  1
  N  N1655  1  0.150400  0.475700  0.969800  1
  N  N1656  1  0.849600  0.975700  0.530200  1
  N  N1657  1  0.866500  0.509000  0.143800  1
  N  N1658  1  0.133500  0.009000  0.356200  1
  N  N1659  1  0.133500  0.491000  0.856200  1
  N  N1660  1  0.866500  0.991000  0.643800  1
  N  N1661  1  0.834800  0.709400  0.425400  1
  N  N1662  1  0.165200  0.209400  0.074600  1
  N  N1663  1  0.165200  0.290600  0.574600  1
  N  N1664  1  0.834800  0.790600  0.925400  1
  N  N1665  1  0.635500  0.820100  0.056800  1
  N  N1666  1  0.364500  0.320100  0.443200  1
  N  N1667  1  0.364500  0.179900  0.943200  1
  N  N1668  1  0.635500  0.679900  0.556800  1
  N  N1669  1  0.241800  0.855100  0.169300  1
  N  N1670  1  0.758200  0.355100  0.330700  1
  N  N1671  1  0.758200  0.144900  0.830700  1
  N  N1672  1  0.241800  0.644900  0.669300  1
  N  N1673  1  0.227300  0.495400  0.150000  1
  N  N1674  1  0.772700  0.995400  0.350000  1
  N  N1675  1  0.772700  0.504600  0.850000  1
  N  N1676  1  0.227300  0.004600  0.650000  1
  N  N1677  1  0.491000  0.710000  0.430700  1
  N  N1678  1  0.509000  0.210000  0.069300  1
  N  N1679  1  0.509000  0.290000  0.569300  1
  N  N1680  1  0.491000  0.790000  0.930700  1
  N  N1681  1  0.383600  0.672000  0.209300  1
  N  N1682  1  0.616400  0.172000  0.290700  1
  N  N1683  1  0.616400  0.328000  0.790700  1
  N  N1684  1  0.383600  0.828000  0.709300  1
  N  N1685  1  0.980700  0.698200  0.277900  1
  N  N1686  1  0.019300  0.198200  0.222100  1
  N  N1687  1  0.019300  0.301800  0.722100  1
  N  N1688  1  0.980700  0.801800  0.777900  1
  N  N1689  1  0.373000  0.796900  0.093700  1
  N  N1690  1  0.627000  0.296900  0.406300  1
  N  N1691  1  0.627000  0.203100  0.906300  1
  N  N1692  1  0.373000  0.703100  0.593700  1
  N  N1693  1  0.678100  0.829300  0.071500  1
  N  N1694  1  0.321900  0.329300  0.428500  1
  N  N1695  1  0.321900  0.170700  0.928500  1
  N  N1696  1  0.678100  0.670700  0.571500  1
  N  N1697  1  0.218200  0.499000  0.174900  1
  N  N1698  1  0.781800  0.999000  0.325100  1
  N  N1699  1  0.781800  0.501000  0.825100  1
  N  N1700  1  0.218200  0.001000  0.674900  1
  N  N1701  1  0.489000  0.703300  0.423800  1
  N  N1702  1  0.511000  0.203300  0.076200  1
  N  N1703  1  0.511000  0.296700  0.576200  1
  N  N1704  1  0.489000  0.796700  0.923800  1
  N  N1705  1  0.477000  0.672000  0.426500  1
  N  N1706  1  0.523000  0.172000  0.073500  1
  N  N1707  1  0.523000  0.328000  0.573500  1
  N  N1708  1  0.477000  0.828000  0.926500  1
  N  N1709  1  0.013300  0.508300  0.006300  1
  N  N1710  1  0.986700  0.008300  0.493700  1
  N  N1711  1  0.986700  0.491700  0.993700  1
  N  N1712  1  0.013300  0.991700  0.506300  1
  N  N1713  1  0.971200  0.874000  0.364300  1
  N  N1714  1  0.028800  0.374000  0.135700  1
  N  N1715  1  0.028800  0.126000  0.635700  1
  N  N1716  1  0.971200  0.626000  0.864300  1
  O  O1717  1  0.112100  0.621500  0.122800  1
  O  O1718  1  0.887900  0.121500  0.377200  1
  O  O1719  1  0.887900  0.378500  0.877200  1
  O  O1720  1  0.112100  0.878500  0.622800  1
  O  O1721  1  0.936600  0.624700  0.113400  1
  O  O1722  1  0.063400  0.124700  0.386600  1
  O  O1723  1  0.063400  0.375300  0.886600  1
  O  O1724  1  0.936600  0.875300  0.613400  1
  O  O1725  1  0.015100  0.620100  0.037900  1
  O  O1726  1  0.984900  0.120100  0.462100  1
  O  O1727  1  0.984900  0.379900  0.962100  1
  O  O1728  1  0.015100  0.879900  0.537900  1
  O  O1729  1  0.016800  0.753100  0.088600  1
  O  O1730  1  0.983200  0.253100  0.411400  1
  O  O1731  1  0.983200  0.246900  0.911400  1
  O  O1732  1  0.016800  0.746900  0.588600  1
  O  O1733  1  0.044000  0.677900  0.140700  1
  O  O1734  1  0.956000  0.177900  0.359300  1
  O  O1735  1  0.956000  0.322100  0.859300  1
  O  O1736  1  0.044000  0.822100  0.640700  1
  O  O1737  1  0.936200  0.672000  0.059100  1
  O  O1738  1  0.063800  0.172000  0.440900  1
  O  O1739  1  0.063800  0.328000  0.940900  1
  O  O1740  1  0.936200  0.828000  0.559100  1
  O  O1741  1  0.097600  0.746600  0.157800  1
  O  O1742  1  0.902400  0.246600  0.342200  1
  O  O1743  1  0.902400  0.253400  0.842200  1
  O  O1744  1  0.097600  0.753400  0.657800  1
  O  O1745  1  0.159500  0.746000  0.077200  1
  O  O1746  1  0.840500  0.246000  0.422800  1
  O  O1747  1  0.840500  0.254000  0.922800  1
  O  O1748  1  0.159500  0.754000  0.577200  1
  O  O1749  1  0.184800  0.674500  0.134000  1
  O  O1750  1  0.815200  0.174500  0.366000  1
  O  O1751  1  0.815200  0.325500  0.866000  1
  O  O1752  1  0.184800  0.825500  0.634000  1
  O  O1753  1  0.943200  0.788700  0.964800  1
  O  O1754  1  0.056800  0.288700  0.535200  1
  O  O1755  1  0.056800  0.211300  0.035200  1
  O  O1756  1  0.943200  0.711300  0.464800  1
  O  O1757  1  0.900900  0.705900  0.942900  1
  O  O1758  1  0.099100  0.205900  0.557100  1
  O  O1759  1  0.099100  0.294100  0.057100  1
  O  O1760  1  0.900900  0.794100  0.442900  1
  O  O1761  1  0.918000  0.737500  0.030600  1
  O  O1762  1  0.082000  0.237500  0.469400  1
  O  O1763  1  0.082000  0.262500  0.969400  1
  O  O1764  1  0.918000  0.762500  0.530600  1
  O  O1765  1  0.536300  0.894700  0.252900  1
  O  O1766  1  0.463700  0.394700  0.247100  1
  O  O1767  1  0.463700  0.105300  0.747100  1
  O  O1768  1  0.536300  0.605300  0.752900  1
  O  O1769  1  0.643500  0.887800  0.336600  1
  O  O1770  1  0.356500  0.387800  0.163400  1
  O  O1771  1  0.356500  0.112200  0.663400  1
  O  O1772  1  0.643500  0.612200  0.836600  1
  O  O1773  1  0.713700  0.899300  0.259400  1
  O  O1774  1  0.286300  0.399300  0.240600  1
  O  O1775  1  0.286300  0.100700  0.740600  1
  O  O1776  1  0.713700  0.600700  0.759400  1
  O  O1777  1  0.695700  0.712640  0.382660  1
  O  O1778  1  0.304300  0.212640  0.117340  1
  O  O1779  1  0.304300  0.287360  0.617340  1
  O  O1780  1  0.695700  0.787360  0.882660  1
  O  O1781  1  0.759100  0.795350  0.418670  1
  O  O1782  1  0.240900  0.295350  0.081330  1
  O  O1783  1  0.240900  0.204650  0.581330  1
  O  O1784  1  0.759100  0.704650  0.918670  1
  O  O1785  1  0.742000  0.777300  0.327760  1
  O  O1786  1  0.258000  0.277300  0.172240  1
  O  O1787  1  0.258000  0.222700  0.672240  1
  O  O1788  1  0.742000  0.722700  0.827760  1
  O  O1789  1  0.631900  0.763000  0.271100  1
  O  O1790  1  0.368100  0.263000  0.228900  1
  O  O1791  1  0.368100  0.237000  0.728900  1
  O  O1792  1  0.631900  0.737000  0.771100  1
  O  O1793  1  0.613400  0.842500  0.221400  1
  O  O1794  1  0.386600  0.342500  0.278600  1
  O  O1795  1  0.386600  0.157500  0.778600  1
  O  O1796  1  0.613400  0.657500  0.721400  1
  O  O1797  1  0.716600  0.840000  0.305200  1
  O  O1798  1  0.283400  0.340000  0.194800  1
  O  O1799  1  0.283400  0.160000  0.694800  1
  O  O1800  1  0.716600  0.660000  0.805200  1
  O  O1801  1  0.490000  0.826100  0.206800  1
  O  O1802  1  0.510000  0.326100  0.293200  1
  O  O1803  1  0.510000  0.173900  0.793200  1
  O  O1804  1  0.490000  0.673900  0.706800  1
  O  O1805  1  0.555400  0.751800  0.241100  1
  O  O1806  1  0.444600  0.251800  0.258900  1
  O  O1807  1  0.444600  0.248200  0.758900  1
  O  O1808  1  0.555400  0.748200  0.741100  1
  O  O1809  1  0.478000  0.805500  0.289000  1
  O  O1810  1  0.522000  0.305500  0.211000  1
  O  O1811  1  0.522000  0.194500  0.711000  1
  O  O1812  1  0.478000  0.694500  0.789000  1
  O  O1813  1  0.347000  0.675000  0.187900  1
  O  O1814  1  0.653000  0.175000  0.312100  1
  O  O1815  1  0.653000  0.325000  0.812100  1
  O  O1816  1  0.347000  0.825000  0.687900  1
  O  O1817  1  0.317200  0.685700  0.233200  1
  O  O1818  1  0.682800  0.185700  0.266800  1
  O  O1819  1  0.682800  0.314300  0.766800  1
  O  O1820  1  0.317200  0.814300  0.733200  1
  O  O1821  1  0.307000  0.690300  0.277600  1
  O  O1822  1  0.693000  0.190300  0.222400  1
  O  O1823  1  0.693000  0.309700  0.722400  1
  O  O1824  1  0.307000  0.809700  0.777600  1
  O  O1825  1  0.244100  0.705300  0.245200  1
  O  O1826  1  0.755900  0.205300  0.254800  1
  O  O1827  1  0.755900  0.294700  0.754800  1
  O  O1828  1  0.244100  0.794700  0.745200  1
  O  O1829  1  0.396600  0.652500  0.210700  1
  O  O1830  1  0.603400  0.152500  0.289300  1
  O  O1831  1  0.603400  0.347500  0.789300  1
  O  O1832  1  0.396600  0.847500  0.710700  1
  O  O1833  1  0.887000  0.836200  0.223100  1
  O  O1834  1  0.113000  0.336200  0.276900  1
  O  O1835  1  0.113000  0.163800  0.776900  1
  O  O1836  1  0.887000  0.663800  0.723100  1
  O  O1837  1  0.924700  0.808900  0.258300  1
  O  O1838  1  0.075300  0.308900  0.241700  1
  O  O1839  1  0.075300  0.191100  0.741700  1
  O  O1840  1  0.924700  0.691100  0.758300  1
  O  O1841  1  0.891500  0.790400  0.218000  1
  O  O1842  1  0.108500  0.290400  0.282000  1
  O  O1843  1  0.108500  0.209600  0.782000  1
  O  O1844  1  0.891500  0.709600  0.718000  1
  O  O1845  1  0.161700  0.762500  0.935300  1
  O  O1846  1  0.838300  0.262500  0.564700  1
  O  O1847  1  0.838300  0.237500  0.064700  1
  O  O1848  1  0.161700  0.737500  0.435300  1
  O  O1849  1  0.198200  0.802700  0.949200  1
  O  O1850  1  0.801800  0.302700  0.550800  1
  O  O1851  1  0.801800  0.197300  0.050800  1
  O  O1852  1  0.198200  0.697300  0.449200  1
  O  O1853  1  0.176300  0.794600  0.904800  1
  O  O1854  1  0.823700  0.294600  0.595200  1
  O  O1855  1  0.823700  0.205400  0.095200  1
  O  O1856  1  0.176300  0.705400  0.404800  1
  O  O1857  1  0.971100  0.644200  0.260700  1
  O  O1858  1  0.028900  0.144200  0.239300  1
  O  O1859  1  0.028900  0.355800  0.739300  1
  O  O1860  1  0.971100  0.855800  0.760700  1
  O  O1861  1  0.058000  0.634200  0.265300  1
  O  O1862  1  0.942000  0.134200  0.234700  1
  O  O1863  1  0.942000  0.365800  0.734700  1
  O  O1864  1  0.058000  0.865800  0.765300  1
  O  O1865  1  0.030600  0.675200  0.278500  1
  O  O1866  1  0.969400  0.175200  0.221500  1
  O  O1867  1  0.969400  0.324800  0.721500  1
  O  O1868  1  0.030600  0.824800  0.778500  1
  O  O1869  1  0.570300  0.011600  0.409800  1
  O  O1870  1  0.429700  0.511600  0.090200  1
  O  O1871  1  0.429700  0.988400  0.590200  1
  O  O1872  1  0.570300  0.488400  0.909800  1
  O  O1873  1  0.548600  0.981100  0.375200  1
  O  O1874  1  0.451400  0.481100  0.124800  1
  O  O1875  1  0.451400  0.018900  0.624800  1
  O  O1876  1  0.548600  0.518900  0.875200  1
  O  O1877  1  0.632600  0.984200  0.401900  1
  O  O1878  1  0.367400  0.484200  0.098100  1
  O  O1879  1  0.367400  0.015800  0.598100  1
  O  O1880  1  0.632600  0.515800  0.901900  1
  O  O1881  1  0.892500  0.878600  0.140500  1
  O  O1882  1  0.107500  0.378600  0.359500  1
  O  O1883  1  0.107500  0.121400  0.859500  1
  O  O1884  1  0.892500  0.621400  0.640500  1
  O  O1885  1  0.930300  0.892000  0.184300  1
  O  O1886  1  0.069700  0.392000  0.315700  1
  O  O1887  1  0.069700  0.108000  0.815700  1
  O  O1888  1  0.930300  0.608000  0.684300  1
  O  O1889  1  0.971200  0.898900  0.149400  1
  O  O1890  1  0.028800  0.398900  0.350600  1
  O  O1891  1  0.028800  0.101100  0.850600  1
  O  O1892  1  0.971200  0.601100  0.649400  1
  O  O1893  1  0.749900  0.657600  0.221100  1
  O  O1894  1  0.250100  0.157600  0.278900  1
  O  O1895  1  0.250100  0.342400  0.778900  1
  O  O1896  1  0.749900  0.842400  0.721100  1
  O  O1897  1  0.668900  0.637500  0.220700  1
  O  O1898  1  0.331100  0.137500  0.279300  1
  O  O1899  1  0.331100  0.362500  0.779300  1
  O  O1900  1  0.668900  0.862500  0.720700  1
  O  O1901  1  0.713400  0.644600  0.181400  1
  O  O1902  1  0.286600  0.144600  0.318600  1
  O  O1903  1  0.286600  0.355400  0.818600  1
  O  O1904  1  0.713400  0.855400  0.681400  1
  O  O1905  1  0.440800  0.719000  0.107300  1
  O  O1906  1  0.559200  0.219000  0.392700  1
  O  O1907  1  0.559200  0.281000  0.892700  1
  O  O1908  1  0.440800  0.781000  0.607300  1
  O  O1909  1  0.386000  0.683600  0.096000  1
  O  O1910  1  0.614000  0.183600  0.404000  1
  O  O1911  1  0.614000  0.316400  0.904000  1
  O  O1912  1  0.386000  0.816400  0.596000  1
  O  O1913  1  0.413600  0.709300  0.063000  1
  O  O1914  1  0.586400  0.209300  0.437000  1
  O  O1915  1  0.586400  0.290700  0.937000  1
  O  O1916  1  0.413600  0.790700  0.563000  1
  O  O1917  1  0.724500  0.706900  0.104900  1
  O  O1918  1  0.275500  0.206900  0.395100  1
  O  O1919  1  0.275500  0.293100  0.895100  1
  O  O1920  1  0.724500  0.793100  0.604900  1
  O  O1921  1  0.747500  0.749200  0.095100  1
  O  O1922  1  0.252500  0.249200  0.404900  1
  O  O1923  1  0.252500  0.250800  0.904900  1
  O  O1924  1  0.747500  0.750800  0.595100  1
  O  O1925  1  0.761100  0.735400  0.139300  1
  O  O1926  1  0.238900  0.235400  0.360700  1
  O  O1927  1  0.238900  0.264600  0.860700  1
  O  O1928  1  0.761100  0.764600  0.639300  1
  O  O1929  1  0.400500  0.827700  0.108000  1
  O  O1930  1  0.599500  0.327700  0.392000  1
  O  O1931  1  0.599500  0.172300  0.892000  1
  O  O1932  1  0.400500  0.672300  0.608000  1
  O  O1933  1  0.431200  0.807000  0.073100  1
  O  O1934  1  0.568800  0.307000  0.426900  1
  O  O1935  1  0.568800  0.193000  0.926900  1
  O  O1936  1  0.431200  0.693000  0.573100  1
  O  O1937  1  0.356000  0.807300  0.069400  1
  O  O1938  1  0.644000  0.307300  0.430600  1
  O  O1939  1  0.644000  0.192700  0.930600  1
  O  O1940  1  0.356000  0.692700  0.569400  1
  O  O1941  1  0.336000  0.795000  0.108900  1
  O  O1942  1  0.664000  0.295000  0.391100  1
  O  O1943  1  0.664000  0.205000  0.891100  1
  O  O1944  1  0.336000  0.705000  0.608900  1
  O  O1945  1  0.269700  0.805200  0.277800  1
  O  O1946  1  0.730300  0.305200  0.222200  1
  O  O1947  1  0.730300  0.194800  0.722200  1
  O  O1948  1  0.269700  0.694800  0.777800  1
  O  O1949  1  0.199900  0.809700  0.245900  1
  O  O1950  1  0.800100  0.309700  0.254100  1
  O  O1951  1  0.800100  0.190300  0.754100  1
  O  O1952  1  0.199900  0.690300  0.745900  1
  O  O1953  1  0.226500  0.844500  0.272800  1
  O  O1954  1  0.773500  0.344500  0.227200  1
  O  O1955  1  0.773500  0.155500  0.727200  1
  O  O1956  1  0.226500  0.655500  0.772800  1
  O  O1957  1  0.695200  0.625400  0.024400  1
  O  O1958  1  0.304800  0.125400  0.475600  1
  O  O1959  1  0.304800  0.374600  0.975600  1
  O  O1960  1  0.695200  0.874600  0.524400  1
  O  O1961  1  0.695400  0.642900  0.982100  1
  O  O1962  1  0.304600  0.142900  0.517900  1
  O  O1963  1  0.304600  0.357100  0.017900  1
  O  O1964  1  0.695400  0.857100  0.482100  1
  O  O1965  1  0.652000  0.663700  0.010600  1
  O  O1966  1  0.348000  0.163700  0.489400  1
  O  O1967  1  0.348000  0.336300  0.989400  1
  O  O1968  1  0.652000  0.836300  0.510600  1
  O  O1969  1  0.816300  0.504100  0.023800  1
  O  O1970  1  0.183700  0.004100  0.476200  1
  O  O1971  1  0.183700  0.495900  0.976200  1
  O  O1972  1  0.816300  0.995900  0.523800  1
  O  O1973  1  0.843700  0.541600  0.049300  1
  O  O1974  1  0.156300  0.041600  0.450700  1
  O  O1975  1  0.156300  0.458400  0.950700  1
  O  O1976  1  0.843700  0.958400  0.549300  1
  O  O1977  1  0.891000  0.527600  0.019100  1
  O  O1978  1  0.109000  0.027600  0.480900  1
  O  O1979  1  0.109000  0.472400  0.980900  1
  O  O1980  1  0.891000  0.972400  0.519100  1
  O  O1981  1  0.842300  0.530800  0.148200  1
  O  O1982  1  0.157700  0.030800  0.351800  1
  O  O1983  1  0.157700  0.469200  0.851800  1
  O  O1984  1  0.842300  0.969200  0.648200  1
  O  O1985  1  0.839600  0.487100  0.137600  1
  O  O1986  1  0.160400  0.987100  0.362400  1
  O  O1987  1  0.160400  0.512900  0.862400  1
  O  O1988  1  0.839600  0.012900  0.637600  1
  O  O1989  1  0.908100  0.505100  0.163800  1
  O  O1990  1  0.091900  0.005100  0.336200  1
  O  O1991  1  0.091900  0.494900  0.836200  1
  O  O1992  1  0.908100  0.994900  0.663800  1
  O  O1993  1  0.808600  0.693800  0.439700  1
  O  O1994  1  0.191400  0.193800  0.060300  1
  O  O1995  1  0.191400  0.306200  0.560300  1
  O  O1996  1  0.808600  0.806200  0.939700  1
  O  O1997  1  0.863000  0.698200  0.408900  1
  O  O1998  1  0.137000  0.198200  0.091100  1
  O  O1999  1  0.137000  0.301800  0.591100  1
  O  O2000  1  0.863000  0.801800  0.908900  1
  O  O2001  1  0.836900  0.735700  0.428600  1
  O  O2002  1  0.163100  0.235700  0.071400  1
  O  O2003  1  0.163100  0.264300  0.571400  1
  O  O2004  1  0.836900  0.764300  0.928600  1
  O  O2005  1  0.591000  0.808000  0.049300  1
  O  O2006  1  0.409000  0.308000  0.450700  1
  O  O2007  1  0.409000  0.192000  0.950700  1
  O  O2008  1  0.591000  0.692000  0.549300  1
  O  O2009  1  0.677500  0.809500  0.049800  1
  O  O2010  1  0.322500  0.309500  0.450200  1
  O  O2011  1  0.322500  0.190500  0.950200  1
  O  O2012  1  0.677500  0.690500  0.549800  1
  O  O2013  1  0.636100  0.845100  0.065300  1
  O  O2014  1  0.363900  0.345100  0.434700  1
  O  O2015  1  0.363900  0.154900  0.934700  1
  O  O2016  1  0.636100  0.654900  0.565300  1
  O  O2017  1  0.743300  0.858800  0.092700  1
  O  O2018  1  0.256700  0.358800  0.407300  1
  O  O2019  1  0.256700  0.141200  0.907300  1
  O  O2020  1  0.743300  0.641200  0.592700  1
  O  O2021  1  0.516000  0.822100  0.040400  1
  O  O2022  1  0.484000  0.322100  0.459600  1
  O  O2023  1  0.484000  0.177900  0.959600  1
  O  O2024  1  0.516000  0.677900  0.540400  1
  O  O2025  1  0.284300  0.840700  0.177600  1
  O  O2026  1  0.715700  0.340700  0.322400  1
  O  O2027  1  0.715700  0.159300  0.822400  1
  O  O2028  1  0.284300  0.659300  0.677600  1
  O  O2029  1  0.216500  0.847300  0.144700  1
  O  O2030  1  0.783500  0.347300  0.355300  1
  O  O2031  1  0.783500  0.152700  0.855300  1
  O  O2032  1  0.216500  0.652700  0.644700  1
  O  O2033  1  0.214000  0.863500  0.187000  1
  O  O2034  1  0.786000  0.363500  0.313000  1
  O  O2035  1  0.786000  0.136500  0.813000  1
  O  O2036  1  0.214000  0.636500  0.687000  1
  O  O2037  1  0.241500  0.487400  0.127300  1
  O  O2038  1  0.758500  0.987400  0.372700  1
  O  O2039  1  0.758500  0.512600  0.872700  1
  O  O2040  1  0.241500  0.012600  0.627300  1
  O  O2041  1  0.242800  0.519100  0.160400  1
  O  O2042  1  0.757200  0.019100  0.339600  1
  O  O2043  1  0.757200  0.480900  0.839600  1
  O  O2044  1  0.242800  0.980900  0.660400  1
  O  O2045  1  0.198000  0.480000  0.162800  1
  O  O2046  1  0.802000  0.980000  0.337200  1
  O  O2047  1  0.802000  0.520000  0.837200  1
  O  O2048  1  0.198000  0.020000  0.662800  1
  O  O2049  1  0.148800  0.511300  0.205000  1
  O  O2050  1  0.851200  0.011300  0.295000  1
  O  O2051  1  0.851200  0.488700  0.795000  1
  O  O2052  1  0.148800  0.988700  0.705000  1
  O  O2053  1  0.481000  0.706500  0.455500  1
  O  O2054  1  0.519000  0.206500  0.044500  1
  O  O2055  1  0.519000  0.293500  0.544500  1
  O  O2056  1  0.481000  0.793500  0.955500  1
  O  O2057  1  0.480000  0.690400  0.412500  1
  O  O2058  1  0.520000  0.190400  0.087500  1
  O  O2059  1  0.520000  0.309600  0.587500  1
  O  O2060  1  0.480000  0.809600  0.912500  1
  O  O2061  1  0.522000  0.730200  0.427300  1
  O  O2062  1  0.478000  0.230200  0.072700  1
  O  O2063  1  0.478000  0.269800  0.572700  1
  O  O2064  1  0.522000  0.769800  0.927300  1
  O  O2065  1  0.991000  0.516100  0.982100  1
  O  O2066  1  0.009000  0.016100  0.517900  1
  O  O2067  1  0.009000  0.483900  0.017900  1
  O  O2068  1  0.991000  0.983900  0.482100  1
  O  O2069  1  0.043100  0.525800  0.021600  1
  O  O2070  1  0.956900  0.025800  0.478400  1
  O  O2071  1  0.956900  0.474200  0.978400  1
  O  O2072  1  0.043100  0.974200  0.521600  1
  O  O2073  1  0.014000  0.874800  0.353300  1
  O  O2074  1  0.986000  0.374800  0.146700  1
  O  O2075  1  0.986000  0.125200  0.646700  1
  O  O2076  1  0.014000  0.625200  0.853300  1
  O  O2077  1  0.940000  0.895300  0.359200  1
  O  O2078  1  0.060000  0.395300  0.140800  1
  O  O2079  1  0.060000  0.104700  0.640800  1
  O  O2080  1  0.940000  0.604700  0.859200  1
  O  O2081  1  0.970200  0.861500  0.387400  1
  O  O2082  1  0.029800  0.361500  0.112600  1
  O  O2083  1  0.029800  0.138500  0.612600  1
  O  O2084  1  0.970200  0.638500  0.887400  1
  O  O2085  1  0.591100  0.767200  0.180900  1
  O  O2086  1  0.408900  0.267200  0.319100  1
  O  O2087  1  0.408900  0.232800  0.819100  1
  O  O2088  1  0.591100  0.732800  0.680900  1
  O  O2089  1  0.622000  0.848600  0.226600  1
  O  O2090  1  0.378000  0.348600  0.273400  1
  O  O2091  1  0.378000  0.151400  0.773400  1
  O  O2092  1  0.622000  0.651400  0.726600  1
  O  O2093  1  0.649000  0.768400  0.272700  1
  O  O2094  1  0.351000  0.268400  0.227300  1
  O  O2095  1  0.351000  0.231600  0.727300  1
  O  O2096  1  0.649000  0.731600  0.772700  1
  O  O2097  1  0.473000  0.842500  0.229000  1
  O  O2098  1  0.527000  0.342500  0.271000  1
  O  O2099  1  0.527000  0.157500  0.771000  1
  O  O2100  1  0.473000  0.657500  0.729000  1
  O  O2101  1  0.561600  0.777600  0.196600  1
  O  O2102  1  0.438400  0.277600  0.303400  1
  O  O2103  1  0.438400  0.222400  0.803400  1
  O  O2104  1  0.561600  0.722400  0.696600  1
  O  O2105  1  0.496300  0.763800  0.271500  1
  O  O2106  1  0.503700  0.263800  0.228500  1
  O  O2107  1  0.503700  0.236200  0.728500  1
  O  O2108  1  0.496300  0.736200  0.771500  1
  O  O2109  1  0.433400  0.672900  0.207400  1
  O  O2110  1  0.566600  0.172900  0.292600  1
  O  O2111  1  0.566600  0.327100  0.792600  1
  O  O2112  1  0.433400  0.827100  0.707400  1
  O  O2113  1  0.369100  0.667700  0.232800  1
  O  O2114  1  0.630900  0.167700  0.267200  1
  O  O2115  1  0.630900  0.332300  0.767200  1
  O  O2116  1  0.369100  0.832300  0.732800  1
  O  O2117  1  0.286000  0.691200  0.267800  1
  O  O2118  1  0.714000  0.191200  0.232200  1
  O  O2119  1  0.714000  0.308800  0.732200  1
  O  O2120  1  0.286000  0.808800  0.767800  1
  O  O2121  1  0.947700  0.684700  0.259600  1
  O  O2122  1  0.052300  0.184700  0.240400  1
  O  O2123  1  0.052300  0.315300  0.740400  1
  O  O2124  1  0.947700  0.815300  0.759600  1
  O  O2125  1  0.966200  0.720600  0.287900  1
  O  O2126  1  0.033800  0.220600  0.212100  1
  O  O2127  1  0.033800  0.279400  0.712100  1
  O  O2128  1  0.966200  0.779400  0.787900  1
  O  O2129  1  0.026000  0.687600  0.288000  1
  O  O2130  1  0.974000  0.187600  0.212000  1
  O  O2131  1  0.974000  0.312400  0.712000  1
  O  O2132  1  0.026000  0.812400  0.788000  1
  O  O2133  1  0.017500  0.622400  0.266200  1
  O  O2134  1  0.982500  0.122400  0.233800  1
  O  O2135  1  0.982500  0.377600  0.733800  1
  O  O2136  1  0.017500  0.877600  0.766200  1
  O  O2137  1  0.353100  0.794700  0.082300  1
  O  O2138  1  0.646900  0.294700  0.417700  1
  O  O2139  1  0.646900  0.205300  0.917700  1
  O  O2140  1  0.353100  0.705300  0.582300  1
  O  O2141  1  0.405000  0.776200  0.094200  1
  O  O2142  1  0.595000  0.276200  0.405800  1
  O  O2143  1  0.595000  0.223800  0.905800  1
  O  O2144  1  0.405000  0.723800  0.594200  1
  O  O2145  1  0.717600  0.839400  0.088600  1
  O  O2146  1  0.282400  0.339400  0.411400  1
  O  O2147  1  0.282400  0.160600  0.911400  1
  O  O2148  1  0.717600  0.660600  0.588600  1
  O  O2149  1  0.682900  0.806200  0.059100  1
  O  O2150  1  0.317100  0.306200  0.440900  1
  O  O2151  1  0.317100  0.193800  0.940900  1
  O  O2152  1  0.682900  0.693800  0.559100  1
  O  O2153  1  0.631000  0.839000  0.073000  1
  O  O2154  1  0.369000  0.339000  0.427000  1
  O  O2155  1  0.369000  0.161000  0.927000  1
  O  O2156  1  0.631000  0.661000  0.573000  1
  O  O2157  1  0.191300  0.500600  0.194900  1
  O  O2158  1  0.808700  0.000600  0.305100  1
  O  O2159  1  0.808700  0.499400  0.805100  1
  O  O2160  1  0.191300  0.999400  0.694900  1
  O  O2161  1  0.249600  0.518500  0.170200  1
  O  O2162  1  0.750400  0.018500  0.329800  1
  O  O2163  1  0.750400  0.481500  0.829800  1
  O  O2164  1  0.249600  0.981500  0.670200  1
  O  O2165  1  0.204000  0.481100  0.155700  1
  O  O2166  1  0.796000  0.981100  0.344300  1
  O  O2167  1  0.796000  0.518900  0.844300  1
  O  O2168  1  0.204000  0.018900  0.655700  1
  O  O2169  1  0.252400  0.500500  0.105100  1
  O  O2170  1  0.747600  0.000500  0.394900  1
  O  O2171  1  0.747600  0.499500  0.894900  1
  O  O2172  1  0.252400  0.999500  0.605100  1
  O  O2173  1  0.464000  0.720100  0.437600  1
  O  O2174  1  0.536000  0.220100  0.062400  1
  O  O2175  1  0.536000  0.279900  0.562400  1
  O  O2176  1  0.464000  0.779900  0.937600  1
  O  O2177  1  0.468000  0.681700  0.411000  1
  O  O2178  1  0.532000  0.181700  0.089000  1
  O  O2179  1  0.532000  0.318300  0.589000  1
  O  O2180  1  0.468000  0.818300  0.911000  1
  O  O2181  1  0.531000  0.713200  0.415100  1
  O  O2182  1  0.469000  0.213200  0.084900  1
  O  O2183  1  0.469000  0.286800  0.584900  1
  O  O2184  1  0.531000  0.786800  0.915100  1
  O  O2185  1  0.478000  0.691000  0.445300  1
  O  O2186  1  0.522000  0.191000  0.054700  1
  O  O2187  1  0.522000  0.309000  0.554700  1
  O  O2188  1  0.478000  0.809000  0.945300  1
  O  O2189  1  0.489000  0.647100  0.434700  1
  O  O2190  1  0.511000  0.147100  0.065300  1
  O  O2191  1  0.511000  0.352900  0.565300  1
  O  O2192  1  0.489000  0.852900  0.934700  1
  O  O2193  1  0.492000  0.679600  0.403800  1
  O  O2194  1  0.508000  0.179600  0.096200  1
  O  O2195  1  0.508000  0.320400  0.596200  1
  O  O2196  1  0.492000  0.820400  0.903800  1
  O  O2197  1  0.999000  0.837700  0.399900  1
  O  O2198  1  0.001000  0.337700  0.100100  1
  O  O2199  1  0.001000  0.162300  0.600100  1
  O  O2200  1  0.999000  0.662300  0.899900  1
