# generated using pymatgen
data_Mn2H58Pd3C82N23O64
_symmetry_space_group_name_H-M   'P 1'
_cell_length_a   29.05500000
_cell_length_b   29.05500000
_cell_length_c   30.76700000
_cell_angle_alpha   90.00000000
_cell_angle_beta   90.00000000
_cell_angle_gamma   90.00000000
_symmetry_Int_Tables_number   1
_chemical_formula_structural   Mn2H58Pd3C82N23O64
_chemical_formula_sum   'Mn16 H464 Pd24 C656 N184 O512'
_cell_volume   25973.28680017
_cell_formula_units_Z   8
loop_
 _symmetry_equiv_pos_site_id
 _symmetry_equiv_pos_as_xyz
  1  'x, y, z'
loop_
 _atom_site_type_symbol
 _atom_site_label
 _atom_site_symmetry_multiplicity
 _atom_site_fract_x
 _atom_site_fract_y
 _atom_site_fract_z
 _atom_site_occupancy
  Mn  Mn1  1  0.779870  0.648710  0.539730  1
  Mn  Mn2  1  0.220130  0.351290  0.039730  1
  Mn  Mn3  1  0.851290  0.279870  0.789730  1
  Mn  Mn4  1  0.148710  0.720130  0.289730  1
  Mn  Mn5  1  0.720130  0.148710  0.710270  1
  Mn  Mn6  1  0.279870  0.851290  0.210270  1
  Mn  Mn7  1  0.648710  0.779870  0.460270  1
  Mn  Mn8  1  0.351290  0.220130  0.960270  1
  Mn  Mn9  1  0.793170  0.859200  0.604290  1
  Mn  Mn10  1  0.206830  0.140800  0.104290  1
  Mn  Mn11  1  0.640800  0.293170  0.854290  1
  Mn  Mn12  1  0.359200  0.706830  0.354290  1
  Mn  Mn13  1  0.706830  0.359200  0.645710  1
  Mn  Mn14  1  0.293170  0.640800  0.145710  1
  Mn  Mn15  1  0.859200  0.793170  0.395710  1
  Mn  Mn16  1  0.140800  0.206830  0.895710  1
  H  H17  1  0.686600  0.662200  0.535900  1
  H  H18  1  0.313400  0.337800  0.035900  1
  H  H19  1  0.837800  0.186600  0.785900  1
  H  H20  1  0.162200  0.813400  0.285900  1
  H  H21  1  0.813400  0.162200  0.714100  1
  H  H22  1  0.186600  0.837800  0.214100  1
  H  H23  1  0.662200  0.686600  0.464100  1
  H  H24  1  0.337800  0.313400  0.964100  1
  H  H25  1  0.711600  0.578200  0.535300  1
  H  H26  1  0.288400  0.421800  0.035300  1
  H  H27  1  0.921800  0.211600  0.785300  1
  H  H28  1  0.078200  0.788400  0.285300  1
  H  H29  1  0.788400  0.078200  0.714700  1
  H  H30  1  0.211600  0.921800  0.214700  1
  H  H31  1  0.578200  0.711600  0.464700  1
  H  H32  1  0.421800  0.288400  0.964700  1
  H  H33  1  0.772100  0.570900  0.596600  1
  H  H34  1  0.227900  0.429100  0.096600  1
  H  H35  1  0.929100  0.272100  0.846600  1
  H  H36  1  0.070900  0.727900  0.346600  1
  H  H37  1  0.727900  0.070900  0.653400  1
  H  H38  1  0.272100  0.929100  0.153400  1
  H  H39  1  0.570900  0.772100  0.403400  1
  H  H40  1  0.429100  0.227900  0.903400  1
  H  H41  1  0.782100  0.649500  0.630700  1
  H  H42  1  0.217900  0.350500  0.130700  1
  H  H43  1  0.850500  0.282100  0.880700  1
  H  H44  1  0.149500  0.717900  0.380700  1
  H  H45  1  0.717900  0.149500  0.619300  1
  H  H46  1  0.282100  0.850500  0.119300  1
  H  H47  1  0.649500  0.782100  0.369300  1
  H  H48  1  0.350500  0.217900  0.869300  1
  H  H49  1  0.728700  0.708900  0.593600  1
  H  H50  1  0.271300  0.291100  0.093600  1
  H  H51  1  0.791100  0.228700  0.843600  1
  H  H52  1  0.208900  0.771300  0.343600  1
  H  H53  1  0.771300  0.208900  0.656400  1
  H  H54  1  0.228700  0.791100  0.156400  1
  H  H55  1  0.708900  0.728700  0.406400  1
  H  H56  1  0.291100  0.271300  0.906400  1
  H  H57  1  0.746000  0.919400  0.654500  1
  H  H58  1  0.254000  0.080600  0.154500  1
  H  H59  1  0.580600  0.246000  0.904500  1
  H  H60  1  0.419400  0.754000  0.404500  1
  H  H61  1  0.754000  0.419400  0.595500  1
  H  H62  1  0.246000  0.580600  0.095500  1
  H  H63  1  0.919400  0.746000  0.345500  1
  H  H64  1  0.080600  0.254000  0.845500  1
  H  H65  1  0.789600  0.951500  0.595300  1
  H  H66  1  0.210400  0.048500  0.095300  1
  H  H67  1  0.548500  0.289600  0.845300  1
  H  H68  1  0.451500  0.710400  0.345300  1
  H  H69  1  0.710400  0.451500  0.654700  1
  H  H70  1  0.289600  0.548500  0.154700  1
  H  H71  1  0.951500  0.789600  0.404700  1
  H  H72  1  0.048500  0.210400  0.904700  1
  H  H73  1  0.776800  0.901600  0.526900  1
  H  H74  1  0.223200  0.098400  0.026900  1
  H  H75  1  0.598400  0.276800  0.776900  1
  H  H76  1  0.401600  0.723200  0.276900  1
  H  H77  1  0.723200  0.401600  0.723100  1
  H  H78  1  0.276800  0.598400  0.223100  1
  H  H79  1  0.901600  0.776800  0.473100  1
  H  H80  1  0.098400  0.223200  0.973100  1
  H  H81  1  0.723700  0.837500  0.550800  1
  H  H82  1  0.276300  0.162500  0.050800  1
  H  H83  1  0.662500  0.223700  0.800800  1
  H  H84  1  0.337500  0.776300  0.300800  1
  H  H85  1  0.776300  0.337500  0.699200  1
  H  H86  1  0.223700  0.662500  0.199200  1
  H  H87  1  0.837500  0.723700  0.449200  1
  H  H88  1  0.162500  0.276300  0.949200  1
  H  H89  1  0.701200  0.849100  0.635300  1
  H  H90  1  0.298800  0.150900  0.135300  1
  H  H91  1  0.650900  0.201200  0.885300  1
  H  H92  1  0.349100  0.798800  0.385300  1
  H  H93  1  0.798800  0.349100  0.614700  1
  H  H94  1  0.201200  0.650900  0.114700  1
  H  H95  1  0.849100  0.701200  0.364700  1
  H  H96  1  0.150900  0.298800  0.864700  1
  H  H97  1  0.706400  0.204200  0.956700  1.0
  H  H98  1  0.293600  0.795800  0.456700  1.0
  H  H99  1  0.295800  0.206400  0.206700  1.0
  H  H100  1  0.704200  0.793600  0.706700  1.0
  H  H101  1  0.793600  0.704200  0.293300  1.0
  H  H102  1  0.206400  0.295800  0.793300  1.0
  H  H103  1  0.204200  0.706400  0.043300  1.0
  H  H104  1  0.795800  0.293600  0.543300  1.0
  H  H105  1  0.436100  0.066900  0.769700  1.0
  H  H106  1  0.563900  0.933100  0.269700  1.0
  H  H107  1  0.433100  0.936100  0.019700  1.0
  H  H108  1  0.566900  0.063900  0.519700  1.0
  H  H109  1  0.063900  0.566900  0.480300  1.0
  H  H110  1  0.936100  0.433100  0.980300  1.0
  H  H111  1  0.066900  0.436100  0.230300  1.0
  H  H112  1  0.933100  0.563900  0.730300  1.0
  H  H113  1  0.499000  0.394000  0.782600  1.0
  H  H114  1  0.501000  0.606000  0.282600  1.0
  H  H115  1  0.106000  0.999000  0.032600  1.0
  H  H116  1  0.894000  0.001000  0.532600  1.0
  H  H117  1  0.001000  0.894000  0.467400  1.0
  H  H118  1  0.999000  0.106000  0.967400  1.0
  H  H119  1  0.394000  0.499000  0.217400  1.0
  H  H120  1  0.606000  0.501000  0.717400  1.0
  H  H121  1  0.843600  0.195200  0.941700  1.0
  H  H122  1  0.156400  0.804800  0.441700  1.0
  H  H123  1  0.304800  0.343600  0.191700  1.0
  H  H124  1  0.695200  0.656400  0.691700  1.0
  H  H125  1  0.656400  0.695200  0.308300  1.0
  H  H126  1  0.343600  0.304800  0.808300  1.0
  H  H127  1  0.195200  0.843600  0.058300  1.0
  H  H128  1  0.804800  0.156400  0.558300  1.0
  H  H129  1  0.945700  0.103000  0.821000  1.0
  H  H130  1  0.054300  0.897000  0.321000  1.0
  H  H131  1  0.397000  0.445700  0.071000  1.0
  H  H132  1  0.603000  0.554300  0.571000  1.0
  H  H133  1  0.554300  0.603000  0.429000  1.0
  H  H134  1  0.445700  0.397000  0.929000  1.0
  H  H135  1  0.103000  0.945700  0.179000  1.0
  H  H136  1  0.897000  0.054300  0.679000  1.0
  H  H137  1  0.886800  0.128200  0.867100  1.0
  H  H138  1  0.113200  0.871800  0.367100  1.0
  H  H139  1  0.371800  0.386800  0.117100  1.0
  H  H140  1  0.628200  0.613200  0.617100  1.0
  H  H141  1  0.613200  0.628200  0.382900  1.0
  H  H142  1  0.386800  0.371800  0.882900  1.0
  H  H143  1  0.128200  0.886800  0.132900  1.0
  H  H144  1  0.871800  0.113200  0.632900  1.0
  H  H145  1  0.615600  0.029000  0.796900  1.0
  H  H146  1  0.384400  0.971000  0.296900  1.0
  H  H147  1  0.471000  0.115600  0.046900  1.0
  H  H148  1  0.529000  0.884400  0.546900  1.0
  H  H149  1  0.884400  0.529000  0.453100  1.0
  H  H150  1  0.115600  0.471000  0.953100  1.0
  H  H151  1  0.029000  0.615600  0.203100  1.0
  H  H152  1  0.971000  0.384400  0.703100  1.0
  H  H153  1  0.512300  0.209000  0.778200  1.0
  H  H154  1  0.487700  0.791000  0.278200  1.0
  H  H155  1  0.291000  0.012300  0.028200  1.0
  H  H156  1  0.709000  0.987700  0.528200  1.0
  H  H157  1  0.987700  0.709000  0.471800  1.0
  H  H158  1  0.012300  0.291000  0.971800  1.0
  H  H159  1  0.209000  0.512300  0.221800  1.0
  H  H160  1  0.791000  0.487700  0.721800  1.0
  H  H161  1  0.690900  0.050700  0.813900  1.0
  H  H162  1  0.309100  0.949300  0.313900  1.0
  H  H163  1  0.449300  0.190900  0.063900  1.0
  H  H164  1  0.550700  0.809100  0.563900  1.0
  H  H165  1  0.809100  0.550700  0.436100  1.0
  H  H166  1  0.190900  0.449300  0.936100  1.0
  H  H167  1  0.050700  0.690900  0.186100  1.0
  H  H168  1  0.949300  0.309100  0.686100  1.0
  H  H169  1  0.606600  0.164200  0.600500  1.0
  H  H170  1  0.393400  0.835800  0.100500  1.0
  H  H171  1  0.335800  0.106600  0.850500  1.0
  H  H172  1  0.664200  0.893400  0.350500  1.0
  H  H173  1  0.893400  0.664200  0.649500  1.0
  H  H174  1  0.106600  0.335800  0.149500  1.0
  H  H175  1  0.164200  0.606600  0.399500  1.0
  H  H176  1  0.835800  0.393400  0.899500  1.0
  H  H177  1  0.549400  0.119800  0.683000  1.0
  H  H178  1  0.450600  0.880200  0.183000  1.0
  H  H179  1  0.380200  0.049400  0.933000  1.0
  H  H180  1  0.619800  0.950600  0.433000  1.0
  H  H181  1  0.950600  0.619800  0.567000  1.0
  H  H182  1  0.049400  0.380200  0.067000  1.0
  H  H183  1  0.119800  0.549400  0.317000  1.0
  H  H184  1  0.880200  0.450600  0.817000  1.0
  H  H185  1  0.791900  0.426900  0.040300  1.0
  H  H186  1  0.208100  0.573100  0.540300  1.0
  H  H187  1  0.073100  0.291900  0.290300  1.0
  H  H188  1  0.926900  0.708100  0.790300  1.0
  H  H189  1  0.708100  0.926900  0.209700  1.0
  H  H190  1  0.291900  0.073100  0.709700  1.0
  H  H191  1  0.426900  0.791900  0.959700  1.0
  H  H192  1  0.573100  0.208100  0.459700  1.0
  H  H193  1  0.717900  0.265000  0.004700  1.0
  H  H194  1  0.282100  0.735000  0.504700  1.0
  H  H195  1  0.235000  0.217900  0.254700  1.0
  H  H196  1  0.765000  0.782100  0.754700  1.0
  H  H197  1  0.782100  0.765000  0.245300  1.0
  H  H198  1  0.217900  0.235000  0.745300  1.0
  H  H199  1  0.265000  0.717900  0.995300  1.0
  H  H200  1  0.735000  0.282100  0.495300  1.0
  H  H201  1  0.852500  0.253800  0.991400  1.0
  H  H202  1  0.147500  0.746200  0.491400  1.0
  H  H203  1  0.246200  0.352500  0.241400  1.0
  H  H204  1  0.753800  0.647500  0.741400  1.0
  H  H205  1  0.647500  0.753800  0.258600  1.0
  H  H206  1  0.352500  0.246200  0.758600  1.0
  H  H207  1  0.253800  0.852500  0.008600  1.0
  H  H208  1  0.746200  0.147500  0.508600  1.0
  H  H209  1  0.586000  0.298200  0.566200  1.0
  H  H210  1  0.414000  0.701800  0.066200  1.0
  H  H211  1  0.201800  0.086000  0.816200  1.0
  H  H212  1  0.798200  0.914000  0.316200  1.0
  H  H213  1  0.914000  0.798200  0.683800  1.0
  H  H214  1  0.086000  0.201800  0.183800  1.0
  H  H215  1  0.298200  0.586000  0.433800  1.0
  H  H216  1  0.701800  0.414000  0.933800  1.0
  H  H217  1  0.502600  0.147500  0.822500  1.0
  H  H218  1  0.497400  0.852500  0.322500  1.0
  H  H219  1  0.352500  0.002600  0.072500  1.0
  H  H220  1  0.647500  0.997400  0.572500  1.0
  H  H221  1  0.997400  0.647500  0.427500  1.0
  H  H222  1  0.002600  0.352500  0.927500  1.0
  H  H223  1  0.147500  0.502600  0.177500  1.0
  H  H224  1  0.852500  0.497400  0.677500  1.0
  H  H225  1  0.812800  0.486700  0.087100  1.0
  H  H226  1  0.187200  0.513300  0.587100  1.0
  H  H227  1  0.013300  0.312800  0.337100  1.0
  H  H228  1  0.986700  0.687200  0.837100  1.0
  H  H229  1  0.687200  0.986700  0.162900  1.0
  H  H230  1  0.312800  0.013300  0.662900  1.0
  H  H231  1  0.486700  0.812800  0.912900  1.0
  H  H232  1  0.513300  0.187200  0.412900  1.0
  H  H233  1  0.511200  0.319500  0.760100  1.0
  H  H234  1  0.488800  0.680500  0.260100  1.0
  H  H235  1  0.180500  0.011200  0.010100  1.0
  H  H236  1  0.819500  0.988800  0.510100  1.0
  H  H237  1  0.988800  0.819500  0.489900  1.0
  H  H238  1  0.011200  0.180500  0.989900  1.0
  H  H239  1  0.319500  0.511200  0.239900  1.0
  H  H240  1  0.680500  0.488800  0.739900  1.0
  H  H241  1  0.628200  0.283300  0.502900  1.0
  H  H242  1  0.371800  0.716700  0.002900  1.0
  H  H243  1  0.216700  0.128200  0.752900  1.0
  H  H244  1  0.783300  0.871800  0.252900  1.0
  H  H245  1  0.871800  0.783300  0.747100  1.0
  H  H246  1  0.128200  0.216700  0.247100  1.0
  H  H247  1  0.283300  0.628200  0.497100  1.0
  H  H248  1  0.716700  0.371800  0.997100  1.0
  H  H249  1  0.530000  0.443100  0.667500  1.0
  H  H250  1  0.470000  0.556900  0.167500  1.0
  H  H251  1  0.056900  0.030000  0.917500  1.0
  H  H252  1  0.943100  0.970000  0.417500  1.0
  H  H253  1  0.970000  0.943100  0.582500  1.0
  H  H254  1  0.030000  0.056900  0.082500  1.0
  H  H255  1  0.443100  0.530000  0.332500  1.0
  H  H256  1  0.556900  0.470000  0.832500  1.0
  H  H257  1  0.649500  0.155300  0.537100  1.0
  H  H258  1  0.350500  0.844700  0.037100  1.0
  H  H259  1  0.344700  0.149500  0.787100  1.0
  H  H260  1  0.655300  0.850500  0.287100  1.0
  H  H261  1  0.850500  0.655300  0.712900  1.0
  H  H262  1  0.149500  0.344700  0.212900  1.0
  H  H263  1  0.155300  0.649500  0.462900  1.0
  H  H264  1  0.844700  0.350500  0.962900  1.0
  H  H265  1  0.802000  0.222200  0.076700  1.0
  H  H266  1  0.198000  0.777800  0.576700  1.0
  H  H267  1  0.277800  0.302000  0.326700  1.0
  H  H268  1  0.722200  0.698000  0.826700  1.0
  H  H269  1  0.698000  0.722200  0.173300  1.0
  H  H270  1  0.302000  0.277800  0.673300  1.0
  H  H271  1  0.222200  0.802000  0.923300  1.0
  H  H272  1  0.777800  0.198000  0.423300  1.0
  H  H273  1  0.638500  0.133100  0.909100  1.0
  H  H274  1  0.361500  0.866900  0.409100  1.0
  H  H275  1  0.366900  0.138500  0.159100  1.0
  H  H276  1  0.633100  0.861500  0.659100  1.0
  H  H277  1  0.861500  0.633100  0.340900  1.0
  H  H278  1  0.138500  0.366900  0.840900  1.0
  H  H279  1  0.133100  0.638500  0.090900  1.0
  H  H280  1  0.866900  0.361500  0.590900  1.0
  H  H281  1  0.565800  0.103900  0.891800  1.0
  H  H282  1  0.434200  0.896100  0.391800  1.0
  H  H283  1  0.396100  0.065800  0.141800  1.0
  H  H284  1  0.603900  0.934200  0.641800  1.0
  H  H285  1  0.934200  0.603900  0.358200  1.0
  H  H286  1  0.065800  0.396100  0.858200  1.0
  H  H287  1  0.103900  0.565800  0.108200  1.0
  H  H288  1  0.896100  0.434200  0.608200  1.0
  H  H289  1  0.863500  0.013400  0.762700  1.0
  H  H290  1  0.136500  0.986600  0.262700  1.0
  H  H291  1  0.486600  0.363500  0.012700  1.0
  H  H292  1  0.513400  0.636500  0.512700  1.0
  H  H293  1  0.636500  0.513400  0.487300  1.0
  H  H294  1  0.363500  0.486600  0.987300  1.0
  H  H295  1  0.013400  0.863500  0.237300  1.0
  H  H296  1  0.986600  0.136500  0.737300  1.0
  H  H297  1  0.546100  0.367900  0.642000  1.0
  H  H298  1  0.453900  0.632100  0.142000  1.0
  H  H299  1  0.132100  0.046100  0.892000  1.0
  H  H300  1  0.867900  0.953900  0.392000  1.0
  H  H301  1  0.953900  0.867900  0.608000  1.0
  H  H302  1  0.046100  0.132100  0.108000  1.0
  H  H303  1  0.367900  0.546100  0.358000  1.0
  H  H304  1  0.632100  0.453900  0.858000  1.0
  H  H305  1  0.539500  0.060700  0.731900  1.0
  H  H306  1  0.460500  0.939300  0.231900  1.0
  H  H307  1  0.439300  0.039500  0.981900  1.0
  H  H308  1  0.560700  0.960500  0.481900  1.0
  H  H309  1  0.960500  0.560700  0.518100  1.0
  H  H310  1  0.039500  0.439300  0.018100  1.0
  H  H311  1  0.060700  0.539500  0.268100  1.0
  H  H312  1  0.939300  0.460500  0.768100  1.0
  H  H313  1  0.859800  0.238000  0.196500  1.0
  H  H314  1  0.140200  0.762000  0.696500  1.0
  H  H315  1  0.262000  0.359800  0.446500  1.0
  H  H316  1  0.738000  0.640200  0.946500  1.0
  H  H317  1  0.640200  0.738000  0.053500  1.0
  H  H318  1  0.359800  0.262000  0.553500  1.0
  H  H319  1  0.238000  0.859800  0.803500  1.0
  H  H320  1  0.762000  0.140200  0.303500  1.0
  H  H321  1  0.582700  0.993700  0.892100  1.0
  H  H322  1  0.417300  0.006300  0.392100  1.0
  H  H323  1  0.506300  0.082700  0.142100  1.0
  H  H324  1  0.493700  0.917300  0.642100  1.0
  H  H325  1  0.917300  0.493700  0.357900  1.0
  H  H326  1  0.082700  0.506300  0.857900  1.0
  H  H327  1  0.993700  0.582700  0.107900  1.0
  H  H328  1  0.006300  0.417300  0.607900  1.0
  H  H329  1  0.358800  0.040900  0.769300  1.0
  H  H330  1  0.641200  0.959100  0.269300  1.0
  H  H331  1  0.459100  0.858800  0.019300  1.0
  H  H332  1  0.540900  0.141200  0.519300  1.0
  H  H333  1  0.141200  0.540900  0.480700  1.0
  H  H334  1  0.858800  0.459100  0.980700  1.0
  H  H335  1  0.040900  0.358800  0.230700  1.0
  H  H336  1  0.959100  0.641200  0.730700  1.0
  H  H337  1  0.861000  0.319100  0.186100  1.0
  H  H338  1  0.139000  0.680900  0.686100  1.0
  H  H339  1  0.180900  0.361000  0.436100  1.0
  H  H340  1  0.819100  0.639000  0.936100  1.0
  H  H341  1  0.639000  0.819100  0.063900  1.0
  H  H342  1  0.361000  0.180900  0.563900  1.0
  H  H343  1  0.319100  0.861000  0.813900  1.0
  H  H344  1  0.680900  0.139000  0.313900  1.0
  H  H345  1  0.572100  0.933500  0.944200  1.0
  H  H346  1  0.427900  0.066500  0.444200  1.0
  H  H347  1  0.566500  0.072100  0.194200  1.0
  H  H348  1  0.433500  0.927900  0.694200  1.0
  H  H349  1  0.927900  0.433500  0.305800  1.0
  H  H350  1  0.072100  0.566500  0.805800  1.0
  H  H351  1  0.933500  0.572100  0.055800  1.0
  H  H352  1  0.066500  0.427900  0.555800  1.0
  H  H353  1  0.800800  0.041800  0.800800  1.0
  H  H354  1  0.199200  0.958200  0.300800  1.0
  H  H355  1  0.458200  0.300800  0.050800  1.0
  H  H356  1  0.541800  0.699200  0.550800  1.0
  H  H357  1  0.699200  0.541800  0.449200  1.0
  H  H358  1  0.300800  0.458200  0.949200  1.0
  H  H359  1  0.041800  0.800800  0.199200  1.0
  H  H360  1  0.958200  0.199200  0.699200  1.0
  H  H361  1  0.497500  0.907200  0.957100  1.0
  H  H362  1  0.502500  0.092800  0.457100  1.0
  H  H363  1  0.592800  0.997500  0.207100  1.0
  H  H364  1  0.407200  0.002500  0.707100  1.0
  H  H365  1  0.002500  0.407200  0.292900  1.0
  H  H366  1  0.997500  0.592800  0.792900  1.0
  H  H367  1  0.907200  0.497500  0.042900  1.0
  H  H368  1  0.092800  0.502500  0.542900  1.0
  H  H369  1  0.859600  0.390900  0.170200  1.0
  H  H370  1  0.140400  0.609100  0.670200  1.0
  H  H371  1  0.109100  0.359600  0.420200  1.0
  H  H372  1  0.890900  0.640400  0.920200  1.0
  H  H373  1  0.640400  0.890900  0.079800  1.0
  H  H374  1  0.359600  0.109100  0.579800  1.0
  H  H375  1  0.390900  0.859600  0.829800  1.0
  H  H376  1  0.609100  0.140400  0.329800  1.0
  H  H377  1  0.851400  0.466400  0.152100  1.0
  H  H378  1  0.148600  0.533600  0.652100  1.0
  H  H379  1  0.033600  0.351400  0.402100  1.0
  H  H380  1  0.966400  0.648600  0.902100  1.0
  H  H381  1  0.648600  0.966400  0.097900  1.0
  H  H382  1  0.351400  0.033600  0.597900  1.0
  H  H383  1  0.466400  0.851400  0.847900  1.0
  H  H384  1  0.533600  0.148600  0.347900  1.0
  H  H385  1  0.938700  0.986500  0.836100  1.0
  H  H386  1  0.061300  0.013500  0.336100  1.0
  H  H387  1  0.513500  0.438700  0.086100  1.0
  H  H388  1  0.486500  0.561300  0.586100  1.0
  H  H389  1  0.561300  0.486500  0.413900  1.0
  H  H390  1  0.438700  0.513500  0.913900  1.0
  H  H391  1  0.986500  0.938700  0.163900  1.0
  H  H392  1  0.013500  0.061300  0.663900  1.0
  H  H393  1  0.331500  0.995200  0.820300  1.0
  H  H394  1  0.668500  0.004800  0.320300  1.0
  H  H395  1  0.504800  0.831500  0.070300  1.0
  H  H396  1  0.495200  0.168500  0.570300  1.0
  H  H397  1  0.168500  0.495200  0.429700  1.0
  H  H398  1  0.831500  0.504800  0.929700  1.0
  H  H399  1  0.995200  0.331500  0.179700  1.0
  H  H400  1  0.004800  0.668500  0.679700  1.0
  H  H401  1  0.060600  0.907300  0.781000  1.0
  H  H402  1  0.939400  0.092700  0.281000  1.0
  H  H403  1  0.592700  0.560600  0.031000  1.0
  H  H404  1  0.407300  0.439400  0.531000  1.0
  H  H405  1  0.439400  0.407300  0.469000  1.0
  H  H406  1  0.560600  0.592700  0.969000  1.0
  H  H407  1  0.907300  0.060600  0.219000  1.0
  H  H408  1  0.092700  0.939400  0.719000  1.0
  H  H409  1  0.833400  0.191000  0.142600  1.0
  H  H410  1  0.166600  0.809000  0.642600  1.0
  H  H411  1  0.309000  0.333400  0.392600  1.0
  H  H412  1  0.691000  0.666600  0.892600  1.0
  H  H413  1  0.666600  0.691000  0.107400  1.0
  H  H414  1  0.333400  0.309000  0.607400  1.0
  H  H415  1  0.191000  0.833400  0.857400  1.0
  H  H416  1  0.809000  0.166600  0.357400  1.0
  H  H417  1  0.382000  0.962100  0.870800  1.0
  H  H418  1  0.618000  0.037900  0.370800  1.0
  H  H419  1  0.537900  0.882000  0.120800  1.0
  H  H420  1  0.462100  0.118000  0.620800  1.0
  H  H421  1  0.118000  0.462100  0.379200  1.0
  H  H422  1  0.882000  0.537900  0.879200  1.0
  H  H423  1  0.962100  0.382000  0.129200  1.0
  H  H424  1  0.037900  0.618000  0.629200  1.0
  H  H425  1  0.546300  0.644100  0.816800  1.0
  H  H426  1  0.453700  0.355900  0.316800  1.0
  H  H427  1  0.855900  0.046300  0.066800  1.0
  H  H428  1  0.144100  0.953700  0.566800  1.0
  H  H429  1  0.953700  0.144100  0.433200  1.0
  H  H430  1  0.046300  0.855900  0.933200  1.0
  H  H431  1  0.644100  0.546300  0.183200  1.0
  H  H432  1  0.355900  0.453700  0.683200  1.0
  H  H433  1  0.433900  0.934400  0.913100  1.0
  H  H434  1  0.566100  0.065600  0.413100  1.0
  H  H435  1  0.565600  0.933900  0.163100  1.0
  H  H436  1  0.434400  0.066100  0.663100  1.0
  H  H437  1  0.066100  0.434400  0.336900  1.0
  H  H438  1  0.933900  0.565600  0.836900  1.0
  H  H439  1  0.934400  0.433900  0.086900  1.0
  H  H440  1  0.065600  0.566100  0.586900  1.0
  H  H441  1  0.560900  0.568400  0.795000  1.0
  H  H442  1  0.439100  0.431600  0.295000  1.0
  H  H443  1  0.931600  0.060900  0.045000  1.0
  H  H444  1  0.068400  0.939100  0.545000  1.0
  H  H445  1  0.939100  0.068400  0.455000  1.0
  H  H446  1  0.060900  0.931600  0.955000  1.0
  H  H447  1  0.568400  0.560900  0.205000  1.0
  H  H448  1  0.431600  0.439100  0.705000  1.0
  H  H449  1  0.030700  0.886400  0.851000  1.0
  H  H450  1  0.969300  0.113600  0.351000  1.0
  H  H451  1  0.613600  0.530700  0.101000  1.0
  H  H452  1  0.386400  0.469300  0.601000  1.0
  H  H453  1  0.469300  0.386400  0.399000  1.0
  H  H454  1  0.530700  0.613600  0.899000  1.0
  H  H455  1  0.886400  0.030700  0.149000  1.0
  H  H456  1  0.113600  0.969300  0.649000  1.0
  H  H457  1  0.966400  0.923700  0.871100  1.0
  H  H458  1  0.033600  0.076300  0.371100  1.0
  H  H459  1  0.576300  0.466400  0.121100  1.0
  H  H460  1  0.423700  0.533600  0.621100  1.0
  H  H461  1  0.533600  0.423700  0.378900  1.0
  H  H462  1  0.466400  0.576300  0.878900  1.0
  H  H463  1  0.923700  0.966400  0.128900  1.0
  H  H464  1  0.076300  0.033600  0.628900  1.0
  H  H465  1  0.474600  0.673500  0.801400  1.0
  H  H466  1  0.525400  0.326500  0.301400  1.0
  H  H467  1  0.826500  0.974600  0.051400  1.0
  H  H468  1  0.173500  0.025400  0.551400  1.0
  H  H469  1  0.025400  0.173500  0.448600  1.0
  H  H470  1  0.974600  0.826500  0.948600  1.0
  H  H471  1  0.673500  0.474600  0.198600  1.0
  H  H472  1  0.326500  0.525400  0.698600  1.0
  H  H473  1  0.420300  0.629900  0.766200  1.0
  H  H474  1  0.579700  0.370100  0.266200  1.0
  H  H475  1  0.870100  0.920300  0.016200  1.0
  H  H476  1  0.129900  0.079700  0.516200  1.0
  H  H477  1  0.079700  0.129900  0.483800  1.0
  H  H478  1  0.920300  0.870100  0.983800  1.0
  H  H479  1  0.629900  0.420300  0.233800  1.0
  H  H480  1  0.370100  0.579700  0.733800  1.0
  Pd  Pd481  1  0.509960  0.490040  0.750000  1
  Pd  Pd482  1  0.490040  0.509960  0.250000  1
  Pd  Pd483  1  0.009960  0.009960  0.000000  1
  Pd  Pd484  1  0.990040  0.990040  0.500000  1
  Pd  Pd485  1  0.962470  0.037530  0.750000  1
  Pd  Pd486  1  0.037530  0.962470  0.250000  1
  Pd  Pd487  1  0.462470  0.462470  0.000000  1
  Pd  Pd488  1  0.537530  0.537530  0.500000  1
  Pd  Pd489  1  0.520040  0.047840  0.827300  1.0
  Pd  Pd490  1  0.479960  0.952160  0.327300  1.0
  Pd  Pd491  1  0.452160  0.020040  0.077300  1.0
  Pd  Pd492  1  0.547840  0.979960  0.577300  1.0
  Pd  Pd493  1  0.979960  0.547840  0.422700  1.0
  Pd  Pd494  1  0.020040  0.452160  0.922700  1.0
  Pd  Pd495  1  0.047840  0.520040  0.172700  1.0
  Pd  Pd496  1  0.952160  0.479960  0.672700  1.0
  Pd  Pd497  1  0.796420  0.321620  0.039660  1.0
  Pd  Pd498  1  0.203580  0.678380  0.539660  1.0
  Pd  Pd499  1  0.178380  0.296420  0.289660  1.0
  Pd  Pd500  1  0.821620  0.703580  0.789660  1.0
  Pd  Pd501  1  0.703580  0.821620  0.210340  1.0
  Pd  Pd502  1  0.296420  0.178380  0.710340  1.0
  Pd  Pd503  1  0.321620  0.796420  0.960340  1.0
  Pd  Pd504  1  0.678380  0.203580  0.460340  1.0
  C  C505  1  0.710600  0.649300  0.555800  1
  C  C506  1  0.289400  0.350700  0.055800  1
  C  C507  1  0.850700  0.210600  0.805800  1
  C  C508  1  0.149300  0.789400  0.305800  1
  C  C509  1  0.789400  0.149300  0.694200  1
  C  C510  1  0.210600  0.850700  0.194200  1
  C  C511  1  0.649300  0.710600  0.444200  1
  C  C512  1  0.350700  0.289400  0.944200  1
  C  C513  1  0.724400  0.603300  0.553900  1
  C  C514  1  0.275600  0.396700  0.053900  1
  C  C515  1  0.896700  0.224400  0.803900  1
  C  C516  1  0.103300  0.775600  0.303900  1
  C  C517  1  0.775600  0.103300  0.696100  1
  C  C518  1  0.224400  0.896700  0.196100  1
  C  C519  1  0.603300  0.724400  0.446100  1
  C  C520  1  0.396700  0.275600  0.946100  1
  C  C521  1  0.755800  0.599600  0.587400  1
  C  C522  1  0.244200  0.400400  0.087400  1
  C  C523  1  0.900400  0.255800  0.837400  1
  C  C524  1  0.099600  0.744200  0.337400  1
  C  C525  1  0.744200  0.099600  0.662600  1
  C  C526  1  0.255800  0.900400  0.162600  1
  C  C527  1  0.599600  0.755800  0.412600  1
  C  C528  1  0.400400  0.244200  0.912600  1
  C  C529  1  0.760900  0.642800  0.605900  1
  C  C530  1  0.239100  0.357200  0.105900  1
  C  C531  1  0.857200  0.260900  0.855900  1
  C  C532  1  0.142800  0.739100  0.355900  1
  C  C533  1  0.739100  0.142800  0.644100  1
  C  C534  1  0.260900  0.857200  0.144100  1
  C  C535  1  0.642800  0.760900  0.394100  1
  C  C536  1  0.357200  0.239100  0.894100  1
  C  C537  1  0.734000  0.676100  0.585400  1
  C  C538  1  0.266000  0.323900  0.085400  1
  C  C539  1  0.823900  0.234000  0.835400  1
  C  C540  1  0.176100  0.766000  0.335400  1
  C  C541  1  0.766000  0.176100  0.664600  1
  C  C542  1  0.234000  0.823900  0.164600  1
  C  C543  1  0.676100  0.734000  0.414600  1
  C  C544  1  0.323900  0.266000  0.914600  1
  C  C545  1  0.771200  0.663800  0.484700  1
  C  C546  1  0.228800  0.336200  0.984700  1
  C  C547  1  0.836200  0.271200  0.734700  1
  C  C548  1  0.163800  0.728800  0.234700  1
  C  C549  1  0.728800  0.163800  0.765300  1
  C  C550  1  0.271200  0.836200  0.265300  1
  C  C551  1  0.663800  0.771200  0.515300  1
  C  C552  1  0.336200  0.228800  0.015300  1
  C  C553  1  0.817100  0.695600  0.549300  1
  C  C554  1  0.182900  0.304400  0.049300  1
  C  C555  1  0.804400  0.317100  0.799300  1
  C  C556  1  0.195600  0.682900  0.299300  1
  C  C557  1  0.682900  0.195600  0.700700  1
  C  C558  1  0.317100  0.804400  0.200700  1
  C  C559  1  0.695600  0.817100  0.450700  1
  C  C560  1  0.304400  0.182900  0.950700  1
  C  C561  1  0.826200  0.610500  0.527700  1
  C  C562  1  0.173800  0.389500  0.027700  1
  C  C563  1  0.889500  0.326200  0.777700  1
  C  C564  1  0.110500  0.673800  0.277700  1
  C  C565  1  0.673800  0.110500  0.722300  1
  C  C566  1  0.326200  0.889500  0.222300  1
  C  C567  1  0.610500  0.826200  0.472300  1
  C  C568  1  0.389500  0.173800  0.972300  1
  C  C569  1  0.744900  0.906200  0.624600  1
  C  C570  1  0.255100  0.093800  0.124600  1
  C  C571  1  0.593800  0.244900  0.874600  1
  C  C572  1  0.406200  0.755100  0.374600  1
  C  C573  1  0.755100  0.406200  0.625400  1
  C  C574  1  0.244900  0.593800  0.125400  1
  C  C575  1  0.906200  0.744900  0.375400  1
  C  C576  1  0.093800  0.255100  0.875400  1
  C  C577  1  0.770600  0.922800  0.593500  1
  C  C578  1  0.229400  0.077200  0.093500  1
  C  C579  1  0.577200  0.270600  0.843500  1
  C  C580  1  0.422800  0.729400  0.343500  1
  C  C581  1  0.729400  0.422800  0.656500  1
  C  C582  1  0.270600  0.577200  0.156500  1
  C  C583  1  0.922800  0.770600  0.406500  1
  C  C584  1  0.077200  0.229400  0.906500  1
  C  C585  1  0.764600  0.896000  0.556900  1
  C  C586  1  0.235400  0.104000  0.056900  1
  C  C587  1  0.604000  0.264600  0.806900  1
  C  C588  1  0.396000  0.735400  0.306900  1
  C  C589  1  0.735400  0.396000  0.693100  1
  C  C590  1  0.264600  0.604000  0.193100  1
  C  C591  1  0.896000  0.764600  0.443100  1
  C  C592  1  0.104000  0.235400  0.943100  1
  C  C593  1  0.735200  0.862700  0.570100  1
  C  C594  1  0.264800  0.137300  0.070100  1
  C  C595  1  0.637300  0.235200  0.820100  1
  C  C596  1  0.362700  0.764800  0.320100  1
  C  C597  1  0.764800  0.362700  0.679900  1
  C  C598  1  0.235200  0.637300  0.179900  1
  C  C599  1  0.862700  0.735200  0.429900  1
  C  C600  1  0.137300  0.264800  0.929900  1
  C  C601  1  0.722800  0.867400  0.616800  1
  C  C602  1  0.277200  0.132600  0.116800  1
  C  C603  1  0.632600  0.222800  0.866800  1
  C  C604  1  0.367400  0.777200  0.366800  1
  C  C605  1  0.777200  0.367400  0.633200  1
  C  C606  1  0.222800  0.632600  0.133200  1
  C  C607  1  0.867400  0.722800  0.383200  1
  C  C608  1  0.132600  0.277200  0.883200  1
  C  C609  1  0.831800  0.841000  0.566400  1
  C  C610  1  0.168200  0.159000  0.066400  1
  C  C611  1  0.659000  0.331800  0.816400  1
  C  C612  1  0.341000  0.668200  0.316400  1
  C  C613  1  0.668200  0.341000  0.683600  1
  C  C614  1  0.331800  0.659000  0.183600  1
  C  C615  1  0.841000  0.831800  0.433600  1
  C  C616  1  0.159000  0.168200  0.933600  1
  C  C617  1  0.791800  0.800500  0.626200  1
  C  C618  1  0.208200  0.199500  0.126200  1
  C  C619  1  0.699500  0.291800  0.876200  1
  C  C620  1  0.300500  0.708200  0.376200  1
  C  C621  1  0.708200  0.300500  0.623800  1
  C  C622  1  0.291800  0.699500  0.123800  1
  C  C623  1  0.800500  0.791800  0.373800  1
  C  C624  1  0.199500  0.208200  0.873800  1
  C  C625  1  0.832100  0.875600  0.640200  1
  C  C626  1  0.167900  0.124400  0.140200  1
  C  C627  1  0.624400  0.332100  0.890200  1
  C  C628  1  0.375600  0.667900  0.390200  1
  C  C629  1  0.667900  0.375600  0.609800  1
  C  C630  1  0.332100  0.624400  0.109800  1
  C  C631  1  0.875600  0.832100  0.359800  1
  C  C632  1  0.124400  0.167900  0.859800  1
  C  C633  1  0.736700  0.214500  0.963300  1.0
  C  C634  1  0.263300  0.785500  0.463300  1.0
  C  C635  1  0.285500  0.236700  0.213300  1.0
  C  C636  1  0.714500  0.763300  0.713300  1.0
  C  C637  1  0.763300  0.714500  0.286700  1.0
  C  C638  1  0.236700  0.285500  0.786700  1.0
  C  C639  1  0.214500  0.736700  0.036700  1.0
  C  C640  1  0.785500  0.263300  0.536700  1.0
  C  C641  1  0.425800  0.045200  0.790600  1.0
  C  C642  1  0.574200  0.954800  0.290600  1.0
  C  C643  1  0.454800  0.925800  0.040600  1.0
  C  C644  1  0.545200  0.074200  0.540600  1.0
  C  C645  1  0.074200  0.545200  0.459400  1.0
  C  C646  1  0.925800  0.454800  0.959400  1.0
  C  C647  1  0.045200  0.425800  0.209400  1.0
  C  C648  1  0.954800  0.574200  0.709400  1.0
  C  C649  1  0.509200  0.388400  0.753700  1.0
  C  C650  1  0.490800  0.611600  0.253700  1.0
  C  C651  1  0.111600  0.009200  0.003700  1.0
  C  C652  1  0.888400  0.990800  0.503700  1.0
  C  C653  1  0.990800  0.888400  0.496300  1.0
  C  C654  1  0.009200  0.111600  0.996300  1.0
  C  C655  1  0.388400  0.509200  0.246300  1.0
  C  C656  1  0.611600  0.490800  0.746300  1.0
  C  C657  1  0.530200  0.336300  0.698900  1.0
  C  C658  1  0.469800  0.663700  0.198900  1.0
  C  C659  1  0.163700  0.030200  0.948900  1.0
  C  C660  1  0.836300  0.969800  0.448900  1.0
  C  C661  1  0.969800  0.836300  0.551100  1.0
  C  C662  1  0.030200  0.163700  0.051100  1.0
  C  C663  1  0.336300  0.530200  0.301100  1.0
  C  C664  1  0.663700  0.469800  0.801100  1.0
  C  C665  1  0.835800  0.087900  0.838300  1.0
  C  C666  1  0.164200  0.912100  0.338300  1.0
  C  C667  1  0.412100  0.335800  0.088300  1.0
  C  C668  1  0.587900  0.664200  0.588300  1.0
  C  C669  1  0.664200  0.587900  0.411700  1.0
  C  C670  1  0.335800  0.412100  0.911700  1.0
  C  C671  1  0.087900  0.835800  0.161700  1.0
  C  C672  1  0.912100  0.164200  0.661700  1.0
  C  C673  1  0.767700  0.156500  0.911900  1.0
  C  C674  1  0.232300  0.843500  0.411900  1.0
  C  C675  1  0.343500  0.267700  0.161900  1.0
  C  C676  1  0.656500  0.732300  0.661900  1.0
  C  C677  1  0.732300  0.656500  0.338100  1.0
  C  C678  1  0.267700  0.343500  0.838100  1.0
  C  C679  1  0.156500  0.767700  0.088100  1.0
  C  C680  1  0.843500  0.232300  0.588100  1.0
  C  C681  1  0.531900  0.172200  0.724700  1.0
  C  C682  1  0.468100  0.827800  0.224700  1.0
  C  C683  1  0.327800  0.031900  0.974700  1.0
  C  C684  1  0.672200  0.968100  0.474700  1.0
  C  C685  1  0.968100  0.672200  0.525300  1.0
  C  C686  1  0.031900  0.327800  0.025300  1.0
  C  C687  1  0.172200  0.531900  0.275300  1.0
  C  C688  1  0.827800  0.468100  0.775300  1.0
  C  C689  1  0.568100  0.239700  0.632000  1.0
  C  C690  1  0.431900  0.760300  0.132000  1.0
  C  C691  1  0.260300  0.068100  0.882000  1.0
  C  C692  1  0.739700  0.931900  0.382000  1.0
  C  C693  1  0.931900  0.739700  0.618000  1.0
  C  C694  1  0.068100  0.260300  0.118000  1.0
  C  C695  1  0.239700  0.568100  0.368000  1.0
  C  C696  1  0.760300  0.431900  0.868000  1.0
  C  C697  1  0.817300  0.208900  0.954700  1.0
  C  C698  1  0.182700  0.791100  0.454700  1.0
  C  C699  1  0.291100  0.317300  0.204700  1.0
  C  C700  1  0.708900  0.682700  0.704700  1.0
  C  C701  1  0.682700  0.708900  0.295300  1.0
  C  C702  1  0.317300  0.291100  0.795300  1.0
  C  C703  1  0.208900  0.817300  0.045300  1.0
  C  C704  1  0.791100  0.182700  0.545300  1.0
  C  C705  1  0.915900  0.089900  0.818200  1.0
  C  C706  1  0.084100  0.910100  0.318200  1.0
  C  C707  1  0.410100  0.415900  0.068200  1.0
  C  C708  1  0.589900  0.584100  0.568200  1.0
  C  C709  1  0.584100  0.589900  0.431800  1.0
  C  C710  1  0.415900  0.410100  0.931800  1.0
  C  C711  1  0.089900  0.915900  0.181800  1.0
  C  C712  1  0.910100  0.084100  0.681800  1.0
  C  C713  1  0.880900  0.106000  0.845100  1.0
  C  C714  1  0.119100  0.894000  0.345100  1.0
  C  C715  1  0.394000  0.380900  0.095100  1.0
  C  C716  1  0.606000  0.619100  0.595100  1.0
  C  C717  1  0.619100  0.606000  0.404900  1.0
  C  C718  1  0.380900  0.394000  0.904900  1.0
  C  C719  1  0.106000  0.880900  0.154900  1.0
  C  C720  1  0.894000  0.119100  0.654900  1.0
  C  C721  1  0.620900  0.049900  0.820100  1.0
  C  C722  1  0.379100  0.950100  0.320100  1.0
  C  C723  1  0.450100  0.120900  0.070100  1.0
  C  C724  1  0.549900  0.879100  0.570100  1.0
  C  C725  1  0.879100  0.549900  0.429900  1.0
  C  C726  1  0.120900  0.450100  0.929900  1.0
  C  C727  1  0.049900  0.620900  0.179900  1.0
  C  C728  1  0.950100  0.379100  0.679900  1.0
  C  C729  1  0.518100  0.178800  0.767500  1.0
  C  C730  1  0.481900  0.821200  0.267500  1.0
  C  C731  1  0.321200  0.018100  0.017500  1.0
  C  C732  1  0.678800  0.981900  0.517500  1.0
  C  C733  1  0.981900  0.678800  0.482500  1.0
  C  C734  1  0.018100  0.321200  0.982500  1.0
  C  C735  1  0.178800  0.518100  0.232500  1.0
  C  C736  1  0.821200  0.481900  0.732500  1.0
  C  C737  1  0.665800  0.062500  0.830200  1.0
  C  C738  1  0.334200  0.937500  0.330200  1.0
  C  C739  1  0.437500  0.165800  0.080200  1.0
  C  C740  1  0.562500  0.834200  0.580200  1.0
  C  C741  1  0.834200  0.562500  0.419800  1.0
  C  C742  1  0.165800  0.437500  0.919800  1.0
  C  C743  1  0.062500  0.665800  0.169800  1.0
  C  C744  1  0.937500  0.334200  0.669800  1.0
  C  C745  1  0.830700  0.315200  0.125800  1.0
  C  C746  1  0.169300  0.684800  0.625800  1.0
  C  C747  1  0.184800  0.330700  0.375800  1.0
  C  C748  1  0.815200  0.669300  0.875800  1.0
  C  C749  1  0.669300  0.815200  0.124200  1.0
  C  C750  1  0.330700  0.184800  0.624200  1.0
  C  C751  1  0.315200  0.830700  0.874200  1.0
  C  C752  1  0.684800  0.169300  0.374200  1.0
  C  C753  1  0.539700  0.288200  0.684400  1.0
  C  C754  1  0.460300  0.711800  0.184400  1.0
  C  C755  1  0.211800  0.039700  0.934400  1.0
  C  C756  1  0.788200  0.960300  0.434400  1.0
  C  C757  1  0.960300  0.788200  0.565600  1.0
  C  C758  1  0.039700  0.211800  0.065600  1.0
  C  C759  1  0.288200  0.539700  0.315600  1.0
  C  C760  1  0.711800  0.460300  0.815600  1.0
  C  C761  1  0.610900  0.189300  0.581100  1.0
  C  C762  1  0.389100  0.810700  0.081100  1.0
  C  C763  1  0.310700  0.110900  0.831100  1.0
  C  C764  1  0.689300  0.889100  0.331100  1.0
  C  C765  1  0.889100  0.689300  0.668900  1.0
  C  C766  1  0.110900  0.310700  0.168900  1.0
  C  C767  1  0.189300  0.610900  0.418900  1.0
  C  C768  1  0.810700  0.389100  0.918900  1.0
  C  C769  1  0.539900  0.126400  0.711900  1.0
  C  C770  1  0.460100  0.873600  0.211900  1.0
  C  C771  1  0.373600  0.039900  0.961900  1.0
  C  C772  1  0.626400  0.960100  0.461900  1.0
  C  C773  1  0.960100  0.626400  0.538100  1.0
  C  C774  1  0.039900  0.373600  0.038100  1.0
  C  C775  1  0.126400  0.539900  0.288100  1.0
  C  C776  1  0.873600  0.460100  0.788100  1.0
  C  C777  1  0.804900  0.419600  0.067800  1.0
  C  C778  1  0.195100  0.580400  0.567800  1.0
  C  C779  1  0.080400  0.304900  0.317800  1.0
  C  C780  1  0.919600  0.695100  0.817800  1.0
  C  C781  1  0.695100  0.919600  0.182200  1.0
  C  C782  1  0.304900  0.080400  0.682200  1.0
  C  C783  1  0.419600  0.804900  0.932200  1.0
  C  C784  1  0.580400  0.195100  0.432200  1.0
  C  C785  1  0.720500  0.108400  0.876400  1.0
  C  C786  1  0.279500  0.891600  0.376400  1.0
  C  C787  1  0.391600  0.220500  0.126400  1.0
  C  C788  1  0.608400  0.779500  0.626400  1.0
  C  C789  1  0.779500  0.608400  0.373600  1.0
  C  C790  1  0.220500  0.391600  0.873600  1.0
  C  C791  1  0.108400  0.720500  0.123600  1.0
  C  C792  1  0.891600  0.279500  0.623600  1.0
  C  C793  1  0.743700  0.250400  0.991900  1.0
  C  C794  1  0.256300  0.749600  0.491900  1.0
  C  C795  1  0.249600  0.243700  0.241900  1.0
  C  C796  1  0.750400  0.756300  0.741900  1.0
  C  C797  1  0.756300  0.750400  0.258100  1.0
  C  C798  1  0.243700  0.249600  0.758100  1.0
  C  C799  1  0.250400  0.743700  0.008100  1.0
  C  C800  1  0.749600  0.256300  0.508100  1.0
  C  C801  1  0.540600  0.211300  0.695400  1.0
  C  C802  1  0.459400  0.788700  0.195400  1.0
  C  C803  1  0.288700  0.040600  0.945400  1.0
  C  C804  1  0.711300  0.959400  0.445400  1.0
  C  C805  1  0.959400  0.711300  0.554600  1.0
  C  C806  1  0.040600  0.288700  0.054600  1.0
  C  C807  1  0.211300  0.540600  0.304600  1.0
  C  C808  1  0.788700  0.459400  0.804600  1.0
  C  C809  1  0.822400  0.244000  0.983800  1.0
  C  C810  1  0.177600  0.756000  0.483800  1.0
  C  C811  1  0.256000  0.322400  0.233800  1.0
  C  C812  1  0.744000  0.677600  0.733800  1.0
  C  C813  1  0.677600  0.744000  0.266200  1.0
  C  C814  1  0.322400  0.256000  0.766200  1.0
  C  C815  1  0.244000  0.822400  0.016200  1.0
  C  C816  1  0.756000  0.177600  0.516200  1.0
  C  C817  1  0.592500  0.232200  0.590100  1.0
  C  C818  1  0.407500  0.767800  0.090100  1.0
  C  C819  1  0.267800  0.092500  0.840100  1.0
  C  C820  1  0.732200  0.907500  0.340100  1.0
  C  C821  1  0.907500  0.732200  0.659900  1.0
  C  C822  1  0.092500  0.267800  0.159900  1.0
  C  C823  1  0.232200  0.592500  0.409900  1.0
  C  C824  1  0.767800  0.407500  0.909900  1.0
  C  C825  1  0.598500  0.268500  0.560700  1.0
  C  C826  1  0.401500  0.731500  0.060700  1.0
  C  C827  1  0.231500  0.098500  0.810700  1.0
  C  C828  1  0.768500  0.901500  0.310700  1.0
  C  C829  1  0.901500  0.768500  0.689300  1.0
  C  C830  1  0.098500  0.231500  0.189300  1.0
  C  C831  1  0.268500  0.598500  0.439300  1.0
  C  C832  1  0.731500  0.401500  0.939300  1.0
  C  C833  1  0.512900  0.142100  0.793700  1.0
  C  C834  1  0.487100  0.857900  0.293700  1.0
  C  C835  1  0.357900  0.012900  0.043700  1.0
  C  C836  1  0.642100  0.987100  0.543700  1.0
  C  C837  1  0.987100  0.642100  0.456300  1.0
  C  C838  1  0.012900  0.357900  0.956300  1.0
  C  C839  1  0.142100  0.512900  0.206300  1.0
  C  C840  1  0.857900  0.487100  0.706300  1.0
  C  C841  1  0.673200  0.092700  0.864700  1.0
  C  C842  1  0.326800  0.907300  0.364700  1.0
  C  C843  1  0.407300  0.173200  0.114700  1.0
  C  C844  1  0.592700  0.826800  0.614700  1.0
  C  C845  1  0.826800  0.592700  0.385300  1.0
  C  C846  1  0.173200  0.407300  0.885300  1.0
  C  C847  1  0.092700  0.673200  0.135300  1.0
  C  C848  1  0.907300  0.326800  0.635300  1.0
  C  C849  1  0.818200  0.455500  0.094700  1.0
  C  C850  1  0.181800  0.544500  0.594700  1.0
  C  C851  1  0.044500  0.318200  0.344700  1.0
  C  C852  1  0.955500  0.681800  0.844700  1.0
  C  C853  1  0.681800  0.955500  0.155300  1.0
  C  C854  1  0.318200  0.044500  0.655300  1.0
  C  C855  1  0.455500  0.818200  0.905300  1.0
  C  C856  1  0.544500  0.181800  0.405300  1.0
  C  C857  1  0.774600  0.193800  0.944500  1.0
  C  C858  1  0.225400  0.806200  0.444500  1.0
  C  C859  1  0.306200  0.274600  0.194500  1.0
  C  C860  1  0.693800  0.725400  0.694500  1.0
  C  C861  1  0.725400  0.693800  0.305500  1.0
  C  C862  1  0.274600  0.306200  0.805500  1.0
  C  C863  1  0.193800  0.774600  0.055500  1.0
  C  C864  1  0.806200  0.225400  0.555500  1.0
  C  C865  1  0.440300  0.998100  0.849700  1.0
  C  C866  1  0.559700  0.001900  0.349700  1.0
  C  C867  1  0.501900  0.940300  0.099700  1.0
  C  C868  1  0.498100  0.059700  0.599700  1.0
  C  C869  1  0.059700  0.498100  0.400300  1.0
  C  C870  1  0.940300  0.501900  0.900300  1.0
  C  C871  1  0.998100  0.440300  0.150300  1.0
  C  C872  1  0.001900  0.559700  0.650300  1.0
  C  C873  1  0.516100  0.344300  0.740600  1.0
  C  C874  1  0.483900  0.655700  0.240600  1.0
  C  C875  1  0.155700  0.016100  0.990600  1.0
  C  C876  1  0.844300  0.983900  0.490600  1.0
  C  C877  1  0.983900  0.844300  0.509400  1.0
  C  C878  1  0.016100  0.155700  0.009400  1.0
  C  C879  1  0.344300  0.516100  0.259400  1.0
  C  C880  1  0.655700  0.483900  0.759400  1.0
  C  C881  1  0.623500  0.259200  0.523300  1.0
  C  C882  1  0.376500  0.740800  0.023300  1.0
  C  C883  1  0.240800  0.123500  0.773300  1.0
  C  C884  1  0.759200  0.876500  0.273300  1.0
  C  C885  1  0.876500  0.759200  0.726700  1.0
  C  C886  1  0.123500  0.240800  0.226700  1.0
  C  C887  1  0.259200  0.623500  0.476700  1.0
  C  C888  1  0.740800  0.376500  0.976700  1.0
  C  C889  1  0.527600  0.417500  0.686600  1.0
  C  C890  1  0.472400  0.582500  0.186600  1.0
  C  C891  1  0.082500  0.027600  0.936600  1.0
  C  C892  1  0.917500  0.972400  0.436600  1.0
  C  C893  1  0.972400  0.917500  0.563400  1.0
  C  C894  1  0.027600  0.082500  0.063400  1.0
  C  C895  1  0.417500  0.527600  0.313400  1.0
  C  C896  1  0.582500  0.472400  0.813400  1.0
  C  C897  1  0.635700  0.184200  0.543100  1.0
  C  C898  1  0.364300  0.815800  0.043100  1.0
  C  C899  1  0.315800  0.135700  0.793100  1.0
  C  C900  1  0.684200  0.864300  0.293100  1.0
  C  C901  1  0.864300  0.684200  0.706900  1.0
  C  C902  1  0.135700  0.315800  0.206900  1.0
  C  C903  1  0.184200  0.635700  0.456900  1.0
  C  C904  1  0.815800  0.364300  0.956900  1.0
  C  C905  1  0.814200  0.241700  0.098600  1.0
  C  C906  1  0.185800  0.758300  0.598600  1.0
  C  C907  1  0.258300  0.314200  0.348600  1.0
  C  C908  1  0.741700  0.685800  0.848600  1.0
  C  C909  1  0.685800  0.741700  0.151400  1.0
  C  C910  1  0.314200  0.258300  0.651400  1.0
  C  C911  1  0.241700  0.814200  0.901400  1.0
  C  C912  1  0.758300  0.185800  0.401400  1.0
  C  C913  1  0.634900  0.110700  0.886900  1.0
  C  C914  1  0.365100  0.889300  0.386900  1.0
  C  C915  1  0.389300  0.134900  0.136900  1.0
  C  C916  1  0.610700  0.865100  0.636900  1.0
  C  C917  1  0.865100  0.610700  0.363100  1.0
  C  C918  1  0.134900  0.389300  0.863100  1.0
  C  C919  1  0.110700  0.634900  0.113100  1.0
  C  C920  1  0.889300  0.365100  0.613100  1.0
  C  C921  1  0.796500  0.106300  0.863300  1.0
  C  C922  1  0.203500  0.893700  0.363300  1.0
  C  C923  1  0.393700  0.296500  0.113300  1.0
  C  C924  1  0.606300  0.703500  0.613300  1.0
  C  C925  1  0.703500  0.606300  0.386700  1.0
  C  C926  1  0.296500  0.393700  0.886700  1.0
  C  C927  1  0.106300  0.796500  0.136700  1.0
  C  C928  1  0.893700  0.203500  0.636700  1.0
  C  C929  1  0.591700  0.094500  0.875200  1.0
  C  C930  1  0.408300  0.905500  0.375200  1.0
  C  C931  1  0.405500  0.091700  0.125200  1.0
  C  C932  1  0.594500  0.908300  0.625200  1.0
  C  C933  1  0.908300  0.594500  0.374800  1.0
  C  C934  1  0.091700  0.405500  0.874800  1.0
  C  C935  1  0.094500  0.591700  0.124800  1.0
  C  C936  1  0.905500  0.408300  0.624800  1.0
  C  C937  1  0.867600  0.037800  0.782800  1.0
  C  C938  1  0.132400  0.962200  0.282800  1.0
  C  C939  1  0.462200  0.367600  0.032800  1.0
  C  C940  1  0.537800  0.632400  0.532800  1.0
  C  C941  1  0.632400  0.537800  0.467200  1.0
  C  C942  1  0.367600  0.462200  0.967200  1.0
  C  C943  1  0.037800  0.867600  0.217200  1.0
  C  C944  1  0.962200  0.132400  0.717200  1.0
  C  C945  1  0.536300  0.372800  0.671100  1.0
  C  C946  1  0.463700  0.627200  0.171100  1.0
  C  C947  1  0.127200  0.036300  0.921100  1.0
  C  C948  1  0.872800  0.963700  0.421100  1.0
  C  C949  1  0.963700  0.872800  0.578900  1.0
  C  C950  1  0.036300  0.127200  0.078900  1.0
  C  C951  1  0.372800  0.536300  0.328900  1.0
  C  C952  1  0.627200  0.463700  0.828900  1.0
  C  C953  1  0.534200  0.091500  0.740900  1.0
  C  C954  1  0.465800  0.908500  0.240900  1.0
  C  C955  1  0.408500  0.034200  0.990900  1.0
  C  C956  1  0.591500  0.965800  0.490900  1.0
  C  C957  1  0.965800  0.591500  0.509100  1.0
  C  C958  1  0.034200  0.408500  0.009100  1.0
  C  C959  1  0.091500  0.534200  0.259100  1.0
  C  C960  1  0.908500  0.465800  0.759100  1.0
  C  C961  1  0.848600  0.251000  0.170200  1.0
  C  C962  1  0.151400  0.749000  0.670200  1.0
  C  C963  1  0.249000  0.348600  0.420200  1.0
  C  C964  1  0.751000  0.651400  0.920200  1.0
  C  C965  1  0.651400  0.751000  0.079800  1.0
  C  C966  1  0.348600  0.249000  0.579800  1.0
  C  C967  1  0.251000  0.848600  0.829800  1.0
  C  C968  1  0.749000  0.151400  0.329800  1.0
  C  C969  1  0.475500  0.979900  0.878100  1.0
  C  C970  1  0.524500  0.020100  0.378100  1.0
  C  C971  1  0.520100  0.975500  0.128100  1.0
  C  C972  1  0.479900  0.024500  0.628100  1.0
  C  C973  1  0.024500  0.479900  0.371900  1.0
  C  C974  1  0.975500  0.520100  0.871900  1.0
  C  C975  1  0.979900  0.475500  0.121900  1.0
  C  C976  1  0.020100  0.524500  0.621900  1.0
  C  C977  1  0.552900  0.981000  0.896400  1.0
  C  C978  1  0.447100  0.019000  0.396400  1.0
  C  C979  1  0.519000  0.052900  0.146400  1.0
  C  C980  1  0.481000  0.947100  0.646400  1.0
  C  C981  1  0.947100  0.481000  0.353600  1.0
  C  C982  1  0.052900  0.519000  0.853600  1.0
  C  C983  1  0.981000  0.552900  0.103600  1.0
  C  C984  1  0.019000  0.447100  0.603600  1.0
  C  C985  1  0.827800  0.364000  0.117700  1.0
  C  C986  1  0.172200  0.636000  0.617700  1.0
  C  C987  1  0.136000  0.327800  0.367700  1.0
  C  C988  1  0.864000  0.672200  0.867700  1.0
  C  C989  1  0.672200  0.864000  0.132300  1.0
  C  C990  1  0.327800  0.136000  0.632300  1.0
  C  C991  1  0.364000  0.827800  0.882300  1.0
  C  C992  1  0.636000  0.172200  0.382300  1.0
  C  C993  1  0.379000  0.030000  0.791200  1.0
  C  C994  1  0.621000  0.970000  0.291200  1.0
  C  C995  1  0.470000  0.879000  0.041200  1.0
  C  C996  1  0.530000  0.121000  0.541200  1.0
  C  C997  1  0.121000  0.530000  0.458800  1.0
  C  C998  1  0.879000  0.470000  0.958800  1.0
  C  C999  1  0.030000  0.379000  0.208800  1.0
  C  C1000  1  0.970000  0.621000  0.708800  1.0
  C  C1001  1  0.849000  0.299000  0.164600  1.0
  C  C1002  1  0.151000  0.701000  0.664600  1.0
  C  C1003  1  0.201000  0.349000  0.414600  1.0
  C  C1004  1  0.799000  0.651000  0.914600  1.0
  C  C1005  1  0.651000  0.799000  0.085400  1.0
  C  C1006  1  0.349000  0.201000  0.585400  1.0
  C  C1007  1  0.299000  0.849000  0.835400  1.0
  C  C1008  1  0.701000  0.151000  0.335400  1.0
  C  C1009  1  0.546800  0.945500  0.928300  1.0
  C  C1010  1  0.453200  0.054500  0.428300  1.0
  C  C1011  1  0.554500  0.046800  0.178300  1.0
  C  C1012  1  0.445500  0.953200  0.678300  1.0
  C  C1013  1  0.953200  0.445500  0.321700  1.0
  C  C1014  1  0.046800  0.554500  0.821700  1.0
  C  C1015  1  0.945500  0.546800  0.071700  1.0
  C  C1016  1  0.054500  0.453200  0.571700  1.0
  C  C1017  1  0.830500  0.054000  0.806300  1.0
  C  C1018  1  0.169500  0.946000  0.306300  1.0
  C  C1019  1  0.446000  0.330500  0.056300  1.0
  C  C1020  1  0.554000  0.669500  0.556300  1.0
  C  C1021  1  0.669500  0.554000  0.443700  1.0
  C  C1022  1  0.330500  0.446000  0.943700  1.0
  C  C1023  1  0.054000  0.830500  0.193700  1.0
  C  C1024  1  0.946000  0.169500  0.693700  1.0
  C  C1025  1  0.502700  0.929400  0.935000  1.0
  C  C1026  1  0.497300  0.070600  0.435000  1.0
  C  C1027  1  0.570600  0.002700  0.185000  1.0
  C  C1028  1  0.429400  0.997300  0.685000  1.0
  C  C1029  1  0.997300  0.429400  0.315000  1.0
  C  C1030  1  0.002700  0.570600  0.815000  1.0
  C  C1031  1  0.929400  0.502700  0.065000  1.0
  C  C1032  1  0.070600  0.497300  0.565000  1.0
  C  C1033  1  0.844500  0.398800  0.143800  1.0
  C  C1034  1  0.155500  0.601200  0.643800  1.0
  C  C1035  1  0.101200  0.344500  0.393800  1.0
  C  C1036  1  0.898800  0.655500  0.893800  1.0
  C  C1037  1  0.655500  0.898800  0.106200  1.0
  C  C1038  1  0.344500  0.101200  0.606200  1.0
  C  C1039  1  0.398800  0.844500  0.856200  1.0
  C  C1040  1  0.601200  0.155500  0.356200  1.0
  C  C1041  1  0.839900  0.443200  0.133300  1.0
  C  C1042  1  0.160100  0.556800  0.633300  1.0
  C  C1043  1  0.056800  0.339900  0.383300  1.0
  C  C1044  1  0.943200  0.660100  0.883300  1.0
  C  C1045  1  0.660100  0.943200  0.116700  1.0
  C  C1046  1  0.339900  0.056800  0.616700  1.0
  C  C1047  1  0.443200  0.839900  0.866700  1.0
  C  C1048  1  0.556800  0.160100  0.366700  1.0
  C  C1049  1  0.964200  0.970400  0.824100  1.0
  C  C1050  1  0.035800  0.029600  0.324100  1.0
  C  C1051  1  0.529600  0.464200  0.074100  1.0
  C  C1052  1  0.470400  0.535800  0.574100  1.0
  C  C1053  1  0.535800  0.470400  0.425900  1.0
  C  C1054  1  0.464200  0.529600  0.925900  1.0
  C  C1055  1  0.970400  0.964200  0.175900  1.0
  C  C1056  1  0.029600  0.035800  0.675900  1.0
  C  C1057  1  0.363400  0.002700  0.819800  1.0
  C  C1058  1  0.636600  0.997300  0.319800  1.0
  C  C1059  1  0.497300  0.863400  0.069800  1.0
  C  C1060  1  0.502700  0.136600  0.569800  1.0
  C  C1061  1  0.136600  0.502700  0.430200  1.0
  C  C1062  1  0.863400  0.497300  0.930200  1.0
  C  C1063  1  0.002700  0.363400  0.180200  1.0
  C  C1064  1  0.997300  0.636600  0.680200  1.0
  C  C1065  1  0.035200  0.923500  0.792900  1.0
  C  C1066  1  0.964800  0.076500  0.292900  1.0
  C  C1067  1  0.576500  0.535200  0.042900  1.0
  C  C1068  1  0.423500  0.464800  0.542900  1.0
  C  C1069  1  0.464800  0.423500  0.457100  1.0
  C  C1070  1  0.535200  0.576500  0.957100  1.0
  C  C1071  1  0.923500  0.035200  0.207100  1.0
  C  C1072  1  0.076500  0.964800  0.707100  1.0
  C  C1073  1  0.832600  0.223400  0.138500  1.0
  C  C1074  1  0.167400  0.776600  0.638500  1.0
  C  C1075  1  0.276600  0.332600  0.388500  1.0
  C  C1076  1  0.723400  0.667400  0.888500  1.0
  C  C1077  1  0.667400  0.723400  0.111500  1.0
  C  C1078  1  0.332600  0.276600  0.611500  1.0
  C  C1079  1  0.223400  0.832600  0.861500  1.0
  C  C1080  1  0.776600  0.167400  0.361500  1.0
  C  C1081  1  0.392800  0.983900  0.850100  1.0
  C  C1082  1  0.607200  0.016100  0.350100  1.0
  C  C1083  1  0.516100  0.892800  0.100100  1.0
  C  C1084  1  0.483900  0.107200  0.600100  1.0
  C  C1085  1  0.107200  0.483900  0.399900  1.0
  C  C1086  1  0.892800  0.516100  0.899900  1.0
  C  C1087  1  0.983900  0.392800  0.149900  1.0
  C  C1088  1  0.016100  0.607200  0.649900  1.0
  C  C1089  1  0.460700  0.573800  0.760600  1.0
  C  C1090  1  0.539300  0.426200  0.260600  1.0
  C  C1091  1  0.926200  0.960700  0.010600  1.0
  C  C1092  1  0.073800  0.039300  0.510600  1.0
  C  C1093  1  0.039300  0.073800  0.489400  1.0
  C  C1094  1  0.960700  0.926200  0.989400  1.0
  C  C1095  1  0.573800  0.460700  0.239400  1.0
  C  C1096  1  0.426200  0.539300  0.739400  1.0
  C  C1097  1  0.016700  0.958500  0.770700  1.0
  C  C1098  1  0.983300  0.041500  0.270700  1.0
  C  C1099  1  0.541500  0.516700  0.020700  1.0
  C  C1100  1  0.458500  0.483300  0.520700  1.0
  C  C1101  1  0.483300  0.458500  0.479300  1.0
  C  C1102  1  0.516700  0.541500  0.979300  1.0
  C  C1103  1  0.958500  0.016700  0.229300  1.0
  C  C1104  1  0.041500  0.983300  0.729300  1.0
  C  C1105  1  0.523600  0.626300  0.802300  1.0
  C  C1106  1  0.476400  0.373700  0.302300  1.0
  C  C1107  1  0.873700  0.023600  0.052300  1.0
  C  C1108  1  0.126300  0.976400  0.552300  1.0
  C  C1109  1  0.976400  0.126300  0.447700  1.0
  C  C1110  1  0.023600  0.873700  0.947700  1.0
  C  C1111  1  0.626300  0.523600  0.197700  1.0
  C  C1112  1  0.373700  0.476400  0.697700  1.0
  C  C1113  1  0.464300  0.945700  0.909400  1.0
  C  C1114  1  0.535700  0.054300  0.409400  1.0
  C  C1115  1  0.554300  0.964300  0.159400  1.0
  C  C1116  1  0.445700  0.035700  0.659400  1.0
  C  C1117  1  0.035700  0.445700  0.340600  1.0
  C  C1118  1  0.964300  0.554300  0.840600  1.0
  C  C1119  1  0.945700  0.464300  0.090600  1.0
  C  C1120  1  0.054300  0.535700  0.590600  1.0
  C  C1121  1  0.531600  0.581500  0.789200  1.0
  C  C1122  1  0.468400  0.418500  0.289200  1.0
  C  C1123  1  0.918500  0.031600  0.039200  1.0
  C  C1124  1  0.081500  0.968400  0.539200  1.0
  C  C1125  1  0.968400  0.081500  0.460800  1.0
  C  C1126  1  0.031600  0.918500  0.960800  1.0
  C  C1127  1  0.581500  0.531600  0.210800  1.0
  C  C1128  1  0.418500  0.468400  0.710800  1.0
  C  C1129  1  0.017500  0.910200  0.833800  1.0
  C  C1130  1  0.982500  0.089800  0.333800  1.0
  C  C1131  1  0.589800  0.517500  0.083800  1.0
  C  C1132  1  0.410200  0.482500  0.583800  1.0
  C  C1133  1  0.482500  0.410200  0.416200  1.0
  C  C1134  1  0.517500  0.589800  0.916200  1.0
  C  C1135  1  0.910200  0.017500  0.166200  1.0
  C  C1136  1  0.089800  0.982500  0.666200  1.0
  C  C1137  1  0.981800  0.933300  0.845400  1.0
  C  C1138  1  0.018200  0.066700  0.345400  1.0
  C  C1139  1  0.566700  0.481800  0.095400  1.0
  C  C1140  1  0.433300  0.518200  0.595400  1.0
  C  C1141  1  0.518200  0.433300  0.404600  1.0
  C  C1142  1  0.481800  0.566700  0.904600  1.0
  C  C1143  1  0.933300  0.981800  0.154600  1.0
  C  C1144  1  0.066700  0.018200  0.654600  1.0
  C  C1145  1  0.481900  0.642900  0.793100  1.0
  C  C1146  1  0.518100  0.357100  0.293100  1.0
  C  C1147  1  0.857100  0.981900  0.043100  1.0
  C  C1148  1  0.142900  0.018100  0.543100  1.0
  C  C1149  1  0.018100  0.142900  0.456900  1.0
  C  C1150  1  0.981900  0.857100  0.956900  1.0
  C  C1151  1  0.642900  0.481900  0.206900  1.0
  C  C1152  1  0.357100  0.518100  0.706900  1.0
  C  C1153  1  0.449800  0.617500  0.772400  1.0
  C  C1154  1  0.550200  0.382500  0.272400  1.0
  C  C1155  1  0.882500  0.949800  0.022400  1.0
  C  C1156  1  0.117500  0.050200  0.522400  1.0
  C  C1157  1  0.050200  0.117500  0.477600  1.0
  C  C1158  1  0.949800  0.882500  0.977600  1.0
  C  C1159  1  0.617500  0.449800  0.227600  1.0
  C  C1160  1  0.382500  0.550200  0.727600  1.0
  N  N1161  1  0.658400  0.085500  0.458700  1
  N  N1162  1  0.341600  0.914500  0.958700  1
  N  N1163  1  0.414500  0.158400  0.708700  1
  N  N1164  1  0.585500  0.841600  0.208700  1
  N  N1165  1  0.841600  0.585500  0.791300  1
  N  N1166  1  0.158400  0.414500  0.291300  1
  N  N1167  1  0.085500  0.658400  0.541300  1
  N  N1168  1  0.914500  0.341600  0.041300  1
  N  N1169  1  0.884200  0.545800  0.606900  1
  N  N1170  1  0.115800  0.454200  0.106900  1
  N  N1171  1  0.954200  0.384200  0.856900  1
  N  N1172  1  0.045800  0.615800  0.356900  1
  N  N1173  1  0.615800  0.045800  0.643100  1
  N  N1174  1  0.384200  0.954200  0.143100  1
  N  N1175  1  0.545800  0.884200  0.393100  1
  N  N1176  1  0.454200  0.115800  0.893100  1
  N  N1177  1  0.048900  0.467100  0.730100  1
  N  N1178  1  0.951100  0.532900  0.230100  1
  N  N1179  1  0.032900  0.548900  0.980100  1
  N  N1180  1  0.967100  0.451100  0.480100  1
  N  N1181  1  0.451100  0.967100  0.519900  1
  N  N1182  1  0.548900  0.032900  0.019900  1
  N  N1183  1  0.467100  0.048900  0.269900  1
  N  N1184  1  0.532900  0.951100  0.769900  1
  N  N1185  1  0.572000  0.433500  0.950700  1
  N  N1186  1  0.428000  0.566500  0.450700  1
  N  N1187  1  0.066500  0.072000  0.200700  1
  N  N1188  1  0.933500  0.928000  0.700700  1
  N  N1189  1  0.928000  0.933500  0.299300  1
  N  N1190  1  0.072000  0.066500  0.799300  1
  N  N1191  1  0.433500  0.572000  0.049300  1
  N  N1192  1  0.566500  0.428000  0.549300  1
  N  N1193  1  0.529600  0.578100  0.673400  1
  N  N1194  1  0.470400  0.421900  0.173400  1
  N  N1195  1  0.921900  0.029600  0.923400  1
  N  N1196  1  0.078100  0.970400  0.423400  1
  N  N1197  1  0.970400  0.078100  0.576600  1
  N  N1198  1  0.029600  0.921900  0.076600  1
  N  N1199  1  0.578100  0.529600  0.326600  1
  N  N1200  1  0.421900  0.470400  0.826600  1
  N  N1201  1  0.517300  0.997000  0.872200  1.0
  N  N1202  1  0.482700  0.003000  0.372200  1.0
  N  N1203  1  0.503000  0.017300  0.122200  1.0
  N  N1204  1  0.497000  0.982700  0.622200  1.0
  N  N1205  1  0.982700  0.497000  0.377800  1.0
  N  N1206  1  0.017300  0.503000  0.877800  1.0
  N  N1207  1  0.997000  0.517300  0.127800  1.0
  N  N1208  1  0.003000  0.482700  0.627800  1.0
  N  N1209  1  0.454700  0.027900  0.820400  1.0
  N  N1210  1  0.545300  0.972100  0.320400  1.0
  N  N1211  1  0.472100  0.954700  0.070400  1.0
  N  N1212  1  0.527900  0.045300  0.570400  1.0
  N  N1213  1  0.045300  0.527900  0.429600  1.0
  N  N1214  1  0.954700  0.472100  0.929600  1.0
  N  N1215  1  0.027900  0.454700  0.179600  1.0
  N  N1216  1  0.972100  0.545300  0.679600  1.0
  N  N1217  1  0.585200  0.066700  0.842200  1.0
  N  N1218  1  0.414800  0.933300  0.342200  1.0
  N  N1219  1  0.433300  0.085200  0.092200  1.0
  N  N1220  1  0.566700  0.914800  0.592200  1.0
  N  N1221  1  0.914800  0.566700  0.407800  1.0
  N  N1222  1  0.085200  0.433300  0.907800  1.0
  N  N1223  1  0.066700  0.585200  0.157800  1.0
  N  N1224  1  0.933300  0.414800  0.657800  1.0
  N  N1225  1  0.520900  0.100100  0.782600  1.0
  N  N1226  1  0.479100  0.899900  0.282600  1.0
  N  N1227  1  0.399900  0.020900  0.032600  1.0
  N  N1228  1  0.600100  0.979100  0.532600  1.0
  N  N1229  1  0.979100  0.600100  0.467400  1.0
  N  N1230  1  0.020900  0.399900  0.967400  1.0
  N  N1231  1  0.100100  0.520900  0.217400  1.0
  N  N1232  1  0.899900  0.479100  0.717400  1.0
  N  N1233  1  0.756100  0.089100  0.852300  1.0
  N  N1234  1  0.243900  0.910900  0.352300  1.0
  N  N1235  1  0.410900  0.256100  0.102300  1.0
  N  N1236  1  0.589100  0.743900  0.602300  1.0
  N  N1237  1  0.743900  0.589100  0.397700  1.0
  N  N1238  1  0.256100  0.410900  0.897700  1.0
  N  N1239  1  0.089100  0.756100  0.147700  1.0
  N  N1240  1  0.910900  0.243900  0.647700  1.0
  N  N1241  1  0.530800  0.253900  0.710800  1.0
  N  N1242  1  0.469200  0.746100  0.210800  1.0
  N  N1243  1  0.246100  0.030800  0.960800  1.0
  N  N1244  1  0.753900  0.969200  0.460800  1.0
  N  N1245  1  0.969200  0.753900  0.539200  1.0
  N  N1246  1  0.030800  0.246100  0.039200  1.0
  N  N1247  1  0.253900  0.530800  0.289200  1.0
  N  N1248  1  0.746100  0.469200  0.789200  1.0
  N  N1249  1  0.559100  0.203100  0.656600  1.0
  N  N1250  1  0.440900  0.796900  0.156600  1.0
  N  N1251  1  0.296900  0.059100  0.906600  1.0
  N  N1252  1  0.703100  0.940900  0.406600  1.0
  N  N1253  1  0.940900  0.703100  0.593400  1.0
  N  N1254  1  0.059100  0.296900  0.093400  1.0
  N  N1255  1  0.203100  0.559100  0.343400  1.0
  N  N1256  1  0.796900  0.440900  0.843400  1.0
  N  N1257  1  0.559400  0.284100  0.643400  1.0
  N  N1258  1  0.440600  0.715900  0.143400  1.0
  N  N1259  1  0.215900  0.059400  0.893400  1.0
  N  N1260  1  0.784100  0.940600  0.393400  1.0
  N  N1261  1  0.940600  0.784100  0.606600  1.0
  N  N1262  1  0.059400  0.215900  0.106600  1.0
  N  N1263  1  0.284100  0.559400  0.356600  1.0
  N  N1264  1  0.715900  0.440600  0.856600  1.0
  N  N1265  1  0.516300  0.423800  0.727700  1.0
  N  N1266  1  0.483700  0.576200  0.227700  1.0
  N  N1267  1  0.076200  0.016300  0.977700  1.0
  N  N1268  1  0.923800  0.983700  0.477700  1.0
  N  N1269  1  0.983700  0.923800  0.522300  1.0
  N  N1270  1  0.016300  0.076200  0.022300  1.0
  N  N1271  1  0.423800  0.516300  0.272300  1.0
  N  N1272  1  0.576200  0.483700  0.772300  1.0
  N  N1273  1  0.782200  0.358900  0.985400  1.0
  N  N1274  1  0.217800  0.641100  0.485400  1.0
  N  N1275  1  0.141100  0.282200  0.235400  1.0
  N  N1276  1  0.858900  0.717800  0.735400  1.0
  N  N1277  1  0.717800  0.858900  0.264600  1.0
  N  N1278  1  0.282200  0.141100  0.764600  1.0
  N  N1279  1  0.358900  0.782200  0.014600  1.0
  N  N1280  1  0.641100  0.217800  0.514600  1.0
  N  N1281  1  0.809400  0.374800  0.078600  1.0
  N  N1282  1  0.190600  0.625200  0.578600  1.0
  N  N1283  1  0.125200  0.309400  0.328600  1.0
  N  N1284  1  0.874800  0.690600  0.828600  1.0
  N  N1285  1  0.690600  0.874800  0.171400  1.0
  N  N1286  1  0.309400  0.125200  0.671400  1.0
  N  N1287  1  0.374800  0.809400  0.921400  1.0
  N  N1288  1  0.625200  0.190600  0.421400  1.0
  N  N1289  1  0.815200  0.288000  0.093800  1.0
  N  N1290  1  0.184800  0.712000  0.593800  1.0
  N  N1291  1  0.212000  0.315200  0.343800  1.0
  N  N1292  1  0.788000  0.684800  0.843800  1.0
  N  N1293  1  0.684800  0.788000  0.156200  1.0
  N  N1294  1  0.315200  0.212000  0.656200  1.0
  N  N1295  1  0.288000  0.815200  0.906200  1.0
  N  N1296  1  0.712000  0.184800  0.406200  1.0
  N  N1297  1  0.786400  0.265100  0.002000  1.0
  N  N1298  1  0.213600  0.734900  0.502000  1.0
  N  N1299  1  0.234900  0.286400  0.252000  1.0
  N  N1300  1  0.765100  0.713600  0.752000  1.0
  N  N1301  1  0.713600  0.765100  0.248000  1.0
  N  N1302  1  0.286400  0.234900  0.748000  1.0
  N  N1303  1  0.265100  0.786400  0.998000  1.0
  N  N1304  1  0.734900  0.213600  0.498000  1.0
  N  N1305  1  0.804800  0.139900  0.892200  1.0
  N  N1306  1  0.195200  0.860100  0.392200  1.0
  N  N1307  1  0.360100  0.304800  0.142200  1.0
  N  N1308  1  0.639900  0.695200  0.642200  1.0
  N  N1309  1  0.695200  0.639900  0.357800  1.0
  N  N1310  1  0.304800  0.360100  0.857800  1.0
  N  N1311  1  0.139900  0.804800  0.107800  1.0
  N  N1312  1  0.860100  0.195200  0.607800  1.0
  N  N1313  1  0.724200  0.141700  0.904700  1.0
  N  N1314  1  0.275800  0.858300  0.404700  1.0
  N  N1315  1  0.358300  0.224200  0.154700  1.0
  N  N1316  1  0.641700  0.775800  0.654700  1.0
  N  N1317  1  0.775800  0.641700  0.345300  1.0
  N  N1318  1  0.224200  0.358300  0.845300  1.0
  N  N1319  1  0.141700  0.724200  0.095300  1.0
  N  N1320  1  0.858300  0.275800  0.595300  1.0
  N  N1321  1  0.909400  0.056600  0.788300  1.0
  N  N1322  1  0.090600  0.943400  0.288300  1.0
  N  N1323  1  0.443400  0.409400  0.038300  1.0
  N  N1324  1  0.556600  0.590600  0.538300  1.0
  N  N1325  1  0.590600  0.556600  0.461700  1.0
  N  N1326  1  0.409400  0.443400  0.961700  1.0
  N  N1327  1  0.056600  0.909400  0.211700  1.0
  N  N1328  1  0.943400  0.090600  0.711700  1.0
  N  N1329  1  0.982700  0.984500  0.786300  1.0
  N  N1330  1  0.017300  0.015500  0.286300  1.0
  N  N1331  1  0.515500  0.482700  0.036300  1.0
  N  N1332  1  0.484500  0.517300  0.536300  1.0
  N  N1333  1  0.517300  0.484500  0.463700  1.0
  N  N1334  1  0.482700  0.515500  0.963700  1.0
  N  N1335  1  0.984500  0.982700  0.213700  1.0
  N  N1336  1  0.015500  0.017300  0.713700  1.0
  N  N1337  1  0.499800  0.555300  0.768300  1.0
  N  N1338  1  0.500200  0.444700  0.268300  1.0
  N  N1339  1  0.944700  0.999800  0.018300  1.0
  N  N1340  1  0.055300  0.000200  0.518300  1.0
  N  N1341  1  0.000200  0.055300  0.481700  1.0
  N  N1342  1  0.999800  0.944700  0.981700  1.0
  N  N1343  1  0.555300  0.499800  0.231700  1.0
  N  N1344  1  0.444700  0.500200  0.731700  1.0
  O  O1345  1  0.765200  0.674100  0.449200  1
  O  O1346  1  0.234800  0.325900  0.949200  1
  O  O1347  1  0.825900  0.265200  0.699200  1
  O  O1348  1  0.174100  0.734800  0.199200  1
  O  O1349  1  0.734800  0.174100  0.800800  1
  O  O1350  1  0.265200  0.825900  0.300800  1
  O  O1351  1  0.674100  0.765200  0.550800  1
  O  O1352  1  0.325900  0.234800  0.050800  1
  O  O1353  1  0.845000  0.724500  0.554400  1
  O  O1354  1  0.155000  0.275500  0.054400  1
  O  O1355  1  0.775500  0.345000  0.804400  1
  O  O1356  1  0.224500  0.655000  0.304400  1
  O  O1357  1  0.655000  0.224500  0.695600  1
  O  O1358  1  0.345000  0.775500  0.195600  1
  O  O1359  1  0.724500  0.845000  0.445600  1
  O  O1360  1  0.275500  0.155000  0.945600  1
  O  O1361  1  0.856700  0.583400  0.519900  1
  O  O1362  1  0.143300  0.416600  0.019900  1
  O  O1363  1  0.916600  0.356700  0.769900  1
  O  O1364  1  0.083400  0.643300  0.269900  1
  O  O1365  1  0.643300  0.083400  0.730100  1
  O  O1366  1  0.356700  0.916600  0.230100  1
  O  O1367  1  0.583400  0.856700  0.480100  1
  O  O1368  1  0.416600  0.143300  0.980100  1
  O  O1369  1  0.860000  0.827800  0.538700  1
  O  O1370  1  0.140000  0.172200  0.038700  1
  O  O1371  1  0.672200  0.360000  0.788700  1
  O  O1372  1  0.327800  0.640000  0.288700  1
  O  O1373  1  0.640000  0.327800  0.711300  1
  O  O1374  1  0.360000  0.672200  0.211300  1
  O  O1375  1  0.827800  0.860000  0.461300  1
  O  O1376  1  0.172200  0.140000  0.961300  1
  O  O1377  1  0.792100  0.761200  0.641900  1
  O  O1378  1  0.207900  0.238800  0.141900  1
  O  O1379  1  0.738800  0.292100  0.891900  1
  O  O1380  1  0.261200  0.707900  0.391900  1
  O  O1381  1  0.707900  0.261200  0.608100  1
  O  O1382  1  0.292100  0.738800  0.108100  1
  O  O1383  1  0.761200  0.792100  0.358100  1
  O  O1384  1  0.238800  0.207900  0.858100  1
  O  O1385  1  0.870700  0.884300  0.661100  1
  O  O1386  1  0.129300  0.115700  0.161100  1
  O  O1387  1  0.615700  0.370700  0.911100  1
  O  O1388  1  0.384300  0.629300  0.411100  1
  O  O1389  1  0.629300  0.384300  0.588900  1
  O  O1390  1  0.370700  0.615700  0.088900  1
  O  O1391  1  0.884300  0.870700  0.338900  1
  O  O1392  1  0.115700  0.129300  0.838900  1
  O  O1393  1  0.662500  0.072300  0.420200  1
  O  O1394  1  0.337500  0.927700  0.920200  1
  O  O1395  1  0.427700  0.162500  0.670200  1
  O  O1396  1  0.572300  0.837500  0.170200  1
  O  O1397  1  0.837500  0.572300  0.829800  1
  O  O1398  1  0.162500  0.427700  0.329800  1
  O  O1399  1  0.072300  0.662500  0.579800  1
  O  O1400  1  0.927700  0.337500  0.079800  1
  O  O1401  1  0.691900  0.092800  0.481100  1
  O  O1402  1  0.308100  0.907200  0.981100  1
  O  O1403  1  0.407200  0.191900  0.731100  1
  O  O1404  1  0.592800  0.808100  0.231100  1
  O  O1405  1  0.808100  0.592800  0.768900  1
  O  O1406  1  0.191900  0.407200  0.268900  1
  O  O1407  1  0.092800  0.691900  0.518900  1
  O  O1408  1  0.907200  0.308100  0.018900  1
  O  O1409  1  0.619100  0.091400  0.473000  1
  O  O1410  1  0.380900  0.908600  0.973000  1
  O  O1411  1  0.408600  0.119100  0.723000  1
  O  O1412  1  0.591400  0.880900  0.223000  1
  O  O1413  1  0.880900  0.591400  0.777000  1
  O  O1414  1  0.119100  0.408600  0.277000  1
  O  O1415  1  0.091400  0.619100  0.527000  1
  O  O1416  1  0.908600  0.380900  0.027000  1
  O  O1417  1  0.918800  0.532500  0.584600  1
  O  O1418  1  0.081200  0.467500  0.084600  1
  O  O1419  1  0.967500  0.418800  0.834600  1
  O  O1420  1  0.032500  0.581200  0.334600  1
  O  O1421  1  0.581200  0.032500  0.665400  1
  O  O1422  1  0.418800  0.967500  0.165400  1
  O  O1423  1  0.532500  0.918800  0.415400  1
  O  O1424  1  0.467500  0.081200  0.915400  1
  O  O1425  1  0.882000  0.582300  0.627500  1
  O  O1426  1  0.118000  0.417700  0.127500  1
  O  O1427  1  0.917700  0.382000  0.877500  1
  O  O1428  1  0.082300  0.618000  0.377500  1
  O  O1429  1  0.618000  0.082300  0.622500  1
  O  O1430  1  0.382000  0.917700  0.122500  1
  O  O1431  1  0.582300  0.882000  0.372500  1
  O  O1432  1  0.417700  0.118000  0.872500  1
  O  O1433  1  0.847600  0.519500  0.605300  1
  O  O1434  1  0.152400  0.480500  0.105300  1
  O  O1435  1  0.980500  0.347600  0.855300  1
  O  O1436  1  0.019500  0.652400  0.355300  1
  O  O1437  1  0.652400  0.019500  0.644700  1
  O  O1438  1  0.347600  0.980500  0.144700  1
  O  O1439  1  0.519500  0.847600  0.394700  1
  O  O1440  1  0.480500  0.152400  0.894700  1
  O  O1441  1  0.024300  0.488600  0.756400  1
  O  O1442  1  0.975700  0.511400  0.256400  1
  O  O1443  1  0.011400  0.524300  0.006400  1
  O  O1444  1  0.988600  0.475700  0.506400  1
  O  O1445  1  0.475700  0.988600  0.493600  1
  O  O1446  1  0.524300  0.011400  0.993600  1
  O  O1447  1  0.488600  0.024300  0.243600  1
  O  O1448  1  0.511400  0.975700  0.743600  1
  O  O1449  1  0.077500  0.489900  0.710600  1
  O  O1450  1  0.922500  0.510100  0.210600  1
  O  O1451  1  0.010100  0.577500  0.960600  1
  O  O1452  1  0.989900  0.422500  0.460600  1
  O  O1453  1  0.422500  0.989900  0.539400  1
  O  O1454  1  0.577500  0.010100  0.039400  1
  O  O1455  1  0.489900  0.077500  0.289400  1
  O  O1456  1  0.510100  0.922500  0.789400  1
  O  O1457  1  0.035600  0.427200  0.723200  1
  O  O1458  1  0.964400  0.572800  0.223200  1
  O  O1459  1  0.072800  0.535600  0.973200  1
  O  O1460  1  0.927200  0.464400  0.473200  1
  O  O1461  1  0.464400  0.927200  0.526800  1
  O  O1462  1  0.535600  0.072800  0.026800  1
  O  O1463  1  0.427200  0.035600  0.276800  1
  O  O1464  1  0.572800  0.964400  0.776800  1
  O  O1465  1  0.606000  0.445800  0.973600  1
  O  O1466  1  0.394000  0.554200  0.473600  1
  O  O1467  1  0.054200  0.106000  0.223600  1
  O  O1468  1  0.945800  0.894000  0.723600  1
  O  O1469  1  0.894000  0.945800  0.276400  1
  O  O1470  1  0.106000  0.054200  0.776400  1
  O  O1471  1  0.445800  0.606000  0.026400  1
  O  O1472  1  0.554200  0.394000  0.526400  1
  O  O1473  1  0.563100  0.458400  0.920100  1
  O  O1474  1  0.436900  0.541600  0.420100  1
  O  O1475  1  0.041600  0.063100  0.170100  1
  O  O1476  1  0.958400  0.936900  0.670100  1
  O  O1477  1  0.936900  0.958400  0.329900  1
  O  O1478  1  0.063100  0.041600  0.829900  1
  O  O1479  1  0.458400  0.563100  0.079900  1
  O  O1480  1  0.541600  0.436900  0.579900  1
  O  O1481  1  0.535600  0.396200  0.953500  1
  O  O1482  1  0.464400  0.603800  0.453500  1
  O  O1483  1  0.103800  0.035600  0.203500  1
  O  O1484  1  0.896200  0.964400  0.703500  1
  O  O1485  1  0.964400  0.896200  0.296500  1
  O  O1486  1  0.035600  0.103800  0.796500  1
  O  O1487  1  0.396200  0.535600  0.046500  1
  O  O1488  1  0.603800  0.464400  0.546500  1
  O  O1489  1  0.555600  0.609200  0.689800  1
  O  O1490  1  0.444400  0.390800  0.189800  1
  O  O1491  1  0.890800  0.055600  0.939800  1
  O  O1492  1  0.109200  0.944400  0.439800  1
  O  O1493  1  0.944400  0.109200  0.560200  1
  O  O1494  1  0.055600  0.890800  0.060200  1
  O  O1495  1  0.609200  0.555600  0.310200  1
  O  O1496  1  0.390800  0.444400  0.810200  1
  O  O1497  1  0.495500  0.594000  0.658100  1
  O  O1498  1  0.504500  0.406000  0.158100  1
  O  O1499  1  0.906000  0.995500  0.908100  1
  O  O1500  1  0.094000  0.004500  0.408100  1
  O  O1501  1  0.004500  0.094000  0.591900  1
  O  O1502  1  0.995500  0.906000  0.091900  1
  O  O1503  1  0.594000  0.495500  0.341900  1
  O  O1504  1  0.406000  0.504500  0.841900  1
  O  O1505  1  0.547500  0.540000  0.664200  1
  O  O1506  1  0.452500  0.460000  0.164200  1
  O  O1507  1  0.960000  0.047500  0.914200  1
  O  O1508  1  0.040000  0.952500  0.414200  1
  O  O1509  1  0.952500  0.040000  0.585800  1
  O  O1510  1  0.047500  0.960000  0.085800  1
  O  O1511  1  0.540000  0.547500  0.335800  1
  O  O1512  1  0.460000  0.452500  0.835800  1
  O  O1513  1  0.568900  0.827400  0.878400  1
  O  O1514  1  0.431100  0.172600  0.378400  1
  O  O1515  1  0.672600  0.068900  0.128400  1
  O  O1516  1  0.327400  0.931100  0.628400  1
  O  O1517  1  0.931100  0.327400  0.371600  1
  O  O1518  1  0.068900  0.672600  0.871600  1
  O  O1519  1  0.827400  0.568900  0.121600  1
  O  O1520  1  0.172600  0.431100  0.621600  1
  O  O1521  1  0.758900  0.061800  0.410100  1
  O  O1522  1  0.241100  0.938200  0.910100  1
  O  O1523  1  0.438200  0.258900  0.660100  1
  O  O1524  1  0.561800  0.741100  0.160100  1
  O  O1525  1  0.741100  0.561800  0.839900  1
  O  O1526  1  0.258900  0.438200  0.339900  1
  O  O1527  1  0.061800  0.758900  0.589900  1
  O  O1528  1  0.938200  0.241100  0.089900  1
  O  O1529  1  0.644600  0.588800  0.713500  1
  O  O1530  1  0.355400  0.411200  0.213500  1
  O  O1531  1  0.911200  0.144600  0.963500  1
  O  O1532  1  0.088800  0.855400  0.463500  1
  O  O1533  1  0.855400  0.088800  0.536500  1
  O  O1534  1  0.144600  0.911200  0.036500  1
  O  O1535  1  0.588800  0.644600  0.286500  1
  O  O1536  1  0.411200  0.355400  0.786500  1
  O  O1537  1  0.842700  0.108100  0.447400  1
  O  O1538  1  0.157300  0.891900  0.947400  1
  O  O1539  1  0.391900  0.342700  0.697400  1
  O  O1540  1  0.608100  0.657300  0.197400  1
  O  O1541  1  0.657300  0.608100  0.802600  1
  O  O1542  1  0.342700  0.391900  0.302600  1
  O  O1543  1  0.108100  0.842700  0.552600  1
  O  O1544  1  0.891900  0.157300  0.052600  1
  O  O1545  1  0.022200  0.835800  0.388500  1
  O  O1546  1  0.977800  0.164200  0.888500  1
  O  O1547  1  0.664200  0.522200  0.638500  1
  O  O1548  1  0.335800  0.477800  0.138500  1
  O  O1549  1  0.477800  0.335800  0.861500  1
  O  O1550  1  0.522200  0.664200  0.361500  1
  O  O1551  1  0.835800  0.022200  0.611500  1
  O  O1552  1  0.164200  0.977800  0.111500  1
  O  O1553  1  0.597000  0.677000  0.728700  1
  O  O1554  1  0.403000  0.323000  0.228700  1
  O  O1555  1  0.823000  0.097000  0.978700  1
  O  O1556  1  0.177000  0.903000  0.478700  1
  O  O1557  1  0.903000  0.177000  0.521300  1
  O  O1558  1  0.097000  0.823000  0.021300  1
  O  O1559  1  0.677000  0.597000  0.271300  1
  O  O1560  1  0.323000  0.403000  0.771300  1
  O  O1561  1  0.587000  0.742200  0.754300  1
  O  O1562  1  0.413000  0.257800  0.254300  1
  O  O1563  1  0.757800  0.087000  0.004300  1
  O  O1564  1  0.242200  0.913000  0.504300  1
  O  O1565  1  0.913000  0.242200  0.495700  1
  O  O1566  1  0.087000  0.757800  0.995700  1
  O  O1567  1  0.742200  0.587000  0.245700  1
  O  O1568  1  0.257800  0.413000  0.745700  1
  O  O1569  1  0.299800  0.916000  0.068000  1
  O  O1570  1  0.700200  0.084000  0.568000  1
  O  O1571  1  0.584000  0.799800  0.318000  1
  O  O1572  1  0.416000  0.200200  0.818000  1
  O  O1573  1  0.200200  0.416000  0.182000  1
  O  O1574  1  0.799800  0.584000  0.682000  1
  O  O1575  1  0.916000  0.299800  0.932000  1
  O  O1576  1  0.084000  0.700200  0.432000  1
  O  O1577  1  0.615700  0.828200  0.766300  1
  O  O1578  1  0.384300  0.171800  0.266300  1
  O  O1579  1  0.671800  0.115700  0.016300  1
  O  O1580  1  0.328200  0.884300  0.516300  1
  O  O1581  1  0.884300  0.328200  0.483700  1
  O  O1582  1  0.115700  0.671800  0.983700  1
  O  O1583  1  0.828200  0.615700  0.233700  1
  O  O1584  1  0.171800  0.384300  0.733700  1
  O  O1585  1  0.033300  0.351300  0.780400  1
  O  O1586  1  0.966700  0.648700  0.280400  1
  O  O1587  1  0.148700  0.533300  0.030400  1
  O  O1588  1  0.851300  0.466700  0.530400  1
  O  O1589  1  0.466700  0.851300  0.469600  1
  O  O1590  1  0.533300  0.148700  0.969600  1
  O  O1591  1  0.351300  0.033300  0.219600  1
  O  O1592  1  0.648700  0.966700  0.719600  1
  O  O1593  1  0.001600  0.737100  0.249900  1
  O  O1594  1  0.998400  0.262900  0.749900  1
  O  O1595  1  0.762900  0.501600  0.499900  1
  O  O1596  1  0.237100  0.498400  0.999900  1
  O  O1597  1  0.498400  0.237100  0.000100  1
  O  O1598  1  0.501600  0.762900  0.500100  1
  O  O1599  1  0.737100  0.001600  0.750100  1
  O  O1600  1  0.262900  0.998400  0.250100  1
  O  O1601  1  0.797100  0.142300  0.054900  1
  O  O1602  1  0.202900  0.857700  0.554900  1
  O  O1603  1  0.357700  0.297100  0.304900  1
  O  O1604  1  0.642300  0.702900  0.804900  1
  O  O1605  1  0.702900  0.642300  0.195100  1
  O  O1606  1  0.297100  0.357700  0.695100  1
  O  O1607  1  0.142300  0.797100  0.945100  1
  O  O1608  1  0.857700  0.202900  0.445100  1
  O  O1609  1  0.683600  0.877600  0.725900  1
  O  O1610  1  0.316400  0.122400  0.225900  1
  O  O1611  1  0.622400  0.183600  0.975900  1
  O  O1612  1  0.377600  0.816400  0.475900  1
  O  O1613  1  0.816400  0.377600  0.524100  1
  O  O1614  1  0.183600  0.622400  0.024100  1
  O  O1615  1  0.877600  0.683600  0.274100  1
  O  O1616  1  0.122400  0.316400  0.774100  1
  O  O1617  1  0.973800  0.146400  0.181000  1
  O  O1618  1  0.026200  0.853600  0.681000  1
  O  O1619  1  0.353600  0.473800  0.431000  1
  O  O1620  1  0.646400  0.526200  0.931000  1
  O  O1621  1  0.526200  0.646400  0.069000  1
  O  O1622  1  0.473800  0.353600  0.569000  1
  O  O1623  1  0.146400  0.973800  0.819000  1
  O  O1624  1  0.853600  0.026200  0.319000  1
  O  O1625  1  0.973200  0.242400  0.163700  1
  O  O1626  1  0.026800  0.757600  0.663700  1
  O  O1627  1  0.257600  0.473200  0.413700  1
  O  O1628  1  0.742400  0.526800  0.913700  1
  O  O1629  1  0.526800  0.742400  0.086300  1
  O  O1630  1  0.473200  0.257600  0.586300  1
  O  O1631  1  0.242400  0.973200  0.836300  1
  O  O1632  1  0.757600  0.026800  0.336300  1
  O  O1633  1  0.954700  0.210700  0.925400  1
  O  O1634  1  0.045300  0.789300  0.425400  1
  O  O1635  1  0.289300  0.454700  0.175400  1
  O  O1636  1  0.710700  0.545300  0.675400  1
  O  O1637  1  0.545300  0.710700  0.324600  1
  O  O1638  1  0.454700  0.289300  0.824600  1
  O  O1639  1  0.210700  0.954700  0.074600  1
  O  O1640  1  0.789300  0.045300  0.574600  1
  O  O1641  1  0.993900  0.808200  0.312200  1
  O  O1642  1  0.006100  0.191800  0.812200  1
  O  O1643  1  0.691800  0.493900  0.562200  1
  O  O1644  1  0.308200  0.506100  0.062200  1
  O  O1645  1  0.506100  0.308200  0.937800  1
  O  O1646  1  0.493900  0.691800  0.437800  1
  O  O1647  1  0.808200  0.993900  0.687800  1
  O  O1648  1  0.191800  0.006100  0.187800  1
  O  O1649  1  0.603900  0.892200  0.837000  1
  O  O1650  1  0.396100  0.107800  0.337000  1
  O  O1651  1  0.607800  0.103900  0.087000  1
  O  O1652  1  0.392200  0.896100  0.587000  1
  O  O1653  1  0.896100  0.392200  0.413000  1
  O  O1654  1  0.103900  0.607800  0.913000  1
  O  O1655  1  0.892200  0.603900  0.163000  1
  O  O1656  1  0.107800  0.396100  0.663000  1
  O  O1657  1  0.886400  0.095700  0.375300  1
  O  O1658  1  0.113600  0.904300  0.875300  1
  O  O1659  1  0.404300  0.386400  0.625300  1
  O  O1660  1  0.595700  0.613600  0.125300  1
  O  O1661  1  0.613600  0.595700  0.874700  1
  O  O1662  1  0.386400  0.404300  0.374700  1
  O  O1663  1  0.095700  0.886400  0.624700  1
  O  O1664  1  0.904300  0.113600  0.124700  1
  O  O1665  1  0.527100  0.701500  0.683900  1
  O  O1666  1  0.472900  0.298500  0.183900  1
  O  O1667  1  0.798500  0.027100  0.933900  1
  O  O1668  1  0.201500  0.972900  0.433900  1
  O  O1669  1  0.972900  0.201500  0.566100  1
  O  O1670  1  0.027100  0.798500  0.066100  1
  O  O1671  1  0.701500  0.527100  0.316100  1
  O  O1672  1  0.298500  0.472900  0.816100  1
  O  O1673  1  0.685800  0.451900  0.038200  1
  O  O1674  1  0.314200  0.548100  0.538200  1
  O  O1675  1  0.048100  0.185800  0.288200  1
  O  O1676  1  0.951900  0.814200  0.788200  1
  O  O1677  1  0.814200  0.951900  0.211800  1
  O  O1678  1  0.185800  0.048100  0.711800  1
  O  O1679  1  0.451900  0.685800  0.961800  1
  O  O1680  1  0.548100  0.314200  0.461800  1
  O  O1681  1  0.701500  0.496000  0.104200  1
  O  O1682  1  0.298500  0.504000  0.604200  1
  O  O1683  1  0.004000  0.201500  0.354200  1
  O  O1684  1  0.996000  0.798500  0.854200  1
  O  O1685  1  0.798500  0.996000  0.145800  1
  O  O1686  1  0.201500  0.004000  0.645800  1
  O  O1687  1  0.496000  0.701500  0.895800  1
  O  O1688  1  0.504000  0.298500  0.395800  1
  O  O1689  1  0.502600  0.838500  0.676100  1
  O  O1690  1  0.497400  0.161500  0.176100  1
  O  O1691  1  0.661500  0.002600  0.926100  1
  O  O1692  1  0.338500  0.997400  0.426100  1
  O  O1693  1  0.997400  0.338500  0.573900  1
  O  O1694  1  0.002600  0.661500  0.073900  1
  O  O1695  1  0.838500  0.502600  0.323900  1
  O  O1696  1  0.161500  0.497400  0.823900  1
  O  O1697  1  0.880400  0.372200  0.251000  1
  O  O1698  1  0.119600  0.627800  0.751000  1
  O  O1699  1  0.127800  0.380400  0.501000  1
  O  O1700  1  0.872200  0.619600  0.001000  1
  O  O1701  1  0.619600  0.872200  0.999000  1
  O  O1702  1  0.380400  0.127800  0.499000  1
  O  O1703  1  0.372200  0.880400  0.749000  1
  O  O1704  1  0.627800  0.119600  0.249000  1
  O  O1705  1  0.784000  0.368000  0.446000  1
  O  O1706  1  0.216000  0.632000  0.946000  1
  O  O1707  1  0.132000  0.284000  0.696000  1
  O  O1708  1  0.868000  0.716000  0.196000  1
  O  O1709  1  0.716000  0.868000  0.804000  1
  O  O1710  1  0.284000  0.132000  0.304000  1
  O  O1711  1  0.368000  0.784000  0.554000  1
  O  O1712  1  0.632000  0.216000  0.054000  1
  O  O1713  1  0.740200  0.808000  0.851300  1
  O  O1714  1  0.259800  0.192000  0.351300  1
  O  O1715  1  0.692000  0.240200  0.101300  1
  O  O1716  1  0.308000  0.759800  0.601300  1
  O  O1717  1  0.759800  0.308000  0.398700  1
  O  O1718  1  0.240200  0.692000  0.898700  1
  O  O1719  1  0.808000  0.740200  0.148700  1
  O  O1720  1  0.192000  0.259800  0.648700  1
  O  O1721  1  0.341500  0.392800  0.483500  1
  O  O1722  1  0.658500  0.607200  0.983500  1
  O  O1723  1  0.107200  0.841500  0.733500  1
  O  O1724  1  0.892800  0.158500  0.233500  1
  O  O1725  1  0.158500  0.892800  0.766500  1
  O  O1726  1  0.841500  0.107200  0.266500  1
  O  O1727  1  0.392800  0.341500  0.516500  1
  O  O1728  1  0.607200  0.658500  0.016500  1
  O  O1729  1  0.868000  0.940000  0.880100  1
  O  O1730  1  0.132000  0.060000  0.380100  1
  O  O1731  1  0.560000  0.368000  0.130100  1
  O  O1732  1  0.440000  0.632000  0.630100  1
  O  O1733  1  0.632000  0.440000  0.369900  1
  O  O1734  1  0.368000  0.560000  0.869900  1
  O  O1735  1  0.940000  0.868000  0.119900  1
  O  O1736  1  0.060000  0.132000  0.619900  1
  O  O1737  1  0.850000  0.912200  0.782200  1
  O  O1738  1  0.150000  0.087800  0.282200  1
  O  O1739  1  0.587800  0.350000  0.032200  1
  O  O1740  1  0.412200  0.650000  0.532200  1
  O  O1741  1  0.650000  0.412200  0.467800  1
  O  O1742  1  0.350000  0.587800  0.967800  1
  O  O1743  1  0.912200  0.850000  0.217800  1
  O  O1744  1  0.087800  0.150000  0.717800  1
  O  O1745  1  0.876000  0.445000  0.239000  1
  O  O1746  1  0.124000  0.555000  0.739000  1
  O  O1747  1  0.055000  0.376000  0.489000  1
  O  O1748  1  0.945000  0.624000  0.989000  1
  O  O1749  1  0.624000  0.945000  0.011000  1
  O  O1750  1  0.376000  0.055000  0.511000  1
  O  O1751  1  0.445000  0.876000  0.761000  1
  O  O1752  1  0.555000  0.124000  0.261000  1
  O  O1753  1  0.758200  0.527300  0.165500  1
  O  O1754  1  0.241800  0.472700  0.665500  1
  O  O1755  1  0.972700  0.258200  0.415500  1
  O  O1756  1  0.027300  0.741800  0.915500  1
  O  O1757  1  0.741800  0.027300  0.084500  1
  O  O1758  1  0.258200  0.972700  0.584500  1
  O  O1759  1  0.527300  0.758200  0.834500  1
  O  O1760  1  0.472700  0.241800  0.334500  1
  O  O1761  1  0.738000  0.393000  0.229800  1
  O  O1762  1  0.262000  0.607000  0.729800  1
  O  O1763  1  0.107000  0.238000  0.479800  1
  O  O1764  1  0.893000  0.762000  0.979800  1
  O  O1765  1  0.762000  0.893000  0.020200  1
  O  O1766  1  0.238000  0.107000  0.520200  1
  O  O1767  1  0.393000  0.738000  0.770200  1
  O  O1768  1  0.607000  0.262000  0.270200  1
  O  O1769  1  0.766500  0.463600  0.219000  1
  O  O1770  1  0.233500  0.536400  0.719000  1
  O  O1771  1  0.036400  0.266500  0.469000  1
  O  O1772  1  0.963600  0.733500  0.969000  1
  O  O1773  1  0.733500  0.963600  0.031000  1
  O  O1774  1  0.266500  0.036400  0.531000  1
  O  O1775  1  0.463600  0.766500  0.781000  1
  O  O1776  1  0.536400  0.233500  0.281000  1
  O  O1777  1  0.947100  0.739300  0.165400  1
  O  O1778  1  0.052900  0.260700  0.665400  1
  O  O1779  1  0.760700  0.447100  0.415400  1
  O  O1780  1  0.239300  0.552900  0.915400  1
  O  O1781  1  0.552900  0.239300  0.084600  1
  O  O1782  1  0.447100  0.760700  0.584600  1
  O  O1783  1  0.739300  0.947100  0.834600  1
  O  O1784  1  0.260700  0.052900  0.334600  1
  O  O1785  1  0.596700  0.678900  0.881900  1
  O  O1786  1  0.403300  0.321100  0.381900  1
  O  O1787  1  0.821100  0.096700  0.131900  1
  O  O1788  1  0.178900  0.903300  0.631900  1
  O  O1789  1  0.903300  0.178900  0.368100  1
  O  O1790  1  0.096700  0.821100  0.868100  1
  O  O1791  1  0.678900  0.596700  0.118100  1
  O  O1792  1  0.321100  0.403300  0.618100  1
  O  O1793  1  0.607500  0.679200  0.942400  1
  O  O1794  1  0.392500  0.320800  0.442400  1
  O  O1795  1  0.820800  0.107500  0.192400  1
  O  O1796  1  0.179200  0.892500  0.692400  1
  O  O1797  1  0.892500  0.179200  0.307600  1
  O  O1798  1  0.107500  0.820800  0.807600  1
  O  O1799  1  0.679200  0.607500  0.057600  1
  O  O1800  1  0.320800  0.392500  0.557600  1
  O  O1801  1  0.936100  0.327600  0.275600  1
  O  O1802  1  0.063900  0.672400  0.775600  1
  O  O1803  1  0.172400  0.436100  0.525600  1
  O  O1804  1  0.827600  0.563900  0.025600  1
  O  O1805  1  0.563900  0.827600  0.974400  1
  O  O1806  1  0.436100  0.172400  0.474400  1
  O  O1807  1  0.327600  0.936100  0.724400  1
  O  O1808  1  0.672400  0.063900  0.224400  1
  O  O1809  1  0.821900  0.809600  0.813500  1
  O  O1810  1  0.178100  0.190400  0.313500  1
  O  O1811  1  0.690400  0.321900  0.063500  1
  O  O1812  1  0.309600  0.678100  0.563500  1
  O  O1813  1  0.678100  0.309600  0.436500  1
  O  O1814  1  0.321900  0.690400  0.936500  1
  O  O1815  1  0.809600  0.821900  0.186500  1
  O  O1816  1  0.190400  0.178100  0.686500  1
  O  O1817  1  0.001900  0.272200  0.249500  1
  O  O1818  1  0.998100  0.727800  0.749500  1
  O  O1819  1  0.227800  0.501900  0.499500  1
  O  O1820  1  0.772200  0.498100  0.999500  1
  O  O1821  1  0.498100  0.772200  0.000500  1
  O  O1822  1  0.501900  0.227800  0.500500  1
  O  O1823  1  0.272200  0.001900  0.750500  1
  O  O1824  1  0.727800  0.998100  0.250500  1
  O  O1825  1  0.806600  0.090600  0.467500  1
  O  O1826  1  0.193400  0.909400  0.967500  1
  O  O1827  1  0.409400  0.306600  0.717500  1
  O  O1828  1  0.590600  0.693400  0.217500  1
  O  O1829  1  0.693400  0.590600  0.782500  1
  O  O1830  1  0.306600  0.409400  0.282500  1
  O  O1831  1  0.090600  0.806600  0.532500  1
  O  O1832  1  0.909400  0.193400  0.032500  1
  O  O1833  1  0.582600  0.827900  0.740100  1
  O  O1834  1  0.417400  0.172100  0.240100  1
  O  O1835  1  0.672100  0.082600  0.990100  1
  O  O1836  1  0.327900  0.917400  0.490100  1
  O  O1837  1  0.917400  0.327900  0.509900  1
  O  O1838  1  0.082600  0.672100  0.009900  1
  O  O1839  1  0.827900  0.582600  0.259900  1
  O  O1840  1  0.172100  0.417400  0.759900  1
  O  O1841  1  0.988400  0.722900  0.227000  1
  O  O1842  1  0.011600  0.277100  0.727000  1
  O  O1843  1  0.777100  0.488400  0.477000  1
  O  O1844  1  0.222900  0.511600  0.977000  1
  O  O1845  1  0.511600  0.222900  0.023000  1
  O  O1846  1  0.488400  0.777100  0.523000  1
  O  O1847  1  0.722900  0.988400  0.773000  1
  O  O1848  1  0.277100  0.011600  0.273000  1
  O  O1849  1  0.567700  0.510100  0.644900  1
  O  O1850  1  0.432300  0.489900  0.144900  1
  O  O1851  1  0.989900  0.067700  0.894900  1
  O  O1852  1  0.010100  0.932300  0.394900  1
  O  O1853  1  0.932300  0.010100  0.605100  1
  O  O1854  1  0.067700  0.989900  0.105100  1
  O  O1855  1  0.510100  0.567700  0.355100  1
  O  O1856  1  0.489900  0.432300  0.855100  1
