# generated using pymatgen
data_Mn10Pd12C308(N11O13)9
_symmetry_space_group_name_H-M   'P 1'
_cell_length_a   24.32250000
_cell_length_b   45.71840000
_cell_length_c   46.66450000
_cell_angle_alpha   90.00000000
_cell_angle_beta   99.54010000
_cell_angle_gamma   90.00000000
_symmetry_Int_Tables_number   1
_chemical_formula_structural   Mn10Pd12C308(N11O13)9
_chemical_formula_sum   'Mn40 Pd48 C1232 N396 O468'
_cell_volume   51172.61037202
_cell_formula_units_Z   4
loop_
 _symmetry_equiv_pos_site_id
 _symmetry_equiv_pos_as_xyz
  1  'x, y, z'
loop_
 _atom_site_type_symbol
 _atom_site_label
 _atom_site_symmetry_multiplicity
 _atom_site_fract_x
 _atom_site_fract_y
 _atom_site_fract_z
 _atom_site_occupancy
  Mn  Mn1  1  0.019700  0.589020  0.092920  1
  Mn  Mn2  1  0.980300  0.089020  0.407080  1
  Mn  Mn3  1  0.980300  0.410980  0.907080  1
  Mn  Mn4  1  0.019700  0.910980  0.592920  1
  Mn  Mn5  1  0.945900  0.712710  0.110370  1
  Mn  Mn6  1  0.054100  0.212710  0.389630  1
  Mn  Mn7  1  0.054100  0.287290  0.889630  1
  Mn  Mn8  1  0.945900  0.787290  0.610370  1
  Mn  Mn9  1  0.986900  0.735300  0.987300  1
  Mn  Mn10  1  0.013100  0.235300  0.512700  1
  Mn  Mn11  1  0.013100  0.264700  0.012700  1
  Mn  Mn12  1  0.986900  0.764700  0.487300  1
  Mn  Mn13  1  0.626100  0.928300  0.284000  1
  Mn  Mn14  1  0.373900  0.428300  0.216000  1
  Mn  Mn15  1  0.373900  0.071700  0.716000  1
  Mn  Mn16  1  0.626100  0.571700  0.784000  1
  Mn  Mn17  1  0.701300  0.807300  0.251500  1
  Mn  Mn18  1  0.298700  0.307300  0.248500  1
  Mn  Mn19  1  0.298700  0.192700  0.748500  1
  Mn  Mn20  1  0.701300  0.692700  0.751500  1
  Mn  Mn21  1  0.448600  0.783300  0.214600  1
  Mn  Mn22  1  0.551400  0.283300  0.285400  1
  Mn  Mn23  1  0.551400  0.216700  0.785400  1
  Mn  Mn24  1  0.448600  0.716700  0.714600  1
  Mn  Mn25  1  0.193700  0.739000  0.142700  1
  Mn  Mn26  1  0.806300  0.239000  0.357300  1
  Mn  Mn27  1  0.806300  0.261000  0.857300  1
  Mn  Mn28  1  0.193700  0.761000  0.642700  1
  Mn  Mn29  1  0.621000  0.922300  0.298400  1
  Mn  Mn30  1  0.379000  0.422300  0.201600  1
  Mn  Mn31  1  0.379000  0.077700  0.701600  1
  Mn  Mn32  1  0.621000  0.577700  0.798400  1
  Mn  Mn33  1  0.672400  0.768500  0.374800  1
  Mn  Mn34  1  0.327600  0.268500  0.125200  1
  Mn  Mn35  1  0.327600  0.231500  0.625200  1
  Mn  Mn36  1  0.672400  0.731500  0.874800  1
  Mn  Mn37  1  0.677400  0.796200  0.221300  1
  Mn  Mn38  1  0.322600  0.296200  0.278700  1
  Mn  Mn39  1  0.322600  0.203800  0.778700  1
  Mn  Mn40  1  0.677400  0.703800  0.721300  1
  Pd  Pd41  1  0.854920  0.951260  0.205340  1
  Pd  Pd42  1  0.145080  0.451260  0.294660  1
  Pd  Pd43  1  0.145080  0.048740  0.794660  1
  Pd  Pd44  1  0.854920  0.548740  0.705340  1
  Pd  Pd45  1  0.576550  0.718530  0.100280  1
  Pd  Pd46  1  0.423450  0.218530  0.399720  1
  Pd  Pd47  1  0.423450  0.281470  0.899720  1
  Pd  Pd48  1  0.576550  0.781470  0.600280  1
  Pd  Pd49  1  0.316000  0.933620  0.201500  1
  Pd  Pd50  1  0.684000  0.433620  0.298500  1
  Pd  Pd51  1  0.684000  0.066380  0.798500  1
  Pd  Pd52  1  0.316000  0.566380  0.701500  1
  Pd  Pd53  1  0.653630  0.923770  0.446580  1
  Pd  Pd54  1  0.346370  0.423770  0.053420  1
  Pd  Pd55  1  0.346370  0.076230  0.553420  1
  Pd  Pd56  1  0.653630  0.576230  0.946580  1
  Pd  Pd57  1  0.917430  0.704010  0.350770  1
  Pd  Pd58  1  0.082570  0.204010  0.149230  1
  Pd  Pd59  1  0.082570  0.295990  0.649230  1
  Pd  Pd60  1  0.917430  0.795990  0.850770  1
  Pd  Pd61  1  0.379500  0.685100  0.344340  1
  Pd  Pd62  1  0.620500  0.185100  0.155660  1
  Pd  Pd63  1  0.620500  0.314900  0.655660  1
  Pd  Pd64  1  0.379500  0.814900  0.844340  1
  Pd  Pd65  1  0.777460  0.582290  0.167940  1
  Pd  Pd66  1  0.222540  0.082290  0.332060  1
  Pd  Pd67  1  0.222540  0.417710  0.832060  1
  Pd  Pd68  1  0.777460  0.917710  0.667940  1
  Pd  Pd69  1  0.321960  0.579810  0.187180  1
  Pd  Pd70  1  0.678040  0.079810  0.312820  1
  Pd  Pd71  1  0.678040  0.420190  0.812820  1
  Pd  Pd72  1  0.321960  0.920190  0.687180  1
  Pd  Pd73  1  0.066130  0.818520  0.251030  1
  Pd  Pd74  1  0.933870  0.318520  0.248970  1
  Pd  Pd75  1  0.933870  0.181480  0.748970  1
  Pd  Pd76  1  0.066130  0.681480  0.751030  1
  Pd  Pd77  1  0.742580  0.813640  0.997990  1
  Pd  Pd78  1  0.257420  0.313640  0.502010  1
  Pd  Pd79  1  0.257420  0.186360  0.002010  1
  Pd  Pd80  1  0.742580  0.686360  0.497990  1
  Pd  Pd81  1  0.284420  0.805650  0.013890  1
  Pd  Pd82  1  0.715580  0.305650  0.486110  1
  Pd  Pd83  1  0.715580  0.194350  0.986110  1
  Pd  Pd84  1  0.284420  0.694350  0.513890  1
  Pd  Pd85  1  0.991750  0.570190  0.933450  1
  Pd  Pd86  1  0.008250  0.070190  0.566550  1
  Pd  Pd87  1  0.008250  0.429810  0.066550  1
  Pd  Pd88  1  0.991750  0.929810  0.433450  1
  C  C89  1  0.779100  0.906900  0.177500  1
  C  C90  1  0.220900  0.406900  0.322500  1
  C  C91  1  0.220900  0.093100  0.822500  1
  C  C92  1  0.779100  0.593100  0.677500  1
  C  C93  1  0.731000  0.891800  0.168400  1
  C  C94  1  0.269000  0.391800  0.331600  1
  C  C95  1  0.269000  0.108200  0.831600  1
  C  C96  1  0.731000  0.608200  0.668400  1
  C  C97  1  0.682900  0.902600  0.174400  1
  C  C98  1  0.317100  0.402600  0.325600  1
  C  C99  1  0.317100  0.097400  0.825600  1
  C  C100  1  0.682900  0.597400  0.674400  1
  C  C101  1  0.682200  0.928700  0.187700  1
  C  C102  1  0.317800  0.428700  0.312300  1
  C  C103  1  0.317800  0.071300  0.812300  1
  C  C104  1  0.682200  0.571300  0.687700  1
  C  C105  1  0.734400  0.942700  0.196400  1
  C  C106  1  0.265600  0.442700  0.303600  1
  C  C107  1  0.265600  0.057300  0.803600  1
  C  C108  1  0.734400  0.557300  0.696400  1
  C  C109  1  0.529300  0.775000  0.114600  1
  C  C110  1  0.470700  0.275000  0.385400  1
  C  C111  1  0.470700  0.225000  0.885400  1
  C  C112  1  0.529300  0.725000  0.614600  1
  C  C113  1  0.527700  0.802500  0.124500  1
  C  C114  1  0.472300  0.302500  0.375500  1
  C  C115  1  0.472300  0.197500  0.875500  1
  C  C116  1  0.527700  0.697500  0.624500  1
  C  C117  1  0.577700  0.818400  0.131800  1
  C  C118  1  0.422300  0.318400  0.368200  1
  C  C119  1  0.422300  0.181600  0.868200  1
  C  C120  1  0.577700  0.681600  0.631800  1
  C  C121  1  0.627400  0.805300  0.126300  1
  C  C122  1  0.372600  0.305300  0.373700  1
  C  C123  1  0.372600  0.194700  0.873700  1
  C  C124  1  0.627400  0.694700  0.626300  1
  C  C125  1  0.624100  0.776900  0.115300  1
  C  C126  1  0.375900  0.276900  0.384700  1
  C  C127  1  0.375900  0.223100  0.884700  1
  C  C128  1  0.624100  0.723100  0.615300  1
  C  C129  1  0.433700  0.933400  0.193000  1
  C  C130  1  0.566300  0.433400  0.307000  1
  C  C131  1  0.566300  0.066600  0.807000  1
  C  C132  1  0.433700  0.566600  0.693000  1
  C  C133  1  0.483100  0.923400  0.186000  1
  C  C134  1  0.516900  0.423400  0.314000  1
  C  C135  1  0.516900  0.076600  0.814000  1
  C  C136  1  0.483100  0.576600  0.686000  1
  C  C137  1  0.483100  0.896100  0.171600  1
  C  C138  1  0.516900  0.396100  0.328400  1
  C  C139  1  0.516900  0.103900  0.828400  1
  C  C140  1  0.483100  0.603900  0.671600  1
  C  C141  1  0.430800  0.881500  0.164300  1
  C  C142  1  0.569200  0.381500  0.335700  1
  C  C143  1  0.569200  0.118500  0.835700  1
  C  C144  1  0.430800  0.618500  0.664300  1
  C  C145  1  0.383600  0.893300  0.172100  1
  C  C146  1  0.616400  0.393300  0.327900  1
  C  C147  1  0.616400  0.106700  0.827900  1
  C  C148  1  0.383600  0.606700  0.672100  1
  C  C149  1  0.833500  0.941200  0.266100  1
  C  C150  1  0.166500  0.441200  0.233900  1
  C  C151  1  0.166500  0.058800  0.733900  1
  C  C152  1  0.833500  0.558800  0.766100  1
  C  C153  1  0.828100  0.925900  0.289900  1
  C  C154  1  0.171900  0.425900  0.210100  1
  C  C155  1  0.171900  0.074100  0.710100  1
  C  C156  1  0.828100  0.574100  0.789900  1
  C  C157  1  0.843800  0.897100  0.292200  1
  C  C158  1  0.156200  0.397100  0.207800  1
  C  C159  1  0.156200  0.102900  0.707800  1
  C  C160  1  0.843800  0.602900  0.792200  1
  C  C161  1  0.864500  0.884700  0.269300  1
  C  C162  1  0.135500  0.384700  0.230700  1
  C  C163  1  0.135500  0.115300  0.730700  1
  C  C164  1  0.864500  0.615300  0.769300  1
  C  C165  1  0.868200  0.900600  0.245900  1
  C  C166  1  0.131800  0.400600  0.254100  1
  C  C167  1  0.131800  0.099400  0.754100  1
  C  C168  1  0.868200  0.599400  0.745900  1
  C  C169  1  0.729000  0.881900  0.424100  1
  C  C170  1  0.271000  0.381900  0.075900  1
  C  C171  1  0.271000  0.118100  0.575900  1
  C  C172  1  0.729000  0.618100  0.924100  1
  C  C173  1  0.762900  0.869900  0.405200  1
  C  C174  1  0.237100  0.369900  0.094800  1
  C  C175  1  0.237100  0.130100  0.594800  1
  C  C176  1  0.762900  0.630100  0.905200  1
  C  C177  1  0.771800  0.886800  0.381500  1
  C  C178  1  0.228200  0.386800  0.118500  1
  C  C179  1  0.228200  0.113200  0.618500  1
  C  C180  1  0.771800  0.613200  0.881500  1
  C  C181  1  0.750300  0.913300  0.378200  1
  C  C182  1  0.249700  0.413300  0.121800  1
  C  C183  1  0.249700  0.086700  0.621800  1
  C  C184  1  0.750300  0.586700  0.878200  1
  C  C185  1  0.717200  0.925200  0.397900  1
  C  C186  1  0.282800  0.425200  0.102100  1
  C  C187  1  0.282800  0.074800  0.602100  1
  C  C188  1  0.717200  0.574800  0.897900  1
  C  C189  1  0.906000  0.764600  0.326200  1
  C  C190  1  0.094000  0.264600  0.173800  1
  C  C191  1  0.094000  0.235400  0.673800  1
  C  C192  1  0.906000  0.735400  0.826200  1
  C  C193  1  0.889600  0.793000  0.323200  1
  C  C194  1  0.110400  0.293000  0.176800  1
  C  C195  1  0.110400  0.207000  0.676800  1
  C  C196  1  0.889600  0.707000  0.823200  1
  C  C197  1  0.867100  0.806200  0.344500  1
  C  C198  1  0.132900  0.306200  0.155500  1
  C  C199  1  0.132900  0.193800  0.655500  1
  C  C200  1  0.867100  0.693800  0.844500  1
  C  C201  1  0.862500  0.787200  0.368400  1
  C  C202  1  0.137500  0.287200  0.131600  1
  C  C203  1  0.137500  0.212800  0.631600  1
  C  C204  1  0.862500  0.712800  0.868400  1
  C  C205  1  0.875300  0.758500  0.369500  1
  C  C206  1  0.124700  0.258500  0.130500  1
  C  C207  1  0.124700  0.241500  0.630500  1
  C  C208  1  0.875300  0.741500  0.869500  1
  C  C209  1  0.639200  0.711900  0.159700  1
  C  C210  1  0.360800  0.211900  0.340300  1
  C  C211  1  0.360800  0.288100  0.840300  1
  C  C212  1  0.639200  0.788100  0.659700  1
  C  C213  1  0.648800  0.708900  0.188600  1
  C  C214  1  0.351200  0.208900  0.311400  1
  C  C215  1  0.351200  0.291100  0.811400  1
  C  C216  1  0.648800  0.791100  0.688600  1
  C  C217  1  0.605200  0.703700  0.204000  1
  C  C218  1  0.394800  0.203700  0.296000  1
  C  C219  1  0.394800  0.296300  0.796000  1
  C  C220  1  0.605200  0.796300  0.704000  1
  C  C221  1  0.553500  0.701800  0.188300  1
  C  C222  1  0.446500  0.201800  0.311700  1
  C  C223  1  0.446500  0.298200  0.811700  1
  C  C224  1  0.553500  0.798200  0.688300  1
  C  C225  1  0.545100  0.706400  0.158600  1
  C  C226  1  0.454900  0.206400  0.341400  1
  C  C227  1  0.454900  0.293600  0.841400  1
  C  C228  1  0.545100  0.793600  0.658600  1
  C  C229  1  0.793600  0.694200  0.340300  1
  C  C230  1  0.206400  0.194200  0.159700  1
  C  C231  1  0.206400  0.305800  0.659700  1
  C  C232  1  0.793600  0.805800  0.840300  1
  C  C233  1  0.741100  0.694000  0.325600  1
  C  C234  1  0.258900  0.194000  0.174400  1
  C  C235  1  0.258900  0.306000  0.674400  1
  C  C236  1  0.741100  0.806000  0.825600  1
  C  C237  1  0.732500  0.696400  0.295400  1
  C  C238  1  0.267500  0.196400  0.204600  1
  C  C239  1  0.267500  0.303600  0.704600  1
  C  C240  1  0.732500  0.803600  0.795400  1
  C  C241  1  0.778900  0.699700  0.281700  1
  C  C242  1  0.221100  0.199700  0.218300  1
  C  C243  1  0.221100  0.300300  0.718300  1
  C  C244  1  0.778900  0.800300  0.781700  1
  C  C245  1  0.832300  0.700100  0.298400  1
  C  C246  1  0.167700  0.200100  0.201600  1
  C  C247  1  0.167700  0.299900  0.701600  1
  C  C248  1  0.832300  0.799900  0.798400  1
  C  C249  1  0.436400  0.686200  0.293600  1
  C  C250  1  0.563600  0.186200  0.206400  1
  C  C251  1  0.563600  0.313800  0.706400  1
  C  C252  1  0.436400  0.813800  0.793600  1
  C  C253  1  0.481400  0.689600  0.279100  1
  C  C254  1  0.518600  0.189600  0.220900  1
  C  C255  1  0.518600  0.310400  0.720900  1
  C  C256  1  0.481400  0.810400  0.779100  1
  C  C257  1  0.533900  0.689500  0.292900  1
  C  C258  1  0.466100  0.189500  0.207100  1
  C  C259  1  0.466100  0.310500  0.707100  1
  C  C260  1  0.533900  0.810500  0.792900  1
  C  C261  1  0.542600  0.686200  0.322100  1
  C  C262  1  0.457400  0.186200  0.177900  1
  C  C263  1  0.457400  0.313800  0.677900  1
  C  C264  1  0.542600  0.813800  0.822100  1
  C  C265  1  0.495800  0.683500  0.336300  1
  C  C266  1  0.504200  0.183500  0.163700  1
  C  C267  1  0.504200  0.316500  0.663700  1
  C  C268  1  0.495800  0.816500  0.836300  1
  C  C269  1  0.331200  0.882400  0.241700  1
  C  C270  1  0.668800  0.382400  0.258300  1
  C  C271  1  0.668800  0.117600  0.758300  1
  C  C272  1  0.331200  0.617600  0.741700  1
  C  C273  1  0.353100  0.865700  0.264600  1
  C  C274  1  0.646900  0.365700  0.235400  1
  C  C275  1  0.646900  0.134300  0.735400  1
  C  C276  1  0.353100  0.634300  0.764600  1
  C  C277  1  0.388300  0.878700  0.286300  1
  C  C278  1  0.611700  0.378700  0.213700  1
  C  C279  1  0.611700  0.121300  0.713700  1
  C  C280  1  0.388300  0.621300  0.786300  1
  C  C281  1  0.404000  0.907800  0.284100  1
  C  C282  1  0.596000  0.407800  0.215900  1
  C  C283  1  0.596000  0.092200  0.715900  1
  C  C284  1  0.404000  0.592200  0.784100  1
  C  C285  1  0.379900  0.922700  0.260700  1
  C  C286  1  0.620100  0.422700  0.239300  1
  C  C287  1  0.620100  0.077300  0.739300  1
  C  C288  1  0.379900  0.577300  0.760700  1
  C  C289  1  0.421900  0.743300  0.365100  1
  C  C290  1  0.578100  0.243300  0.134900  1
  C  C291  1  0.578100  0.256700  0.634900  1
  C  C292  1  0.421900  0.756700  0.865100  1
  C  C293  1  0.435800  0.771800  0.364300  1
  C  C294  1  0.564200  0.271800  0.135700  1
  C  C295  1  0.564200  0.228200  0.635700  1
  C  C296  1  0.435800  0.728200  0.864300  1
  C  C297  1  0.413700  0.789000  0.340800  1
  C  C298  1  0.586300  0.289000  0.159200  1
  C  C299  1  0.586300  0.211000  0.659200  1
  C  C300  1  0.413700  0.711000  0.840800  1
  C  C301  1  0.373700  0.774400  0.319000  1
  C  C302  1  0.626300  0.274400  0.181000  1
  C  C303  1  0.626300  0.225600  0.681000  1
  C  C304  1  0.373700  0.725600  0.819000  1
  C  C305  1  0.365000  0.744800  0.321600  1
  C  C306  1  0.635000  0.244800  0.178400  1
  C  C307  1  0.635000  0.255200  0.678400  1
  C  C308  1  0.365000  0.755200  0.821600  1
  C  C309  1  0.570400  0.917100  0.395700  1
  C  C310  1  0.429600  0.417100  0.104300  1
  C  C311  1  0.429600  0.082900  0.604300  1
  C  C312  1  0.570400  0.582900  0.895700  1
  C  C313  1  0.528700  0.903600  0.374100  1
  C  C314  1  0.471300  0.403600  0.125900  1
  C  C315  1  0.471300  0.096400  0.625900  1
  C  C316  1  0.528700  0.596400  0.874100  1
  C  C317  1  0.514900  0.874400  0.378900  1
  C  C318  1  0.485100  0.374400  0.121100  1
  C  C319  1  0.485100  0.125600  0.621100  1
  C  C320  1  0.514900  0.625600  0.878900  1
  C  C321  1  0.539900  0.859800  0.403500  1
  C  C322  1  0.460100  0.359800  0.096500  1
  C  C323  1  0.460100  0.140200  0.596500  1
  C  C324  1  0.539900  0.640200  0.903500  1
  C  C325  1  0.579800  0.874500  0.423200  1
  C  C326  1  0.420200  0.374500  0.076800  1
  C  C327  1  0.420200  0.125500  0.576800  1
  C  C328  1  0.579800  0.625500  0.923200  1
  C  C329  1  0.625400  0.886800  0.165700  1
  C  C330  1  0.374600  0.386800  0.334300  1
  C  C331  1  0.374600  0.113200  0.834300  1
  C  C332  1  0.625400  0.613200  0.665700  1
  C  C333  1  0.580700  0.847100  0.145100  1
  C  C334  1  0.419300  0.347100  0.354900  1
  C  C335  1  0.419300  0.152900  0.854900  1
  C  C336  1  0.580700  0.652900  0.645100  1
  C  C337  1  0.534500  0.883500  0.165000  1
  C  C338  1  0.465500  0.383500  0.335000  1
  C  C339  1  0.465500  0.116500  0.835000  1
  C  C340  1  0.534500  0.616500  0.665000  1
  C  C341  1  0.836100  0.878500  0.317400  1
  C  C342  1  0.163900  0.378500  0.182600  1
  C  C343  1  0.163900  0.121500  0.682600  1
  C  C344  1  0.836100  0.621500  0.817400  1
  C  C345  1  0.802000  0.874100  0.360100  1
  C  C346  1  0.198000  0.374100  0.139900  1
  C  C347  1  0.198000  0.125900  0.639900  1
  C  C348  1  0.802000  0.625900  0.860100  1
  C  C349  1  0.847900  0.836000  0.342600  1
  C  C350  1  0.152100  0.336000  0.157400  1
  C  C351  1  0.152100  0.164000  0.657400  1
  C  C352  1  0.847900  0.664000  0.842600  1
  C  C353  1  0.616300  0.699600  0.235300  1
  C  C354  1  0.383700  0.199600  0.264700  1
  C  C355  1  0.383700  0.300400  0.764700  1
  C  C356  1  0.616300  0.800400  0.735300  1
  C  C357  1  0.674800  0.696400  0.278500  1
  C  C358  1  0.325200  0.196400  0.221500  1
  C  C359  1  0.325200  0.303600  0.721500  1
  C  C360  1  0.674800  0.803600  0.778500  1
  C  C361  1  0.581200  0.691900  0.276800  1
  C  C362  1  0.418800  0.191900  0.223200  1
  C  C363  1  0.418800  0.308100  0.723200  1
  C  C364  1  0.581200  0.808100  0.776800  1
  C  C365  1  0.417200  0.860000  0.313300  1
  C  C366  1  0.582800  0.360000  0.186700  1
  C  C367  1  0.582800  0.140000  0.686700  1
  C  C368  1  0.417200  0.640000  0.813300  1
  C  C369  1  0.425500  0.819600  0.337900  1
  C  C370  1  0.574500  0.319600  0.162100  1
  C  C371  1  0.574500  0.180400  0.662100  1
  C  C372  1  0.425500  0.680400  0.837900  1
  C  C373  1  0.472900  0.859200  0.354500  1
  C  C374  1  0.527100  0.359200  0.145500  1
  C  C375  1  0.527100  0.140800  0.645500  1
  C  C376  1  0.472900  0.640800  0.854500  1
  C  C377  1  0.805000  0.990600  0.160600  1
  C  C378  1  0.195000  0.490600  0.339400  1
  C  C379  1  0.195000  0.009400  0.839400  1
  C  C380  1  0.805000  0.509400  0.660600  1
  C  C381  1  0.856200  0.954600  0.141600  1
  C  C382  1  0.143800  0.454600  0.358400  1
  C  C383  1  0.143800  0.045400  0.858400  1
  C  C384  1  0.856200  0.545400  0.641600  1
  C  C385  1  0.906900  0.991900  0.172700  1
  C  C386  1  0.093100  0.491900  0.327300  1
  C  C387  1  0.093100  0.008100  0.827300  1
  C  C388  1  0.906900  0.508100  0.672700  1
  C  C389  1  0.945300  0.986100  0.195700  1
  C  C390  1  0.054700  0.486100  0.304300  1
  C  C391  1  0.054700  0.013900  0.804300  1
  C  C392  1  0.945300  0.513900  0.695700  1
  C  C393  1  0.971700  0.948000  0.229400  1
  C  C394  1  0.028300  0.448000  0.270600  1
  C  C395  1  0.028300  0.052000  0.770600  1
  C  C396  1  0.971700  0.552000  0.729400  1
  C  C397  1  0.924900  0.990300  0.242500  1
  C  C398  1  0.075100  0.490300  0.257500  1
  C  C399  1  0.075100  0.009700  0.757500  1
  C  C400  1  0.924900  0.509700  0.742500  1
  C  C401  1  0.521600  0.662100  0.093100  1
  C  C402  1  0.478400  0.162100  0.406900  1
  C  C403  1  0.478400  0.337900  0.906900  1
  C  C404  1  0.521600  0.837900  0.593100  1
  C  C405  1  0.620700  0.658200  0.108100  1
  C  C406  1  0.379300  0.158200  0.391900  1
  C  C407  1  0.379300  0.341800  0.891900  1
  C  C408  1  0.620700  0.841800  0.608100  1
  C  C409  1  0.587400  0.673300  0.060200  1
  C  C410  1  0.412600  0.173300  0.439800  1
  C  C411  1  0.412600  0.326700  0.939800  1
  C  C412  1  0.587400  0.826700  0.560200  1
  C  C413  1  0.554500  0.695800  0.043000  1
  C  C414  1  0.445500  0.195800  0.457000  1
  C  C415  1  0.445500  0.304200  0.957000  1
  C  C416  1  0.554500  0.804200  0.543000  1
  C  C417  1  0.621500  0.735400  0.048900  1
  C  C418  1  0.378500  0.235400  0.451100  1
  C  C419  1  0.378500  0.264600  0.951100  1
  C  C420  1  0.621500  0.764600  0.548900  1
  C  C421  1  0.526400  0.745800  0.044800  1
  C  C422  1  0.473600  0.245800  0.455200  1
  C  C423  1  0.473600  0.254200  0.955200  1
  C  C424  1  0.526400  0.754200  0.544800  1
  C  C425  1  0.266500  0.936900  0.138700  1
  C  C426  1  0.733500  0.436900  0.361300  1
  C  C427  1  0.733500  0.063100  0.861300  1
  C  C428  1  0.266500  0.563100  0.638700  1
  C  C429  1  0.329900  0.977600  0.157200  1
  C  C430  1  0.670100  0.477600  0.342800  1
  C  C431  1  0.670100  0.022400  0.842800  1
  C  C432  1  0.329900  0.522400  0.657200  1
  C  C433  1  0.242100  0.974500  0.171700  1
  C  C434  1  0.757900  0.474500  0.328300  1
  C  C435  1  0.757900  0.025500  0.828300  1
  C  C436  1  0.242100  0.525500  0.671700  1
  C  C437  1  0.214500  0.962700  0.188600  1
  C  C438  1  0.785500  0.462700  0.311400  1
  C  C439  1  0.785500  0.037300  0.811400  1
  C  C440  1  0.214500  0.537300  0.688600  1
  C  C441  1  0.212800  0.925100  0.227200  1
  C  C442  1  0.787200  0.425100  0.272800  1
  C  C443  1  0.787200  0.074900  0.772800  1
  C  C444  1  0.212800  0.574900  0.727200  1
  C  C445  1  0.262800  0.967300  0.242700  1
  C  C446  1  0.737200  0.467300  0.257300  1
  C  C447  1  0.737200  0.032700  0.757300  1
  C  C448  1  0.262800  0.532700  0.742700  1
  C  C449  1  0.756900  0.925400  0.487000  1
  C  C450  1  0.243100  0.425400  0.013000  1
  C  C451  1  0.243100  0.074600  0.513000  1
  C  C452  1  0.756900  0.574600  0.987000  1
  C  C453  1  0.738500  0.969800  0.459700  1
  C  C454  1  0.261500  0.469800  0.040300  1
  C  C455  1  0.261500  0.030200  0.540300  1
  C  C456  1  0.738500  0.530200  0.959700  1
  C  C457  1  0.688700  0.958500  0.495000  1
  C  C458  1  0.311300  0.458500  0.005000  1
  C  C459  1  0.311300  0.041500  0.505000  1
  C  C460  1  0.688700  0.541500  0.995000  1
  C  C461  1  0.635600  0.959800  0.494200  1
  C  C462  1  0.364400  0.459800  0.005800  1
  C  C463  1  0.364400  0.040200  0.505800  1
  C  C464  1  0.635600  0.540200  0.994200  1
  C  C465  1  0.571500  0.914700  0.485500  1
  C  C466  1  0.428500  0.414700  0.014500  1
  C  C467  1  0.428500  0.085300  0.514500  1
  C  C468  1  0.571500  0.585300  0.985500  1
  C  C469  1  0.556400  0.959000  0.456600  1
  C  C470  1  0.443600  0.459000  0.043400  1
  C  C471  1  0.443600  0.041000  0.543400  1
  C  C472  1  0.556400  0.541000  0.956600  1
  C  C473  1  0.896000  0.642000  0.365100  1
  C  C474  1  0.104000  0.142000  0.134900  1
  C  C475  1  0.104000  0.358000  0.634900  1
  C  C476  1  0.896000  0.858000  0.865100  1
  C  C477  1  0.936300  0.648300  0.324000  1
  C  C478  1  0.063700  0.148300  0.176000  1
  C  C479  1  0.063700  0.351700  0.676000  1
  C  C480  1  0.936300  0.851700  0.824000  1
  C  C481  1  0.990400  0.656900  0.373700  1
  C  C482  1  0.009600  0.156900  0.126300  1
  C  C483  1  0.009600  0.343100  0.626300  1
  C  C484  1  0.990400  0.843100  0.873700  1
  C  C485  1  0.023900  0.680400  0.375100  1
  C  C486  1  0.976100  0.180400  0.124900  1
  C  C487  1  0.976100  0.319600  0.624900  1
  C  C488  1  0.023900  0.819600  0.875100  1
  C  C489  1  0.030000  0.730400  0.360200  1
  C  C490  1  0.970000  0.230400  0.139800  1
  C  C491  1  0.970000  0.269600  0.639800  1
  C  C492  1  0.030000  0.769600  0.860200  1
  C  C493  1  0.992200  0.723100  0.404300  1
  C  C494  1  0.007800  0.223100  0.095700  1
  C  C495  1  0.007800  0.276900  0.595700  1
  C  C496  1  0.992200  0.776900  0.904300  1
  C  C497  1  0.418200  0.626000  0.362200  1
  C  C498  1  0.581800  0.126000  0.137800  1
  C  C499  1  0.581800  0.374000  0.637800  1
  C  C500  1  0.418200  0.874000  0.862200  1
  C  C501  1  0.361100  0.630300  0.313900  1
  C  C502  1  0.638900  0.130300  0.186100  1
  C  C503  1  0.638900  0.369700  0.686100  1
  C  C504  1  0.361100  0.869700  0.813900  1
  C  C505  1  0.315000  0.636600  0.355300  1
  C  C506  1  0.685000  0.136600  0.144700  1
  C  C507  1  0.685000  0.363400  0.644700  1
  C  C508  1  0.315000  0.863400  0.855300  1
  C  C509  1  0.303900  0.657400  0.374200  1
  C  C510  1  0.696100  0.157400  0.125800  1
  C  C511  1  0.696100  0.342600  0.625800  1
  C  C512  1  0.303900  0.842600  0.874200  1
  C  C513  1  0.264100  0.699400  0.349100  1
  C  C514  1  0.735900  0.199400  0.150900  1
  C  C515  1  0.735900  0.300600  0.650900  1
  C  C516  1  0.264100  0.800600  0.849100  1
  C  C517  1  0.323300  0.703600  0.393000  1
  C  C518  1  0.676700  0.203600  0.107000  1
  C  C519  1  0.676700  0.296400  0.607000  1
  C  C520  1  0.323300  0.796400  0.893000  1
  C  C521  1  0.900900  0.587300  0.176600  1
  C  C522  1  0.099100  0.087300  0.323400  1
  C  C523  1  0.099100  0.412700  0.823400  1
  C  C524  1  0.900900  0.912700  0.676600  1
  C  C525  1  0.953700  0.600600  0.183200  1
  C  C526  1  0.046300  0.100600  0.316800  1
  C  C527  1  0.046300  0.399400  0.816800  1
  C  C528  1  0.953700  0.899400  0.683200  1
  C  C529  1  0.956400  0.628900  0.193300  1
  C  C530  1  0.043600  0.128900  0.306700  1
  C  C531  1  0.043600  0.371100  0.806700  1
  C  C532  1  0.956400  0.871100  0.693300  1
  C  C533  1  0.904700  0.643700  0.195000  1
  C  C534  1  0.095300  0.143700  0.305000  1
  C  C535  1  0.095300  0.356300  0.805000  1
  C  C536  1  0.904700  0.856300  0.695000  1
  C  C537  1  0.857000  0.629300  0.188300  1
  C  C538  1  0.143000  0.129300  0.311700  1
  C  C539  1  0.143000  0.370700  0.811700  1
  C  C540  1  0.857000  0.870700  0.688300  1
  C  C541  1  0.253300  0.627600  0.204200  1
  C  C542  1  0.746700  0.127600  0.295800  1
  C  C543  1  0.746700  0.372400  0.795800  1
  C  C544  1  0.253300  0.872400  0.704200  1
  C  C545  1  0.206700  0.642700  0.207500  1
  C  C546  1  0.793300  0.142700  0.292500  1
  C  C547  1  0.793300  0.357300  0.792500  1
  C  C548  1  0.206700  0.857300  0.707500  1
  C  C549  1  0.156200  0.628700  0.203600  1
  C  C550  1  0.843800  0.128700  0.296400  1
  C  C551  1  0.843800  0.371300  0.796400  1
  C  C552  1  0.156200  0.871300  0.703600  1
  C  C553  1  0.154900  0.599300  0.196500  1
  C  C554  1  0.845100  0.099300  0.303500  1
  C  C555  1  0.845100  0.400700  0.803500  1
  C  C556  1  0.154900  0.900700  0.696500  1
  C  C557  1  0.203500  0.584400  0.193200  1
  C  C558  1  0.796500  0.084400  0.306800  1
  C  C559  1  0.796500  0.415600  0.806800  1
  C  C560  1  0.203500  0.915600  0.693200  1
  C  C561  1  0.017000  0.761400  0.233300  1
  C  C562  1  0.983000  0.261400  0.266700  1
  C  C563  1  0.983000  0.238600  0.766700  1
  C  C564  1  0.017000  0.738600  0.733300  1
  C  C565  1  0.014100  0.732000  0.224400  1
  C  C566  1  0.985900  0.232000  0.275600  1
  C  C567  1  0.985900  0.268000  0.775600  1
  C  C568  1  0.014100  0.768000  0.724400  1
  C  C569  1  0.061600  0.715900  0.223600  1
  C  C570  1  0.938400  0.215900  0.276400  1
  C  C571  1  0.938400  0.284100  0.776400  1
  C  C572  1  0.061600  0.784100  0.723600  1
  C  C573  1  0.111100  0.730700  0.232500  1
  C  C574  1  0.888900  0.230700  0.267500  1
  C  C575  1  0.888900  0.269300  0.767500  1
  C  C576  1  0.111100  0.769300  0.732500  1
  C  C577  1  0.113100  0.759200  0.240600  1
  C  C578  1  0.886900  0.259200  0.259400  1
  C  C579  1  0.886900  0.240800  0.759400  1
  C  C580  1  0.113100  0.740800  0.740600  1
  C  C581  1  0.763500  0.629100  0.122300  1
  C  C582  1  0.236500  0.129100  0.377700  1
  C  C583  1  0.236500  0.370900  0.877700  1
  C  C584  1  0.763500  0.870900  0.622300  1
  C  C585  1  0.772300  0.642900  0.097700  1
  C  C586  1  0.227700  0.142900  0.402300  1
  C  C587  1  0.227700  0.357100  0.902300  1
  C  C588  1  0.772300  0.857100  0.597700  1
  C  C589  1  0.795300  0.627600  0.077500  1
  C  C590  1  0.204700  0.127600  0.422500  1
  C  C591  1  0.204700  0.372400  0.922500  1
  C  C592  1  0.795300  0.872400  0.577500  1
  C  C593  1  0.810500  0.599000  0.082600  1
  C  C594  1  0.189500  0.099000  0.417400  1
  C  C595  1  0.189500  0.401000  0.917400  1
  C  C596  1  0.810500  0.901000  0.582600  1
  C  C597  1  0.801900  0.585400  0.108700  1
  C  C598  1  0.198100  0.085400  0.391300  1
  C  C599  1  0.198100  0.414600  0.891300  1
  C  C600  1  0.801900  0.914600  0.608700  1
  C  C601  1  0.779700  0.753600  0.985500  1
  C  C602  1  0.220300  0.253600  0.514500  1
  C  C603  1  0.220300  0.246400  0.014500  1
  C  C604  1  0.779700  0.746400  0.485500  1
  C  C605  1  0.796100  0.726400  0.989600  1
  C  C606  1  0.203900  0.226400  0.510400  1
  C  C607  1  0.203900  0.273600  0.010400  1
  C  C608  1  0.796100  0.773600  0.489600  1
  C  C609  1  0.787800  0.711300  0.014800  1
  C  C610  1  0.212200  0.211300  0.485200  1
  C  C611  1  0.212200  0.288700  0.985200  1
  C  C612  1  0.787800  0.788700  0.514800  1
  C  C613  1  0.762800  0.728300  0.034400  1
  C  C614  1  0.237200  0.228300  0.465600  1
  C  C615  1  0.237200  0.271700  0.965600  1
  C  C616  1  0.762800  0.771700  0.534400  1
  C  C617  1  0.748600  0.757100  0.028600  1
  C  C618  1  0.251400  0.257100  0.471400  1
  C  C619  1  0.251400  0.242900  0.971400  1
  C  C620  1  0.748600  0.742900  0.528600  1
  C  C621  1  0.928200  0.581100  0.980100  1
  C  C622  1  0.071800  0.081100  0.519900  1
  C  C623  1  0.071800  0.418900  0.019900  1
  C  C624  1  0.928200  0.918900  0.480100  1
  C  C625  1  0.897700  0.596200  0.998300  1
  C  C626  1  0.102300  0.096200  0.501700  1
  C  C627  1  0.102300  0.403800  0.001700  1
  C  C628  1  0.897700  0.903800  0.498300  1
  C  C629  1  0.877800  0.623500  0.990800  1
  C  C630  1  0.122200  0.123500  0.509200  1
  C  C631  1  0.122200  0.376500  0.009200  1
  C  C632  1  0.877800  0.876500  0.490800  1
  C  C633  1  0.887900  0.634900  0.964800  1
  C  C634  1  0.112100  0.134900  0.535200  1
  C  C635  1  0.112100  0.365100  0.035200  1
  C  C636  1  0.887900  0.865100  0.464800  1
  C  C637  1  0.918800  0.617700  0.947800  1
  C  C638  1  0.081200  0.117700  0.552200  1
  C  C639  1  0.081200  0.382300  0.052200  1
  C  C640  1  0.918800  0.882300  0.447800  1
  C  C641  1  0.263400  0.581100  0.126500  1
  C  C642  1  0.736600  0.081100  0.373500  1
  C  C643  1  0.736600  0.418900  0.873500  1
  C  C644  1  0.263400  0.918900  0.626500  1
  C  C645  1  0.240100  0.594300  0.099600  1
  C  C646  1  0.759900  0.094300  0.400400  1
  C  C647  1  0.759900  0.405700  0.900400  1
  C  C648  1  0.240100  0.905700  0.599600  1
  C  C649  1  0.253300  0.621800  0.094300  1
  C  C650  1  0.746700  0.121800  0.405700  1
  C  C651  1  0.746700  0.378200  0.905700  1
  C  C652  1  0.253300  0.878200  0.594300  1
  C  C653  1  0.290100  0.636600  0.113600  1
  C  C654  1  0.709900  0.136600  0.386400  1
  C  C655  1  0.709900  0.363400  0.886400  1
  C  C656  1  0.290100  0.863400  0.613600  1
  C  C657  1  0.311700  0.622700  0.140200  1
  C  C658  1  0.688300  0.122700  0.359800  1
  C  C659  1  0.688300  0.377300  0.859800  1
  C  C660  1  0.311700  0.877300  0.640200  1
  C  C661  1  0.071600  0.616200  0.954200  1
  C  C662  1  0.928400  0.116200  0.545800  1
  C  C663  1  0.928400  0.383800  0.045800  1
  C  C664  1  0.071600  0.883800  0.454200  1
  C  C665  1  0.111900  0.632800  0.974700  1
  C  C666  1  0.888100  0.132800  0.525300  1
  C  C667  1  0.888100  0.367200  0.025300  1
  C  C668  1  0.111900  0.867200  0.474700  1
  C  C669  1  0.132200  0.619300  0.001000  1
  C  C670  1  0.867800  0.119300  0.499000  1
  C  C671  1  0.867800  0.380700  0.999000  1
  C  C672  1  0.132200  0.880700  0.501000  1
  C  C673  1  0.116300  0.591300  0.006600  1
  C  C674  1  0.883700  0.091300  0.493400  1
  C  C675  1  0.883700  0.408700  0.993400  1
  C  C676  1  0.116300  0.908700  0.506600  1
  C  C677  1  0.076500  0.576100  0.985700  1
  C  C678  1  0.923500  0.076100  0.514300  1
  C  C679  1  0.923500  0.423900  0.014300  1
  C  C680  1  0.076500  0.923900  0.485700  1
  C  C681  1  0.290900  0.748800  0.045900  1
  C  C682  1  0.709100  0.248800  0.454100  1
  C  C683  1  0.709100  0.251200  0.954100  1
  C  C684  1  0.290900  0.751200  0.545900  1
  C  C685  1  0.276500  0.720600  0.050700  1
  C  C686  1  0.723500  0.220600  0.449300  1
  C  C687  1  0.723500  0.279400  0.949300  1
  C  C688  1  0.276500  0.779400  0.550700  1
  C  C689  1  0.239400  0.706100  0.031500  1
  C  C690  1  0.760600  0.206100  0.468500  1
  C  C691  1  0.760600  0.293900  0.968500  1
  C  C692  1  0.239400  0.793900  0.531500  1
  C  C693  1  0.213500  0.720400  0.005700  1
  C  C694  1  0.786500  0.220400  0.494300  1
  C  C695  1  0.786500  0.279600  0.994300  1
  C  C696  1  0.213500  0.779600  0.505700  1
  C  C697  1  0.228000  0.747800  0.000600  1
  C  C698  1  0.772000  0.247800  0.499400  1
  C  C699  1  0.772000  0.252200  0.999400  1
  C  C700  1  0.228000  0.752200  0.500600  1
  C  C701  1  0.166300  0.815900  0.017800  1
  C  C702  1  0.833700  0.315900  0.482200  1
  C  C703  1  0.833700  0.184100  0.982200  1
  C  C704  1  0.166300  0.684100  0.517800  1
  C  C705  1  0.118800  0.819100  0.029700  1
  C  C706  1  0.881200  0.319100  0.470300  1
  C  C707  1  0.881200  0.180900  0.970300  1
  C  C708  1  0.118800  0.680900  0.529700  1
  C  C709  1  0.123400  0.822600  0.060400  1
  C  C710  1  0.876600  0.322600  0.439600  1
  C  C711  1  0.876600  0.177400  0.939600  1
  C  C712  1  0.123400  0.677400  0.560400  1
  C  C713  1  0.176900  0.823000  0.075200  1
  C  C714  1  0.823100  0.323000  0.424800  1
  C  C715  1  0.823100  0.177000  0.924800  1
  C  C716  1  0.176900  0.677000  0.575200  1
  C  C717  1  0.221700  0.819500  0.061500  1
  C  C718  1  0.778300  0.319500  0.438500  1
  C  C719  1  0.778300  0.180500  0.938500  1
  C  C720  1  0.221700  0.680500  0.561500  1
  C  C721  1  0.826100  0.821800  0.050800  1
  C  C722  1  0.173900  0.321800  0.449200  1
  C  C723  1  0.173900  0.178200  0.949200  1
  C  C724  1  0.826100  0.678200  0.550800  1
  C  C725  1  0.877600  0.824700  0.067300  1
  C  C726  1  0.122400  0.324700  0.432700  1
  C  C727  1  0.122400  0.175300  0.932700  1
  C  C728  1  0.877600  0.675300  0.567300  1
  C  C729  1  0.925300  0.824300  0.054400  1
  C  C730  1  0.074700  0.324300  0.445600  1
  C  C731  1  0.074700  0.175700  0.945600  1
  C  C732  1  0.925300  0.675700  0.554400  1
  C  C733  1  0.916900  0.821700  0.023900  1
  C  C734  1  0.083100  0.321700  0.476100  1
  C  C735  1  0.083100  0.178300  0.976100  1
  C  C736  1  0.916900  0.678300  0.523900  1
  C  C737  1  0.866400  0.820800  0.009100  1
  C  C738  1  0.133600  0.320800  0.490900  1
  C  C739  1  0.133600  0.179200  0.990900  1
  C  C740  1  0.866400  0.679200  0.509100  1
  C  C741  1  0.101900  0.826600  0.194600  1
  C  C742  1  0.898100  0.326600  0.305400  1
  C  C743  1  0.898100  0.173400  0.805400  1
  C  C744  1  0.101900  0.673400  0.694600  1
  C  C745  1  0.096700  0.827300  0.164600  1
  C  C746  1  0.903300  0.327300  0.335400  1
  C  C747  1  0.903300  0.172700  0.835400  1
  C  C748  1  0.096700  0.672700  0.664600  1
  C  C749  1  0.044900  0.828700  0.147900  1
  C  C750  1  0.955100  0.328700  0.352100  1
  C  C751  1  0.955100  0.171300  0.852100  1
  C  C752  1  0.044900  0.671300  0.647900  1
  C  C753  1  0.999100  0.829100  0.161000  1
  C  C754  1  0.000900  0.329100  0.339000  1
  C  C755  1  0.000900  0.170900  0.839000  1
  C  C756  1  0.999100  0.670900  0.661000  1
  C  C757  1  0.007800  0.827700  0.191500  1
  C  C758  1  0.992200  0.327700  0.308500  1
  C  C759  1  0.992200  0.172300  0.808500  1
  C  C760  1  0.007800  0.672300  0.691500  1
  C  C761  1  0.009800  0.646000  0.199700  1
  C  C762  1  0.990200  0.146000  0.300300  1
  C  C763  1  0.990200  0.354000  0.800300  1
  C  C764  1  0.009800  0.854000  0.699700  1
  C  C765  1  0.103400  0.645100  0.204900  1
  C  C766  1  0.896600  0.145100  0.295100  1
  C  C767  1  0.896600  0.354900  0.795100  1
  C  C768  1  0.103400  0.854900  0.704900  1
  C  C769  1  0.059100  0.686800  0.214200  1
  C  C770  1  0.940900  0.186800  0.285800  1
  C  C771  1  0.940900  0.313200  0.785800  1
  C  C772  1  0.059100  0.813200  0.714200  1
  C  C773  1  0.808900  0.642000  0.050700  1
  C  C774  1  0.191100  0.142000  0.449300  1
  C  C775  1  0.191100  0.358000  0.949300  1
  C  C776  1  0.808900  0.858000  0.550700  1
  C  C777  1  0.803700  0.680600  0.020900  1
  C  C778  1  0.196300  0.180600  0.479100  1
  C  C779  1  0.196300  0.319400  0.979100  1
  C  C780  1  0.803700  0.819400  0.520900  1
  C  C781  1  0.847300  0.639400  0.009800  1
  C  C782  1  0.152700  0.139400  0.490200  1
  C  C783  1  0.152700  0.360600  0.990200  1
  C  C784  1  0.847300  0.860600  0.509800  1
  C  C785  1  0.228000  0.636400  0.066000  1
  C  C786  1  0.772000  0.136400  0.434000  1
  C  C787  1  0.772000  0.363600  0.934000  1
  C  C788  1  0.228000  0.863600  0.566000  1
  C  C789  1  0.173200  0.635700  0.022700  1
  C  C790  1  0.826800  0.135700  0.477300  1
  C  C791  1  0.826800  0.364300  0.977300  1
  C  C792  1  0.173200  0.864300  0.522700  1
  C  C793  1  0.220200  0.675200  0.036800  1
  C  C794  1  0.779800  0.175200  0.463200  1
  C  C795  1  0.779800  0.324800  0.963200  1
  C  C796  1  0.220200  0.824800  0.536800  1
  C  C797  1  0.074000  0.825400  0.074200  1
  C  C798  1  0.926000  0.325400  0.425800  1
  C  C799  1  0.926000  0.174600  0.925800  1
  C  C800  1  0.074000  0.674600  0.574200  1
  C  C801  1  0.980600  0.825200  0.071900  1
  C  C802  1  0.019400  0.325200  0.428100  1
  C  C803  1  0.019400  0.174800  0.928100  1
  C  C804  1  0.980600  0.674800  0.571900  1
  C  C805  1  0.037900  0.827900  0.115200  1
  C  C806  1  0.962100  0.327900  0.384800  1
  C  C807  1  0.962100  0.172100  0.884800  1
  C  C808  1  0.037900  0.672100  0.615200  1
  C  C809  1  0.772000  0.586300  0.230300  1
  C  C810  1  0.228000  0.086300  0.269700  1
  C  C811  1  0.228000  0.413700  0.769700  1
  C  C812  1  0.772000  0.913700  0.730300  1
  C  C813  1  0.827400  0.546300  0.216700  1
  C  C814  1  0.172600  0.046300  0.283300  1
  C  C815  1  0.172600  0.453700  0.783300  1
  C  C816  1  0.827400  0.953700  0.716700  1
  C  C817  1  0.730200  0.545400  0.205600  1
  C  C818  1  0.269800  0.045400  0.294400  1
  C  C819  1  0.269800  0.454600  0.794400  1
  C  C820  1  0.730200  0.954600  0.705600  1
  C  C821  1  0.682800  0.556600  0.184900  1
  C  C822  1  0.317200  0.056600  0.315100  1
  C  C823  1  0.317200  0.443400  0.815100  1
  C  C824  1  0.682800  0.943400  0.684900  1
  C  C825  1  0.700600  0.539000  0.138200  1
  C  C826  1  0.299400  0.039000  0.361800  1
  C  C827  1  0.299400  0.461000  0.861800  1
  C  C828  1  0.700600  0.961000  0.638200  1
  C  C829  1  0.659400  0.585900  0.142100  1
  C  C830  1  0.340600  0.085900  0.357900  1
  C  C831  1  0.340600  0.414100  0.857900  1
  C  C832  1  0.659400  0.914100  0.642100  1
  C  C833  1  0.312200  0.541300  0.235400  1
  C  C834  1  0.687800  0.041300  0.264600  1
  C  C835  1  0.687800  0.458700  0.764600  1
  C  C836  1  0.312200  0.958700  0.735400  1
  C  C837  1  0.350000  0.585800  0.250100  1
  C  C838  1  0.650000  0.085800  0.249900  1
  C  C839  1  0.650000  0.414200  0.749900  1
  C  C840  1  0.350000  0.914200  0.750100  1
  C  C841  1  0.407200  0.553700  0.228200  1
  C  C842  1  0.592800  0.053700  0.271800  1
  C  C843  1  0.592800  0.446300  0.771800  1
  C  C844  1  0.407200  0.946300  0.728200  1
  C  C845  1  0.411200  0.540300  0.202100  1
  C  C846  1  0.588800  0.040300  0.297900  1
  C  C847  1  0.588800  0.459700  0.797900  1
  C  C848  1  0.411200  0.959700  0.702100  1
  C  C849  1  0.378600  0.542700  0.149400  1
  C  C850  1  0.621400  0.042700  0.350600  1
  C  C851  1  0.621400  0.457300  0.850600  1
  C  C852  1  0.378600  0.957300  0.649400  1
  C  C853  1  0.434100  0.582100  0.172600  1
  C  C854  1  0.565900  0.082100  0.327400  1
  C  C855  1  0.565900  0.417900  0.827400  1
  C  C856  1  0.434100  0.917900  0.672600  1
  C  C857  1  0.007100  0.874500  0.254300  1
  C  C858  1  0.992900  0.374500  0.245700  1
  C  C859  1  0.992900  0.125500  0.745700  1
  C  C860  1  0.007100  0.625500  0.754300  1
  C  C861  1  0.103100  0.880000  0.246700  1
  C  C862  1  0.896900  0.380000  0.253300  1
  C  C863  1  0.896900  0.120000  0.753300  1
  C  C864  1  0.103100  0.620000  0.746700  1
  C  C865  1  0.080800  0.862800  0.293600  1
  C  C866  1  0.919200  0.362800  0.206400  1
  C  C867  1  0.919200  0.137200  0.706400  1
  C  C868  1  0.080800  0.637200  0.793600  1
  C  C869  1  0.057900  0.839600  0.307800  1
  C  C870  1  0.942100  0.339600  0.192200  1
  C  C871  1  0.942100  0.160400  0.692200  1
  C  C872  1  0.057900  0.660400  0.807800  1
  C  C873  1  0.132100  0.804200  0.306600  1
  C  C874  1  0.867900  0.304200  0.193400  1
  C  C875  1  0.867900  0.195800  0.693400  1
  C  C876  1  0.132100  0.695800  0.806600  1
  C  C877  1  0.039700  0.787500  0.303400  1
  C  C878  1  0.960300  0.287500  0.196600  1
  C  C879  1  0.960300  0.212500  0.696600  1
  C  C880  1  0.039700  0.712500  0.803400  1
  C  C881  1  0.722200  0.872300  0.016800  1
  C  C882  1  0.277800  0.372300  0.483200  1
  C  C883  1  0.277800  0.127700  0.983200  1
  C  C884  1  0.722200  0.627700  0.516800  1
  C  C885  1  0.771700  0.871700  0.978200  1
  C  C886  1  0.228300  0.371700  0.521800  1
  C  C887  1  0.228300  0.128300  0.021800  1
  C  C888  1  0.771700  0.628300  0.478200  1
  C  C889  1  0.679300  0.860000  0.971200  1
  C  C890  1  0.320700  0.360000  0.528800  1
  C  C891  1  0.320700  0.140000  0.028800  1
  C  C892  1  0.679300  0.640000  0.471200  1
  C  C893  1  0.639400  0.836800  0.972300  1
  C  C894  1  0.360600  0.336800  0.527700  1
  C  C895  1  0.360600  0.163200  0.027700  1
  C  C896  1  0.639400  0.663200  0.472300  1
  C  C897  1  0.669400  0.794600  0.946700  1
  C  C898  1  0.330600  0.294600  0.553300  1
  C  C899  1  0.330600  0.205400  0.053300  1
  C  C900  1  0.669400  0.705400  0.446700  1
  C  C901  1  0.630300  0.788500  0.989000  1
  C  C902  1  0.369700  0.288500  0.511000  1
  C  C903  1  0.369700  0.211500  0.011000  1
  C  C904  1  0.630300  0.711500  0.489000  1
  C  C905  1  0.394900  0.779400  0.013900  1
  C  C906  1  0.605100  0.279400  0.486100  1
  C  C907  1  0.605100  0.220600  0.986100  1
  C  C908  1  0.394900  0.720600  0.513900  1
  C  C909  1  0.333000  0.777500  0.968000  1
  C  C910  1  0.667000  0.277500  0.532000  1
  C  C911  1  0.667000  0.222500  0.032000  1
  C  C912  1  0.333000  0.722500  0.468000  1
  C  C913  1  0.373400  0.822200  0.985800  1
  C  C914  1  0.626600  0.322200  0.514200  1
  C  C915  1  0.626600  0.177800  0.014200  1
  C  C916  1  0.373400  0.677800  0.485800  1
  C  C917  1  0.353200  0.846000  0.993900  1
  C  C918  1  0.646800  0.346000  0.506100  1
  C  C919  1  0.646800  0.154000  0.006100  1
  C  C920  1  0.353200  0.654000  0.493900  1
  C  C921  1  0.255100  0.862600  0.989700  1
  C  C922  1  0.744900  0.362600  0.510300  1
  C  C923  1  0.744900  0.137400  0.010300  1
  C  C924  1  0.255100  0.637400  0.489700  1
  C  C925  1  0.317400  0.865500  0.033000  1
  C  C926  1  0.682600  0.365500  0.467000  1
  C  C927  1  0.682600  0.134500  0.967000  1
  C  C928  1  0.317400  0.634500  0.533000  1
  C  C929  1  0.906000  0.568700  0.885900  1
  C  C930  1  0.094000  0.068700  0.614100  1
  C  C931  1  0.094000  0.431300  0.114100  1
  C  C932  1  0.906000  0.931300  0.385900  1
  C  C933  1  0.890300  0.534100  0.923600  1
  C  C934  1  0.109700  0.034100  0.576400  1
  C  C935  1  0.109700  0.465900  0.076400  1
  C  C936  1  0.890300  0.965900  0.423600  1
  C  C937  1  0.955600  0.526700  0.892400  1
  C  C938  1  0.044400  0.026700  0.607600  1
  C  C939  1  0.044400  0.473300  0.107600  1
  C  C940  1  0.955600  0.973300  0.392400  1
  C  C941  1  0.009600  0.533800  0.887500  1
  C  C942  1  0.990400  0.033800  0.612500  1
  C  C943  1  0.990400  0.466200  0.112500  1
  C  C944  1  0.009600  0.966200  0.387500  1
  C  C945  1  0.074500  0.526000  0.929000  1
  C  C946  1  0.925500  0.026000  0.571000  1
  C  C947  1  0.925500  0.474000  0.071000  1
  C  C948  1  0.074500  0.974000  0.429000  1
  C  C949  1  0.086900  0.566300  0.900800  1
  C  C950  1  0.913100  0.066300  0.599200  1
  C  C951  1  0.913100  0.433700  0.099200  1
  C  C952  1  0.086900  0.933700  0.400800  1
  C  C953  1  0.116500  0.547200  0.127400  1
  C  C954  1  0.883500  0.047200  0.372600  1
  C  C955  1  0.883500  0.452800  0.872600  1
  C  C956  1  0.116500  0.952800  0.627400  1
  C  C957  1  0.061700  0.552500  0.108700  1
  C  C958  1  0.938300  0.052500  0.391300  1
  C  C959  1  0.938300  0.447500  0.891300  1
  C  C960  1  0.061700  0.947500  0.608700  1
  C  C961  1  0.007400  0.552700  0.117900  1
  C  C962  1  0.992600  0.052700  0.382100  1
  C  C963  1  0.992600  0.447300  0.882100  1
  C  C964  1  0.007400  0.947300  0.617900  1
  C  C965  1  0.969000  0.552700  0.091400  1
  C  C966  1  0.031000  0.052700  0.408600  1
  C  C967  1  0.031000  0.447300  0.908600  1
  C  C968  1  0.969000  0.947300  0.591400  1
  C  C969  1  0.999800  0.551100  0.069200  1
  C  C970  1  0.000200  0.051100  0.430800  1
  C  C971  1  0.000200  0.448900  0.930800  1
  C  C972  1  0.999800  0.948900  0.569200  1
  C  C973  1  0.061600  0.551100  0.076500  1
  C  C974  1  0.938400  0.051100  0.423500  1
  C  C975  1  0.938400  0.448900  0.923500  1
  C  C976  1  0.061600  0.948900  0.576500  1
  C  C977  1  0.075600  0.609200  0.112500  1
  C  C978  1  0.924400  0.109200  0.387500  1
  C  C979  1  0.924400  0.390800  0.887500  1
  C  C980  1  0.075600  0.890800  0.612500  1
  C  C981  1  0.968000  0.611100  0.105700  1
  C  C982  1  0.032000  0.111100  0.394300  1
  C  C983  1  0.032000  0.388900  0.894300  1
  C  C984  1  0.968000  0.888900  0.605700  1
  C  C985  1  0.017800  0.610400  0.060600  1
  C  C986  1  0.982200  0.110400  0.439400  1
  C  C987  1  0.982200  0.389600  0.939400  1
  C  C988  1  0.017800  0.889600  0.560600  1
  C  C989  1  0.928000  0.767900  0.150000  1
  C  C990  1  0.072000  0.267900  0.350000  1
  C  C991  1  0.072000  0.232100  0.850000  1
  C  C992  1  0.928000  0.732100  0.650000  1
  C  C993  1  0.907800  0.741000  0.134300  1
  C  C994  1  0.092200  0.241000  0.365700  1
  C  C995  1  0.092200  0.259000  0.865700  1
  C  C996  1  0.907800  0.759000  0.634300  1
  C  C997  1  0.913400  0.712300  0.148800  1
  C  C998  1  0.086600  0.212300  0.351200  1
  C  C999  1  0.086600  0.287700  0.851200  1
  C  C1000  1  0.913400  0.787700  0.648800  1
  C  C1001  1  0.881700  0.693800  0.127500  1
  C  C1002  1  0.118300  0.193800  0.372500  1
  C  C1003  1  0.118300  0.306200  0.872500  1
  C  C1004  1  0.881700  0.806200  0.627500  1
  C  C1005  1  0.860400  0.711300  0.103700  1
  C  C1006  1  0.139600  0.211300  0.396300  1
  C  C1007  1  0.139600  0.288700  0.896300  1
  C  C1008  1  0.860400  0.788700  0.603700  1
  C  C1009  1  0.875600  0.743000  0.103600  1
  C  C1010  1  0.124400  0.243000  0.396400  1
  C  C1011  1  0.124400  0.257000  0.896400  1
  C  C1012  1  0.875600  0.757000  0.603600  1
  C  C1013  1  0.993300  0.738200  0.098200  1
  C  C1014  1  0.006700  0.238200  0.401800  1
  C  C1015  1  0.006700  0.261800  0.901800  1
  C  C1016  1  0.993300  0.761800  0.598200  1
  C  C1017  1  0.002400  0.692700  0.131100  1
  C  C1018  1  0.997600  0.192700  0.368900  1
  C  C1019  1  0.997600  0.307300  0.868900  1
  C  C1020  1  0.002400  0.807300  0.631100  1
  C  C1021  1  0.939100  0.690700  0.078200  1
  C  C1022  1  0.060900  0.190700  0.421800  1
  C  C1023  1  0.060900  0.309300  0.921800  1
  C  C1024  1  0.939100  0.809300  0.578200  1
  C  C1025  1  0.086000  0.770700  0.972000  1
  C  C1026  1  0.914000  0.270700  0.528000  1
  C  C1027  1  0.914000  0.229300  0.028000  1
  C  C1028  1  0.086000  0.729300  0.472000  1
  C  C1029  1  0.041100  0.707800  0.012200  1
  C  C1030  1  0.958900  0.207800  0.487800  1
  C  C1031  1  0.958900  0.292200  0.987800  1
  C  C1032  1  0.041100  0.792200  0.512200  1
  C  C1033  1  0.064500  0.737500  0.013300  1
  C  C1034  1  0.935500  0.237500  0.486700  1
  C  C1035  1  0.935500  0.262500  0.986700  1
  C  C1036  1  0.064500  0.762500  0.513300  1
  C  C1037  1  0.068000  0.742700  0.983100  1
  C  C1038  1  0.932000  0.242700  0.516900  1
  C  C1039  1  0.932000  0.257300  0.016900  1
  C  C1040  1  0.068000  0.757300  0.483100  1
  C  C1041  1  0.049300  0.717500  0.967800  1
  C  C1042  1  0.950700  0.217500  0.532200  1
  C  C1043  1  0.950700  0.282500  0.032200  1
  C  C1044  1  0.049300  0.782500  0.467800  1
  C  C1045  1  0.028000  0.692400  0.983400  1
  C  C1046  1  0.972000  0.192400  0.516600  1
  C  C1047  1  0.972000  0.307600  0.016600  1
  C  C1048  1  0.028000  0.807600  0.483400  1
  C  C1049  1  0.963100  0.770900  0.974200  1
  C  C1050  1  0.036900  0.270900  0.525800  1
  C  C1051  1  0.036900  0.229100  0.025800  1
  C  C1052  1  0.963100  0.729100  0.474200  1
  C  C1053  1  0.934000  0.718200  0.961300  1
  C  C1054  1  0.066000  0.218200  0.538700  1
  C  C1055  1  0.066000  0.281800  0.038700  1
  C  C1056  1  0.934000  0.781800  0.461300  1
  C  C1057  1  0.944000  0.736400  0.015500  1
  C  C1058  1  0.056000  0.236400  0.484500  1
  C  C1059  1  0.056000  0.263600  0.984500  1
  C  C1060  1  0.944000  0.763600  0.515500  1
  C  C1061  1  0.520700  0.971100  0.264500  1
  C  C1062  1  0.479300  0.471100  0.235500  1
  C  C1063  1  0.479300  0.028900  0.735500  1
  C  C1064  1  0.520700  0.528900  0.764500  1
  C  C1065  1  0.578700  0.965000  0.278600  1
  C  C1066  1  0.421300  0.465000  0.221400  1
  C  C1067  1  0.421300  0.035000  0.721400  1
  C  C1068  1  0.578700  0.535000  0.778600  1
  C  C1069  1  0.626100  0.967800  0.262900  1
  C  C1070  1  0.373900  0.467800  0.237100  1
  C  C1071  1  0.373900  0.032200  0.737100  1
  C  C1072  1  0.626100  0.532200  0.762900  1
  C  C1073  1  0.672800  0.965500  0.286100  1
  C  C1074  1  0.327200  0.465500  0.213900  1
  C  C1075  1  0.327200  0.034500  0.713900  1
  C  C1076  1  0.672800  0.534500  0.786100  1
  C  C1077  1  0.651000  0.962600  0.311800  1
  C  C1078  1  0.349000  0.462600  0.188200  1
  C  C1079  1  0.349000  0.037400  0.688200  1
  C  C1080  1  0.651000  0.537400  0.811800  1
  C  C1081  1  0.590000  0.960100  0.311100  1
  C  C1082  1  0.410000  0.460100  0.188900  1
  C  C1083  1  0.410000  0.039900  0.688900  1
  C  C1084  1  0.590000  0.539900  0.811100  1
  C  C1085  1  0.571600  0.908400  0.264600  1
  C  C1086  1  0.428400  0.408400  0.235400  1
  C  C1087  1  0.428400  0.091600  0.735400  1
  C  C1088  1  0.571600  0.591600  0.764600  1
  C  C1089  1  0.633800  0.904500  0.314200  1
  C  C1090  1  0.366200  0.404500  0.185800  1
  C  C1091  1  0.366200  0.095500  0.685800  1
  C  C1092  1  0.633800  0.595500  0.814200  1
  C  C1093  1  0.669900  0.906900  0.265100  1
  C  C1094  1  0.330100  0.406900  0.234900  1
  C  C1095  1  0.330100  0.093100  0.734900  1
  C  C1096  1  0.669900  0.593100  0.765100  1
  C  C1097  1  0.712000  0.788100  0.186900  1
  C  C1098  1  0.288000  0.288100  0.313100  1
  C  C1099  1  0.288000  0.211900  0.813100  1
  C  C1100  1  0.712000  0.711900  0.686900  1
  C  C1101  1  0.737000  0.793400  0.217600  1
  C  C1102  1  0.263000  0.293400  0.282400  1
  C  C1103  1  0.263000  0.206600  0.782400  1
  C  C1104  1  0.737000  0.706600  0.717600  1
  C  C1105  1  0.762000  0.821400  0.228400  1
  C  C1106  1  0.238000  0.321400  0.271600  1
  C  C1107  1  0.238000  0.178600  0.771600  1
  C  C1108  1  0.762000  0.678600  0.728400  1
  C  C1109  1  0.785800  0.813600  0.257700  1
  C  C1110  1  0.214200  0.313600  0.242300  1
  C  C1111  1  0.214200  0.186400  0.742300  1
  C  C1112  1  0.785800  0.686400  0.757700  1
  C  C1113  1  0.774800  0.784300  0.262000  1
  C  C1114  1  0.225200  0.284300  0.238000  1
  C  C1115  1  0.225200  0.215700  0.738000  1
  C  C1116  1  0.774800  0.715700  0.762000  1
  C  C1117  1  0.741000  0.767500  0.238000  1
  C  C1118  1  0.259000  0.267500  0.262000  1
  C  C1119  1  0.259000  0.232500  0.762000  1
  C  C1120  1  0.741000  0.732500  0.738000  1
  C  C1121  1  0.655000  0.783800  0.263900  1
  C  C1122  1  0.345000  0.283800  0.236100  1
  C  C1123  1  0.345000  0.216200  0.736100  1
  C  C1124  1  0.655000  0.716200  0.763900  1
  C  C1125  1  0.647300  0.830300  0.234200  1
  C  C1126  1  0.352700  0.330300  0.265800  1
  C  C1127  1  0.352700  0.169700  0.765800  1
  C  C1128  1  0.647300  0.669700  0.734200  1
  C  C1129  1  0.704500  0.824800  0.286100  1
  C  C1130  1  0.295500  0.324800  0.213900  1
  C  C1131  1  0.295500  0.175200  0.713900  1
  C  C1132  1  0.704500  0.675200  0.786100  1
  C  C1133  1  0.410000  0.759000  0.150000  1
  C  C1134  1  0.590000  0.259000  0.350000  1
  C  C1135  1  0.590000  0.241000  0.850000  1
  C  C1136  1  0.410000  0.741000  0.650000  1
  C  C1137  1  0.401000  0.746800  0.204300  1
  C  C1138  1  0.599000  0.246800  0.295700  1
  C  C1139  1  0.599000  0.253200  0.795700  1
  C  C1140  1  0.401000  0.753200  0.704300  1
  C  C1141  1  0.396000  0.766100  0.179000  1
  C  C1142  1  0.604000  0.266100  0.321000  1
  C  C1143  1  0.604000  0.233900  0.821000  1
  C  C1144  1  0.396000  0.733900  0.679000  1
  C  C1145  1  0.373000  0.792300  0.189000  1
  C  C1146  1  0.627000  0.292300  0.311000  1
  C  C1147  1  0.627000  0.207700  0.811000  1
  C  C1148  1  0.373000  0.707700  0.689000  1
  C  C1149  1  0.365900  0.787000  0.218000  1
  C  C1150  1  0.634100  0.287000  0.282000  1
  C  C1151  1  0.634100  0.213000  0.782000  1
  C  C1152  1  0.365900  0.713000  0.718000  1
  C  C1153  1  0.384000  0.758000  0.231700  1
  C  C1154  1  0.616000  0.258000  0.268300  1
  C  C1155  1  0.616000  0.242000  0.768300  1
  C  C1156  1  0.384000  0.742000  0.731700  1
  C  C1157  1  0.459000  0.821100  0.223300  1
  C  C1158  1  0.541000  0.321100  0.276700  1
  C  C1159  1  0.541000  0.178900  0.776700  1
  C  C1160  1  0.459000  0.678900  0.723300  1
  C  C1161  1  0.513400  0.780200  0.201100  1
  C  C1162  1  0.486600  0.280200  0.298900  1
  C  C1163  1  0.486600  0.219800  0.798900  1
  C  C1164  1  0.513400  0.719800  0.701100  1
  C  C1165  1  0.477400  0.771200  0.250100  1
  C  C1166  1  0.522600  0.271200  0.249900  1
  C  C1167  1  0.522600  0.228800  0.749900  1
  C  C1168  1  0.477400  0.728800  0.750100  1
  C  C1169  1  0.291000  0.718000  0.194000  1
  C  C1170  1  0.709000  0.218000  0.306000  1
  C  C1171  1  0.709000  0.282000  0.806000  1
  C  C1172  1  0.291000  0.782000  0.694000  1
  C  C1173  1  0.267000  0.738300  0.171300  1
  C  C1174  1  0.733000  0.238300  0.328700  1
  C  C1175  1  0.733000  0.261700  0.828700  1
  C  C1176  1  0.267000  0.761700  0.671300  1
  C  C1177  1  0.235000  0.764200  0.176800  1
  C  C1178  1  0.765000  0.264200  0.323200  1
  C  C1179  1  0.765000  0.235800  0.823200  1
  C  C1180  1  0.235000  0.735800  0.676800  1
  C  C1181  1  0.230000  0.779600  0.150000  1
  C  C1182  1  0.770000  0.279600  0.350000  1
  C  C1183  1  0.770000  0.220400  0.850000  1
  C  C1184  1  0.230000  0.720400  0.650000  1
  C  C1185  1  0.259000  0.763000  0.131900  1
  C  C1186  1  0.741000  0.263000  0.368100  1
  C  C1187  1  0.741000  0.237000  0.868100  1
  C  C1188  1  0.259000  0.737000  0.631900  1
  C  C1189  1  0.283900  0.735000  0.142000  1
  C  C1190  1  0.716100  0.235000  0.358000  1
  C  C1191  1  0.716100  0.265000  0.858000  1
  C  C1192  1  0.283900  0.765000  0.642000  1
  C  C1193  1  0.126400  0.747600  0.151800  1
  C  C1194  1  0.873600  0.247600  0.348200  1
  C  C1195  1  0.873600  0.252400  0.848200  1
  C  C1196  1  0.126400  0.752400  0.651800  1
  C  C1197  1  0.178000  0.700600  0.139900  1
  C  C1198  1  0.822000  0.200600  0.360100  1
  C  C1199  1  0.822000  0.299400  0.860100  1
  C  C1200  1  0.178000  0.799400  0.639900  1
  C  C1201  1  0.034000  0.690900  0.038200  1
  C  C1202  1  0.966000  0.190900  0.461800  1
  C  C1203  1  0.966000  0.309100  0.961800  1
  C  C1204  1  0.034000  0.809100  0.538200  1
  C  C1205  1  0.086000  0.693000  0.084000  1
  C  C1206  1  0.914000  0.193000  0.416000  1
  C  C1207  1  0.914000  0.307000  0.916000  1
  C  C1208  1  0.086000  0.807000  0.584000  1
  C  C1209  1  0.566000  0.812000  0.303000  1
  C  C1210  1  0.434000  0.312000  0.197000  1
  C  C1211  1  0.434000  0.188000  0.697000  1
  C  C1212  1  0.566000  0.688000  0.803000  1
  C  C1213  1  0.684000  0.960000  0.257000  1
  C  C1214  1  0.316000  0.460000  0.243000  1
  C  C1215  1  0.316000  0.040000  0.743000  1
  C  C1216  1  0.684000  0.540000  0.757000  1
  C  C1217  1  0.651000  0.958300  0.280700  1
  C  C1218  1  0.349000  0.458300  0.219300  1
  C  C1219  1  0.349000  0.041700  0.719300  1
  C  C1220  1  0.651000  0.541700  0.780700  1
  C  C1221  1  0.590000  0.960100  0.277000  1
  C  C1222  1  0.410000  0.460100  0.223000  1
  C  C1223  1  0.410000  0.039900  0.723000  1
  C  C1224  1  0.590000  0.539900  0.777000  1
  C  C1225  1  0.580000  0.959800  0.307000  1
  C  C1226  1  0.420000  0.459800  0.193000  1
  C  C1227  1  0.420000  0.040200  0.693000  1
  C  C1228  1  0.580000  0.540200  0.807000  1
  C  C1229  1  0.632000  0.958900  0.324500  1
  C  C1230  1  0.368000  0.458900  0.175500  1
  C  C1231  1  0.368000  0.041100  0.675500  1
  C  C1232  1  0.632000  0.541100  0.824500  1
  C  C1233  1  0.683000  0.957000  0.311200  1
  C  C1234  1  0.317000  0.457000  0.188800  1
  C  C1235  1  0.317000  0.043000  0.688800  1
  C  C1236  1  0.683000  0.543000  0.811200  1
  C  C1237  1  0.670000  0.903800  0.283000  1
  C  C1238  1  0.330000  0.403800  0.217000  1
  C  C1239  1  0.330000  0.096200  0.717000  1
  C  C1240  1  0.670000  0.596200  0.783000  1
  C  C1241  1  0.565000  0.902500  0.278200  1
  C  C1242  1  0.435000  0.402500  0.221800  1
  C  C1243  1  0.435000  0.097500  0.721800  1
  C  C1244  1  0.565000  0.597500  0.778200  1
  C  C1245  1  0.633000  0.895500  0.326500  1
  C  C1246  1  0.367000  0.395500  0.173500  1
  C  C1247  1  0.367000  0.104500  0.673500  1
  C  C1248  1  0.633000  0.604500  0.826500  1
  C  C1249  1  0.629000  0.824500  0.339700  1
  C  C1250  1  0.371000  0.324500  0.160300  1
  C  C1251  1  0.371000  0.175500  0.660300  1
  C  C1252  1  0.629000  0.675500  0.839700  1
  C  C1253  1  0.616000  0.798800  0.356800  1
  C  C1254  1  0.384000  0.298800  0.143200  1
  C  C1255  1  0.384000  0.201200  0.643200  1
  C  C1256  1  0.616000  0.701200  0.856800  1
  C  C1257  1  0.599000  0.769900  0.344800  1
  C  C1258  1  0.401000  0.269900  0.155200  1
  C  C1259  1  0.401000  0.230100  0.655200  1
  C  C1260  1  0.599000  0.730100  0.844800  1
  C  C1261  1  0.592100  0.753200  0.370200  1
  C  C1262  1  0.407900  0.253200  0.129800  1
  C  C1263  1  0.407900  0.246800  0.629800  1
  C  C1264  1  0.592100  0.746800  0.870200  1
  C  C1265  1  0.602000  0.772400  0.393800  1
  C  C1266  1  0.398000  0.272400  0.106200  1
  C  C1267  1  0.398000  0.227600  0.606200  1
  C  C1268  1  0.602000  0.727600  0.893800  1
  C  C1269  1  0.620000  0.803100  0.389300  1
  C  C1270  1  0.380000  0.303100  0.110700  1
  C  C1271  1  0.380000  0.196900  0.610700  1
  C  C1272  1  0.620000  0.696900  0.889300  1
  C  C1273  1  0.725300  0.782600  0.402100  1
  C  C1274  1  0.274700  0.282600  0.097900  1
  C  C1275  1  0.274700  0.217400  0.597900  1
  C  C1276  1  0.725300  0.717400  0.902100  1
  C  C1277  1  0.718000  0.766200  0.348500  1
  C  C1278  1  0.282000  0.266200  0.151500  1
  C  C1279  1  0.282000  0.233800  0.651500  1
  C  C1280  1  0.718000  0.733800  0.848500  1
  C  C1281  1  0.785000  0.776000  0.266000  1
  C  C1282  1  0.215000  0.276000  0.234000  1
  C  C1283  1  0.215000  0.224000  0.734000  1
  C  C1284  1  0.785000  0.724000  0.766000  1
  C  C1285  1  0.758900  0.787500  0.237100  1
  C  C1286  1  0.241100  0.287500  0.262900  1
  C  C1287  1  0.241100  0.212500  0.762900  1
  C  C1288  1  0.758900  0.712500  0.737100  1
  C  C1289  1  0.752000  0.818700  0.230000  1
  C  C1290  1  0.248000  0.318700  0.270000  1
  C  C1291  1  0.248000  0.181300  0.770000  1
  C  C1292  1  0.752000  0.681300  0.730000  1
  C  C1293  1  0.732000  0.818400  0.200000  1
  C  C1294  1  0.268000  0.318400  0.300000  1
  C  C1295  1  0.268000  0.181600  0.800000  1
  C  C1296  1  0.732000  0.681600  0.700000  1
  C  C1297  1  0.729000  0.789000  0.190900  1
  C  C1298  1  0.271000  0.289000  0.309100  1
  C  C1299  1  0.271000  0.211000  0.809100  1
  C  C1300  1  0.729000  0.711000  0.690900  1
  C  C1301  1  0.743000  0.765600  0.213000  1
  C  C1302  1  0.257000  0.265600  0.287000  1
  C  C1303  1  0.257000  0.234400  0.787000  1
  C  C1304  1  0.743000  0.734400  0.713000  1
  C  C1305  1  0.622200  0.780300  0.198200  1
  C  C1306  1  0.377800  0.280300  0.301800  1
  C  C1307  1  0.377800  0.219700  0.801800  1
  C  C1308  1  0.622200  0.719700  0.698200  1
  C  C1309  1  0.639400  0.828300  0.225000  1
  C  C1310  1  0.360600  0.328300  0.275000  1
  C  C1311  1  0.360600  0.171700  0.775000  1
  C  C1312  1  0.639400  0.671700  0.725000  1
  C  C1313  1  0.650000  0.777800  0.249700  1
  C  C1314  1  0.350000  0.277800  0.250300  1
  C  C1315  1  0.350000  0.222200  0.750300  1
  C  C1316  1  0.650000  0.722200  0.749700  1
  C  C1317  1  0.423000  0.716300  0.205000  1
  C  C1318  1  0.577000  0.216300  0.295000  1
  C  C1319  1  0.577000  0.283700  0.795000  1
  C  C1320  1  0.423000  0.783700  0.705000  1
  N  N1321  1  0.782500  0.931300  0.190800  1
  N  N1322  1  0.217500  0.431300  0.309200  1
  N  N1323  1  0.217500  0.068700  0.809200  1
  N  N1324  1  0.782500  0.568700  0.690800  1
  N  N1325  1  0.575900  0.761200  0.109400  1
  N  N1326  1  0.424100  0.261200  0.390600  1
  N  N1327  1  0.424100  0.238800  0.890600  1
  N  N1328  1  0.575900  0.738800  0.609400  1
  N  N1329  1  0.385300  0.918900  0.186200  1
  N  N1330  1  0.614700  0.418900  0.313800  1
  N  N1331  1  0.614700  0.081100  0.813800  1
  N  N1332  1  0.385300  0.581100  0.686200  1
  N  N1333  1  0.854500  0.928600  0.243400  1
  N  N1334  1  0.145500  0.428600  0.256600  1
  N  N1335  1  0.145500  0.071400  0.756600  1
  N  N1336  1  0.854500  0.571400  0.743400  1
  N  N1337  1  0.707500  0.908500  0.420800  1
  N  N1338  1  0.292500  0.408500  0.079200  1
  N  N1339  1  0.292500  0.091500  0.579200  1
  N  N1340  1  0.707500  0.591500  0.920800  1
  N  N1341  1  0.900600  0.746900  0.349100  1
  N  N1342  1  0.099400  0.246900  0.150900  1
  N  N1343  1  0.099400  0.253100  0.650900  1
  N  N1344  1  0.900600  0.753100  0.849100  1
  N  N1345  1  0.587800  0.710500  0.143800  1
  N  N1346  1  0.412200  0.210500  0.356200  1
  N  N1347  1  0.412200  0.289500  0.856200  1
  N  N1348  1  0.587800  0.789500  0.643800  1
  N  N1349  1  0.840800  0.698900  0.327000  1
  N  N1350  1  0.159200  0.198900  0.173000  1
  N  N1351  1  0.159200  0.301100  0.673000  1
  N  N1352  1  0.840800  0.801100  0.827000  1
  N  N1353  1  0.444800  0.684400  0.322100  1
  N  N1354  1  0.555200  0.184400  0.177900  1
  N  N1355  1  0.555200  0.315600  0.677900  1
  N  N1356  1  0.444800  0.815600  0.822100  1
  N  N1357  1  0.343000  0.910300  0.238400  1
  N  N1358  1  0.657000  0.410300  0.261600  1
  N  N1359  1  0.657000  0.089700  0.761600  1
  N  N1360  1  0.343000  0.589700  0.738400  1
  N  N1361  1  0.388800  0.728800  0.345200  1
  N  N1362  1  0.611200  0.228800  0.154800  1
  N  N1363  1  0.611200  0.271200  0.654800  1
  N  N1364  1  0.388800  0.771200  0.845200  1
  N  N1365  1  0.593400  0.902200  0.418900  1
  N  N1366  1  0.406600  0.402200  0.081100  1
  N  N1367  1  0.406600  0.097800  0.581100  1
  N  N1368  1  0.593400  0.597800  0.918900  1
  N  N1369  1  0.630500  0.860500  0.153000  1
  N  N1370  1  0.369500  0.360500  0.347000  1
  N  N1371  1  0.369500  0.139500  0.847000  1
  N  N1372  1  0.630500  0.639500  0.653000  1
  N  N1373  1  0.531200  0.858500  0.151300  1
  N  N1374  1  0.468800  0.358500  0.348700  1
  N  N1375  1  0.468800  0.141500  0.848700  1
  N  N1376  1  0.531200  0.641500  0.651300  1
  N  N1377  1  0.581400  0.899900  0.172100  1
  N  N1378  1  0.418600  0.399900  0.327900  1
  N  N1379  1  0.418600  0.100100  0.827900  1
  N  N1380  1  0.581400  0.600100  0.672100  1
  N  N1381  1  0.810600  0.891700  0.337600  1
  N  N1382  1  0.189400  0.391700  0.162400  1
  N  N1383  1  0.189400  0.108300  0.662400  1
  N  N1384  1  0.810600  0.608300  0.837600  1
  N  N1385  1  0.820600  0.845600  0.364100  1
  N  N1386  1  0.179400  0.345600  0.135900  1
  N  N1387  1  0.179400  0.154400  0.635900  1
  N  N1388  1  0.820600  0.654400  0.864100  1
  N  N1389  1  0.855500  0.850900  0.319600  1
  N  N1390  1  0.144500  0.350900  0.180400  1
  N  N1391  1  0.144500  0.149100  0.680400  1
  N  N1392  1  0.855500  0.649100  0.819600  1
  N  N1393  1  0.669100  0.700400  0.249400  1
  N  N1394  1  0.330900  0.200400  0.250600  1
  N  N1395  1  0.330900  0.299600  0.750600  1
  N  N1396  1  0.669100  0.799600  0.749400  1
  N  N1397  1  0.633000  0.692800  0.293400  1
  N  N1398  1  0.367000  0.192800  0.206600  1
  N  N1399  1  0.367000  0.307200  0.706600  1
  N  N1400  1  0.633000  0.807200  0.793400  1
  N  N1401  1  0.570100  0.695200  0.247700  1
  N  N1402  1  0.429900  0.195200  0.252300  1
  N  N1403  1  0.429900  0.304800  0.752300  1
  N  N1404  1  0.570100  0.804800  0.747700  1
  N  N1405  1  0.400300  0.833200  0.314500  1
  N  N1406  1  0.599700  0.333200  0.185500  1
  N  N1407  1  0.599700  0.166800  0.685500  1
  N  N1408  1  0.400300  0.666800  0.814500  1
  N  N1409  1  0.462700  0.831600  0.359500  1
  N  N1410  1  0.537300  0.331600  0.140500  1
  N  N1411  1  0.537300  0.168400  0.640500  1
  N  N1412  1  0.462700  0.668400  0.859500  1
  N  N1413  1  0.453300  0.875600  0.332800  1
  N  N1414  1  0.546700  0.375600  0.167200  1
  N  N1415  1  0.546700  0.124400  0.667200  1
  N  N1416  1  0.453300  0.624400  0.832800  1
  N  N1417  1  0.854400  0.974300  0.166500  1
  N  N1418  1  0.145600  0.474300  0.333500  1
  N  N1419  1  0.145600  0.025700  0.833500  1
  N  N1420  1  0.854400  0.525700  0.666500  1
  N  N1421  1  0.930800  0.970400  0.220000  1
  N  N1422  1  0.069200  0.470400  0.280000  1
  N  N1423  1  0.069200  0.029600  0.780000  1
  N  N1424  1  0.930800  0.529600  0.720000  1
  N  N1425  1  0.577600  0.675100  0.090400  1
  N  N1426  1  0.422400  0.175100  0.409600  1
  N  N1427  1  0.422400  0.324900  0.909600  1
  N  N1428  1  0.577600  0.824900  0.590400  1
  N  N1429  1  0.568900  0.724700  0.056400  1
  N  N1430  1  0.431100  0.224700  0.443600  1
  N  N1431  1  0.431100  0.275300  0.943600  1
  N  N1432  1  0.568900  0.775300  0.556400  1
  N  N1433  1  0.245900  0.948700  0.217900  1
  N  N1434  1  0.754100  0.448700  0.282100  1
  N  N1435  1  0.754100  0.051300  0.782100  1
  N  N1436  1  0.245900  0.551300  0.717900  1
  N  N1437  1  0.288600  0.956900  0.164600  1
  N  N1438  1  0.711400  0.456900  0.335400  1
  N  N1439  1  0.711400  0.043100  0.835400  1
  N  N1440  1  0.288600  0.543100  0.664600  1
  N  N1441  1  0.715600  0.945600  0.474300  1
  N  N1442  1  0.284400  0.445600  0.025700  1
  N  N1443  1  0.284400  0.054400  0.525700  1
  N  N1444  1  0.715600  0.554400  0.974300  1
  N  N1445  1  0.598800  0.939800  0.472300  1
  N  N1446  1  0.401200  0.439800  0.027700  1
  N  N1447  1  0.401200  0.060200  0.527700  1
  N  N1448  1  0.598800  0.560200  0.972300  1
  N  N1449  1  0.936100  0.659900  0.353500  1
  N  N1450  1  0.063900  0.159900  0.146500  1
  N  N1451  1  0.063900  0.340100  0.646500  1
  N  N1452  1  0.936100  0.840100  0.853500  1
  N  N1453  1  0.995400  0.710300  0.374100  1
  N  N1454  1  0.004600  0.210300  0.125900  1
  N  N1455  1  0.004600  0.289700  0.625900  1
  N  N1456  1  0.995400  0.789700  0.874100  1
  N  N1457  1  0.368800  0.641300  0.344300  1
  N  N1458  1  0.631200  0.141300  0.155700  1
  N  N1459  1  0.631200  0.358700  0.655700  1
  N  N1460  1  0.368800  0.858700  0.844300  1
  N  N1461  1  0.311000  0.685800  0.366300  1
  N  N1462  1  0.689000  0.185800  0.133700  1
  N  N1463  1  0.689000  0.314200  0.633700  1
  N  N1464  1  0.311000  0.814200  0.866300  1
  N  N1465  1  0.853700  0.600900  0.180000  1
  N  N1466  1  0.146300  0.100900  0.320000  1
  N  N1467  1  0.146300  0.399100  0.820000  1
  N  N1468  1  0.853700  0.899100  0.680000  1
  N  N1469  1  0.253100  0.599400  0.197400  1
  N  N1470  1  0.746900  0.099400  0.302600  1
  N  N1471  1  0.746900  0.400600  0.802600  1
  N  N1472  1  0.253100  0.900600  0.697400  1
  N  N1473  1  0.064300  0.775200  0.241400  1
  N  N1474  1  0.935700  0.275200  0.258600  1
  N  N1475  1  0.935700  0.224800  0.758600  1
  N  N1476  1  0.064300  0.724800  0.741400  1
  N  N1477  1  0.778400  0.600700  0.128100  1
  N  N1478  1  0.221600  0.100700  0.371900  1
  N  N1479  1  0.221600  0.399300  0.871900  1
  N  N1480  1  0.778400  0.899300  0.628100  1
  N  N1481  1  0.757300  0.770000  0.004000  1
  N  N1482  1  0.242700  0.270000  0.496000  1
  N  N1483  1  0.242700  0.230000  0.996000  1
  N  N1484  1  0.757300  0.730000  0.504000  1
  N  N1485  1  0.939200  0.592000  0.955400  1
  N  N1486  1  0.060800  0.092000  0.544600  1
  N  N1487  1  0.060800  0.408000  0.044600  1
  N  N1488  1  0.939200  0.908000  0.455400  1
  N  N1489  1  0.297600  0.595900  0.146600  1
  N  N1490  1  0.702400  0.095900  0.353400  1
  N  N1491  1  0.702400  0.404100  0.853400  1
  N  N1492  1  0.297600  0.904100  0.646600  1
  N  N1493  1  0.056300  0.590500  0.959800  1
  N  N1494  1  0.943700  0.090500  0.540200  1
  N  N1495  1  0.943700  0.409500  0.040200  1
  N  N1496  1  0.056300  0.909500  0.459800  1
  N  N1497  1  0.268200  0.763000  0.020800  1
  N  N1498  1  0.731800  0.263000  0.479200  1
  N  N1499  1  0.731800  0.237000  0.979200  1
  N  N1500  1  0.268200  0.737000  0.520800  1
  N  N1501  1  0.215600  0.815400  0.033200  1
  N  N1502  1  0.784400  0.315400  0.466800  1
  N  N1503  1  0.784400  0.184600  0.966800  1
  N  N1504  1  0.215600  0.684600  0.533200  1
  N  N1505  1  0.819600  0.820900  0.021500  1
  N  N1506  1  0.180400  0.320900  0.478500  1
  N  N1507  1  0.180400  0.179100  0.978500  1
  N  N1508  1  0.819600  0.679100  0.521500  1
  N  N1509  1  0.057200  0.826200  0.207700  1
  N  N1510  1  0.942800  0.326200  0.292300  1
  N  N1511  1  0.942800  0.173800  0.792300  1
  N  N1512  1  0.057200  0.673800  0.707700  1
  N  N1513  1  0.055600  0.630100  0.198100  1
  N  N1514  1  0.944400  0.130100  0.301900  1
  N  N1515  1  0.944400  0.369900  0.801900  1
  N  N1516  1  0.055600  0.869900  0.698100  1
  N  N1517  1  0.108700  0.673200  0.214200  1
  N  N1518  1  0.891300  0.173200  0.285800  1
  N  N1519  1  0.891300  0.326800  0.785800  1
  N  N1520  1  0.108700  0.826800  0.714200  1
  N  N1521  1  0.009500  0.673700  0.207400  1
  N  N1522  1  0.990500  0.173700  0.292600  1
  N  N1523  1  0.990500  0.326300  0.792600  1
  N  N1524  1  0.009500  0.826300  0.707400  1
  N  N1525  1  0.793600  0.669000  0.045400  1
  N  N1526  1  0.206400  0.169000  0.454600  1
  N  N1527  1  0.206400  0.331000  0.954600  1
  N  N1528  1  0.793600  0.831000  0.545400  1
  N  N1529  1  0.831500  0.667600  0.002200  1
  N  N1530  1  0.168500  0.167600  0.497800  1
  N  N1531  1  0.168500  0.332400  0.997800  1
  N  N1532  1  0.831500  0.832400  0.502200  1
  N  N1533  1  0.834700  0.625800  0.033000  1
  N  N1534  1  0.165300  0.125800  0.467000  1
  N  N1535  1  0.165300  0.374200  0.967000  1
  N  N1536  1  0.834700  0.874200  0.533000  1
  N  N1537  1  0.193600  0.620200  0.047200  1
  N  N1538  1  0.806400  0.120200  0.452800  1
  N  N1539  1  0.806400  0.379800  0.952800  1
  N  N1540  1  0.193600  0.879800  0.547200  1
  N  N1541  1  0.185400  0.662300  0.016200  1
  N  N1542  1  0.814600  0.162300  0.483800  1
  N  N1543  1  0.814600  0.337700  0.983800  1
  N  N1544  1  0.185400  0.837700  0.516200  1
  N  N1545  1  0.245300  0.662700  0.061900  1
  N  N1546  1  0.754700  0.162700  0.438100  1
  N  N1547  1  0.754700  0.337300  0.938100  1
  N  N1548  1  0.245300  0.837300  0.561900  1
  N  N1549  1  0.026200  0.823300  0.057800  1
  N  N1550  1  0.973800  0.323300  0.442200  1
  N  N1551  1  0.973800  0.176700  0.942200  1
  N  N1552  1  0.026200  0.676700  0.557800  1
  N  N1553  1  0.986100  0.827000  0.101000  1
  N  N1554  1  0.013900  0.327000  0.399000  1
  N  N1555  1  0.013900  0.173000  0.899000  1
  N  N1556  1  0.986100  0.673000  0.601000  1
  N  N1557  1  0.082900  0.826800  0.103300  1
  N  N1558  1  0.917100  0.326800  0.396700  1
  N  N1559  1  0.917100  0.173200  0.896700  1
  N  N1560  1  0.082900  0.673200  0.603300  1
  N  N1561  1  0.777500  0.564100  0.208200  1
  N  N1562  1  0.222500  0.064100  0.291800  1
  N  N1563  1  0.222500  0.435900  0.791800  1
  N  N1564  1  0.777500  0.935900  0.708200  1
  N  N1565  1  0.701000  0.564500  0.156800  1
  N  N1566  1  0.299000  0.064500  0.343200  1
  N  N1567  1  0.299000  0.435500  0.843200  1
  N  N1568  1  0.701000  0.935500  0.656800  1
  N  N1569  1  0.346400  0.564100  0.228700  1
  N  N1570  1  0.653600  0.064100  0.271300  1
  N  N1571  1  0.653600  0.435900  0.771300  1
  N  N1572  1  0.346400  0.935900  0.728700  1
  N  N1573  1  0.391700  0.560400  0.176900  1
  N  N1574  1  0.608300  0.060400  0.323100  1
  N  N1575  1  0.608300  0.439600  0.823100  1
  N  N1576  1  0.391700  0.939600  0.676900  1
  N  N1577  1  0.062900  0.862700  0.260900  1
  N  N1578  1  0.937100  0.362700  0.239100  1
  N  N1579  1  0.937100  0.137300  0.739100  1
  N  N1580  1  0.062900  0.637300  0.760900  1
  N  N1581  1  0.073300  0.810800  0.294600  1
  N  N1582  1  0.926700  0.310800  0.205400  1
  N  N1583  1  0.926700  0.189200  0.705400  1
  N  N1584  1  0.073300  0.689200  0.794600  1
  N  N1585  1  0.727000  0.856900  0.991100  1
  N  N1586  1  0.273000  0.356900  0.508900  1
  N  N1587  1  0.273000  0.143100  0.008900  1
  N  N1588  1  0.727000  0.643100  0.491100  1
  N  N1589  1  0.664900  0.806800  0.974300  1
  N  N1590  1  0.335100  0.306800  0.525700  1
  N  N1591  1  0.335100  0.193200  0.025700  1
  N  N1592  1  0.664900  0.693200  0.474300  1
  N  N1593  1  0.352000  0.795100  0.994800  1
  N  N1594  1  0.648000  0.295100  0.505200  1
  N  N1595  1  0.648000  0.204900  0.005200  1
  N  N1596  1  0.352000  0.704900  0.494800  1
  N  N1597  1  0.301400  0.848800  0.006700  1
  N  N1598  1  0.698600  0.348800  0.493300  1
  N  N1599  1  0.698600  0.151200  0.993300  1
  N  N1600  1  0.301400  0.651200  0.506700  1
  N  N1601  1  0.043900  0.547100  0.911500  1
  N  N1602  1  0.956100  0.047100  0.588500  1
  N  N1603  1  0.956100  0.452900  0.088500  1
  N  N1604  1  0.043900  0.952900  0.411500  1
  N  N1605  1  0.929200  0.549100  0.907500  1
  N  N1606  1  0.070800  0.049100  0.592500  1
  N  N1607  1  0.070800  0.450900  0.092500  1
  N  N1608  1  0.929200  0.950900  0.407500  1
  N  N1609  1  0.289000  0.699000  0.259000  1
  N  N1610  1  0.711000  0.199000  0.241000  1
  N  N1611  1  0.711000  0.301000  0.741000  1
  N  N1612  1  0.289000  0.801000  0.759000  1
  N  N1613  1  0.899500  0.810300  0.234500  1
  N  N1614  1  0.100500  0.310300  0.265500  1
  N  N1615  1  0.100500  0.189700  0.765500  1
  N  N1616  1  0.899500  0.689700  0.734500  1
  N  N1617  1  0.188800  0.786300  0.931300  1
  N  N1618  1  0.811200  0.286300  0.568700  1
  N  N1619  1  0.811200  0.213700  0.068700  1
  N  N1620  1  0.188800  0.713700  0.431300  1
  N  N1621  1  0.027000  0.646900  0.269000  1
  N  N1622  1  0.973000  0.146900  0.231000  1
  N  N1623  1  0.973000  0.353100  0.731000  1
  N  N1624  1  0.027000  0.853100  0.769000  1
  N  N1625  1  0.586000  0.992300  0.395200  1
  N  N1626  1  0.414000  0.492300  0.104800  1
  N  N1627  1  0.414000  0.007700  0.604800  1
  N  N1628  1  0.586000  0.507700  0.895200  1
  N  N1629  1  0.931900  0.888900  0.159000  1
  N  N1630  1  0.068100  0.388900  0.341000  1
  N  N1631  1  0.068100  0.111100  0.841000  1
  N  N1632  1  0.931900  0.611100  0.659000  1
  N  N1633  1  0.705100  0.647000  0.206700  1
  N  N1634  1  0.294900  0.147000  0.293300  1
  N  N1635  1  0.294900  0.353000  0.793300  1
  N  N1636  1  0.705100  0.853000  0.706700  1
  N  N1637  1  0.414900  0.705400  0.087200  1
  N  N1638  1  0.585100  0.205400  0.412800  1
  N  N1639  1  0.585100  0.294600  0.912800  1
  N  N1640  1  0.414900  0.794600  0.587200  1
  N  N1641  1  0.741100  0.733000  0.113400  1
  N  N1642  1  0.258900  0.233000  0.386600  1
  N  N1643  1  0.258900  0.267000  0.886600  1
  N  N1644  1  0.741100  0.767000  0.613400  1
  N  N1645  1  0.406000  0.821300  0.085100  1
  N  N1646  1  0.594000  0.321300  0.414900  1
  N  N1647  1  0.594000  0.178700  0.914900  1
  N  N1648  1  0.406000  0.678700  0.585100  1
  N  N1649  1  0.222500  0.821500  0.258100  1
  N  N1650  1  0.777500  0.321500  0.241900  1
  N  N1651  1  0.777500  0.178500  0.741900  1
  N  N1652  1  0.222500  0.678500  0.758100  1
  N  N1653  1  0.673400  0.643400  0.004000  1
  N  N1654  1  0.326600  0.143400  0.496000  1
  N  N1655  1  0.326600  0.356600  0.996000  1
  N  N1656  1  0.673400  0.856600  0.504000  1
  N  N1657  1  0.853000  0.526300  0.031400  1
  N  N1658  1  0.147000  0.026300  0.468600  1
  N  N1659  1  0.147000  0.473700  0.968600  1
  N  N1660  1  0.853000  0.973700  0.531400  1
  N  N1661  1  0.862200  0.505200  0.141900  1
  N  N1662  1  0.137800  0.005200  0.358100  1
  N  N1663  1  0.137800  0.494800  0.858100  1
  N  N1664  1  0.862200  0.994800  0.641900  1
  N  N1665  1  0.833300  0.707500  0.426900  1
  N  N1666  1  0.166700  0.207500  0.073100  1
  N  N1667  1  0.166700  0.292500  0.573100  1
  N  N1668  1  0.833300  0.792500  0.926900  1
  N  N1669  1  0.633300  0.824200  0.058600  1
  N  N1670  1  0.366700  0.324200  0.441400  1
  N  N1671  1  0.366700  0.175800  0.941400  1
  N  N1672  1  0.633300  0.675800  0.558600  1
  N  N1673  1  0.243700  0.862100  0.166300  1
  N  N1674  1  0.756300  0.362100  0.333700  1
  N  N1675  1  0.756300  0.137900  0.833700  1
  N  N1676  1  0.243700  0.637900  0.666300  1
  N  N1677  1  0.228000  0.496500  0.148800  1
  N  N1678  1  0.772000  0.996500  0.351200  1
  N  N1679  1  0.772000  0.503500  0.851200  1
  N  N1680  1  0.228000  0.003500  0.648800  1
  N  N1681  1  0.488000  0.692900  0.423200  1
  N  N1682  1  0.512000  0.192900  0.076800  1
  N  N1683  1  0.512000  0.307100  0.576800  1
  N  N1684  1  0.488000  0.807100  0.923200  1
  N  N1685  1  0.972000  0.868100  0.367300  1
  N  N1686  1  0.028000  0.368100  0.132700  1
  N  N1687  1  0.028000  0.131900  0.632700  1
  N  N1688  1  0.972000  0.631900  0.867300  1
  N  N1689  1  0.383000  0.668600  0.209700  1
  N  N1690  1  0.617000  0.168600  0.290300  1
  N  N1691  1  0.617000  0.331400  0.790300  1
  N  N1692  1  0.383000  0.831400  0.709700  1
  N  N1693  1  0.975800  0.695000  0.280000  1
  N  N1694  1  0.024200  0.195000  0.220000  1
  N  N1695  1  0.024200  0.305000  0.720000  1
  N  N1696  1  0.975800  0.805000  0.780000  1
  N  N1697  1  0.370000  0.803200  0.097300  1
  N  N1698  1  0.630000  0.303200  0.402700  1
  N  N1699  1  0.630000  0.196800  0.902700  1
  N  N1700  1  0.370000  0.696800  0.597300  1
  N  N1701  1  0.215500  0.500300  0.172600  1
  N  N1702  1  0.784500  0.000300  0.327400  1
  N  N1703  1  0.784500  0.499700  0.827400  1
  N  N1704  1  0.215500  0.999700  0.672600  1
  N  N1705  1  0.480000  0.667000  0.426000  1
  N  N1706  1  0.520000  0.167000  0.074000  1
  N  N1707  1  0.520000  0.333000  0.574000  1
  N  N1708  1  0.480000  0.833000  0.926000  1
  N  N1709  1  0.485000  0.704700  0.426700  1
  N  N1710  1  0.515000  0.204700  0.073300  1
  N  N1711  1  0.515000  0.295300  0.573300  1
  N  N1712  1  0.485000  0.795300  0.926700  1
  N  N1713  1  0.013400  0.508100  0.007800  1
  N  N1714  1  0.986600  0.008100  0.492200  1
  N  N1715  1  0.986600  0.491900  0.992200  1
  N  N1716  1  0.013400  0.991900  0.507800  1
  O  O1717  1  0.112700  0.624100  0.124600  1
  O  O1718  1  0.887300  0.124100  0.375400  1
  O  O1719  1  0.887300  0.375900  0.875400  1
  O  O1720  1  0.112700  0.875900  0.624600  1
  O  O1721  1  0.933500  0.625200  0.113000  1
  O  O1722  1  0.066500  0.125200  0.387000  1
  O  O1723  1  0.066500  0.374800  0.887000  1
  O  O1724  1  0.933500  0.874800  0.613000  1
  O  O1725  1  0.015700  0.621500  0.037700  1
  O  O1726  1  0.984300  0.121500  0.462300  1
  O  O1727  1  0.984300  0.378500  0.962300  1
  O  O1728  1  0.015700  0.878500  0.537700  1
  O  O1729  1  0.022600  0.756000  0.089500  1
  O  O1730  1  0.977400  0.256000  0.410500  1
  O  O1731  1  0.977400  0.244000  0.910500  1
  O  O1732  1  0.022600  0.744000  0.589500  1
  O  O1733  1  0.039200  0.678400  0.141800  1
  O  O1734  1  0.960800  0.178400  0.358200  1
  O  O1735  1  0.960800  0.321600  0.858200  1
  O  O1736  1  0.039200  0.821600  0.641800  1
  O  O1737  1  0.931700  0.674500  0.057800  1
  O  O1738  1  0.068300  0.174500  0.442200  1
  O  O1739  1  0.068300  0.325500  0.942200  1
  O  O1740  1  0.931700  0.825500  0.557800  1
  O  O1741  1  0.946000  0.793900  0.964900  1
  O  O1742  1  0.054000  0.293900  0.535100  1
  O  O1743  1  0.054000  0.206100  0.035100  1
  O  O1744  1  0.946000  0.706100  0.464900  1
  O  O1745  1  0.901100  0.707100  0.943900  1
  O  O1746  1  0.098900  0.207100  0.556100  1
  O  O1747  1  0.098900  0.292900  0.056100  1
  O  O1748  1  0.901100  0.792900  0.443900  1
  O  O1749  1  0.911000  0.746700  0.029200  1
  O  O1750  1  0.089000  0.246700  0.470800  1
  O  O1751  1  0.089000  0.253300  0.970800  1
  O  O1752  1  0.911000  0.753300  0.529200  1
  O  O1753  1  0.529400  0.897800  0.251800  1
  O  O1754  1  0.470600  0.397800  0.248200  1
  O  O1755  1  0.470600  0.102200  0.748200  1
  O  O1756  1  0.529400  0.602200  0.751800  1
  O  O1757  1  0.640200  0.889800  0.334300  1
  O  O1758  1  0.359800  0.389800  0.165700  1
  O  O1759  1  0.359800  0.110200  0.665700  1
  O  O1760  1  0.640200  0.610200  0.834300  1
  O  O1761  1  0.706500  0.897700  0.255600  1
  O  O1762  1  0.293500  0.397700  0.244400  1
  O  O1763  1  0.293500  0.102300  0.744400  1
  O  O1764  1  0.706500  0.602300  0.755600  1
  O  O1765  1  0.625000  0.764800  0.269700  1
  O  O1766  1  0.375000  0.264800  0.230300  1
  O  O1767  1  0.375000  0.235200  0.730300  1
  O  O1768  1  0.625000  0.735200  0.769700  1
  O  O1769  1  0.613600  0.845700  0.222500  1
  O  O1770  1  0.386400  0.345700  0.277500  1
  O  O1771  1  0.386400  0.154300  0.777500  1
  O  O1772  1  0.613600  0.654300  0.722500  1
  O  O1773  1  0.716400  0.839000  0.306100  1
  O  O1774  1  0.283600  0.339000  0.193900  1
  O  O1775  1  0.283600  0.161000  0.693900  1
  O  O1776  1  0.716400  0.661000  0.806100  1
  O  O1777  1  0.471000  0.845300  0.231100  1
  O  O1778  1  0.529000  0.345300  0.268900  1
  O  O1779  1  0.529000  0.154700  0.768900  1
  O  O1780  1  0.471000  0.654700  0.731100  1
  O  O1781  1  0.557100  0.777500  0.194600  1
  O  O1782  1  0.442900  0.277500  0.305400  1
  O  O1783  1  0.442900  0.222500  0.805400  1
  O  O1784  1  0.557100  0.722500  0.694600  1
  O  O1785  1  0.497000  0.763200  0.273800  1
  O  O1786  1  0.503000  0.263200  0.226200  1
  O  O1787  1  0.503000  0.236800  0.726200  1
  O  O1788  1  0.497000  0.736800  0.773800  1
  O  O1789  1  0.315000  0.694000  0.238400  1
  O  O1790  1  0.685000  0.194000  0.261600  1
  O  O1791  1  0.685000  0.306000  0.761600  1
  O  O1792  1  0.315000  0.806000  0.738400  1
  O  O1793  1  0.311000  0.693000  0.283100  1
  O  O1794  1  0.689000  0.193000  0.216900  1
  O  O1795  1  0.689000  0.307000  0.716900  1
  O  O1796  1  0.311000  0.807000  0.783100  1
  O  O1797  1  0.239000  0.703000  0.252200  1
  O  O1798  1  0.761000  0.203000  0.247800  1
  O  O1799  1  0.761000  0.297000  0.747800  1
  O  O1800  1  0.239000  0.797000  0.752200  1
  O  O1801  1  0.887700  0.835300  0.223600  1
  O  O1802  1  0.112300  0.335300  0.276400  1
  O  O1803  1  0.112300  0.164700  0.776400  1
  O  O1804  1  0.887700  0.664700  0.723600  1
  O  O1805  1  0.924700  0.809200  0.258200  1
  O  O1806  1  0.075300  0.309200  0.241800  1
  O  O1807  1  0.075300  0.190800  0.741800  1
  O  O1808  1  0.924700  0.690800  0.758200  1
  O  O1809  1  0.888800  0.790200  0.218200  1
  O  O1810  1  0.111200  0.290200  0.281800  1
  O  O1811  1  0.111200  0.209800  0.781800  1
  O  O1812  1  0.888800  0.709800  0.718200  1
  O  O1813  1  0.159200  0.765300  0.937700  1
  O  O1814  1  0.840800  0.265300  0.562300  1
  O  O1815  1  0.840800  0.234700  0.062300  1
  O  O1816  1  0.159200  0.734700  0.437700  1
  O  O1817  1  0.202200  0.803900  0.950300  1
  O  O1818  1  0.797800  0.303900  0.549700  1
  O  O1819  1  0.797800  0.196100  0.049700  1
  O  O1820  1  0.202200  0.696100  0.450300  1
  O  O1821  1  0.171500  0.795200  0.907500  1
  O  O1822  1  0.828500  0.295200  0.592500  1
  O  O1823  1  0.828500  0.204800  0.092500  1
  O  O1824  1  0.171500  0.704800  0.407500  1
  O  O1825  1  0.980000  0.635200  0.263000  1
  O  O1826  1  0.020000  0.135200  0.237000  1
  O  O1827  1  0.020000  0.364800  0.737000  1
  O  O1828  1  0.980000  0.864800  0.763000  1
  O  O1829  1  0.067000  0.631500  0.268000  1
  O  O1830  1  0.933000  0.131500  0.232000  1
  O  O1831  1  0.933000  0.368500  0.732000  1
  O  O1832  1  0.067000  0.868500  0.768000  1
  O  O1833  1  0.027300  0.671100  0.279000  1
  O  O1834  1  0.972700  0.171100  0.221000  1
  O  O1835  1  0.972700  0.328900  0.721000  1
  O  O1836  1  0.027300  0.828900  0.779000  1
  O  O1837  1  0.576400  0.014600  0.410200  1
  O  O1838  1  0.423600  0.514600  0.089800  1
  O  O1839  1  0.423600  0.985400  0.589800  1
  O  O1840  1  0.576400  0.485400  0.910200  1
  O  O1841  1  0.546000  0.983400  0.378100  1
  O  O1842  1  0.454000  0.483400  0.121900  1
  O  O1843  1  0.454000  0.016600  0.621900  1
  O  O1844  1  0.546000  0.516600  0.878100  1
  O  O1845  1  0.633100  0.985100  0.401400  1
  O  O1846  1  0.366900  0.485100  0.098600  1
  O  O1847  1  0.366900  0.014900  0.598600  1
  O  O1848  1  0.633100  0.514900  0.901400  1
  O  O1849  1  0.893300  0.878300  0.139900  1
  O  O1850  1  0.106700  0.378300  0.360100  1
  O  O1851  1  0.106700  0.121700  0.860100  1
  O  O1852  1  0.893300  0.621700  0.639900  1
  O  O1853  1  0.925200  0.891000  0.183700  1
  O  O1854  1  0.074800  0.391000  0.316300  1
  O  O1855  1  0.074800  0.109000  0.816300  1
  O  O1856  1  0.925200  0.609000  0.683700  1
  O  O1857  1  0.966700  0.902400  0.149500  1
  O  O1858  1  0.033300  0.402400  0.350500  1
  O  O1859  1  0.033300  0.097600  0.850500  1
  O  O1860  1  0.966700  0.597600  0.649500  1
  O  O1861  1  0.749000  0.656800  0.223100  1
  O  O1862  1  0.251000  0.156800  0.276900  1
  O  O1863  1  0.251000  0.343200  0.776900  1
  O  O1864  1  0.749000  0.843200  0.723100  1
  O  O1865  1  0.668900  0.637000  0.219800  1
  O  O1866  1  0.331100  0.137000  0.280200  1
  O  O1867  1  0.331100  0.363000  0.780200  1
  O  O1868  1  0.668900  0.863000  0.719800  1
  O  O1869  1  0.711800  0.645500  0.181700  1
  O  O1870  1  0.288200  0.145500  0.318300  1
  O  O1871  1  0.288200  0.354500  0.818300  1
  O  O1872  1  0.711800  0.854500  0.681700  1
  O  O1873  1  0.435000  0.724600  0.104700  1
  O  O1874  1  0.565000  0.224600  0.395300  1
  O  O1875  1  0.565000  0.275400  0.895300  1
  O  O1876  1  0.435000  0.775400  0.604700  1
  O  O1877  1  0.388900  0.686300  0.097000  1
  O  O1878  1  0.611100  0.186300  0.403000  1
  O  O1879  1  0.611100  0.313700  0.903000  1
  O  O1880  1  0.388900  0.813700  0.597000  1
  O  O1881  1  0.413200  0.711900  0.062200  1
  O  O1882  1  0.586800  0.211900  0.437800  1
  O  O1883  1  0.586800  0.288100  0.937800  1
  O  O1884  1  0.413200  0.788100  0.562200  1
  O  O1885  1  0.720600  0.709500  0.104700  1
  O  O1886  1  0.279400  0.209500  0.395300  1
  O  O1887  1  0.279400  0.290500  0.895300  1
  O  O1888  1  0.720600  0.790500  0.604700  1
  O  O1889  1  0.743100  0.751800  0.095500  1
  O  O1890  1  0.256900  0.251800  0.404500  1
  O  O1891  1  0.256900  0.248200  0.904500  1
  O  O1892  1  0.743100  0.748200  0.595500  1
  O  O1893  1  0.759100  0.736400  0.138900  1
  O  O1894  1  0.240900  0.236400  0.361100  1
  O  O1895  1  0.240900  0.263600  0.861100  1
  O  O1896  1  0.759100  0.763600  0.638900  1
  O  O1897  1  0.400000  0.840600  0.103900  1
  O  O1898  1  0.600000  0.340600  0.396100  1
  O  O1899  1  0.600000  0.159400  0.896100  1
  O  O1900  1  0.400000  0.659400  0.603900  1
  O  O1901  1  0.439000  0.828100  0.069700  1
  O  O1902  1  0.561000  0.328100  0.430300  1
  O  O1903  1  0.561000  0.171900  0.930300  1
  O  O1904  1  0.439000  0.671900  0.569700  1
  O  O1905  1  0.348000  0.814000  0.075000  1
  O  O1906  1  0.652000  0.314000  0.425000  1
  O  O1907  1  0.652000  0.186000  0.925000  1
  O  O1908  1  0.348000  0.686000  0.575000  1
  O  O1909  1  0.262500  0.810300  0.276300  1
  O  O1910  1  0.737500  0.310300  0.223700  1
  O  O1911  1  0.737500  0.189700  0.723700  1
  O  O1912  1  0.262500  0.689700  0.776300  1
  O  O1913  1  0.215000  0.808200  0.235700  1
  O  O1914  1  0.785000  0.308200  0.264300  1
  O  O1915  1  0.785000  0.191800  0.764300  1
  O  O1916  1  0.215000  0.691800  0.735700  1
  O  O1917  1  0.222000  0.847500  0.262300  1
  O  O1918  1  0.778000  0.347500  0.237700  1
  O  O1919  1  0.778000  0.152500  0.737700  1
  O  O1920  1  0.222000  0.652500  0.762300  1
  O  O1921  1  0.693000  0.625700  0.023600  1
  O  O1922  1  0.307000  0.125700  0.476400  1
  O  O1923  1  0.307000  0.374300  0.976400  1
  O  O1924  1  0.693000  0.874300  0.523600  1
  O  O1925  1  0.688800  0.642500  0.981100  1
  O  O1926  1  0.311200  0.142500  0.518900  1
  O  O1927  1  0.311200  0.357500  0.018900  1
  O  O1928  1  0.688800  0.857500  0.481100  1
  O  O1929  1  0.652900  0.665100  0.011900  1
  O  O1930  1  0.347100  0.165100  0.488100  1
  O  O1931  1  0.347100  0.334900  0.988100  1
  O  O1932  1  0.652900  0.834900  0.511900  1
  O  O1933  1  0.820700  0.504700  0.024600  1
  O  O1934  1  0.179300  0.004700  0.475400  1
  O  O1935  1  0.179300  0.495300  0.975400  1
  O  O1936  1  0.820700  0.995300  0.524600  1
  O  O1937  1  0.844400  0.540400  0.051300  1
  O  O1938  1  0.155600  0.040400  0.448700  1
  O  O1939  1  0.155600  0.459600  0.948700  1
  O  O1940  1  0.844400  0.959600  0.551300  1
  O  O1941  1  0.890800  0.528500  0.018500  1
  O  O1942  1  0.109200  0.028500  0.481500  1
  O  O1943  1  0.109200  0.471500  0.981500  1
  O  O1944  1  0.890800  0.971500  0.518500  1
  O  O1945  1  0.839300  0.528600  0.147800  1
  O  O1946  1  0.160700  0.028600  0.352200  1
  O  O1947  1  0.160700  0.471400  0.852200  1
  O  O1948  1  0.839300  0.971400  0.647800  1
  O  O1949  1  0.829000  0.487600  0.130500  1
  O  O1950  1  0.171000  0.987600  0.369500  1
  O  O1951  1  0.171000  0.512400  0.869500  1
  O  O1952  1  0.829000  0.012400  0.630500  1
  O  O1953  1  0.902000  0.500300  0.160400  1
  O  O1954  1  0.098000  0.000300  0.339600  1
  O  O1955  1  0.098000  0.499700  0.839600  1
  O  O1956  1  0.902000  0.999700  0.660400  1
  O  O1957  1  0.808400  0.689400  0.440600  1
  O  O1958  1  0.191600  0.189400  0.059400  1
  O  O1959  1  0.191600  0.310600  0.559400  1
  O  O1960  1  0.808400  0.810600  0.940600  1
  O  O1961  1  0.860100  0.696200  0.410600  1
  O  O1962  1  0.139900  0.196200  0.089400  1
  O  O1963  1  0.139900  0.303800  0.589400  1
  O  O1964  1  0.860100  0.803800  0.910600  1
  O  O1965  1  0.813000  0.731300  0.424300  1
  O  O1966  1  0.187000  0.231300  0.075700  1
  O  O1967  1  0.187000  0.268700  0.575700  1
  O  O1968  1  0.813000  0.768700  0.924300  1
  O  O1969  1  0.586900  0.811900  0.051200  1
  O  O1970  1  0.413100  0.311900  0.448800  1
  O  O1971  1  0.413100  0.188100  0.948800  1
  O  O1972  1  0.586900  0.688100  0.551200  1
  O  O1973  1  0.673300  0.810700  0.054300  1
  O  O1974  1  0.326700  0.310700  0.445700  1
  O  O1975  1  0.326700  0.189300  0.945700  1
  O  O1976  1  0.673300  0.689300  0.554300  1
  O  O1977  1  0.631100  0.849000  0.066500  1
  O  O1978  1  0.368900  0.349000  0.433500  1
  O  O1979  1  0.368900  0.151000  0.933500  1
  O  O1980  1  0.631100  0.651000  0.566500  1
  O  O1981  1  0.736000  0.864000  0.090000  1
  O  O1982  1  0.264000  0.364000  0.410000  1
  O  O1983  1  0.264000  0.136000  0.910000  1
  O  O1984  1  0.736000  0.636000  0.590000  1
  O  O1985  1  0.288000  0.848100  0.176300  1
  O  O1986  1  0.712000  0.348100  0.323700  1
  O  O1987  1  0.712000  0.151900  0.823700  1
  O  O1988  1  0.288000  0.651900  0.676300  1
  O  O1989  1  0.220000  0.852300  0.143600  1
  O  O1990  1  0.780000  0.352300  0.356400  1
  O  O1991  1  0.780000  0.147700  0.856400  1
  O  O1992  1  0.220000  0.647700  0.643600  1
  O  O1993  1  0.220000  0.869300  0.185400  1
  O  O1994  1  0.780000  0.369300  0.314600  1
  O  O1995  1  0.780000  0.130700  0.814600  1
  O  O1996  1  0.220000  0.630700  0.685400  1
  O  O1997  1  0.242000  0.489600  0.124900  1
  O  O1998  1  0.758000  0.989600  0.375100  1
  O  O1999  1  0.758000  0.510400  0.875100  1
  O  O2000  1  0.242000  0.010400  0.624900  1
  O  O2001  1  0.248000  0.518800  0.159700  1
  O  O2002  1  0.752000  0.018800  0.340300  1
  O  O2003  1  0.752000  0.481200  0.840300  1
  O  O2004  1  0.248000  0.981200  0.659700  1
  O  O2005  1  0.207000  0.477300  0.160600  1
  O  O2006  1  0.793000  0.977300  0.339400  1
  O  O2007  1  0.793000  0.522700  0.839400  1
  O  O2008  1  0.207000  0.022700  0.660600  1
  O  O2009  1  0.163000  0.513000  0.205600  1
  O  O2010  1  0.837000  0.013000  0.294400  1
  O  O2011  1  0.837000  0.487000  0.794400  1
  O  O2012  1  0.163000  0.987000  0.705600  1
  O  O2013  1  0.468000  0.710900  0.439800  1
  O  O2014  1  0.532000  0.210900  0.060200  1
  O  O2015  1  0.532000  0.289100  0.560200  1
  O  O2016  1  0.468000  0.789100  0.939800  1
  O  O2017  1  0.454000  0.677200  0.409100  1
  O  O2018  1  0.546000  0.177200  0.090900  1
  O  O2019  1  0.546000  0.322800  0.590900  1
  O  O2020  1  0.454000  0.822800  0.909100  1
  O  O2021  1  0.527000  0.702000  0.413600  1
  O  O2022  1  0.473000  0.202000  0.086400  1
  O  O2023  1  0.473000  0.298000  0.586400  1
  O  O2024  1  0.527000  0.798000  0.913600  1
  O  O2025  1  0.992400  0.516400  0.982900  1
  O  O2026  1  0.007600  0.016400  0.517100  1
  O  O2027  1  0.007600  0.483600  0.017100  1
  O  O2028  1  0.992400  0.983600  0.482900  1
  O  O2029  1  0.042000  0.526600  0.021300  1
  O  O2030  1  0.958000  0.026600  0.478700  1
  O  O2031  1  0.958000  0.473400  0.978700  1
  O  O2032  1  0.042000  0.973400  0.521300  1
  O  O2033  1  0.999000  0.844400  0.368400  1
  O  O2034  1  0.001000  0.344400  0.131600  1
  O  O2035  1  0.001000  0.155600  0.631600  1
  O  O2036  1  0.999000  0.655600  0.868400  1
  O  O2037  1  0.973000  0.883600  0.346700  1
  O  O2038  1  0.027000  0.383600  0.153300  1
  O  O2039  1  0.027000  0.116400  0.653300  1
  O  O2040  1  0.973000  0.616400  0.846700  1
  O  O2041  1  0.966000  0.875000  0.391200  1
  O  O2042  1  0.034000  0.375000  0.108800  1
  O  O2043  1  0.034000  0.125000  0.608800  1
  O  O2044  1  0.966000  0.625000  0.891200  1
  O  O2045  1  0.948000  0.815000  0.420000  1
  O  O2046  1  0.052000  0.315000  0.080000  1
  O  O2047  1  0.052000  0.185000  0.580000  1
  O  O2048  1  0.948000  0.685000  0.920000  1
  O  O2049  1  0.082000  0.747900  0.156800  1
  O  O2050  1  0.918000  0.247900  0.343200  1
  O  O2051  1  0.918000  0.252100  0.843200  1
  O  O2052  1  0.082000  0.752100  0.656800  1
  O  O2053  1  0.185000  0.676200  0.136000  1
  O  O2054  1  0.815000  0.176200  0.364000  1
  O  O2055  1  0.815000  0.323800  0.864000  1
  O  O2056  1  0.185000  0.823800  0.636000  1
  O  O2057  1  0.109000  0.677100  0.070900  1
  O  O2058  1  0.891000  0.177100  0.429100  1
  O  O2059  1  0.891000  0.322900  0.929100  1
  O  O2060  1  0.109000  0.822900  0.570900  1
  O  O2061  1  0.543000  0.833300  0.295800  1
  O  O2062  1  0.457000  0.333300  0.204200  1
  O  O2063  1  0.457000  0.166700  0.704200  1
  O  O2064  1  0.543000  0.666700  0.795800  1
  O  O2065  1  0.706000  0.895000  0.270500  1
  O  O2066  1  0.294000  0.395000  0.229500  1
  O  O2067  1  0.294000  0.105000  0.729500  1
  O  O2068  1  0.706000  0.605000  0.770500  1
  O  O2069  1  0.527000  0.890000  0.265500  1
  O  O2070  1  0.473000  0.390000  0.234500  1
  O  O2071  1  0.473000  0.110000  0.734500  1
  O  O2072  1  0.527000  0.610000  0.765500  1
  O  O2073  1  0.635000  0.882600  0.347400  1
  O  O2074  1  0.365000  0.382600  0.152600  1
  O  O2075  1  0.365000  0.117400  0.652600  1
  O  O2076  1  0.635000  0.617400  0.847400  1
  O  O2077  1  0.758800  0.792800  0.419600  1
  O  O2078  1  0.241200  0.292800  0.080400  1
  O  O2079  1  0.241200  0.207200  0.580400  1
  O  O2080  1  0.758800  0.707200  0.919600  1
  O  O2081  1  0.741200  0.770400  0.329700  1
  O  O2082  1  0.258800  0.270400  0.170300  1
  O  O2083  1  0.258800  0.229600  0.670300  1
  O  O2084  1  0.741200  0.729600  0.829700  1
  O  O2085  1  0.588000  0.769700  0.179300  1
  O  O2086  1  0.412000  0.269700  0.320700  1
  O  O2087  1  0.412000  0.230300  0.820700  1
  O  O2088  1  0.588000  0.730300  0.679300  1
  O  O2089  1  0.616000  0.849600  0.228000  1
  O  O2090  1  0.384000  0.349600  0.272000  1
  O  O2091  1  0.384000  0.150400  0.772000  1
  O  O2092  1  0.616000  0.650400  0.728000  1
  O  O2093  1  0.644000  0.768000  0.271300  1
  O  O2094  1  0.356000  0.268000  0.228700  1
  O  O2095  1  0.356000  0.232000  0.728700  1
  O  O2096  1  0.644000  0.732000  0.771300  1
  O  O2097  1  0.349000  0.679100  0.188600  1
  O  O2098  1  0.651000  0.179100  0.311400  1
  O  O2099  1  0.651000  0.320900  0.811400  1
  O  O2100  1  0.349000  0.820900  0.688600  1
  O  O2101  1  0.431200  0.670100  0.207200  1
  O  O2102  1  0.568800  0.170100  0.292800  1
  O  O2103  1  0.568800  0.329900  0.792800  1
  O  O2104  1  0.431200  0.829900  0.707200  1
  O  O2105  1  0.364000  0.669000  0.231800  1
  O  O2106  1  0.636000  0.169000  0.268200  1
  O  O2107  1  0.636000  0.331000  0.768200  1
  O  O2108  1  0.364000  0.831000  0.731800  1
  O  O2109  1  0.292000  0.688800  0.272700  1
  O  O2110  1  0.708000  0.188800  0.227300  1
  O  O2111  1  0.708000  0.311200  0.727300  1
  O  O2112  1  0.292000  0.811200  0.772700  1
  O  O2113  1  0.393500  0.646600  0.209200  1
  O  O2114  1  0.606500  0.146600  0.290800  1
  O  O2115  1  0.606500  0.353400  0.790800  1
  O  O2116  1  0.393500  0.853400  0.709200  1
  O  O2117  1  0.939600  0.683000  0.261200  1
  O  O2118  1  0.060400  0.183000  0.238800  1
  O  O2119  1  0.060400  0.317000  0.738800  1
  O  O2120  1  0.939600  0.817000  0.761200  1
  O  O2121  1  0.965000  0.718700  0.287600  1
  O  O2122  1  0.035000  0.218700  0.212400  1
  O  O2123  1  0.035000  0.281300  0.712400  1
  O  O2124  1  0.965000  0.781300  0.787600  1
  O  O2125  1  0.021000  0.684300  0.283000  1
  O  O2126  1  0.979000  0.184300  0.217000  1
  O  O2127  1  0.979000  0.315700  0.717000  1
  O  O2128  1  0.021000  0.815700  0.783000  1
  O  O2129  1  0.028000  0.618600  0.266100  1
  O  O2130  1  0.972000  0.118600  0.233900  1
  O  O2131  1  0.972000  0.381400  0.733900  1
  O  O2132  1  0.028000  0.881400  0.766100  1
  O  O2133  1  0.374000  0.801500  0.083400  1
  O  O2134  1  0.626000  0.301500  0.416600  1
  O  O2135  1  0.626000  0.198500  0.916600  1
  O  O2136  1  0.374000  0.698500  0.583400  1
  O  O2137  1  0.392000  0.823000  0.114900  1
  O  O2138  1  0.608000  0.323000  0.385100  1
  O  O2139  1  0.608000  0.177000  0.885100  1
  O  O2140  1  0.392000  0.677000  0.614900  1
  O  O2141  1  0.397000  0.781100  0.098000  1
  O  O2142  1  0.603000  0.281100  0.402000  1
  O  O2143  1  0.603000  0.218900  0.902000  1
  O  O2144  1  0.397000  0.718900  0.598000  1
  O  O2145  1  0.191400  0.501700  0.194500  1
  O  O2146  1  0.808600  0.001700  0.305500  1
  O  O2147  1  0.808600  0.498300  0.805500  1
  O  O2148  1  0.191400  0.998300  0.694500  1
  O  O2149  1  0.246300  0.520100  0.169200  1
  O  O2150  1  0.753700  0.020100  0.330800  1
  O  O2151  1  0.753700  0.479900  0.830800  1
  O  O2152  1  0.246300  0.979900  0.669200  1
  O  O2153  1  0.198000  0.482000  0.155100  1
  O  O2154  1  0.802000  0.982000  0.344900  1
  O  O2155  1  0.802000  0.518000  0.844900  1
  O  O2156  1  0.198000  0.018000  0.655100  1
  O  O2157  1  0.254000  0.502000  0.105300  1
  O  O2158  1  0.746000  0.002000  0.394700  1
  O  O2159  1  0.746000  0.498000  0.894700  1
  O  O2160  1  0.254000  0.998000  0.605300  1
  O  O2161  1  0.431000  0.661000  0.431000  1
  O  O2162  1  0.569000  0.161000  0.069000  1
  O  O2163  1  0.569000  0.339000  0.569000  1
  O  O2164  1  0.431000  0.839000  0.931000  1
  O  O2165  1  0.512000  0.676000  0.447000  1
  O  O2166  1  0.488000  0.176000  0.053000  1
  O  O2167  1  0.488000  0.324000  0.553000  1
  O  O2168  1  0.512000  0.824000  0.947000  1
  O  O2169  1  0.481000  0.674000  0.402000  1
  O  O2170  1  0.519000  0.174000  0.098000  1
  O  O2171  1  0.519000  0.326000  0.598000  1
  O  O2172  1  0.481000  0.826000  0.902000  1
  O  O2173  1  0.485000  0.697400  0.452800  1
  O  O2174  1  0.515000  0.197400  0.047200  1
  O  O2175  1  0.515000  0.302600  0.547200  1
  O  O2176  1  0.485000  0.802600  0.952800  1
  O  O2177  1  0.471000  0.686200  0.408700  1
  O  O2178  1  0.529000  0.186200  0.091300  1
  O  O2179  1  0.529000  0.313800  0.591300  1
  O  O2180  1  0.471000  0.813800  0.908700  1
  O  O2181  1  0.513000  0.726100  0.424400  1
  O  O2182  1  0.487000  0.226100  0.075600  1
  O  O2183  1  0.487000  0.273900  0.575600  1
  O  O2184  1  0.513000  0.773900  0.924400  1
