
#######################################################################
#
#                 Cambridge Crystallographic Data Centre
#                                CCDC 
#
#######################################################################
#
# If this CIF has been generated from an entry in the Cambridge 
# Structural Database, then it will include bibliographic, chemical, 
# crystal, experimental, refinement or atomic coordinate data resulting 
# from the CCDC's data processing and validation procedures.
#
#######################################################################

data_KEHLEP
_chemical_formula_moiety         
'C108 H144 N36 Pd6 6+,3.84(C9 H7 Mn1 O3),6(N1 O3 1-),63(H2 O1)'
_chemical_name_systematic        
"tetrakis(\m~3~-2,4,6-tris(4-Pyridyl)-1,3,5-triazine)-hexakis(N,N,N',N'-tetramethylethylene-1,2-diamine)-hexa-palladium (tricarbonyl-(\h^5^-methyl-cyclopentadienyl)-manganese) clathrate hexanitrate hydrate"
_symmetry_cell_setting           monoclinic
_symmetry_space_group_name_H-M   'P 21/c'
_symmetry_Int_Tables_number      14
_space_group_name_Hall           '-P 2ybc'
loop_
_symmetry_equiv_pos_site_id
_symmetry_equiv_pos_as_xyz
1 x,y,z
2 -x,1/2+y,1/2-z
3 -x,-y,-z
4 x,1/2-y,1/2+z
_cell_length_a                   24.3225(4)
_cell_length_b                   45.7184(6)
_cell_length_c                   46.6645(7)
_cell_angle_alpha                90
_cell_angle_beta                 99.5401(4)
_cell_angle_gamma                90
_cell_volume                     51172.6
_exptl_crystal_colour            green-yellow
_exptl_crystal_description       block
_cell_formula_units_Z            8
_exptl_crystal_preparation       'irradiated product'
loop_
_atom_site_label
_atom_site_type_symbol
_atom_site_fract_x
_atom_site_fract_y
_atom_site_fract_z
Pd1 Pd 0.85492(8) 0.95126(5) 0.20534(4)
Pd2 Pd 0.57655(7) 0.71853(4) 0.10028(4)
Pd3 Pd 0.31600(8) 0.93362(5) 0.20150(5)
Pd4 Pd 0.65363(7) 0.92377(4) 0.44658(4)
Pd5 Pd 0.91743(8) 0.70401(5) 0.35077(4)
Pd6 Pd 0.37950(8) 0.68510(5) 0.34434(4)
N1 N 0.7825(8) 0.9313(5) 0.1908(4)
C1 C 0.7791(11) 0.9069(5) 0.1775(5)
C2 C 0.7310(10) 0.8918(6) 0.1684(6)
C3 C 0.6829(10) 0.9026(6) 0.1744(6)
C4 C 0.6822(11) 0.9287(6) 0.1877(6)
C5 C 0.7344(10) 0.9427(6) 0.1964(5)
N2 N 0.5759(8) 0.7612(4) 0.1094(4)
C6 C 0.5293(10) 0.7750(6) 0.1146(5)
C7 C 0.5277(10) 0.8025(6) 0.1245(5)
C8 C 0.5777(10) 0.8184(5) 0.1318(5)
C9 C 0.6274(10) 0.8053(6) 0.1263(6)
C10 C 0.6241(10) 0.7769(6) 0.1153(5)
N3 N 0.3853(8) 0.9189(5) 0.1862(4)
C11 C 0.4337(11) 0.9334(6) 0.1930(6)
C12 C 0.4831(11) 0.9234(6) 0.1860(6)
C13 C 0.4831(11) 0.8961(6) 0.1716(6)
C14 C 0.4308(10) 0.8815(6) 0.1643(6)
C15 C 0.3836(11) 0.8933(6) 0.1721(6)
N4 N 0.8545(8) 0.9286(5) 0.2434(4)
C16 C 0.8335(9) 0.9412(6) 0.2661(5)
C17 C 0.8281(10) 0.9259(6) 0.2899(6)
C18 C 0.8438(9) 0.8971(6) 0.2922(5)
C19 C 0.8645(9) 0.8847(6) 0.2693(5)
C20 C 0.8682(10) 0.9006(6) 0.2459(5)
N5 N 0.7075(8) 0.9085(5) 0.4208(4)
C21 C 0.7290(10) 0.8819(6) 0.4241(5)
C22 C 0.7629(9) 0.8699(6) 0.4052(5)
C23 C 0.7718(10) 0.8868(6) 0.3815(5)
C24 C 0.7503(10) 0.9133(6) 0.3782(5)
C25 C 0.7172(10) 0.9252(6) 0.3979(5)
N6 N 0.9006(8) 0.7469(5) 0.3491(4)
C26 C 0.9060(10) 0.7646(6) 0.3262(5)
C27 C 0.8896(10) 0.7930(7) 0.3232(6)
C28 C 0.8671(10) 0.8062(6) 0.3445(6)
C29 C 0.8625(11) 0.7872(7) 0.3684(6)
C30 C 0.8753(11) 0.7585(7) 0.3695(6)
N7 N 0.5878(7) 0.7105(4) 0.1438(4)
C31 C 0.6392(9) 0.7119(5) 0.1597(5)
C32 C 0.6488(9) 0.7089(5) 0.1886(5)
C33 C 0.6052(9) 0.7037(5) 0.2040(5)
C34 C 0.5535(9) 0.7018(5) 0.1883(5)
C35 C 0.5451(9) 0.7064(5) 0.1586(5)
N8 N 0.8408(8) 0.6989(5) 0.3270(4)
C36 C 0.7936(11) 0.6942(6) 0.3403(6)
C37 C 0.7411(11) 0.6940(6) 0.3256(5)
C38 C 0.7325(10) 0.6964(6) 0.2954(5)
C39 C 0.7789(11) 0.6997(6) 0.2817(6)
C40 C 0.8323(10) 0.7001(6) 0.2984(5)
N9 N 0.4448(8) 0.6844(5) 0.3221(4)
C41 C 0.4364(11) 0.6862(6) 0.2936(5)
C42 C 0.4814(10) 0.6896(6) 0.2791(5)
C43 C 0.5339(10) 0.6895(6) 0.2929(5)
C44 C 0.5426(10) 0.6862(5) 0.3221(5)
C45 C 0.4958(11) 0.6835(6) 0.3363(6)
N10 N 0.3430(8) 0.9103(5) 0.2384(5)
C46 C 0.3312(11) 0.8824(7) 0.2417(6)
C47 C 0.3531(9) 0.8657(7) 0.2646(6)
C48 C 0.3883(10) 0.8787(7) 0.2863(6)
C49 C 0.4040(11) 0.9078(7) 0.2841(7)
C50 C 0.3799(11) 0.9227(7) 0.2607(6)
N11 N 0.3888(8) 0.7288(5) 0.3452(4)
C51 C 0.4219(11) 0.7433(7) 0.3651(6)
C52 C 0.4358(11) 0.7718(7) 0.3643(6)
C53 C 0.4137(11) 0.7890(7) 0.3408(6)
C54 C 0.3737(11) 0.7744(7) 0.3190(6)
C55 C 0.3650(11) 0.7448(7) 0.3216(6)
N12 N 0.5934(8) 0.9022(5) 0.4189(4)
C56 C 0.5704(11) 0.9171(7) 0.3957(6)
C57 C 0.5287(13) 0.9036(7) 0.3741(6)
C58 C 0.5149(11) 0.8744(7) 0.3789(6)
C59 C 0.5399(10) 0.8598(7) 0.4035(5)
C60 C 0.5798(10) 0.8745(6) 0.4232(6)
C61 C 0.6254(11) 0.8868(6) 0.1657(6)
N13 N 0.6305(9) 0.8605(5) 0.1530(5)
C62 C 0.5807(11) 0.8471(6) 0.1451(5)
N14 N 0.5312(8) 0.8585(5) 0.1513(4)
C63 C 0.5345(11) 0.8835(6) 0.1650(6)
N15 N 0.5814(8) 0.8999(4) 0.1721(5)
C64 C 0.8361(9) 0.8785(6) 0.3174(5)
N16 N 0.8106(7) 0.8917(4) 0.3376(4)
C65 C 0.8020(9) 0.8741(6) 0.3601(5)
N17 N 0.8206(7) 0.8456(5) 0.3641(4)
C66 C 0.8479(9) 0.8360(6) 0.3426(5)
N18 N 0.8555(8) 0.8509(5) 0.3196(4)
C67 C 0.6163(10) 0.6996(5) 0.2353(5)
N19 N 0.6691(8) 0.7004(4) 0.2494(4)
C68 C 0.6748(10) 0.6964(6) 0.2785(5)
N20 N 0.6330(8) 0.6928(5) 0.2934(4)
C69 C 0.5812(11) 0.6919(6) 0.2768(6)
N21 N 0.5701(8) 0.6952(4) 0.2477(4)
C70 C 0.4172(12) 0.8600(7) 0.3133(6)
N22 N 0.4003(9) 0.8332(6) 0.3145(5)
C71 C 0.4255(11) 0.8196(7) 0.3379(6)
N23 N 0.4627(8) 0.8316(6) 0.3595(5)
C72 C 0.4729(12) 0.8592(8) 0.3545(6)
N24 N 0.4533(9) 0.8756(5) 0.3328(5)
C73 C 0.8050(16) 0.9906(9) 0.1606(9)
C74 C 0.8562(12) 0.9546(6) 0.1416(7)
C75 C 0.9069(17) 0.9919(9) 0.1727(9)
C76 C 0.9453(12) 0.9861(7) 0.1957(7)
C77 C 0.9717(12) 0.9480(6) 0.2294(6)
C78 C 0.9249(13) 0.9903(7) 0.2425(7)
C79 C 0.5216(10) 0.6621(5) 0.0931(6)
C80 C 0.6207(10) 0.6582(6) 0.1081(6)
C81 C 0.5874(10) 0.6733(5) 0.0602(5)
C82 C 0.5545(10) 0.6958(5) 0.0430(5)
C83 C 0.6215(10) 0.7354(5) 0.0489(6)
C84 C 0.5264(11) 0.7458(6) 0.0448(6)
C85 C 0.2665(14) 0.9369(8) 0.1387(8)
C86 C 0.3299(15) 0.9776(8) 0.1572(8)
C87 C 0.2421(15) 0.9745(8) 0.1717(8)
C88 C 0.2145(17) 0.9627(9) 0.1886(10)
C89 C 0.2128(15) 0.9251(8) 0.2272(9)
C90 C 0.2628(16) 0.9673(9) 0.2427(9)
C91 C 0.7569(12) 0.9254(7) 0.4870(7)
C92 C 0.7385(11) 0.9698(6) 0.4597(6)
C93 C 0.6887(14) 0.9585(8) 0.4950(8)
C94 C 0.6356(13) 0.9598(7) 0.4942(7)
C95 C 0.5715(13) 0.9147(7) 0.4855(7)
C96 C 0.5564(13) 0.9590(7) 0.4566(7)
C97 C 0.8960(13) 0.6420(7) 0.3651(7)
C98 C 0.9363(15) 0.6483(8) 0.3240(8)
C99 C 0.9904(15) 0.6569(8) 0.3737(8)
C100 C 1.0239(15) 0.6804(8) 0.3751(8)
C101 C 1.0300(13) 0.7304(7) 0.3602(8)
C102 C 0.9922(13) 0.7231(7) 0.4043(7)
C103 C 0.4182(14) 0.6260(8) 0.3622(8)
C104 C 0.3611(13) 0.6303(7) 0.3139(7)
C105 C 0.3150(13) 0.6366(7) 0.3553(7)
C106 C 0.3039(14) 0.6574(8) 0.3742(8)
C107 C 0.2641(12) 0.6994(6) 0.3491(6)
C108 C 0.3233(14) 0.7036(7) 0.3930(8)
N25 N 0.8544(10) 0.9743(6) 0.1665(6)
N26 N 0.9308(8) 0.9704(5) 0.2200(4)
N27 N 0.5776(7) 0.6751(4) 0.0904(4)
N28 N 0.5689(7) 0.7247(4) 0.0564(4)
N29 N 0.2459(11) 0.9487(7) 0.2179(6)
N30 N 0.2886(10) 0.9569(6) 0.1646(6)
N31 N 0.7156(7) 0.9456(4) 0.4743(4)
N32 N 0.5988(8) 0.9398(5) 0.4723(4)
N33 N 0.9361(10) 0.6599(6) 0.3535(5)
N34 N 0.9954(10) 0.7103(6) 0.3741(6)
N35 N 0.3688(9) 0.6413(6) 0.3443(5)
N36 N 0.3110(8) 0.6858(5) 0.3663(5)
Pd7 Pd -0.22254(7) 0.58229(4) 0.16794(4)
Pd8 Pd 0.32196(7) 0.57981(4) 0.18718(4)
Pd9 Pd 0.06613(7) 0.81852(5) 0.25103(4)
Pd10 Pd -0.25742(8) 0.81364(5) -0.00201(4)
Pd11 Pd 0.28442(8) 0.80565(5) 0.01389(4)
Pd12 Pd -0.00825(7) 0.57019(4) -0.06655(4)
N37 N -0.1463(8) 0.6009(5) 0.1800(4)
C109 C -0.0991(10) 0.5873(6) 0.1766(5)
C110 C -0.0463(10) 0.6006(6) 0.1832(5)
C111 C -0.0436(9) 0.6289(6) 0.1933(5)
C112 C -0.0953(9) 0.6437(6) 0.1950(5)
C113 C -0.1430(10) 0.6293(6) 0.1883(5)
N38 N 0.2531(7) 0.5994(4) 0.1974(4)
C114 C 0.2533(10) 0.6276(5) 0.2042(5)
C115 C 0.2067(9) 0.6427(6) 0.2075(5)
C116 C 0.1562(10) 0.6287(6) 0.2036(5)
C117 C 0.1549(10) 0.5993(6) 0.1965(6)
C118 C 0.2035(9) 0.5844(6) 0.1932(5)
N39 N 0.0643(7) 0.7752(4) 0.2414(4)
C119 C 0.0170(10) 0.7614(6) 0.2333(5)
C120 C 0.0141(10) 0.7320(6) 0.2244(5)
C121 C 0.0616(10) 0.7159(6) 0.2236(5)
C122 C 0.1111(10) 0.7307(6) 0.2325(5)
C123 C 0.1131(10) 0.7592(6) 0.2406(5)
N40 N -0.2216(7) 0.6007(4) 0.1281(4)
C124 C -0.2365(9) 0.6291(6) 0.1223(5)
C125 C -0.2277(8) 0.6429(6) 0.0977(5)
C126 C -0.2047(8) 0.6276(6) 0.0775(5)
C127 C -0.1895(9) 0.5990(6) 0.0826(5)
C128 C -0.1981(8) 0.5854(6) 0.1087(5)
N41 N -0.2427(7) 0.7700(4) 0.0040(4)
C129 C -0.2203(10) 0.7536(6) -0.0145(6)
C130 C -0.2039(10) 0.7264(6) -0.0104(5)
C131 C -0.2122(9) 0.7113(5) 0.0148(5)
C132 C -0.2372(9) 0.7283(5) 0.0344(5)
C133 C -0.2514(9) 0.7571(5) 0.0286(5)
N42 N -0.0608(7) 0.5920(4) -0.0446(4)
C134 C -0.0718(9) 0.5811(5) -0.0199(5)
C135 C -0.1023(10) 0.5962(5) -0.0017(5)
C136 C -0.1222(9) 0.6235(5) -0.0092(5)
C137 C -0.1121(9) 0.6349(5) -0.0352(5)
C138 C -0.0812(9) 0.6177(5) -0.0522(5)
N43 N 0.2976(7) 0.5959(4) 0.1466(4)
C139 C 0.2634(9) 0.5811(5) 0.1265(5)
C140 C 0.2401(9) 0.5943(5) 0.0996(5)
C141 C 0.2533(9) 0.6218(5) 0.0943(5)
C142 C 0.2901(9) 0.6366(5) 0.1136(5)
C143 C 0.3117(9) 0.6227(5) 0.1402(5)
N44 N 0.0563(7) 0.5905(4) -0.0402(4)
C144 C 0.0716(10) 0.6162(6) -0.0458(5)
C145 C 0.1119(10) 0.6328(6) -0.0253(5)
C146 C 0.1322(9) 0.6193(6) 0.0010(5)
C147 C 0.1163(9) 0.5913(5) 0.0066(5)
C148 C 0.0765(10) 0.5761(6) -0.0143(6)
N45 N 0.2682(8) 0.7630(4) 0.0208(4)
C149 C 0.2909(10) 0.7488(6) 0.0459(6)
C150 C 0.2765(10) 0.7206(6) 0.0507(5)
C151 C 0.2394(10) 0.7061(5) 0.0315(5)
C152 C 0.2135(11) 0.7204(6) 0.0057(5)
C153 C 0.2280(11) 0.7478(6) 0.0006(6)
N46 N 0.2156(7) 0.8154(4) 0.0332(4)
C154 C 0.1663(10) 0.8159(5) 0.0178(5)
C155 C 0.1188(10) 0.8191(5) 0.0297(5)
C156 C 0.1234(10) 0.8226(6) 0.0604(5)
C157 C 0.1769(10) 0.8230(6) 0.0752(5)
C158 C 0.2217(10) 0.8195(6) 0.0615(5)
N47 N -0.1804(8) 0.8209(4) 0.0215(5)
C159 C -0.1739(11) 0.8218(6) 0.0508(6)
C160 C -0.1224(10) 0.8247(6) 0.0673(6)
C161 C -0.0747(10) 0.8243(6) 0.0544(5)
C162 C -0.0831(10) 0.8217(5) 0.0239(5)
C163 C -0.1336(10) 0.8208(6) 0.0091(6)
N48 N 0.0572(8) 0.8262(4) 0.2077(4)
C164 C 0.1019(10) 0.8266(6) 0.1946(5)
C165 C 0.0967(9) 0.8273(6) 0.1646(5)
C166 C 0.0449(9) 0.8287(5) 0.1479(5)
C167 C -0.0009(10) 0.8291(5) 0.1610(5)
C168 C 0.0078(10) 0.8277(6) 0.1915(5)
C169 C 0.0098(10) 0.6460(6) 0.1997(5)
N49 N 0.0556(8) 0.6301(4) 0.1981(4)
C170 C 0.1034(10) 0.6451(6) 0.2049(5)
N50 N 0.1087(8) 0.6732(5) 0.2142(4)
C171 C 0.0591(10) 0.6868(6) 0.2142(5)
N51 N 0.0095(8) 0.6737(5) 0.2074(4)
C172 C -0.1911(9) 0.6420(6) 0.0507(5)
N52 N -0.2064(7) 0.6690(4) 0.0454(4)
C173 C -0.1963(9) 0.6806(6) 0.0209(5)
N53 N -0.1685(7) 0.6676(4) 0.0022(4)
C174 C -0.1527(9) 0.6394(6) 0.0098(5)
N54 N -0.1653(7) 0.6258(4) 0.0330(4)
C175 C 0.2280(9) 0.6364(6) 0.0660(5)
N55 N 0.1936(7) 0.6202(4) 0.0472(4)
C176 C 0.1732(10) 0.6357(6) 0.0227(5)
N56 N 0.1854(7) 0.6623(4) 0.0162(4)
C177 C 0.2202(10) 0.6752(6) 0.0368(6)
N57 N 0.2453(8) 0.6627(5) 0.0619(4)
C178 C 0.0740(10) 0.8254(6) 0.0742(5)
N58 N 0.0262(8) 0.8233(5) 0.0578(4)
C179 C -0.0194(10) 0.8252(6) 0.0719(5)
N59 N -0.0139(8) 0.8270(4) 0.1010(4)
C180 C 0.0379(11) 0.8279(6) 0.1152(5)
N60 N 0.0829(8) 0.8268(5) 0.1033(4)
C181 C -0.2280(13) 0.5863(7) 0.2303(7)
C182 C -0.1726(13) 0.5463(7) 0.2167(7)
C183 C -0.2698(13) 0.5454(7) 0.2056(7)
C184 C -0.3172(13) 0.5566(7) 0.1849(7)
C185 C -0.2994(11) 0.5390(6) 0.1382(6)
C186 C -0.3406(11) 0.5859(6) 0.1421(6)
C187 C 0.3122(11) 0.5413(6) 0.2354(6)
C188 C 0.3500(11) 0.5858(6) 0.2501(6)
C189 C 0.4072(12) 0.5537(7) 0.2282(7)
C190 C 0.4112(11) 0.5403(6) 0.2021(6)
C191 C 0.3786(11) 0.5427(6) 0.1494(6)
C192 C 0.4341(9) 0.5821(5) 0.1726(5)
C193 C 0.0071(12) 0.8745(6) 0.2543(7)
C194 C 0.1031(12) 0.8800(7) 0.2467(7)
C195 C 0.0808(12) 0.8628(7) 0.2936(7)
C196 C 0.0579(12) 0.8396(6) 0.3078(7)
C197 C 0.1321(12) 0.8042(7) 0.3066(7)
C198 C 0.0397(12) 0.7875(6) 0.3034(6)
C199 C -0.2778(12) 0.8723(6) 0.0168(7)
C200 C -0.2283(13) 0.8717(7) -0.0218(7)
C201 C -0.3207(15) 0.8600(8) -0.0288(8)
C202 C -0.3606(13) 0.8368(7) -0.0277(7)
C203 C -0.3306(14) 0.7946(8) -0.0533(8)
C204 C -0.3697(12) 0.7885(7) -0.0110(7)
C205 C 0.3949(12) 0.7794(6) 0.0139(6)
C206 C 0.3330(14) 0.7775(8) -0.0320(8)
C207 C 0.3734(16) 0.8222(9) -0.0142(9)
C208 C 0.3532(17) 0.8460(9) -0.0061(9)
C209 C 0.2551(15) 0.8626(8) -0.0103(8)
C210 C 0.3174(13) 0.8655(7) 0.0330(8)
C211 C -0.0940(13) 0.5687(7) -0.1141(7)
C212 C -0.1097(13) 0.5341(7) -0.0764(7)
C213 C -0.0444(12) 0.5267(7) -0.1076(7)
C214 C 0.0096(11) 0.5338(7) -0.1125(7)
C215 C 0.0745(10) 0.5260(6) -0.0710(6)
C216 C 0.0869(13) 0.5663(7) -0.0992(7)
N61 N -0.2225(8) 0.5641(5) 0.2082(5)
N62 N -0.2990(8) 0.5645(5) 0.1568(5)
N63 N 0.3464(8) 0.5641(4) 0.2287(4)
N64 N 0.3917(7) 0.5604(4) 0.1769(4)
N65 N 0.0629(9) 0.8627(5) 0.2609(4)
N66 N 0.0733(8) 0.8108(5) 0.2946(4)
N67 N -0.2730(9) 0.8569(5) -0.0089(5)
N68 N -0.3351(8) 0.8068(5) -0.0257(5)
N69 N 0.3520(10) 0.7951(5) -0.0052(5)
N70 N 0.3014(9) 0.8488(5) 0.0067(5)
N71 N 0.0439(7) 0.5471(4) -0.0885(4)
N72 N -0.0708(7) 0.5491(4) -0.0925(4)
C217 C 0.1165(12) 0.5472(7) 0.1274(7)
C218 C 0.0617(12) 0.5525(6) 0.1087(7)
C219 C 0.0074(11) 0.5527(6) 0.1179(7)
C220 C -0.0310(12) 0.5527(6) 0.0914(7)
C221 C -0.0002(13) 0.5511(6) 0.0692(7)
C222 C 0.0616(12) 0.5511(6) 0.0765(6)
Mn1 Mn 0.0197(2) 0.58902(12) 0.09292(13)
C223 C 0.0756(11) 0.6092(7) 0.1125(7)
O1 O 0.1127(11) 0.6241(6) 0.1246(6)
C224 C -0.0320(12) 0.6111(7) 0.1057(8)
O2 O -0.0665(10) 0.6252(5) 0.1130(6)
C225 C 0.0178(14) 0.6104(7) 0.0606(6)
O3 O 0.0157(10) 0.6215(5) 0.0377(5)
C226 C -0.072(3) 0.7679(10) 0.1500(14)
C227 C -0.0922(16) 0.7410(8) 0.1343(9)
C228 C -0.0866(16) 0.7123(9) 0.1488(7)
C229 C -0.1183(12) 0.6938(7) 0.1275(8)
C230 C -0.1396(12) 0.7113(9) 0.1037(9)
C231 C -0.1244(14) 0.7430(8) 0.1036(9)
Mn2 Mn -0.0541(3) 0.71271(17) 0.11037(16)
C232 C -0.0067(17) 0.7382(9) 0.0982(10)
O4 O 0.0226(13) 0.7560(7) 0.0895(8)
C233 C 0.0024(12) 0.6927(7) 0.1311(7)
O5 O 0.0392(9) 0.6784(5) 0.1418(6)
C234 C -0.0609(16) 0.6907(7) 0.0782(6)
O6 O -0.0683(10) 0.6745(5) 0.0578(5)
C243 C 0.086(6) 0.7707(18) -0.028(2)
C245 C 0.0411(19) 0.7078(11) 0.0122(11)
C246 C 0.0645(15) 0.7375(12) 0.0133(10)
C247 C 0.0680(15) 0.7427(12) -0.0169(12)
C248 C 0.0493(18) 0.7175(12) -0.0322(10)
C249 C 0.028(2) 0.6924(8) -0.0166(14)
Mn4 Mn -0.0131(6) 0.7353(3) -0.0127(3)
C250 C -0.0369(18) 0.7709(7) -0.0258(9)
O9 O -0.054(3) 0.7939(10) -0.0351(14)
C251 C -0.066(2) 0.7182(6) -0.0387(9)
O10 O -0.0989(16) 0.7071(8) -0.0561(9)
C252 C -0.0560(13) 0.7364(10) 0.0155(6)
O11 O -0.0890(15) 0.7467(11) 0.0292(9)
C255 C 0.5207(17) 0.9711(12) 0.2645(12)
C256 C 0.5787(17) 0.9650(9) 0.2786(10)
C257 C 0.6261(18) 0.9678(8) 0.2629(10)
C258 C 0.6728(17) 0.9655(8) 0.2861(13)
C259 C 0.651(2) 0.9626(10) 0.3118(10)
C260 C 0.590(2) 0.9601(11) 0.3111(9)
Mn5 Mn 0.6261(8) 0.9283(4) 0.2840(3)
C261 C 0.5716(9) 0.9084(6) 0.2646(5)
O14 O 0.5294(11) 0.8978(10) 0.2518(8)
C262 C 0.6338(12) 0.9045(6) 0.3142(4)
O15 O 0.6402(18) 0.8898(9) 0.3343(6)
C263 C 0.6699(9) 0.9069(6) 0.2651(5)
O16 O 0.7065(13) 0.8977(9) 0.2556(7)
C281 C 0.712(3) 0.7881(16) 0.1869(9)
C282 C 0.737(2) 0.7934(11) 0.2176(9)
C283 C 0.762(2) 0.8214(11) 0.2284(12)
C284 C 0.7858(13) 0.8136(14) 0.2577(12)
C285 C 0.7748(19) 0.7843(14) 0.2620(11)
C286 C 0.741(2) 0.7675(9) 0.2380(12)
Mn8 Mn 0.7013(4) 0.8073(2) 0.2515(2)
C287 C 0.6550(9) 0.7838(4) 0.2639(4)
O22 O 0.6250(15) 0.7648(7) 0.2697(6)
C288 C 0.6473(9) 0.8303(4) 0.2342(4)
O23 O 0.6136(14) 0.8457(6) 0.2225(6)
C289 C 0.7045(7) 0.8248(4) 0.2861(3)
O24 O 0.7164(11) 0.8390(5) 0.3061(4)
C299 C 0.410(5) 0.759(3) 0.1500(16)
C301 C 0.401(3) 0.7468(12) 0.2043(18)
C302 C 0.396(3) 0.7661(17) 0.1790(12)
C303 C 0.373(2) 0.7923(17) 0.189(2)
C304 C 0.3659(18) 0.787(2) 0.218(2)
C305 C 0.384(4) 0.758(3) 0.2317(18)
Mn10 Mn 0.4486(9) 0.7833(4) 0.2146(4)
C306 C 0.459(2) 0.8211(6) 0.2233(9)
O28 O 0.471(3) 0.8453(7) 0.2311(11)
C307 C 0.5134(17) 0.7802(7) 0.2011(10)
O29 O 0.5571(15) 0.7775(9) 0.1946(11)
C308 C 0.4774(17) 0.7712(8) 0.2501(7)
O30 O 0.497(3) 0.7632(12) 0.2738(7)
N74 N 0.289(3) 0.699(2) 0.2590(13)
O35 O 0.315(3) 0.694(2) 0.2384(16)
O36 O 0.311(4) 0.693(2) 0.2831(14)
O37 O 0.239(3) 0.703(2) 0.2522(19)
N75 N 0.8995(13) 0.8103(6) 0.2345(6)
O39 O 0.8877(13) 0.8353(5) 0.2236(6)
O40 O 0.9247(11) 0.8092(6) 0.2582(5)
O41 O 0.8888(13) 0.7902(5) 0.2182(6)
N76 N 0.1888(14) 0.7863(8) -0.0687(6)
O42 O 0.1592(18) 0.7653(8) -0.0623(9)
O43 O 0.2022(10) 0.8039(5) -0.0497(5)
O44 O 0.1715(12) 0.7952(7) -0.0925(6)
N78 N 1.027(2) 0.6469(13) 0.269(2)
O49 O 0.980(3) 0.6352(19) 0.263(3)
O50 O 1.067(3) 0.6315(16) 0.268(2)
O51 O 1.0273(16) 0.6711(11) 0.2790(10)
N79 N 0.5860(15) 0.9923(10) 0.3952(10)
O52 O 0.5764(15) 1.0146(8) 0.4102(9)
O53 O 0.5460(15) 0.9834(9) 0.3781(9)
O54 O 0.6331(14) 0.9851(9) 0.4014(9)
N80 N 0.9319(18) 0.8889(12) 0.1590(7)
O55 O 0.8933(16) 0.8783(10) 0.1399(8)
O56 O 0.9252(11) 0.8910(6) 0.1837(6)
O57 O 0.9667(14) 0.9024(8) 0.1495(7)
N81 N 0.7051(14) 0.6470(10) 0.2067(7)
O58 O 0.7490(12) 0.6568(8) 0.2231(7)
O59 O 0.6689(12) 0.6370(8) 0.2198(7)
O60 O 0.7118(13) 0.6455(8) 0.1817(6)
N82 N 0.4149(19) 0.7054(8) 0.0872(7)
O61 O 0.4350(14) 0.7246(7) 0.1047(7)
O62 O 0.3889(11) 0.6863(6) 0.0970(6)
O63 O 0.4132(15) 0.7119(7) 0.0622(7)
N83 N 0.7411(11) 0.7330(5) 0.1134(5)
O64 O 0.7206(8) 0.7095(4) 0.1047(4)
O65 O 0.7431(11) 0.7518(5) 0.0955(5)
O66 O 0.7591(10) 0.7364(5) 0.1389(5)
N84 N 0.406(3) 0.8213(13) 0.0851(15)
O67 O 0.400(2) 0.8406(10) 0.1039(12)
O69 O 0.439(2) 0.8281(13) 0.0697(12)
O72 O 0.348(4) 0.8140(19) 0.0750(18)
N86 N 0.2225(18) 0.8215(9) 0.2581(9)
O73 O 0.2625(15) 0.8103(8) 0.2763(8)
O74 O 0.215(2) 0.8082(11) 0.2357(9)
O75 O 0.222(2) 0.8475(9) 0.2623(13)
N87 N 0.6734(11) 0.6434(6) 0.0040(6)
O76 O 0.6930(9) 0.6257(5) 0.0236(5)
O77 O 0.6888(11) 0.6425(6) -0.0189(5)
O78 O 0.6529(15) 0.6651(7) 0.0119(7)
N88 N 0.8530(11) 0.5263(6) 0.0314(6)
O79 O 0.8207(10) 0.5047(5) 0.0246(5)
O80 O 0.8444(11) 0.5404(6) 0.0513(6)
O81 O 0.8908(12) 0.5285(7) 0.0185(7)
N89 N 0.8622(16) 0.5052(8) 0.1419(9)
O82 O 0.8393(16) 0.5286(8) 0.1478(9)
O83 O 0.829(2) 0.4876(9) 0.1305(12)
O84 O 0.902(2) 0.5003(12) 0.1604(13)
N90 N 0.8333(16) 0.7075(7) 0.4269(9)
O85 O 0.8084(10) 0.6894(5) 0.4406(5)
O86 O 0.8601(11) 0.6962(6) 0.4106(6)
O87 O 0.813(3) 0.7313(8) 0.4243(15)
N91 N 0.6333(16) 0.8242(9) 0.0586(12)
O88 O 0.5869(16) 0.8119(9) 0.0512(11)
O89 O 0.6733(17) 0.8107(10) 0.0543(12)
O90 O 0.6311(18) 0.8490(8) 0.0665(10)
O91 O 0.736(3) 0.8640(19) 0.0900(17)
N92 N 1.2437(18) 0.8621(11) 0.1663(10)
O92 O 1.2880(19) 0.8481(14) 0.1763(14)
O93 O 1.220(2) 0.8523(14) 0.1436(10)
O94 O 1.220(2) 0.8693(14) 0.1854(12)
N93 N 1.228(2) 0.4965(10) 0.1488(10)
O95 O 1.242(2) 0.4896(11) 0.1249(9)
O96 O 1.248(2) 0.5188(10) 0.1597(13)
O97 O 1.207(3) 0.4773(12) 0.1606(12)
O98 O 1.163(3) 0.5130(14) 0.2056(15)
N95 N 0.488(3) 0.6929(16) 0.4232(15)
O103 O 0.468(3) 0.7109(19) 0.4398(18)
O104 O 0.454(4) 0.6772(19) 0.4091(19)
O105 O 0.527(3) 0.702(2) 0.4136(17)
O112 O 0.9924(9) 0.5164(5) -0.0171(5)
O113 O 1.0420(18) 0.5266(10) 0.0213(8)
N99 N 0.972(3) 0.8681(12) 0.3673(11)
O114 O 0.999(3) 0.8444(12) 0.3684(15)
O115 O 0.973(3) 0.8836(14) 0.3467(12)
O116 O 0.966(3) 0.8750(14) 0.3912(11)
O117 O 0.948(7) 0.815(4) 0.420(4)
C235? C 0.291(4) 0.718(2) 0.194(2)
C236? C 0.267(2) 0.7383(15) 0.1713(14)
C237? C 0.235(3) 0.7642(19) 0.1768(16)
C238? C 0.230(3) 0.7796(9) 0.150(2)
C239? C 0.259(3) 0.763(2) 0.1319(17)
C240? C 0.2839(18) 0.735(2) 0.142(2)
Mn3? Mn 0.1937(8) 0.7390(4) 0.1427(5)
C241? C 0.1264(19) 0.7476(14) 0.1518(17)
O7? O 0.0820(16) 0.7479(14) 0.1568(14)
C242? C 0.178(2) 0.7006(6) 0.1399(8)
O8? O 0.185(3) 0.6762(7) 0.1360(12)
C244? C 0.034(4) 0.6909(19) 0.0382(15)
O12? O 0.109(3) 0.6771(15) 0.0709(15)
C253? C 0.086(5) 0.693(2) 0.084(2)
O13? O 0.543(3) 0.8333(16) 0.2958(14)
C254? C 0.566(7) 0.812(3) 0.303(4)
C264? C 0.684(5) 0.960(2) 0.257(2)
C265? C 0.651(3) 0.9583(14) 0.2807(16)
C266? C 0.590(3) 0.9601(18) 0.277(2)
C267? C 0.580(4) 0.9598(18) 0.307(3)
C268? C 0.632(5) 0.9589(17) 0.3245(17)
C269? C 0.683(4) 0.957(2) 0.3112(18)
Mn6? Mn 0.621(2) 0.9223(10) 0.2984(9)
C270? C 0.670(2) 0.9038(17) 0.2830(12)
O17? O 0.706(3) 0.895(2) 0.2705(18)
C271? C 0.565(2) 0.9025(16) 0.2782(12)
O18? O 0.527(3) 0.890(2) 0.2655(18)
C272? C 0.633(2) 0.8955(13) 0.3265(10)
O19? O 0.635(4) 0.8826(18) 0.3474(13)
C273? C 0.629(2) 0.8245(11) 0.3397(14)
C274? C 0.616(2) 0.7988(10) 0.3568(12)
C275? C 0.599(2) 0.7699(12) 0.3448(13)
C276? C 0.5921(17) 0.7532(13) 0.3702(19)
C277? C 0.602(2) 0.7724(16) 0.3938(15)
C278? C 0.620(3) 0.8031(13) 0.3893(13)
Mn7? Mn 0.6724(8) 0.7685(6) 0.3748(4)
C279? C 0.7253(10) 0.7826(6) 0.4021(4)
O20? O 0.7588(14) 0.7928(10) 0.4196(6)
C280? C 0.7180(10) 0.7662(6) 0.3485(5)
O21? O 0.7412(14) 0.7704(10) 0.3297(6)
C290? C 0.785(4) 0.776(3) 0.266(2)
C291? C 0.7589(18) 0.7875(18) 0.2371(17)
C292? C 0.752(2) 0.8187(16) 0.230(3)
C293? C 0.732(3) 0.8184(19) 0.200(2)
C294? C 0.729(3) 0.789(2) 0.1909(15)
C295? C 0.743(2) 0.7656(16) 0.213(2)
Mn9? Mn 0.6774(8) 0.7962(5) 0.2213(6)
C296? C 0.6222(14) 0.7803(9) 0.1982(7)
O25? O 0.588(2) 0.7697(14) 0.1793(11)
C297? C 0.6394(19) 0.8283(7) 0.2250(11)
O26? O 0.616(3) 0.8496(11) 0.2280(17)
C298? C 0.650(2) 0.7778(11) 0.2497(7)
O27? O 0.644(3) 0.7680(16) 0.2713(9)
C300? C 0.423(6) 0.7163(9) 0.205(4)
N73? N 0.3830(18) 0.6686(13) 0.2097(10)
O31? O 0.349(2) 0.6791(14) 0.1886(11)
O32? O 0.4312(18) 0.6701(15) 0.2072(12)
O33? O 0.364(2) 0.6690(15) 0.2318(10)
O34? O 0.292(2) 0.6888(13) 0.2727(12)
O38? O 0.3935(16) 0.6466(10) 0.2092(9)
N77? N 0.9758(17) 0.6950(9) 0.2800(12)
O45? O 0.9396(18) 0.6830(8) 0.2612(9)
O46? O 0.9650(11) 0.7187(6) 0.2876(6)
O47? O 1.021(2) 0.6843(18) 0.283(2)
O48? O 1.028(3) 0.6186(13) 0.2661(13)
O68? O 0.374(2) 0.8015(9) 0.0834(11)
N85? N 0.370(3) 0.8032(16) 0.0973(16)
O70? O 0.392(4) 0.823(2) 0.1149(19)
O71? O 0.397(4) 0.7811(15) 0.098(2)
N94? N 1.2155(16) 0.5003(8) 0.1726(8)
O99? O 1.1914(15) 0.5017(8) 0.1945(7)
O100? O 1.2463(17) 0.5201(8) 0.1692(10)
O101? O 1.198(2) 0.4820(12) 0.1551(11)
O102? O 1.2540(16) 0.5020(9) 0.1053(9)
N96? N 0.480(4) 0.667(2) 0.426(2)
O106? O 0.431(4) 0.661(3) 0.431(3)
O107? O 0.512(4) 0.676(3) 0.447(2)
O108? O 0.481(5) 0.674(3) 0.402(2)
N97? N 0.485(6) 0.7047(19) 0.4267(13)
O109? O 0.485(4) 0.6974(18) 0.4528(13)
O110? O 0.471(3) 0.6862(15) 0.4087(14)
O111? O 0.513(4) 0.7261(15) 0.4244(17)
N98? N 1.0134(18) 0.5081(8) 0.0078(7)
loop_
_geom_bond_atom_site_label_1
_geom_bond_atom_site_label_2
_geom_bond_site_symmetry_1
_geom_bond_site_symmetry_2
Pd1 N1 1_555 1_555
Pd2 N2 1_555 1_555
Pd3 N3 1_555 1_555
Pd4 N5 1_555 1_555
Pd5 N6 1_555 1_555
Pd6 N9 1_555 1_555
N1 C1 1_555 1_555
C1 C2 1_555 1_555
C2 C3 1_555 1_555
C3 C4 1_555 1_555
C4 C5 1_555 1_555
C5 N1 1_555 1_555
N2 C6 1_555 1_555
C6 C7 1_555 1_555
C7 C8 1_555 1_555
C8 C9 1_555 1_555
C9 C10 1_555 1_555
C10 N2 1_555 1_555
N3 C11 1_555 1_555
C11 C12 1_555 1_555
C12 C13 1_555 1_555
C13 C14 1_555 1_555
C14 C15 1_555 1_555
C15 N3 1_555 1_555
N4 Pd1 1_555 1_555
C16 N4 1_555 1_555
C17 C16 1_555 1_555
C18 C17 1_555 1_555
C19 C18 1_555 1_555
C20 N4 1_555 1_555
N5 C21 1_555 1_555
C21 C22 1_555 1_555
C22 C23 1_555 1_555
C23 C24 1_555 1_555
C24 C25 1_555 1_555
C25 N5 1_555 1_555
N6 C26 1_555 1_555
C26 C27 1_555 1_555
C27 C28 1_555 1_555
C28 C29 1_555 1_555
C29 C30 1_555 1_555
C30 N6 1_555 1_555
N7 Pd2 1_555 1_555
C31 N7 1_555 1_555
C32 C31 1_555 1_555
C33 C32 1_555 1_555
C34 C33 1_555 1_555
C35 N7 1_555 1_555
N8 Pd5 1_555 1_555
C36 N8 1_555 1_555
C37 C36 1_555 1_555
C38 C37 1_555 1_555
C39 C38 1_555 1_555
C40 N8 1_555 1_555
N9 C41 1_555 1_555
C41 C42 1_555 1_555
C42 C43 1_555 1_555
C43 C44 1_555 1_555
C44 C45 1_555 1_555
C45 N9 1_555 1_555
N10 Pd3 1_555 1_555
C46 N10 1_555 1_555
C47 C46 1_555 1_555
C48 C47 1_555 1_555
C49 C48 1_555 1_555
C50 N10 1_555 1_555
N11 Pd6 1_555 1_555
C51 N11 1_555 1_555
C52 C51 1_555 1_555
C53 C52 1_555 1_555
C54 C53 1_555 1_555
C55 N11 1_555 1_555
N12 Pd4 1_555 1_555
C56 N12 1_555 1_555
C57 C56 1_555 1_555
C58 C57 1_555 1_555
C59 C58 1_555 1_555
C60 N12 1_555 1_555
C61 C3 1_555 1_555
N13 C61 1_555 1_555
C62 C8 1_555 1_555
N14 C62 1_555 1_555
C63 C13 1_555 1_555
N15 C61 1_555 1_555
C64 C18 1_555 1_555
N16 C64 1_555 1_555
C65 C23 1_555 1_555
N17 C65 1_555 1_555
C66 C28 1_555 1_555
N18 C64 1_555 1_555
C67 C33 1_555 1_555
N19 C67 1_555 1_555
C68 C38 1_555 1_555
N20 C68 1_555 1_555
C69 C43 1_555 1_555
N21 C67 1_555 1_555
C70 C48 1_555 1_555
N22 C70 1_555 1_555
C71 C53 1_555 1_555
N23 C71 1_555 1_555
C72 C58 1_555 1_555
N24 C70 1_555 1_555
C73 N25 1_555 1_555
C74 N25 1_555 1_555
C75 C76 1_555 1_555
C76 N26 1_555 1_555
C77 N26 1_555 1_555
C78 N26 1_555 1_555
C79 N27 1_555 1_555
C80 N27 1_555 1_555
C81 C82 1_555 1_555
C82 N28 1_555 1_555
C83 N28 1_555 1_555
C84 N28 1_555 1_555
C85 N30 1_555 1_555
C86 N30 1_555 1_555
C87 C88 1_555 1_555
C88 N29 1_555 1_555
C89 N29 1_555 1_555
C90 N29 1_555 1_555
C91 N31 1_555 1_555
C92 N31 1_555 1_555
C93 C94 1_555 1_555
C94 N32 1_555 1_555
C95 N32 1_555 1_555
C96 N32 1_555 1_555
C97 N33 1_555 1_555
C98 N33 1_555 1_555
C99 C100 1_555 1_555
C100 N34 1_555 1_555
C101 N34 1_555 1_555
C102 N34 1_555 1_555
C103 N35 1_555 1_555
C104 N35 1_555 1_555
C105 C106 1_555 1_555
C106 N36 1_555 1_555
C107 N36 1_555 1_555
C108 N36 1_555 1_555
N25 Pd1 1_555 1_555
N26 Pd1 1_555 1_555
N27 Pd2 1_555 1_555
N28 Pd2 1_555 1_555
N29 Pd3 1_555 1_555
N30 Pd3 1_555 1_555
N31 Pd4 1_555 1_555
N32 Pd4 1_555 1_555
N33 Pd5 1_555 1_555
N34 Pd5 1_555 1_555
N35 Pd6 1_555 1_555
N36 Pd6 1_555 1_555
Pd7 N37 1_555 1_555
Pd8 N38 1_555 1_555
Pd9 N39 1_555 1_555
Pd10 N41 1_555 1_555
Pd11 N45 1_555 1_555
Pd12 N42 1_555 1_555
N37 C109 1_555 1_555
C109 C110 1_555 1_555
C110 C111 1_555 1_555
C111 C112 1_555 1_555
C112 C113 1_555 1_555
C113 N37 1_555 1_555
N38 C114 1_555 1_555
C114 C115 1_555 1_555
C115 C116 1_555 1_555
C116 C117 1_555 1_555
C117 C118 1_555 1_555
C118 N38 1_555 1_555
N39 C119 1_555 1_555
C119 C120 1_555 1_555
C120 C121 1_555 1_555
C121 C122 1_555 1_555
C122 C123 1_555 1_555
C123 N39 1_555 1_555
N40 Pd7 1_555 1_555
C124 N40 1_555 1_555
C125 C124 1_555 1_555
C126 C125 1_555 1_555
C127 C126 1_555 1_555
C128 N40 1_555 1_555
N41 C129 1_555 1_555
C129 C130 1_555 1_555
C130 C131 1_555 1_555
C131 C132 1_555 1_555
C132 C133 1_555 1_555
C133 N41 1_555 1_555
N42 C134 1_555 1_555
C134 C135 1_555 1_555
C135 C136 1_555 1_555
C136 C137 1_555 1_555
C137 C138 1_555 1_555
C138 N42 1_555 1_555
N43 Pd8 1_555 1_555
C139 N43 1_555 1_555
C140 C139 1_555 1_555
C141 C140 1_555 1_555
C142 C141 1_555 1_555
C143 N43 1_555 1_555
N44 Pd12 1_555 1_555
C144 N44 1_555 1_555
C145 C144 1_555 1_555
C146 C145 1_555 1_555
C147 C146 1_555 1_555
C148 N44 1_555 1_555
N45 C149 1_555 1_555
C149 C150 1_555 1_555
C150 C151 1_555 1_555
C151 C152 1_555 1_555
C152 C153 1_555 1_555
C153 N45 1_555 1_555
N46 Pd11 1_555 1_555
C154 N46 1_555 1_555
C155 C154 1_555 1_555
C156 C155 1_555 1_555
C157 C156 1_555 1_555
C158 N46 1_555 1_555
N47 Pd10 1_555 1_555
C159 N47 1_555 1_555
C160 C159 1_555 1_555
C161 C160 1_555 1_555
C162 C161 1_555 1_555
C163 N47 1_555 1_555
N48 Pd9 1_555 1_555
C164 N48 1_555 1_555
C165 C164 1_555 1_555
C166 C165 1_555 1_555
C167 C166 1_555 1_555
C168 N48 1_555 1_555
C169 C111 1_555 1_555
N49 C169 1_555 1_555
C170 C116 1_555 1_555
N50 C170 1_555 1_555
C171 C121 1_555 1_555
N51 C169 1_555 1_555
C172 C126 1_555 1_555
N52 C172 1_555 1_555
C173 C131 1_555 1_555
N53 C173 1_555 1_555
C174 C136 1_555 1_555
N54 C172 1_555 1_555
C175 C141 1_555 1_555
N55 C175 1_555 1_555
C176 C146 1_555 1_555
N56 C176 1_555 1_555
C177 C151 1_555 1_555
N57 C175 1_555 1_555
C178 C156 1_555 1_555
N58 C178 1_555 1_555
C179 C161 1_555 1_555
N59 C179 1_555 1_555
C180 C166 1_555 1_555
N60 C178 1_555 1_555
C181 N61 1_555 1_555
C182 N61 1_555 1_555
C183 C184 1_555 1_555
C184 N62 1_555 1_555
C185 N62 1_555 1_555
C186 N62 1_555 1_555
C187 N63 1_555 1_555
C188 N63 1_555 1_555
C189 C190 1_555 1_555
C190 N64 1_555 1_555
C191 N64 1_555 1_555
C192 N64 1_555 1_555
C193 N65 1_555 1_555
C194 N65 1_555 1_555
C195 C196 1_555 1_555
C196 N66 1_555 1_555
C197 N66 1_555 1_555
C198 N66 1_555 1_555
C199 N67 1_555 1_555
C200 N67 1_555 1_555
C201 C202 1_555 1_555
C202 N68 1_555 1_555
C203 N68 1_555 1_555
C204 N68 1_555 1_555
C205 N69 1_555 1_555
C206 N69 1_555 1_555
C207 C208 1_555 1_555
C208 N70 1_555 1_555
C209 N70 1_555 1_555
C210 N70 1_555 1_555
C211 N72 1_555 1_555
C212 N72 1_555 1_555
C213 C214 1_555 1_555
C214 N71 1_555 1_555
C215 N71 1_555 1_555
C216 N71 1_555 1_555
N61 Pd7 1_555 1_555
N62 Pd7 1_555 1_555
N63 Pd8 1_555 1_555
N64 Pd8 1_555 1_555
N65 Pd9 1_555 1_555
N66 Pd9 1_555 1_555
N67 Pd10 1_555 1_555
N68 Pd10 1_555 1_555
N69 Pd11 1_555 1_555
N70 Pd11 1_555 1_555
N71 Pd12 1_555 1_555
N72 Pd12 1_555 1_555
C217 C218 1_555 1_555
C218 C219 1_555 1_555
C219 C220 1_555 1_555
C220 C221 1_555 1_555
C221 C222 1_555 1_555
C222 C218 1_555 1_555
Mn1 C218 1_555 1_555
C223 Mn1 1_555 1_555
O1 C223 1_555 1_555
C224 Mn1 1_555 1_555
O2 C224 1_555 1_555
C225 Mn1 1_555 1_555
O3 C225 1_555 1_555
C226 C227 1_555 1_555
C227 C228 1_555 1_555
C228 C229 1_555 1_555
C229 C230 1_555 1_555
C230 C231 1_555 1_555
C231 C227 1_555 1_555
Mn2 C227 1_555 1_555
C232 Mn2 1_555 1_555
O4 C232 1_555 1_555
C233 Mn2 1_555 1_555
O5 C233 1_555 1_555
C234 Mn2 1_555 1_555
O6 C234 1_555 1_555
C243 C247 1_555 1_555
C245 C246 1_555 1_555
C246 C247 1_555 1_555
C247 C248 1_555 1_555
C248 C249 1_555 1_555
C249 C245 1_555 1_555
Mn4 C245 1_555 1_555
C250 Mn4 1_555 1_555
O9 C250 1_555 1_555
C251 Mn4 1_555 1_555
O10 C251 1_555 1_555
C252 Mn4 1_555 1_555
O11 C252 1_555 1_555
C255 C256 1_555 1_555
C256 C257 1_555 1_555
C257 C258 1_555 1_555
C258 C259 1_555 1_555
C259 C260 1_555 1_555
C260 C256 1_555 1_555
Mn5 C256 1_555 1_555
C261 Mn5 1_555 1_555
O14 C261 1_555 1_555
C262 Mn5 1_555 1_555
O15 C262 1_555 1_555
C263 Mn5 1_555 1_555
O16 C263 1_555 1_555
C281 C282 1_555 1_555
C282 C283 1_555 1_555
C283 C284 1_555 1_555
C284 C285 1_555 1_555
C285 C286 1_555 1_555
C286 C282 1_555 1_555
Mn8 C282 1_555 1_555
C287 Mn8 1_555 1_555
O22 C287 1_555 1_555
C288 Mn8 1_555 1_555
O23 C288 1_555 1_555
C289 Mn8 1_555 1_555
O24 C289 1_555 1_555
C299 C302 1_555 1_555
C301 C302 1_555 1_555
C302 C303 1_555 1_555
C303 C304 1_555 1_555
C304 C305 1_555 1_555
C305 C301 1_555 1_555
Mn10 C301 1_555 1_555
C306 Mn10 1_555 1_555
O28 C306 1_555 1_555
C307 Mn10 1_555 1_555
O29 C307 1_555 1_555
C308 Mn10 1_555 1_555
O30 C308 1_555 1_555
N74 O35 1_555 1_555
O36 N74 1_555 1_555
O37 N74 1_555 1_555
N75 O39 1_555 1_555
O40 N75 1_555 1_555
O41 N75 1_555 1_555
N76 O42 1_555 1_555
O43 N76 1_555 1_555
O44 N76 1_555 1_555
N78 O49 1_555 1_555
O50 N78 1_555 1_555
O51 N78 1_555 1_555
N79 O52 1_555 1_555
O53 N79 1_555 1_555
O54 N79 1_555 1_555
N80 O55 1_555 1_555
O56 N80 1_555 1_555
O57 N80 1_555 1_555
N81 O58 1_555 1_555
O59 N81 1_555 1_555
O60 N81 1_555 1_555
N82 O61 1_555 1_555
O62 N82 1_555 1_555
O63 N82 1_555 1_555
N83 O64 1_555 1_555
O65 N83 1_555 1_555
O66 N83 1_555 1_555
N84 O67 1_555 1_555
O69 N84 1_555 1_555
O72 N84 1_555 1_555
N86 O73 1_555 1_555
O74 N86 1_555 1_555
O75 N86 1_555 1_555
N87 O76 1_555 1_555
O77 N87 1_555 1_555
O78 N87 1_555 1_555
N88 O79 1_555 1_555
O80 N88 1_555 1_555
O81 N88 1_555 1_555
N89 O82 1_555 1_555
O83 N89 1_555 1_555
O84 N89 1_555 1_555
N90 O85 1_555 1_555
O86 N90 1_555 1_555
O87 N90 1_555 1_555
N91 O88 1_555 1_555
O89 N91 1_555 1_555
O90 N91 1_555 1_555
N92 O92 1_555 1_555
O93 N92 1_555 1_555
O94 N92 1_555 1_555
N93 O95 1_555 1_555
O96 N93 1_555 1_555
O97 N93 1_555 1_555
N95 O103 1_555 1_555
O104 N95 1_555 1_555
O105 N95 1_555 1_555
N99 O114 1_555 1_555
O115 N99 1_555 1_555
O116 N99 1_555 1_555
C19 C20 1_555 1_555
C34 C35 1_555 1_555
C39 C40 1_555 1_555
C49 C50 1_555 1_555
C54 C55 1_555 1_555
C59 C60 1_555 1_555
N13 C62 1_555 1_555
N14 C63 1_555 1_555
C63 N15 1_555 1_555
N16 C65 1_555 1_555
N17 C66 1_555 1_555
C66 N18 1_555 1_555
N19 C68 1_555 1_555
N20 C69 1_555 1_555
C69 N21 1_555 1_555
N22 C71 1_555 1_555
N23 C72 1_555 1_555
C72 N24 1_555 1_555
C75 N25 1_555 1_555
C81 N27 1_555 1_555
C87 N30 1_555 1_555
C93 N31 1_555 1_555
C99 N33 1_555 1_555
C105 N35 1_555 1_555
C127 C128 1_555 1_555
C142 C143 1_555 1_555
C147 C148 1_555 1_555
C157 C158 1_555 1_555
C162 C163 1_555 1_555
C167 C168 1_555 1_555
N49 C170 1_555 1_555
N50 C171 1_555 1_555
C171 N51 1_555 1_555
N52 C173 1_555 1_555
N53 C174 1_555 1_555
C174 N54 1_555 1_555
N55 C176 1_555 1_555
N56 C177 1_555 1_555
C177 N57 1_555 1_555
N58 C179 1_555 1_555
N59 C180 1_555 1_555
C180 N60 1_555 1_555
C183 N61 1_555 1_555
C189 N63 1_555 1_555
C195 N65 1_555 1_555
C201 N67 1_555 1_555
C207 N69 1_555 1_555
C213 N72 1_555 1_555
C219 Mn1 1_555 1_555
C220 Mn1 1_555 1_555
C221 Mn1 1_555 1_555
C222 Mn1 1_555 1_555
C228 Mn2 1_555 1_555
C229 Mn2 1_555 1_555
C230 Mn2 1_555 1_555
C231 Mn2 1_555 1_555
C246 Mn4 1_555 1_555
C247 Mn4 1_555 1_555
C248 Mn4 1_555 1_555
C249 Mn4 1_555 1_555
C257 Mn5 1_555 1_555
C258 Mn5 1_555 1_555
C259 Mn5 1_555 1_555
C260 Mn5 1_555 1_555
C283 Mn8 1_555 1_555
C284 Mn8 1_555 1_555
C285 Mn8 1_555 1_555
C286 Mn8 1_555 1_555
C302 Mn10 1_555 1_555
C303 Mn10 1_555 1_555
C304 Mn10 1_555 1_555
C305 Mn10 1_555 1_555

#END
