
#######################################################################
#
#                 Cambridge Crystallographic Data Centre
#                                CCDC 
#
#######################################################################
#
# If this CIF has been generated from an entry in the Cambridge 
# Structural Database, then it will include bibliographic, chemical, 
# crystal, experimental, refinement or atomic coordinate data resulting 
# from the CCDC's data processing and validation procedures.
#
#######################################################################

data_KEMYUY
_chemical_formula_moiety         'C96 H128 Co2 N4 O8 Si4,5(C4 H10 O1)'
_chemical_name_systematic        
"bis(\m~2~-3,3'-(1,4-phenylenebis(dimethylsilanediyl))bispyridine)-tetrakis(3,5-di-t-butylbenzene-1,2-diolato)-di-cobalt(ii) diethyl ether solvate"
_symmetry_cell_setting           monoclinic
_symmetry_space_group_name_H-M   'C 2/c'
_symmetry_Int_Tables_number      15
_space_group_name_Hall           '-C 2yn'
loop_
_symmetry_equiv_pos_site_id
_symmetry_equiv_pos_as_xyz
1 x,y,z
2 -x,y,1/2-z
3 1/2+x,1/2+y,z
4 1/2-x,1/2+y,1/2-z
5 -x,-y,-z
6 x,-y,1/2+z
7 1/2-x,1/2-y,-z
8 1/2+x,1/2-y,1/2+z
_cell_length_a                   33.6626(18)
_cell_length_b                   17.8711(10)
_cell_length_c                   25.9471(13)
_cell_angle_alpha                90
_cell_angle_beta                 129.137(3)
_cell_angle_gamma                90
_cell_volume                     12107.3
_exptl_crystal_colour            blue
_exptl_crystal_description       plate
_cell_formula_units_Z            4
loop_
_atom_site_label
_atom_site_type_symbol
_atom_site_fract_x
_atom_site_fract_y
_atom_site_fract_z
Co1 Co -0.35543(5) 0.69845(7) -0.35299(6)
Si1 Si -0.31564(11) 0.41515(16) -0.22914(15)
Si2 Si -0.44163(11) 0.18361(15) -0.48428(15)
O1 O -0.4063(2) 0.6265(3) -0.4103(3)
O2 O -0.3371(2) 0.6937(3) -0.4083(3)
O3 O -0.3049(2) 0.7694(4) -0.2965(3)
O4 O -0.3755(2) 0.7037(3) -0.3003(3)
N1 N -0.3073(3) 0.6179(4) -0.2985(3)
N2 N -0.4036(3) 0.7762(4) -0.4101(4)
C1 C -0.4042(3) 0.6088(5) -0.4570(5)
C2 C -0.3668(3) 0.6461(5) -0.4576(5)
C3 C -0.3629(3) 0.6308(5) -0.5076(5)
C4 C -0.3970(4) 0.5789(5) -0.5549(5)
H1 H -0.3955 0.5686 -0.5896
C5 C -0.4341(3) 0.5400(5) -0.5556(5)
C6 C -0.4369(3) 0.5555(5) -0.5063(5)
H2 H -0.4612 0.5299 -0.5054
C7 C -0.3242(4) 0.6745(5) -0.5098(5)
C8 C -0.3387(4) 0.7591(6) -0.5217(6)
H3 H -0.3377 0.7784 -0.4855
H4 H -0.3733 0.7653 -0.5641
H5 H -0.3143 0.7868 -0.5231
C9 C -0.2701(4) 0.6636(6) -0.4457(5)
H6 H -0.2617 0.6101 -0.4387
H7 H -0.2674 0.6834 -0.4084
H8 H -0.2460 0.6901 -0.4485
C10 C -0.3261(4) 0.6471(6) -0.5672(6)
H9 H -0.3176 0.5938 -0.5614
H10 H -0.3014 0.6754 -0.5677
H11 H -0.3606 0.6548 -0.6094
C11 C -0.4687(4) 0.4831(5) -0.6106(5)
C12 C -0.4993(4) 0.5221(7) -0.6775(5)
H12 H -0.5203 0.5616 -0.6793
H13 H -0.5215 0.4857 -0.7129
H14 H -0.4758 0.5442 -0.6835
C13 C -0.5068(4) 0.4466(5) -0.6044(5)
H15 H -0.5277 0.4854 -0.6052
H16 H -0.4879 0.4189 -0.5624
H17 H -0.5290 0.4120 -0.6416
C14 C -0.4364(4) 0.4218(6) -0.6082(6)
H18 H -0.4120 0.4441 -0.6125
H19 H -0.4586 0.3867 -0.6448
H20 H -0.4176 0.3952 -0.5657
C15 C -0.3058(4) 0.7854(6) -0.2466(5)
C16 C -0.3448(3) 0.7509(5) -0.2497(5)
C17 C -0.3497(3) 0.7673(5) -0.2014(5)
C18 C -0.3129(4) 0.8150(6) -0.1493(5)
H21 H -0.3154 0.8262 -0.1156
C19 C -0.2731(4) 0.8466(6) -0.1446(5)
C20 C -0.2701(4) 0.8326(5) -0.1940(5)
H22 H -0.2437 0.8550 -0.1924
C21 C -0.3927(4) 0.7345(5) -0.2039(5)
C22 C -0.3869(4) 0.6479(6) -0.1991(5)
H23 H -0.4144 0.6256 -0.2012
H24 H -0.3537 0.6343 -0.1570
H25 H -0.3889 0.6293 -0.2362
C23 C -0.4438(4) 0.7539(6) -0.2688(5)
H26 H -0.4480 0.8084 -0.2726
H27 H -0.4711 0.7313 -0.2705
H28 H -0.4455 0.7347 -0.3055
C24 C -0.3922(4) 0.7594(6) -0.1473(5)
H29 H -0.3965 0.8138 -0.1490
H30 H -0.3595 0.7454 -0.1047
H31 H -0.4203 0.7349 -0.1517
C25 C -0.2326(5) 0.8943(7) -0.0852(5)
C26 C -0.2046(6) 0.8481(10) -0.0231(7)
H32 H -0.1858 0.8080 -0.0251
H33 H -0.2293 0.8263 -0.0191
H34 H -0.1805 0.8799 0.0156
C27 C -0.2589(7) 0.9536(10) -0.0730(9)
H35 H -0.2826 0.9290 -0.0686
H36 H -0.2780 0.9884 -0.1106
H37 H -0.2330 0.9812 -0.0322
C28 C -0.1974(5) 0.9342(8) -0.0907(6)
H38 H -0.1801 0.8983 -0.0990
H39 H -0.1719 0.9611 -0.0492
H40 H -0.2167 0.9700 -0.1275
C29 C -0.3224(4) 0.5578(6) -0.2830(5)
H41 H -0.3562 0.5575 -0.2972
C30 C -0.2909(4) 0.4962(6) -0.2473(5)
C31 C -0.2414(4) 0.5003(7) -0.2274(5)
H42 H -0.2180 0.4604 -0.2027
C32 C -0.2263(4) 0.5616(7) -0.2435(6)
H43 H -0.1929 0.5639 -0.2304
C33 C -0.2606(4) 0.6195(6) -0.2789(5)
H44 H -0.2499 0.6621 -0.2893
C34 C -0.3588(4) 0.4510(6) -0.2133(5)
H45 H -0.3719 0.4089 -0.2037
H46 H -0.3875 0.4778 -0.2527
H47 H -0.3398 0.4851 -0.1752
C35 C -0.2613(4) 0.3643(7) -0.1563(5)
H48 H -0.2741 0.3219 -0.1465
H49 H -0.2419 0.3981 -0.1179
H50 H -0.2390 0.3459 -0.1656
C36 C -0.3523(4) 0.3513(6) -0.3028(5)
C37 C -0.3309(5) 0.2873(8) -0.3040(6)
H51 H -0.2964 0.2758 -0.2670
C38 C -0.3576(5) 0.2388(7) -0.3573(6)
H52 H -0.3404 0.1953 -0.3554
C39 C -0.4073(4) 0.2496(5) -0.4126(5)
C40 C -0.4281(4) 0.3163(6) -0.4117(6)
H53 H -0.4621 0.3292 -0.4492
C41 C -0.4010(5) 0.3641(7) -0.3583(7)
H54 H -0.4173 0.4088 -0.3605
C42 C -0.4406(4) 0.2168(6) -0.5508(5)
H55 H -0.4563 0.2665 -0.5656
H56 H -0.4050 0.2196 -0.5337
H57 H -0.4598 0.1818 -0.5883
C43 C -0.4126(4) 0.0902(6) -0.4552(6)
H58 H -0.4131 0.0740 -0.4195
H59 H -0.4320 0.0546 -0.4921
H60 H -0.3771 0.0922 -0.4384
C44 C -0.4524(4) 0.7734(5) -0.4354(5)
H61 H -0.4622 0.7341 -0.4208
C45 C -0.5095(4) 0.1755(5) -0.5177(5)
C46 C -0.5261(5) 0.1196(6) -0.4982(6)
H62 H -0.5022 0.0842 -0.4658
C47 C -0.5758(5) 0.1147(6) -0.5246(6)
H63 H -0.5866 0.0752 -0.5114
C48 C -0.3894(4) 0.8340(6) -0.4301(5)
H64 H -0.3547 0.8384 -0.4119
Co1D Co -0.64457(5) 0.30155(7) -0.64701(6)
Si1D Si -0.68436(11) 0.58485(16) -0.77086(15)
Si2D Si -0.55837(11) 0.81639(15) -0.51572(15)
O1D O -0.5937(2) 0.3735(3) -0.5897(3)
O2D O -0.6629(2) 0.3063(3) -0.5917(3)
O3D O -0.6951(2) 0.2306(4) -0.7035(3)
O4D O -0.6245(2) 0.2963(3) -0.6997(3)
N1D N -0.6927(3) 0.3821(4) -0.7015(3)
N2D N -0.5964(3) 0.2238(4) -0.5899(4)
C1D C -0.5958(3) 0.3912(5) -0.5430(5)
C2D C -0.6332(3) 0.3539(5) -0.5424(5)
C3D C -0.6371(3) 0.3692(5) -0.4924(5)
C4D C -0.6030(4) 0.4211(5) -0.4451(5)
H1D H -0.6045 0.4314 -0.4104
C5D C -0.5659(3) 0.4600(5) -0.4444(5)
C6D C -0.5631(3) 0.4445(5) -0.4937(5)
H2D H -0.5388 0.4701 -0.4946
C7D C -0.6758(4) 0.3255(5) -0.4902(5)
C8D C -0.6613(4) 0.2409(6) -0.4783(6)
H3D H -0.6623 0.2216 -0.5145
H4D H -0.6267 0.2347 -0.4359
H5D H -0.6857 0.2132 -0.4769
C9D C -0.7299(4) 0.3364(6) -0.5543(5)
H6D H -0.7383 0.3899 -0.5613
H7D H -0.7326 0.3166 -0.5916
H8D H -0.7540 0.3099 -0.5515
C10D C -0.6739(4) 0.3529(6) -0.4328(6)
H9D H -0.6824 0.4062 -0.4386
H10D H -0.6986 0.3246 -0.4323
H11D H -0.6394 0.3452 -0.3906
C11D C -0.5313(4) 0.5169(5) -0.3894(5)
C12D C -0.5007(4) 0.4779(7) -0.3225(5)
H12D H -0.4797 0.4384 -0.3207
H13D H -0.4785 0.5143 -0.2871
H14D H -0.5242 0.4558 -0.3165
C13D C -0.4932(4) 0.5534(5) -0.3956(5)
H15D H -0.4723 0.5146 -0.3948
H16D H -0.5121 0.5811 -0.4376
H17D H -0.4710 0.5880 -0.3584
C14D C -0.5636(4) 0.5782(6) -0.3918(6)
H18D H -0.5880 0.5559 -0.3875
H19D H -0.5414 0.6133 -0.3552
H20D H -0.5824 0.6048 -0.4343
C15D C -0.6942(4) 0.2146(6) -0.7534(5)
C16D C -0.6552(3) 0.2491(5) -0.7503(5)
C17D C -0.6503(3) 0.2327(5) -0.7986(5)
C18D C -0.6871(4) 0.1850(6) -0.8507(5)
H21D H -0.6846 0.1738 -0.8844
C19D C -0.7269(4) 0.1534(6) -0.8554(5)
C20D C -0.7299(4) 0.1674(5) -0.8060(5)
H22D H -0.7563 0.1450 -0.8076
C21D C -0.6073(4) 0.2655(5) -0.7961(5)
C22D C -0.6131(4) 0.3521(6) -0.8009(5)
H23D H -0.5856 0.3744 -0.7988
H24D H -0.6463 0.3657 -0.8430
H25D H -0.6111 0.3707 -0.7638
C23D C -0.5562(4) 0.2461(6) -0.7312(5)
H26D H -0.5520 0.1916 -0.7274
H27D H -0.5289 0.2687 -0.7295
H28D H -0.5545 0.2653 -0.6945
C24D C -0.6078(4) 0.2406(6) -0.8527(5)
H29D H -0.6035 0.1862 -0.8510
H30D H -0.6405 0.2546 -0.8953
H31D H -0.5797 0.2651 -0.8483
C25D C -0.7674(5) 0.1057(7) -0.9148(5)
C26D C -0.7954(6) 0.1519(10) -0.9769(7)
H32D H -0.8142 0.1920 -0.9749
H33D H -0.7707 0.1737 -0.9809
H34D H -0.8195 0.1201 -1.0156
C27D C -0.7411(7) 0.0464(10) -0.9270(9)
H35D H -0.7174 0.0710 -0.9314
H36D H -0.7220 0.0116 -0.8894
H37D H -0.7670 0.0188 -0.9678
C28D C -0.8026(5) 0.0658(8) -0.9093(6)
H38D H -0.8199 0.1017 -0.9010
H39D H -0.8281 0.0389 -0.9508
H40D H -0.7833 0.0300 -0.8725
C29D C -0.6776(4) 0.4422(6) -0.7170(5)
H41D H -0.6438 0.4425 -0.7028
C30D C -0.7091(4) 0.5038(6) -0.7527(5)
C31D C -0.7586(4) 0.4997(7) -0.7726(5)
H42D H -0.7820 0.5396 -0.7973
C32D C -0.7737(4) 0.4384(7) -0.7565(6)
H43D H -0.8071 0.4361 -0.7696
C33D C -0.7394(4) 0.3805(6) -0.7211(5)
H44D H -0.7501 0.3379 -0.7107
C34D C -0.6412(4) 0.5490(6) -0.7867(5)
H45D H -0.6281 0.5911 -0.7963
H46D H -0.6125 0.5222 -0.7473
H47D H -0.6602 0.5149 -0.8248
C35D C -0.7387(4) 0.6357(7) -0.8437(5)
H48D H -0.7259 0.6781 -0.8535
H49D H -0.7581 0.6019 -0.8821
H50D H -0.7610 0.6541 -0.8344
C36D C -0.6477(4) 0.6487(6) -0.6972(5)
C37D C -0.6691(5) 0.7127(8) -0.6960(6)
H51D H -0.7036 0.7242 -0.7330
C38D C -0.6424(5) 0.7612(7) -0.6427(6)
H52D H -0.6596 0.8047 -0.6446
C39D C -0.5927(4) 0.7504(5) -0.5874(5)
C40D C -0.5719(4) 0.6837(6) -0.5883(6)
H53D H -0.5379 0.6708 -0.5508
C41D C -0.5990(5) 0.6359(7) -0.6417(7)
H54D H -0.5827 0.5912 -0.6395
C42D C -0.5594(4) 0.7832(6) -0.4492(5)
H55D H -0.5437 0.7335 -0.4344
H56D H -0.5950 0.7804 -0.4663
H57D H -0.5402 0.8182 -0.4117
C43D C -0.5874(4) 0.9098(6) -0.5448(6)
H58D H -0.5869 0.9260 -0.5805
H59D H -0.5680 0.9454 -0.5079
H60D H -0.6229 0.9078 -0.5616
C44D C -0.5476(4) 0.2266(5) -0.5646(5)
H61D H -0.5378 0.2659 -0.5792
C45D C -0.4905(4) 0.8245(5) -0.4823(5)
C46D C -0.4739(5) 0.8804(6) -0.5018(6)
H62D H -0.4978 0.9158 -0.5342
C47D C -0.4242(5) 0.8853(6) -0.4754(6)
H63D H -0.4134 0.9248 -0.4886
C48D C -0.6106(4) 0.1660(6) -0.5699(5)
H64D H -0.6453 0.1616 -0.5881
O5 O -0.6134(4) 0.9434(7) -0.7300(6)
C49 C -0.5953(8) 1.0560(8) -0.6798(9)
H65 H -0.5861 1.1080 -0.6796
H66 H -0.5696 1.0338 -0.6358
H67 H -0.6289 1.0546 -0.6904
C50 C -0.5973(12) 1.0177(10) -0.7247(13)
H68 H -0.5630 1.0174 -0.7128
H69 H -0.6213 1.0427 -0.7684
C51 C -0.6189(11) 0.8947(15) -0.7796(13)
H70 H -0.6447 0.9172 -0.8240
H71 H -0.5858 0.8942 -0.7713
C52 C -0.6328(8) 0.8224(12) -0.7815(11)
H72 H -0.6375 0.7959 -0.8181
H73 H -0.6649 0.8217 -0.7884
H74 H -0.6059 0.7976 -0.7394
O6 O -0.3270(7) 1.0609(9) -0.4977(9)
C53 C -0.3980(14) 0.9954(17) -0.5949(14)
H75 H -0.4075 0.9448 -0.6135
H76 H -0.3993 1.0292 -0.6257
H77 H -0.4220 1.0129 -0.5880
C54 C -0.3463(9) 0.9947(15) -0.5316(13)
H78 H -0.3454 0.9579 -0.5023
H79 H -0.3229 0.9761 -0.5396
C55 C -0.2837(9) 1.0722(17) -0.4409(11)
H80 H -0.2572 1.0601 -0.4453
H81 H -0.2802 1.0347 -0.4103
C56 C -0.2697(8) 1.1442(12) -0.4073(12)
H82 H -0.2355 1.1407 -0.3640
H83 H -0.2946 1.1579 -0.4011
H84 H -0.2696 1.1824 -0.4343
O7 O -0.5000 0.771(3) -0.7500
C57 C -0.4928(14) 0.782(2) -0.6434(18)
H85 H -0.4917 0.7428 -0.6158
H86 H -0.5228 0.8135 -0.6625
H87 H -0.4616 0.8121 -0.6159
C58 C -0.4960(10) 0.7466(18) -0.6968(17)
H88 H -0.4654 0.7139 -0.6725
H89 H -0.5254 0.7121 -0.7172
C57A C -0.5072(14) 0.782(2) -0.8566(18)
H85A H -0.5083 0.7428 -0.8842
H86A H -0.4772 0.8135 -0.8375
H87A H -0.5384 0.8121 -0.8841
C58A C -0.5040(10) 0.7466(18) -0.8032(17)
H88A H -0.5346 0.7139 -0.8275
H89A H -0.4746 0.7121 -0.7828
loop_
_geom_bond_atom_site_label_1
_geom_bond_atom_site_label_2
_geom_bond_site_symmetry_1
_geom_bond_site_symmetry_2
Co1 O1 1_555 1_555
Si1 C30 1_555 1_555
Si2 C39 1_555 1_555
O1 C1 1_555 1_555
O2 Co1 1_555 1_555
O3 Co1 1_555 1_555
O4 Co1 1_555 1_555
O5 C50 1_555 1_555
O6 C54 1_555 1_555
O7 C58 1_555 1_555
N1 Co1 1_555 1_555
N2 Co1 1_555 1_555
C1 C2 1_555 1_555
C2 O2 1_555 1_555
C3 C2 1_555 1_555
C4 C3 1_555 1_555
H1 C4 1_555 1_555
C5 C4 1_555 1_555
C6 C1 1_555 1_555
H2 C6 1_555 1_555
C7 C3 1_555 1_555
C8 C7 1_555 1_555
H3 C8 1_555 1_555
H4 C8 1_555 1_555
H5 C8 1_555 1_555
C9 C7 1_555 1_555
H6 C9 1_555 1_555
H7 C9 1_555 1_555
H8 C9 1_555 1_555
C10 C7 1_555 1_555
H9 C10 1_555 1_555
H10 C10 1_555 1_555
H11 C10 1_555 1_555
C11 C5 1_555 1_555
C12 C11 1_555 1_555
H12 C12 1_555 1_555
H13 C12 1_555 1_555
H14 C12 1_555 1_555
C13 C11 1_555 1_555
H15 C13 1_555 1_555
H16 C13 1_555 1_555
H17 C13 1_555 1_555
C14 C11 1_555 1_555
H18 C14 1_555 1_555
H19 C14 1_555 1_555
H20 C14 1_555 1_555
C15 O3 1_555 1_555
C16 O4 1_555 1_555
C17 C16 1_555 1_555
C18 C17 1_555 1_555
H21 C18 1_555 1_555
C19 C18 1_555 1_555
C20 C15 1_555 1_555
H22 C20 1_555 1_555
C21 C17 1_555 1_555
C22 C21 1_555 1_555
H23 C22 1_555 1_555
H24 C22 1_555 1_555
H25 C22 1_555 1_555
C23 C21 1_555 1_555
H26 C23 1_555 1_555
H27 C23 1_555 1_555
H28 C23 1_555 1_555
C24 C21 1_555 1_555
H29 C24 1_555 1_555
H30 C24 1_555 1_555
H31 C24 1_555 1_555
C25 C19 1_555 1_555
C26 C25 1_555 1_555
H32 C26 1_555 1_555
H33 C26 1_555 1_555
H34 C26 1_555 1_555
C27 C25 1_555 1_555
H35 C27 1_555 1_555
H36 C27 1_555 1_555
H37 C27 1_555 1_555
C28 C25 1_555 1_555
H38 C28 1_555 1_555
H39 C28 1_555 1_555
H40 C28 1_555 1_555
C29 N1 1_555 1_555
H41 C29 1_555 1_555
C30 C29 1_555 1_555
C31 C30 1_555 1_555
H42 C31 1_555 1_555
C32 C31 1_555 1_555
H43 C32 1_555 1_555
C33 N1 1_555 1_555
H44 C33 1_555 1_555
C34 Si1 1_555 1_555
H45 C34 1_555 1_555
H46 C34 1_555 1_555
H47 C34 1_555 1_555
C35 Si1 1_555 1_555
H48 C35 1_555 1_555
H49 C35 1_555 1_555
H50 C35 1_555 1_555
C36 Si1 1_555 1_555
C37 C36 1_555 1_555
H51 C37 1_555 1_555
C38 C37 1_555 1_555
H52 C38 1_555 1_555
C39 C38 1_555 1_555
C40 C39 1_555 1_555
H53 C40 1_555 1_555
C41 C36 1_555 1_555
H54 C41 1_555 1_555
C42 Si2 1_555 1_555
H55 C42 1_555 1_555
H56 C42 1_555 1_555
H57 C42 1_555 1_555
C43 Si2 1_555 1_555
H58 C43 1_555 1_555
H59 C43 1_555 1_555
H60 C43 1_555 1_555
C44 N2 1_555 1_555
H61 C44 1_555 1_555
C45 Si2 1_555 1_555
C46 C45 1_555 1_555
H62 C46 1_555 1_555
C47 C46 1_555 1_555
H63 C47 1_555 1_555
C48 N2 1_555 1_555
H64 C48 1_555 1_555
C49 H65 1_555 1_555
H66 C49 1_555 1_555
H67 C49 1_555 1_555
C50 C49 1_555 1_555
H68 C50 1_555 1_555
H69 C50 1_555 1_555
C51 O5 1_555 1_555
H70 C51 1_555 1_555
H71 C51 1_555 1_555
C52 C51 1_555 1_555
H72 C52 1_555 1_555
H73 C52 1_555 1_555
H74 C52 1_555 1_555
C53 H75 1_555 1_555
H76 C53 1_555 1_555
H77 C53 1_555 1_555
C54 C53 1_555 1_555
H78 C54 1_555 1_555
H79 C54 1_555 1_555
C55 O6 1_555 1_555
H80 C55 1_555 1_555
H81 C55 1_555 1_555
C56 C55 1_555 1_555
H82 C56 1_555 1_555
H83 C56 1_555 1_555
H84 C56 1_555 1_555
C57 H85 1_555 1_555
H86 C57 1_555 1_555
H87 C57 1_555 1_555
C58 C57 1_555 1_555
H88 C58 1_555 1_555
H89 C58 1_555 1_555
Co1D O1D 1_555 1_555
Si1D C30D 1_555 1_555
Si2D C39D 1_555 1_555
O1D C1D 1_555 1_555
O2D Co1D 1_555 1_555
O3D Co1D 1_555 1_555
O4D Co1D 1_555 1_555
N1D Co1D 1_555 1_555
N2D Co1D 1_555 1_555
C1D C2D 1_555 1_555
C2D O2D 1_555 1_555
C3D C2D 1_555 1_555
C4D C3D 1_555 1_555
H1D C4D 1_555 1_555
C5D C4D 1_555 1_555
C6D C1D 1_555 1_555
H2D C6D 1_555 1_555
C7D C3D 1_555 1_555
C8D C7D 1_555 1_555
H3D C8D 1_555 1_555
H4D C8D 1_555 1_555
H5D C8D 1_555 1_555
C9D C7D 1_555 1_555
H6D C9D 1_555 1_555
H7D C9D 1_555 1_555
H8D C9D 1_555 1_555
C10D C7D 1_555 1_555
H9D C10D 1_555 1_555
H10D C10D 1_555 1_555
H11D C10D 1_555 1_555
C11D C5D 1_555 1_555
C12D C11D 1_555 1_555
H12D C12D 1_555 1_555
H13D C12D 1_555 1_555
H14D C12D 1_555 1_555
C13D C11D 1_555 1_555
H15D C13D 1_555 1_555
H16D C13D 1_555 1_555
H17D C13D 1_555 1_555
C14D C11D 1_555 1_555
H18D C14D 1_555 1_555
H19D C14D 1_555 1_555
H20D C14D 1_555 1_555
C15D O3D 1_555 1_555
C16D O4D 1_555 1_555
C17D C16D 1_555 1_555
C18D C17D 1_555 1_555
H21D C18D 1_555 1_555
C19D C18D 1_555 1_555
C20D C15D 1_555 1_555
H22D C20D 1_555 1_555
C21D C17D 1_555 1_555
C22D C21D 1_555 1_555
H23D C22D 1_555 1_555
H24D C22D 1_555 1_555
H25D C22D 1_555 1_555
C23D C21D 1_555 1_555
H26D C23D 1_555 1_555
H27D C23D 1_555 1_555
H28D C23D 1_555 1_555
C24D C21D 1_555 1_555
H29D C24D 1_555 1_555
H30D C24D 1_555 1_555
H31D C24D 1_555 1_555
C25D C19D 1_555 1_555
C26D C25D 1_555 1_555
H32D C26D 1_555 1_555
H33D C26D 1_555 1_555
H34D C26D 1_555 1_555
C27D C25D 1_555 1_555
H35D C27D 1_555 1_555
H36D C27D 1_555 1_555
H37D C27D 1_555 1_555
C28D C25D 1_555 1_555
H38D C28D 1_555 1_555
H39D C28D 1_555 1_555
H40D C28D 1_555 1_555
C29D N1D 1_555 1_555
H41D C29D 1_555 1_555
C30D C29D 1_555 1_555
C31D C30D 1_555 1_555
H42D C31D 1_555 1_555
C32D C31D 1_555 1_555
H43D C32D 1_555 1_555
C33D N1D 1_555 1_555
H44D C33D 1_555 1_555
C34D Si1D 1_555 1_555
H45D C34D 1_555 1_555
H46D C34D 1_555 1_555
H47D C34D 1_555 1_555
C35D Si1D 1_555 1_555
H48D C35D 1_555 1_555
H49D C35D 1_555 1_555
H50D C35D 1_555 1_555
C36D Si1D 1_555 1_555
C37D C36D 1_555 1_555
H51D C37D 1_555 1_555
C38D C37D 1_555 1_555
H52D C38D 1_555 1_555
C39D C38D 1_555 1_555
C40D C39D 1_555 1_555
H53D C40D 1_555 1_555
C41D C36D 1_555 1_555
H54D C41D 1_555 1_555
C42D Si2D 1_555 1_555
H55D C42D 1_555 1_555
H56D C42D 1_555 1_555
H57D C42D 1_555 1_555
C43D Si2D 1_555 1_555
H58D C43D 1_555 1_555
H59D C43D 1_555 1_555
H60D C43D 1_555 1_555
C44D C45 1_555 1_555
H61D C44D 1_555 1_555
C45D C44 1_555 1_555
C46D C45D 1_555 1_555
H62D C46D 1_555 1_555
C47D C48 1_555 1_555
H63D C47D 1_555 1_555
C48D C47 1_555 1_555
H64D C48D 1_555 1_555
C57A H85A 1_555 1_555
H86A C57A 1_555 1_555
H87A C57A 1_555 1_555
C58A O7 1_555 1_555
H88A C58A 1_555 1_555
H89A C58A 1_555 1_555
C5 C6 1_555 1_555
C15 C16 1_555 1_555
C19 C20 1_555 1_555
C32 C33 1_555 1_555
C40 C41 1_555 1_555
Si2D C45D 1_555 1_555
N2D C44D 1_555 1_555
N2D C48D 1_555 1_555
C5D C6D 1_555 1_555
C15D C16D 1_555 1_555
C19D C20D 1_555 1_555
C32D C33D 1_555 1_555
C40D C41D 1_555 1_555
C46D C47D 1_555 1_555
C57A C58A 1_555 1_555

#END
