
#######################################################################
#
#                 Cambridge Crystallographic Data Centre
#                                CCDC 
#
#######################################################################
#
# If this CIF has been generated from an entry in the Cambridge 
# Structural Database, then it will include bibliographic, chemical, 
# crystal, experimental, refinement or atomic coordinate data resulting 
# from the CCDC's data processing and validation procedures.
#
#######################################################################

data_KEQBEP
_chemical_formula_moiety         
'C168 H108 Ir6 N24 6+,6(C1 F3 O3 S1 1-),11(C6 H6),C2 H2 Cl4,H2 O1'
_chemical_name_systematic        
'tetrakis(\m~3~-1,3,5-tricyanobenzene)-dodecakis(2-phenylpyridine)-hexa-iridium hexakis(trifluoromethanesulfonate) benzene tetrachloroethane solvate monohydrate'
_symmetry_cell_setting           triclinic
_symmetry_space_group_name_H-M   'P 1'
_symmetry_Int_Tables_number      1
_space_group_name_Hall           'P 1'
loop_
_symmetry_equiv_pos_site_id
_symmetry_equiv_pos_as_xyz
1 x,y,z
_cell_length_a                   18.2508(4)
_cell_length_b                   19.2160(5)
_cell_length_c                   20.1901(14)
_cell_angle_alpha                84.800(6)
_cell_angle_beta                 63.270(5)
_cell_angle_gamma                72.872(5)
_cell_volume                     6036.39
_exptl_crystal_colour            yellow
_exptl_crystal_description       prism
_cell_formula_units_Z            1
loop_
_atom_site_label
_atom_site_type_symbol
_atom_site_fract_x
_atom_site_fract_y
_atom_site_fract_z
Ir1 Ir 0.34729(3) 0.10987(2) 0.00063(2)
Ir2 Ir 0.94708(3) 0.05103(2) -0.45889(2)
Ir3 Ir 0.91000(3) -0.06748(2) 0.05446(2)
Ir4 Ir 0.46066(3) 0.45620(2) 0.27544(3)
Ir5 Ir 1.03641(3) 0.41649(2) -0.14157(2)
Ir6 Ir 0.51563(3) 0.56347(2) -0.26741(2)
N1 N 0.2637(6) 0.2024(5) 0.0650(5)
C1 C 0.2614(8) 0.2695(6) 0.0414(8)
H1 H 0.2989 0.2765 -0.0082
C2 C 0.2028(10) 0.3310(8) 0.0905(10)
H2 H 0.2017 0.3788 0.0730
C3 C 0.1504(8) 0.3229(9) 0.1590(9)
H3 H 0.1121 0.3641 0.1915
C4 C 0.1522(8) 0.2533(9) 0.1830(8)
H4 H 0.1132 0.2453 0.2317
C5 C 0.2136(8) 0.1937(7) 0.1333(7)
C6 C 0.2202(9) 0.1166(9) 0.1543(8)
C7 C 0.1771(9) 0.0901(10) 0.2237(7)
H5 H 0.1372 0.1240 0.2641
C8 C 0.1900(12) 0.0193(11) 0.2352(10)
H6 H 0.1569 0.0028 0.2820
C9 C 0.2483(11) -0.0267(10) 0.1815(11)
H7 H 0.2576 -0.0768 0.1922
C10 C 0.2989(8) -0.0105(7) 0.1094(8)
H8 H 0.3386 -0.0478 0.0723
C11 C 0.2647(8) 0.0952(7) -0.0333(7)
C12 C 0.1810(7) 0.1378(7) -0.0158(7)
H9 H 0.1606 0.1837 0.0100
C13 C 0.1283(9) 0.1163(7) -0.0341(7)
H10 H 0.0725 0.1473 -0.0225
C14 C 0.1566(8) 0.0465(7) -0.0711(7)
H11 H 0.1196 0.0312 -0.0841
C15 C 0.2364(8) 0.0024(7) -0.0876(7)
H12 H 0.2558 -0.0436 -0.1128
C16 C 0.2904(7) 0.0248(6) -0.0674(6)
C17 C 0.3773(8) -0.0186(7) -0.0836(8)
C18 C 0.4211(11) -0.0846(8) -0.1246(10)
H13 H 0.3913 -0.1078 -0.1397
C19 C 0.5045(10) -0.1166(8) -0.1436(14)
H14 H 0.5355 -0.1595 -0.1752
C20 C 0.5453(10) -0.0821(7) -0.1133(11)
H15 H 0.6028 -0.1043 -0.1215
C21 C 0.5013(8) -0.0203(7) -0.0747(8)
H16 H 0.5287 0.0021 -0.0560
N2 N 0.9448(6) -0.0462(5) -0.4097(5)
C22 C 0.8754(9) -0.0577(7) -0.3514(8)
H17 H 0.8240 -0.0188 -0.3313
C23 C 0.8772(13) -0.1245(9) -0.3202(9)
H18 H 0.8270 -0.1317 -0.2801
C24 C 0.9540(11) -0.1825(7) -0.3478(9)
H19 H 0.9566 -0.2295 -0.3280
C25 C 1.0259(11) -0.1671(7) -0.4061(8)
H20 H 1.0789 -0.2043 -0.4256
C26 C 1.0215(9) -0.0986(6) -0.4361(7)
C27 C 1.0917(9) -0.0765(7) -0.4922(7)
C28 C 1.1764(10) -0.1202(9) -0.5242(9)
H21 H 1.1901 -0.1693 -0.5105
C29 C 1.2400(11) -0.0923(9) -0.5756(11)
H22 H 1.2985 -0.1192 -0.5921
C30 C 1.2182(12) -0.0249(11) -0.6031(12)
H23 H 1.2596 -0.0096 -0.6459
C31 C 1.1380(9) 0.0186(9) -0.5687(8)
H24 H 1.1266 0.0681 -0.5814
C32 C 1.0298(8) -0.1387(6) 0.0101(6)
C33 C 1.0623(8) -0.1954(6) -0.0432(7)
H25 H 1.0250 -0.2051 -0.0598
C34 C 1.1446(9) -0.2371(7) -0.0721(8)
H26 H 1.1636 -0.2774 -0.1055
C35 C 1.2015(9) -0.2197(8) -0.0518(8)
H27 H 1.2598 -0.2480 -0.0717
C36 C 1.1719(8) -0.1609(7) -0.0023(7)
H28 H 1.2099 -0.1493 0.0122
C37 C 1.0876(8) -0.1190(7) 0.0257(7)
C38 C 1.0530(8) -0.0528(8) 0.0748(7)
C39 C 1.0991(9) -0.0242(7) 0.0977(7)
H29 H 1.1574 -0.0492 0.0849
C40 C 1.0622(9) 0.0384(8) 0.1376(8)
H30 H 1.0934 0.0570 0.1552
C41 C 0.9771(9) 0.0772(7) 0.1540(7)
H31 H 0.9504 0.1231 0.1808
C42 C 0.9349(8) 0.0466(6) 0.1301(7)
H32 H 0.8771 0.0718 0.1412
C43 C 0.8725(7) -0.1292(6) 0.1434(7)
C44 C 0.8791(8) -0.1249(6) 0.2085(7)
H33 H 0.9103 -0.0948 0.2122
C45 C 0.8405(8) -0.1643(8) 0.2682(8)
H34 H 0.8424 -0.1589 0.3137
C46 C 0.7977(9) -0.2128(8) 0.2623(8)
H35 H 0.7716 -0.2402 0.3032
C47 C 0.7949(8) -0.2194(7) 0.1959(8)
H36 H 0.7664 -0.2514 0.1912
C48 C 0.8327(8) -0.1802(7) 0.1372(8)
C49 C 0.8296(8) -0.1820(7) 0.0657(8)
C50 C 0.8022(10) -0.2297(7) 0.0439(9)
H37 H 0.7822 -0.2659 0.0767
C51 C 0.8025(10) -0.2274(8) -0.0225(9)
H38 H 0.7848 -0.2624 -0.0377
C52 C 0.8290(9) -0.1733(6) -0.0687(9)
H39 H 0.8249 -0.1681 -0.1143
C53 C 0.8613(9) -0.1269(6) -0.0492(8)
H40 H 0.8838 -0.0921 -0.0826
N3 N 0.5635(6) 0.4207(5) 0.3005(5)
C54 C 0.6372(8) 0.4344(7) 0.2609(7)
H41 H 0.6443 0.4617 0.2179
C55 C 0.7059(9) 0.4109(8) 0.2790(8)
H42 H 0.7592 0.4206 0.2495
C56 C 0.6904(9) 0.3716(8) 0.3439(8)
H43 H 0.7340 0.3537 0.3598
C57 C 0.6118(9) 0.3594(7) 0.3843(7)
H44 H 0.6013 0.3334 0.4284
C58 C 0.5492(7) 0.3838(6) 0.3622(6)
C59 C 0.4631(9) 0.3745(7) 0.4029(7)
C60 C 0.4388(10) 0.3312(7) 0.4631(7)
H45 H 0.4782 0.3070 0.4823
C61 C 0.3561(9) 0.3232(8) 0.4957(8)
H46 H 0.3375 0.2963 0.5390
C62 C 0.2993(10) 0.3564(8) 0.4623(8)
H47 H 0.2441 0.3493 0.4823
C63 C 0.3250(8) 0.3979(8) 0.4020(8)
H48 H 0.2873 0.4201 0.3806
N4 N 1.0733(6) 0.4425(5) -0.2465(6)
C64 C 1.0209(9) 0.4701(7) -0.2816(8)
H49 H 0.9609 0.4789 -0.2525
C65 C 1.0499(9) 0.4853(8) -0.3549(7)
H50 H 1.0107 0.5026 -0.3757
C66 C 1.1357(9) 0.4756(8) -0.3985(9)
H51 H 1.1569 0.4874 -0.4492
C67 C 1.1910(10) 0.4479(7) -0.3661(7)
H52 H 1.2507 0.4406 -0.3952
C68 C 1.1602(8) 0.4308(6) -0.2922(7)
C69 C 1.2085(8) 0.4016(5) -0.2502(7)
C70 C 1.2985(8) 0.3868(6) -0.2842(7)
H53 H 1.3290 0.3932 -0.3357
C71 C 1.3418(9) 0.3626(8) -0.2406(8)
H54 H 1.4021 0.3539 -0.2622
C72 C 1.2979(9) 0.3513(7) -0.1671(8)
H55 H 1.3279 0.3352 -0.1379
C73 C 1.2099(8) 0.3632(7) -0.1347(7)
H56 H 1.1801 0.3532 -0.0841
N5 N 1.0125(5) 0.3922(5) -0.0340(5)
C74 C 1.0109(8) 0.3258(7) -0.0047(6)
H57 H 1.0205 0.2869 -0.0362
C75 C 0.9969(7) 0.3118(6) 0.0645(6)
H58 H 0.9918 0.2652 0.0827
C76 C 0.9896(8) 0.3649(8) 0.1100(7)
H59 H 0.9822 0.3552 0.1592
C77 C 0.9934(9) 0.4348(6) 0.0814(7)
H60 H 0.9848 0.4739 0.1121
C78 C 1.0101(8) 0.4444(6) 0.0072(7)
C79 C 1.0129(7) 0.5151(6) -0.0285(6)
C80 C 1.0036(8) 0.5777(7) 0.0069(7)
H61 H 0.9987 0.5762 0.0559
C81 C 1.0013(9) 0.6422(7) -0.0288(7)
H62 H 0.9933 0.6858 -0.0045
C82 C 1.0110(9) 0.6424(7) -0.1010(8)
H63 H 1.0078 0.6870 -0.1255
C83 C 1.0252(8) 0.5792(6) -0.1383(6)
H64 H 1.0349 0.5808 -0.1886
N6 N 0.3961(6) 0.5494(5) -0.2098(5)
C84 C 0.3611(7) 0.5390(6) -0.1364(6)
H65 H 0.3935 0.5353 -0.1096
C85 C 0.2754(9) 0.5335(7) -0.0987(8)
H66 H 0.2503 0.5244 -0.0473
C86 C 0.2302(8) 0.5420(7) -0.1407(8)
H67 H 0.1717 0.5427 -0.1169
C87 C 0.2691(8) 0.5493(7) -0.2153(8)
H68 H 0.2383 0.5531 -0.2435
C88 C 0.3528(8) 0.5511(6) -0.2501(7)
C89 C 0.4063(7) 0.5516(6) -0.3294(7)
C90 C 0.3768(10) 0.5447(7) -0.3816(8)
H69 H 0.3197 0.5434 -0.3656
C91 C 0.4331(9) 0.5396(7) -0.4574(7)
H70 H 0.4160 0.5308 -0.4932
C92 C 0.5152(10) 0.5477(8) -0.4803(8)
H71 H 0.5513 0.5495 -0.5317
C93 C 0.5426(8) 0.5528(7) -0.4295(6)
H72 H 0.6002 0.5530 -0.4461
N7 N 0.6296(6) 0.5878(6) -0.3310(6)
C94 C 0.7073(9) 0.5382(9) -0.3607(9)
H73 H 0.7110 0.4878 -0.3559
C95 C 0.7820(11) 0.5590(12) -0.3981(11)
H74 H 0.8357 0.5232 -0.4217
C96 C 0.7786(13) 0.6237(15) -0.4007(12)
H75 H 0.8301 0.6374 -0.4193
C97 C 0.6932(11) 0.6829(11) -0.3747(11)
H76 H 0.6900 0.7328 -0.3836
C98 C 0.6226(9) 0.6601(8) -0.3382(8)
C99 C 0.5389(10) 0.7059(8) -0.3041(7)
C100 C 0.5150(11) 0.7822(8) -0.3099(10)
H77 H 0.5580 0.8057 -0.3377
C101 C 0.4318(12) 0.8225(9) -0.2764(9)
H78 H 0.4185 0.8741 -0.2786
C102 C 0.3678(12) 0.7923(8) -0.2403(10)
H79 H 0.3103 0.8224 -0.2180
C103 C 0.3855(9) 0.7147(7) -0.2349(7)
H80 H 0.3407 0.6923 -0.2109
C104 C 0.5765(7) 0.5550(7) -0.1382(6)
C105 C 0.6186(7) 0.5354(6) -0.0905(6)
C106 C 0.7043(8) 0.5207(7) -0.1192(7)
H81 H 0.7378 0.5263 -0.1703
C107 C 0.7427(7) 0.4973(6) -0.0719(7)
C108 C 0.6968(8) 0.4929(6) 0.0024(7)
H82 H 0.7238 0.4783 0.0341
C109 C 0.6062(7) 0.5112(6) 0.0302(6)
C110 C 0.5657(8) 0.5325(7) -0.0142(6)
H83 H 0.5052 0.5447 0.0053
C111 C 0.8363(8) 0.4732(6) -0.0991(7)
C112 C 0.5585(7) 0.5035(6) 0.1098(7)
C113 C 0.5735(7) 0.3896(6) -0.2601(6)
C114 C 0.5887(7) 0.3118(6) -0.2536(6)
C115 C 0.5243(7) 0.2853(6) -0.2011(6)
H84 H 0.4720 0.3178 -0.1675
C116 C 0.5370(8) 0.2106(6) -0.1983(8)
C117 C 0.6087(7) 0.1648(6) -0.2464(6)
H85 H 0.6149 0.1139 -0.2442
C118 C 0.6731(7) 0.1892(6) -0.2985(6)
C119 C 0.6643(7) 0.2645(6) -0.3047(6)
H86 H 0.7081 0.2823 -0.3423
C120 C 0.4691(8) 0.1840(6) -0.1400(7)
C121 C 0.7533(8) 0.1401(6) -0.3501(7)
C122 C 0.4777(7) 0.1306(6) 0.0593(7)
C123 C 0.5294(8) 0.1457(6) 0.0891(7)
C124 C 0.6033(6) 0.0930(6) 0.0854(6)
H87 H 0.6213 0.0468 0.0608
C125 C 0.6497(7) 0.1082(6) 0.1173(7)
C126 C 0.6251(7) 0.1748(6) 0.1538(6)
H88 H 0.6567 0.1844 0.1768
C127 C 0.5505(7) 0.2287(6) 0.1560(7)
C128 C 0.5026(7) 0.2134(7) 0.1255(7)
H89 H 0.4518 0.2487 0.1293
C129 C 0.7272(8) 0.0539(6) 0.1084(7)
C130 C 0.5242(7) 0.2984(7) 0.1931(7)
C131 C 0.9472(7) 0.0416(5) -0.0824(6)
C132 C 0.9649(8) 0.0889(5) -0.1390(6)
C133 C 0.9851(8) 0.1530(6) -0.1329(6)
H90 H 0.9876 0.1641 -0.0892
C134 C 1.0012(7) 0.1992(6) -0.1911(6)
C135 C 0.9982(7) 0.1840(6) -0.2558(6)
H91 H 1.0112 0.2155 -0.2960
C136 C 0.9765(7) 0.1238(6) -0.2608(6)
C137 C 0.9571(6) 0.0750(5) -0.2030(6)
H92 H 0.9394 0.0343 -0.2069
C138 C 0.9743(7) 0.1052(6) -0.3258(6)
C139 C 1.0238(8) 0.2633(6) -0.1840(7)
C140 C 0.2881(8) 0.0650(7) 0.0941(7)
N8 N 0.4173(7) 0.0141(6) -0.0596(6)
N9 N 0.4181(7) 0.1603(5) -0.0940(6)
N10 N 0.4350(6) 0.1186(5) 0.0355(6)
C141 C 1.0714(8) -0.0049(6) -0.5159(7)
N11 N 0.8178(7) 0.1065(5) -0.3910(5)
N12 N 0.9689(6) 0.0864(5) -0.3759(5)
N13 N 0.8605(6) -0.1316(4) 0.0183(6)
N14 N 0.9696(6) -0.0160(5) 0.0923(5)
N15 N 0.7890(6) 0.0112(5) 0.0983(6)
N16 N 0.9392(6) -0.0002(5) -0.0362(6)
C142 C 0.4082(8) 0.4081(7) 0.3712(7)
N17 N 0.3545(11) 0.5017(8) 0.2592(11)
C143 C 0.4278(12) 0.5568(10) 0.3228(10)
C144 C 0.467(3) 0.5825(15) 0.359(4)
H93 H 0.5129 0.5503 0.3666
C145 C 0.4377(18) 0.6552(12) 0.382(2)
H94 H 0.4632 0.6725 0.4063
C146 C 0.3688(15) 0.7056(12) 0.3697(13)
H95 H 0.3523 0.7560 0.3831
C147 C 0.3262(15) 0.6798(11) 0.3380(12)
H96 H 0.2777 0.7111 0.3334
C148 C 0.3578(13) 0.6070(10) 0.3138(11)
C149 C 0.3184(12) 0.5771(10) 0.2793(10)
C150 C 0.2518(13) 0.6153(11) 0.2646(12)
H97 H 0.2279 0.6662 0.2764
C151 C 0.2197(12) 0.5801(11) 0.2330(11)
H98 H 0.1704 0.6063 0.2267
C152 C 0.2579(13) 0.5051(10) 0.2091(11)
H99 H 0.2386 0.4812 0.1835
C153 C 0.3243(13) 0.4698(11) 0.2253(12)
H100 H 0.3504 0.4193 0.2115
N18 N 0.5236(7) 0.4935(6) 0.1714(6)
N19 N 0.5026(6) 0.3522(6) 0.2201(6)
C154 C 1.0258(7) 0.5127(6) -0.1033(6)
C155 C 1.1660(7) 0.3897(6) -0.1768(7)
N20 N 0.9048(6) 0.4529(5) -0.1148(5)
N21 N 1.0350(7) 0.3131(5) -0.1716(5)
C156 C 0.4736(9) 0.6723(8) -0.2673(7)
C157 C 0.4893(8) 0.5577(6) -0.3537(7)
N22 N 0.5623(6) 0.4497(5) -0.2686(5)
N23 N 0.5448(6) 0.5654(5) -0.1769(5)
N24 N 0.9582(7) 0.1422(6) -0.5196(5)
C158 C 0.9459(8) 0.1413(7) -0.5816(6)
C159 C 0.9761(11) 0.1979(7) -0.5060(8)
H101 H 0.9824 0.1981 -0.4617
C160 C 0.9245(9) 0.0780(7) -0.5915(6)
C161 C 0.9214(19) 0.0245(11) -0.5398(13)
C162 C 0.8956(19) -0.0331(11) -0.5422(12)
H102 H 0.8939 -0.0695 -0.5068
C163 C 0.9710(9) 0.2581(7) -0.6104(8)
H103 H 0.9741 0.2988 -0.6410
C164 C 0.9520(8) 0.2044(8) -0.6251(7)
H104 H 0.9414 0.2064 -0.6672
C165 C 0.9869(11) 0.2563(9) -0.5491(10)
H105 H 1.0044 0.2938 -0.5379
C166 C 0.8973(18) 0.0718(10) -0.6430(12)
H106 H 0.8930 0.1109 -0.6747
C167 C 0.8773(19) 0.0149(10) -0.6502(12)
H107 H 0.8669 0.0094 -0.6913
C168 C 0.8708(18) -0.0394(10) -0.5973(12)
H108 H 0.8503 -0.0789 -0.5991
C169 C 0.4207(7) 0.0812(5) 0.2664(6)
H109 H 0.4500 0.0315 0.2505
C170 C 0.3505(7) 0.1168(6) 0.2534(6)
H110 H 0.3318 0.0913 0.2287
C171 C 0.3076(6) 0.1895(6) 0.2767(6)
H111 H 0.2596 0.2138 0.2678
C172 C 0.3350(7) 0.2268(5) 0.3129(6)
H112 H 0.3057 0.2765 0.3288
C173 C 0.4052(7) 0.1913(6) 0.3259(6)
H113 H 0.4240 0.2167 0.3507
C174 C 0.4481(6) 0.1185(6) 0.3027(6)
H114 H 0.4961 0.0942 0.3115
C175 C 0.5713(10) -0.0933(8) 0.1067(7)
H115 H 0.5981 -0.0768 0.0582
C176 C 0.4967(11) -0.1133(9) 0.1287(9)
H116 H 0.4725 -0.1105 0.0953
C177 C 0.4576(9) -0.1375(9) 0.1996(11)
H117 H 0.4067 -0.1512 0.2147
C178 C 0.4932(11) -0.1417(9) 0.2485(8)
H118 H 0.4664 -0.1582 0.2970
C179 C 0.5678(11) -0.1217(9) 0.2265(8)
H119 H 0.5920 -0.1245 0.2599
C180 C 0.6069(8) -0.0975(8) 0.1556(9)
H120 H 0.6578 -0.0838 0.1405
C181 C 0.6190(10) 0.2291(7) 0.5443(9)
H121 H 0.6068 0.1842 0.5453
C182 C 0.7037(12) 0.2348(9) 0.5051(9)
H122 H 0.7489 0.1938 0.4768
C183 C 0.7210(9) 0.2997(9) 0.5078(7)
H123 H 0.7787 0.3013 0.4849
C184 C 0.6574(9) 0.3608(7) 0.5424(7)
H124 H 0.6700 0.4055 0.5415
C185 C 0.5712(9) 0.3575(8) 0.5800(7)
H125 H 0.5257 0.3999 0.6041
C186 C 0.5550(9) 0.2913(7) 0.5810(7)
H126 H 0.4978 0.2886 0.6079
C187 C 1.0800(6) 0.5431(4) 0.1611(5)
H127 H 1.0797 0.4959 0.1796
C188 C 1.1539(5) 0.5538(5) 0.1032(5)
H128 H 1.2041 0.5140 0.0821
C189 C 1.1544(6) 0.6229(6) 0.0761(5)
H129 H 1.2050 0.6302 0.0365
C190 C 1.0810(8) 0.6812(4) 0.1069(6)
H130 H 1.0813 0.7285 0.0884
C191 C 1.0070(6) 0.6705(4) 0.1649(6)
H131 H 0.9568 0.7104 0.1860
C192 C 1.0065(5) 0.6014(5) 0.1920(5)
H132 H 0.9560 0.5941 0.2316
C193 C 0.6919(9) 0.6393(7) 0.0744(7)
H133 H 0.6847 0.6522 0.0307
C194 C 0.7695(7) 0.5938(6) 0.0691(7)
H134 H 0.8152 0.5755 0.0219
C195 C 0.7800(6) 0.5749(5) 0.1331(8)
H135 H 0.8330 0.5438 0.1295
C196 C 0.7131(9) 0.6016(7) 0.2022(7)
H136 H 0.7203 0.5887 0.2459
C197 C 0.6355(7) 0.6471(7) 0.2075(7)
H137 H 0.5897 0.6654 0.2547
C198 C 0.6250(6) 0.6660(6) 0.1435(9)
H138 H 0.5720 0.6971 0.1471
C199 C 1.1480(13) -0.0390(10) -0.3458(11)
H139 H 1.1457 -0.0266 -0.3916
C200 C 1.1899(13) -0.0074(13) -0.3177(11)
H140 H 1.2212 0.0259 -0.3445
C201 C 1.1810(12) -0.0302(13) -0.2446(11)
H141 H 1.2097 -0.0091 -0.2262
C202 C 1.1426(11) -0.0724(8) -0.2012(9)
H142 H 1.1436 -0.0831 -0.1546
C203 C 1.0976(15) -0.1030(9) -0.2268(12)
H143 H 1.0610 -0.1315 -0.1971
C204 C 1.1128(15) -0.0865(11) -0.3032(13)
H144 H 1.0941 -0.1149 -0.3252
S1 S 0.82967(19) 0.21597(16) 0.06943(17)
C205 C 0.7819(8) 0.3072(6) 0.0495(6)
O1 O 0.8016(6) 0.1733(5) 0.0372(5)
O2 O 0.7908(5) 0.2192(5) 0.1496(4)
O3 O 0.9195(5) 0.2077(4) 0.0335(4)
F1 F 0.7004(4) 0.3245(4) 0.0743(5)
F2 F 0.8152(5) 0.3173(4) -0.0230(4)
F3 F 0.8012(5) 0.3581(4) 0.0782(5)
S2 S 0.8933(2) 0.4432(2) 0.3039(2)
C206 C 0.8125(12) 0.4886(10) 0.3941(10)
O4 O 0.8805(6) 0.3749(5) 0.3050(5)
O5 O 0.8661(10) 0.4959(7) 0.2534(7)
O6 O 0.9739(7) 0.4383(6) 0.2992(7)
F4 F 0.7344(7) 0.4945(7) 0.4066(7)
F5 F 0.8330(9) 0.4456(8) 0.4460(6)
F6 F 0.8184(8) 0.5552(7) 0.3978(7)
S3 S 0.4090(2) 0.3956(2) 1.0108(2)
C207 C 0.5244(9) 0.3558(7) 0.9696(9)
O7 O 0.3795(6) 0.3594(6) 1.0818(5)
O8 O 0.3881(6) 0.3723(5) 0.9564(5)
O9 O 0.3966(6) 0.4727(5) 1.0160(6)
F7 F 0.5471(6) 0.2836(4) 0.9598(5)
F8 F 0.5631(6) 0.3853(5) 0.9064(5)
F9 F 0.5546(7) 0.3689(5) 1.0164(6)
S4 S 0.7320(2) 0.01264(17) 0.85993(19)
C208 C 0.7198(9) 0.1096(7) 0.8751(9)
O10 O 0.7013(6) 0.0148(5) 0.8038(5)
O11 O 0.6795(6) -0.0084(5) 0.9309(5)
O12 O 0.8231(5) -0.0197(5) 0.8333(5)
F10 F 0.6362(5) 0.1479(4) 0.9024(5)
F11 F 0.7610(6) 0.1382(4) 0.8127(5)
F12 F 0.7470(5) 0.1166(4) 0.9237(4)
S5 S 0.8241(3) 0.6569(2) 0.8040(3)
C209 C 0.7323(9) 0.7182(7) 0.8021(9)
O13 O 0.8446(8) 0.5938(5) 0.7618(9)
O14 O 0.7815(13) 0.6444(9) 0.8840(7)
O15 O 0.8869(8) 0.6934(8) 0.7805(9)
F13 F 0.6732(7) 0.6906(8) 0.8103(9)
F14 F 0.7120(10) 0.7786(7) 0.8396(11)
F15 F 0.7655(14) 0.7415(11) 0.7263(10)
S6 S 0.8604(3) 0.3199(3) 0.6617(3)
C210 C 0.8150(10) 0.3677(9) 0.7486(8)
O16 O 0.8082(7) 0.3557(6) 0.6286(7)
O17 O 0.8410(8) 0.2486(6) 0.6917(8)
O18 O 0.9487(6) 0.3116(7) 0.6310(7)
F16 F 0.7329(6) 0.3829(6) 0.7846(6)
F17 F 0.8483(6) 0.3401(6) 0.7943(5)
F18 F 0.8377(8) 0.4345(5) 0.7206(8)
C211 C 1.0473(16) 0.4471(12) 0.4082(12)
H145 H 1.0030 0.4435 0.3935
C212 C 1.0573(19) 0.5287(16) 0.3911(18)
H146 H 1.0842 0.5323 0.3360
Cl1 Cl 1.1433(4) 0.3842(5) 0.3508(4)
Cl2 Cl 1.0121(5) 0.4280(4) 0.5009(4)
Cl3 Cl 0.9623(5) 0.5905(4) 0.4252(5)
Cl4 Cl 1.1279(5) 0.5417(4) 0.4229(5)
O19 O 0.8842(6) 0.2442(5) 0.2344(5)
C213 C 0.1079(8) 0.6739(8) 0.6811(10)
H147 H 0.0561 0.6647 0.7165
C214 C 0.1400(11) 0.6541(7) 0.6066(11)
H148 H 0.1102 0.6315 0.5910
C215 C 0.2158(12) 0.6676(8) 0.5548(8)
H149 H 0.2377 0.6541 0.5038
C216 C 0.2593(8) 0.7008(8) 0.5776(10)
H150 H 0.3111 0.7100 0.5422
C217 C 0.2272(11) 0.7205(7) 0.6521(11)
H151 H 0.2570 0.7432 0.6677
C218 C 0.1515(11) 0.7071(7) 0.7039(8)
H152 H 0.1295 0.7206 0.7549
C219 C 0.4506(14) 0.7256(11) 0.0720(13)
H153 H 0.4745 0.7431 0.0979
C220 C 0.3919(14) 0.6861(12) 0.1086(9)
H154 H 0.3759 0.6766 0.1595
C221 C 0.3568(12) 0.6605(11) 0.0707(13)
H155 H 0.3168 0.6335 0.0957
C222 C 0.3803(14) 0.6745(11) -0.0038(13)
H156 H 0.3564 0.6570 -0.0297
C223 C 0.4390(14) 0.7140(11) -0.0404(9)
H157 H 0.4550 0.7235 -0.0913
C224 C 0.4741(12) 0.7395(10) -0.0025(13)
H158 H 0.5141 0.7665 -0.0275
C225 C 0.3871(12) 0.8344(14) -0.4451(10)
H159 H 0.3365 0.8419 -0.3994
C226 C 0.4525(16) 0.7696(12) -0.4602(12)
H160 H 0.4466 0.7329 -0.4248
C227 C 0.5264(13) 0.7586(10) -0.5270(14)
H161 H 0.5711 0.7144 -0.5373
C228 C 0.5350(12) 0.8123(14) -0.5787(11)
H162 H 0.5855 0.8047 -0.6244
C229 C 0.4696(16) 0.8770(11) -0.5636(12)
H163 H 0.4754 0.9137 -0.5990
C230 C 0.3956(13) 0.8881(10) -0.4968(14)
H164 H 0.3509 0.9323 -0.4865
C231 C 0.1202(14) 0.8309(11) 0.2591(12)
H165 H 0.1457 0.8597 0.2193
C232 C 0.1310(13) 0.8301(11) 0.3231(15)
H166 H 0.1639 0.8583 0.3270
C233 C 0.0937(15) 0.7880(13) 0.3813(11)
H167 H 0.1011 0.7874 0.4251
C234 C 0.0456(14) 0.7467(11) 0.3755(12)
H168 H 0.0201 0.7179 0.4153
C235 C 0.0349(13) 0.7475(11) 0.3115(15)
H169 H 0.0020 0.7193 0.3076
C236 C 0.0722(15) 0.7896(13) 0.2533(11)
H170 H 0.0648 0.7902 0.2096
C237 C 0.6925(8) 0.0365(7) 0.2985(7)
H171 H 0.7378 0.0060 0.2573
C238 C 0.6350(9) 0.0070(5) 0.3569(9)
H172 H 0.6409 -0.0438 0.3556
C239 C 0.5687(8) 0.0516(7) 0.4171(7)
H173 H 0.5294 0.0314 0.4570
C240 C 0.5600(7) 0.1259(7) 0.4189(6)
H174 H 0.5147 0.1564 0.4601
C241 C 0.6175(9) 0.1554(5) 0.3605(7)
H175 H 0.6116 0.2062 0.3618
C242 C 0.6838(8) 0.1108(7) 0.3003(6)
H176 H 0.7231 0.1310 0.2604
loop_
_geom_bond_atom_site_label_1
_geom_bond_atom_site_label_2
_geom_bond_site_symmetry_1
_geom_bond_site_symmetry_2
Ir1 N1 1_555 1_555
Ir2 N2 1_555 1_555
Ir3 C32 1_555 1_555
Ir4 N3 1_555 1_555
Ir5 N4 1_555 1_555
Ir6 N6 1_555 1_555
N1 C1 1_555 1_555
C1 H1 1_555 1_555
C2 C1 1_555 1_555
H2 C2 1_555 1_555
C3 C2 1_555 1_555
H3 C3 1_555 1_555
C4 C3 1_555 1_555
H4 C4 1_555 1_555
C5 N1 1_555 1_555
C6 C5 1_555 1_555
C7 C6 1_555 1_555
H5 C7 1_555 1_555
C8 C7 1_555 1_555
H6 C8 1_555 1_555
C9 C8 1_555 1_555
H7 C9 1_555 1_555
C10 C9 1_555 1_555
H8 C10 1_555 1_555
C11 Ir1 1_555 1_555
C12 C11 1_555 1_555
H9 C12 1_555 1_555
C13 C12 1_555 1_555
H10 C13 1_555 1_555
C14 C13 1_555 1_555
H11 C14 1_555 1_555
C15 C14 1_555 1_555
H12 C15 1_555 1_555
C16 C11 1_555 1_555
C17 C16 1_555 1_555
C18 C17 1_555 1_555
H13 C18 1_555 1_555
C19 C18 1_555 1_555
H14 C19 1_555 1_555
C20 C19 1_555 1_555
H15 C20 1_555 1_555
C21 C20 1_555 1_555
H16 C21 1_555 1_555
N2 C22 1_555 1_555
C22 H17 1_555 1_555
C23 C22 1_555 1_555
H18 C23 1_555 1_555
C24 C23 1_555 1_555
H19 C24 1_555 1_555
C25 C24 1_555 1_555
H20 C25 1_555 1_555
C26 N2 1_555 1_555
C27 C26 1_555 1_555
C28 C27 1_555 1_555
H21 C28 1_555 1_555
C29 C28 1_555 1_555
H22 C29 1_555 1_555
C30 C29 1_555 1_555
H23 C30 1_555 1_555
C31 C30 1_555 1_555
H24 C31 1_555 1_555
C32 C33 1_555 1_555
C33 H25 1_555 1_555
C34 C33 1_555 1_555
H26 C34 1_555 1_555
C35 C34 1_555 1_555
H27 C35 1_555 1_555
C36 C35 1_555 1_555
H28 C36 1_555 1_555
C37 C32 1_555 1_555
C38 C37 1_555 1_555
C39 C38 1_555 1_555
H29 C39 1_555 1_555
C40 C39 1_555 1_555
H30 C40 1_555 1_555
C41 C40 1_555 1_555
H31 C41 1_555 1_555
C42 C41 1_555 1_555
H32 C42 1_555 1_555
C43 Ir3 1_555 1_555
C44 C43 1_555 1_555
H33 C44 1_555 1_555
C45 C44 1_555 1_555
H34 C45 1_555 1_555
C46 C45 1_555 1_555
H35 C46 1_555 1_555
C47 C46 1_555 1_555
H36 C47 1_555 1_555
C48 C43 1_555 1_555
C49 C48 1_555 1_555
C50 C49 1_555 1_555
H37 C50 1_555 1_555
C51 C50 1_555 1_555
H38 C51 1_555 1_555
C52 C51 1_555 1_555
H39 C52 1_555 1_555
C53 C52 1_555 1_555
H40 C53 1_555 1_555
N3 C54 1_555 1_555
C54 H41 1_555 1_555
C55 C54 1_555 1_555
H42 C55 1_555 1_555
C56 C55 1_555 1_555
H43 C56 1_555 1_555
C57 C56 1_555 1_555
H44 C57 1_555 1_555
C58 N3 1_555 1_555
C59 C58 1_555 1_555
C60 C59 1_555 1_555
H45 C60 1_555 1_555
C61 C60 1_555 1_555
H46 C61 1_555 1_555
C62 C61 1_555 1_555
H47 C62 1_555 1_555
C63 C62 1_555 1_555
H48 C63 1_555 1_555
N4 C64 1_555 1_555
C64 H49 1_555 1_555
C65 C64 1_555 1_555
H50 C65 1_555 1_555
C66 C65 1_555 1_555
H51 C66 1_555 1_555
C67 C66 1_555 1_555
H52 C67 1_555 1_555
C68 N4 1_555 1_555
C69 C68 1_555 1_555
C70 C69 1_555 1_555
H53 C70 1_555 1_555
C71 C70 1_555 1_555
H54 C71 1_555 1_555
C72 C71 1_555 1_555
H55 C72 1_555 1_555
C73 C72 1_555 1_555
H56 C73 1_555 1_555
N5 Ir5 1_555 1_555
C74 N5 1_555 1_555
H57 C74 1_555 1_555
C75 C74 1_555 1_555
H58 C75 1_555 1_555
C76 C75 1_555 1_555
H59 C76 1_555 1_555
C77 C76 1_555 1_555
H60 C77 1_555 1_555
C78 N5 1_555 1_555
C79 C78 1_555 1_555
C80 C79 1_555 1_555
H61 C80 1_555 1_555
C81 C80 1_555 1_555
H62 C81 1_555 1_555
C82 C81 1_555 1_555
H63 C82 1_555 1_555
C83 C82 1_555 1_555
H64 C83 1_555 1_555
N6 C84 1_555 1_555
C84 H65 1_555 1_555
C85 C84 1_555 1_555
H66 C85 1_555 1_555
C86 C85 1_555 1_555
H67 C86 1_555 1_555
C87 C86 1_555 1_555
H68 C87 1_555 1_555
C88 N6 1_555 1_555
C89 C88 1_555 1_555
C90 C89 1_555 1_555
H69 C90 1_555 1_555
C91 C90 1_555 1_555
H70 C91 1_555 1_555
C92 C91 1_555 1_555
H71 C92 1_555 1_555
C93 C92 1_555 1_555
H72 C93 1_555 1_555
N7 Ir6 1_555 1_555
C94 N7 1_555 1_555
H73 C94 1_555 1_555
C95 C94 1_555 1_555
H74 C95 1_555 1_555
C96 C95 1_555 1_555
H75 C96 1_555 1_555
C97 C96 1_555 1_555
H76 C97 1_555 1_555
C98 N7 1_555 1_555
C99 C98 1_555 1_555
C100 C99 1_555 1_555
H77 C100 1_555 1_555
C101 C100 1_555 1_555
H78 C101 1_555 1_555
C102 C101 1_555 1_555
H79 C102 1_555 1_555
C103 C102 1_555 1_555
H80 C103 1_555 1_555
C104 C105 1_555 1_555
C105 C106 1_555 1_555
C106 H81 1_555 1_555
C107 C106 1_555 1_555
C108 C107 1_555 1_555
H82 C108 1_555 1_555
C109 C108 1_555 1_555
C110 C105 1_555 1_555
H83 C110 1_555 1_555
C111 C107 1_555 1_555
C112 C109 1_555 1_555
C113 C114 1_555 1_555
C114 C115 1_555 1_555
C115 H84 1_555 1_555
C116 C115 1_555 1_555
C117 C116 1_555 1_555
H85 C117 1_555 1_555
C118 C117 1_555 1_555
C119 C114 1_555 1_555
H86 C119 1_555 1_555
C120 C116 1_555 1_555
C121 C118 1_555 1_555
C122 C123 1_555 1_555
C123 C124 1_555 1_555
C124 H87 1_555 1_555
C125 C124 1_555 1_555
C126 C125 1_555 1_555
H88 C126 1_555 1_555
C127 C126 1_555 1_555
C128 C123 1_555 1_555
H89 C128 1_555 1_555
C129 C125 1_555 1_555
C130 C127 1_555 1_555
C131 C132 1_555 1_555
C132 C133 1_555 1_555
C133 H90 1_555 1_555
C134 C133 1_555 1_555
C135 C134 1_555 1_555
H91 C135 1_555 1_555
C136 C135 1_555 1_555
C137 C132 1_555 1_555
H92 C137 1_555 1_555
C138 C136 1_555 1_555
C139 C134 1_555 1_555
C140 Ir1 1_555 1_555
N8 Ir1 1_555 1_555
N9 Ir1 1_555 1_555
N10 Ir1 1_555 1_555
C141 Ir2 1_555 1_555
N11 Ir2 1_555 1_555
N12 Ir2 1_555 1_555
N13 Ir3 1_555 1_555
N14 Ir3 1_555 1_555
N15 Ir3 1_555 1_555
N16 Ir3 1_555 1_555
C142 Ir4 1_555 1_555
N17 Ir4 1_555 1_555
C143 Ir4 1_555 1_555
C144 C143 1_555 1_555
H93 C144 1_555 1_555
C145 C144 1_555 1_555
H94 C145 1_555 1_555
C146 C145 1_555 1_555
H95 C146 1_555 1_555
C147 C146 1_555 1_555
H96 C147 1_555 1_555
C148 C143 1_555 1_555
C149 N17 1_555 1_555
C150 C149 1_555 1_555
H97 C150 1_555 1_555
C151 C150 1_555 1_555
H98 C151 1_555 1_555
C152 C151 1_555 1_555
H99 C152 1_555 1_555
C153 N17 1_555 1_555
H100 C153 1_555 1_555
N18 Ir4 1_555 1_555
N19 Ir4 1_555 1_555
C154 Ir5 1_555 1_555
C155 Ir5 1_555 1_555
N20 Ir5 1_555 1_555
N21 Ir5 1_555 1_555
C156 Ir6 1_555 1_555
C157 Ir6 1_555 1_555
N22 Ir6 1_555 1_555
N23 Ir6 1_555 1_555
N24 Ir2 1_555 1_555
C158 N24 1_555 1_555
C159 N24 1_555 1_555
H101 C159 1_555 1_555
C160 C158 1_555 1_555
C161 Ir2 1_555 1_555
C162 C161 1_555 1_555
H102 C162 1_555 1_555
C163 H103 1_555 1_555
C164 C158 1_555 1_555
H104 C164 1_555 1_555
C165 C159 1_555 1_555
H105 C165 1_555 1_555
C166 C160 1_555 1_555
H106 C166 1_555 1_555
C167 C166 1_555 1_555
H107 C167 1_555 1_555
C168 C162 1_555 1_555
H108 C168 1_555 1_555
C169 H109 1_555 1_555
C170 C169 1_555 1_555
H110 C170 1_555 1_555
C171 C170 1_555 1_555
H111 C171 1_555 1_555
C172 C171 1_555 1_555
H112 C172 1_555 1_555
C173 C172 1_555 1_555
H113 C173 1_555 1_555
C174 C169 1_555 1_555
H114 C174 1_555 1_555
C175 H115 1_555 1_555
C176 C175 1_555 1_555
H116 C176 1_555 1_555
C177 C176 1_555 1_555
H117 C177 1_555 1_555
C178 C177 1_555 1_555
H118 C178 1_555 1_555
C179 C178 1_555 1_555
H119 C179 1_555 1_555
C180 C175 1_555 1_555
H120 C180 1_555 1_555
C181 H121 1_555 1_555
C182 C181 1_555 1_555
H122 C182 1_555 1_555
C183 C182 1_555 1_555
H123 C183 1_555 1_555
C184 C183 1_555 1_555
H124 C184 1_555 1_555
C185 C184 1_555 1_555
H125 C185 1_555 1_555
C186 C181 1_555 1_555
H126 C186 1_555 1_555
C187 H127 1_555 1_555
C188 C187 1_555 1_555
H128 C188 1_555 1_555
C189 C188 1_555 1_555
H129 C189 1_555 1_555
C190 C189 1_555 1_555
H130 C190 1_555 1_555
C191 C190 1_555 1_555
H131 C191 1_555 1_555
C192 C187 1_555 1_555
H132 C192 1_555 1_555
C193 H133 1_555 1_555
C194 C193 1_555 1_555
H134 C194 1_555 1_555
C195 C194 1_555 1_555
H135 C195 1_555 1_555
C196 C195 1_555 1_555
H136 C196 1_555 1_555
C197 C196 1_555 1_555
H137 C197 1_555 1_555
C198 C193 1_555 1_555
H138 C198 1_555 1_555
C199 H139 1_555 1_555
C200 C199 1_555 1_555
H140 C200 1_555 1_555
C201 C200 1_555 1_555
H141 C201 1_555 1_555
C202 C201 1_555 1_555
H142 C202 1_555 1_555
C203 C202 1_555 1_555
H143 C203 1_555 1_555
C204 C199 1_555 1_555
H144 C204 1_555 1_555
S1 C205 1_555 1_555
C205 F1 1_555 1_555
O1 S1 1_555 1_555
O2 S1 1_555 1_555
O3 S1 1_555 1_555
F2 C205 1_555 1_555
F3 C205 1_555 1_555
S2 C206 1_555 1_555
C206 F4 1_555 1_555
O4 S2 1_555 1_555
O5 S2 1_555 1_555
O6 S2 1_555 1_555
F5 C206 1_555 1_555
F6 C206 1_555 1_555
S3 C207 1_555 1_555
C207 F7 1_555 1_555
O7 S3 1_555 1_555
O8 S3 1_555 1_555
O9 S3 1_555 1_555
F8 C207 1_555 1_555
F9 C207 1_555 1_555
S4 C208 1_555 1_555
C208 F10 1_555 1_555
O10 S4 1_555 1_555
O11 S4 1_555 1_555
O12 S4 1_555 1_555
F11 C208 1_555 1_555
F12 C208 1_555 1_555
S5 C209 1_555 1_555
C209 F13 1_555 1_555
O13 S5 1_555 1_555
O14 S5 1_555 1_555
O15 S5 1_555 1_555
F14 C209 1_555 1_555
F15 C209 1_555 1_555
S6 C210 1_555 1_555
C210 F16 1_555 1_555
O16 S6 1_555 1_555
O17 S6 1_555 1_555
O18 S6 1_555 1_555
F17 C210 1_555 1_555
F18 C210 1_555 1_555
C211 H145 1_555 1_555
C212 C211 1_555 1_555
H146 C212 1_555 1_555
Cl1 C211 1_555 1_555
Cl2 C211 1_555 1_555
Cl3 C212 1_555 1_555
Cl4 C212 1_555 1_555
C213 H147 1_555 1_555
C214 C213 1_555 1_555
H148 C214 1_555 1_555
C215 C214 1_555 1_555
H149 C215 1_555 1_555
C216 C215 1_555 1_555
H150 C216 1_555 1_555
C217 C216 1_555 1_555
H151 C217 1_555 1_555
C218 C213 1_555 1_555
H152 C218 1_555 1_555
C219 H153 1_555 1_555
C220 C219 1_555 1_555
H154 C220 1_555 1_555
C221 C220 1_555 1_555
H155 C221 1_555 1_555
C222 C221 1_555 1_555
H156 C222 1_555 1_555
C223 C222 1_555 1_555
H157 C223 1_555 1_555
C224 C219 1_555 1_555
H158 C224 1_555 1_555
C225 H159 1_555 1_555
C226 C225 1_555 1_555
H160 C226 1_555 1_555
C227 C226 1_555 1_555
H161 C227 1_555 1_555
C228 C227 1_555 1_555
H162 C228 1_555 1_555
C229 C228 1_555 1_555
H163 C229 1_555 1_555
C230 C225 1_555 1_555
H164 C230 1_555 1_555
C231 H165 1_555 1_555
C232 C231 1_555 1_555
H166 C232 1_555 1_555
C233 C232 1_555 1_555
H167 C233 1_555 1_555
C234 C233 1_555 1_555
H168 C234 1_555 1_555
C235 C234 1_555 1_555
H169 C235 1_555 1_555
C236 C231 1_555 1_555
H170 C236 1_555 1_555
C237 H171 1_555 1_555
C238 C237 1_555 1_555
H172 C238 1_555 1_555
C239 C238 1_555 1_555
H173 C239 1_555 1_555
C240 C239 1_555 1_555
H174 C240 1_555 1_555
C241 C240 1_555 1_555
H175 C241 1_555 1_555
C242 C237 1_555 1_555
H176 C242 1_555 1_555
C4 C5 1_555 1_555
C6 C140 1_555 1_555
C10 C140 1_555 1_555
C15 C16 1_555 1_555
C17 N8 1_555 1_555
C21 N8 1_555 1_555
C25 C26 1_555 1_555
C27 C141 1_555 1_555
C31 C141 1_555 1_555
C36 C37 1_555 1_555
C38 N14 1_555 1_555
C42 N14 1_555 1_555
C47 C48 1_555 1_555
C49 N13 1_555 1_555
C53 N13 1_555 1_555
C57 C58 1_555 1_555
C59 C142 1_555 1_555
C63 C142 1_555 1_555
C67 C68 1_555 1_555
C69 C155 1_555 1_555
C73 C155 1_555 1_555
C77 C78 1_555 1_555
C79 C154 1_555 1_555
C83 C154 1_555 1_555
C87 C88 1_555 1_555
C89 C157 1_555 1_555
C93 C157 1_555 1_555
C97 C98 1_555 1_555
C99 C156 1_555 1_555
C103 C156 1_555 1_555
C104 N23 1_555 1_555
C109 C110 1_555 1_555
C111 N20 1_555 1_555
C112 N18 1_555 1_555
C113 N22 1_555 1_555
C118 C119 1_555 1_555
C120 N9 1_555 1_555
C121 N11 1_555 1_555
C122 N10 1_555 1_555
C127 C128 1_555 1_555
C129 N15 1_555 1_555
C130 N19 1_555 1_555
C131 N16 1_555 1_555
C136 C137 1_555 1_555
C138 N12 1_555 1_555
C139 N21 1_555 1_555
C147 C148 1_555 1_555
C148 C149 1_555 1_555
C152 C153 1_555 1_555
C160 C161 1_555 1_555
C163 C164 1_555 1_555
C163 C165 1_555 1_555
C167 C168 1_555 1_555
C173 C174 1_555 1_555
C179 C180 1_555 1_555
C185 C186 1_555 1_555
C191 C192 1_555 1_555
C197 C198 1_555 1_555
C203 C204 1_555 1_555
C217 C218 1_555 1_555
C223 C224 1_555 1_555
C229 C230 1_555 1_555
C235 C236 1_555 1_555
C241 C242 1_555 1_555

#END
