
#######################################################################
#
#                 Cambridge Crystallographic Data Centre
#                                CCDC 
#
#######################################################################
#
# If this CIF has been generated from an entry in the Cambridge 
# Structural Database, then it will include bibliographic, chemical, 
# crystal, experimental, refinement or atomic coordinate data resulting 
# from the CCDC's data processing and validation procedures.
#
#######################################################################

data_KEZQUB
_chemical_formula_moiety         'C84 H96 N36 Pd6 12+,2(C18 H14),12(N1 O3 1-)'
_chemical_name_systematic        
'tetrakis(\m~3~-2,4,6-tris(3-Pyridyl)triazine)-hexakis((ethane-1,2-diamine)-palladium) bis(m-terphenyl) clathrate dodecanitrate'
_symmetry_cell_setting           monoclinic
_symmetry_space_group_name_H-M   'P 21/c'
_symmetry_Int_Tables_number      14
_space_group_name_Hall           '-P 2ybc'
loop_
_symmetry_equiv_pos_site_id
_symmetry_equiv_pos_as_xyz
1 x,y,z
2 x,1/2-y,1/2+z
3 -x,-y,-z
4 -x,1/2+y,1/2-z
_cell_length_a                   19.579(3)
_cell_length_b                   20.880(4)
_cell_length_c                   40.705(8)
_cell_angle_alpha                90
_cell_angle_beta                 103.673(9)
_cell_angle_gamma                90
_cell_volume                     16169
_cell_formula_units_Z            4
loop_
_atom_site_label
_atom_site_type_symbol
_atom_site_fract_x
_atom_site_fract_y
_atom_site_fract_z
Pd1 Pd 0.05907(10) 0.44612(8) 0.39200(4)
Pd2 Pd -0.28609(12) 0.17567(10) 0.22230(4)
Pd3 Pd 0.27534(10) 0.01832(10) 0.29419(4)
Pd4 Pd 0.23393(12) 0.35699(11) 0.55474(5)
Pd5 Pd -0.38024(12) -0.14159(11) 0.25419(4)
Pd6 Pd -0.44378(15) 0.31155(19) 0.46329(6)
C1 C -0.3942(16) 0.0350(16) 0.3496(5)
C2 C -0.3594(14) 0.1323(15) 0.3415(6)
C3 C -0.4033(15) 0.1124(16) 0.3882(5)
N1 N -0.4087(10) 0.0499(12) 0.3790(4)
N2 N -0.3726(13) 0.1547(11) 0.3705(5)
N3 N -0.3677(11) 0.0742(12) 0.3297(4)
N4 N -0.3943(9) -0.1123(11) 0.3008(4)
C4 C -0.4007(13) -0.0305(14) 0.3399(5)
C5 C -0.3883(11) -0.0541(13) 0.3102(5)
H1 H -0.3739 -0.0243 0.2956
C6 C -0.4205(17) -0.1630(17) 0.3172(7)
H2 H -0.4313 -0.2040 0.3072
C7 C -0.4294(16) -0.1474(17) 0.3503(7)
H3 H -0.4412 -0.1792 0.3648
C8 C -0.4200(15) -0.0834(17) 0.3603(6)
H4 H -0.4266 -0.0727 0.3820
N5 N -0.4398(12) 0.2208(15) 0.4535(5)
C9 C -0.4200(13) 0.1302(16) 0.4189(5)
C10 C -0.4200(17) 0.1980(17) 0.4250(6)
H5 H -0.4066 0.2271 0.4097
C11 C -0.4571(18) 0.181(2) 0.4734(9)
H6 H -0.4719 0.1995 0.4919
C12 C -0.458(2) 0.108(2) 0.4720(7)
H7 H -0.4732 0.0805 0.4874
C13 C -0.429(2) 0.0857(18) 0.4410(6)
H8 H -0.4188 0.0420 0.4380
N6 N -0.2980(10) 0.2072(11) 0.2677(4)
C14 C -0.3386(12) 0.1835(13) 0.3185(5)
C15 C -0.3233(18) 0.1585(13) 0.2864(5)
H9 H -0.3297 0.1151 0.2793
C16 C -0.2961(12) 0.2684(12) 0.2771(5)
H10 H -0.2864 0.2977 0.2609
C17 C -0.3058(14) 0.2964(14) 0.3062(6)
H11 H -0.2987 0.3404 0.3118
C18 C -0.3285(14) 0.2483(15) 0.3269(6)
H12 H -0.3373 0.2619 0.3478
N7 N -0.0029(9) 0.0029(9) 0.2878(4)
N8 N -0.1215(9) -0.0249(10) 0.2774(4)
N9 N -0.0327(11) -0.1047(8) 0.2971(3)
C19 C 0.0126(12) -0.0601(12) 0.2969(4)
C20 C -0.0715(11) 0.0140(11) 0.2788(4)
C21 C -0.1020(12) -0.0903(11) 0.2870(4)
N10 N 0.2039(10) -0.0411(9) 0.3051(4)
C22 C 0.0848(13) -0.0790(11) 0.3044(4)
C23 C 0.1389(12) -0.0359(10) 0.2998(4)
H13 H 0.1216 0.0046 0.2908
C24 C 0.2323(12) -0.1031(12) 0.3192(4)
H14 H 0.2812 -0.1119 0.3243
C25 C 0.1821(15) -0.1497(13) 0.3249(6)
H15 H 0.1972 -0.1914 0.3328
C26 C 0.1155(12) -0.1344(11) 0.3192(4)
H16 H 0.0853 -0.1646 0.3260
N11 N -0.1858(11) 0.1570(9) 0.2426(4)
C27 C -0.0930(14) 0.0820(12) 0.2683(5)
C28 C -0.1657(13) 0.0984(11) 0.2548(5)
H17 H -0.2006 0.0666 0.2544
C29 C -0.1399(14) 0.2021(12) 0.2456(5)
H18 H -0.1552 0.2449 0.2404
C30 C -0.0698(15) 0.1898(12) 0.2559(6)
H19 H -0.0358 0.2214 0.2543
C31 C -0.0489(15) 0.1276(13) 0.2694(6)
H20 H -0.0007 0.1199 0.2795
N12 N -0.2778(10) -0.1637(8) 0.2736(3)
C32 C -0.1532(14) -0.1374(12) 0.2877(5)
C33 C -0.2262(13) -0.1219(11) 0.2751(5)
H21 H -0.2382 -0.0795 0.2675
C34 C -0.2625(13) -0.2240(10) 0.2871(5)
H22 H -0.2988 -0.2542 0.2872
C35 C -0.1903(15) -0.2397(14) 0.3010(6)
H23 H -0.1795 -0.2800 0.3118
C36 C -0.1356(14) -0.1989(12) 0.2994(5)
H24 H -0.0880 -0.2124 0.3061
N13 N -0.0434(11) 0.3329(9) 0.4911(4)
N14 N -0.1054(11) 0.3069(8) 0.5321(4)
N15 N -0.1682(12) 0.3378(11) 0.4769(5)
C37 C -0.1065(15) 0.3440(10) 0.4703(6)
C38 C -0.0454(13) 0.3145(10) 0.5221(5)
C39 C -0.1639(15) 0.3172(12) 0.5089(6)
N16 N -0.0326(9) 0.4166(8) 0.3977(3)
C40 C -0.1010(14) 0.3732(10) 0.4356(5)
C41 C -0.0375(13) 0.3892(10) 0.4303(5)
H25 H 0.0039 0.3827 0.4477
C42 C -0.0932(13) 0.4180(12) 0.3740(5)
H26 H -0.0926 0.4359 0.3526
C43 C -0.1570(13) 0.3949(12) 0.3787(6)
H27 H -0.1987 0.3944 0.3611
C44 C -0.1553(12) 0.3734(12) 0.4102(6)
H28 H -0.1979 0.3568 0.4141
N17 N 0.1460(10) 0.3192(8) 0.5627(4)
C45 C 0.0200(13) 0.3047(10) 0.5470(5)
C46 C 0.0883(13) 0.3229(9) 0.5409(5)
H29 H 0.0893 0.3385 0.5191
C47 C 0.1493(14) 0.2862(11) 0.5941(5)
H30 H 0.1928 0.2729 0.6083
C48 C 0.0838(15) 0.2743(11) 0.6028(5)
H31 H 0.0834 0.2644 0.6255
C49 C 0.0209(14) 0.2771(10) 0.5786(5)
H32 H -0.0210 0.2606 0.5833
N18 N -0.3590(14) 0.3059(12) 0.4995(6)
C50 C -0.2323(15) 0.3097(11) 0.5177(6)
C51 C -0.2901(15) 0.3143(11) 0.4935(6)
H33 H -0.2861 0.3235 0.4712
C52 C -0.3614(15) 0.296(2) 0.5305(9)
H34 H -0.4046 0.2999 0.5371
C53 C -0.2958(14) 0.2764(14) 0.5563(7)
H35 H -0.2989 0.2533 0.5760
C54 C -0.2313(13) 0.2929(13) 0.5507(6)
H36 H -0.1894 0.2927 0.5682
N19 N 0.2268(10) 0.1724(8) 0.3906(4)
N20 N 0.2126(10) 0.2315(8) 0.4372(4)
N21 N 0.3032(10) 0.1497(8) 0.4444(4)
C55 C 0.2775(11) 0.1419(9) 0.4100(4)
C56 C 0.1962(11) 0.2193(9) 0.4047(4)
C57 C 0.2658(14) 0.1963(10) 0.4556(4)
N22 N 0.3230(9) 0.0351(8) 0.3428(4)
C58 C 0.3085(12) 0.0920(9) 0.3939(4)
C59 C 0.2870(11) 0.0790(9) 0.3597(4)
H37 H 0.2466 0.1004 0.3468
C60 C 0.3764(12) 0.0042(9) 0.3612(5)
H38 H 0.3958 -0.0296 0.3507
C61 C 0.4075(14) 0.0170(11) 0.3952(5)
H39 H 0.4481 -0.0051 0.4073
C62 C 0.3733(14) 0.0664(14) 0.4106(5)
H40 H 0.3955 0.0818 0.4324
N23 N 0.0788(9) 0.3605(8) 0.3748(4)
C63 C 0.1483(12) 0.2602(11) 0.3823(4)
C64 C 0.1235(14) 0.3160(11) 0.3943(4)
H41 H 0.1385 0.3243 0.4178
C65 C 0.0560(16) 0.3468(12) 0.3425(4)
H42 H 0.0269 0.3764 0.3279
C66 C 0.0747(12) 0.2876(12) 0.3291(5)
H43 H 0.0569 0.2789 0.3057
C67 C 0.1159(12) 0.2443(10) 0.3480(5)
H44 H 0.1236 0.2037 0.3390
N24 N 0.2686(11) 0.2728(8) 0.5386(4)
C68 C 0.2826(15) 0.2070(10) 0.4933(5)
C69 C 0.2526(13) 0.2602(10) 0.5068(5)
H45 H 0.2200 0.2870 0.4919
C70 C 0.3129(14) 0.2401(16) 0.5603(6)
H46 H 0.3311 0.2563 0.5824
C71 C 0.3344(15) 0.1805(13) 0.5511(5)
H47 H 0.3558 0.1510 0.5682
C72 C 0.3245(14) 0.1621(13) 0.5149(5)
H48 H 0.3440 0.1248 0.5073
N25 N 0.1512(10) 0.4822(11) 0.3874(5)
H49 H 0.187(11) 0.460(9) 0.401(4)
H50 H 0.155(10) 0.476(9) 0.366(4)
N26 N 0.0430(12) 0.5331(10) 0.4100(5)
H51 H 0.002(13) 0.550(10) 0.397(4)
H52 H 0.039(11) 0.529(10) 0.432(5)
C73 C 0.161(2) 0.552(2) 0.3958(12)
H53 H 0.21(2) 0.558(16) 0.413(7)
H54 H 0.164(18) 0.576(17) 0.375(7)
C74 C 0.101(3) 0.5775(14) 0.4091(10)
H55 H 0.081(16) 0.615(15) 0.395(6)
H56 H 0.120(15) 0.593(14) 0.432(6)
N27 N -0.2748(14) 0.1469(14) 0.1751(6)
H57 H -0.236(14) 0.166(13) 0.170(5)
H58 H -0.270(14) 0.103(12) 0.174(5)
N28 N -0.3866(13) 0.1966(13) 0.1985(7)
H59 H -0.416(15) 0.184(12) 0.212(5)
H60 H -0.391(13) 0.240(12) 0.196(5)
C75 C -0.339(3) 0.1684(19) 0.1521(8)
H61 H -0.346(18) 0.143(17) 0.131(7)
H62 H -0.333(19) 0.214(16) 0.146(7)
C76 C -0.409(3) 0.164(4) 0.1644(11)
H63 H -0.45(4) 0.19(3) 0.149(14)
H64 H -0.42(4) 0.12(3) 0.167(16)
N29 N 0.348(2) 0.077(2) 0.2791(7)
H65 H 0.36(2) 0.11(2) 0.294(9)
H66 H 0.39(2) 0.05(2) 0.279(9)
N30 N 0.2257(12) 0.0051(19) 0.2433(7)
H67 H 0.216(18) -0.037(14) 0.238(7)
H68 H 0.185(18) 0.029(15) 0.237(6)
C77 C 0.316(3) 0.100(3) 0.2444(10)
H69 H 0.35(3) 0.12(2) 0.233(10)
H70 H 0.28(3) 0.13(2) 0.244(11)
C78 C 0.2852(18) 0.031(3) 0.2291(8)
H71 H 0.27(2) 0.035(18) 0.204(8)
H72 H 0.32(2) 0.00(2) 0.234(9)
N31 N 0.2069(12) 0.4471(14) 0.5674(7)
H73 H 0.159(15) 0.452(13) 0.560(6)
H74 H 0.218(15) 0.450(13) 0.591(6)
N32 N 0.3225(17) 0.405(3) 0.5488(9)
H75 H 0.36(2) 0.39(2) 0.562(10)
H76 H 0.33(2) 0.40(2) 0.527(9)
C79 C 0.238(8) 0.4948(10) 0.555(5)
H77 H 0.23(10) 0.54(8) 0.57(4)
H78 H 0.22(13) 0.50(9) 0.53(4)
C80 C 0.319(5) 0.481(4) 0.560(3)
H79 H 0.35(9) 0.49(7) 0.58(3)
H80 H 0.34(9) 0.51(7) 0.54(4)
N33 N -0.4825(14) -0.1163(14) 0.2322(6)
H81 H -0.514(15) -0.137(12) 0.242(5)
H82 H -0.489(13) -0.073(12) 0.233(5)
N34 N -0.3759(15) -0.1648(15) 0.2053(5)
H83 H -0.337(15) -0.146(13) 0.201(6)
H84 H -0.371(16) -0.208(13) 0.204(6)
C81 C -0.485(3) -0.142(2) 0.1949(7)
H85 H -0.504(18) -0.186(15) 0.194(7)
H86 H -0.523(18) -0.117(16) 0.180(7)
C82 C -0.437(3) -0.145(7) 0.1805(11)
H87 H -0.43(6) -0.10(5) 0.17(2)
H88 H -0.45(5) -0.18(5) 0.16(2)
N35 N -0.4514(16) 0.380(2) 0.4562(14)
N36 N -0.530(2) 0.323(2) 0.4257(9)
H91 H -0.53(2) 0.30(2) 0.407(9)
H92 H -0.57(2) 0.31(2) 0.433(10)
C83 C -0.494(3) 0.427(2) 0.456(2)
H93 H -0.47(3) 0.47(3) 0.457(11)
H94 H -0.52(3) 0.42(3) 0.473(11)
C84 C -0.537(7) 0.401(4) 0.415(3)
H95 H -0.59(5) 0.42(4) 0.41(2)
H96 H -0.51(7) 0.41(5) 0.40(2)
C85 C -0.2218(16) 0.5061(12) 0.0416(5)
C86 C -0.1816(17) 0.4918(13) 0.0746(6)
H97 H -0.1358 0.5083 0.0836
C87 C -0.2166(18) 0.4504(14) 0.0926(6)
H98 H -0.1915 0.4400 0.1149
C88 C -0.2799(17) 0.4239(18) 0.0826(7)
H99 H -0.2986 0.3958 0.0966
C89 C -0.3132(18) 0.4389(15) 0.0532(7)
H100 H -0.3590 0.4219 0.0451
C90 C -0.2887(19) 0.4756(14) 0.0337(7)
H101 H -0.3179 0.4834 0.0119
C91 C -0.1906(15) 0.5496(14) 0.0179(6)
C92 C -0.2098(14) 0.5368(12) -0.0178(5)
H102 H -0.2395 0.5020 -0.0269
C93 C -0.1821(13) 0.5786(12) -0.0383(5)
C94 C -0.1355(15) 0.6289(12) -0.0249(6)
H103 H -0.1184 0.6559 -0.0399
C95 C -0.1139(16) 0.6400(15) 0.0097(7)
H104 H -0.0811 0.6726 0.0189
C96 C -0.1439(17) 0.5997(13) 0.0301(7)
H105 H -0.1316 0.6069 0.0538
C97 C -0.2000(14) 0.5609(13) -0.0766(5)
C98 C -0.1972(14) 0.4946(12) -0.0878(5)
H106 H -0.1903 0.4605 -0.0720
C99 C -0.2049(13) 0.4822(13) -0.1222(5)
H107 H -0.2029 0.4396 -0.1301
C100 C -0.2157(14) 0.5337(13) -0.1450(6)
H108 H -0.2184 0.5262 -0.1683
C101 C -0.2224(14) 0.5950(13) -0.1338(5)
H109 H -0.2381 0.6274 -0.1502
C102 C -0.2083(17) 0.6113(14) -0.1020(6)
H110 H -0.2036 0.6551 -0.0956
C103 C 0.0814(17) 0.8916(17) 0.4637(7)
C104 C 0.0795(17) 0.8643(13) 0.4331(7)
H111 H 0.1116 0.8312 0.4311
C105 C 0.0285(18) 0.8860(15) 0.4039(8)
H112 H 0.0260 0.8664 0.3826
C106 C -0.0176(19) 0.9358(19) 0.4064(8)
H113 H -0.0522 0.9500 0.3873
C107 C -0.0115(16) 0.9613(15) 0.4354(7)
H114 H -0.0384 0.9982 0.4377
C108 C 0.0350(17) 0.9354(15) 0.4641(7)
H115 H 0.0320 0.9514 0.4856
C109 C 0.1314(18) 0.8663(14) 0.4942(7)
C110 C 0.1062(17) 0.8472(13) 0.5241(6)
H116 H 0.0570 0.8467 0.5224
C111 C 0.1500(18) 0.8300(12) 0.5542(7)
C112 C 0.2189(18) 0.8217(12) 0.5528(7)
H117 H 0.2506 0.8046 0.5722
C113 C 0.2461(18) 0.8374(14) 0.5235(8)
H118 H 0.2948 0.8362 0.5239
C114 C 0.1954(19) 0.8544(14) 0.4953(8)
H119 H 0.2098 0.8575 0.4746
C115 C 0.1139(15) 0.8167(14) 0.5829(5)
C116 C 0.1603(13) 0.7928(12) 0.6115(7)
H120 H 0.2064 0.7802 0.6104
C117 C 0.1394(17) 0.7873(12) 0.6418(5)
H121 H 0.1711 0.7710 0.6613
C118 C 0.0721(18) 0.8058(17) 0.6434(5)
H122 H 0.0578 0.8020 0.6640
C119 C 0.0256(13) 0.830(2) 0.6147(8)
H123 H -0.0204 0.8423 0.6158
C120 C 0.0466(14) 0.8352(18) 0.5845(6)
H124 H 0.0148 0.8515 0.5650
N37 N -0.1258(14) 1.2062(9) 0.1456(5)
O1 O -0.0882(14) 1.2333(11) 0.1325(5)
O2 O -0.1070(10) 1.1908(9) 0.1733(4)
O3 O -0.1917(12) 1.2141(9) 0.1316(4)
N39 N 0.644(2) 0.1382(18) -0.1088(8)
O7 O 0.606(2) 0.101(2) -0.1082(8)
O8 O 0.6661(12) 0.1116(12) -0.1340(5)
O9 O 0.6654(14) 0.1751(13) -0.0904(6)
N40 N 0.123(2) 0.8777(18) 0.2222(8)
O10 O 0.1002(12) 0.9309(11) 0.2118(4)
O11 O 0.0653(13) 0.8499(10) 0.2278(4)
O12 O 0.1737(13) 0.8613(10) 0.2348(5)
loop_
_geom_bond_atom_site_label_1
_geom_bond_atom_site_label_2
_geom_bond_site_symmetry_1
_geom_bond_site_symmetry_2
Pd1 N16 1_555 1_555
Pd2 N6 1_555 1_555
Pd3 N10 1_555 1_555
Pd4 N17 1_555 1_555
Pd5 N4 1_555 1_555
Pd6 N5 1_555 1_555
C1 N1 1_555 1_555
C2 N2 1_555 1_555
C3 N1 1_555 1_555
N2 C3 1_555 1_555
N3 C1 1_555 1_555
N4 C5 1_555 1_555
C4 C1 1_555 1_555
C5 C4 1_555 1_555
H1 C5 1_555 1_555
C6 N4 1_555 1_555
H2 C6 1_555 1_555
C7 C6 1_555 1_555
H3 C7 1_555 1_555
C8 C4 1_555 1_555
H4 C8 1_555 1_555
N5 C10 1_555 1_555
C9 C3 1_555 1_555
C10 C9 1_555 1_555
H5 C10 1_555 1_555
C11 N5 1_555 1_555
H6 C11 1_555 1_555
C12 C11 1_555 1_555
H7 C12 1_555 1_555
C13 C9 1_555 1_555
H8 C13 1_555 1_555
N6 C15 1_555 1_555
C14 C2 1_555 1_555
C15 C14 1_555 1_555
H9 C15 1_555 1_555
C16 N6 1_555 1_555
H10 C16 1_555 1_555
C17 C16 1_555 1_555
H11 C17 1_555 1_555
C18 C14 1_555 1_555
H12 C18 1_555 1_555
N7 C19 1_555 1_555
N8 C20 1_555 1_555
N9 C19 1_555 1_555
C19 C22 1_555 1_555
C20 N7 1_555 1_555
C21 N8 1_555 1_555
N10 C23 1_555 1_555
C22 C23 1_555 1_555
C23 H13 1_555 1_555
C24 N10 1_555 1_555
H14 C24 1_555 1_555
C25 C24 1_555 1_555
H15 C25 1_555 1_555
C26 C22 1_555 1_555
H16 C26 1_555 1_555
N11 Pd2 1_555 1_555
C27 C20 1_555 1_555
C28 N11 1_555 1_555
H17 C28 1_555 1_555
C29 N11 1_555 1_555
H18 C29 1_555 1_555
C30 C29 1_555 1_555
H19 C30 1_555 1_555
C31 C27 1_555 1_555
H20 C31 1_555 1_555
N12 Pd5 1_555 1_555
C32 C21 1_555 1_555
C33 N12 1_555 1_555
H21 C33 1_555 1_555
C34 N12 1_555 1_555
H22 C34 1_555 1_555
C35 C34 1_555 1_555
H23 C35 1_555 1_555
C36 C32 1_555 1_555
H24 C36 1_555 1_555
N13 C37 1_555 1_555
N14 C38 1_555 1_555
N15 C37 1_555 1_555
C37 C40 1_555 1_555
C38 N13 1_555 1_555
C39 N14 1_555 1_555
N16 C41 1_555 1_555
C40 C41 1_555 1_555
C41 H25 1_555 1_555
C42 N16 1_555 1_555
H26 C42 1_555 1_555
C43 C42 1_555 1_555
H27 C43 1_555 1_555
C44 C40 1_555 1_555
H28 C44 1_555 1_555
N17 C46 1_555 1_555
C45 C38 1_555 1_555
C46 C45 1_555 1_555
H29 C46 1_555 1_555
C47 N17 1_555 1_555
H30 C47 1_555 1_555
C48 C47 1_555 1_555
H31 C48 1_555 1_555
C49 C45 1_555 1_555
H32 C49 1_555 1_555
N18 Pd6 1_555 1_555
C50 C39 1_555 1_555
C51 N18 1_555 1_555
H33 C51 1_555 1_555
C52 N18 1_555 1_555
H34 C52 1_555 1_555
C53 C52 1_555 1_555
H35 C53 1_555 1_555
C54 C50 1_555 1_555
H36 C54 1_555 1_555
N19 C55 1_555 1_555
N20 C56 1_555 1_555
N21 C55 1_555 1_555
C55 C58 1_555 1_555
C56 N19 1_555 1_555
C57 N20 1_555 1_555
N22 Pd3 1_555 1_555
C58 C59 1_555 1_555
C59 N22 1_555 1_555
H37 C59 1_555 1_555
C60 N22 1_555 1_555
H38 C60 1_555 1_555
C61 C60 1_555 1_555
H39 C61 1_555 1_555
C62 C58 1_555 1_555
H40 C62 1_555 1_555
N23 Pd1 1_555 1_555
C63 C56 1_555 1_555
C64 N23 1_555 1_555
H41 C64 1_555 1_555
C65 N23 1_555 1_555
H42 C65 1_555 1_555
C66 C65 1_555 1_555
H43 C66 1_555 1_555
C67 C63 1_555 1_555
H44 C67 1_555 1_555
N24 Pd4 1_555 1_555
C68 C57 1_555 1_555
C69 N24 1_555 1_555
H45 C69 1_555 1_555
C70 N24 1_555 1_555
H46 C70 1_555 1_555
C71 C70 1_555 1_555
H47 C71 1_555 1_555
C72 C68 1_555 1_555
H48 C72 1_555 1_555
N25 Pd1 1_555 1_555
H49 N25 1_555 1_555
H50 N25 1_555 1_555
N26 Pd1 1_555 1_555
H51 N26 1_555 1_555
H52 N26 1_555 1_555
C73 N25 1_555 1_555
H53 C73 1_555 1_555
H54 C73 1_555 1_555
C74 N26 1_555 1_555
H55 C74 1_555 1_555
H56 C74 1_555 1_555
N27 Pd2 1_555 1_555
H57 N27 1_555 1_555
H58 N27 1_555 1_555
N28 Pd2 1_555 1_555
H59 N28 1_555 1_555
H60 N28 1_555 1_555
C75 N27 1_555 1_555
H61 C75 1_555 1_555
H62 C75 1_555 1_555
C76 N28 1_555 1_555
H63 C76 1_555 1_555
H64 C76 1_555 1_555
N29 Pd3 1_555 1_555
H65 N29 1_555 1_555
H66 N29 1_555 1_555
N30 Pd3 1_555 1_555
H67 N30 1_555 1_555
H68 N30 1_555 1_555
C77 N29 1_555 1_555
H69 C77 1_555 1_555
H70 C77 1_555 1_555
C78 N30 1_555 1_555
H71 C78 1_555 1_555
H72 C78 1_555 1_555
N31 Pd4 1_555 1_555
H73 N31 1_555 1_555
H74 N31 1_555 1_555
N32 Pd4 1_555 1_555
H75 N32 1_555 1_555
H76 N32 1_555 1_555
C79 N31 1_555 1_555
H77 C79 1_555 1_555
H78 C79 1_555 1_555
C80 N32 1_555 1_555
H79 C80 1_555 1_555
H80 C80 1_555 1_555
N33 Pd5 1_555 1_555
H81 N33 1_555 1_555
H82 N33 1_555 1_555
N34 Pd5 1_555 1_555
H83 N34 1_555 1_555
H84 N34 1_555 1_555
C81 N33 1_555 1_555
H85 C81 1_555 1_555
H86 C81 1_555 1_555
C82 N34 1_555 1_555
H87 C82 1_555 1_555
H88 C82 1_555 1_555
N35 Pd6 1_555 1_555
N36 Pd6 1_555 1_555
H91 N36 1_555 1_555
H92 N36 1_555 1_555
C83 N35 1_555 1_555
H93 C83 1_555 1_555
H94 C83 1_555 1_555
C84 N36 1_555 1_555
H95 C84 1_555 1_555
H96 C84 1_555 1_555
C85 C86 1_555 1_555
C86 H97 1_555 1_555
C87 C86 1_555 1_555
H98 C87 1_555 1_555
C88 C87 1_555 1_555
H99 C88 1_555 1_555
C89 C88 1_555 1_555
H100 C89 1_555 1_555
C90 C85 1_555 1_555
H101 C90 1_555 1_555
C91 C85 1_555 1_555
C92 C91 1_555 1_555
H102 C92 1_555 1_555
C93 C92 1_555 1_555
C94 C93 1_555 1_555
H103 C94 1_555 1_555
C95 C94 1_555 1_555
H104 C95 1_555 1_555
C96 C91 1_555 1_555
H105 C96 1_555 1_555
C97 C93 1_555 1_555
C98 C97 1_555 1_555
H106 C98 1_555 1_555
C99 C98 1_555 1_555
H107 C99 1_555 1_555
C100 C99 1_555 1_555
H108 C100 1_555 1_555
C101 C100 1_555 1_555
H109 C101 1_555 1_555
C102 C97 1_555 1_555
H110 C102 1_555 1_555
C103 C104 1_555 1_555
C104 H111 1_555 1_555
C105 C104 1_555 1_555
H112 C105 1_555 1_555
C106 C105 1_555 1_555
H113 C106 1_555 1_555
C107 C106 1_555 1_555
H114 C107 1_555 1_555
C108 C103 1_555 1_555
H115 C108 1_555 1_555
C109 C103 1_555 1_555
C110 C109 1_555 1_555
H116 C110 1_555 1_555
C111 C110 1_555 1_555
C112 C111 1_555 1_555
H117 C112 1_555 1_555
C113 C112 1_555 1_555
H118 C113 1_555 1_555
C114 C109 1_555 1_555
H119 C114 1_555 1_555
C115 C111 1_555 1_555
C116 C115 1_555 1_555
H120 C116 1_555 1_555
C117 C116 1_555 1_555
H121 C117 1_555 1_555
C118 C117 1_555 1_555
H122 C118 1_555 1_555
C119 C118 1_555 1_555
H123 C119 1_555 1_555
C120 C115 1_555 1_555
H124 C120 1_555 1_555
N37 O1 1_555 1_555
O2 N37 1_555 1_555
O3 N37 1_555 1_555
N39 O7 1_555 1_555
O8 N39 1_555 1_555
O9 N39 1_555 1_555
N40 O10 1_555 1_555
O11 N40 1_555 1_555
O12 N40 1_555 1_555
C2 N3 1_555 1_555
C7 C8 1_555 1_555
C12 C13 1_555 1_555
C17 C18 1_555 1_555
N9 C21 1_555 1_555
C25 C26 1_555 1_555
C27 C28 1_555 1_555
C30 C31 1_555 1_555
C32 C33 1_555 1_555
C35 C36 1_555 1_555
N15 C39 1_555 1_555
C43 C44 1_555 1_555
C48 C49 1_555 1_555
C50 C51 1_555 1_555
C53 C54 1_555 1_555
N21 C57 1_555 1_555
C61 C62 1_555 1_555
C63 C64 1_555 1_555
C66 C67 1_555 1_555
C68 C69 1_555 1_555
C71 C72 1_555 1_555
C73 C74 1_555 1_555
C75 C76 1_555 1_555
C77 C78 1_555 1_555
C79 C80 1_555 1_555
C81 C82 1_555 1_555
C83 C84 1_555 1_555
C89 C90 1_555 1_555
C95 C96 1_555 1_555
C101 C102 1_555 1_555
C107 C108 1_555 1_555
C113 C114 1_555 1_555
C119 C120 1_555 1_555

#END
