# generated using pymatgen
data_H62Pd3C87(N10O3)2
_symmetry_space_group_name_H-M   'P 1'
_cell_length_a   19.57900000
_cell_length_b   20.88000000
_cell_length_c   40.70500000
_cell_angle_alpha   90.00000000
_cell_angle_beta   103.67300000
_cell_angle_gamma   90.00000000
_symmetry_Int_Tables_number   1
_chemical_formula_structural   H62Pd3C87(N10O3)2
_chemical_formula_sum   'H496 Pd24 C696 N160 O48'
_cell_volume   16169.00745645
_cell_formula_units_Z   8
loop_
 _symmetry_equiv_pos_site_id
 _symmetry_equiv_pos_as_xyz
  1  'x, y, z'
loop_
 _atom_site_type_symbol
 _atom_site_label
 _atom_site_symmetry_multiplicity
 _atom_site_fract_x
 _atom_site_fract_y
 _atom_site_fract_z
 _atom_site_occupancy
  H  H1  1  0.626100  0.975700  0.295600  1
  H  H2  1  0.626100  0.524300  0.795600  1
  H  H3  1  0.373900  0.024300  0.704400  1
  H  H4  1  0.373900  0.475700  0.204400  1
  H  H5  1  0.568700  0.796000  0.307200  1
  H  H6  1  0.568700  0.704000  0.807200  1
  H  H7  1  0.431300  0.204000  0.692800  1
  H  H8  1  0.431300  0.296000  0.192800  1
  H  H9  1  0.558800  0.820800  0.364800  1
  H  H10  1  0.558800  0.679200  0.864800  1
  H  H11  1  0.441200  0.179200  0.635200  1
  H  H12  1  0.441200  0.320800  0.135200  1
  H  H13  1  0.573400  0.927300  0.382000  1
  H  H14  1  0.573400  0.572700  0.882000  1
  H  H15  1  0.426600  0.072700  0.618000  1
  H  H16  1  0.426600  0.427300  0.118000  1
  H  H17  1  0.593400  0.227100  0.409700  1
  H  H18  1  0.593400  0.272900  0.909700  1
  H  H19  1  0.406600  0.772900  0.590300  1
  H  H20  1  0.406600  0.727100  0.090300  1
  H  H21  1  0.528100  0.199500  0.491900  1
  H  H22  1  0.528100  0.300500  0.991900  1
  H  H23  1  0.471900  0.800500  0.508100  1
  H  H24  1  0.471900  0.699500  0.008100  1
  H  H25  1  0.526800  0.080500  0.487400  1
  H  H26  1  0.526800  0.419500  0.987400  1
  H  H27  1  0.473200  0.919500  0.512600  1
  H  H28  1  0.473200  0.580500  0.012600  1
  H  H29  1  0.581200  0.042000  0.438000  1
  H  H30  1  0.581200  0.458000  0.938000  1
  H  H31  1  0.418800  0.958000  0.562000  1
  H  H32  1  0.418800  0.542000  0.062000  1
  H  H33  1  0.670300  0.115100  0.279300  1
  H  H34  1  0.670300  0.384900  0.779300  1
  H  H35  1  0.329700  0.884900  0.720700  1
  H  H36  1  0.329700  0.615100  0.220700  1
  H  H37  1  0.713600  0.297700  0.260900  1
  H  H38  1  0.713600  0.202300  0.760900  1
  H  H39  1  0.286400  0.702300  0.739100  1
  H  H40  1  0.286400  0.797700  0.239100  1
  H  H41  1  0.701300  0.340400  0.311800  1
  H  H42  1  0.701300  0.159600  0.811800  1
  H  H43  1  0.298700  0.659600  0.688200  1
  H  H44  1  0.298700  0.840400  0.188200  1
  H  H45  1  0.662700  0.261900  0.347800  1
  H  H46  1  0.662700  0.238100  0.847800  1
  H  H47  1  0.337300  0.738100  0.652200  1
  H  H48  1  0.337300  0.761900  0.152200  1
  H  H49  1  0.121600  0.004600  0.290800  1
  H  H50  1  0.121600  0.495400  0.790800  1
  H  H51  1  0.878400  0.995400  0.709200  1
  H  H52  1  0.878400  0.504600  0.209200  1
  H  H53  1  0.281200  0.888100  0.324300  1
  H  H54  1  0.281200  0.611900  0.824300  1
  H  H55  1  0.718800  0.111900  0.675700  1
  H  H56  1  0.718800  0.388100  0.175700  1
  H  H57  1  0.197200  0.808600  0.332800  1
  H  H58  1  0.197200  0.691400  0.832800  1
  H  H59  1  0.802800  0.191400  0.667200  1
  H  H60  1  0.802800  0.308600  0.167200  1
  H  H61  1  0.085300  0.835400  0.326000  1
  H  H62  1  0.085300  0.664600  0.826000  1
  H  H63  1  0.914700  0.164600  0.674000  1
  H  H64  1  0.914700  0.335400  0.174000  1
  H  H65  1  0.799400  0.066600  0.254400  1
  H  H66  1  0.799400  0.433400  0.754400  1
  H  H67  1  0.200600  0.933400  0.745600  1
  H  H68  1  0.200600  0.566600  0.245600  1
  H  H69  1  0.844800  0.244900  0.240400  1
  H  H70  1  0.844800  0.255100  0.740400  1
  H  H71  1  0.155200  0.755100  0.759600  1
  H  H72  1  0.155200  0.744900  0.259600  1
  H  H73  1  0.964200  0.221400  0.254300  1
  H  H74  1  0.964200  0.278600  0.754300  1
  H  H75  1  0.035800  0.778600  0.745700  1
  H  H76  1  0.035800  0.721400  0.245700  1
  H  H77  1  0.999300  0.119900  0.279500  1
  H  H78  1  0.999300  0.380100  0.779500  1
  H  H79  1  0.000700  0.880100  0.720500  1
  H  H80  1  0.000700  0.619900  0.220500  1
  H  H81  1  0.761800  0.920500  0.267500  1
  H  H82  1  0.761800  0.579500  0.767500  1
  H  H83  1  0.238200  0.079500  0.732500  1
  H  H84  1  0.238200  0.420500  0.232500  1
  H  H85  1  0.701200  0.745800  0.287200  1
  H  H86  1  0.701200  0.754200  0.787200  1
  H  H87  1  0.298800  0.254200  0.712800  1
  H  H88  1  0.298800  0.245800  0.212800  1
  H  H89  1  0.820500  0.720000  0.311800  1
  H  H90  1  0.820500  0.780000  0.811800  1
  H  H91  1  0.179500  0.280000  0.688200  1
  H  H92  1  0.179500  0.220000  0.188200  1
  H  H93  1  0.912000  0.787600  0.306100  1
  H  H94  1  0.912000  0.712400  0.806100  1
  H  H95  1  0.088000  0.212400  0.693900  1
  H  H96  1  0.088000  0.287600  0.193900  1
  H  H97  1  0.003900  0.382700  0.447700  1
  H  H98  1  0.003900  0.117300  0.947700  1
  H  H99  1  0.996100  0.617300  0.552300  1
  H  H100  1  0.996100  0.882700  0.052300  1
  H  H101  1  0.907400  0.435900  0.352600  1
  H  H102  1  0.907400  0.064100  0.852600  1
  H  H103  1  0.092600  0.564100  0.647400  1
  H  H104  1  0.092600  0.935900  0.147400  1
  H  H105  1  0.801300  0.394400  0.361100  1
  H  H106  1  0.801300  0.105600  0.861100  1
  H  H107  1  0.198700  0.605600  0.638900  1
  H  H108  1  0.198700  0.894400  0.138900  1
  H  H109  1  0.802100  0.356800  0.414100  1
  H  H110  1  0.802100  0.143200  0.914100  1
  H  H111  1  0.197900  0.643200  0.585900  1
  H  H112  1  0.197900  0.856800  0.085900  1
  H  H113  1  0.089300  0.338500  0.519100  1
  H  H114  1  0.089300  0.161500  0.019100  1
  H  H115  1  0.910700  0.661500  0.480900  1
  H  H116  1  0.910700  0.838500  0.980900  1
  H  H117  1  0.192800  0.272900  0.608300  1
  H  H118  1  0.192800  0.227100  0.108300  1
  H  H119  1  0.807200  0.727100  0.391700  1
  H  H120  1  0.807200  0.772900  0.891700  1
  H  H121  1  0.083400  0.264400  0.625500  1
  H  H122  1  0.083400  0.235600  0.125500  1
  H  H123  1  0.916600  0.735600  0.374500  1
  H  H124  1  0.916600  0.764400  0.874500  1
  H  H125  1  0.979000  0.260600  0.583300  1
  H  H126  1  0.979000  0.239400  0.083300  1
  H  H127  1  0.021000  0.739400  0.416700  1
  H  H128  1  0.021000  0.760600  0.916700  1
  H  H129  1  0.713900  0.323500  0.471200  1
  H  H130  1  0.713900  0.176500  0.971200  1
  H  H131  1  0.286100  0.676500  0.528800  1
  H  H132  1  0.286100  0.823500  0.028800  1
  H  H133  1  0.595400  0.299900  0.537100  1
  H  H134  1  0.595400  0.200100  0.037100  1
  H  H135  1  0.404600  0.700100  0.462900  1
  H  H136  1  0.404600  0.799900  0.962900  1
  H  H137  1  0.701100  0.253300  0.576000  1
  H  H138  1  0.701100  0.246700  0.076000  1
  H  H139  1  0.298900  0.746700  0.424000  1
  H  H140  1  0.298900  0.753300  0.924000  1
  H  H141  1  0.810600  0.292700  0.568200  1
  H  H142  1  0.810600  0.207300  0.068200  1
  H  H143  1  0.189400  0.707300  0.431800  1
  H  H144  1  0.189400  0.792700  0.931800  1
  H  H145  1  0.246600  0.100400  0.346800  1
  H  H146  1  0.246600  0.399600  0.846800  1
  H  H147  1  0.753400  0.899600  0.653200  1
  H  H148  1  0.753400  0.600400  0.153200  1
  H  H149  1  0.395800  0.970400  0.350700  1
  H  H150  1  0.395800  0.529600  0.850700  1
  H  H151  1  0.604200  0.029600  0.649300  1
  H  H152  1  0.604200  0.470400  0.149300  1
  H  H153  1  0.448100  0.994900  0.407300  1
  H  H154  1  0.448100  0.505100  0.907300  1
  H  H155  1  0.551900  0.005100  0.592700  1
  H  H156  1  0.551900  0.494900  0.092700  1
  H  H157  1  0.395500  0.081800  0.432400  1
  H  H158  1  0.395500  0.418200  0.932400  1
  H  H159  1  0.604500  0.918200  0.567600  1
  H  H160  1  0.604500  0.581800  0.067600  1
  H  H161  1  0.138500  0.324300  0.417800  1
  H  H162  1  0.138500  0.175700  0.917800  1
  H  H163  1  0.861500  0.675700  0.582200  1
  H  H164  1  0.861500  0.824300  0.082200  1
  H  H165  1  0.026900  0.376400  0.327900  1
  H  H166  1  0.026900  0.123600  0.827900  1
  H  H167  1  0.973100  0.623600  0.672100  1
  H  H168  1  0.973100  0.876400  0.172100  1
  H  H169  1  0.056900  0.278900  0.305700  1
  H  H170  1  0.056900  0.221100  0.805700  1
  H  H171  1  0.943100  0.721100  0.694300  1
  H  H172  1  0.943100  0.778900  0.194300  1
  H  H173  1  0.123600  0.203700  0.339000  1
  H  H174  1  0.123600  0.296300  0.839000  1
  H  H175  1  0.876400  0.796300  0.661000  1
  H  H176  1  0.876400  0.703700  0.161000  1
  H  H177  1  0.220000  0.287000  0.491900  1
  H  H178  1  0.220000  0.213000  0.991900  1
  H  H179  1  0.780000  0.713000  0.508100  1
  H  H180  1  0.780000  0.787000  0.008100  1
  H  H181  1  0.331100  0.256300  0.582400  1
  H  H182  1  0.331100  0.243700  0.082400  1
  H  H183  1  0.668900  0.743700  0.417600  1
  H  H184  1  0.668900  0.756300  0.917600  1
  H  H185  1  0.355800  0.151000  0.568200  1
  H  H186  1  0.355800  0.349000  0.068200  1
  H  H187  1  0.644200  0.849000  0.431800  1
  H  H188  1  0.644200  0.651000  0.931800  1
  H  H189  1  0.344000  0.124800  0.507300  1
  H  H190  1  0.344000  0.375200  0.007300  1
  H  H191  1  0.656000  0.875200  0.492700  1
  H  H192  1  0.656000  0.624800  0.992700  1
  H  H193  1  0.187000  0.460000  0.401000  1
  H  H194  1  0.187000  0.040000  0.901000  1
  H  H195  1  0.813000  0.540000  0.599000  1
  H  H196  1  0.813000  0.960000  0.099000  1
  H  H197  1  0.155000  0.476000  0.366000  1
  H  H198  1  0.155000  0.024000  0.866000  1
  H  H199  1  0.845000  0.524000  0.634000  1
  H  H200  1  0.845000  0.976000  0.134000  1
  H  H201  1  0.002000  0.550000  0.397000  1
  H  H202  1  0.002000  0.950000  0.897000  1
  H  H203  1  0.998000  0.450000  0.603000  1
  H  H204  1  0.998000  0.050000  0.103000  1
  H  H205  1  0.039000  0.529000  0.432000  1
  H  H206  1  0.039000  0.971000  0.932000  1
  H  H207  1  0.961000  0.471000  0.568000  1
  H  H208  1  0.961000  0.029000  0.068000  1
  H  H209  1  0.210000  0.558000  0.413000  1
  H  H210  1  0.210000  0.942000  0.913000  1
  H  H211  1  0.790000  0.442000  0.587000  1
  H  H212  1  0.790000  0.058000  0.087000  1
  H  H213  1  0.164000  0.576000  0.375000  1
  H  H214  1  0.164000  0.924000  0.875000  1
  H  H215  1  0.836000  0.424000  0.625000  1
  H  H216  1  0.836000  0.076000  0.125000  1
  H  H217  1  0.081000  0.615000  0.395000  1
  H  H218  1  0.081000  0.885000  0.895000  1
  H  H219  1  0.919000  0.385000  0.605000  1
  H  H220  1  0.919000  0.115000  0.105000  1
  H  H221  1  0.120000  0.593000  0.432000  1
  H  H222  1  0.120000  0.907000  0.932000  1
  H  H223  1  0.880000  0.407000  0.568000  1
  H  H224  1  0.880000  0.093000  0.068000  1
  H  H225  1  0.764000  0.166000  0.170000  1
  H  H226  1  0.764000  0.334000  0.670000  1
  H  H227  1  0.236000  0.834000  0.830000  1
  H  H228  1  0.236000  0.666000  0.330000  1
  H  H229  1  0.730000  0.103000  0.174000  1
  H  H230  1  0.730000  0.397000  0.674000  1
  H  H231  1  0.270000  0.897000  0.826000  1
  H  H232  1  0.270000  0.603000  0.326000  1
  H  H233  1  0.584000  0.184000  0.212000  1
  H  H234  1  0.584000  0.316000  0.712000  1
  H  H235  1  0.416000  0.816000  0.788000  1
  H  H236  1  0.416000  0.684000  0.288000  1
  H  H237  1  0.609000  0.240000  0.196000  1
  H  H238  1  0.609000  0.260000  0.696000  1
  H  H239  1  0.391000  0.760000  0.804000  1
  H  H240  1  0.391000  0.740000  0.304000  1
  H  H241  1  0.654000  0.143000  0.131000  1
  H  H242  1  0.654000  0.357000  0.631000  1
  H  H243  1  0.346000  0.857000  0.869000  1
  H  H244  1  0.346000  0.643000  0.369000  1
  H  H245  1  0.667000  0.214000  0.146000  1
  H  H246  1  0.667000  0.286000  0.646000  1
  H  H247  1  0.333000  0.786000  0.854000  1
  H  H248  1  0.333000  0.714000  0.354000  1
  H  H249  1  0.550000  0.190000  0.149000  1
  H  H250  1  0.550000  0.310000  0.649000  1
  H  H251  1  0.450000  0.810000  0.851000  1
  H  H252  1  0.450000  0.690000  0.351000  1
  H  H253  1  0.580000  0.120000  0.167000  1
  H  H254  1  0.580000  0.380000  0.667000  1
  H  H255  1  0.420000  0.880000  0.833000  1
  H  H256  1  0.420000  0.620000  0.333000  1
  H  H257  1  0.360000  0.110000  0.294000  1
  H  H258  1  0.360000  0.390000  0.794000  1
  H  H259  1  0.640000  0.890000  0.706000  1
  H  H260  1  0.640000  0.610000  0.206000  1
  H  H261  1  0.390000  0.050000  0.279000  1
  H  H262  1  0.390000  0.450000  0.779000  1
  H  H263  1  0.610000  0.950000  0.721000  1
  H  H264  1  0.610000  0.550000  0.221000  1
  H  H265  1  0.216000  0.963000  0.238000  1
  H  H266  1  0.216000  0.537000  0.738000  1
  H  H267  1  0.784000  0.037000  0.762000  1
  H  H268  1  0.784000  0.463000  0.262000  1
  H  H269  1  0.185000  0.029000  0.237000  1
  H  H270  1  0.185000  0.471000  0.737000  1
  H  H271  1  0.815000  0.971000  0.763000  1
  H  H272  1  0.815000  0.529000  0.263000  1
  H  H273  1  0.350000  0.120000  0.233000  1
  H  H274  1  0.350000  0.380000  0.733000  1
  H  H275  1  0.650000  0.880000  0.767000  1
  H  H276  1  0.650000  0.620000  0.267000  1
  H  H277  1  0.280000  0.130000  0.244000  1
  H  H278  1  0.280000  0.370000  0.744000  1
  H  H279  1  0.720000  0.870000  0.756000  1
  H  H280  1  0.720000  0.630000  0.256000  1
  H  H281  1  0.270000  0.035000  0.204000  1
  H  H282  1  0.270000  0.465000  0.704000  1
  H  H283  1  0.730000  0.965000  0.796000  1
  H  H284  1  0.730000  0.535000  0.296000  1
  H  H285  1  0.320000  0.000000  0.234000  1
  H  H286  1  0.320000  0.500000  0.734000  1
  H  H287  1  0.680000  0.000000  0.766000  1
  H  H288  1  0.680000  0.500000  0.266000  1
  H  H289  1  0.159000  0.452000  0.560000  1
  H  H290  1  0.159000  0.048000  0.060000  1
  H  H291  1  0.841000  0.548000  0.440000  1
  H  H292  1  0.841000  0.952000  0.940000  1
  H  H293  1  0.218000  0.450000  0.591000  1
  H  H294  1  0.218000  0.050000  0.091000  1
  H  H295  1  0.782000  0.550000  0.409000  1
  H  H296  1  0.782000  0.950000  0.909000  1
  H  H297  1  0.360000  0.390000  0.562000  1
  H  H298  1  0.360000  0.110000  0.062000  1
  H  H299  1  0.640000  0.610000  0.438000  1
  H  H300  1  0.640000  0.890000  0.938000  1
  H  H301  1  0.330000  0.400000  0.527000  1
  H  H302  1  0.330000  0.100000  0.027000  1
  H  H303  1  0.670000  0.600000  0.473000  1
  H  H304  1  0.670000  0.900000  0.973000  1
  H  H305  1  0.230000  0.540000  0.570000  1
  H  H306  1  0.230000  0.960000  0.070000  1
  H  H307  1  0.770000  0.460000  0.430000  1
  H  H308  1  0.770000  0.040000  0.930000  1
  H  H309  1  0.220000  0.500000  0.530000  1
  H  H310  1  0.220000  0.000000  0.030000  1
  H  H311  1  0.780000  0.500000  0.470000  1
  H  H312  1  0.780000  0.000000  0.970000  1
  H  H313  1  0.350000  0.490000  0.580000  1
  H  H314  1  0.350000  0.010000  0.080000  1
  H  H315  1  0.650000  0.510000  0.420000  1
  H  H316  1  0.650000  0.990000  0.920000  1
  H  H317  1  0.340000  0.510000  0.540000  1
  H  H318  1  0.340000  0.990000  0.040000  1
  H  H319  1  0.660000  0.490000  0.460000  1
  H  H320  1  0.660000  0.010000  0.960000  1
  H  H321  1  0.486000  0.863000  0.242000  1
  H  H322  1  0.486000  0.637000  0.742000  1
  H  H323  1  0.514000  0.137000  0.758000  1
  H  H324  1  0.514000  0.363000  0.258000  1
  H  H325  1  0.511000  0.927000  0.233000  1
  H  H326  1  0.511000  0.573000  0.733000  1
  H  H327  1  0.489000  0.073000  0.767000  1
  H  H328  1  0.489000  0.427000  0.267000  1
  H  H329  1  0.663000  0.854000  0.201000  1
  H  H330  1  0.663000  0.646000  0.701000  1
  H  H331  1  0.337000  0.146000  0.799000  1
  H  H332  1  0.337000  0.354000  0.299000  1
  H  H333  1  0.629000  0.792000  0.204000  1
  H  H334  1  0.629000  0.708000  0.704000  1
  H  H335  1  0.371000  0.208000  0.796000  1
  H  H336  1  0.371000  0.292000  0.296000  1
  H  H337  1  0.496000  0.814000  0.194000  1
  H  H338  1  0.496000  0.686000  0.694000  1
  H  H339  1  0.504000  0.186000  0.806000  1
  H  H340  1  0.504000  0.314000  0.306000  1
  H  H341  1  0.477000  0.883000  0.180000  1
  H  H342  1  0.477000  0.617000  0.680000  1
  H  H343  1  0.523000  0.117000  0.820000  1
  H  H344  1  0.523000  0.383000  0.320000  1
  H  H345  1  0.570000  0.900000  0.170000  1
  H  H346  1  0.570000  0.600000  0.670000  1
  H  H347  1  0.430000  0.100000  0.830000  1
  H  H348  1  0.430000  0.400000  0.330000  1
  H  H349  1  0.550000  0.820000  0.160000  1
  H  H350  1  0.550000  0.680000  0.660000  1
  H  H351  1  0.450000  0.180000  0.840000  1
  H  H352  1  0.450000  0.320000  0.340000  1
  H  H353  1  0.470000  0.300000  0.407000  1
  H  H354  1  0.470000  0.200000  0.907000  1
  H  H355  1  0.530000  0.700000  0.593000  1
  H  H356  1  0.530000  0.800000  0.093000  1
  H  H357  1  0.430000  0.310000  0.433000  1
  H  H358  1  0.430000  0.190000  0.933000  1
  H  H359  1  0.570000  0.690000  0.567000  1
  H  H360  1  0.570000  0.810000  0.067000  1
  H  H361  1  0.530000  0.470000  0.457000  1
  H  H362  1  0.530000  0.030000  0.957000  1
  H  H363  1  0.470000  0.530000  0.543000  1
  H  H364  1  0.470000  0.970000  0.043000  1
  H  H365  1  0.480000  0.420000  0.473000  1
  H  H366  1  0.480000  0.080000  0.973000  1
  H  H367  1  0.520000  0.580000  0.527000  1
  H  H368  1  0.520000  0.920000  0.027000  1
  H  H369  1  0.410000  0.420000  0.410000  1
  H  H370  1  0.410000  0.080000  0.910000  1
  H  H371  1  0.590000  0.580000  0.590000  1
  H  H372  1  0.590000  0.920000  0.090000  1
  H  H373  1  0.490000  0.410000  0.400000  1
  H  H374  1  0.490000  0.090000  0.900000  1
  H  H375  1  0.510000  0.590000  0.600000  1
  H  H376  1  0.510000  0.910000  0.100000  1
  H  H377  1  0.864200  0.508300  0.083600  1
  H  H378  1  0.864200  0.991700  0.583600  1
  H  H379  1  0.135800  0.491700  0.916400  1
  H  H380  1  0.135800  0.008300  0.416400  1
  H  H381  1  0.808500  0.440000  0.114900  1
  H  H382  1  0.808500  0.060000  0.614900  1
  H  H383  1  0.191500  0.560000  0.885100  1
  H  H384  1  0.191500  0.940000  0.385100  1
  H  H385  1  0.701400  0.395800  0.096600  1
  H  H386  1  0.701400  0.104200  0.596600  1
  H  H387  1  0.298600  0.604200  0.903400  1
  H  H388  1  0.298600  0.895800  0.403400  1
  H  H389  1  0.641000  0.421900  0.045100  1
  H  H390  1  0.641000  0.078100  0.545100  1
  H  H391  1  0.359000  0.578100  0.954900  1
  H  H392  1  0.359000  0.921900  0.454900  1
  H  H393  1  0.682100  0.483400  0.011900  1
  H  H394  1  0.682100  0.016600  0.511900  1
  H  H395  1  0.317900  0.516600  0.988100  1
  H  H396  1  0.317900  0.983400  0.488100  1
  H  H397  1  0.760500  0.502000  0.973100  1
  H  H398  1  0.760500  0.998000  0.473100  1
  H  H399  1  0.239500  0.498000  0.026900  1
  H  H400  1  0.239500  0.002000  0.526900  1
  H  H401  1  0.881600  0.655900  0.960100  1
  H  H402  1  0.881600  0.844100  0.460100  1
  H  H403  1  0.118400  0.344100  0.039900  1
  H  H404  1  0.118400  0.155900  0.539900  1
  H  H405  1  0.918900  0.672600  0.018900  1
  H  H406  1  0.918900  0.827400  0.518900  1
  H  H407  1  0.081100  0.327400  0.981100  1
  H  H408  1  0.081100  0.172600  0.481100  1
  H  H409  1  0.868400  0.606900  0.053800  1
  H  H410  1  0.868400  0.893100  0.553800  1
  H  H411  1  0.131600  0.393100  0.946200  1
  H  H412  1  0.131600  0.106900  0.446200  1
  H  H413  1  0.809700  0.460500  0.928000  1
  H  H414  1  0.809700  0.039500  0.428000  1
  H  H415  1  0.190300  0.539500  0.072000  1
  H  H416  1  0.190300  0.960500  0.572000  1
  H  H417  1  0.797100  0.439600  0.869900  1
  H  H418  1  0.797100  0.060400  0.369900  1
  H  H419  1  0.202900  0.560400  0.130100  1
  H  H420  1  0.202900  0.939600  0.630100  1
  H  H421  1  0.781600  0.526200  0.831700  1
  H  H422  1  0.781600  0.973800  0.331700  1
  H  H423  1  0.218400  0.473800  0.168300  1
  H  H424  1  0.218400  0.026200  0.668300  1
  H  H425  1  0.761900  0.627400  0.849800  1
  H  H426  1  0.761900  0.872600  0.349800  1
  H  H427  1  0.238100  0.372600  0.150200  1
  H  H428  1  0.238100  0.127400  0.650200  1
  H  H429  1  0.796400  0.655100  0.904400  1
  H  H430  1  0.796400  0.844900  0.404400  1
  H  H431  1  0.203600  0.344900  0.095600  1
  H  H432  1  0.203600  0.155100  0.595600  1
  H  H433  1  0.111600  0.831200  0.431100  1
  H  H434  1  0.111600  0.668800  0.931100  1
  H  H435  1  0.888400  0.168800  0.568900  1
  H  H436  1  0.888400  0.331200  0.068900  1
  H  H437  1  0.026000  0.866400  0.382600  1
  H  H438  1  0.026000  0.633600  0.882600  1
  H  H439  1  0.974000  0.133600  0.617400  1
  H  H440  1  0.974000  0.366400  0.117400  1
  H  H441  1  0.947800  0.950000  0.387300  1
  H  H442  1  0.947800  0.550000  0.887300  1
  H  H443  1  0.052200  0.050000  0.612700  1
  H  H444  1  0.052200  0.450000  0.112700  1
  H  H445  1  0.961600  0.998200  0.437700  1
  H  H446  1  0.961600  0.501800  0.937700  1
  H  H447  1  0.038400  0.001800  0.562300  1
  H  H448  1  0.038400  0.498200  0.062300  1
  H  H449  1  0.032000  0.951400  0.485600  1
  H  H450  1  0.032000  0.548600  0.985600  1
  H  H451  1  0.968000  0.048600  0.514400  1
  H  H452  1  0.968000  0.451400  0.014400  1
  H  H453  1  0.057000  0.846700  0.522400  1
  H  H454  1  0.057000  0.653300  0.022400  1
  H  H455  1  0.943000  0.153300  0.477600  1
  H  H456  1  0.943000  0.346700  0.977600  1
  H  H457  1  0.250600  0.804600  0.572200  1
  H  H458  1  0.250600  0.695400  0.072200  1
  H  H459  1  0.749400  0.195400  0.427800  1
  H  H460  1  0.749400  0.304600  0.927800  1
  H  H461  1  0.294800  0.836200  0.523900  1
  H  H462  1  0.294800  0.663800  0.023900  1
  H  H463  1  0.705200  0.163800  0.476100  1
  H  H464  1  0.705200  0.336200  0.976100  1
  H  H465  1  0.209800  0.857500  0.474600  1
  H  H466  1  0.209800  0.642500  0.974600  1
  H  H467  1  0.790200  0.142500  0.525400  1
  H  H468  1  0.790200  0.357500  0.025400  1
  H  H469  1  0.206400  0.780200  0.610400  1
  H  H470  1  0.206400  0.719800  0.110400  1
  H  H471  1  0.793600  0.219800  0.389600  1
  H  H472  1  0.793600  0.280200  0.889600  1
  H  H473  1  0.171100  0.771000  0.661300  1
  H  H474  1  0.171100  0.729000  0.161300  1
  H  H475  1  0.828900  0.229000  0.338700  1
  H  H476  1  0.828900  0.271000  0.838700  1
  H  H477  1  0.057800  0.802000  0.664000  1
  H  H478  1  0.057800  0.698000  0.164000  1
  H  H479  1  0.942200  0.198000  0.336000  1
  H  H480  1  0.942200  0.302000  0.836000  1
  H  H481  1  0.979600  0.842300  0.615800  1
  H  H482  1  0.979600  0.657700  0.115800  1
  H  H483  1  0.020400  0.157700  0.384200  1
  H  H484  1  0.020400  0.342300  0.884200  1
  H  H485  1  0.014800  0.851500  0.565000  1
  H  H486  1  0.014800  0.648500  0.065000  1
  H  H487  1  0.985200  0.148500  0.435000  1
  H  H488  1  0.985200  0.351500  0.935000  1
  H  H489  1  0.590000  0.400000  0.469000  1
  H  H490  1  0.590000  0.100000  0.969000  1
  H  H491  1  0.410000  0.600000  0.531000  1
  H  H492  1  0.410000  0.900000  0.031000  1
  H  H493  1  0.550000  0.380000  0.434000  1
  H  H494  1  0.550000  0.120000  0.934000  1
  H  H495  1  0.450000  0.620000  0.566000  1
  H  H496  1  0.450000  0.880000  0.066000  1
  Pd  Pd497  1  0.059070  0.446120  0.392000  1
  Pd  Pd498  1  0.059070  0.053880  0.892000  1
  Pd  Pd499  1  0.940930  0.553880  0.608000  1
  Pd  Pd500  1  0.940930  0.946120  0.108000  1
  Pd  Pd501  1  0.713910  0.175670  0.222300  1
  Pd  Pd502  1  0.713910  0.324330  0.722300  1
  Pd  Pd503  1  0.286090  0.824330  0.777700  1
  Pd  Pd504  1  0.286090  0.675670  0.277700  1
  Pd  Pd505  1  0.275340  0.018320  0.294190  1
  Pd  Pd506  1  0.275340  0.481680  0.794190  1
  Pd  Pd507  1  0.724660  0.981680  0.705810  1
  Pd  Pd508  1  0.724660  0.518320  0.205810  1
  Pd  Pd509  1  0.233930  0.356990  0.554740  1
  Pd  Pd510  1  0.233930  0.143010  0.054740  1
  Pd  Pd511  1  0.766070  0.643010  0.445260  1
  Pd  Pd512  1  0.766070  0.856990  0.945260  1
  Pd  Pd513  1  0.619760  0.858410  0.254190  1
  Pd  Pd514  1  0.619760  0.641590  0.754190  1
  Pd  Pd515  1  0.380240  0.141590  0.745810  1
  Pd  Pd516  1  0.380240  0.358410  0.245810  1
  Pd  Pd517  1  0.556220  0.311550  0.463290  1
  Pd  Pd518  1  0.556220  0.188450  0.963290  1
  Pd  Pd519  1  0.443780  0.688450  0.536710  1
  Pd  Pd520  1  0.443780  0.811550  0.036710  1
  C  C521  1  0.605800  0.035000  0.349600  1
  C  C522  1  0.605800  0.465000  0.849600  1
  C  C523  1  0.394200  0.965000  0.650400  1
  C  C524  1  0.394200  0.535000  0.150400  1
  C  C525  1  0.640600  0.132300  0.341500  1
  C  C526  1  0.640600  0.367700  0.841500  1
  C  C527  1  0.359400  0.867700  0.658500  1
  C  C528  1  0.359400  0.632300  0.158500  1
  C  C529  1  0.596700  0.112400  0.388200  1
  C  C530  1  0.596700  0.387600  0.888200  1
  C  C531  1  0.403300  0.887600  0.611800  1
  C  C532  1  0.403300  0.612400  0.111800  1
  C  C533  1  0.599300  0.969500  0.339900  1
  C  C534  1  0.599300  0.530500  0.839900  1
  C  C535  1  0.400700  0.030500  0.660100  1
  C  C536  1  0.400700  0.469500  0.160100  1
  C  C537  1  0.611700  0.945900  0.310200  1
  C  C538  1  0.611700  0.554100  0.810200  1
  C  C539  1  0.388300  0.054100  0.689800  1
  C  C540  1  0.388300  0.445900  0.189800  1
  C  C541  1  0.579500  0.837000  0.317200  1
  C  C542  1  0.579500  0.663000  0.817200  1
  C  C543  1  0.420500  0.163000  0.682800  1
  C  C544  1  0.420500  0.337000  0.182800  1
  C  C545  1  0.570600  0.852600  0.350300  1
  C  C546  1  0.570600  0.647400  0.850300  1
  C  C547  1  0.429400  0.147400  0.649700  1
  C  C548  1  0.429400  0.352600  0.149700  1
  C  C549  1  0.580000  0.916600  0.360300  1
  C  C550  1  0.580000  0.583400  0.860300  1
  C  C551  1  0.420000  0.083400  0.639700  1
  C  C552  1  0.420000  0.416600  0.139700  1
  C  C553  1  0.580000  0.130200  0.418900  1
  C  C554  1  0.580000  0.369800  0.918900  1
  C  C555  1  0.420000  0.869800  0.581100  1
  C  C556  1  0.420000  0.630200  0.081100  1
  C  C557  1  0.580000  0.198000  0.425000  1
  C  C558  1  0.580000  0.302000  0.925000  1
  C  C559  1  0.420000  0.802000  0.575000  1
  C  C560  1  0.420000  0.698000  0.075000  1
  C  C561  1  0.542900  0.181000  0.473400  1
  C  C562  1  0.542900  0.319000  0.973400  1
  C  C563  1  0.457100  0.819000  0.526600  1
  C  C564  1  0.457100  0.681000  0.026600  1
  C  C565  1  0.542000  0.108000  0.472000  1
  C  C566  1  0.542000  0.392000  0.972000  1
  C  C567  1  0.458000  0.892000  0.528000  1
  C  C568  1  0.458000  0.608000  0.028000  1
  C  C569  1  0.571000  0.085700  0.441000  1
  C  C570  1  0.571000  0.414300  0.941000  1
  C  C571  1  0.429000  0.914300  0.559000  1
  C  C572  1  0.429000  0.585700  0.059000  1
  C  C573  1  0.661400  0.183500  0.318500  1
  C  C574  1  0.661400  0.316500  0.818500  1
  C  C575  1  0.338600  0.816500  0.681500  1
  C  C576  1  0.338600  0.683500  0.181500  1
  C  C577  1  0.676700  0.158500  0.286400  1
  C  C578  1  0.676700  0.341500  0.786400  1
  C  C579  1  0.323300  0.841500  0.713600  1
  C  C580  1  0.323300  0.658500  0.213600  1
  C  C581  1  0.703900  0.268400  0.277100  1
  C  C582  1  0.703900  0.231600  0.777100  1
  C  C583  1  0.296100  0.731600  0.722900  1
  C  C584  1  0.296100  0.768400  0.222900  1
  C  C585  1  0.694200  0.296400  0.306200  1
  C  C586  1  0.694200  0.203600  0.806200  1
  C  C587  1  0.305800  0.703600  0.693800  1
  C  C588  1  0.305800  0.796400  0.193800  1
  C  C589  1  0.671500  0.248300  0.326900  1
  C  C590  1  0.671500  0.251700  0.826900  1
  C  C591  1  0.328500  0.751700  0.673100  1
  C  C592  1  0.328500  0.748300  0.173100  1
  C  C593  1  0.012600  0.939900  0.296900  1
  C  C594  1  0.012600  0.560100  0.796900  1
  C  C595  1  0.987400  0.060100  0.703100  1
  C  C596  1  0.987400  0.439900  0.203100  1
  C  C597  1  0.928500  0.014000  0.278800  1
  C  C598  1  0.928500  0.486000  0.778800  1
  C  C599  1  0.071500  0.986000  0.721200  1
  C  C600  1  0.071500  0.514000  0.221200  1
  C  C601  1  0.898000  0.909700  0.287000  1
  C  C602  1  0.898000  0.590300  0.787000  1
  C  C603  1  0.102000  0.090300  0.713000  1
  C  C604  1  0.102000  0.409700  0.213000  1
  C  C605  1  0.084800  0.921000  0.304400  1
  C  C606  1  0.084800  0.579000  0.804400  1
  C  C607  1  0.915200  0.079000  0.695600  1
  C  C608  1  0.915200  0.421000  0.195600  1
  C  C609  1  0.138900  0.964100  0.299800  1
  C  C610  1  0.138900  0.535900  0.799800  1
  C  C611  1  0.861100  0.035900  0.700200  1
  C  C612  1  0.861100  0.464100  0.200200  1
  C  C613  1  0.232300  0.896900  0.319200  1
  C  C614  1  0.232300  0.603100  0.819200  1
  C  C615  1  0.767700  0.103100  0.680800  1
  C  C616  1  0.767700  0.396900  0.180800  1
  C  C617  1  0.182100  0.850300  0.324900  1
  C  C618  1  0.182100  0.649700  0.824900  1
  C  C619  1  0.817900  0.149700  0.675100  1
  C  C620  1  0.817900  0.350300  0.175100  1
  C  C621  1  0.115500  0.865600  0.319200  1
  C  C622  1  0.115500  0.634400  0.819200  1
  C  C623  1  0.884500  0.134400  0.680800  1
  C  C624  1  0.884500  0.365600  0.180800  1
  C  C625  1  0.907000  0.082000  0.268300  1
  C  C626  1  0.907000  0.418000  0.768300  1
  C  C627  1  0.093000  0.918000  0.731700  1
  C  C628  1  0.093000  0.582000  0.231700  1
  C  C629  1  0.834300  0.098400  0.254800  1
  C  C630  1  0.834300  0.401600  0.754800  1
  C  C631  1  0.165700  0.901600  0.745200  1
  C  C632  1  0.165700  0.598400  0.245200  1
  C  C633  1  0.860100  0.202100  0.245600  1
  C  C634  1  0.860100  0.297900  0.745600  1
  C  C635  1  0.139900  0.797900  0.754400  1
  C  C636  1  0.139900  0.702100  0.254400  1
  C  C637  1  0.930200  0.189800  0.255900  1
  C  C638  1  0.930200  0.310200  0.755900  1
  C  C639  1  0.069800  0.810200  0.744100  1
  C  C640  1  0.069800  0.689800  0.244100  1
  C  C641  1  0.951100  0.127600  0.269400  1
  C  C642  1  0.951100  0.372400  0.769400  1
  C  C643  1  0.048900  0.872400  0.730600  1
  C  C644  1  0.048900  0.627600  0.230600  1
  C  C645  1  0.846800  0.862600  0.287700  1
  C  C646  1  0.846800  0.637400  0.787700  1
  C  C647  1  0.153200  0.137400  0.712300  1
  C  C648  1  0.153200  0.362600  0.212300  1
  C  C649  1  0.773800  0.878100  0.275100  1
  C  C650  1  0.773800  0.621900  0.775100  1
  C  C651  1  0.226200  0.121900  0.724900  1
  C  C652  1  0.226200  0.378100  0.224900  1
  C  C653  1  0.737500  0.776000  0.287100  1
  C  C654  1  0.737500  0.724000  0.787100  1
  C  C655  1  0.262500  0.224000  0.712900  1
  C  C656  1  0.262500  0.276000  0.212900  1
  C  C657  1  0.809700  0.760300  0.301000  1
  C  C658  1  0.809700  0.739700  0.801000  1
  C  C659  1  0.190300  0.239700  0.699000  1
  C  C660  1  0.190300  0.260300  0.199000  1
  C  C661  1  0.864400  0.801100  0.299400  1
  C  C662  1  0.864400  0.698900  0.799400  1
  C  C663  1  0.135600  0.198900  0.700600  1
  C  C664  1  0.135600  0.301100  0.200600  1
  C  C665  1  0.893500  0.344000  0.470300  1
  C  C666  1  0.893500  0.156000  0.970300  1
  C  C667  1  0.106500  0.656000  0.529700  1
  C  C668  1  0.106500  0.844000  0.029700  1
  C  C669  1  0.954600  0.314500  0.522100  1
  C  C670  1  0.954600  0.185500  0.022100  1
  C  C671  1  0.045400  0.685500  0.477900  1
  C  C672  1  0.045400  0.814500  0.977900  1
  C  C673  1  0.836100  0.317200  0.508900  1
  C  C674  1  0.836100  0.182800  0.008900  1
  C  C675  1  0.163900  0.682800  0.491100  1
  C  C676  1  0.163900  0.817200  0.991100  1
  C  C677  1  0.899000  0.373200  0.435600  1
  C  C678  1  0.899000  0.126800  0.935600  1
  C  C679  1  0.101000  0.626800  0.564400  1
  C  C680  1  0.101000  0.873200  0.064400  1
  C  C681  1  0.962500  0.389200  0.430300  1
  C  C682  1  0.962500  0.110800  0.930300  1
  C  C683  1  0.037500  0.610800  0.569700  1
  C  C684  1  0.037500  0.889200  0.069700  1
  C  C685  1  0.906800  0.418000  0.374000  1
  C  C686  1  0.906800  0.082000  0.874000  1
  C  C687  1  0.093200  0.582000  0.626000  1
  C  C688  1  0.093200  0.918000  0.126000  1
  C  C689  1  0.843000  0.394900  0.378700  1
  C  C690  1  0.843000  0.105100  0.878700  1
  C  C691  1  0.157000  0.605100  0.621300  1
  C  C692  1  0.157000  0.894900  0.121300  1
  C  C693  1  0.844700  0.373400  0.410200  1
  C  C694  1  0.844700  0.126600  0.910200  1
  C  C695  1  0.155300  0.626600  0.589800  1
  C  C696  1  0.155300  0.873400  0.089800  1
  C  C697  1  0.020000  0.304700  0.547000  1
  C  C698  1  0.020000  0.195300  0.047000  1
  C  C699  1  0.980000  0.695300  0.453000  1
  C  C700  1  0.980000  0.804700  0.953000  1
  C  C701  1  0.088300  0.322900  0.540900  1
  C  C702  1  0.088300  0.177100  0.040900  1
  C  C703  1  0.911700  0.677100  0.459100  1
  C  C704  1  0.911700  0.822900  0.959100  1
  C  C705  1  0.149300  0.286200  0.594100  1
  C  C706  1  0.149300  0.213800  0.094100  1
  C  C707  1  0.850700  0.713800  0.405900  1
  C  C708  1  0.850700  0.786200  0.905900  1
  C  C709  1  0.083800  0.274300  0.602800  1
  C  C710  1  0.083800  0.225700  0.102800  1
  C  C711  1  0.916200  0.725700  0.397200  1
  C  C712  1  0.916200  0.774300  0.897200  1
  C  C713  1  0.020900  0.277100  0.578600  1
  C  C714  1  0.020900  0.222900  0.078600  1
  C  C715  1  0.979100  0.722900  0.421400  1
  C  C716  1  0.979100  0.777100  0.921400  1
  C  C717  1  0.767700  0.309700  0.517700  1
  C  C718  1  0.767700  0.190300  0.017700  1
  C  C719  1  0.232300  0.690300  0.482300  1
  C  C720  1  0.232300  0.809700  0.982300  1
  C  C721  1  0.709900  0.314300  0.493500  1
  C  C722  1  0.709900  0.185700  0.993500  1
  C  C723  1  0.290100  0.685700  0.506500  1
  C  C724  1  0.290100  0.814300  0.006500  1
  C  C725  1  0.638600  0.296000  0.530500  1
  C  C726  1  0.638600  0.204000  0.030500  1
  C  C727  1  0.361400  0.704000  0.469500  1
  C  C728  1  0.361400  0.796000  0.969500  1
  C  C729  1  0.704200  0.276400  0.556300  1
  C  C730  1  0.704200  0.223600  0.056300  1
  C  C731  1  0.295800  0.723600  0.443700  1
  C  C732  1  0.295800  0.776400  0.943700  1
  C  C733  1  0.768700  0.292900  0.550700  1
  C  C734  1  0.768700  0.207100  0.050700  1
  C  C735  1  0.231300  0.707100  0.449300  1
  C  C736  1  0.231300  0.792900  0.949300  1
  C  C737  1  0.277500  0.141900  0.410000  1
  C  C738  1  0.277500  0.358100  0.910000  1
  C  C739  1  0.722500  0.858100  0.590000  1
  C  C740  1  0.722500  0.641900  0.090000  1
  C  C741  1  0.196200  0.219300  0.404700  1
  C  C742  1  0.196200  0.280700  0.904700  1
  C  C743  1  0.803800  0.780700  0.595300  1
  C  C744  1  0.803800  0.719300  0.095300  1
  C  C745  1  0.265800  0.196300  0.455600  1
  C  C746  1  0.265800  0.303700  0.955600  1
  C  C747  1  0.734200  0.803700  0.544400  1
  C  C748  1  0.734200  0.696300  0.044400  1
  C  C749  1  0.308500  0.092000  0.393900  1
  C  C750  1  0.308500  0.408000  0.893900  1
  C  C751  1  0.691500  0.908000  0.606100  1
  C  C752  1  0.691500  0.592000  0.106100  1
  C  C753  1  0.287000  0.079000  0.359700  1
  C  C754  1  0.287000  0.421000  0.859700  1
  C  C755  1  0.713000  0.921000  0.640300  1
  C  C756  1  0.713000  0.579000  0.140300  1
  C  C757  1  0.376400  0.004200  0.361200  1
  C  C758  1  0.376400  0.495800  0.861200  1
  C  C759  1  0.623600  0.995800  0.638800  1
  C  C760  1  0.623600  0.504200  0.138800  1
  C  C761  1  0.407500  0.017000  0.395200  1
  C  C762  1  0.407500  0.483000  0.895200  1
  C  C763  1  0.592500  0.983000  0.604800  1
  C  C764  1  0.592500  0.517000  0.104800  1
  C  C765  1  0.373300  0.066400  0.410600  1
  C  C766  1  0.373300  0.433600  0.910600  1
  C  C767  1  0.626700  0.933600  0.589400  1
  C  C768  1  0.626700  0.566400  0.089400  1
  C  C769  1  0.148300  0.260200  0.382300  1
  C  C770  1  0.148300  0.239800  0.882300  1
  C  C771  1  0.851700  0.739800  0.617700  1
  C  C772  1  0.851700  0.760200  0.117700  1
  C  C773  1  0.123500  0.316000  0.394300  1
  C  C774  1  0.123500  0.184000  0.894300  1
  C  C775  1  0.876500  0.684000  0.605700  1
  C  C776  1  0.876500  0.816000  0.105700  1
  C  C777  1  0.056000  0.346800  0.342500  1
  C  C778  1  0.056000  0.153200  0.842500  1
  C  C779  1  0.944000  0.653200  0.657500  1
  C  C780  1  0.944000  0.846800  0.157500  1
  C  C781  1  0.074700  0.287600  0.329100  1
  C  C782  1  0.074700  0.212400  0.829100  1
  C  C783  1  0.925300  0.712400  0.670900  1
  C  C784  1  0.925300  0.787600  0.170900  1
  C  C785  1  0.115900  0.244300  0.348000  1
  C  C786  1  0.115900  0.255700  0.848000  1
  C  C787  1  0.884100  0.755700  0.652000  1
  C  C788  1  0.884100  0.744300  0.152000  1
  C  C789  1  0.282600  0.207000  0.493300  1
  C  C790  1  0.282600  0.293000  0.993300  1
  C  C791  1  0.717400  0.793000  0.506700  1
  C  C792  1  0.717400  0.707000  0.006700  1
  C  C793  1  0.252600  0.260200  0.506800  1
  C  C794  1  0.252600  0.239800  0.006800  1
  C  C795  1  0.747400  0.739800  0.493200  1
  C  C796  1  0.747400  0.760200  0.993200  1
  C  C797  1  0.312900  0.240100  0.560300  1
  C  C798  1  0.312900  0.259900  0.060300  1
  C  C799  1  0.687100  0.759900  0.439700  1
  C  C800  1  0.687100  0.740100  0.939700  1
  C  C801  1  0.334400  0.180500  0.551100  1
  C  C802  1  0.334400  0.319500  0.051100  1
  C  C803  1  0.665600  0.819500  0.448900  1
  C  C804  1  0.665600  0.680500  0.948900  1
  C  C805  1  0.324500  0.162100  0.514900  1
  C  C806  1  0.324500  0.337900  0.014900  1
  C  C807  1  0.675500  0.837900  0.485100  1
  C  C808  1  0.675500  0.662100  0.985100  1
  C  C809  1  0.161000  0.552000  0.395800  1
  C  C810  1  0.161000  0.948000  0.895800  1
  C  C811  1  0.839000  0.448000  0.604200  1
  C  C812  1  0.839000  0.052000  0.104200  1
  C  C813  1  0.101000  0.577500  0.409100  1
  C  C814  1  0.101000  0.922500  0.909100  1
  C  C815  1  0.899000  0.422500  0.590900  1
  C  C816  1  0.899000  0.077500  0.090900  1
  C  C817  1  0.661000  0.168400  0.152100  1
  C  C818  1  0.661000  0.331600  0.652100  1
  C  C819  1  0.339000  0.831600  0.847900  1
  C  C820  1  0.339000  0.668400  0.347900  1
  C  C821  1  0.591000  0.164000  0.164400  1
  C  C822  1  0.591000  0.336000  0.664400  1
  C  C823  1  0.409000  0.836000  0.835600  1
  C  C824  1  0.409000  0.664000  0.335600  1
  C  C825  1  0.316000  0.100000  0.244400  1
  C  C826  1  0.316000  0.400000  0.744400  1
  C  C827  1  0.684000  0.900000  0.755600  1
  C  C828  1  0.684000  0.600000  0.255600  1
  C  C829  1  0.285200  0.031000  0.229100  1
  C  C830  1  0.285200  0.469000  0.729100  1
  C  C831  1  0.714800  0.969000  0.770900  1
  C  C832  1  0.714800  0.531000  0.270900  1
  C  C833  1  0.238000  0.494800  0.555000  1
  C  C834  1  0.238000  0.005200  0.055000  1
  C  C835  1  0.762000  0.505200  0.445000  1
  C  C836  1  0.762000  0.994800  0.945000  1
  C  C837  1  0.319000  0.481000  0.560000  1
  C  C838  1  0.319000  0.019000  0.060000  1
  C  C839  1  0.681000  0.519000  0.440000  1
  C  C840  1  0.681000  0.981000  0.940000  1
  C  C841  1  0.515000  0.858000  0.194900  1
  C  C842  1  0.515000  0.642000  0.694900  1
  C  C843  1  0.485000  0.142000  0.805100  1
  C  C844  1  0.485000  0.358000  0.305100  1
  C  C845  1  0.563000  0.855000  0.180500  1
  C  C846  1  0.563000  0.645000  0.680500  1
  C  C847  1  0.437000  0.145000  0.819500  1
  C  C848  1  0.437000  0.355000  0.319500  1
  C  C849  1  0.506000  0.427000  0.456000  1
  C  C850  1  0.506000  0.073000  0.956000  1
  C  C851  1  0.494000  0.573000  0.544000  1
  C  C852  1  0.494000  0.927000  0.044000  1
  C  C853  1  0.463000  0.401000  0.415000  1
  C  C854  1  0.463000  0.099000  0.915000  1
  C  C855  1  0.537000  0.599000  0.585000  1
  C  C856  1  0.537000  0.901000  0.085000  1
  C  C857  1  0.778200  0.506100  0.041600  1
  C  C858  1  0.778200  0.993900  0.541600  1
  C  C859  1  0.221800  0.493900  0.958400  1
  C  C860  1  0.221800  0.006100  0.458400  1
  C  C861  1  0.818400  0.491800  0.074600  1
  C  C862  1  0.818400  0.008200  0.574600  1
  C  C863  1  0.181600  0.508200  0.925400  1
  C  C864  1  0.181600  0.991800  0.425400  1
  C  C865  1  0.783400  0.450400  0.092600  1
  C  C866  1  0.783400  0.049600  0.592600  1
  C  C867  1  0.216600  0.549600  0.907400  1
  C  C868  1  0.216600  0.950400  0.407400  1
  C  C869  1  0.720100  0.423900  0.082600  1
  C  C870  1  0.720100  0.076100  0.582600  1
  C  C871  1  0.279900  0.576100  0.917400  1
  C  C872  1  0.279900  0.923900  0.417400  1
  C  C873  1  0.686800  0.438900  0.053200  1
  C  C874  1  0.686800  0.061100  0.553200  1
  C  C875  1  0.313200  0.561100  0.946800  1
  C  C876  1  0.313200  0.938900  0.446800  1
  C  C877  1  0.711300  0.475600  0.033700  1
  C  C878  1  0.711300  0.024400  0.533700  1
  C  C879  1  0.288700  0.524400  0.966300  1
  C  C880  1  0.288700  0.975600  0.466300  1
  C  C881  1  0.809400  0.549600  0.017900  1
  C  C882  1  0.809400  0.950400  0.517900  1
  C  C883  1  0.190600  0.450400  0.982100  1
  C  C884  1  0.190600  0.049600  0.482100  1
  C  C885  1  0.790200  0.536800  0.982200  1
  C  C886  1  0.790200  0.963200  0.482200  1
  C  C887  1  0.209800  0.463200  0.017800  1
  C  C888  1  0.209800  0.036800  0.517800  1
  C  C889  1  0.817900  0.578600  0.961700  1
  C  C890  1  0.817900  0.921400  0.461700  1
  C  C891  1  0.182100  0.421400  0.038300  1
  C  C892  1  0.182100  0.078600  0.538300  1
  C  C893  1  0.864500  0.628900  0.975100  1
  C  C894  1  0.864500  0.871100  0.475100  1
  C  C895  1  0.135500  0.371100  0.024900  1
  C  C896  1  0.135500  0.128900  0.524900  1
  C  C897  1  0.886100  0.640000  0.009700  1
  C  C898  1  0.886100  0.860000  0.509700  1
  C  C899  1  0.113900  0.360000  0.990300  1
  C  C900  1  0.113900  0.140000  0.490300  1
  C  C901  1  0.856100  0.599700  0.030100  1
  C  C902  1  0.856100  0.900300  0.530100  1
  C  C903  1  0.143900  0.400300  0.969900  1
  C  C904  1  0.143900  0.099700  0.469900  1
  C  C905  1  0.800000  0.560900  0.923400  1
  C  C906  1  0.800000  0.939100  0.423400  1
  C  C907  1  0.200000  0.439100  0.076600  1
  C  C908  1  0.200000  0.060900  0.576600  1
  C  C909  1  0.802800  0.494600  0.912200  1
  C  C910  1  0.802800  0.005400  0.412200  1
  C  C911  1  0.197200  0.505400  0.087800  1
  C  C912  1  0.197200  0.994600  0.587800  1
  C  C913  1  0.795100  0.482200  0.877800  1
  C  C914  1  0.795100  0.017800  0.377800  1
  C  C915  1  0.204900  0.517800  0.122200  1
  C  C916  1  0.204900  0.982200  0.622200  1
  C  C917  1  0.784300  0.533700  0.855000  1
  C  C918  1  0.784300  0.966300  0.355000  1
  C  C919  1  0.215700  0.466300  0.145000  1
  C  C920  1  0.215700  0.033700  0.645000  1
  C  C921  1  0.777600  0.595000  0.866200  1
  C  C922  1  0.777600  0.905000  0.366200  1
  C  C923  1  0.222400  0.405000  0.133800  1
  C  C924  1  0.222400  0.095000  0.633800  1
  C  C925  1  0.791700  0.611300  0.898000  1
  C  C926  1  0.791700  0.888700  0.398000  1
  C  C927  1  0.208300  0.388700  0.102000  1
  C  C928  1  0.208300  0.111300  0.602000  1
  C  C929  1  0.081400  0.891600  0.463700  1
  C  C930  1  0.081400  0.608400  0.963700  1
  C  C931  1  0.918600  0.108400  0.536300  1
  C  C932  1  0.918600  0.391600  0.036300  1
  C  C933  1  0.079500  0.864300  0.433100  1
  C  C934  1  0.079500  0.635700  0.933100  1
  C  C935  1  0.920500  0.135700  0.566900  1
  C  C936  1  0.920500  0.364300  0.066900  1
  C  C937  1  0.028500  0.886000  0.403900  1
  C  C938  1  0.028500  0.614000  0.903900  1
  C  C939  1  0.971500  0.114000  0.596100  1
  C  C940  1  0.971500  0.386000  0.096100  1
  C  C941  1  0.982400  0.935800  0.406400  1
  C  C942  1  0.982400  0.564200  0.906400  1
  C  C943  1  0.017600  0.064200  0.593600  1
  C  C944  1  0.017600  0.435800  0.093600  1
  C  C945  1  0.988500  0.961300  0.435400  1
  C  C946  1  0.988500  0.538700  0.935400  1
  C  C947  1  0.011500  0.038700  0.564600  1
  C  C948  1  0.011500  0.461300  0.064600  1
  C  C949  1  0.035000  0.935400  0.464100  1
  C  C950  1  0.035000  0.564600  0.964100  1
  C  C951  1  0.965000  0.064600  0.535900  1
  C  C952  1  0.965000  0.435400  0.035900  1
  C  C953  1  0.131400  0.866300  0.494200  1
  C  C954  1  0.131400  0.633700  0.994200  1
  C  C955  1  0.868600  0.133700  0.505800  1
  C  C956  1  0.868600  0.366300  0.005800  1
  C  C957  1  0.106200  0.847200  0.524100  1
  C  C958  1  0.106200  0.652800  0.024100  1
  C  C959  1  0.893800  0.152800  0.475900  1
  C  C960  1  0.893800  0.347200  0.975900  1
  C  C961  1  0.150000  0.830000  0.554200  1
  C  C962  1  0.150000  0.670000  0.054200  1
  C  C963  1  0.850000  0.170000  0.445800  1
  C  C964  1  0.850000  0.330000  0.945800  1
  C  C965  1  0.218900  0.821700  0.552800  1
  C  C966  1  0.218900  0.678300  0.052800  1
  C  C967  1  0.781100  0.178300  0.447200  1
  C  C968  1  0.781100  0.321700  0.947200  1
  C  C969  1  0.246100  0.837400  0.523500  1
  C  C970  1  0.246100  0.662600  0.023500  1
  C  C971  1  0.753900  0.162600  0.476500  1
  C  C972  1  0.753900  0.337400  0.976500  1
  C  C973  1  0.195400  0.854400  0.495300  1
  C  C974  1  0.195400  0.645600  0.995300  1
  C  C975  1  0.804600  0.145600  0.504700  1
  C  C976  1  0.804600  0.354400  0.004700  1
  C  C977  1  0.113900  0.816700  0.582900  1
  C  C978  1  0.113900  0.683300  0.082900  1
  C  C979  1  0.886100  0.183300  0.417100  1
  C  C980  1  0.886100  0.316700  0.917100  1
  C  C981  1  0.160300  0.792800  0.611500  1
  C  C982  1  0.160300  0.707200  0.111500  1
  C  C983  1  0.839700  0.207200  0.388500  1
  C  C984  1  0.839700  0.292800  0.888500  1
  C  C985  1  0.139400  0.787300  0.641800  1
  C  C986  1  0.139400  0.712700  0.141800  1
  C  C987  1  0.860600  0.212700  0.358200  1
  C  C988  1  0.860600  0.287300  0.858200  1
  C  C989  1  0.072100  0.805800  0.643400  1
  C  C990  1  0.072100  0.694200  0.143400  1
  C  C991  1  0.927900  0.194200  0.356600  1
  C  C992  1  0.927900  0.305800  0.856600  1
  C  C993  1  0.025600  0.830000  0.614700  1
  C  C994  1  0.025600  0.670000  0.114700  1
  C  C995  1  0.974400  0.170000  0.385300  1
  C  C996  1  0.974400  0.330000  0.885300  1
  C  C997  1  0.046600  0.835200  0.584500  1
  C  C998  1  0.046600  0.664800  0.084500  1
  C  C999  1  0.953400  0.164800  0.415500  1
  C  C1000  1  0.953400  0.335200  0.915500  1
  C  C1001  1  0.535000  0.927400  0.464500  1
  C  C1002  1  0.535000  0.572600  0.964500  1
  C  C1003  1  0.465000  0.072600  0.535500  1
  C  C1004  1  0.465000  0.427400  0.035500  1
  C  C1005  1  0.338000  0.995000  0.777900  1
  C  C1006  1  0.338000  0.505000  0.277900  1
  C  C1007  1  0.662000  0.005000  0.222100  1
  C  C1008  1  0.662000  0.495000  0.722100  1
  C  C1009  1  0.528000  0.909000  0.431800  1
  C  C1010  1  0.528000  0.591000  0.931800  1
  C  C1011  1  0.472000  0.091000  0.568200  1
  C  C1012  1  0.472000  0.409000  0.068200  1
  C  C1013  1  0.672000  0.674000  0.357200  1
  C  C1014  1  0.672000  0.826000  0.857200  1
  C  C1015  1  0.328000  0.326000  0.642800  1
  C  C1016  1  0.328000  0.174000  0.142800  1
  C  C1017  1  0.454000  0.222000  0.022100  1
  C  C1018  1  0.454000  0.278000  0.522100  1
  C  C1019  1  0.546000  0.778000  0.977900  1
  C  C1020  1  0.546000  0.722000  0.477900  1
  C  C1021  1  0.904000  0.550000  0.394300  1
  C  C1022  1  0.904000  0.950000  0.894300  1
  C  C1023  1  0.096000  0.450000  0.605700  1
  C  C1024  1  0.096000  0.050000  0.105700  1
  C  C1025  1  0.968000  0.996200  0.200800  1
  C  C1026  1  0.968000  0.503800  0.700800  1
  C  C1027  1  0.032000  0.003800  0.799200  1
  C  C1028  1  0.032000  0.496200  0.299200  1
  C  C1029  1  0.324200  0.981300  0.752500  1
  C  C1030  1  0.324200  0.518700  0.252500  1
  C  C1031  1  0.675800  0.018700  0.247500  1
  C  C1032  1  0.675800  0.481300  0.747500  1
  C  C1033  1  0.174000  0.994000  0.816600  1
  C  C1034  1  0.174000  0.506000  0.316600  1
  C  C1035  1  0.826000  0.006000  0.183400  1
  C  C1036  1  0.826000  0.494000  0.683400  1
  C  C1037  1  0.537000  0.632700  0.162900  1
  C  C1038  1  0.537000  0.867300  0.662900  1
  C  C1039  1  0.463000  0.367300  0.837100  1
  C  C1040  1  0.463000  0.132700  0.337100  1
  C  C1041  1  0.687000  0.704000  0.635300  1
  C  C1042  1  0.687000  0.796000  0.135300  1
  C  C1043  1  0.313000  0.296000  0.364700  1
  C  C1044  1  0.313000  0.204000  0.864700  1
  C  C1045  1  0.858000  0.578000  0.347100  1
  C  C1046  1  0.858000  0.922000  0.847100  1
  C  C1047  1  0.142000  0.422000  0.652900  1
  C  C1048  1  0.142000  0.078000  0.152900  1
  C  C1049  1  0.688900  0.730000  0.360800  1
  C  C1050  1  0.688900  0.770000  0.860800  1
  C  C1051  1  0.311100  0.270000  0.639200  1
  C  C1052  1  0.311100  0.230000  0.139200  1
  C  C1053  1  0.608000  0.694000  0.353800  1
  C  C1054  1  0.608000  0.806000  0.853800  1
  C  C1055  1  0.392000  0.306000  0.646200  1
  C  C1056  1  0.392000  0.194000  0.146200  1
  C  C1057  1  0.626000  0.701000  0.175100  1
  C  C1058  1  0.626000  0.799000  0.675100  1
  C  C1059  1  0.374000  0.299000  0.824900  1
  C  C1060  1  0.374000  0.201000  0.324900  1
  C  C1061  1  0.477000  0.802000  0.441900  1
  C  C1062  1  0.477000  0.698000  0.941900  1
  C  C1063  1  0.523000  0.198000  0.558100  1
  C  C1064  1  0.523000  0.302000  0.058100  1
  C  C1065  1  0.473000  0.865000  0.450800  1
  C  C1066  1  0.473000  0.635000  0.950800  1
  C  C1067  1  0.527000  0.135000  0.549200  1
  C  C1068  1  0.527000  0.365000  0.049200  1
  C  C1069  1  0.598000  0.731000  0.124900  1
  C  C1070  1  0.598000  0.769000  0.624900  1
  C  C1071  1  0.402000  0.269000  0.875100  1
  C  C1072  1  0.402000  0.231000  0.375100  1
  C  C1073  1  0.937000  0.586000  0.349100  1
  C  C1074  1  0.937000  0.914000  0.849100  1
  C  C1075  1  0.063000  0.414000  0.650900  1
  C  C1076  1  0.063000  0.086000  0.150900  1
  C  C1077  1  0.384600  0.840200  0.315700  1
  C  C1078  1  0.384600  0.659800  0.815700  1
  C  C1079  1  0.615400  0.159800  0.684300  1
  C  C1080  1  0.615400  0.340200  0.184300  1
  C  C1081  1  0.577000  0.687000  0.147100  1
  C  C1082  1  0.577000  0.813000  0.647100  1
  C  C1083  1  0.423000  0.313000  0.852900  1
  C  C1084  1  0.423000  0.187000  0.352900  1
  C  C1085  1  0.469000  0.845000  0.409800  1
  C  C1086  1  0.469000  0.655000  0.909800  1
  C  C1087  1  0.531000  0.155000  0.590200  1
  C  C1088  1  0.531000  0.345000  0.090200  1
  C  C1089  1  0.528000  0.963000  0.473500  1
  C  C1090  1  0.528000  0.537000  0.973500  1
  C  C1091  1  0.472000  0.037000  0.526500  1
  C  C1092  1  0.472000  0.463000  0.026500  1
  C  C1093  1  0.487000  0.743000  0.409900  1
  C  C1094  1  0.487000  0.757000  0.909900  1
  C  C1095  1  0.513000  0.257000  0.590100  1
  C  C1096  1  0.513000  0.243000  0.090100  1
  C  C1097  1  0.165000  0.061000  0.813900  1
  C  C1098  1  0.165000  0.439000  0.313900  1
  C  C1099  1  0.835000  0.939000  0.186100  1
  C  C1100  1  0.835000  0.561000  0.686100  1
  C  C1101  1  0.283000  0.014000  0.805800  1
  C  C1102  1  0.283000  0.486000  0.305800  1
  C  C1103  1  0.717000  0.986000  0.194200  1
  C  C1104  1  0.717000  0.514000  0.694200  1
  C  C1105  1  0.893000  0.564000  0.376000  1
  C  C1106  1  0.893000  0.936000  0.876000  1
  C  C1107  1  0.107000  0.436000  0.624000  1
  C  C1108  1  0.107000  0.064000  0.124000  1
  C  C1109  1  0.419700  0.840700  0.276200  1
  C  C1110  1  0.419700  0.659300  0.776200  1
  C  C1111  1  0.580300  0.159300  0.723800  1
  C  C1112  1  0.580300  0.340700  0.223800  1
  C  C1113  1  0.408600  0.910400  0.292000  1
  C  C1114  1  0.408600  0.589600  0.792000  1
  C  C1115  1  0.591400  0.089600  0.708000  1
  C  C1116  1  0.591400  0.410400  0.208000  1
  C  C1117  1  0.372000  0.496000  0.493600  1
  C  C1118  1  0.372000  0.004000  0.993600  1
  C  C1119  1  0.628000  0.504000  0.506400  1
  C  C1120  1  0.628000  0.996000  0.006400  1
  C  C1121  1  0.485000  0.520000  0.264500  1
  C  C1122  1  0.485000  0.980000  0.764500  1
  C  C1123  1  0.515000  0.480000  0.735500  1
  C  C1124  1  0.515000  0.020000  0.235500  1
  C  C1125  1  0.485400  0.653000  0.252000  1
  C  C1126  1  0.485400  0.847000  0.752000  1
  C  C1127  1  0.514600  0.347000  0.748000  1
  C  C1128  1  0.514600  0.153000  0.248000  1
  C  C1129  1  0.442000  0.522000  0.272400  1
  C  C1130  1  0.442000  0.978000  0.772400  1
  C  C1131  1  0.558000  0.478000  0.727600  1
  C  C1132  1  0.558000  0.022000  0.227600  1
  C  C1133  1  0.493000  0.525000  0.373900  1
  C  C1134  1  0.493000  0.975000  0.873900  1
  C  C1135  1  0.507000  0.475000  0.626100  1
  C  C1136  1  0.507000  0.025000  0.126100  1
  C  C1137  1  0.449000  0.600000  0.422400  1
  C  C1138  1  0.449000  0.900000  0.922400  1
  C  C1139  1  0.551000  0.400000  0.577600  1
  C  C1140  1  0.551000  0.100000  0.077600  1
  C  C1141  1  0.031000  0.478400  0.524700  1
  C  C1142  1  0.031000  0.021600  0.024700  1
  C  C1143  1  0.969000  0.521600  0.475300  1
  C  C1144  1  0.969000  0.978400  0.975300  1
  C  C1145  1  0.774000  0.685000  0.701000  1
  C  C1146  1  0.774000  0.815000  0.201000  1
  C  C1147  1  0.226000  0.315000  0.299000  1
  C  C1148  1  0.226000  0.185000  0.799000  1
  C  C1149  1  0.344000  0.498000  0.368300  1
  C  C1150  1  0.344000  0.002000  0.868300  1
  C  C1151  1  0.656000  0.502000  0.631700  1
  C  C1152  1  0.656000  0.998000  0.131700  1
  C  C1153  1  0.372000  0.544000  0.462100  1
  C  C1154  1  0.372000  0.956000  0.962100  1
  C  C1155  1  0.628000  0.456000  0.537900  1
  C  C1156  1  0.628000  0.044000  0.037900  1
  C  C1157  1  0.565000  0.709400  0.232000  1
  C  C1158  1  0.565000  0.790600  0.732000  1
  C  C1159  1  0.435000  0.290600  0.768000  1
  C  C1160  1  0.435000  0.209400  0.268000  1
  C  C1161  1  0.302000  0.535000  0.432100  1
  C  C1162  1  0.302000  0.965000  0.932100  1
  C  C1163  1  0.698000  0.465000  0.567900  1
  C  C1164  1  0.698000  0.035000  0.067900  1
  C  C1165  1  0.912000  0.480000  0.516600  1
  C  C1166  1  0.912000  0.020000  0.016600  1
  C  C1167  1  0.088000  0.520000  0.483400  1
  C  C1168  1  0.088000  0.980000  0.983400  1
  C  C1169  1  0.954000  0.498400  0.502400  1
  C  C1170  1  0.954000  0.001600  0.002400  1
  C  C1171  1  0.046000  0.501600  0.497600  1
  C  C1172  1  0.046000  0.998400  0.997600  1
  C  C1173  1  0.777000  0.559200  0.361000  1
  C  C1174  1  0.777000  0.940800  0.861000  1
  C  C1175  1  0.223000  0.440800  0.639000  1
  C  C1176  1  0.223000  0.059200  0.139000  1
  C  C1177  1  0.360000  0.197000  0.958200  1
  C  C1178  1  0.360000  0.303000  0.458200  1
  C  C1179  1  0.640000  0.803000  0.041800  1
  C  C1180  1  0.640000  0.697000  0.541800  1
  C  C1181  1  0.556000  0.719000  0.274000  1
  C  C1182  1  0.556000  0.781000  0.774000  1
  C  C1183  1  0.444000  0.281000  0.726000  1
  C  C1184  1  0.444000  0.219000  0.226000  1
  C  C1185  1  0.674000  0.662400  0.329700  1
  C  C1186  1  0.674000  0.837600  0.829700  1
  C  C1187  1  0.326000  0.337600  0.670300  1
  C  C1188  1  0.326000  0.162400  0.170300  1
  C  C1189  1  0.778000  0.766000  0.712500  1
  C  C1190  1  0.778000  0.734000  0.212500  1
  C  C1191  1  0.222000  0.234000  0.287500  1
  C  C1192  1  0.222000  0.266000  0.787500  1
  C  C1193  1  0.041000  0.341000  0.682600  1
  C  C1194  1  0.041000  0.159000  0.182600  1
  C  C1195  1  0.959000  0.659000  0.317400  1
  C  C1196  1  0.959000  0.841000  0.817400  1
  C  C1197  1  0.511000  0.714000  0.250100  1
  C  C1198  1  0.511000  0.786000  0.750100  1
  C  C1199  1  0.489000  0.286000  0.749900  1
  C  C1200  1  0.489000  0.214000  0.249900  1
  C  C1201  1  0.311000  0.532200  0.473700  1
  C  C1202  1  0.311000  0.967800  0.973700  1
  C  C1203  1  0.689000  0.467800  0.526300  1
  C  C1204  1  0.689000  0.032200  0.026300  1
  C  C1205  1  0.228000  0.089000  0.961500  1
  C  C1206  1  0.228000  0.411000  0.461500  1
  C  C1207  1  0.772000  0.911000  0.038500  1
  C  C1208  1  0.772000  0.589000  0.538500  1
  C  C1209  1  0.426000  0.204000  0.002000  1
  C  C1210  1  0.426000  0.296000  0.502000  1
  C  C1211  1  0.574000  0.796000  0.998000  1
  C  C1212  1  0.574000  0.704000  0.498000  1
  C  C1213  1  0.572000  0.536000  0.320100  1
  C  C1214  1  0.572000  0.964000  0.820100  1
  C  C1215  1  0.428000  0.464000  0.679900  1
  C  C1216  1  0.428000  0.036000  0.179900  1
  N  N1217  1  0.591300  0.049900  0.379000  1
  N  N1218  1  0.591300  0.450100  0.879000  1
  N  N1219  1  0.408700  0.950100  0.621000  1
  N  N1220  1  0.408700  0.549900  0.121000  1
  N  N1221  1  0.627400  0.154700  0.370500  1
  N  N1222  1  0.627400  0.345300  0.870500  1
  N  N1223  1  0.372600  0.845300  0.629500  1
  N  N1224  1  0.372600  0.654700  0.129500  1
  N  N1225  1  0.632300  0.074200  0.329700  1
  N  N1226  1  0.632300  0.425800  0.829700  1
  N  N1227  1  0.367700  0.925800  0.670300  1
  N  N1228  1  0.367700  0.574200  0.170300  1
  N  N1229  1  0.605700  0.887700  0.300800  1
  N  N1230  1  0.605700  0.612300  0.800800  1
  N  N1231  1  0.394300  0.112300  0.699200  1
  N  N1232  1  0.394300  0.387700  0.199200  1
  N  N1233  1  0.560200  0.220800  0.453500  1
  N  N1234  1  0.560200  0.279200  0.953500  1
  N  N1235  1  0.439800  0.779200  0.546500  1
  N  N1236  1  0.439800  0.720800  0.046500  1
  N  N1237  1  0.702000  0.207200  0.267700  1
  N  N1238  1  0.702000  0.292800  0.767700  1
  N  N1239  1  0.298000  0.792800  0.732300  1
  N  N1240  1  0.298000  0.707200  0.232300  1
  N  N1241  1  0.997100  0.002900  0.287800  1
  N  N1242  1  0.997100  0.497100  0.787800  1
  N  N1243  1  0.002900  0.997100  0.712200  1
  N  N1244  1  0.002900  0.502900  0.212200  1
  N  N1245  1  0.878500  0.975100  0.277400  1
  N  N1246  1  0.878500  0.524900  0.777400  1
  N  N1247  1  0.121500  0.024900  0.722600  1
  N  N1248  1  0.121500  0.475100  0.222600  1
  N  N1249  1  0.967300  0.895300  0.297100  1
  N  N1250  1  0.967300  0.604700  0.797100  1
  N  N1251  1  0.032700  0.104700  0.702900  1
  N  N1252  1  0.032700  0.395300  0.202900  1
  N  N1253  1  0.203900  0.958900  0.305100  1
  N  N1254  1  0.203900  0.541100  0.805100  1
  N  N1255  1  0.796100  0.041100  0.694900  1
  N  N1256  1  0.796100  0.458900  0.194900  1
  N  N1257  1  0.814200  0.157000  0.242600  1
  N  N1258  1  0.814200  0.343000  0.742600  1
  N  N1259  1  0.185800  0.843000  0.757400  1
  N  N1260  1  0.185800  0.657000  0.257400  1
  N  N1261  1  0.722200  0.836300  0.273600  1
  N  N1262  1  0.722200  0.663700  0.773600  1
  N  N1263  1  0.277800  0.163700  0.726400  1
  N  N1264  1  0.277800  0.336300  0.226400  1
  N  N1265  1  0.956600  0.332900  0.491100  1
  N  N1266  1  0.956600  0.167100  0.991100  1
  N  N1267  1  0.043400  0.667100  0.508900  1
  N  N1268  1  0.043400  0.832900  0.008900  1
  N  N1269  1  0.894600  0.306900  0.532100  1
  N  N1270  1  0.894600  0.193100  0.032100  1
  N  N1271  1  0.105400  0.693100  0.467900  1
  N  N1272  1  0.105400  0.806900  0.967900  1
  N  N1273  1  0.831800  0.337800  0.476900  1
  N  N1274  1  0.831800  0.162200  0.976900  1
  N  N1275  1  0.168200  0.662200  0.523100  1
  N  N1276  1  0.168200  0.837800  0.023100  1
  N  N1277  1  0.967400  0.416600  0.397700  1
  N  N1278  1  0.967400  0.083400  0.897700  1
  N  N1279  1  0.032600  0.583400  0.602300  1
  N  N1280  1  0.032600  0.916600  0.102300  1
  N  N1281  1  0.146000  0.319200  0.562700  1
  N  N1282  1  0.146000  0.180800  0.062700  1
  N  N1283  1  0.854000  0.680800  0.437300  1
  N  N1284  1  0.854000  0.819200  0.937300  1
  N  N1285  1  0.641000  0.305900  0.499500  1
  N  N1286  1  0.641000  0.194100  0.999500  1
  N  N1287  1  0.359000  0.694100  0.500500  1
  N  N1288  1  0.359000  0.805900  0.000500  1
  N  N1289  1  0.226800  0.172400  0.390600  1
  N  N1290  1  0.226800  0.327600  0.890600  1
  N  N1291  1  0.773200  0.827600  0.609400  1
  N  N1292  1  0.773200  0.672400  0.109400  1
  N  N1293  1  0.212600  0.231500  0.437200  1
  N  N1294  1  0.212600  0.268500  0.937200  1
  N  N1295  1  0.787400  0.768500  0.562800  1
  N  N1296  1  0.787400  0.731500  0.062800  1
  N  N1297  1  0.303200  0.149700  0.444400  1
  N  N1298  1  0.303200  0.350300  0.944400  1
  N  N1299  1  0.696800  0.850300  0.555600  1
  N  N1300  1  0.696800  0.649700  0.055600  1
  N  N1301  1  0.323000  0.035100  0.342800  1
  N  N1302  1  0.323000  0.464900  0.842800  1
  N  N1303  1  0.677000  0.964900  0.657200  1
  N  N1304  1  0.677000  0.535100  0.157200  1
  N  N1305  1  0.078800  0.360500  0.374800  1
  N  N1306  1  0.078800  0.139500  0.874800  1
  N  N1307  1  0.921200  0.639500  0.625200  1
  N  N1308  1  0.921200  0.860500  0.125200  1
  N  N1309  1  0.268600  0.272800  0.538600  1
  N  N1310  1  0.268600  0.227200  0.038600  1
  N  N1311  1  0.731400  0.727200  0.461400  1
  N  N1312  1  0.731400  0.772800  0.961400  1
  N  N1313  1  0.151200  0.482200  0.387400  1
  N  N1314  1  0.151200  0.017800  0.887400  1
  N  N1315  1  0.848800  0.517800  0.612600  1
  N  N1316  1  0.848800  0.982200  0.112600  1
  N  N1317  1  0.043000  0.533100  0.410000  1
  N  N1318  1  0.043000  0.966900  0.910000  1
  N  N1319  1  0.957000  0.466900  0.590000  1
  N  N1320  1  0.957000  0.033100  0.090000  1
  N  N1321  1  0.725200  0.146900  0.175100  1
  N  N1322  1  0.725200  0.353100  0.675100  1
  N  N1323  1  0.274800  0.853100  0.824900  1
  N  N1324  1  0.274800  0.646900  0.324900  1
  N  N1325  1  0.613400  0.196600  0.198500  1
  N  N1326  1  0.613400  0.303400  0.698500  1
  N  N1327  1  0.386600  0.803400  0.801500  1
  N  N1328  1  0.386600  0.696600  0.301500  1
  N  N1329  1  0.348000  0.077000  0.279100  1
  N  N1330  1  0.348000  0.423000  0.779100  1
  N  N1331  1  0.652000  0.923000  0.720900  1
  N  N1332  1  0.652000  0.577000  0.220900  1
  N  N1333  1  0.225700  0.005100  0.243300  1
  N  N1334  1  0.225700  0.494900  0.743300  1
  N  N1335  1  0.774300  0.994900  0.756700  1
  N  N1336  1  0.774300  0.505100  0.256700  1
  N  N1337  1  0.206900  0.447100  0.567400  1
  N  N1338  1  0.206900  0.052900  0.067400  1
  N  N1339  1  0.793100  0.552900  0.432600  1
  N  N1340  1  0.793100  0.947100  0.932600  1
  N  N1341  1  0.322500  0.405000  0.548800  1
  N  N1342  1  0.322500  0.095000  0.048800  1
  N  N1343  1  0.677500  0.595000  0.451200  1
  N  N1344  1  0.677500  0.905000  0.951200  1
  N  N1345  1  0.517500  0.883700  0.232200  1
  N  N1346  1  0.517500  0.616300  0.732200  1
  N  N1347  1  0.482500  0.116300  0.767800  1
  N  N1348  1  0.482500  0.383700  0.267800  1
  N  N1349  1  0.624100  0.835200  0.205300  1
  N  N1350  1  0.624100  0.664800  0.705300  1
  N  N1351  1  0.375900  0.164800  0.794700  1
  N  N1352  1  0.375900  0.335200  0.294700  1
  N  N1353  1  0.548600  0.380000  0.456200  1
  N  N1354  1  0.548600  0.120000  0.956200  1
  N  N1355  1  0.451400  0.620000  0.543800  1
  N  N1356  1  0.451400  0.880000  0.043800  1
  N  N1357  1  0.470000  0.323000  0.425700  1
  N  N1358  1  0.470000  0.177000  0.925700  1
  N  N1359  1  0.530000  0.677000  0.574300  1
  N  N1360  1  0.530000  0.823000  0.074300  1
  N  N1361  1  0.874200  0.206200  0.145600  1
  N  N1362  1  0.874200  0.293800  0.645600  1
  N  N1363  1  0.125800  0.793800  0.854400  1
  N  N1364  1  0.125800  0.706200  0.354400  1
  N  N1365  1  0.644000  0.138200  0.891200  1
  N  N1366  1  0.644000  0.361800  0.391200  1
  N  N1367  1  0.356000  0.861800  0.108800  1
  N  N1368  1  0.356000  0.638200  0.608800  1
  N  N1369  1  0.123000  0.877700  0.222200  1
  N  N1370  1  0.123000  0.622300  0.722200  1
  N  N1371  1  0.877000  0.122300  0.777800  1
  N  N1372  1  0.877000  0.377700  0.277800  1
  N  N1373  1  0.867100  0.858800  0.733900  1
  N  N1374  1  0.867100  0.641200  0.233900  1
  N  N1375  1  0.132900  0.141200  0.266100  1
  N  N1376  1  0.132900  0.358800  0.766100  1
  O  O1377  1  0.911800  0.233300  0.132500  1
  O  O1378  1  0.911800  0.266700  0.632500  1
  O  O1379  1  0.088200  0.766700  0.867500  1
  O  O1380  1  0.088200  0.733300  0.367500  1
  O  O1381  1  0.893000  0.190800  0.173300  1
  O  O1382  1  0.893000  0.309200  0.673300  1
  O  O1383  1  0.107000  0.809200  0.826700  1
  O  O1384  1  0.107000  0.690800  0.326700  1
  O  O1385  1  0.808300  0.214100  0.131600  1
  O  O1386  1  0.808300  0.285900  0.631600  1
  O  O1387  1  0.191700  0.785900  0.868400  1
  O  O1388  1  0.191700  0.714100  0.368400  1
  O  O1389  1  0.606000  0.101000  0.891800  1
  O  O1390  1  0.606000  0.399000  0.391800  1
  O  O1391  1  0.394000  0.899000  0.108200  1
  O  O1392  1  0.394000  0.601000  0.608200  1
  O  O1393  1  0.666100  0.111600  0.866000  1
  O  O1394  1  0.666100  0.388400  0.366000  1
  O  O1395  1  0.333900  0.888400  0.134000  1
  O  O1396  1  0.333900  0.611600  0.634000  1
  O  O1397  1  0.665400  0.175100  0.909600  1
  O  O1398  1  0.665400  0.324900  0.409600  1
  O  O1399  1  0.334600  0.824900  0.090400  1
  O  O1400  1  0.334600  0.675100  0.590400  1
  O  O1401  1  0.100200  0.930900  0.211800  1
  O  O1402  1  0.100200  0.569100  0.711800  1
  O  O1403  1  0.899800  0.069100  0.788200  1
  O  O1404  1  0.899800  0.430900  0.288200  1
  O  O1405  1  0.065300  0.849900  0.227800  1
  O  O1406  1  0.065300  0.650100  0.727800  1
  O  O1407  1  0.934700  0.150100  0.772200  1
  O  O1408  1  0.934700  0.349900  0.272200  1
  O  O1409  1  0.173700  0.861300  0.234800  1
  O  O1410  1  0.173700  0.638700  0.734800  1
  O  O1411  1  0.826300  0.138700  0.765200  1
  O  O1412  1  0.826300  0.361300  0.265200  1
  O  O1413  1  0.832000  0.864100  0.707200  1
  O  O1414  1  0.832000  0.635900  0.207200  1
  O  O1415  1  0.168000  0.135900  0.292800  1
  O  O1416  1  0.168000  0.364100  0.792800  1
  O  O1417  1  0.879800  0.793600  0.735000  1
  O  O1418  1  0.879800  0.706400  0.235000  1
  O  O1419  1  0.120200  0.206400  0.265000  1
  O  O1420  1  0.120200  0.293600  0.765000  1
  O  O1421  1  0.882800  0.890200  0.758400  1
  O  O1422  1  0.882800  0.609800  0.258400  1
  O  O1423  1  0.117200  0.109800  0.241600  1
  O  O1424  1  0.117200  0.390200  0.741600  1
