# generated using pymatgen
data_H132Pd6C175(N19O3)2
_symmetry_space_group_name_H-M   'P 1'
_cell_length_a   20.18200000
_cell_length_b   25.44100000
_cell_length_c   36.50800000
_cell_angle_alpha   90.00000000
_cell_angle_beta   90.00000000
_cell_angle_gamma   100.07900000
_symmetry_Int_Tables_number   1
_chemical_formula_structural   H132Pd6C175(N19O3)2
_chemical_formula_sum   'H528 Pd24 C700 N152 O24'
_cell_volume   18455.75722321
_cell_formula_units_Z   4
loop_
 _symmetry_equiv_pos_site_id
 _symmetry_equiv_pos_as_xyz
  1  'x, y, z'
loop_
 _atom_site_type_symbol
 _atom_site_label
 _atom_site_symmetry_multiplicity
 _atom_site_fract_x
 _atom_site_fract_y
 _atom_site_fract_z
 _atom_site_occupancy
  H  H1  1  0.012100  0.729200  0.825400  1
  H  H2  1  0.012100  0.229200  0.674600  1
  H  H3  1  0.987900  0.270800  0.174600  1
  H  H4  1  0.987900  0.770800  0.325400  1
  H  H5  1  0.834800  0.651200  0.794500  1
  H  H6  1  0.834800  0.151200  0.705500  1
  H  H7  1  0.165200  0.348800  0.205500  1
  H  H8  1  0.165200  0.848800  0.294500  1
  H  H9  1  0.878400  0.572900  0.788000  1
  H  H10  1  0.878400  0.072900  0.712000  1
  H  H11  1  0.121600  0.427100  0.212000  1
  H  H12  1  0.121600  0.927100  0.288000  1
  H  H13  1  0.995300  0.574800  0.801900  1
  H  H14  1  0.995300  0.074800  0.698100  1
  H  H15  1  0.004700  0.425200  0.198100  1
  H  H16  1  0.004700  0.925200  0.301900  1
  H  H17  1  0.313800  0.732100  0.855200  1
  H  H18  1  0.313800  0.232100  0.644800  1
  H  H19  1  0.686200  0.267900  0.144800  1
  H  H20  1  0.686200  0.767900  0.355200  1
  H  H21  1  0.320000  0.880000  0.893100  1
  H  H22  1  0.320000  0.380000  0.606900  1
  H  H23  1  0.680000  0.120000  0.106900  1
  H  H24  1  0.680000  0.620000  0.393100  1
  H  H25  1  0.202600  0.870200  0.888200  1
  H  H26  1  0.202600  0.370200  0.611800  1
  H  H27  1  0.797400  0.129800  0.111800  1
  H  H28  1  0.797400  0.629800  0.388200  1
  H  H29  1  0.143300  0.795300  0.860600  1
  H  H30  1  0.143300  0.295300  0.639400  1
  H  H31  1  0.856700  0.204700  0.139400  1
  H  H32  1  0.856700  0.704700  0.360600  1
  H  H33  1  0.311000  0.620800  0.821000  1
  H  H34  1  0.311000  0.120800  0.679000  1
  H  H35  1  0.689000  0.379200  0.179000  1
  H  H36  1  0.689000  0.879200  0.321000  1
  H  H37  1  0.310300  0.474400  0.788000  1
  H  H38  1  0.310300  0.974400  0.712000  1
  H  H39  1  0.689700  0.525600  0.212000  1
  H  H40  1  0.689700  0.025600  0.288000  1
  H  H41  1  0.194800  0.454000  0.787500  1
  H  H42  1  0.194800  0.954000  0.712500  1
  H  H43  1  0.805200  0.546000  0.212500  1
  H  H44  1  0.805200  0.046000  0.287500  1
  H  H45  1  0.134100  0.522900  0.795600  1
  H  H46  1  0.134100  0.022900  0.704400  1
  H  H47  1  0.865900  0.477100  0.204400  1
  H  H48  1  0.865900  0.977100  0.295600  1
  H  H49  1  0.889300  0.829100  0.084100  1
  H  H50  1  0.889300  0.329100  0.415900  1
  H  H51  1  0.110700  0.170900  0.915900  1
  H  H52  1  0.110700  0.670900  0.584100  1
  H  H53  1  0.727200  0.771800  0.140900  1
  H  H54  1  0.727200  0.271800  0.359100  1
  H  H55  1  0.272800  0.228200  0.859100  1
  H  H56  1  0.272800  0.728200  0.640900  1
  H  H57  1  0.668500  0.743600  0.089700  1
  H  H58  1  0.668500  0.243600  0.410300  1
  H  H59  1  0.331500  0.256400  0.910300  1
  H  H60  1  0.331500  0.756400  0.589700  1
  H  H61  1  0.725300  0.755900  0.030900  1
  H  H62  1  0.725300  0.255900  0.469100  1
  H  H63  1  0.274700  0.244100  0.969100  1
  H  H64  1  0.274700  0.744100  0.530900  1
  H  H65  1  0.018700  0.884900  0.041100  1
  H  H66  1  0.018700  0.384900  0.458900  1
  H  H67  1  0.981300  0.115100  0.958900  1
  H  H68  1  0.981300  0.615100  0.541100  1
  H  H69  1  0.176400  0.953300  0.989000  1
  H  H70  1  0.176400  0.453300  0.511000  1
  H  H71  1  0.823600  0.046700  0.011000  1
  H  H72  1  0.823600  0.546700  0.489000  1
  H  H73  1  0.138300  0.916300  0.937400  1
  H  H74  1  0.138300  0.416300  0.562600  1
  H  H75  1  0.861700  0.083700  0.062600  1
  H  H76  1  0.861700  0.583700  0.437400  1
  H  H77  1  0.035400  0.858700  0.932900  1
  H  H78  1  0.035400  0.358700  0.567100  1
  H  H79  1  0.964600  0.141300  0.067100  1
  H  H80  1  0.964600  0.641300  0.432900  1
  H  H81  1  0.904400  0.791200  0.890000  1
  H  H82  1  0.904400  0.291200  0.610000  1
  H  H83  1  0.095600  0.208800  0.110000  1
  H  H84  1  0.095600  0.708800  0.390000  1
  H  H85  1  0.758700  0.704000  0.835200  1
  H  H86  1  0.758700  0.204000  0.664800  1
  H  H87  1  0.241300  0.296000  0.164800  1
  H  H88  1  0.241300  0.796000  0.335200  1
  H  H89  1  0.698100  0.684000  0.889600  1
  H  H90  1  0.698100  0.184000  0.610400  1
  H  H91  1  0.301900  0.316000  0.110400  1
  H  H92  1  0.301900  0.816000  0.389600  1
  H  H93  1  0.738300  0.724000  0.943900  1
  H  H94  1  0.738300  0.224000  0.556100  1
  H  H95  1  0.261700  0.276000  0.056100  1
  H  H96  1  0.261700  0.776000  0.443900  1
  H  H97  1  0.995400  0.793500  0.143900  1
  H  H98  1  0.995400  0.293500  0.356100  1
  H  H99  1  0.004600  0.206500  0.856100  1
  H  H100  1  0.004600  0.706500  0.643900  1
  H  H101  1  0.823000  0.709300  0.183700  1
  H  H102  1  0.823000  0.209300  0.316300  1
  H  H103  1  0.177000  0.290700  0.816300  1
  H  H104  1  0.177000  0.790700  0.683700  1
  H  H105  1  0.876800  0.630500  0.185400  1
  H  H106  1  0.876800  0.130500  0.314600  1
  H  H107  1  0.123200  0.369500  0.814600  1
  H  H108  1  0.123200  0.869500  0.685400  1
  H  H109  1  0.987300  0.641900  0.169700  1
  H  H110  1  0.987300  0.141900  0.330300  1
  H  H111  1  0.012700  0.358100  0.830300  1
  H  H112  1  0.012700  0.858100  0.669700  1
  H  H113  1  0.300200  0.696800  0.148000  1
  H  H114  1  0.300200  0.196800  0.352000  1
  H  H115  1  0.699800  0.303200  0.852000  1
  H  H116  1  0.699800  0.803200  0.648000  1
  H  H117  1  0.315600  0.557000  0.186800  1
  H  H118  1  0.315600  0.057000  0.313200  1
  H  H119  1  0.684400  0.443000  0.813200  1
  H  H120  1  0.684400  0.943000  0.686800  1
  H  H121  1  0.199500  0.535500  0.197600  1
  H  H122  1  0.199500  0.035500  0.302400  1
  H  H123  1  0.800500  0.464500  0.802400  1
  H  H124  1  0.800500  0.964500  0.697600  1
  H  H125  1  0.133000  0.600800  0.180100  1
  H  H126  1  0.133000  0.100800  0.319900  1
  H  H127  1  0.867000  0.399200  0.819900  1
  H  H128  1  0.867000  0.899200  0.680100  1
  H  H129  1  0.114600  0.853800  0.098900  1
  H  H130  1  0.114600  0.353800  0.401100  1
  H  H131  1  0.885400  0.146200  0.901100  1
  H  H132  1  0.885400  0.646200  0.598900  1
  H  H133  1  0.273200  0.948200  0.061500  1
  H  H134  1  0.273200  0.448200  0.438500  1
  H  H135  1  0.726800  0.051800  0.938500  1
  H  H136  1  0.726800  0.551800  0.561500  1
  H  H137  1  0.346800  0.891400  0.079700  1
  H  H138  1  0.346800  0.391400  0.420300  1
  H  H139  1  0.653200  0.108600  0.920300  1
  H  H140  1  0.653200  0.608600  0.579700  1
  H  H141  1  0.293500  0.811500  0.111400  1
  H  H142  1  0.293500  0.311500  0.388600  1
  H  H143  1  0.706500  0.188500  0.888600  1
  H  H144  1  0.706500  0.688500  0.611400  1
  H  H145  1  0.426700  0.712900  0.915400  1
  H  H146  1  0.426700  0.212900  0.584600  1
  H  H147  1  0.573300  0.287100  0.084600  1
  H  H148  1  0.573300  0.787100  0.415400  1
  H  H149  1  0.431400  0.858600  0.953700  1
  H  H150  1  0.431400  0.358600  0.546300  1
  H  H151  1  0.568600  0.141400  0.046300  1
  H  H152  1  0.568600  0.641400  0.453700  1
  H  H153  1  0.436900  0.826200  0.014600  1
  H  H154  1  0.436900  0.326200  0.485400  1
  H  H155  1  0.563100  0.173800  0.985400  1
  H  H156  1  0.563100  0.673800  0.514600  1
  H  H157  1  0.433500  0.737000  0.023700  1
  H  H158  1  0.433500  0.237000  0.476300  1
  H  H159  1  0.566500  0.263000  0.976300  1
  H  H160  1  0.566500  0.763000  0.523700  1
  H  H161  1  0.418000  0.640500  0.077700  1
  H  H162  1  0.418000  0.140500  0.422300  1
  H  H163  1  0.582000  0.359500  0.922300  1
  H  H164  1  0.582000  0.859500  0.577700  1
  H  H165  1  0.412100  0.527400  0.150500  1
  H  H166  1  0.412100  0.027400  0.349500  1
  H  H167  1  0.587900  0.472600  0.849500  1
  H  H168  1  0.587900  0.972600  0.650500  1
  H  H169  1  0.402800  0.462700  0.104500  1
  H  H170  1  0.402800  0.962700  0.395500  1
  H  H171  1  0.597200  0.537300  0.895500  1
  H  H172  1  0.597200  0.037300  0.604500  1
  H  H173  1  0.406500  0.490700  0.043300  1
  H  H174  1  0.406500  0.990700  0.456700  1
  H  H175  1  0.593500  0.509300  0.956700  1
  H  H176  1  0.593500  0.009300  0.543300  1
  H  H177  1  0.429600  0.599200  0.885600  1
  H  H178  1  0.429600  0.099200  0.614400  1
  H  H179  1  0.570400  0.400800  0.114400  1
  H  H180  1  0.570400  0.900800  0.385600  1
  H  H181  1  0.422200  0.457900  0.843900  1
  H  H182  1  0.422200  0.957900  0.656100  1
  H  H183  1  0.577800  0.542100  0.156100  1
  H  H184  1  0.577800  0.042100  0.343900  1
  H  H185  1  0.409000  0.417800  0.900100  1
  H  H186  1  0.409000  0.917800  0.599900  1
  H  H187  1  0.591000  0.582200  0.099900  1
  H  H188  1  0.591000  0.082200  0.400100  1
  H  H189  1  0.411300  0.472400  0.953200  1
  H  H190  1  0.411300  0.972400  0.546800  1
  H  H191  1  0.588700  0.527600  0.046800  1
  H  H192  1  0.588700  0.027600  0.453200  1
  H  H193  1  0.813000  0.836000  0.814000  1
  H  H194  1  0.813000  0.336000  0.686000  1
  H  H195  1  0.187000  0.164000  0.186000  1
  H  H196  1  0.187000  0.664000  0.314000  1
  H  H197  1  0.883000  0.863000  0.822000  1
  H  H198  1  0.883000  0.363000  0.678000  1
  H  H199  1  0.117000  0.137000  0.178000  1
  H  H200  1  0.117000  0.637000  0.322000  1
  H  H201  1  0.973000  0.781000  0.762000  1
  H  H202  1  0.973000  0.281000  0.738000  1
  H  H203  1  0.027000  0.219000  0.238000  1
  H  H204  1  0.027000  0.719000  0.262000  1
  H  H205  1  0.907000  0.767000  0.744000  1
  H  H206  1  0.907000  0.267000  0.756000  1
  H  H207  1  0.093000  0.233000  0.256000  1
  H  H208  1  0.093000  0.733000  0.244000  1
  H  H209  1  0.829000  0.837000  0.753000  1
  H  H210  1  0.829000  0.337000  0.747000  1
  H  H211  1  0.171000  0.163000  0.247000  1
  H  H212  1  0.171000  0.663000  0.253000  1
  H  H213  1  0.867000  0.895000  0.766000  1
  H  H214  1  0.867000  0.395000  0.734000  1
  H  H215  1  0.133000  0.105000  0.234000  1
  H  H216  1  0.133000  0.605000  0.266000  1
  H  H217  1  0.969000  0.866000  0.767000  1
  H  H218  1  0.969000  0.366000  0.733000  1
  H  H219  1  0.031000  0.134000  0.233000  1
  H  H220  1  0.031000  0.634000  0.267000  1
  H  H221  1  0.934000  0.851000  0.728000  1
  H  H222  1  0.934000  0.351000  0.772000  1
  H  H223  1  0.066000  0.149000  0.272000  1
  H  H224  1  0.066000  0.649000  0.228000  1
  H  H225  1  0.167000  0.985000  0.133000  1
  H  H226  1  0.167000  0.485000  0.367000  1
  H  H227  1  0.833000  0.015000  0.867000  1
  H  H228  1  0.833000  0.515000  0.633000  1
  H  H229  1  0.207000  0.026000  0.108000  1
  H  H230  1  0.207000  0.526000  0.392000  1
  H  H231  1  0.793000  0.974000  0.892000  1
  H  H232  1  0.793000  0.474000  0.608000  1
  H  H233  1  0.082000  0.033000  0.038000  1
  H  H234  1  0.082000  0.533000  0.462000  1
  H  H235  1  0.918000  0.967000  0.962000  1
  H  H236  1  0.918000  0.467000  0.538000  1
  H  H237  1  0.030000  0.001000  0.062000  1
  H  H238  1  0.030000  0.501000  0.438000  1
  H  H239  1  0.970000  0.999000  0.938000  1
  H  H240  1  0.970000  0.499000  0.562000  1
  H  H241  1  0.144000  0.071000  0.133000  1
  H  H242  1  0.144000  0.571000  0.367000  1
  H  H243  1  0.856000  0.929000  0.867000  1
  H  H244  1  0.856000  0.429000  0.633000  1
  H  H245  1  0.084000  0.021000  0.135000  1
  H  H246  1  0.084000  0.521000  0.365000  1
  H  H247  1  0.916000  0.979000  0.865000  1
  H  H248  1  0.916000  0.479000  0.635000  1
  H  H249  1  0.120000  0.089000  0.079000  1
  H  H250  1  0.120000  0.589000  0.421000  1
  H  H251  1  0.880000  0.911000  0.921000  1
  H  H252  1  0.880000  0.411000  0.579000  1
  H  H253  1  0.048000  0.070000  0.097000  1
  H  H254  1  0.048000  0.570000  0.403000  1
  H  H255  1  0.952000  0.930000  0.903000  1
  H  H256  1  0.952000  0.430000  0.597000  1
  H  H257  1  0.842000  0.916000  0.149000  1
  H  H258  1  0.842000  0.416000  0.351000  1
  H  H259  1  0.158000  0.084000  0.851000  1
  H  H260  1  0.158000  0.584000  0.649000  1
  H  H261  1  0.779000  0.885000  0.165000  1
  H  H262  1  0.779000  0.385000  0.335000  1
  H  H263  1  0.221000  0.115000  0.835000  1
  H  H264  1  0.221000  0.615000  0.665000  1
  H  H265  1  0.902000  0.831000  0.230000  1
  H  H266  1  0.902000  0.331000  0.270000  1
  H  H267  1  0.098000  0.169000  0.770000  1
  H  H268  1  0.098000  0.669000  0.730000  1
  H  H269  1  0.961000  0.855000  0.207000  1
  H  H270  1  0.961000  0.355000  0.293000  1
  H  H271  1  0.039000  0.145000  0.793000  1
  H  H272  1  0.039000  0.645000  0.707000  1
  H  H273  1  0.849000  0.956000  0.200000  1
  H  H274  1  0.849000  0.456000  0.300000  1
  H  H275  1  0.151000  0.044000  0.800000  1
  H  H276  1  0.151000  0.544000  0.700000  1
  H  H277  1  0.807000  0.905000  0.220000  1
  H  H278  1  0.807000  0.405000  0.280000  1
  H  H279  1  0.193000  0.095000  0.780000  1
  H  H280  1  0.193000  0.595000  0.720000  1
  H  H281  1  0.899000  0.910000  0.244000  1
  H  H282  1  0.899000  0.410000  0.256000  1
  H  H283  1  0.101000  0.090000  0.756000  1
  H  H284  1  0.101000  0.590000  0.744000  1
  H  H285  1  0.939000  0.932000  0.208000  1
  H  H286  1  0.939000  0.432000  0.292000  1
  H  H287  1  0.061000  0.068000  0.792000  1
  H  H288  1  0.061000  0.568000  0.708000  1
  H  H289  1  0.412000  0.730000  0.188000  1
  H  H290  1  0.412000  0.230000  0.312000  1
  H  H291  1  0.588000  0.270000  0.812000  1
  H  H292  1  0.588000  0.770000  0.688000  1
  H  H293  1  0.408000  0.689000  0.218000  1
  H  H294  1  0.408000  0.189000  0.282000  1
  H  H295  1  0.592000  0.311000  0.782000  1
  H  H296  1  0.592000  0.811000  0.718000  1
  H  H297  1  0.543000  0.642000  0.161000  1
  H  H298  1  0.543000  0.142000  0.339000  1
  H  H299  1  0.457000  0.358000  0.839000  1
  H  H300  1  0.457000  0.858000  0.661000  1
  H  H301  1  0.530000  0.669000  0.126000  1
  H  H302  1  0.530000  0.169000  0.374000  1
  H  H303  1  0.470000  0.331000  0.874000  1
  H  H304  1  0.470000  0.831000  0.626000  1
  H  H305  1  0.513000  0.755000  0.215000  1
  H  H306  1  0.513000  0.255000  0.285000  1
  H  H307  1  0.487000  0.245000  0.785000  1
  H  H308  1  0.487000  0.745000  0.715000  1
  H  H309  1  0.521000  0.693000  0.221000  1
  H  H310  1  0.521000  0.193000  0.279000  1
  H  H311  1  0.479000  0.307000  0.779000  1
  H  H312  1  0.479000  0.807000  0.721000  1
  H  H313  1  0.527000  0.747000  0.152000  1
  H  H314  1  0.527000  0.247000  0.348000  1
  H  H315  1  0.473000  0.253000  0.848000  1
  H  H316  1  0.473000  0.753000  0.652000  1
  H  H317  1  0.589000  0.727000  0.171000  1
  H  H318  1  0.589000  0.227000  0.329000  1
  H  H319  1  0.411000  0.273000  0.829000  1
  H  H320  1  0.411000  0.773000  0.671000  1
  H  H321  1  0.551000  0.854000  0.891000  1
  H  H322  1  0.551000  0.354000  0.609000  1
  H  H323  1  0.449000  0.146000  0.109000  1
  H  H324  1  0.449000  0.646000  0.391000  1
  H  H325  1  0.549000  0.801000  0.874000  1
  H  H326  1  0.549000  0.301000  0.626000  1
  H  H327  1  0.451000  0.199000  0.126000  1
  H  H328  1  0.451000  0.699000  0.374000  1
  H  H329  1  0.411000  0.823000  0.809000  1
  H  H330  1  0.411000  0.323000  0.691000  1
  H  H331  1  0.589000  0.177000  0.191000  1
  H  H332  1  0.589000  0.677000  0.309000  1
  H  H333  1  0.422000  0.879000  0.823000  1
  H  H334  1  0.422000  0.379000  0.677000  1
  H  H335  1  0.578000  0.121000  0.177000  1
  H  H336  1  0.578000  0.621000  0.323000  1
  H  H337  1  0.560000  0.900000  0.840000  1
  H  H338  1  0.560000  0.400000  0.660000  1
  H  H339  1  0.440000  0.100000  0.160000  1
  H  H340  1  0.440000  0.600000  0.340000  1
  H  H341  1  0.580000  0.840000  0.830000  1
  H  H342  1  0.580000  0.340000  0.670000  1
  H  H343  1  0.420000  0.160000  0.170000  1
  H  H344  1  0.420000  0.660000  0.330000  1
  H  H345  1  0.510000  0.820000  0.800000  1
  H  H346  1  0.510000  0.320000  0.700000  1
  H  H347  1  0.490000  0.180000  0.200000  1
  H  H348  1  0.490000  0.680000  0.300000  1
  H  H349  1  0.510000  0.880000  0.800000  1
  H  H350  1  0.510000  0.380000  0.700000  1
  H  H351  1  0.490000  0.120000  0.200000  1
  H  H352  1  0.490000  0.620000  0.300000  1
  H  H353  1  0.539000  0.581000  0.825000  1
  H  H354  1  0.539000  0.081000  0.675000  1
  H  H355  1  0.461000  0.419000  0.175000  1
  H  H356  1  0.461000  0.919000  0.325000  1
  H  H357  1  0.532000  0.539000  0.795000  1
  H  H358  1  0.532000  0.039000  0.705000  1
  H  H359  1  0.468000  0.461000  0.205000  1
  H  H360  1  0.468000  0.961000  0.295000  1
  H  H361  1  0.403000  0.569000  0.739000  1
  H  H362  1  0.403000  0.069000  0.761000  1
  H  H363  1  0.597000  0.431000  0.261000  1
  H  H364  1  0.597000  0.931000  0.239000  1
  H  H365  1  0.410000  0.624000  0.755000  1
  H  H366  1  0.410000  0.124000  0.745000  1
  H  H367  1  0.590000  0.376000  0.245000  1
  H  H368  1  0.590000  0.876000  0.255000  1
  H  H369  1  0.590000  0.600000  0.773000  1
  H  H370  1  0.590000  0.100000  0.727000  1
  H  H371  1  0.410000  0.400000  0.227000  1
  H  H372  1  0.410000  0.900000  0.273000  1
  H  H373  1  0.550000  0.640000  0.791000  1
  H  H374  1  0.550000  0.140000  0.709000  1
  H  H375  1  0.450000  0.360000  0.209000  1
  H  H376  1  0.450000  0.860000  0.291000  1
  H  H377  1  0.510000  0.640000  0.732000  1
  H  H378  1  0.510000  0.140000  0.768000  1
  H  H379  1  0.490000  0.360000  0.268000  1
  H  H380  1  0.490000  0.860000  0.232000  1
  H  H381  1  0.510000  0.570000  0.729000  1
  H  H382  1  0.510000  0.070000  0.771000  1
  H  H383  1  0.490000  0.430000  0.271000  1
  H  H384  1  0.490000  0.930000  0.229000  1
  H  H385  1  0.213000  0.348500  0.932500  1
  H  H386  1  0.213000  0.848500  0.567500  1
  H  H387  1  0.787000  0.651500  0.067500  1
  H  H388  1  0.787000  0.151500  0.432500  1
  H  H389  1  0.107400  0.321000  0.904200  1
  H  H390  1  0.107400  0.821000  0.595800  1
  H  H391  1  0.892600  0.679000  0.095800  1
  H  H392  1  0.892600  0.179000  0.404200  1
  H  H393  1  0.012800  0.287500  0.942700  1
  H  H394  1  0.012800  0.787500  0.557300  1
  H  H395  1  0.987200  0.712500  0.057300  1
  H  H396  1  0.987200  0.212500  0.442700  1
  H  H397  1  0.024800  0.305700  0.002800  1
  H  H398  1  0.024800  0.805700  0.497200  1
  H  H399  1  0.975200  0.694300  0.997200  1
  H  H400  1  0.975200  0.194300  0.502800  1
  H  H401  1  0.118300  0.334100  0.032700  1
  H  H402  1  0.118300  0.834100  0.467300  1
  H  H403  1  0.881700  0.665900  0.967300  1
  H  H404  1  0.881700  0.165900  0.532700  1
  H  H405  1  0.282700  0.357900  0.993100  1
  H  H406  1  0.282700  0.857900  0.506900  1
  H  H407  1  0.717300  0.642100  0.006900  1
  H  H408  1  0.717300  0.142100  0.493100  1
  H  H409  1  0.308000  0.401600  0.038100  1
  H  H410  1  0.308000  0.901600  0.461900  1
  H  H411  1  0.692000  0.598400  0.961900  1
  H  H412  1  0.692000  0.098400  0.538100  1
  H  H413  1  0.277400  0.416200  0.102300  1
  H  H414  1  0.277400  0.916200  0.397700  1
  H  H415  1  0.722600  0.583800  0.897700  1
  H  H416  1  0.722600  0.083800  0.602300  1
  H  H417  1  0.205200  0.452200  0.145200  1
  H  H418  1  0.205200  0.952200  0.354800  1
  H  H419  1  0.794800  0.547800  0.854800  1
  H  H420  1  0.794800  0.047800  0.645200  1
  H  H421  1  0.115400  0.484100  0.123300  1
  H  H422  1  0.115400  0.984100  0.376700  1
  H  H423  1  0.884600  0.515900  0.876700  1
  H  H424  1  0.884600  0.015900  0.623300  1
  H  H425  1  0.089600  0.482800  0.063400  1
  H  H426  1  0.089600  0.982800  0.436600  1
  H  H427  1  0.910400  0.517200  0.936600  1
  H  H428  1  0.910400  0.017200  0.563400  1
  H  H429  1  0.150400  0.443700  0.022800  1
  H  H430  1  0.150400  0.943700  0.477200  1
  H  H431  1  0.849600  0.556300  0.977200  1
  H  H432  1  0.849600  0.056300  0.522800  1
  H  H433  1  0.888400  0.895300  0.506100  1
  H  H434  1  0.888400  0.395300  0.993900  1
  H  H435  1  0.111600  0.104700  0.493900  1
  H  H436  1  0.111600  0.604700  0.006100  1
  H  H437  1  0.006200  0.923800  0.494300  1
  H  H438  1  0.006200  0.423800  0.005700  1
  H  H439  1  0.993800  0.076200  0.505700  1
  H  H440  1  0.993800  0.576200  0.994300  1
  H  H441  1  0.078000  0.959900  0.538900  1
  H  H442  1  0.078000  0.459900  0.961100  1
  H  H443  1  0.922000  0.040100  0.461100  1
  H  H444  1  0.922000  0.540100  0.038900  1
  H  H445  1  0.041500  0.946800  0.602200  1
  H  H446  1  0.041500  0.446800  0.897800  1
  H  H447  1  0.958500  0.053200  0.397800  1
  H  H448  1  0.958500  0.553200  0.102200  1
  H  H449  1  0.931200  0.913700  0.613100  1
  H  H450  1  0.931200  0.413700  0.886900  1
  H  H451  1  0.068800  0.086300  0.386900  1
  H  H452  1  0.068800  0.586300  0.113100  1
  H  H453  1  0.813400  0.913000  0.585200  1
  H  H454  1  0.813400  0.413000  0.914800  1
  H  H455  1  0.186600  0.087000  0.414800  1
  H  H456  1  0.186600  0.587000  0.085200  1
  H  H457  1  0.750600  0.842800  0.574800  1
  H  H458  1  0.750600  0.342800  0.925200  1
  H  H459  1  0.249400  0.157200  0.425200  1
  H  H460  1  0.249400  0.657200  0.074800  1
  H  H461  1  0.701200  0.767100  0.536100  1
  H  H462  1  0.701200  0.267100  0.963900  1
  H  H463  1  0.298800  0.232900  0.463900  1
  H  H464  1  0.298800  0.732900  0.036100  1
  H  H465  1  0.713900  0.686400  0.505300  1
  H  H466  1  0.713900  0.186400  0.994700  1
  H  H467  1  0.286100  0.313600  0.494700  1
  H  H468  1  0.286100  0.813600  0.005300  1
  H  H469  1  0.828200  0.669200  0.496200  1
  H  H470  1  0.828200  0.169200  0.003800  1
  H  H471  1  0.171800  0.330800  0.503800  1
  H  H472  1  0.171800  0.830800  0.996200  1
  H  H473  1  0.911500  0.728400  0.517900  1
  H  H474  1  0.911500  0.228400  0.982100  1
  H  H475  1  0.088500  0.271600  0.482100  1
  H  H476  1  0.088500  0.771600  0.017900  1
  H  H477  1  0.895800  0.801800  0.546300  1
  H  H478  1  0.895800  0.301800  0.953700  1
  H  H479  1  0.104200  0.198200  0.453700  1
  H  H480  1  0.104200  0.698200  0.046300  1
  H  H481  1  0.745800  0.418600  0.999600  1
  H  H482  1  0.745800  0.918600  0.500400  1
  H  H483  1  0.254200  0.581400  0.000400  1
  H  H484  1  0.254200  0.081400  0.499600  1
  H  H485  1  0.776700  0.512000  0.016900  1
  H  H486  1  0.776700  0.012000  0.483100  1
  H  H487  1  0.223300  0.488000  0.983100  1
  H  H488  1  0.223300  0.988000  0.516900  1
  H  H489  1  0.744500  0.540000  0.066300  1
  H  H490  1  0.744500  0.040000  0.433700  1
  H  H491  1  0.255500  0.460000  0.933700  1
  H  H492  1  0.255500  0.960000  0.566300  1
  H  H493  1  0.764000  0.489800  0.118100  1
  H  H494  1  0.764000  0.989800  0.381900  1
  H  H495  1  0.236000  0.510200  0.881900  1
  H  H496  1  0.236000  0.010200  0.618100  1
  H  H497  1  0.754700  0.394300  0.109100  1
  H  H498  1  0.754700  0.894300  0.390900  1
  H  H499  1  0.245300  0.605700  0.890900  1
  H  H500  1  0.245300  0.105700  0.609100  1
  H  H501  1  0.711800  0.325700  0.040600  1
  H  H502  1  0.711800  0.825700  0.459400  1
  H  H503  1  0.288200  0.674300  0.959400  1
  H  H504  1  0.288200  0.174300  0.540600  1
  H  H505  1  0.791000  0.273400  0.052000  1
  H  H506  1  0.791000  0.773400  0.448000  1
  H  H507  1  0.209000  0.726600  0.948000  1
  H  H508  1  0.209000  0.226600  0.552000  1
  H  H509  1  0.878400  0.407200  0.077900  1
  H  H510  1  0.878400  0.907200  0.422100  1
  H  H511  1  0.121600  0.592800  0.922100  1
  H  H512  1  0.121600  0.092800  0.577900  1
  H  H513  1  0.993100  0.423700  0.093500  1
  H  H514  1  0.993100  0.923700  0.406500  1
  H  H515  1  0.006900  0.576300  0.906500  1
  H  H516  1  0.006900  0.076300  0.593500  1
  H  H517  1  0.053400  0.356800  0.101300  1
  H  H518  1  0.053400  0.856800  0.398700  1
  H  H519  1  0.946600  0.643200  0.898700  1
  H  H520  1  0.946600  0.143200  0.601300  1
  H  H521  1  0.004000  0.268600  0.083600  1
  H  H522  1  0.004000  0.768600  0.416400  1
  H  H523  1  0.996000  0.731400  0.916400  1
  H  H524  1  0.996000  0.231400  0.583600  1
  H  H525  1  0.889800  0.250900  0.065700  1
  H  H526  1  0.889800  0.750900  0.434300  1
  H  H527  1  0.110200  0.749100  0.934300  1
  H  H528  1  0.110200  0.249100  0.565700  1
  Pd  Pd529  1  0.886070  0.766850  0.810160  1
  Pd  Pd530  1  0.886070  0.266850  0.689840  1
  Pd  Pd531  1  0.113930  0.233150  0.189840  1
  Pd  Pd532  1  0.113930  0.733150  0.310160  1
  Pd  Pd533  1  0.133030  0.961490  0.067720  1
  Pd  Pd534  1  0.133030  0.461490  0.432280  1
  Pd  Pd535  1  0.866970  0.038510  0.932280  1
  Pd  Pd536  1  0.866970  0.538510  0.567720  1
  Pd  Pd537  1  0.863960  0.825860  0.163950  1
  Pd  Pd538  1  0.863960  0.325860  0.336050  1
  Pd  Pd539  1  0.136040  0.174140  0.836050  1
  Pd  Pd540  1  0.136040  0.674140  0.663950  1
  Pd  Pd541  1  0.418610  0.643120  0.157870  1
  Pd  Pd542  1  0.418610  0.143120  0.342130  1
  Pd  Pd543  1  0.581390  0.356880  0.842130  1
  Pd  Pd544  1  0.581390  0.856880  0.657870  1
  Pd  Pd545  1  0.428590  0.817980  0.876930  1
  Pd  Pd546  1  0.428590  0.317980  0.623070  1
  Pd  Pd547  1  0.571410  0.182020  0.123070  1
  Pd  Pd548  1  0.571410  0.682020  0.376930  1
  Pd  Pd549  1  0.421350  0.560690  0.806500  1
  Pd  Pd550  1  0.421350  0.060690  0.693500  1
  Pd  Pd551  1  0.578650  0.439310  0.193500  1
  Pd  Pd552  1  0.578650  0.939310  0.306500  1
  C  C553  1  0.185200  0.706700  0.840600  1
  C  C554  1  0.185200  0.206700  0.659400  1
  C  C555  1  0.814800  0.293300  0.159400  1
  C  C556  1  0.814800  0.793300  0.340600  1
  C  C557  1  0.181700  0.623500  0.820800  1
  C  C558  1  0.181700  0.123500  0.679200  1
  C  C559  1  0.818300  0.376500  0.179200  1
  C  C560  1  0.818300  0.876500  0.320800  1
  C  C561  1  0.085800  0.658700  0.822100  1
  C  C562  1  0.085800  0.158700  0.677900  1
  C  C563  1  0.914200  0.341300  0.177900  1
  C  C564  1  0.914200  0.841300  0.322100  1
  C  C565  1  0.013400  0.652700  0.814400  1
  C  C566  1  0.013400  0.152700  0.685600  1
  C  C567  1  0.986600  0.347300  0.185600  1
  C  C568  1  0.986600  0.847300  0.314400  1
  C  C569  1  0.984500  0.697000  0.817500  1
  C  C570  1  0.984500  0.197000  0.682500  1
  C  C571  1  0.015500  0.303000  0.182500  1
  C  C572  1  0.015500  0.803000  0.317500  1
  C  C573  1  0.881000  0.651500  0.799500  1
  C  C574  1  0.881000  0.151500  0.700500  1
  C  C575  1  0.119000  0.348500  0.200500  1
  C  C576  1  0.119000  0.848500  0.299500  1
  C  C577  1  0.906300  0.604900  0.795800  1
  C  C578  1  0.906300  0.104900  0.704200  1
  C  C579  1  0.093700  0.395100  0.204200  1
  C  C580  1  0.093700  0.895100  0.295800  1
  C  C581  1  0.976000  0.606200  0.803900  1
  C  C582  1  0.976000  0.106200  0.696100  1
  C  C583  1  0.024000  0.393800  0.196100  1
  C  C584  1  0.024000  0.893800  0.303900  1
  C  C585  1  0.221500  0.754700  0.855600  1
  C  C586  1  0.221500  0.254700  0.644400  1
  C  C587  1  0.778500  0.245300  0.144400  1
  C  C588  1  0.778500  0.745300  0.355600  1
  C  C589  1  0.291100  0.760800  0.860900  1
  C  C590  1  0.291100  0.260800  0.639100  1
  C  C591  1  0.708900  0.239200  0.139100  1
  C  C592  1  0.708900  0.739200  0.360900  1
  C  C593  1  0.294400  0.847900  0.883800  1
  C  C594  1  0.294400  0.347900  0.616200  1
  C  C595  1  0.705600  0.152100  0.116200  1
  C  C596  1  0.705600  0.652100  0.383800  1
  C  C597  1  0.225200  0.842500  0.880100  1
  C  C598  1  0.225200  0.342500  0.619900  1
  C  C599  1  0.774800  0.157500  0.119900  1
  C  C600  1  0.774800  0.657500  0.380100  1
  C  C601  1  0.190100  0.797700  0.865000  1
  C  C602  1  0.190100  0.297700  0.635000  1
  C  C603  1  0.809900  0.202300  0.135000  1
  C  C604  1  0.809900  0.702300  0.365000  1
  C  C605  1  0.219200  0.578500  0.811700  1
  C  C606  1  0.219200  0.078500  0.688300  1
  C  C607  1  0.780800  0.421500  0.188300  1
  C  C608  1  0.780800  0.921500  0.311700  1
  C  C609  1  0.287200  0.586900  0.813600  1
  C  C610  1  0.287200  0.086900  0.686400  1
  C  C611  1  0.712800  0.413100  0.186400  1
  C  C612  1  0.712800  0.913100  0.313600  1
  C  C613  1  0.285800  0.501500  0.794800  1
  C  C614  1  0.285800  0.001500  0.705200  1
  C  C615  1  0.714200  0.498500  0.205200  1
  C  C616  1  0.714200  0.998500  0.294800  1
  C  C617  1  0.216800  0.489200  0.793000  1
  C  C618  1  0.216800  0.989200  0.707000  1
  C  C619  1  0.783200  0.510800  0.207000  1
  C  C620  1  0.783200  0.010800  0.293000  1
  C  C621  1  0.181400  0.528100  0.799200  1
  C  C622  1  0.181400  0.028100  0.700800  1
  C  C623  1  0.818600  0.471900  0.200800  1
  C  C624  1  0.818600  0.971900  0.299200  1
  C  C625  1  0.851100  0.800500  0.017700  1
  C  C626  1  0.851100  0.300500  0.482300  1
  C  C627  1  0.148900  0.199500  0.982300  1
  C  C628  1  0.148900  0.699500  0.517700  1
  C  C629  1  0.945100  0.832900  0.987200  1
  C  C630  1  0.945100  0.332900  0.512800  1
  C  C631  1  0.054900  0.167100  0.012800  1
  C  C632  1  0.054900  0.667100  0.487200  1
  C  C633  1  0.857000  0.787200  0.957400  1
  C  C634  1  0.857000  0.287200  0.542600  1
  C  C635  1  0.143000  0.212800  0.042600  1
  C  C636  1  0.143000  0.712800  0.457400  1
  C  C637  1  0.814500  0.793000  0.053000  1
  C  C638  1  0.814500  0.293000  0.447000  1
  C  C639  1  0.185500  0.207000  0.947000  1
  C  C640  1  0.185500  0.707000  0.553000  1
  C  C641  1  0.844300  0.810100  0.084400  1
  C  C642  1  0.844300  0.310100  0.415600  1
  C  C643  1  0.155700  0.189900  0.915600  1
  C  C644  1  0.155700  0.689900  0.584400  1
  C  C645  1  0.749200  0.777300  0.117900  1
  C  C646  1  0.749200  0.277300  0.382100  1
  C  C647  1  0.250800  0.222700  0.882100  1
  C  C648  1  0.250800  0.722700  0.617900  1
  C  C649  1  0.714300  0.760300  0.088100  1
  C  C650  1  0.714300  0.260300  0.411900  1
  C  C651  1  0.285700  0.239700  0.911900  1
  C  C652  1  0.285700  0.739700  0.588100  1
  C  C653  1  0.747900  0.767800  0.053000  1
  C  C654  1  0.747900  0.267800  0.447000  1
  C  C655  1  0.252100  0.232200  0.947000  1
  C  C656  1  0.252100  0.732200  0.553000  1
  C  C657  1  0.014100  0.865600  0.987100  1
  C  C658  1  0.014100  0.365600  0.512900  1
  C  C659  1  0.985900  0.134400  0.012900  1
  C  C660  1  0.985900  0.634400  0.487100  1
  C  C661  1  0.043400  0.891700  0.019000  1
  C  C662  1  0.043400  0.391700  0.481000  1
  C  C663  1  0.956600  0.108300  0.981000  1
  C  C664  1  0.956600  0.608300  0.519000  1
  C  C665  1  0.133600  0.930800  0.989500  1
  C  C666  1  0.133600  0.430800  0.510500  1
  C  C667  1  0.866400  0.069200  0.010500  1
  C  C668  1  0.866400  0.569200  0.489500  1
  C  C669  1  0.111300  0.908600  0.958700  1
  C  C670  1  0.111300  0.408600  0.541300  1
  C  C671  1  0.888700  0.091400  0.041300  1
  C  C672  1  0.888700  0.591400  0.458700  1
  C  C673  1  0.050800  0.874800  0.955600  1
  C  C674  1  0.050800  0.374800  0.544400  1
  C  C675  1  0.949200  0.125200  0.044400  1
  C  C676  1  0.949200  0.625200  0.455600  1
  C  C677  1  0.827500  0.763900  0.922400  1
  C  C678  1  0.827500  0.263900  0.577600  1
  C  C679  1  0.172500  0.236100  0.077600  1
  C  C680  1  0.172500  0.736100  0.422400  1
  C  C681  1  0.860400  0.770500  0.890000  1
  C  C682  1  0.860400  0.270500  0.610000  1
  C  C683  1  0.139600  0.229500  0.110000  1
  C  C684  1  0.139600  0.729500  0.390000  1
  C  C685  1  0.776900  0.719100  0.857600  1
  C  C686  1  0.776900  0.219100  0.642400  1
  C  C687  1  0.223100  0.280900  0.142400  1
  C  C688  1  0.223100  0.780900  0.357600  1
  C  C689  1  0.740000  0.707700  0.890000  1
  C  C690  1  0.740000  0.207700  0.610000  1
  C  C691  1  0.260000  0.292300  0.110000  1
  C  C692  1  0.260000  0.792300  0.390000  1
  C  C693  1  0.764000  0.730500  0.922000  1
  C  C694  1  0.764000  0.230500  0.578000  1
  C  C695  1  0.236000  0.269500  0.078000  1
  C  C696  1  0.236000  0.769500  0.422000  1
  C  C697  1  0.072700  0.724400  0.147900  1
  C  C698  1  0.072700  0.224400  0.352100  1
  C  C699  1  0.927300  0.275600  0.852100  1
  C  C700  1  0.927300  0.775600  0.647900  1
  C  C701  1  0.171000  0.694900  0.150700  1
  C  C702  1  0.171000  0.194900  0.349300  1
  C  C703  1  0.829000  0.305100  0.849300  1
  C  C704  1  0.829000  0.805100  0.650700  1
  C  C705  1  0.164000  0.774100  0.124600  1
  C  C706  1  0.164000  0.274100  0.375400  1
  C  C707  1  0.836000  0.225900  0.875400  1
  C  C708  1  0.836000  0.725900  0.624600  1
  C  C709  1  0.003200  0.718800  0.155900  1
  C  C710  1  0.003200  0.218800  0.344100  1
  C  C711  1  0.996800  0.281200  0.844100  1
  C  C712  1  0.996800  0.781200  0.655900  1
  C  C713  1  0.971000  0.760900  0.153200  1
  C  C714  1  0.971000  0.260900  0.346800  1
  C  C715  1  0.029000  0.239100  0.846800  1
  C  C716  1  0.029000  0.739100  0.653200  1
  C  C717  1  0.868300  0.710900  0.176200  1
  C  C718  1  0.868300  0.210900  0.323800  1
  C  C719  1  0.131700  0.289100  0.823800  1
  C  C720  1  0.131700  0.789100  0.676200  1
  C  C721  1  0.900400  0.664400  0.177800  1
  C  C722  1  0.900400  0.164400  0.322200  1
  C  C723  1  0.099600  0.335600  0.822200  1
  C  C724  1  0.099600  0.835600  0.677800  1
  C  C725  1  0.965300  0.671900  0.168000  1
  C  C726  1  0.965300  0.171900  0.332000  1
  C  C727  1  0.034700  0.328100  0.832000  1
  C  C728  1  0.034700  0.828100  0.668000  1
  C  C729  1  0.209700  0.652700  0.162100  1
  C  C730  1  0.209700  0.152700  0.337900  1
  C  C731  1  0.790300  0.347300  0.837900  1
  C  C732  1  0.790300  0.847300  0.662100  1
  C  C733  1  0.280000  0.662900  0.157400  1
  C  C734  1  0.280000  0.162900  0.342600  1
  C  C735  1  0.720000  0.337100  0.842600  1
  C  C736  1  0.720000  0.837100  0.657400  1
  C  C737  1  0.288700  0.582600  0.180100  1
  C  C738  1  0.288700  0.082600  0.319900  1
  C  C739  1  0.711300  0.417400  0.819900  1
  C  C740  1  0.711300  0.917400  0.680100  1
  C  C741  1  0.219000  0.568700  0.186900  1
  C  C742  1  0.219000  0.068700  0.313100  1
  C  C743  1  0.781000  0.431300  0.813100  1
  C  C744  1  0.781000  0.931300  0.686900  1
  C  C745  1  0.180400  0.607500  0.176500  1
  C  C746  1  0.180400  0.107500  0.323500  1
  C  C747  1  0.819600  0.392500  0.823500  1
  C  C748  1  0.819600  0.892500  0.676500  1
  C  C749  1  0.200600  0.823900  0.106400  1
  C  C750  1  0.200600  0.323900  0.393600  1
  C  C751  1  0.799400  0.176100  0.893600  1
  C  C752  1  0.799400  0.676100  0.606400  1
  C  C753  1  0.161900  0.861000  0.095100  1
  C  C754  1  0.161900  0.361000  0.404900  1
  C  C755  1  0.838100  0.139000  0.904900  1
  C  C756  1  0.838100  0.639000  0.595100  1
  C  C757  1  0.254700  0.916000  0.073700  1
  C  C758  1  0.254700  0.416000  0.426300  1
  C  C759  1  0.745300  0.084000  0.926300  1
  C  C760  1  0.745300  0.584000  0.573700  1
  C  C761  1  0.299700  0.883300  0.084100  1
  C  C762  1  0.299700  0.383300  0.415900  1
  C  C763  1  0.700300  0.116700  0.915900  1
  C  C764  1  0.700300  0.616700  0.584100  1
  C  C765  1  0.266700  0.835700  0.102100  1
  C  C766  1  0.266700  0.335700  0.397900  1
  C  C767  1  0.733300  0.164300  0.897900  1
  C  C768  1  0.733300  0.664300  0.602100  1
  C  C769  1  0.422200  0.658400  0.976100  1
  C  C770  1  0.422200  0.158400  0.523900  1
  C  C771  1  0.577800  0.341600  0.023900  1
  C  C772  1  0.577800  0.841600  0.476100  1
  C  C773  1  0.415900  0.588200  0.014500  1
  C  C774  1  0.415900  0.088200  0.485500  1
  C  C775  1  0.584100  0.411800  0.985500  1
  C  C776  1  0.584100  0.911800  0.514500  1
  C  C777  1  0.420600  0.576900  0.953600  1
  C  C778  1  0.420600  0.076900  0.546400  1
  C  C779  1  0.579400  0.423100  0.046400  1
  C  C780  1  0.579400  0.923100  0.453600  1
  C  C781  1  0.424100  0.715800  0.970000  1
  C  C782  1  0.424100  0.215800  0.530000  1
  C  C783  1  0.575900  0.284200  0.030000  1
  C  C784  1  0.575900  0.784200  0.470000  1
  C  C785  1  0.425700  0.736200  0.935600  1
  C  C786  1  0.425700  0.236200  0.564400  1
  C  C787  1  0.574300  0.263800  0.064400  1
  C  C788  1  0.574300  0.763800  0.435600  1
  C  C789  1  0.430300  0.821500  0.957700  1
  C  C790  1  0.430300  0.321500  0.542300  1
  C  C791  1  0.569700  0.178500  0.042300  1
  C  C792  1  0.569700  0.678500  0.457700  1
  C  C793  1  0.433300  0.802300  0.994400  1
  C  C794  1  0.433300  0.302300  0.505600  1
  C  C795  1  0.566700  0.197700  0.005600  1
  C  C796  1  0.566700  0.697700  0.494400  1
  C  C797  1  0.430700  0.750500  0.999500  1
  C  C798  1  0.430700  0.250500  0.500500  1
  C  C799  1  0.569300  0.249500  0.000500  1
  C  C800  1  0.569300  0.749500  0.499500  1
  C  C801  1  0.412900  0.569100  0.054100  1
  C  C802  1  0.412900  0.069100  0.445900  1
  C  C803  1  0.587100  0.430900  0.945900  1
  C  C804  1  0.587100  0.930900  0.554100  1
  C  C805  1  0.414100  0.603400  0.082800  1
  C  C806  1  0.414100  0.103400  0.417200  1
  C  C807  1  0.585900  0.396600  0.917200  1
  C  C808  1  0.585900  0.896600  0.582800  1
  C  C809  1  0.409900  0.537700  0.125600  1
  C  C810  1  0.409900  0.037700  0.374400  1
  C  C811  1  0.590100  0.462300  0.874400  1
  C  C812  1  0.590100  0.962300  0.625600  1
  C  C813  1  0.406400  0.499400  0.098600  1
  C  C814  1  0.406400  0.999400  0.401400  1
  C  C815  1  0.593600  0.500600  0.901400  1
  C  C816  1  0.593600  0.000600  0.598600  1
  C  C817  1  0.408300  0.516200  0.062400  1
  C  C818  1  0.408300  0.016200  0.437600  1
  C  C819  1  0.591700  0.483800  0.937600  1
  C  C820  1  0.591700  0.983800  0.562400  1
  C  C821  1  0.420500  0.540900  0.923500  1
  C  C822  1  0.420500  0.040900  0.576500  1
  C  C823  1  0.579500  0.459100  0.076500  1
  C  C824  1  0.579500  0.959100  0.423500  1
  C  C825  1  0.424200  0.561600  0.888600  1
  C  C826  1  0.424200  0.061600  0.611400  1
  C  C827  1  0.575800  0.438400  0.111400  1
  C  C828  1  0.575800  0.938400  0.388600  1
  C  C829  1  0.419000  0.479900  0.864700  1
  C  C830  1  0.419000  0.979900  0.635300  1
  C  C831  1  0.581000  0.520100  0.135300  1
  C  C832  1  0.581000  0.020100  0.364700  1
  C  C833  1  0.413500  0.455500  0.898100  1
  C  C834  1  0.413500  0.955500  0.601900  1
  C  C835  1  0.586500  0.544500  0.101900  1
  C  C836  1  0.586500  0.044500  0.398100  1
  C  C837  1  0.414600  0.487300  0.929300  1
  C  C838  1  0.414600  0.987300  0.570700  1
  C  C839  1  0.585400  0.512700  0.070700  1
  C  C840  1  0.585400  0.012700  0.429300  1
  C  C841  1  0.867000  0.855700  0.768400  1
  C  C842  1  0.867000  0.355700  0.731600  1
  C  C843  1  0.133000  0.144300  0.231600  1
  C  C844  1  0.133000  0.644300  0.268400  1
  C  C845  1  0.930600  0.843600  0.754400  1
  C  C846  1  0.930600  0.343600  0.745600  1
  C  C847  1  0.069400  0.156400  0.245600  1
  C  C848  1  0.069400  0.656400  0.254400  1
  C  C849  1  0.120200  0.040000  0.119000  1
  C  C850  1  0.120200  0.540000  0.381000  1
  C  C851  1  0.879800  0.960000  0.881000  1
  C  C852  1  0.879800  0.460000  0.619000  1
  C  C853  1  0.090000  0.057900  0.089100  1
  C  C854  1  0.090000  0.557900  0.410900  1
  C  C855  1  0.910000  0.942100  0.910900  1
  C  C856  1  0.910000  0.442100  0.589100  1
  C  C857  1  0.844000  0.916900  0.202600  1
  C  C858  1  0.844000  0.416900  0.297400  1
  C  C859  1  0.156000  0.083100  0.797400  1
  C  C860  1  0.156000  0.583100  0.702600  1
  C  C861  1  0.901200  0.905700  0.217400  1
  C  C862  1  0.901200  0.405700  0.282600  1
  C  C863  1  0.098800  0.094300  0.782600  1
  C  C864  1  0.098800  0.594300  0.717400  1
  C  C865  1  0.504500  0.718700  0.204400  1
  C  C866  1  0.504500  0.218700  0.295600  1
  C  C867  1  0.495500  0.281300  0.795600  1
  C  C868  1  0.495500  0.781300  0.704400  1
  C  C869  1  0.539700  0.719000  0.167500  1
  C  C870  1  0.539700  0.219000  0.332500  1
  C  C871  1  0.460300  0.281000  0.832500  1
  C  C872  1  0.460300  0.781000  0.667500  1
  C  C873  1  0.546200  0.857600  0.837100  1
  C  C874  1  0.546200  0.357600  0.662900  1
  C  C875  1  0.453800  0.142400  0.162900  1
  C  C876  1  0.453800  0.642400  0.337100  1
  C  C877  1  0.500300  0.853000  0.815200  1
  C  C878  1  0.500300  0.353000  0.684800  1
  C  C879  1  0.499700  0.147000  0.184800  1
  C  C880  1  0.499700  0.647000  0.315200  1
  C  C881  1  0.544000  0.605000  0.780000  1
  C  C882  1  0.544000  0.105000  0.720000  1
  C  C883  1  0.456000  0.395000  0.220000  1
  C  C884  1  0.456000  0.895000  0.280000  1
  C  C885  1  0.500000  0.603000  0.745100  1
  C  C886  1  0.500000  0.103000  0.754900  1
  C  C887  1  0.500000  0.397000  0.254900  1
  C  C888  1  0.500000  0.897000  0.245100  1
  C  C889  1  0.171900  0.345100  0.986000  1
  C  C890  1  0.171900  0.845100  0.514000  1
  C  C891  1  0.828100  0.654900  0.014000  1
  C  C892  1  0.828100  0.154900  0.486000  1
  C  C893  1  0.172700  0.339900  0.946400  1
  C  C894  1  0.172700  0.839900  0.553600  1
  C  C895  1  0.827300  0.660100  0.053600  1
  C  C896  1  0.827300  0.160100  0.446400  1
  C  C897  1  0.111400  0.321800  0.930100  1
  C  C898  1  0.111400  0.821800  0.569900  1
  C  C899  1  0.888600  0.678200  0.069900  1
  C  C900  1  0.888600  0.178200  0.430100  1
  C  C901  1  0.054800  0.304500  0.952400  1
  C  C902  1  0.054800  0.804500  0.547600  1
  C  C903  1  0.945200  0.695500  0.047600  1
  C  C904  1  0.945200  0.195500  0.452400  1
  C  C905  1  0.064500  0.313700  0.988400  1
  C  C906  1  0.064500  0.813700  0.511600  1
  C  C907  1  0.935500  0.686300  0.011600  1
  C  C908  1  0.935500  0.186300  0.488400  1
  C  C909  1  0.117700  0.331200  0.006800  1
  C  C910  1  0.117700  0.831200  0.493200  1
  C  C911  1  0.882300  0.668800  0.993200  1
  C  C912  1  0.882300  0.168800  0.506800  1
  C  C913  1  0.245600  0.368200  0.005400  1
  C  C914  1  0.245600  0.868200  0.494600  1
  C  C915  1  0.754400  0.631800  0.994600  1
  C  C916  1  0.754400  0.131800  0.505400  1
  C  C917  1  0.261500  0.395400  0.032100  1
  C  C918  1  0.261500  0.895400  0.467900  1
  C  C919  1  0.738500  0.604600  0.967900  1
  C  C920  1  0.738500  0.104600  0.532100  1
  C  C921  1  0.213600  0.422300  0.058500  1
  C  C922  1  0.213600  0.922300  0.441500  1
  C  C923  1  0.786400  0.577700  0.941500  1
  C  C924  1  0.786400  0.077700  0.558500  1
  C  C925  1  0.236900  0.427300  0.094800  1
  C  C926  1  0.236900  0.927300  0.405200  1
  C  C927  1  0.763100  0.572700  0.905200  1
  C  C928  1  0.763100  0.072700  0.594800  1
  C  C929  1  0.195300  0.450300  0.119700  1
  C  C930  1  0.195300  0.950300  0.380300  1
  C  C931  1  0.804700  0.549700  0.880300  1
  C  C932  1  0.804700  0.049700  0.619700  1
  C  C933  1  0.142800  0.468900  0.106600  1
  C  C934  1  0.142800  0.968900  0.393400  1
  C  C935  1  0.857200  0.531100  0.893400  1
  C  C936  1  0.857200  0.031100  0.606600  1
  C  C937  1  0.126500  0.467400  0.071600  1
  C  C938  1  0.126500  0.967400  0.428400  1
  C  C939  1  0.873500  0.532600  0.928400  1
  C  C940  1  0.873500  0.032600  0.571600  1
  C  C941  1  0.162200  0.444400  0.048000  1
  C  C942  1  0.162200  0.944400  0.452000  1
  C  C943  1  0.837800  0.555600  0.952000  1
  C  C944  1  0.837800  0.055600  0.548000  1
  C  C945  1  0.900700  0.901300  0.561100  1
  C  C946  1  0.900700  0.401300  0.938900  1
  C  C947  1  0.099300  0.098700  0.438900  1
  C  C948  1  0.099300  0.598700  0.061100  1
  C  C949  1  0.919600  0.905000  0.525400  1
  C  C950  1  0.919600  0.405000  0.974600  1
  C  C951  1  0.080400  0.095000  0.474600  1
  C  C952  1  0.080400  0.595000  0.025400  1
  C  C953  1  0.990100  0.924400  0.518800  1
  C  C954  1  0.990100  0.424400  0.981200  1
  C  C955  1  0.009900  0.075600  0.481200  1
  C  C956  1  0.009900  0.575600  0.018800  1
  C  C957  1  0.033400  0.943000  0.544800  1
  C  C958  1  0.033400  0.443000  0.955200  1
  C  C959  1  0.966600  0.057000  0.455200  1
  C  C960  1  0.966600  0.557000  0.044800  1
  C  C961  1  0.011200  0.937000  0.582500  1
  C  C962  1  0.011200  0.437000  0.917500  1
  C  C963  1  0.988800  0.063000  0.417500  1
  C  C964  1  0.988800  0.563000  0.082500  1
  C  C965  1  0.946500  0.917100  0.588500  1
  C  C966  1  0.946500  0.417100  0.911500  1
  C  C967  1  0.053500  0.082900  0.411500  1
  C  C968  1  0.053500  0.582900  0.088500  1
  C  C969  1  0.832100  0.887300  0.571600  1
  C  C970  1  0.832100  0.387300  0.928400  1
  C  C971  1  0.167900  0.112700  0.428400  1
  C  C972  1  0.167900  0.612700  0.071600  1
  C  C973  1  0.794400  0.844300  0.564700  1
  C  C974  1  0.794400  0.344300  0.935300  1
  C  C975  1  0.205600  0.155700  0.435300  1
  C  C976  1  0.205600  0.655700  0.064700  1
  C  C977  1  0.801700  0.792600  0.543500  1
  C  C978  1  0.801700  0.292600  0.956500  1
  C  C979  1  0.198300  0.207400  0.456500  1
  C  C980  1  0.198300  0.707400  0.043500  1
  C  C981  1  0.744600  0.758600  0.531900  1
  C  C982  1  0.744600  0.258600  0.968100  1
  C  C983  1  0.255400  0.241400  0.468100  1
  C  C984  1  0.255400  0.741400  0.031900  1
  C  C985  1  0.751900  0.710800  0.513700  1
  C  C986  1  0.751900  0.210800  0.986300  1
  C  C987  1  0.248100  0.289200  0.486300  1
  C  C988  1  0.248100  0.789200  0.013700  1
  C  C989  1  0.819800  0.700300  0.508400  1
  C  C990  1  0.819800  0.200300  0.991600  1
  C  C991  1  0.180200  0.299700  0.491600  1
  C  C992  1  0.180200  0.799700  0.008400  1
  C  C993  1  0.866600  0.734400  0.520800  1
  C  C994  1  0.866600  0.234400  0.979200  1
  C  C995  1  0.133400  0.265600  0.479200  1
  C  C996  1  0.133400  0.765600  0.020800  1
  C  C997  1  0.856900  0.778600  0.537700  1
  C  C998  1  0.856900  0.278600  0.962300  1
  C  C999  1  0.143100  0.221400  0.462300  1
  C  C1000  1  0.143100  0.721400  0.037700  1
  C  C1001  1  0.759300  0.405500  0.057000  1
  C  C1002  1  0.759300  0.905500  0.443000  1
  C  C1003  1  0.240700  0.594500  0.943000  1
  C  C1004  1  0.240700  0.094500  0.557000  1
  C  C1005  1  0.753400  0.432700  0.023700  1
  C  C1006  1  0.753400  0.932700  0.476300  1
  C  C1007  1  0.246600  0.567300  0.976300  1
  C  C1008  1  0.246600  0.067300  0.523700  1
  C  C1009  1  0.762000  0.486500  0.035500  1
  C  C1010  1  0.762000  0.986500  0.464500  1
  C  C1011  1  0.238000  0.513500  0.964500  1
  C  C1012  1  0.238000  0.013500  0.535500  1
  C  C1013  1  0.754100  0.504900  0.064100  1
  C  C1014  1  0.754100  0.004900  0.435900  1
  C  C1015  1  0.245900  0.495100  0.935900  1
  C  C1016  1  0.245900  0.995100  0.564100  1
  C  C1017  1  0.759200  0.474300  0.094300  1
  C  C1018  1  0.759200  0.974300  0.405700  1
  C  C1019  1  0.240800  0.525700  0.905700  1
  C  C1020  1  0.240800  0.025700  0.594300  1
  C  C1021  1  0.757300  0.418900  0.089300  1
  C  C1022  1  0.757300  0.918900  0.410700  1
  C  C1023  1  0.242700  0.581100  0.910700  1
  C  C1024  1  0.242700  0.081100  0.589300  1
  C  C1025  1  0.753500  0.343500  0.050200  1
  C  C1026  1  0.753500  0.843500  0.449800  1
  C  C1027  1  0.246500  0.656500  0.949800  1
  C  C1028  1  0.246500  0.156500  0.550200  1
  C  C1029  1  0.803700  0.310500  0.056800  1
  C  C1030  1  0.803700  0.810500  0.443200  1
  C  C1031  1  0.196300  0.689500  0.943200  1
  C  C1032  1  0.196300  0.189500  0.556800  1
  C  C1033  1  0.876600  0.330000  0.071000  1
  C  C1034  1  0.876600  0.830000  0.429000  1
  C  C1035  1  0.123400  0.670000  0.929000  1
  C  C1036  1  0.123400  0.170000  0.571000  1
  C  C1037  1  0.903600  0.379000  0.078900  1
  C  C1038  1  0.903600  0.879000  0.421100  1
  C  C1039  1  0.096400  0.621000  0.921100  1
  C  C1040  1  0.096400  0.121000  0.578900  1
  C  C1041  1  0.971800  0.388000  0.089000  1
  C  C1042  1  0.971800  0.888000  0.411000  1
  C  C1043  1  0.028200  0.612000  0.911000  1
  C  C1044  1  0.028200  0.112000  0.589000  1
  C  C1045  1  0.008500  0.349200  0.092500  1
  C  C1046  1  0.008500  0.849200  0.407500  1
  C  C1047  1  0.991500  0.650800  0.907500  1
  C  C1048  1  0.991500  0.150800  0.592500  1
  C  C1049  1  0.978400  0.296600  0.082800  1
  C  C1050  1  0.978400  0.796600  0.417200  1
  C  C1051  1  0.021600  0.703400  0.917200  1
  C  C1052  1  0.021600  0.203400  0.582800  1
  C  C1053  1  0.911400  0.286000  0.072000  1
  C  C1054  1  0.911400  0.786000  0.428000  1
  C  C1055  1  0.088600  0.714000  0.928000  1
  C  C1056  1  0.088600  0.214000  0.572000  1
  C  C1057  1  0.884800  0.585000  0.268100  1
  C  C1058  1  0.884800  0.085000  0.231900  1
  C  C1059  1  0.115200  0.415000  0.731900  1
  C  C1060  1  0.115200  0.915000  0.768100  1
  C  C1061  1  0.686500  0.582500  0.810600  1
  C  C1062  1  0.686500  0.082500  0.689400  1
  C  C1063  1  0.313500  0.417500  0.189400  1
  C  C1064  1  0.313500  0.917500  0.310600  1
  C  C1065  1  0.695000  0.883000  0.777000  1
  C  C1066  1  0.695000  0.383000  0.723000  1
  C  C1067  1  0.305000  0.117000  0.223000  1
  C  C1068  1  0.305000  0.617000  0.277000  1
  C  C1069  1  0.773000  0.516200  0.736500  1
  C  C1070  1  0.773000  0.016200  0.763500  1
  C  C1071  1  0.227000  0.483800  0.263500  1
  C  C1072  1  0.227000  0.983800  0.236500  1
  C  C1073  1  0.999900  0.889100  0.112600  1
  C  C1074  1  0.999900  0.389100  0.387400  1
  C  C1075  1  0.000100  0.110900  0.887400  1
  C  C1076  1  0.000100  0.610900  0.612600  1
  C  C1077  1  0.769800  0.039700  0.183600  1
  C  C1078  1  0.769800  0.539700  0.316400  1
  C  C1079  1  0.230200  0.960300  0.816400  1
  C  C1080  1  0.230200  0.460300  0.683600  1
  C  C1081  1  0.557800  0.679600  0.069800  1
  C  C1082  1  0.557800  0.179600  0.430200  1
  C  C1083  1  0.442200  0.320400  0.930200  1
  C  C1084  1  0.442200  0.820400  0.569800  1
  C  C1085  1  0.408000  0.772200  0.116100  1
  C  C1086  1  0.408000  0.272200  0.383900  1
  C  C1087  1  0.592000  0.227800  0.883900  1
  C  C1088  1  0.592000  0.727800  0.616100  1
  C  C1089  1  0.432800  0.807000  0.089200  1
  C  C1090  1  0.432800  0.307000  0.410800  1
  C  C1091  1  0.567200  0.193000  0.910800  1
  C  C1092  1  0.567200  0.693000  0.589200  1
  C  C1093  1  0.213000  0.765200  0.235000  1
  C  C1094  1  0.213000  0.265200  0.265000  1
  C  C1095  1  0.787000  0.234800  0.765000  1
  C  C1096  1  0.787000  0.734800  0.735000  1
  C  C1097  1  0.975000  0.541000  0.218700  1
  C  C1098  1  0.975000  0.041000  0.281300  1
  C  C1099  1  0.025000  0.459000  0.781300  1
  C  C1100  1  0.025000  0.959000  0.718700  1
  C  C1101  1  0.931500  0.969300  0.103800  1
  C  C1102  1  0.931500  0.469300  0.396200  1
  C  C1103  1  0.068500  0.030700  0.896200  1
  C  C1104  1  0.068500  0.530700  0.603800  1
  C  C1105  1  0.525400  0.954000  0.708300  1
  C  C1106  1  0.525400  0.454000  0.791700  1
  C  C1107  1  0.474600  0.046000  0.291700  1
  C  C1108  1  0.474600  0.546000  0.208300  1
  C  C1109  1  0.360200  0.775500  0.772600  1
  C  C1110  1  0.360200  0.275500  0.727400  1
  C  C1111  1  0.639800  0.224500  0.227400  1
  C  C1112  1  0.639800  0.724500  0.272600  1
  C  C1113  1  0.076000  0.822300  0.212600  1
  C  C1114  1  0.076000  0.322300  0.287400  1
  C  C1115  1  0.924000  0.177700  0.787400  1
  C  C1116  1  0.924000  0.677700  0.712600  1
  C  C1117  1  0.181000  0.815000  0.209400  1
  C  C1118  1  0.181000  0.315000  0.290600  1
  C  C1119  1  0.819000  0.185000  0.790600  1
  C  C1120  1  0.819000  0.685000  0.709400  1
  C  C1121  1  0.581900  0.623700  0.016400  1
  C  C1122  1  0.581900  0.123700  0.483600  1
  C  C1123  1  0.418100  0.376300  0.983600  1
  C  C1124  1  0.418100  0.876300  0.516400  1
  C  C1125  1  0.578700  0.628300  0.974200  1
  C  C1126  1  0.578700  0.128300  0.525800  1
  C  C1127  1  0.421300  0.371700  0.025800  1
  C  C1128  1  0.421300  0.871700  0.474200  1
  C  C1129  1  0.418500  0.686800  0.847000  1
  C  C1130  1  0.418500  0.186800  0.653000  1
  C  C1131  1  0.581500  0.313200  0.153000  1
  C  C1132  1  0.581500  0.813200  0.347000  1
  C  C1133  1  0.157000  0.803000  0.768400  1
  C  C1134  1  0.157000  0.303000  0.731600  1
  C  C1135  1  0.843000  0.197000  0.231600  1
  C  C1136  1  0.843000  0.697000  0.268400  1
  C  C1137  1  0.151000  0.742000  0.758600  1
  C  C1138  1  0.151000  0.242000  0.741400  1
  C  C1139  1  0.849000  0.258000  0.241400  1
  C  C1140  1  0.849000  0.758000  0.258600  1
  C  C1141  1  0.098600  0.791100  0.770600  1
  C  C1142  1  0.098600  0.291100  0.729400  1
  C  C1143  1  0.901400  0.208900  0.229400  1
  C  C1144  1  0.901400  0.708900  0.270600  1
  C  C1145  1  0.031000  0.510000  0.297400  1
  C  C1146  1  0.031000  0.010000  0.202600  1
  C  C1147  1  0.969000  0.490000  0.702600  1
  C  C1148  1  0.969000  0.990000  0.797400  1
  C  C1149  1  0.093000  0.487800  0.282700  1
  C  C1150  1  0.093000  0.987800  0.217300  1
  C  C1151  1  0.907000  0.512200  0.717300  1
  C  C1152  1  0.907000  0.012200  0.782700  1
  C  C1153  1  0.744500  0.554000  0.785800  1
  C  C1154  1  0.744500  0.054000  0.714200  1
  C  C1155  1  0.255500  0.446000  0.214200  1
  C  C1156  1  0.255500  0.946000  0.285800  1
  C  C1157  1  0.713300  0.615400  0.803800  1
  C  C1158  1  0.713300  0.115400  0.696200  1
  C  C1159  1  0.286700  0.384600  0.196200  1
  C  C1160  1  0.286700  0.884600  0.303800  1
  C  C1161  1  0.011900  0.530100  0.209800  1
  C  C1162  1  0.011900  0.030100  0.290200  1
  C  C1163  1  0.988100  0.469900  0.790200  1
  C  C1164  1  0.988100  0.969900  0.709800  1
  C  C1165  1  0.981800  0.517600  0.241900  1
  C  C1166  1  0.981800  0.017600  0.258100  1
  C  C1167  1  0.018200  0.482400  0.758100  1
  C  C1168  1  0.018200  0.982400  0.741900  1
  C  C1169  1  0.264800  0.869800  0.691200  1
  C  C1170  1  0.264800  0.369800  0.808800  1
  C  C1171  1  0.735200  0.130200  0.308800  1
  C  C1172  1  0.735200  0.630200  0.191200  1
  C  C1173  1  0.311000  0.834000  0.674200  1
  C  C1174  1  0.311000  0.334000  0.825800  1
  C  C1175  1  0.689000  0.166000  0.325800  1
  C  C1176  1  0.689000  0.666000  0.174200  1
  C  C1177  1  0.482000  0.944800  0.726200  1
  C  C1178  1  0.482000  0.444800  0.773800  1
  C  C1179  1  0.518000  0.055200  0.273800  1
  C  C1180  1  0.518000  0.555200  0.226200  1
  C  C1181  1  0.652000  0.995000  0.781000  1
  C  C1182  1  0.652000  0.495000  0.719000  1
  C  C1183  1  0.348000  0.005000  0.219000  1
  C  C1184  1  0.348000  0.505000  0.281000  1
  C  C1185  1  0.982000  0.549900  0.186400  1
  C  C1186  1  0.982000  0.049900  0.313600  1
  C  C1187  1  0.018000  0.450100  0.813600  1
  C  C1188  1  0.018000  0.950100  0.686400  1
  C  C1189  1  0.145100  0.795100  0.213200  1
  C  C1190  1  0.145100  0.295100  0.286800  1
  C  C1191  1  0.854900  0.204900  0.786800  1
  C  C1192  1  0.854900  0.704900  0.713200  1
  C  C1193  1  0.067900  0.746900  0.754000  1
  C  C1194  1  0.067900  0.246900  0.746000  1
  C  C1195  1  0.932100  0.253100  0.246000  1
  C  C1196  1  0.932100  0.753100  0.254000  1
  C  C1197  1  0.060600  0.883200  0.185600  1
  C  C1198  1  0.060600  0.383200  0.314400  1
  C  C1199  1  0.939400  0.116800  0.814400  1
  C  C1200  1  0.939400  0.616800  0.685600  1
  C  C1201  1  0.662800  0.539500  0.802700  1
  C  C1202  1  0.662800  0.039500  0.697300  1
  C  C1203  1  0.337200  0.460500  0.197300  1
  C  C1204  1  0.337200  0.960500  0.302700  1
  C  C1205  1  0.402400  0.731000  0.098900  1
  C  C1206  1  0.402400  0.231000  0.401100  1
  C  C1207  1  0.597600  0.269000  0.901100  1
  C  C1208  1  0.597600  0.769000  0.598900  1
  C  C1209  1  0.298000  0.849300  0.649200  1
  C  C1210  1  0.298000  0.349300  0.850800  1
  C  C1211  1  0.702000  0.150700  0.350800  1
  C  C1212  1  0.702000  0.650700  0.149200  1
  C  C1213  1  0.205000  0.717000  0.749200  1
  C  C1214  1  0.205000  0.217000  0.750800  1
  C  C1215  1  0.795000  0.283000  0.250800  1
  C  C1216  1  0.795000  0.783000  0.249200  1
  C  C1217  1  0.357000  0.876000  0.693600  1
  C  C1218  1  0.357000  0.376000  0.806400  1
  C  C1219  1  0.643000  0.124000  0.306400  1
  C  C1220  1  0.643000  0.624000  0.193600  1
  C  C1221  1  0.359500  0.688100  0.747000  1
  C  C1222  1  0.359500  0.188100  0.753000  1
  C  C1223  1  0.640500  0.311900  0.253000  1
  C  C1224  1  0.640500  0.811900  0.247000  1
  C  C1225  1  0.592200  0.677000  0.989700  1
  C  C1226  1  0.592200  0.177000  0.510300  1
  C  C1227  1  0.407800  0.323000  0.010300  1
  C  C1228  1  0.407800  0.823000  0.489700  1
  C  C1229  1  0.082000  0.816500  0.781400  1
  C  C1230  1  0.082000  0.316500  0.718600  1
  C  C1231  1  0.918000  0.183500  0.218600  1
  C  C1232  1  0.918000  0.683500  0.281400  1
  C  C1233  1  0.486000  0.705100  0.833400  1
  C  C1234  1  0.486000  0.205100  0.666600  1
  C  C1235  1  0.514000  0.294900  0.166600  1
  C  C1236  1  0.514000  0.794900  0.333400  1
  C  C1237  1  0.066000  0.923500  0.166600  1
  C  C1238  1  0.066000  0.423500  0.333400  1
  C  C1239  1  0.934000  0.076500  0.833400  1
  C  C1240  1  0.934000  0.576500  0.666600  1
  C  C1241  1  0.553000  0.678000  0.883000  1
  C  C1242  1  0.553000  0.178000  0.617000  1
  C  C1243  1  0.447000  0.322000  0.117000  1
  C  C1244  1  0.447000  0.822000  0.383000  1
  C  C1245  1  0.328400  0.648000  0.683500  1
  C  C1246  1  0.328400  0.148000  0.816500  1
  C  C1247  1  0.671600  0.352000  0.316500  1
  C  C1248  1  0.671600  0.852000  0.183500  1
  C  C1249  1  0.063500  0.521500  0.208700  1
  C  C1250  1  0.063500  0.021500  0.291300  1
  C  C1251  1  0.936500  0.478500  0.791300  1
  C  C1252  1  0.936500  0.978500  0.708700  1
  N  N1253  1  0.218300  0.667400  0.834100  1
  N  N1254  1  0.218300  0.167400  0.665900  1
  N  N1255  1  0.781700  0.332600  0.165900  1
  N  N1256  1  0.781700  0.832600  0.334100  1
  N  N1257  1  0.115100  0.616100  0.814500  1
  N  N1258  1  0.115100  0.116100  0.685500  1
  N  N1259  1  0.884900  0.383900  0.185500  1
  N  N1260  1  0.884900  0.883900  0.314500  1
  N  N1261  1  0.117500  0.704000  0.836900  1
  N  N1262  1  0.117500  0.204000  0.663100  1
  N  N1263  1  0.882500  0.296000  0.163100  1
  N  N1264  1  0.882500  0.796000  0.336900  1
  N  N1265  1  0.920700  0.698400  0.810200  1
  N  N1266  1  0.920700  0.198400  0.689800  1
  N  N1267  1  0.079300  0.301600  0.189800  1
  N  N1268  1  0.079300  0.801600  0.310200  1
  N  N1269  1  0.325800  0.806000  0.873700  1
  N  N1270  1  0.325800  0.306000  0.626300  1
  N  N1271  1  0.674200  0.194000  0.126300  1
  N  N1272  1  0.674200  0.694000  0.373700  1
  N  N1273  1  0.321200  0.547900  0.805300  1
  N  N1274  1  0.321200  0.047900  0.694700  1
  N  N1275  1  0.678800  0.452100  0.194700  1
  N  N1276  1  0.678800  0.952100  0.305300  1
  N  N1277  1  0.912100  0.825500  0.020000  1
  N  N1278  1  0.912100  0.325500  0.480000  1
  N  N1279  1  0.087900  0.174500  0.980000  1
  N  N1280  1  0.087900  0.674500  0.520000  1
  N  N1281  1  0.920700  0.814100  0.955300  1
  N  N1282  1  0.920700  0.314100  0.544700  1
  N  N1283  1  0.079300  0.185900  0.044700  1
  N  N1284  1  0.079300  0.685900  0.455300  1
  N  N1285  1  0.819300  0.779500  0.986900  1
  N  N1286  1  0.819300  0.279500  0.513100  1
  N  N1287  1  0.180700  0.220500  0.013100  1
  N  N1288  1  0.180700  0.720500  0.486900  1
  N  N1289  1  0.811300  0.800800  0.117400  1
  N  N1290  1  0.811300  0.300800  0.382600  1
  N  N1291  1  0.188700  0.199200  0.882600  1
  N  N1292  1  0.188700  0.699200  0.617400  1
  N  N1293  1  0.102000  0.924700  0.020900  1
  N  N1294  1  0.102000  0.424700  0.479100  1
  N  N1295  1  0.898000  0.075300  0.979100  1
  N  N1296  1  0.898000  0.575300  0.520900  1
  N  N1297  1  0.835600  0.749900  0.857500  1
  N  N1298  1  0.835600  0.249900  0.642500  1
  N  N1299  1  0.164400  0.250100  0.142500  1
  N  N1300  1  0.164400  0.750100  0.357500  1
  N  N1301  1  0.100000  0.767300  0.130700  1
  N  N1302  1  0.100000  0.267300  0.369300  1
  N  N1303  1  0.900000  0.232700  0.869300  1
  N  N1304  1  0.900000  0.732700  0.630700  1
  N  N1305  1  0.204000  0.738500  0.135400  1
  N  N1306  1  0.204000  0.238500  0.364600  1
  N  N1307  1  0.796000  0.261500  0.864600  1
  N  N1308  1  0.796000  0.761500  0.635400  1
  N  N1309  1  0.105800  0.685500  0.157800  1
  N  N1310  1  0.105800  0.185500  0.342200  1
  N  N1311  1  0.894200  0.314500  0.842200  1
  N  N1312  1  0.894200  0.814500  0.657800  1
  N  N1313  1  0.907600  0.759700  0.162800  1
  N  N1314  1  0.907600  0.259700  0.337200  1
  N  N1315  1  0.092400  0.240300  0.837200  1
  N  N1316  1  0.092400  0.740300  0.662800  1
  N  N1317  1  0.320700  0.627300  0.165500  1
  N  N1318  1  0.320700  0.127300  0.334500  1
  N  N1319  1  0.679300  0.372700  0.834500  1
  N  N1320  1  0.679300  0.872700  0.665500  1
  N  N1321  1  0.190600  0.907700  0.078800  1
  N  N1322  1  0.190600  0.407700  0.421200  1
  N  N1323  1  0.809400  0.092300  0.921200  1
  N  N1324  1  0.809400  0.592300  0.578800  1
  N  N1325  1  0.417200  0.643100  0.010200  1
  N  N1326  1  0.417200  0.143100  0.489800  1
  N  N1327  1  0.582800  0.356900  0.989800  1
  N  N1328  1  0.582800  0.856900  0.510200  1
  N  N1329  1  0.414600  0.553900  0.987000  1
  N  N1330  1  0.414600  0.053900  0.513000  1
  N  N1331  1  0.585400  0.446100  0.013000  1
  N  N1332  1  0.585400  0.946100  0.487000  1
  N  N1333  1  0.422900  0.627900  0.946600  1
  N  N1334  1  0.422900  0.127900  0.553400  1
  N  N1335  1  0.577100  0.372100  0.053400  1
  N  N1336  1  0.577100  0.872100  0.446600  1
  N  N1337  1  0.426000  0.788400  0.929100  1
  N  N1338  1  0.426000  0.288400  0.570900  1
  N  N1339  1  0.574000  0.211600  0.070900  1
  N  N1340  1  0.574000  0.711600  0.429100  1
  N  N1341  1  0.410300  0.587600  0.117800  1
  N  N1342  1  0.410300  0.087600  0.382200  1
  N  N1343  1  0.589700  0.412400  0.882200  1
  N  N1344  1  0.589700  0.912400  0.617800  1
  N  N1345  1  0.420400  0.530800  0.858500  1
  N  N1346  1  0.420400  0.030800  0.641500  1
  N  N1347  1  0.579600  0.469200  0.141500  1
  N  N1348  1  0.579600  0.969200  0.358500  1
  N  N1349  1  0.857100  0.838600  0.807100  1
  N  N1350  1  0.857100  0.338600  0.692900  1
  N  N1351  1  0.142900  0.161400  0.192900  1
  N  N1352  1  0.142900  0.661400  0.307100  1
  N  N1353  1  0.929900  0.787700  0.761900  1
  N  N1354  1  0.929900  0.287700  0.738100  1
  N  N1355  1  0.070100  0.212300  0.238100  1
  N  N1356  1  0.070100  0.712300  0.261900  1
  N  N1357  1  0.165300  0.006500  0.112600  1
  N  N1358  1  0.165300  0.506500  0.387400  1
  N  N1359  1  0.834700  0.993500  0.887400  1
  N  N1360  1  0.834700  0.493500  0.612600  1
  N  N1361  1  0.074400  0.017100  0.060400  1
  N  N1362  1  0.074400  0.517100  0.439600  1
  N  N1363  1  0.925600  0.982900  0.939600  1
  N  N1364  1  0.925600  0.482900  0.560400  1
  N  N1365  1  0.825400  0.893000  0.167000  1
  N  N1366  1  0.825400  0.393000  0.333000  1
  N  N1367  1  0.174600  0.107000  0.833000  1
  N  N1368  1  0.174600  0.607000  0.667000  1
  N  N1369  1  0.915500  0.853600  0.210200  1
  N  N1370  1  0.915500  0.353600  0.289800  1
  N  N1371  1  0.084500  0.146400  0.789800  1
  N  N1372  1  0.084500  0.646400  0.710200  1
  N  N1373  1  0.429900  0.701300  0.196500  1
  N  N1374  1  0.429900  0.201300  0.303500  1
  N  N1375  1  0.570100  0.298700  0.803500  1
  N  N1376  1  0.570100  0.798700  0.696500  1
  N  N1377  1  0.520300  0.666600  0.150300  1
  N  N1378  1  0.520300  0.166600  0.349700  1
  N  N1379  1  0.479700  0.333400  0.849700  1
  N  N1380  1  0.479700  0.833400  0.650300  1
  N  N1381  1  0.532100  0.832100  0.872700  1
  N  N1382  1  0.532100  0.332100  0.627300  1
  N  N1383  1  0.467900  0.167900  0.127300  1
  N  N1384  1  0.467900  0.667900  0.372700  1
  N  N1385  1  0.436500  0.846900  0.824200  1
  N  N1386  1  0.436500  0.346900  0.675800  1
  N  N1387  1  0.563500  0.153100  0.175800  1
  N  N1388  1  0.563500  0.653100  0.324200  1
  N  N1389  1  0.520200  0.571400  0.802000  1
  N  N1390  1  0.520200  0.071400  0.698000  1
  N  N1391  1  0.479800  0.428600  0.198000  1
  N  N1392  1  0.479800  0.928600  0.302000  1
  N  N1393  1  0.427300  0.592400  0.755300  1
  N  N1394  1  0.427300  0.092400  0.744700  1
  N  N1395  1  0.572700  0.407600  0.244700  1
  N  N1396  1  0.572700  0.907600  0.255300  1
  N  N1397  1  0.028900  0.867400  0.856500  1
  N  N1398  1  0.028900  0.367400  0.643500  1
  N  N1399  1  0.971100  0.132600  0.143500  1
  N  N1400  1  0.971100  0.632600  0.356500  1
  N  N1401  1  0.885700  0.943400  0.026800  1
  N  N1402  1  0.885700  0.443400  0.473200  1
  N  N1403  1  0.114300  0.056600  0.973200  1
  N  N1404  1  0.114300  0.556600  0.526800  1
  O  O1405  1  0.984300  0.885900  0.846300  1
  O  O1406  1  0.984300  0.385900  0.653700  1
  O  O1407  1  0.015700  0.114100  0.153700  1
  O  O1408  1  0.015700  0.614100  0.346300  1
  O  O1409  1  0.086600  0.892000  0.866200  1
  O  O1410  1  0.086600  0.392000  0.633800  1
  O  O1411  1  0.913400  0.108000  0.133800  1
  O  O1412  1  0.913400  0.608000  0.366200  1
  O  O1413  1  0.015600  0.820300  0.862700  1
  O  O1414  1  0.015600  0.320300  0.637300  1
  O  O1415  1  0.984400  0.179700  0.137300  1
  O  O1416  1  0.984400  0.679700  0.362700  1
  O  O1417  1  0.851000  0.934200  0.058900  1
  O  O1418  1  0.851000  0.434200  0.441100  1
  O  O1419  1  0.149000  0.065800  0.941100  1
  O  O1420  1  0.149000  0.565800  0.558900  1
  O  O1421  1  0.837900  0.926400  0.005400  1
  O  O1422  1  0.837900  0.426400  0.494600  1
  O  O1423  1  0.162100  0.073600  0.994600  1
  O  O1424  1  0.162100  0.573600  0.505400  1
  O  O1425  1  0.936800  0.965700  0.023700  1
  O  O1426  1  0.936800  0.465700  0.476300  1
  O  O1427  1  0.063200  0.034300  0.976300  1
  O  O1428  1  0.063200  0.534300  0.523700  1
