
#######################################################################
#
#                 Cambridge Crystallographic Data Centre
#                                CCDC 
#
#######################################################################
#
# If this CIF has been generated from an entry in the Cambridge 
# Structural Database, then it will include bibliographic, chemical, 
# crystal, experimental, refinement or atomic coordinate data resulting 
# from the CCDC's data processing and validation procedures.
#
#######################################################################

data_KEZVEQ
_chemical_formula_moiety         'C84 H96 N36 Pd6 12+,2(C18 H14),12(N1 O3 1-)'
_chemical_name_systematic        
'(tetrakis(\m~3~-2,4,6-tris(3-Pyridyl)triazine)-hexakis(ethane-1,2-diamine)-palladium) bis(o-terphenyl) clathrate dodecanitrate'
_symmetry_cell_setting           triclinic
_symmetry_space_group_name_H-M   'P -1'
_symmetry_Int_Tables_number      2
_space_group_name_Hall           '-P 1'
loop_
_symmetry_equiv_pos_site_id
_symmetry_equiv_pos_as_xyz
1 x,y,z
2 -x,-y,-z
_cell_length_a                   21.048(11)
_cell_length_b                   21.230(11)
_cell_length_c                   24.507(12)
_cell_angle_alpha                83.098(11)
_cell_angle_beta                 73.547(11)
_cell_angle_gamma                74.541(11)
_cell_volume                     10110.7
_cell_formula_units_Z            2
loop_
_atom_site_label
_atom_site_type_symbol
_atom_site_fract_x
_atom_site_fract_y
_atom_site_fract_z
Pd1 Pd 0.54742(5) 0.37054(5) 0.36415(4)
Pd2 Pd 0.32089(5) 0.62794(5) 0.00347(4)
Pd3 Pd 0.06210(6) 0.81605(5) 0.65583(5)
Pd4 Pd 0.17678(6) 0.36117(5) 0.02017(5)
Pd5 Pd 0.25409(6) 0.89455(5) 0.38661(5)
Pd6 Pd -0.20802(7) 0.91139(7) 0.22344(6)
N1 N 0.3435(5) 0.4015(4) 0.1399(4)
N2 N 0.4189(4) 0.3994(4) 0.1966(4)
N3 N 0.0910(5) 0.4032(5) 0.0806(4)
N4 N 0.1066(5) 0.7166(5) 0.6444(5)
N5 N 0.4581(5) 0.3857(5) 0.4272(4)
N6 N 0.2429(4) 0.6555(4) 0.4917(4)
N7 N -0.0189(5) 0.8099(5) 0.6236(5)
N8 N 0.5120(5) 0.3130(4) 0.3248(4)
N9 N 0.2330(5) 0.6787(4) 0.0590(4)
N10 N 0.3760(5) 0.3058(4) 0.1988(4)
N11 N 0.3284(5) 0.5736(4) 0.4378(4)
N12 N -0.1971(6) 0.8148(5) 0.2253(5)
N13 N -0.0013(5) 0.6918(4) 0.1643(4)
N14 N 0.0692(5) 0.5914(5) 0.1281(4)
N15 N 0.2232(5) 0.3126(5) 0.0820(4)
N16 N 0.2997(5) 0.7975(5) 0.3686(4)
N17 N 0.3623(5) 0.5858(5) 0.0708(4)
N18 N -0.0577(6) 0.8877(5) 0.3785(5)
N19 N -0.0076(5) 0.8554(4) 0.4563(4)
N20 N -0.2267(8) 0.9094(7) 0.3096(6)
N21 N 0.2646(5) 0.5461(4) 0.5303(4)
N22 N 0.1748(5) 0.8950(4) 0.3523(4)
N23 N 0.5869(6) 0.4280(5) 0.4013(4)
N24 N 0.4063(6) 0.5792(6) -0.0536(5)
N25 N 0.1391(7) 0.8277(7) 0.6873(6)
N26 N 0.2109(7) 0.9901(6) 0.4052(5)
N27 N 0.6393(6) 0.3614(6) 0.2997(5)
N28 N 0.0219(7) 0.9155(6) 0.6642(5)
N29 N 0.2566(7) 0.3219(6) -0.0421(6)
N30 N -0.0490(5) 0.6018(5) 0.1726(4)
N31 N 0.3313(7) 0.8967(6) 0.4207(5)
N32 N -0.1251(6) 0.8573(5) 0.4709(5)
N33 N 0.1311(6) 0.4098(6) -0.0414(5)
N34 N 0.2839(6) 0.6676(6) -0.0655(5)
N35 N -0.1951(8) 0.9160(8) 0.1395(6)
N36 N -0.2162(9) 1.0131(8) 0.2139(8)
C1 C 0.1802(6) 0.6508(5) 0.0799(5)
C2 C 0.1488(6) 0.6964(5) 0.5943(5)
C3 C 0.3828(5) 0.4303(5) 0.1578(4)
C4 C 0.1804(6) 0.6303(5) 0.5885(5)
C5 C -0.0649(7) 0.8482(6) 0.4875(5)
C6 C 0.3131(6) 0.6848(5) 0.3991(5)
C7 C 0.3622(7) 0.6652(6) 0.3500(6)
C8 C 0.3892(6) 0.4955(5) 0.1350(5)
C9 C 0.0845(6) 0.4663(6) 0.0962(5)
C10 C 0.4142(6) 0.4468(5) 0.4313(5)
C11 C 0.2965(6) 0.3087(6) 0.1400(5)
C12 C 0.2816(6) 0.7497(6) 0.4081(5)
C13 C 0.2305(5) 0.6105(5) 0.5337(5)
C14 C 0.4460(7) 0.3353(6) 0.4682(6)
C15 C 0.3575(6) 0.4618(5) 0.4775(5)
C16 C 0.3414(6) 0.3426(6) 0.1606(5)
C17 C 0.3546(6) 0.5266(5) 0.0934(5)
C18 C 0.0593(6) 0.6559(5) 0.1378(5)
C19 C 0.4497(6) 0.3045(6) 0.2586(5)
C20 C 0.2900(8) 0.2464(8) 0.1664(7)
C21 C 0.1189(6) 0.6857(5) 0.1147(5)
C22 C 0.2631(6) 0.3429(6) 0.0994(5)
C23 C 0.4272(7) 0.5296(6) 0.1567(5)
C24 C 0.3139(6) 0.5301(5) 0.4825(5)
C25 C -0.0165(6) 0.8302(6) 0.5695(5)
C26 C 0.3974(7) 0.6213(6) 0.0903(6)
C28 C 0.2923(6) 0.6340(5) 0.4462(5)
C29 C -0.2485(9) 0.7880(8) 0.2453(7)
C30 C 0.0252(6) 0.4956(6) 0.1299(5)
C37 C 0.0129(6) 0.5658(6) 0.1445(5)
C38 C 0.3465(8) 0.7823(7) 0.3209(6)
C40 C -0.1246(7) 0.7066(6) 0.2058(5)
C41 C 0.0949(7) 0.6749(7) 0.6903(6)
C42 C 0.5169(7) 0.2494(7) 0.3422(6)
C43 C 0.2298(7) 0.7381(7) 0.0705(6)
C44 C 0.1127(7) 0.7465(6) 0.1283(5)
C46 C 0.4528(7) 0.2398(7) 0.2737(6)
C47 C 0.1698(8) 0.7742(7) 0.1090(6)
C48 C 0.3861(8) 0.3483(7) 0.5184(6)
C49 C -0.0036(7) 0.8725(6) 0.4036(6)
C50 C -0.0717(7) 0.8280(6) 0.5465(6)
C51 C -0.1268(9) 0.8088(8) 0.5814(7)
C52 C 0.1673(6) 0.5838(5) 0.6330(5)
C53 C 0.3413(7) 0.4145(7) 0.5231(6)
C54 C -0.1252(8) 0.7862(7) 0.6373(7)
C55 C -0.0709(8) 0.7880(7) 0.6606(6)
C56 C 0.4784(6) 0.3407(5) 0.2839(5)
C57 C -0.1670(8) 0.9004(7) 0.3322(7)
C58 C -0.2423(10) 0.7151(9) 0.2512(7)
C59 C -0.0327(7) 0.4655(6) 0.1531(5)
C62 C -0.1152(8) 0.8767(7) 0.4167(7)
C65 C 0.4133(6) 0.3405(6) 0.2140(5)
C67 C 0.4303(7) 0.5924(7) 0.1348(6)
C68 C -0.0535(6) 0.6635(6) 0.1799(5)
C69 C 0.3819(8) 0.7142(8) 0.3076(6)
C70 C 0.2133(9) 0.2524(9) 0.1014(7)
C73 C 0.4861(7) 0.2091(7) 0.3192(6)
C74 C -0.1331(7) 0.7735(7) 0.2053(5)
C77 C 0.1242(7) 0.6075(7) 0.6836(6)
C78 C -0.2902(12) 0.9118(10) 0.3433(10)
C79 C -0.2406(11) 0.8883(9) 0.4292(8)
C80 C -0.1780(9) 0.6735(8) 0.2286(7)
C81 C -0.1795(8) 0.8902(7) 0.3920(7)
C82 C 0.2417(9) 0.2162(8) 0.1464(8)
C83 C -0.2965(13) 0.9036(11) 0.4065(11)
C84 C 0.0616(7) 0.8878(6) 0.3624(6)
C85 C 0.1179(6) 0.8849(5) 0.3839(5)
C86 C 0.0335(7) 0.3753(6) 0.1038(6)
C87 C 0.1862(8) 0.9078(7) 0.2947(7)
C88 C 0.0689(8) 0.9026(7) 0.3008(6)
C95 C 0.1330(9) 0.9109(7) 0.2655(7)
C102 C -0.0225(7) 0.4016(7) 0.1377(6)
C103 C 0.6501(10) 0.4420(9) 0.3631(8)
C104 C 0.6846(9) 0.3925(9) 0.3189(8)
C105 C 0.1804(13) 0.4016(11) -0.0998(10)
C106 C 0.4006(12) 0.6046(10) -0.1138(9)
C107 C 0.2576(12) 1.0179(11) 0.4279(9)
C108 C 0.0670(14) 0.9407(12) 0.6933(10)
C109 C 0.1245(14) 0.8990(14) 0.7014(11)
C110 C 0.2387(14) 0.3407(13) -0.0987(11)
C111 C 0.3321(15) 0.6419(13) -0.1159(12)
C112 C 0.3076(13) 0.9649(12) 0.4491(10)
C113 C -0.2227(16) 1.0335(15) 0.1550(14)
C124 C -0.1829(17) 0.9792(17) 0.1141(14)
C27 C 0.0715(7) 0.6747(7) 0.3943(6)
C31 C -0.0325(9) 0.6002(8) 0.3689(8)
C32 C -0.0934(12) 0.5817(8) 0.3779(8)
C33 C -0.1538(8) 0.6291(13) 0.3790(7)
C34 C -0.1533(7) 0.6949(11) 0.3712(10)
C35 C -0.0924(11) 0.7134(6) 0.3622(9)
C36 C -0.0320(7) 0.6661(9) 0.3610(6)
C60 C 0.0302(8) 0.6884(7) 0.3511(7)
C63 C 0.1193(9) 0.7364(8) 0.2856(7)
C71 C 0.0554(9) 0.7195(8) 0.2999(7)
C75 C 0.1336(8) 0.6974(7) 0.3767(7)
C76 C 0.1539(9) 0.7288(8) 0.3222(8)
C114 C 0.0187(10) 0.5767(9) 0.5567(8)
C115 C 0.0512(8) 0.6411(7) 0.4503(6)
C118 C 0.1142(14) 0.5779(13) 0.4533(11)
C119 C -0.0062(15) 0.6621(13) 0.4833(12)
C121 C 0.0941(16) 0.5481(15) 0.5093(14)
C123 C -0.018(2) 0.627(2) 0.5419(17)
C39 C 0.2011(7) 0.5119(6) 0.2658(6)
C45 C 0.2409(7) 0.5013(7) 0.3020(6)
C61 C 0.2468(9) 0.6042(8) 0.2185(7)
C64 C 0.2852(8) 0.5456(8) 0.2977(7)
C66 C 0.2015(8) 0.5639(7) 0.2235(6)
C72 C 0.2861(9) 0.5953(8) 0.2553(8)
C89 C 0.1844(7) 0.4357(9) 0.3842(9)
C90 C 0.1884(10) 0.3831(11) 0.4238(7)
C91 C 0.2513(14) 0.3407(7) 0.4241(7)
C92 C 0.3103(9) 0.3510(8) 0.3848(9)
C93 C 0.3063(7) 0.4036(10) 0.3452(7)
C94 C 0.2434(11) 0.4460(6) 0.3449(6)
C96 C 0.1345(9) 0.3662(5) 0.2515(6)
C97 C 0.0648(8) 0.3944(8) 0.2616(6)
C98 C 0.0392(5) 0.4598(9) 0.2746(6)
C99 C 0.0832(8) 0.4971(5) 0.2775(6)
C100 C 0.1529(7) 0.4689(7) 0.2674(5)
C101 C 0.1785(5) 0.4034(8) 0.2544(6)
O2 O 0.5572(7) 0.4793(6) 0.2375(5)
O3 O 0.4968(7) 0.5799(8) 0.2530(6)
O4 O 0.4666(8) 0.5015(7) 0.3036(7)
N37 N 0.5126(10) 0.5195(10) 0.2684(8)
N38 N -0.0390(19) 0.9055(18) 0.1601(16)
O9 O -0.0322(8) 0.8771(8) 0.2093(7)
O11 O -0.0453(9) 0.9554(9) 0.2062(7)
O12 O 0.0330(9) 0.9127(8) 0.1703(7)
C116? C 0.0186(14) 0.6480(13) 0.5590(12)
C117? C 0.0387(12) 0.6749(11) 0.5044(10)
C120? C 0.0327(18) 0.5729(16) 0.4562(15)
C122? C 0.0114(17) 0.5431(16) 0.5189(15)
O1? O 0.5082(9) 0.5863(8) 0.4027(7)
O5? O 0.4863(13) 0.5435(11) 0.4712(10)
O6? O 0.4304(8) 0.6345(8) 0.4752(6)
O7? O 0.1606(5) 0.8460(5) 0.5208(4)
O8? O 0.2425(6) 0.4948(6) 0.0186(5)
C125? C 0.5224(11) 0.6293(13) -0.0307(10)
C126? C 0.1385(9) 1.0591(8) 0.3158(8)
C127? C 0.5362(10) 0.5750(10) -0.0068(8)
C128? C 0.378(2) 0.686(2) 0.5093(17)
C129? C -0.0628(19) 0.7587(17) 0.7863(15)
C130? C 0.2725(10) 0.4334(9) 0.6763(8)
C131? C 0.2305(11) 0.4584(10) 0.7199(10)
C132? C 0.2340(15) 1.0589(12) 0.2881(11)
C133? C 0.2908(15) 0.4387(13) 0.7502(11)
C134? C -0.0214(19) 1.0225(11) 0.4550(11)
C135? C 0.0976(10) 0.9810(9) 0.5357(9)
C136? C -0.1294(13) 0.4417(11) 0.0340(10)
O10? O 0.6846(10) 0.2269(10) 0.2417(8)
C137? C -0.0098(11) 0.3709(11) -0.0164(9)
C138? C 0.3042(15) 1.1605(13) 0.4173(11)
C139? C 0.2876(18) 0.7615(16) 0.5971(14)
C140? C 0.1258(19) 1.0819(15) 0.2476(13)
C141? C 0.5622(14) 0.6539(14) -0.0062(12)
C142? C 0.0372(13) 0.3087(13) -0.0370(11)
C143? C 0.6450(19) 0.5700(17) 0.0586(16)
O13? O 0.185(2) 0.734(2) 0.7937(19)
O14? O -0.0547(13) 0.8388(12) 0.0702(11)
O15? O 0.3858(18) 0.7644(17) -0.0005(16)
N39? N 0.539(5) 0.818(5) 0.276(5)
C144? C -0.136(3) 0.376(3) 0.105(3)
C145? C -0.0449(18) 0.7905(17) 0.8766(16)
C146? C 0.4989(13) 0.6772(13) -0.0652(11)
C147? C -0.0510(14) 0.4341(12) 0.0052(10)
C148? C 0.2058(13) 0.4947(12) 0.7659(11)
O16? O 0.6244(19) 0.5635(17) 0.1693(16)
O17? O 0.437(3) 0.769(3) 0.158(2)
C149? C 0.0356(17) 1.0137(11) 0.4617(11)
C150? C 0.0699(16) 0.9961(15) 0.4954(19)
C151? C 0.062(3) 1.065(2) 0.221(2)
O18? O 0.3162(17) 1.1502(16) 0.2943(14)
C152? C 0.3703(18) 0.7645(16) 0.5727(14)
C153? C 0.408(3) 1.108(2) 0.329(2)
C154? C -0.0291(13) 0.7697(12) 0.7993(11)
C155? C 0.3606(19) 1.1329(16) 0.4399(15)
C156? C 0.1855(18) 1.0723(13) 0.2649(13)
C157? C 0.4161(19) 0.3342(18) 0.6720(15)
C158? C 0.288(2) 0.803(2) 0.547(2)
C159? C 0.253(3) 0.909(3) 0.329(3)
C160? C 0.601(2) 0.5789(19) 0.0272(16)
O19? O 0.212(2) 0.548(2) 0.8253(19)
C161? C 0.4227(14) 0.7607(13) 0.4475(11)
loop_
_geom_bond_atom_site_label_1
_geom_bond_atom_site_label_2
_geom_bond_site_symmetry_1
_geom_bond_site_symmetry_2
Pd1 N5 1_555 1_555
Pd2 N9 1_555 1_555
Pd3 N4 1_555 1_555
Pd4 N3 1_555 1_555
Pd5 N16 1_555 1_555
Pd6 N12 1_555 1_555
N1 C3 1_555 1_555
N2 C3 1_555 1_555
N3 C9 1_555 1_555
N4 C2 1_555 1_555
N5 C10 1_555 1_555
N6 C13 1_555 1_555
N7 Pd3 1_555 1_555
N8 Pd1 1_555 1_555
N9 C1 1_555 1_555
N10 C16 1_555 1_555
N11 C24 1_555 1_555
N12 C29 1_555 1_555
N13 C18 1_555 1_555
N14 C18 1_555 1_555
N15 Pd4 1_555 1_555
N16 C12 1_555 1_555
N17 Pd2 1_555 1_555
N18 C49 1_555 1_555
N19 C5 1_555 1_555
N20 Pd6 1_555 1_555
N21 C13 1_555 1_555
N22 Pd5 1_555 1_555
N23 Pd1 1_555 1_555
N24 Pd2 1_555 1_555
N25 Pd3 1_555 1_555
N26 Pd5 1_555 1_555
N27 Pd1 1_555 1_555
N28 Pd3 1_555 1_555
N29 Pd4 1_555 1_555
N30 C37 1_555 1_555
N31 Pd5 1_555 1_555
N32 C5 1_555 1_555
N33 Pd4 1_555 1_555
N34 Pd2 1_555 1_555
N35 Pd6 1_555 1_555
N36 Pd6 1_555 1_555
C1 C21 1_555 1_555
C2 C4 1_555 1_555
C3 C8 1_555 1_555
C4 C13 1_555 1_555
C5 C50 1_555 1_555
C6 C7 1_555 1_555
C7 C69 1_555 1_555
C8 C17 1_555 1_555
C9 C30 1_555 1_555
C10 C15 1_555 1_555
C11 C16 1_555 1_555
C12 C6 1_555 1_555
C14 N5 1_555 1_555
C15 C24 1_555 1_555
C16 N1 1_555 1_555
C17 N17 1_555 1_555
C18 C21 1_555 1_555
C19 C46 1_555 1_555
C20 C11 1_555 1_555
C21 C44 1_555 1_555
C22 N15 1_555 1_555
C23 C8 1_555 1_555
C24 N21 1_555 1_555
C25 N7 1_555 1_555
C26 N17 1_555 1_555
C27 C60 1_555 1_555
C28 N6 1_555 1_555
C29 C58 1_555 1_555
C30 C37 1_555 1_555
C31 C32 1_555 1_555
C32 C33 1_555 1_555
C33 C34 1_555 1_555
C34 C35 1_555 1_555
C35 C36 1_555 1_555
C36 C31 1_555 1_555
C37 N14 1_555 1_555
C38 N16 1_555 1_555
C39 C45 1_555 1_555
C40 C68 1_555 1_555
C41 N4 1_555 1_555
C42 N8 1_555 1_555
C43 N9 1_555 1_555
C44 C47 1_555 1_555
C45 C64 1_555 1_555
C46 C73 1_555 1_555
C47 C43 1_555 1_555
C48 C14 1_555 1_555
C49 N19 1_555 1_555
C50 C25 1_555 1_555
C51 C50 1_555 1_555
C52 C4 1_555 1_555
C53 C15 1_555 1_555
C54 C51 1_555 1_555
C55 N7 1_555 1_555
C56 N8 1_555 1_555
C57 N20 1_555 1_555
C58 C80 1_555 1_555
C59 C30 1_555 1_555
C60 C36 1_555 1_555
C61 C66 1_555 1_555
C62 N18 1_555 1_555
C63 C71 1_555 1_555
C64 C72 1_555 1_555
C65 N2 1_555 1_555
C66 C39 1_555 1_555
C67 C23 1_555 1_555
C68 N13 1_555 1_555
C69 C38 1_555 1_555
C70 N15 1_555 1_555
C71 C60 1_555 1_555
C72 C61 1_555 1_555
C73 C42 1_555 1_555
C74 N12 1_555 1_555
C75 C27 1_555 1_555
C76 C63 1_555 1_555
C77 C41 1_555 1_555
C78 N20 1_555 1_555
C79 C81 1_555 1_555
C80 C40 1_555 1_555
C81 C57 1_555 1_555
C82 C20 1_555 1_555
C83 C78 1_555 1_555
C84 C49 1_555 1_555
C85 N22 1_555 1_555
C86 N3 1_555 1_555
C87 N22 1_555 1_555
C88 C84 1_555 1_555
C89 C90 1_555 1_555
C90 C91 1_555 1_555
C91 C92 1_555 1_555
C92 C93 1_555 1_555
C93 C94 1_555 1_555
C94 C45 1_555 1_555
C95 C87 1_555 1_555
C96 C97 1_555 1_555
C97 C98 1_555 1_555
C98 C99 1_555 1_555
C99 C100 1_555 1_555
C100 C39 1_555 1_555
C101 C96 1_555 1_555
C102 C59 1_555 1_555
C103 N23 1_555 1_555
C104 N27 1_555 1_555
C105 N33 1_555 1_555
C106 N24 1_555 1_555
C107 N26 1_555 1_555
C108 N28 1_555 1_555
C109 N25 1_555 1_555
C110 N29 1_555 1_555
C111 N34 1_555 1_555
C112 N31 1_555 1_555
C113 N36 1_555 1_555
C114 C121 1_555 1_555
C115 C27 1_555 1_555
C118 C115 1_555 1_555
C119 C115 1_555 1_555
C121 C118 1_555 1_555
C123 C114 1_555 1_555
C124 N35 1_555 1_555
O2 N37 1_555 1_555
O3 N37 1_555 1_555
O4 N37 1_555 1_555
N38 O9 1_555 1_555
O11 N38 1_555 1_555
O12 N38 1_555 1_555
N10 C65 1_555 1_555
N11 C28 1_555 1_555
N30 C68 1_555 1_555
N32 C62 1_555 1_555
C6 C28 1_555 1_555
C11 C22 1_555 1_555
C19 C65 1_555 1_555
C19 C56 1_555 1_555
C26 C67 1_555 1_555
C40 C74 1_555 1_555
C48 C53 1_555 1_555
C52 C77 1_555 1_555
C54 C55 1_555 1_555
C62 C81 1_555 1_555
C70 C82 1_555 1_555
C75 C76 1_555 1_555
C79 C83 1_555 1_555
C84 C85 1_555 1_555
C86 C102 1_555 1_555
C88 C95 1_555 1_555
C89 C94 1_555 1_555
C100 C101 1_555 1_555
C103 C104 1_555 1_555
C105 C110 1_555 1_555
C106 C111 1_555 1_555
C107 C112 1_555 1_555
C108 C109 1_555 1_555
C113 C124 1_555 1_555
C119 C123 1_555 1_555

#END
