# generated using pymatgen
data_Cd2H69C63S3N17(OF)9
_symmetry_space_group_name_H-M   'P 1'
_cell_length_a   28.49588057
_cell_length_b   28.49588057
_cell_length_c   28.49588057
_cell_angle_alpha   106.04908096
_cell_angle_beta   106.04908096
_cell_angle_gamma   116.55640454
_symmetry_Int_Tables_number   1
_chemical_formula_structural   Cd2H69C63S3N17(OF)9
_chemical_formula_sum   'Cd16 H552 C504 S24 N136 O72 F72'
_cell_volume   17605.77176770
_cell_formula_units_Z   8
loop_
 _symmetry_equiv_pos_site_id
 _symmetry_equiv_pos_as_xyz
  1  'x, y, z'
loop_
 _atom_site_type_symbol
 _atom_site_label
 _atom_site_symmetry_multiplicity
 _atom_site_fract_x
 _atom_site_fract_y
 _atom_site_fract_z
 _atom_site_occupancy
  C  C1  1  0.056600  0.347100  0.896700  1
  C  C2  1  0.450400  0.159900  0.103300  1
  C  C3  1  0.840100  0.943400  0.290500  1
  C  C4  1  0.652900  0.549600  0.709500  1
  C  C5  1  0.023800  0.311700  0.921700  1
  C  C6  1  0.390000  0.102100  0.078300  1
  C  C7  1  0.897900  0.976200  0.287900  1
  C  C8  1  0.688300  0.610000  0.712100  1
  C  C9  1  0.976800  0.318700  0.928700  1
  C  C10  1  0.390000  0.048100  0.071300  1
  C  C11  1  0.951900  0.023200  0.341900  1
  C  C12  1  0.681300  0.610000  0.658100  1
  C  C13  1  0.994400  0.387200  0.011400  1
  C  C14  1  0.375800  0.983000  0.988600  1
  C  C15  1  0.017000  0.005600  0.392800  1
  C  C16  1  0.612800  0.624200  0.607200  1
  C  C17  1  0.016000  0.448000  0.050800  1
  C  C18  1  0.397200  0.965200  0.949200  1
  C  C19  1  0.034800  0.984000  0.432000  1
  C  C20  1  0.552000  0.602800  0.568000  1
  C  C21  1  0.011300  0.458300  0.100200  1
  C  C22  1  0.358100  0.911100  0.899800  1
  C  C23  1  0.088900  0.988700  0.447000  1
  C  C24  1  0.541700  0.641900  0.553000  1
  C  C25  1  0.032300  0.513600  0.134900  1
  C  C26  1  0.378700  0.897400  0.865100  1
  C  C27  1  0.102600  0.967700  0.481300  1
  C  C28  1  0.486400  0.621300  0.518700  1
  C  C29  1  0.058500  0.560200  0.123100  1
  C  C30  1  0.437100  0.935400  0.876900  1
  C  C31  1  0.064600  0.941500  0.501700  1
  C  C32  1  0.439800  0.562900  0.498300  1
  C  C33  1  0.060200  0.546500  0.073100  1
  C  C34  1  0.473400  0.987100  0.926900  1
  C  C35  1  0.012900  0.939800  0.486300  1
  C  C36  1  0.453500  0.526600  0.513700  1
  C  C37  1  0.082400  0.622600  0.160600  1
  C  C38  1  0.462000  0.921800  0.839400  1
  C  C39  1  0.078200  0.917600  0.540200  1
  C  C40  1  0.377400  0.538000  0.459800  1
  C  C41  1  0.140100  0.669600  0.177900  1
  C  C42  1  0.491700  0.962200  0.822100  1
  C  C43  1  0.037800  0.859900  0.529500  1
  C  C44  1  0.330400  0.508300  0.470500  1
  C  C45  1  0.159700  0.723900  0.213400  1
  C  C46  1  0.510500  0.946300  0.786600  1
  C  C47  1  0.053700  0.840300  0.564200  1
  C  C48  1  0.276100  0.489500  0.435800  1
  C  C49  1  0.124300  0.733600  0.233300  1
  C  C50  1  0.500300  0.891000  0.766700  1
  C  C51  1  0.109000  0.875700  0.609300  1
  C  C52  1  0.266400  0.499700  0.390700  1
  C  C53  1  0.049900  0.636500  0.183000  1
  C  C54  1  0.453500  0.866900  0.817000  1
  C  C55  1  0.133100  0.950100  0.586600  1
  C  C56  1  0.363500  0.546500  0.413400  1
  C  C57  1  0.145600  0.794800  0.274000  1
  C  C58  1  0.520800  0.871600  0.726000  1
  C  C59  1  0.128400  0.854400  0.649200  1
  C  C60  1  0.205200  0.479200  0.350800  1
  C  C61  1  0.132400  0.860000  0.330800  1
  C  C62  1  0.529200  0.801600  0.669200  1
  C  C63  1  0.198400  0.867600  0.727600  1
  C  C64  1  0.140000  0.470800  0.272400  1
  C  C65  1  0.139600  0.869300  0.386100  1
  C  C66  1  0.483200  0.753500  0.613900  1
  C  C67  1  0.246500  0.860400  0.729700  1
  C  C68  1  0.130700  0.516800  0.270300  1
  C  C69  1  0.083400  0.833800  0.390800  1
  C  C70  1  0.443000  0.692600  0.609200  1
  C  C71  1  0.307400  0.916600  0.750400  1
  C  C72  1  0.166200  0.557000  0.249600  1
  C  C73  1  0.004400  0.744900  0.381900  1
  C  C74  1  0.363000  0.622500  0.618100  1
  C  C75  1  0.377500  0.995600  0.740500  1
  C  C76  1  0.255100  0.637000  0.259500  1
  C  C77  1  0.956400  0.752800  0.360000  1
  C  C78  1  0.392800  0.596400  0.640000  1
  C  C79  1  0.403600  0.043600  0.796400  1
  C  C80  1  0.247200  0.607200  0.203600  1
  C  C81  1  0.911500  0.709600  0.298500  1
  C  C82  1  0.411100  0.613000  0.701500  1
  C  C83  1  0.387000  0.088500  0.798100  1
  C  C84  1  0.290400  0.588900  0.201900  1
  C  C85  1  0.914800  0.735500  0.225900  1
  C  C86  1  0.509600  0.688900  0.774100  1
  C  C87  1  0.311100  0.085200  0.820700  1
  C  C88  1  0.264500  0.490400  0.179300  1
  C  C89  1  0.939700  0.748400  0.189500  1
  C  C90  1  0.558900  0.750200  0.810500  1
  C  C91  1  0.249800  0.060300  0.808700  1
  C  C92  1  0.251600  0.441100  0.191300  1
  C  C93  1  0.912600  0.757600  0.149000  1
  C  C94  1  0.608600  0.763600  0.851000  1
  C  C95  1  0.236400  0.087400  0.845000  1
  C  C96  1  0.242400  0.391400  0.155000  1
  C  C97  1  0.936900  0.769400  0.113500  1
  C  C98  1  0.655900  0.823400  0.886500  1
  C  C99  1  0.176600  0.063100  0.832500  1
  C  C100  1  0.230600  0.344100  0.167500  1
  C  C101  1  0.988910  0.774500  0.122610  1
  C  C102  1  0.651890  0.866300  0.877390  1
  C  C103  1  0.133700  0.011090  0.785590  1
  C  C104  1  0.225500  0.348110  0.214410  1
  C  C105  1  0.012300  0.762400  0.164100  1
  C  C106  1  0.598300  0.848200  0.835900  1
  C  C107  1  0.151800  0.987700  0.750100  1
  C  C108  1  0.237600  0.401700  0.249900  1
  C  C109  1  0.019500  0.790500  0.089600  1
  C  C110  1  0.700900  0.929900  0.910400  1
  C  C111  1  0.070100  0.980500  0.771000  1
  C  C112  1  0.209500  0.299100  0.229000  1
  C  C113  1  0.080400  0.829200  0.114200  1
  C  C114  1  0.715000  0.966200  0.885800  1
  C  C115  1  0.033800  0.919600  0.748800  1
  C  C116  1  0.170800  0.285000  0.251200  1
  C  C117  1  0.106780  0.843400  0.079980  1
  C  C118  1  0.763420  0.026800  0.920020  1
  C  C119  1  0.973200  0.893220  0.736620  1
  C  C120  1  0.156600  0.236580  0.263380  1
  C  C121  1  0.071100  0.816400  0.023100  1
  C  C122  1  0.793300  0.048000  0.976900  1
  C  C123  1  0.952000  0.928900  0.745300  1
  C  C124  1  0.183600  0.206700  0.254700  1
  C  C125  1  0.987200  0.765500  0.032900  1
  C  C126  1  0.732600  0.954300  0.967100  1
  C  C127  1  0.045700  0.012800  0.778300  1
  C  C128  1  0.234500  0.267400  0.221700  1
  C  C129  1  0.096200  0.827300  0.985900  1
  C  C130  1  0.841400  0.110300  0.014100  1
  C  C131  1  0.889700  0.903800  0.731100  1
  C  C132  1  0.172700  0.158600  0.268900  1
  C  C133  1  0.090700  0.815800  0.898300  1
  C  C134  1  0.917500  0.192400  0.101700  1
  C  C135  1  0.807600  0.909300  0.725100  1
  C  C136  1  0.184200  0.082500  0.274900  1
  C  C137  1  0.082400  0.852300  0.873100  1
  C  C138  1  0.979200  0.209300  0.126900  1
  C  C139  1  0.790700  0.917600  0.769900  1
  C  C140  1  0.147700  0.020800  0.230100  1
  C  C141  1  0.018500  0.831800  0.836700  1
  C  C142  1  0.995100  0.181800  0.163300  1
  C  C143  1  0.818200  0.981500  0.813300  1
  C  C144  1  0.168200  0.004900  0.186700  1
  C  C145  1  0.926300  0.821200  0.827100  1
  C  C146  1  0.994100  0.099200  0.172900  1
  C  C147  1  0.900800  0.073700  0.894900  1
  C  C148  1  0.178800  0.005900  0.105100  1
  C  C149  1  0.891100  0.766400  0.769500  1
  C  C150  1  0.996900  0.121600  0.230500  1
  C  C151  1  0.878400  0.108900  0.875300  1
  C  C152  1  0.233600  0.003100  0.124700  1
  C  C153  1  0.859700  0.707200  0.769300  1
  C  C154  1  0.937900  0.090400  0.230700  1
  C  C155  1  0.909600  0.140300  0.847500  1
  C  C156  1  0.292800  0.062100  0.152500  1
  C  C157  1  0.906900  0.659000  0.781100  1
  C  C158  1  0.877900  0.125800  0.218900  1
  C  C159  1  0.874200  0.093100  0.752100  1
  C  C160  1  0.341000  0.122100  0.247900  1
  C  C161  1  0.944000  0.645900  0.813700  1
  C  C162  1  0.832200  0.130300  0.186300  1
  C  C163  1  0.869700  0.056000  0.701900  1
  C  C164  1  0.354100  0.167800  0.298100  1
  C  C165  1  0.955900  0.604100  0.790000  1
  C  C166  1  0.814100  0.165900  0.210000  1
  C  C167  1  0.834100  0.044100  0.648200  1
  C  C168  1  0.395900  0.185900  0.351800  1
  C  C169  1  0.990400  0.593100  0.822900  1
  C  C170  1  0.770200  0.167500  0.177100  1
  C  C171  1  0.832500  0.009600  0.602700  1
  C  C172  1  0.406900  0.229800  0.397300  1
  C  C173  1  0.016600  0.626100  0.880500  1
  C  C174  1  0.745600  0.136100  0.119500  1
  C  C175  1  0.863900  0.983400  0.609500  1
  C  C176  1  0.373900  0.254400  0.390500  1
  C  C177  1  0.004800  0.667900  0.901300  1
  C  C178  1  0.766600  0.103500  0.098700  1
  C  C179  1  0.896500  0.995200  0.663100  1
  C  C180  1  0.332100  0.233400  0.336900  1
  C  C181  1  0.057100  0.619000  0.918700  1
  C  C182  1  0.700300  0.138400  0.081300  1
  C  C183  1  0.861600  0.942900  0.561900  1
  C  C184  1  0.381000  0.299700  0.438100  1
  C  C185  1  0.115600  0.666700  0.955100  1
  C  C186  1  0.711600  0.160500  0.044900  1
  C  C187  1  0.839500  0.884400  0.551100  1
  C  C188  1  0.333300  0.288400  0.448900  1
  C  C189  1  0.152000  0.657400  0.988600  1
  C  C190  1  0.668800  0.163400  0.011400  1
  C  C191  1  0.836600  0.848000  0.505400  1
  C  C192  1  0.342600  0.331200  0.494600  1
  C  C193  1  0.128800  0.600200  0.985400  1
  C  C194  1  0.614800  0.143400  0.014600  1
  C  C195  1  0.856600  0.871200  0.471400  1
  C  C196  1  0.399800  0.385200  0.528600  1
  C  C197  1  0.037900  0.566700  0.920000  1
  C  C198  1  0.646700  0.117900  0.080000  1
  C  C199  1  0.882100  0.962100  0.528800  1
  C  C200  1  0.433300  0.353300  0.471200  1
  C  C201  1  0.166000  0.589000  0.019800  1
  C  C202  1  0.569200  0.146200  0.980200  1
  C  C203  1  0.853800  0.834000  0.423000  1
  C  C204  1  0.411000  0.430800  0.577000  1
  C  C205  1  0.184600  0.529600  0.052000  1
  C  C206  1  0.477600  0.132600  0.948000  1
  C  C207  1  0.867400  0.815400  0.345000  1
  C  C208  1  0.470400  0.522400  0.655000  1
  C  C209  1  0.199300  0.487700  0.022000  1
  C  C210  1  0.465700  0.177300  0.978000  1
  C  C211  1  0.822700  0.800700  0.288400  1
  C  C212  1  0.512300  0.534300  0.711600  1
  C  C213  1  0.143100  0.423400  0.982700  1
  C  C214  1  0.440700  0.160400  0.017300  1
  C  C215  1  0.839600  0.856900  0.280300  1
  C  C216  1  0.576600  0.559300  0.719700  1
  C  C217  1  0.130600  0.435300  0.899900  1
  C  C218  1  0.535400  0.230700  0.100100  1
  C  C219  1  0.769300  0.869400  0.304700  1
  C  C220  1  0.564700  0.464600  0.695300  1
  C  C221  1  0.092300  0.421200  0.841900  1
  C  C222  1  0.579300  0.250400  0.158100  1
  C  C223  1  0.749600  0.907700  0.328900  1
  C  C224  1  0.578800  0.420700  0.671100  1
  C  C225  1  0.063800  0.453900  0.839700  1
  C  C226  1  0.614200  0.224100  0.160300  1
  C  C227  1  0.775900  0.936200  0.390100  1
  C  C228  1  0.546100  0.385800  0.609900  1
  C  C229  1  0.966600  0.414900  0.825700  1
  C  C230  1  0.589200  0.140900  0.174300  1
  C  C231  1  0.859100  0.033400  0.448300  1
  C  C232  1  0.585100  0.410800  0.551700  1
  C  C233  1  0.920800  0.400500  0.844500  1
  C  C234  1  0.556000  0.076300  0.155500  1
  C  C235  1  0.923700  0.079200  0.479700  1
  C  C236  1  0.599500  0.444000  0.520300  1
  C  C237  1  0.859400  0.368600  0.806600  1
  C  C238  1  0.562000  0.052800  0.193400  1
  C  C239  1  0.947200  0.140600  0.509200  1
  C  C240  1  0.631400  0.438000  0.490800  1
  C  C241  1  0.820200  0.359900  0.824900  1
  C  C242  1  0.535000  0.995300  0.175100  1
  C  C243  1  0.004700  0.179800  0.539700  1
  C  C244  1  0.640100  0.465000  0.460300  1
  C  C245  1  0.836800  0.378100  0.881300  1
  C  C246  1  0.496800  0.955500  0.118700  1
  C  C247  1  0.044500  0.163200  0.541300  1
  C  C248  1  0.621900  0.503200  0.458700  1
  C  C249  1  0.897000  0.407500  0.915300  1
  C  C250  1  0.492200  0.981700  0.084700  1
  C  C251  1  0.018300  0.103000  0.510500  1
  C  C252  1  0.592500  0.507800  0.489500  1
  C  C253  1  0.793200  0.364500  0.903100  1
  C  C254  1  0.461400  0.890100  0.096900  1
  C  C255  1  0.109900  0.206800  0.571300  1
  C  C256  1  0.635500  0.538600  0.428700  1
  C  C257  1  0.792600  0.338900  0.936900  1
  C  C258  1  0.402000  0.855700  0.063100  1
  C  C259  1  0.144300  0.207400  0.546300  1
  C  C260  1  0.661100  0.598000  0.453700  1
  C  C261  1  0.747500  0.323100  0.952800  1
  C  C262  1  0.370300  0.794700  0.047200  1
  C  C263  1  0.205300  0.252500  0.575600  1
  C  C264  1  0.676900  0.629700  0.424400  1
  C  C265  1  0.705200  0.334300  0.934100  1
  C  C266  1  0.400200  0.771100  0.065900  1
  C  C267  1  0.228900  0.294800  0.629100  1
  C  C268  1  0.665700  0.599800  0.370900  1
  C  C269  1  0.749600  0.375400  0.886200  1
  C  C270  1  0.489200  0.863400  0.113800  1
  C  C271  1  0.136600  0.250400  0.625800  1
  C  C272  1  0.624600  0.510800  0.374200  1
  C  C273  1  0.657800  0.318900  0.949700  1
  C  C274  1  0.369200  0.708100  0.050300  1
  C  C275  1  0.291900  0.342200  0.661100  1
  C  C276  1  0.681100  0.630800  0.338900  1
  C  C277  1  0.577800  0.319300  0.956500  1
  C  C278  1  0.362800  0.621300  0.043500  1
  C  C279  1  0.378700  0.422200  0.741500  1
  C  C280  1  0.680700  0.637200  0.258500  1
  C  C281  1  0.514600  0.274900  0.911500  1
  C  C282  1  0.363400  0.603100  0.088500  1
  C  C283  1  0.396900  0.485400  0.760300  1
  C  C284  1  0.725100  0.636600  0.239700  1
  C  C285  1  0.493200  0.298200  0.873400  1
  C  C286  1  0.424800  0.619800  0.126600  1
  C  C287  1  0.380200  0.506800  0.805000  1
  C  C288  1  0.701800  0.575200  0.195000  1
  C  C289  1  0.481600  0.318100  0.796900  1
  C  C290  1  0.521200  0.684700  0.203100  1
  C  C291  1  0.315300  0.518400  0.836500  1
  C  C292  1  0.681900  0.478800  0.163500  1
  C  C293  1  0.487100  0.376300  0.826000  1
  C  C294  1  0.550300  0.661100  0.174000  1
  C  C295  1  0.338900  0.512900  0.889200  1
  C  C296  1  0.623700  0.449700  0.110800  1
  C  C297  1  0.547200  0.430000  0.842000  1
  C  C298  1  0.588000  0.705200  0.158000  1
  C  C299  1  0.294800  0.452800  0.882800  1
  C  C300  1  0.570000  0.412000  0.117200  1
  C  C301  1  0.622100  0.486500  0.931200  1
  C  C302  1  0.555300  0.690900  0.068800  1
  C  C303  1  0.309100  0.377900  0.864400  1
  C  C304  1  0.513500  0.444700  0.135600  1
  C  C305  1  0.672800  0.503200  0.981000  1
  C  C306  1  0.522200  0.691800  0.019000  1
  C  C307  1  0.308200  0.327200  0.830400  1
  C  C308  1  0.496800  0.477800  0.169600  1
  C  C309  1  0.704800  0.557300  0.028900  1
  C  C310  1  0.528400  0.675900  0.971100  1
  C  C311  1  0.324100  0.295200  0.852500  1
  C  C312  1  0.442700  0.471600  0.147500  1
  C  C313  1  0.752400  0.571600  0.072200  1
  C  C314  1  0.499400  0.680200  0.927800  1
  C  C315  1  0.319800  0.247600  0.819200  1
  C  C316  1  0.428400  0.500600  0.180800  1
  C  C317  1  0.769600  0.532600  0.069400  1
  C  C318  1  0.463200  0.700200  0.930600  1
  C  C319  1  0.299800  0.230400  0.763000  1
  C  C320  1  0.467400  0.536800  0.237000  1
  C  C321  1  0.737000  0.480000  0.019600  1
  C  C322  1  0.460400  0.717400  0.980400  1
  C  C323  1  0.282600  0.263000  0.743000  1
  C  C324  1  0.520000  0.539600  0.257000  1
  C  C325  1  0.819100  0.544500  0.116600  1
  C  C326  1  0.427900  0.702500  0.883400  1
  C  C327  1  0.297500  0.180900  0.725400  1
  C  C328  1  0.455500  0.572100  0.274600  1
  C  C329  1  0.812100  0.505200  0.135700  1
  C  C330  1  0.369500  0.676400  0.864300  1
  C  C331  1  0.323600  0.187900  0.693100  1
  C  C332  1  0.494800  0.630500  0.306900  1
  C  C333  1  0.859500  0.519200  0.182700  1
  C  C334  1  0.336500  0.676800  0.817300  1
  C  C335  1  0.323200  0.140500  0.659700  1
  C  C336  1  0.480800  0.663500  0.340300  1
  C  C337  1  0.913100  0.573900  0.207800  1
  C  C338  1  0.366100  0.705300  0.792200  1
  C  C339  1  0.294700  0.086900  0.660800  1
  C  C340  1  0.426100  0.633900  0.339200  1
  C  C341  1  0.876300  0.600300  0.146200  1
  C  C342  1  0.454100  0.730100  0.853800  1
  C  C343  1  0.269900  0.123700  0.724000  1
  C  C344  1  0.399700  0.545900  0.276000  1
  C  C345  1  0.962800  0.589700  0.254700  1
  C  C346  1  0.335000  0.708100  0.745300  1
  C  C347  1  0.291900  0.037200  0.626900  1
  C  C348  1  0.410300  0.665000  0.373100  1
  C  C349  1  0.061800  0.654200  0.329200  1
  C  C350  1  0.325000  0.732600  0.670800  1
  C  C351  1  0.267400  0.938200  0.592400  1
  C  C352  1  0.345800  0.675000  0.407600  1
  C  C353  1  0.079200  0.696900  0.387300  1
  C  C354  1  0.309600  0.691900  0.612700  1
  C  C355  1  0.308100  0.920800  0.617700  1
  C  C356  1  0.303100  0.690400  0.382300  1
  C  C357  1  0.097200  0.757800  0.395200  1
  C  C358  1  0.362600  0.702000  0.604800  1
  C  C359  1  0.298000  0.902800  0.660600  1
  C  C360  1  0.242200  0.637400  0.339400  1
  C  C361  1  0.018100  0.894800  0.912100  1
  C  C362  1  0.982700  0.106000  0.087900  1
  C  C363  1  0.894000  0.981900  0.876700  1
  C  C364  1  0.105200  0.017300  0.123300  1
  C  C365  1  0.985800  0.909100  0.941700  1
  C  C366  1  0.967400  0.044100  0.058300  1
  C  C367  1  0.955900  0.014200  0.923300  1
  C  C368  1  0.090900  0.032600  0.076700  1
  C  C369  1  0.974500  0.881500  0.980000  1
  C  C370  1  0.901500  0.994500  0.020000  1
  C  C371  1  0.005500  0.025500  0.907000  1
  C  C372  1  0.118500  0.098500  0.093000  1
  C  C373  1  0.889400  0.789500  0.955500  1
  C  C374  1  0.834000  0.933900  0.044500  1
  C  C375  1  0.066100  0.110600  0.900100  1
  C  C376  1  0.210500  0.166000  0.099900  1
  C  C377  1  0.852800  0.725800  0.930200  1
  C  C378  1  0.795600  0.922600  0.069800  1
  C  C379  1  0.077400  0.147200  0.873000  1
  C  C380  1  0.274200  0.204400  0.127000  1
  C  C381  1  0.801500  0.694700  0.936000  1
  C  C382  1  0.758700  0.865500  0.064000  1
  C  C383  1  0.134500  0.198500  0.893200  1
  C  C384  1  0.305300  0.241300  0.106800  1
  C  C385  1  0.767300  0.634400  0.909700  1
  C  C386  1  0.724700  0.857600  0.090300  1
  C  C387  1  0.142400  0.232700  0.867100  1
  C  C388  1  0.365600  0.275300  0.132900  1
  C  C389  1  0.783000  0.603300  0.878100  1
  C  C390  1  0.725200  0.904900  0.121900  1
  C  C391  1  0.095100  0.217000  0.820300  1
  C  C392  1  0.396700  0.274800  0.179700  1
  C  C393  1  0.836300  0.637600  0.876500  1
  C  C394  1  0.761100  0.959800  0.123500  1
  C  C395  1  0.040200  0.163700  0.801300  1
  C  C396  1  0.362400  0.238900  0.198700  1
  C  C397  1  0.747100  0.537100  0.848000  1
  C  C398  1  0.689100  0.899100  0.152000  1
  C  C399  1  0.100900  0.252900  0.790000  1
  C  C400  1  0.462900  0.310900  0.210000  1
  C  C401  1  0.739800  0.507300  0.797700  1
  C  C402  1  0.709600  0.942100  0.202300  1
  C  C403  1  0.057900  0.260200  0.767500  1
  C  C404  1  0.492700  0.290400  0.232500  1
  C  C405  1  0.703700  0.445300  0.770400  1
  C  C406  1  0.674900  0.933300  0.229600  1
  C  C407  1  0.066700  0.296300  0.741600  1
  C  C408  1  0.554700  0.325100  0.258400  1
  C  C409  1  0.676000  0.416600  0.796800  1
  C  C410  1  0.619800  0.879200  0.203200  1
  C  C411  1  0.120800  0.324000  0.740600  1
  C  C412  1  0.583400  0.380200  0.259400  1
  C  C413  1  0.720100  0.505000  0.873500  1
  C  C414  1  0.631500  0.846600  0.126500  1
  C  C415  1  0.153400  0.279900  0.784900  1
  C  C416  1  0.495000  0.368500  0.215100  1
  C  C417  1  0.636500  0.351400  0.767900  1
  C  C418  1  0.583500  0.868600  0.232100  1
  C  C419  1  0.131400  0.363500  0.714900  1
  C  C420  1  0.648600  0.416500  0.285100  1
  C  C421  1  0.572600  0.259800  0.762200  1
  C  C422  1  0.497600  0.810400  0.237800  1
  C  C423  1  0.189600  0.427400  0.687200  1
  C  C424  1  0.740200  0.502400  0.312800  1
  C  C425  1  0.509400  0.233000  0.747800  1
  C  C426  1  0.485200  0.761600  0.252200  1
  C  C427  1  0.238400  0.490600  0.723600  1
  C  C428  1  0.767000  0.514800  0.276400  1
  C  C429  1  0.496200  0.241600  0.796000  1
  C  C430  1  0.445600  0.700200  0.204000  1
  C  C431  1  0.299800  0.503800  0.745400  1
  C  C432  1  0.758400  0.554400  0.254600  1
  C  C433  1  0.342400  0.256000  0.985400  1
  C  C434  1  0.270600  0.357000  0.014600  1
  C  C435  1  0.643000  0.657600  0.913600  1
  C  C436  1  0.744000  0.729400  0.086400  1
  C  C437  1  0.787700  0.713100  0.598600  1
  C  C438  1  0.114500  0.189100  0.401400  1
  C  C439  1  0.810900  0.212300  0.925400  1
  C  C440  1  0.286900  0.885500  0.074600  1
  C  C441  1  0.935800  0.927700  0.172300  1
  C  C442  1  0.755400  0.763500  0.827700  1
  C  C443  1  0.236500  0.064200  0.991900  1
  C  C444  1  0.072300  0.244600  0.008100  1
  C  C445  1  0.198400  0.628300  0.875900  1
  C  C446  1  0.752400  0.322500  0.124100  1
  C  C447  1  0.677500  0.801600  0.429900  1
  C  C448  1  0.371700  0.247600  0.570100  1
  C  C449  1  0.353000  0.809300  0.199900  1
  C  C450  1  0.609400  0.153100  0.800100  1
  C  C451  1  0.846900  0.647000  0.456300  1
  C  C452  1  0.190700  0.390600  0.543700  1
  C  C453  1  0.017200  0.901000  0.293000  1
  C  C454  1  0.608000  0.724200  0.707000  1
  C  C455  1  0.275800  0.982800  0.883800  1
  C  C456  1  0.099000  0.392000  0.116200  1
  C  C457  1  0.055900  0.932400  0.273300  1
  C  C458  1  0.659100  0.782600  0.726700  1
  C  C459  1  0.217400  0.944100  0.876500  1
  C  C460  1  0.067600  0.340900  0.123500  1
  C  C461  1  0.943500  0.340800  0.168100  1
  C  C462  1  0.172700  0.775400  0.831900  1
  C  C463  1  0.224600  0.056500  0.397300  1
  C  C464  1  0.659200  0.827300  0.602700  1
  C  C465  1  0.891600  0.308400  0.173200  1
  C  C466  1  0.135200  0.718400  0.826800  1
  C  C467  1  0.281600  0.108400  0.416800  1
  C  C468  1  0.691600  0.864800  0.583200  1
  C  C469  1  0.878400  0.601100  0.004500  1
  C  C470  1  0.596600  0.873900  0.995500  1
  C  C471  1  0.126100  0.121600  0.722700  1
  C  C472  1  0.398900  0.403400  0.277300  1
  C  C473  1  0.917100  0.586100  0.993600  1
  C  C474  1  0.592500  0.923500  0.006400  1
  C  C475  1  0.076500  0.082900  0.669000  1
  C  C476  1  0.413900  0.407500  0.331000  1
  C  C477  1  0.885500  0.459600  0.069100  1
  C  C478  1  0.390500  0.816400  0.930900  1
  C  C479  1  0.183600  0.114500  0.574100  1
  C  C480  1  0.540400  0.609500  0.425900  1
  C  C481  1  0.868700  0.418100  0.088400  1
  C  C482  1  0.329700  0.780300  0.911600  1
  C  C483  1  0.219700  0.131300  0.549400  1
  C  C484  1  0.581900  0.670300  0.450600  1
  C  C485  1  0.116500  0.726400  0.086100  1
  C  C486  1  0.640300  0.030400  0.913900  1
  C  C487  1  0.969600  0.883500  0.609900  1
  C  C488  1  0.273600  0.359700  0.390100  1
  C  C489  1  0.177000  0.768300  0.104500  1
  C  C490  1  0.663800  0.072500  0.895500  1
  C  C491  1  0.927500  0.823000  0.591300  1
  C  C492  1  0.231700  0.336200  0.408700  1
  C  C493  1  0.978900  0.466000  0.260700  1
  C  C494  1  0.205300  0.718200  0.739300  1
  C  C495  1  0.281800  0.021100  0.487100  1
  C  C496  1  0.534000  0.794700  0.512900  1
  C  C497  1  0.999900  0.466800  0.316700  1
  C  C498  1  0.150100  0.683200  0.683300  1
  C  C499  1  0.316800  0.000100  0.466900  1
  C  C500  1  0.533200  0.849900  0.533100  1
  C  C501  1  0.829900  0.210000  0.693900  1
  C  C502  1  0.516100  0.136000  0.306100  1
  C  C503  1  0.864000  0.170100  0.380100  1
  C  C504  1  0.790000  0.483900  0.619900  1
  Cd  Cd505  1  0.047449  0.460026  0.951375  1
  Cd  Cd506  1  0.508651  0.096074  0.048625  1
  Cd  Cd507  1  0.903926  0.952551  0.412577  1
  Cd  Cd508  1  0.539974  0.491349  0.587423  1
  Cd  Cd509  1  0.018483  0.718897  0.265178  1
  Cd  Cd510  1  0.453719  0.753305  0.734822  1
  Cd  Cd511  1  0.246695  0.981517  0.700414  1
  Cd  Cd512  1  0.281103  0.546281  0.299586  1
  Cd  Cd513  1  0.625497  0.376868  0.879321  1
  Cd  Cd514  1  0.497547  0.746176  0.120679  1
  Cd  Cd515  1  0.253824  0.374503  0.751371  1
  Cd  Cd516  1  0.623132  0.502453  0.248629  1
  Cd  Cd517  1  0.960338  0.759852  0.900262  1
  Cd  Cd518  1  0.859590  0.060076  0.099738  1
  Cd  Cd519  1  0.939924  0.039662  0.799514  1
  Cd  Cd520  1  0.240148  0.140410  0.200486  1
  F  F521  1  0.324700  0.205400  0.991100  1
  F  F522  1  0.214300  0.333600  0.008900  1
  F  F523  1  0.666400  0.675300  0.880700  1
  F  F524  1  0.794600  0.785700  0.119300  1
  F  F525  1  0.353000  0.298230  0.027830  1
  F  F526  1  0.270400  0.325170  0.972170  1
  F  F527  1  0.674830  0.647000  0.945230  1
  F  F528  1  0.701770  0.729600  0.054770  1
  F  F529  1  0.295600  0.240540  0.940140  1
  F  F530  1  0.300400  0.355460  0.059860  1
  F  F531  1  0.644540  0.704400  0.944940  1
  F  F532  1  0.759460  0.699600  0.055060  1
  F  F533  1  0.758800  0.659530  0.595730  1
  F  F534  1  0.063800  0.163070  0.404270  1
  F  F535  1  0.836930  0.241200  0.900730  1
  F  F536  1  0.340470  0.936200  0.099270  1
  F  F537  1  0.792400  0.703270  0.552270  1
  F  F538  1  0.151000  0.240130  0.447730  1
  F  F539  1  0.759870  0.207600  0.910870  1
  F  F540  1  0.296730  0.849000  0.089130  1
  F  F541  1  0.843500  0.746300  0.640800  1
  F  F542  1  0.105500  0.202700  0.359200  1
  F  F543  1  0.797300  0.156500  0.902800  1
  F  F544  1  0.253700  0.894500  0.097200  1
  F  F545  1  0.923250  0.888460  0.191050  1
  F  F546  1  0.697410  0.732200  0.808950  1
  F  F547  1  0.267800  0.076750  0.965210  1
  F  F548  1  0.111540  0.302590  0.034790  1
  F  F549  1  0.891360  0.934110  0.158670  1
  F  F550  1  0.775440  0.732690  0.841330  1
  F  F551  1  0.267310  0.108640  0.042750  1
  F  F552  1  0.065890  0.224560  0.957250  1
  F  F553  1  0.983960  0.980610  0.212370  1
  F  F554  1  0.768240  0.771590  0.787630  1
  F  F555  1  0.228410  0.016040  0.996650  1
  F  F556  1  0.019390  0.231760  0.003350  1
  F  F557  1  0.210500  0.640300  0.836600  1
  F  F558  1  0.803700  0.373900  0.163400  1
  F  F559  1  0.626100  0.789500  0.429800  1
  F  F560  1  0.359700  0.196300  0.570200  1
  F  F561  1  0.220000  0.682000  0.916400  1
  F  F562  1  0.765600  0.303600  0.083600  1
  F  F563  1  0.696400  0.780000  0.462000  1
  F  F564  1  0.318000  0.234400  0.538000  1
  F  F565  1  0.140100  0.595000  0.855700  1
  F  F566  1  0.739300  0.284400  0.144300  1
  F  F567  1  0.715600  0.859900  0.454900  1
  F  F568  1  0.405000  0.260700  0.545100  1
  F  F569  1  0.392200  0.835600  0.182800  1
  F  F570  1  0.652800  0.209400  0.817200  1
  F  F571  1  0.790600  0.607800  0.443400  1
  F  F572  1  0.164400  0.347200  0.556600  1
  F  F573  1  0.377900  0.814700  0.251000  1
  F  F574  1  0.563700  0.126900  0.749000  1
  F  F575  1  0.873100  0.622100  0.436800  1
  F  F576  1  0.185300  0.436300  0.563200  1
  F  F577  1  0.320100  0.833400  0.202900  1
  F  F578  1  0.630500  0.117200  0.797100  1
  F  F579  1  0.882800  0.679900  0.513300  1
  F  F580  1  0.166600  0.369500  0.486700  1
  F  F581  1  0.795400  0.159300  0.695100  1
  F  F582  1  0.464200  0.100300  0.304900  1
  F  F583  1  0.899700  0.204600  0.363900  1
  F  F584  1  0.840700  0.535800  0.636100  1
  F  F585  1  0.798000  0.231600  0.702600  1
  F  F586  1  0.529000  0.095400  0.297400  1
  F  F587  1  0.904600  0.202000  0.433600  1
  F  F588  1  0.768400  0.471000  0.566400  1
  F  F589  1  0.827000  0.183000  0.645800  1
  F  F590  1  0.537200  0.181200  0.354200  1
  F  F591  1  0.818800  0.173000  0.356000  1
  F  F592  1  0.817000  0.462800  0.644000  1
  H  H593  1  0.078600  0.331200  0.885800  1
  H  H594  1  0.445400  0.192800  0.114200  1
  H  H595  1  0.807200  0.921400  0.252600  1
  H  H596  1  0.668800  0.554600  0.747400  1
  H  H597  1  0.026600  0.339200  0.862400  1
  H  H598  1  0.476800  0.164200  0.137600  1
  H  H599  1  0.835800  0.973400  0.312600  1
  H  H600  1  0.660800  0.523200  0.687400  1
  H  H601  1  0.005300  0.269200  0.897900  1
  H  H602  1  0.371300  0.107400  0.102100  1
  H  H603  1  0.892600  0.994700  0.263900  1
  H  H604  1  0.730800  0.628700  0.736100  1
  H  H605  1  0.053200  0.323200  0.958200  1
  H  H606  1  0.365000  0.095000  0.041800  1
  H  H607  1  0.905000  0.946800  0.270000  1
  H  H608  1  0.676800  0.635000  0.730000  1
  H  H609  1  0.947600  0.308600  0.892600  1
  H  H610  1  0.416000  0.055000  0.107400  1
  H  H611  1  0.945000  0.052400  0.361000  1
  H  H612  1  0.691400  0.584000  0.639000  1
  H  H613  1  0.955700  0.290800  0.941500  1
  H  H614  1  0.349300  0.014200  0.058500  1
  H  H615  1  0.985800  0.044300  0.335100  1
  H  H616  1  0.709200  0.650700  0.664900  1
  H  H617  1  0.975000  0.354600  0.018000  1
  H  H618  1  0.336600  0.957000  0.982000  1
  H  H619  1  0.043000  0.025000  0.379600  1
  H  H620  1  0.645400  0.663400  0.620400  1
  H  H621  1  0.993700  0.426700  0.108600  1
  H  H622  1  0.318100  0.885100  0.891400  1
  H  H623  1  0.114900  0.006300  0.433000  1
  H  H624  1  0.573300  0.681900  0.567000  1
  H  H625  1  0.029200  0.521200  0.168200  1
  H  H626  1  0.353000  0.861000  0.831800  1
  H  H627  1  0.139000  0.970800  0.492000  1
  H  H628  1  0.478800  0.647000  0.508000  1
  H  H629  1  0.077000  0.577400  0.063600  1
  H  H630  1  0.513800  0.013400  0.936400  1
  H  H631  1  0.986600  0.923000  0.500400  1
  H  H632  1  0.422600  0.486200  0.499600  1
  H  H633  1  0.164833  0.662900  0.164733  1
  H  H634  1  0.498167  0.000100  0.835267  1
  H  H635  1  0.999900  0.835167  0.498067  1
  H  H636  1  0.337100  0.501833  0.501933  1
  H  H637  1  0.198500  0.756300  0.225000  1
  H  H638  1  0.531300  0.973500  0.775000  1
  H  H639  1  0.026500  0.801500  0.557800  1
  H  H640  1  0.243700  0.468700  0.442200  1
  H  H641  1  0.011300  0.604700  0.172800  1
  H  H642  1  0.431900  0.838500  0.827200  1
  H  H643  1  0.161500  0.988700  0.593400  1
  H  H644  1  0.395300  0.568100  0.406600  1
  H  H645  1  0.183300  0.828000  0.284100  1
  H  H646  1  0.543900  0.899200  0.715900  1
  H  H647  1  0.100800  0.816700  0.644700  1
  H  H648  1  0.172000  0.456100  0.355300  1
  H  H649  1  0.102800  0.867400  0.313800  1
  H  H650  1  0.553600  0.789000  0.686200  1
  H  H651  1  0.211000  0.897200  0.764600  1
  H  H652  1  0.132600  0.446400  0.235400  1
  H  H653  1  0.170600  0.889700  0.334300  1
  H  H654  1  0.555400  0.836300  0.665700  1
  H  H655  1  0.163700  0.829400  0.719100  1
  H  H656  1  0.110300  0.444600  0.280900  1
  H  H657  1  0.158200  0.911900  0.409100  1
  H  H658  1  0.502800  0.749100  0.590900  1
  H  H659  1  0.250900  0.841800  0.753700  1
  H  H660  1  0.088100  0.497200  0.246300  1
  H  H661  1  0.167700  0.859800  0.401900  1
  H  H662  1  0.457900  0.765800  0.598100  1
  H  H663  1  0.234200  0.832300  0.692100  1
  H  H664  1  0.140200  0.542100  0.307900  1
  H  H665  1  0.093500  0.849600  0.430300  1
  H  H666  1  0.419300  0.663200  0.569700  1
  H  H667  1  0.336800  0.906500  0.756100  1
  H  H668  1  0.150400  0.580700  0.243900  1
  H  H669  1  0.054100  0.840900  0.372400  1
  H  H670  1  0.468500  0.681700  0.627600  1
  H  H671  1  0.318300  0.945900  0.786800  1
  H  H672  1  0.159100  0.531500  0.213200  1
  H  H673  1  0.986300  0.702000  0.369100  1
  H  H674  1  0.332900  0.617200  0.630900  1
  H  H675  1  0.382800  0.013700  0.715700  1
  H  H676  1  0.298000  0.667100  0.284300  1
  H  H677  1  0.022000  0.764300  0.422700  1
  H  H678  1  0.341600  0.599300  0.577300  1
  H  H679  1  0.400700  0.978000  0.742300  1
  H  H680  1  0.235700  0.658400  0.257700  1
  H  H681  1  0.974400  0.793800  0.365200  1
  H  H682  1  0.428600  0.609200  0.634800  1
  H  H683  1  0.390800  0.025600  0.819400  1
  H  H684  1  0.206200  0.571400  0.180600  1
  H  H685  1  0.934600  0.747700  0.381900  1
  H  H686  1  0.365800  0.552700  0.618100  1
  H  H687  1  0.447300  0.065400  0.813100  1
  H  H688  1  0.252300  0.634200  0.186900  1
  H  H689  1  0.897700  0.668500  0.291400  1
  H  H690  1  0.377100  0.606300  0.708600  1
  H  H691  1  0.393700  0.102300  0.770800  1
  H  H692  1  0.331500  0.622900  0.229200  1
  H  H693  1  0.876700  0.711800  0.289100  1
  H  H694  1  0.422700  0.587600  0.710900  1
  H  H695  1  0.412400  0.123300  0.835100  1
  H  H696  1  0.288200  0.577300  0.164900  1
  H  H697  1  0.880300  0.734900  0.222200  1
  H  H698  1  0.512700  0.658100  0.777800  1
  H  H699  1  0.341900  0.119700  0.854600  1
  H  H700  1  0.265100  0.487300  0.145400  1
  H  H701  1  0.877600  0.756000  0.144600  1
  H  H702  1  0.611400  0.733000  0.855400  1
  H  H703  1  0.267000  0.122400  0.878400  1
  H  H704  1  0.244000  0.388600  0.121600  1
  H  H705  1  0.917400  0.773800  0.083800  1
  H  H706  1  0.690000  0.833600  0.916200  1
  H  H707  1  0.166400  0.082600  0.856400  1
  H  H708  1  0.226200  0.310000  0.143600  1
  H  H709  1  0.047000  0.763000  0.169200  1
  H  H710  1  0.593800  0.877800  0.830800  1
  H  H711  1  0.122200  0.953000  0.716000  1
  H  H712  1  0.237000  0.406200  0.284000  1
  H  H713  1  0.104000  0.845800  0.152800  1
  H  H714  1  0.693000  0.951200  0.847200  1
  H  H715  1  0.048800  0.896000  0.741800  1
  H  H716  1  0.154200  0.307000  0.258200  1
  H  H717  1  0.148300  0.871100  0.095800  1
  H  H718  1  0.775300  0.052500  0.904200  1
  H  H719  1  0.947500  0.851700  0.722800  1
  H  H720  1  0.128900  0.224700  0.277200  1
  H  H721  1  0.945500  0.737600  0.016100  1
  H  H722  1  0.721500  0.929400  0.983900  1
  H  H723  1  0.070600  0.054500  0.792100  1
  H  H724  1  0.262400  0.278500  0.207900  1
  H  H725  1  0.137900  0.848000  0.999500  1
  H  H726  1  0.848500  0.138400  0.000500  1
  H  H727  1  0.861600  0.862100  0.710100  1
  H  H728  1  0.152000  0.151500  0.289900  1
  H  H729  1  0.133600  0.833900  0.919100  1
  H  H730  1  0.914800  0.214500  0.080900  1
  H  H731  1  0.785500  0.866400  0.700300  1
  H  H732  1  0.166100  0.085200  0.299700  1
  H  H733  1  0.072700  0.775800  0.868700  1
  H  H734  1  0.907100  0.204000  0.131300  1
  H  H735  1  0.796000  0.927300  0.703100  1
  H  H736  1  0.224200  0.092900  0.296900  1
  H  H737  1  0.103200  0.855700  0.850300  1
  H  H738  1  0.005400  0.252900  0.149700  1
  H  H739  1  0.747100  0.896800  0.752500  1
  H  H740  1  0.144300  0.994600  0.247500  1
  H  H741  1  0.102700  0.892600  0.903300  1
  H  H742  1  0.989300  0.199400  0.096700  1
  H  H743  1  0.800600  0.897300  0.789900  1
  H  H744  1  0.107400  0.010700  0.210100  1
  H  H745  1  0.020800  0.857100  0.818300  1
  H  H746  1  0.038800  0.202500  0.181700  1
  H  H747  1  0.797500  0.979200  0.836300  1
  H  H748  1  0.142900  0.961200  0.163700  1
  H  H749  1  0.996900  0.790700  0.807400  1
  H  H750  1  0.983300  0.189500  0.192600  1
  H  H751  1  0.810500  0.003100  0.793800  1
  H  H752  1  0.209300  0.016700  0.206200  1
  H  H753  1  0.935700  0.856400  0.821500  1
  H  H754  1  0.034900  0.114200  0.178500  1
  H  H755  1  0.885800  0.064300  0.920700  1
  H  H756  1  0.143600  0.965100  0.079300  1
  H  H757  1  0.899900  0.815800  0.844500  1
  H  H758  1  0.971300  0.055400  0.155500  1
  H  H759  1  0.944600  0.100100  0.915900  1
  H  H760  1  0.184200  0.028700  0.084100  1
  H  H761  1  0.861400  0.768900  0.744500  1
  H  H762  1  0.024400  0.116900  0.255500  1
  H  H763  1  0.883100  0.138600  0.907500  1
  H  H764  1  0.231100  0.975600  0.092500  1
  H  H765  1  0.918900  0.768000  0.754300  1
  H  H766  1  0.013700  0.164600  0.245700  1
  H  H767  1  0.835400  0.081100  0.849100  1
  H  H768  1  0.232000  0.986300  0.150900  1
  H  H769  1  0.830900  0.704600  0.783300  1
  H  H770  1  0.921300  0.047600  0.216700  1
  H  H771  1  0.952400  0.169100  0.873700  1
  H  H772  1  0.295400  0.078700  0.126300  1
  H  H773  1  0.837500  0.675000  0.731100  1
  H  H774  1  0.943900  0.106400  0.268900  1
  H  H775  1  0.893600  0.162500  0.837500  1
  H  H776  1  0.325000  0.056100  0.162500  1
  H  H777  1  0.886400  0.636600  0.742000  1
  H  H778  1  0.894600  0.144400  0.258000  1
  H  H779  1  0.855600  0.113600  0.750200  1
  H  H780  1  0.363400  0.105400  0.249800  1
  H  H781  1  0.939700  0.583800  0.751100  1
  H  H782  1  0.832700  0.188600  0.248900  1
  H  H783  1  0.811400  0.060300  0.644100  1
  H  H784  1  0.416200  0.167300  0.355900  1
  H  H785  1  0.996600  0.563700  0.807100  1
  H  H786  1  0.756600  0.189500  0.192900  1
  H  H787  1  0.810500  0.003400  0.567100  1
  H  H788  1  0.436300  0.243400  0.432900  1
  H  H789  1  0.023000  0.690800  0.940200  1
  H  H790  1  0.750600  0.082800  0.059800  1
  H  H791  1  0.917200  0.977000  0.667800  1
  H  H792  1  0.309200  0.249400  0.332200  1
  H  H793  1  0.129900  0.704500  0.956600  1
  H  H794  1  0.747900  0.173300  0.043400  1
  H  H795  1  0.826700  0.870100  0.574600  1
  H  H796  1  0.295500  0.252100  0.425400  1
  H  H797  1  0.192200  0.688900  0.013700  1
  H  H798  1  0.675200  0.178500  0.986300  1
  H  H799  1  0.821500  0.807800  0.496700  1
  H  H800  1  0.311100  0.324800  0.503300  1
  H  H801  1  0.997500  0.534900  0.896200  1
  H  H802  1  0.638700  0.101300  0.103800  1
  H  H803  1  0.898700  0.002500  0.537400  1
  H  H804  1  0.465100  0.361300  0.462600  1
  H  H805  1  0.205900  0.620500  0.045600  1
  H  H806  1  0.574900  0.160300  0.954400  1
  H  H807  1  0.839700  0.794100  0.414600  1
  H  H808  1  0.379500  0.425100  0.585400  1
  H  H809  1  0.166400  0.513700  0.073700  1
  H  H810  1  0.440000  0.092700  0.926300  1
  H  H811  1  0.907300  0.833600  0.347300  1
  H  H812  1  0.486300  0.560000  0.652700  1
  H  H813  1  0.222100  0.568900  0.078400  1
  H  H814  1  0.490500  0.143700  0.921600  1
  H  H815  1  0.856300  0.777900  0.346800  1
  H  H816  1  0.431100  0.509500  0.653200  1
  H  H817  1  0.228400  0.486800  0.049800  1
  H  H818  1  0.437000  0.178600  0.950200  1
  H  H819  1  0.821400  0.771600  0.258400  1
  H  H820  1  0.513200  0.563000  0.741600  1
  H  H821  1  0.217900  0.503500  0.000400  1
  H  H822  1  0.503100  0.217500  0.999600  1
  H  H823  1  0.782500  0.782100  0.285600  1
  H  H824  1  0.496500  0.496900  0.714400  1
  H  H825  1  0.156500  0.397300  0.972400  1
  H  H826  1  0.424900  0.184100  0.027600  1
  H  H827  1  0.815900  0.843500  0.240800  1
  H  H828  1  0.602700  0.575100  0.759200  1
  H  H829  1  0.122300  0.410700  0.004000  1
  H  H830  1  0.406700  0.118300  0.996000  1
  H  H831  1  0.881700  0.877700  0.288400  1
  H  H832  1  0.589300  0.593300  0.711600  1
  H  H833  1  0.154900  0.419500  0.897400  1
  H  H834  1  0.522100  0.257500  0.102600  1
  H  H835  1  0.742500  0.845100  0.264600  1
  H  H836  1  0.580500  0.477900  0.735400  1
  H  H837  1  0.158100  0.478900  0.922200  1
  H  H838  1  0.556700  0.235900  0.077800  1
  H  H839  1  0.764100  0.841900  0.320800  1
  H  H840  1  0.521100  0.443300  0.679200  1
  H  H841  1  0.117200  0.430300  0.823100  1
  H  H842  1  0.607200  0.294100  0.176900  1
  H  H843  1  0.705900  0.882800  0.313100  1
  H  H844  1  0.569700  0.392800  0.686900  1
  H  H845  1  0.060900  0.378200  0.820900  1
  H  H846  1  0.557300  0.240000  0.179100  1
  H  H847  1  0.760000  0.939100  0.317300  1
  H  H848  1  0.621800  0.442700  0.682700  1
  H  H849  1  0.094700  0.496900  0.862600  1
  H  H850  1  0.634300  0.232100  0.137400  1
  H  H851  1  0.767900  0.905300  0.402200  1
  H  H852  1  0.503100  0.365700  0.597800  1
  H  H853  1  0.044700  0.446300  0.801200  1
  H  H854  1  0.645100  0.243500  0.198800  1
  H  H855  1  0.756500  0.955300  0.401600  1
  H  H856  1  0.553700  0.354900  0.598400  1
  H  H857  1  0.956400  0.407800  0.788600  1
  H  H858  1  0.619200  0.167800  0.211400  1
  H  H859  1  0.832200  0.043600  0.451400  1
  H  H860  1  0.592200  0.380800  0.548600  1
  H  H861  1  0.846800  0.353600  0.768000  1
  H  H862  1  0.585600  0.078800  0.232000  1
  H  H863  1  0.921200  0.153200  0.506800  1
  H  H864  1  0.646400  0.414400  0.493200  1
  H  H865  1  0.780000  0.341000  0.799600  1
  H  H866  1  0.541400  0.980400  0.200400  1
  H  H867  1  0.019600  0.220000  0.561000  1
  H  H868  1  0.659000  0.458600  0.439000  1
  H  H869  1  0.909500  0.420600  0.953700  1
  H  H870  1  0.466900  0.955800  0.046300  1
  H  H871  1  0.044200  0.090500  0.511100  1
  H  H872  1  0.579400  0.533100  0.488900  1
  H  H873  1  0.822100  0.331700  0.949400  1
  H  H874  1  0.382300  0.872700  0.050600  1
  H  H875  1  0.127300  0.177900  0.509600  1
  H  H876  1  0.668300  0.617700  0.490400  1
  H  H877  1  0.746100  0.305000  0.976300  1
  H  H878  1  0.328700  0.769800  0.023700  1
  H  H879  1  0.230200  0.253900  0.558900  1
  H  H880  1  0.695000  0.671300  0.441100  1
  H  H881  1  0.750900  0.394100  0.863200  1
  H  H882  1  0.530900  0.887700  0.136800  1
  H  H883  1  0.112300  0.249100  0.643200  1
  H  H884  1  0.605900  0.469100  0.356800  1
  H  H885  1  0.654800  0.299100  0.971700  1
  H  H886  1  0.327400  0.683100  0.028300  1
  H  H887  1  0.316900  0.345200  0.644300  1
  H  H888  1  0.700900  0.672600  0.355700  1
  H  H889  1  0.582800  0.356900  0.976900  1
  H  H890  1  0.380000  0.605900  0.023100  1
  H  H891  1  0.394100  0.417200  0.774100  1
  H  H892  1  0.643100  0.620000  0.225900  1
  H  H893  1  0.586000  0.304000  0.982800  1
  H  H894  1  0.321200  0.603200  0.017200  1
  H  H895  1  0.396800  0.414000  0.718000  1
  H  H896  1  0.696000  0.678800  0.282000  1
  H  H897  1  0.488300  0.263400  0.928700  1
  H  H898  1  0.334700  0.559600  0.071300  1
  H  H899  1  0.440400  0.511700  0.775100  1
  H  H900  1  0.736600  0.665300  0.224900  1
  H  H901  1  0.510800  0.238900  0.888900  1
  H  H902  1  0.350000  0.621900  0.111100  1
  H  H903  1  0.378100  0.489200  0.728100  1
  H  H904  1  0.761100  0.650000  0.271900  1
  H  H905  1  0.449300  0.272600  0.853900  1
  H  H906  1  0.418700  0.595400  0.146100  1
  H  H907  1  0.404600  0.550700  0.823300  1
  H  H908  1  0.727400  0.581300  0.176700  1
  H  H909  1  0.505300  0.338500  0.897000  1
  H  H910  1  0.441500  0.608300  0.103000  1
  H  H911  1  0.391700  0.494700  0.833200  1
  H  H912  1  0.661500  0.558500  0.166800  1
  H  H913  1  0.438900  0.285300  0.776000  1
  H  H914  1  0.509300  0.662900  0.224000  1
  H  H915  1  0.337100  0.561100  0.846400  1
  H  H916  1  0.714700  0.490700  0.153600  1
  H  H917  1  0.496500  0.321300  0.769600  1
  H  H918  1  0.551700  0.726900  0.230400  1
  H  H919  1  0.273100  0.503500  0.824800  1
  H  H920  1  0.678700  0.448300  0.175200  1
  H  H921  1  0.455200  0.376500  0.800900  1
  H  H922  1  0.575600  0.654300  0.199100  1
  H  H923  1  0.345700  0.544800  0.921300  1
  H  H924  1  0.623500  0.424400  0.078700  1
  H  H925  1  0.482200  0.378600  0.859400  1
  H  H926  1  0.519200  0.622800  0.140600  1
  H  H927  1  0.377200  0.517800  0.896400  1
  H  H928  1  0.621400  0.480800  0.103600  1
  H  H929  1  0.555300  0.423700  0.810000  1
  H  H930  1  0.613700  0.745300  0.190000  1
  H  H931  1  0.254700  0.444700  0.868400  1
  H  H932  1  0.576300  0.386300  0.131600  1
  H  H933  1  0.546100  0.465400  0.851700  1
  H  H934  1  0.613700  0.694400  0.148300  1
  H  H935  1  0.305600  0.453900  0.919300  1
  H  H936  1  0.534600  0.386300  0.080700  1
  H  H937  1  0.610300  0.513000  0.932300  1
  H  H938  1  0.580700  0.678000  0.067700  1
  H  H939  1  0.322000  0.389700  0.902700  1
  H  H940  1  0.487000  0.419300  0.097300  1
  H  H941  1  0.693100  0.583900  0.031000  1
  H  H942  1  0.552900  0.662100  0.969000  1
  H  H943  1  0.337900  0.306900  0.890800  1
  H  H944  1  0.416100  0.447100  0.109200  1
  H  H945  1  0.774100  0.608400  0.104700  1
  H  H946  1  0.503700  0.669400  0.895300  1
  H  H947  1  0.330600  0.225900  0.834300  1
  H  H948  1  0.391600  0.496300  0.165700  1
  H  H949  1  0.748600  0.453300  0.016900  1
  H  H950  1  0.436400  0.731700  0.983100  1
  H  H951  1  0.268300  0.251400  0.704700  1
  H  H952  1  0.546700  0.563600  0.295300  1
  H  H953  1  0.775200  0.467800  0.117800  1
  H  H954  1  0.350000  0.657400  0.882200  1
  H  H955  1  0.342600  0.224800  0.692600  1
  H  H956  1  0.532200  0.650000  0.307400  1
  H  H957  1  0.854700  0.491700  0.196800  1
  H  H958  1  0.294900  0.657900  0.803200  1
  H  H959  1  0.342100  0.145300  0.637000  1
  H  H960  1  0.508300  0.705100  0.363000  1
  H  H961  1  0.881700  0.628700  0.133200  1
  H  H962  1  0.495500  0.748500  0.866800  1
  H  H963  1  0.251500  0.118300  0.747000  1
  H  H964  1  0.371300  0.504500  0.253000  1
  H  H965  1  0.960000  0.559500  0.264300  1
  H  H966  1  0.295200  0.695700  0.735700  1
  H  H967  1  0.304300  0.040000  0.599500  1
  H  H968  1  0.440500  0.704800  0.400500  1
  H  H969  1  0.096400  0.670800  0.322200  1
  H  H970  1  0.348600  0.774200  0.677800  1
  H  H971  1  0.225800  0.903600  0.574400  1
  H  H972  1  0.329200  0.651400  0.425600  1
  H  H973  1  0.052900  0.616100  0.328400  1
  H  H974  1  0.287700  0.724500  0.671600  1
  H  H975  1  0.275500  0.947100  0.563200  1
  H  H976  1  0.383900  0.712300  0.436800  1
  H  H977  1  0.045200  0.679800  0.395000  1
  H  H978  1  0.284800  0.650200  0.605000  1
  H  H979  1  0.349800  0.954800  0.634600  1
  H  H980  1  0.320200  0.715200  0.365400  1
  H  H981  1  0.112500  0.700300  0.414600  1
  H  H982  1  0.285700  0.697900  0.585400  1
  H  H983  1  0.302100  0.887500  0.587800  1
  H  H984  1  0.299700  0.714300  0.412200  1
  H  H985  1  0.114800  0.783200  0.435200  1
  H  H986  1  0.348000  0.679600  0.564800  1
  H  H987  1  0.320400  0.885200  0.668400  1
  H  H988  1  0.216800  0.652000  0.331600  1
  H  H989  1  0.129600  0.772800  0.385000  1
  H  H990  1  0.387800  0.744600  0.615000  1
  H  H991  1  0.255400  0.870400  0.643200  1
  H  H992  1  0.227200  0.612200  0.356800  1
  H  H993  1  0.031800  0.922800  0.897000  1
  H  H994  1  0.025800  0.134800  0.103000  1
  H  H995  1  0.865200  0.968200  0.891000  1
  H  H996  1  0.077200  0.974200  0.109000  1
  H  H997  1  0.053800  0.901700  0.939500  1
  H  H998  1  0.962200  0.114300  0.060500  1
  H  H999  1  0.885700  0.946200  0.847900  1
  H  H1000  1  0.098300  0.037800  0.152100  1
  H  H1001  1  0.947100  0.896200  0.913500  1
  H  H1002  1  0.982700  0.033600  0.086500  1
  H  H1003  1  0.966400  0.052900  0.949100  1
  H  H1004  1  0.103800  0.017300  0.050900  1
  H  H1005  1  0.009000  0.952800  0.963800  1
  H  H1006  1  0.989000  0.045200  0.036200  1
  H  H1007  1  0.954800  0.991000  0.943800  1
  H  H1008  1  0.047200  0.011000  0.056200  1
  H  H1009  1  0.012900  0.894200  0.008500  1
  H  H1010  1  0.885700  0.004400  0.991500  1
  H  H1011  1  0.995600  0.987100  0.881300  1
  H  H1012  1  0.105800  0.114300  0.118700  1
  H  H1013  1  0.956200  0.896500  0.999100  1
  H  H1014  1  0.897400  0.957100  0.000900  1
  H  H1015  1  0.042900  0.043800  0.940300  1
  H  H1016  1  0.103500  0.102600  0.059700  1
  H  H1017  1  0.878600  0.811600  0.976000  1
  H  H1018  1  0.835600  0.902600  0.024000  1
  H  H1019  1  0.097400  0.121400  0.933000  1
  H  H1020  1  0.188400  0.164400  0.067000  1
  H  H1021  1  0.791100  0.715700  0.958200  1
  H  H1022  1  0.757500  0.832900  0.041800  1
  H  H1023  1  0.167100  0.208900  0.924600  1
  H  H1024  1  0.284300  0.242500  0.075400  1
  H  H1025  1  0.732300  0.613300  0.912800  1
  H  H1026  1  0.700500  0.819500  0.087200  1
  H  H1027  1  0.180500  0.267700  0.881000  1
  H  H1028  1  0.386700  0.299500  0.119000  1
  H  H1029  1  0.849100  0.617500  0.856800  1
  H  H1030  1  0.760700  0.992300  0.143200  1
  H  H1031  1  0.007700  0.150900  0.768400  1
  H  H1032  1  0.382500  0.239300  0.231600  1
  H  H1033  1  0.759100  0.528400  0.780900  1
  H  H1034  1  0.747500  0.978200  0.219100  1
  H  H1035  1  0.021800  0.240900  0.769300  1
  H  H1036  1  0.471600  0.252500  0.230700  1
  H  H1037  1  0.698200  0.423400  0.735000  1
  H  H1038  1  0.688400  0.963200  0.265000  1
  H  H1039  1  0.036800  0.301800  0.725200  1
  H  H1040  1  0.576600  0.311600  0.274800  1
  H  H1041  1  0.726700  0.525700  0.909600  1
  H  H1042  1  0.616100  0.817100  0.090400  1
  H  H1043  1  0.182900  0.273300  0.799000  1
  H  H1044  1  0.474300  0.383900  0.201000  1
  H  H1045  1  0.631400  0.329800  0.732800  1
  H  H1046  1  0.597000  0.898600  0.267200  1
  H  H1047  1  0.101400  0.368600  0.698400  1
  H  H1048  1  0.670200  0.403000  0.301600  1
  H  H1049  1  0.588400  0.245600  0.786200  1
  H  H1050  1  0.459400  0.802200  0.213800  1
  H  H1051  1  0.197800  0.411600  0.657200  1
  H  H1052  1  0.754400  0.540600  0.342800  1
  H  H1053  1  0.575500  0.245600  0.727900  1
  H  H1054  1  0.517700  0.847600  0.272100  1
  H  H1055  1  0.152400  0.424500  0.670100  1
  H  H1056  1  0.754400  0.482300  0.329900  1
  H  H1057  1  0.486900  0.190100  0.723200  1
  H  H1058  1  0.466900  0.763700  0.276800  1
  H  H1059  1  0.236300  0.513100  0.703200  1
  H  H1060  1  0.809900  0.533100  0.296800  1
  H  H1061  1  0.494700  0.250200  0.726700  1
  H  H1062  1  0.523500  0.768000  0.273300  1
  H  H1063  1  0.232000  0.505300  0.755500  1
  H  H1064  1  0.749800  0.476500  0.244500  1
  H  H1065  1  0.452900  0.213700  0.781000  1
  H  H1066  1  0.432700  0.671900  0.219000  1
  H  H1067  1  0.328100  0.547100  0.760800  1
  H  H1068  1  0.786300  0.567300  0.239200  1
  H  H1069  1  0.515500  0.228800  0.819100  1
  H  H1070  1  0.409700  0.696400  0.180900  1
  H  H1071  1  0.303600  0.484500  0.713300  1
  H  H1072  1  0.771200  0.590300  0.286700  1
  H  H1073  1  0.065500  0.972800  0.286100  1
  H  H1074  1  0.686700  0.779400  0.713900  1
  H  H1075  1  0.220600  0.934500  0.907300  1
  H  H1076  1  0.027200  0.313300  0.092700  1
  H  H1077  1  0.036200  0.911700  0.232900  1
  H  H1078  1  0.678800  0.803300  0.767100  1
  H  H1079  1  0.196700  0.963800  0.875500  1
  H  H1080  1  0.088300  0.321200  0.124500  1
  H  H1081  1  0.092600  0.934300  0.287700  1
  H  H1082  1  0.646600  0.804900  0.712300  1
  H  H1083  1  0.195100  0.907400  0.841700  1
  H  H1084  1  0.065700  0.353400  0.158300  1
  H  H1085  1  0.884500  0.270200  0.169500  1
  H  H1086  1  0.100700  0.715000  0.830500  1
  H  H1087  1  0.285000  0.115500  0.385700  1
  H  H1088  1  0.729800  0.899300  0.614300  1
  H  H1089  1  0.857400  0.301300  0.144100  1
  H  H1090  1  0.157200  0.713300  0.855900  1
  H  H1091  1  0.286700  0.142600  0.443900  1
  H  H1092  1  0.698700  0.842800  0.556100  1
  H  H1093  1  0.897000  0.331100  0.209300  1
  H  H1094  1  0.121800  0.687700  0.790700  1
  H  H1095  1  0.312300  0.103000  0.434100  1
  H  H1096  1  0.668900  0.878200  0.565900  1
  H  H1097  1  0.894900  0.551400  0.957300  1
  H  H1098  1  0.594100  0.937600  0.042700  1
  H  H1099  1  0.062400  0.105100  0.656500  1
  H  H1100  1  0.448600  0.405900  0.343500  1
  H  H1101  1  0.933700  0.577000  0.022100  1
  H  H1102  1  0.554900  0.911600  0.977900  1
  H  H1103  1  0.088400  0.066300  0.643300  1
  H  H1104  1  0.423000  0.445100  0.356700  1
  H  H1105  1  0.949400  0.619700  0.994100  1
  H  H1106  1  0.625600  0.955300  0.005900  1
  H  H1107  1  0.044700  0.050600  0.670300  1
  H  H1108  1  0.380300  0.374400  0.329700  1
  H  H1109  1  0.876500  0.388800  0.072500  1
  H  H1110  1  0.316300  0.804000  0.927500  1
  H  H1111  1  0.196000  0.123500  0.512300  1
  H  H1112  1  0.611200  0.683700  0.487700  1
  H  H1113  1  0.826200  0.397900  0.077500  1
  H  H1114  1  0.320400  0.748700  0.922500  1
  H  H1115  1  0.251300  0.173800  0.571700  1
  H  H1116  1  0.602100  0.679600  0.428300  1
  H  H1117  1  0.891400  0.438100  0.128700  1
  H  H1118  1  0.309400  0.762700  0.871300  1
  H  H1119  1  0.237300  0.108600  0.546700  1
  H  H1120  1  0.561900  0.690600  0.453300  1
  H  H1121  1  0.194600  0.798400  0.142400  1
  H  H1122  1  0.656000  0.052200  0.857600  1
  H  H1123  1  0.947800  0.805400  0.603800  1
  H  H1124  1  0.201600  0.344000  0.396200  1
  H  H1125  1  0.180900  0.787300  0.080600  1
  H  H1126  1  0.706700  0.100300  0.919400  1
  H  H1127  1  0.899700  0.819100  0.606400  1
  H  H1128  1  0.212700  0.293300  0.393600  1
  H  H1129  1  0.197400  0.748400  0.103200  1
  H  H1130  1  0.645200  0.094200  0.896800  1
  H  H1131  1  0.905800  0.802600  0.551000  1
  H  H1132  1  0.251600  0.354800  0.449000  1
  H  H1133  1  0.969100  0.431100  0.315000  1
  H  H1134  1  0.116100  0.654100  0.685000  1
  H  H1135  1  0.345900  0.030900  0.462000  1
  H  H1136  1  0.568900  0.883900  0.538000  1
  H  H1137  1  0.007700  0.502000  0.345100  1
  H  H1138  1  0.156900  0.662600  0.654900  1
  H  H1139  1  0.337400  0.992300  0.494300  1
  H  H1140  1  0.498000  0.843100  0.505700  1
  H  H1141  1  0.036300  0.468000  0.325900  1
  H  H1142  1  0.142100  0.710400  0.674100  1
  H  H1143  1  0.289600  0.963700  0.431700  1
  H  H1144  1  0.532000  0.857900  0.568300  1
  N  N1145  1  0.098560  0.411880  0.930660  1
  N  N1146  1  0.481220  0.167900  0.069340  1
  N  N1147  1  0.832100  0.901440  0.313320  1
  N  N1148  1  0.588120  0.518780  0.686680  1
  N  N1149  1  0.145850  0.537400  0.016050  1
  N  N1150  1  0.521350  0.129800  0.983950  1
  N  N1151  1  0.870200  0.854150  0.391550  1
  N  N1152  1  0.462600  0.478650  0.608450  1
  N  N1153  1  0.072610  0.557110  0.952740  1
  N  N1154  1  0.604370  0.119870  0.047260  1
  N  N1155  1  0.880130  0.927390  0.484500  1
  N  N1156  1  0.442890  0.395630  0.515500  1
  N  N1157  1  0.019270  0.436850  0.859160  1
  N  N1158  1  0.577690  0.160110  0.140840  1
  N  N1159  1  0.839890  0.980730  0.417580  1
  N  N1160  1  0.563150  0.422310  0.582420  1
  N  N1161  1  0.938420  0.419040  0.899260  1
  N  N1162  1  0.519780  0.039160  0.100740  1
  N  N1163  1  0.960840  0.061580  0.480620  1
  N  N1164  1  0.580960  0.480220  0.519380  1
  N  N1165  1  0.002320  0.379730  0.968710  1
  N  N1166  1  0.411020  0.033610  0.031290  1
  N  N1167  1  0.966390  0.997680  0.377410  1
  N  N1168  1  0.620270  0.588980  0.622590  1
  N  N1169  1  0.038990  0.491280  0.037810  1
  N  N1170  1  0.453470  0.001180  0.962190  1
  N  N1171  1  0.998820  0.961010  0.452290  1
  N  N1172  1  0.508720  0.546530  0.547710  1
  N  N1173  1  0.054700  0.768600  0.366900  1
  N  N1174  1  0.401700  0.687800  0.633100  1
  N  N1175  1  0.312200  0.945300  0.713900  1
  N  N1176  1  0.231400  0.598300  0.286100  1
  N  N1177  1  0.011400  0.642500  0.284900  1
  N  N1178  1  0.357600  0.726500  0.715100  1
  N  N1179  1  0.273500  0.988600  0.631100  1
  N  N1180  1  0.357500  0.642400  0.368900  1
  N  N1181  1  0.921700  0.614980  0.189880  1
  N  N1182  1  0.425100  0.731820  0.810120  1
  N  N1183  1  0.268180  0.078300  0.693280  1
  N  N1184  1  0.385020  0.574900  0.306720  1
  N  N1185  1  0.114100  0.802200  0.294300  1
  N  N1186  1  0.507900  0.819800  0.705700  1
  N  N1187  1  0.180200  0.885900  0.688100  1
  N  N1188  1  0.197800  0.492100  0.311900  1
  N  N1189  1  0.068330  0.690190  0.217520  1
  N  N1190  1  0.472670  0.850810  0.782480  1
  N  N1191  1  0.149190  0.931670  0.621860  1
  N  N1192  1  0.309810  0.527330  0.378140  1
  N  N1193  1  0.939300  0.724770  0.263670  1
  N  N1194  1  0.461100  0.675630  0.736330  1
  N  N1195  1  0.324370  0.060700  0.785470  1
  N  N1196  1  0.275230  0.538900  0.214530  1
  N  N1197  1  0.988670  0.750290  0.196780  1
  N  N1198  1  0.553510  0.791890  0.803220  1
  N  N1199  1  0.208110  0.011330  0.761620  1
  N  N1200  1  0.249710  0.446490  0.238380  1
  N  N1201  1  0.513310  0.301100  0.833010  1
  N  N1202  1  0.468090  0.680300  0.166990  1
  N  N1203  1  0.319700  0.486690  0.787790  1
  N  N1204  1  0.698900  0.531910  0.212210  1
  N  N1205  1  0.595100  0.440250  0.888950  1
  N  N1206  1  0.551300  0.706150  0.111050  1
  N  N1207  1  0.293850  0.404900  0.845150  1
  N  N1208  1  0.559750  0.448700  0.154850  1
  N  N1209  1  0.691000  0.465290  0.976090  1
  N  N1210  1  0.489200  0.714910  0.023910  1
  N  N1211  1  0.285090  0.309000  0.774290  1
  N  N1212  1  0.534710  0.510800  0.225710  1
  N  N1213  1  0.609510  0.324330  0.790240  1
  N  N1214  1  0.534090  0.819270  0.209760  1
  N  N1215  1  0.180730  0.390490  0.714820  1
  N  N1216  1  0.675670  0.465910  0.285180  1
  N  N1217  1  0.685170  0.445370  0.846900  1
  N  N1218  1  0.598470  0.838270  0.153100  1
  N  N1219  1  0.161730  0.314830  0.760200  1
  N  N1220  1  0.554630  0.401530  0.239800  1
  N  N1221  1  0.620990  0.331050  0.934720  1
  N  N1222  1  0.396330  0.686270  0.065280  1
  N  N1223  1  0.313730  0.379010  0.710060  1
  N  N1224  1  0.668950  0.603670  0.289940  1
  N  N1225  1  0.706680  0.360920  0.900800  1
  N  N1226  1  0.460120  0.805880  0.099200  1
  N  N1227  1  0.194120  0.293320  0.654240  1
  N  N1228  1  0.639080  0.539880  0.345760  1
  N  N1229  1  0.983060  0.833960  0.866940  1
  N  N1230  1  0.967020  0.116120  0.133060  1
  N  N1231  1  0.883880  0.016940  0.850900  1
  N  N1232  1  0.166040  0.032980  0.149100  1
  N  N1233  1  0.901600  0.698990  0.803930  1
  N  N1234  1  0.895060  0.097670  0.196070  1
  N  N1235  1  0.902330  0.098400  0.797390  1
  N  N1236  1  0.301010  0.104940  0.202610  1
  N  N1237  1  0.969800  0.677450  0.869530  1
  N  N1238  1  0.807920  0.100270  0.130470  1
  N  N1239  1  0.899730  0.030200  0.707650  1
  N  N1240  1  0.322550  0.192080  0.292350  1
  N  N1241  1  0.063870  0.809890  0.936320  1
  N  N1242  1  0.873570  0.127550  0.063680  1
  N  N1243  1  0.872450  0.936130  0.746020  1
  N  N1244  1  0.190110  0.126430  0.253980  1
  N  N1245  1  0.011480  0.778340  0.000180  1
  N  N1246  1  0.778160  0.011300  0.999820  1
  N  N1247  1  0.988700  0.988520  0.766860  1
  N  N1248  1  0.221660  0.221840  0.233140  1
  N  N1249  1  0.935910  0.816550  0.950660  1
  N  N1250  1  0.865890  0.985250  0.049340  1
  N  N1251  1  0.014750  0.064090  0.880640  1
  N  N1252  1  0.183450  0.134110  0.119360  1
  N  N1253  1  0.868560  0.695140  0.900460  1
  N  N1254  1  0.794680  0.968100  0.099540  1
  N  N1255  1  0.031900  0.131440  0.826580  1
  N  N1256  1  0.304860  0.205320  0.173420  1
  N  N1257  1  0.988500  0.874400  0.309500  1
  N  N1258  1  0.564900  0.679000  0.690500  1
  N  N1259  1  0.321000  0.011500  0.885900  1
  N  N1260  1  0.125600  0.435100  0.114100  1
  N  N1261  1  0.988100  0.369500  0.168600  1
  N  N1262  1  0.200900  0.819500  0.831400  1
  N  N1263  1  0.180500  0.011900  0.381400  1
  N  N1264  1  0.630500  0.799100  0.618600  1
  N  N1265  1  0.847100  0.614700  0.011000  1
  N  N1266  1  0.603700  0.836100  0.989000  1
  N  N1267  1  0.163900  0.152900  0.767600  1
  N  N1268  1  0.385300  0.396300  0.232400  1
  N  N1269  1  0.899700  0.497900  0.056600  1
  N  N1270  1  0.441300  0.843100  0.943400  1
  N  N1271  1  0.156900  0.100300  0.598200  1
  N  N1272  1  0.502100  0.558700  0.401800  1
  N  N1273  1  0.067500  0.688500  0.069200  1
  N  N1274  1  0.619300  0.998300  0.930800  1
  N  N1275  1  0.001700  0.932500  0.621000  1
  N  N1276  1  0.311500  0.380700  0.379000  1
  N  N1277  1  0.974400  0.482300  0.229300  1
  N  N1278  1  0.253000  0.745100  0.770700  1
  N  N1279  1  0.254900  0.025600  0.507900  1
  N  N1280  1  0.517700  0.747000  0.492100  1
  O  O1281  1  0.449000  0.283200  0.019600  1
  O  O1282  1  0.263600  0.429400  0.980400  1
  O  O1283  1  0.570600  0.551000  0.834200  1
  O  O1284  1  0.716800  0.736400  0.165800  1
  O  O1285  1  0.420500  0.329000  0.969900  1
  O  O1286  1  0.359100  0.450600  0.030100  1
  O  O1287  1  0.549400  0.579500  0.908500  1
  O  O1288  1  0.671000  0.640900  0.091500  1
  O  O1289  1  0.383300  0.226910  0.921610  1
  O  O1290  1  0.305300  0.461690  0.078390  1
  O  O1291  1  0.538310  0.616700  0.843610  1
  O  O1292  1  0.773090  0.694700  0.156390  1
  O  O1293  1  0.692200  0.706000  0.562400  1
  O  O1294  1  0.143600  0.129800  0.437600  1
  O  O1295  1  0.870200  0.307800  0.013800  1
  O  O1296  1  0.294000  0.856400  0.986200  1
  O  O1297  1  0.784900  0.803200  0.605300  1
  O  O1298  1  0.197900  0.179600  0.394700  1
  O  O1299  1  0.820400  0.215100  0.018300  1
  O  O1300  1  0.196800  0.802100  0.981700  1
  O  O1301  1  0.752710  0.756320  0.660210  1
  O  O1302  1  0.096110  0.092500  0.339790  1
  O  O1303  1  0.907500  0.247290  0.003610  1
  O  O1304  1  0.243680  0.903890  0.996390  1
  O  O1305  1  0.962600  0.952200  0.098400  1
  O  O1306  1  0.853800  0.864200  0.901600  1
  O  O1307  1  0.135800  0.037400  0.989600  1
  O  O1308  1  0.047800  0.146200  0.010400  1
  O  O1309  1  0.996620  0.899010  0.135190  1
  O  O1310  1  0.763820  0.861430  0.864810  1
  O  O1311  1  0.138570  0.003380  0.902390  1
  O  O1312  1  0.100990  0.236180  0.097610  1
  O  O1313  1  0.892900  0.849710  0.073610  1
  O  O1314  1  0.776100  0.819290  0.926390  1
  O  O1315  1  0.180710  0.107100  0.956810  1
  O  O1316  1  0.150290  0.223900  0.043190  1
  O  O1317  1  0.293900  0.638100  0.922200  1
  O  O1318  1  0.715900  0.371700  0.077800  1
  O  O1319  1  0.628300  0.706100  0.344200  1
  O  O1320  1  0.361900  0.284100  0.655800  1
  O  O1321  1  0.210900  0.543000  0.853500  1
  O  O1322  1  0.689500  0.357400  0.146500  1
  O  O1323  1  0.642600  0.789100  0.332100  1
  O  O1324  1  0.457000  0.310500  0.667900  1
  O  O1325  1  0.215760  0.586860  0.941500  1
  O  O1326  1  0.645360  0.274260  0.058500  1
  O  O1327  1  0.725740  0.784240  0.371100  1
  O  O1328  1  0.413140  0.354640  0.628900  1
  O  O1329  1  0.329300  0.704800  0.157700  1
  O  O1330  1  0.547100  0.171600  0.842300  1
  O  O1331  1  0.828400  0.670700  0.375500  1
  O  O1332  1  0.295200  0.452900  0.624500  1
  O  O1333  1  0.245300  0.704700  0.149600  1
  O  O1334  1  0.555100  0.095700  0.850400  1
  O  O1335  1  0.904300  0.754700  0.459400  1
  O  O1336  1  0.295300  0.444900  0.540600  1
  O  O1337  1  0.290800  0.741500  0.103700  1
  O  O1338  1  0.637800  0.187100  0.896300  1
  O  O1339  1  0.812900  0.709200  0.450700  1
  O  O1340  1  0.258500  0.362200  0.549300  1
  O  O1341  1  0.921500  0.209300  0.746200  1
  O  O1342  1  0.463100  0.175300  0.253800  1
  O  O1343  1  0.824700  0.078500  0.287800  1
  O  O1344  1  0.790700  0.536900  0.712200  1
  O  O1345  1  0.932100  0.293400  0.740500  1
  O  O1346  1  0.552900  0.191600  0.259500  1
  O  O1347  1  0.808400  0.067900  0.361300  1
  O  O1348  1  0.706600  0.447100  0.638700  1
  O  O1349  1  0.887700  0.258000  0.791900  1
  O  O1350  1  0.466100  0.095800  0.208100  1
  O  O1351  1  0.904200  0.112300  0.370300  1
  O  O1352  1  0.742000  0.533900  0.629700  1
  S  S1353  1  0.406470  0.276040  0.972850  1
  S  S1354  1  0.303190  0.433620  0.027150  1
  S  S1355  1  0.566380  0.593530  0.869570  1
  S  S1356  1  0.723960  0.696810  0.130430  1
  S  S1357  1  0.749150  0.748520  0.607210  1
  S  S1358  1  0.141310  0.141940  0.392790  1
  S  S1359  1  0.858060  0.250850  0.999370  1
  S  S1360  1  0.251480  0.858690  0.000630  1
  S  S1361  1  0.949260  0.904350  0.113070  1
  S  S1362  1  0.791280  0.836190  0.886930  1
  S  S1363  1  0.163810  0.050740  0.955090  1
  S  S1364  1  0.095650  0.208720  0.044910  1
  S  S1365  1  0.233690  0.595530  0.901740  1
  S  S1366  1  0.693790  0.331950  0.098260  1
  S  S1367  1  0.668050  0.766310  0.361840  1
  S  S1368  1  0.404470  0.306210  0.638160  1
  S  S1369  1  0.301120  0.733660  0.152540  1
  S  S1370  1  0.581120  0.148580  0.847460  1
  S  S1371  1  0.851420  0.698880  0.432540  1
  S  S1372  1  0.266340  0.418880  0.567460  1
  S  S1373  1  0.899910  0.243450  0.747540  1
  S  S1374  1  0.495910  0.152370  0.252460  1
  S  S1375  1  0.847630  0.100090  0.343540  1
  S  S1376  1  0.756550  0.504090  0.656460  1
