# generated using pymatgen
data_Cd2H76C98S6N13(OF)18
_symmetry_space_group_name_H-M   'P 1'
_cell_length_a   16.21000000
_cell_length_b   17.00100000
_cell_length_c   31.54100000
_cell_angle_alpha   95.76000000
_cell_angle_beta   90.00000000
_cell_angle_gamma   90.00000000
_symmetry_Int_Tables_number   1
_chemical_formula_structural   Cd2H76C98S6N13(OF)18
_chemical_formula_sum   'Cd8 H304 C392 S24 N52 O72 F72'
_cell_volume   8648.37755300
_cell_formula_units_Z   4
loop_
 _symmetry_equiv_pos_site_id
 _symmetry_equiv_pos_as_xyz
  1  'x, y, z'
loop_
 _atom_site_type_symbol
 _atom_site_label
 _atom_site_symmetry_multiplicity
 _atom_site_fract_x
 _atom_site_fract_y
 _atom_site_fract_z
 _atom_site_occupancy
  Cd  Cd1  1  0.774456  0.476951  0.877427  1.0
  Cd  Cd2  1  0.774456  0.523049  0.622573  1.0
  Cd  Cd3  1  0.274456  0.976951  0.877427  1.0
  Cd  Cd4  1  0.274456  0.023049  0.622573  1.0
  Cd  Cd5  1  0.225544  0.523049  0.122573  1.0
  Cd  Cd6  1  0.225544  0.476951  0.377427  1.0
  Cd  Cd7  1  0.725544  0.023049  0.122573  1.0
  Cd  Cd8  1  0.725544  0.976951  0.377427  1.0
  H  H9  1  0.600300  0.313400  0.854100  1
  H  H10  1  0.600300  0.686600  0.645900  1
  H  H11  1  0.100300  0.813400  0.854100  1
  H  H12  1  0.100300  0.186600  0.645900  1
  H  H13  1  0.399700  0.686600  0.145900  1
  H  H14  1  0.399700  0.313400  0.354100  1
  H  H15  1  0.899700  0.186600  0.145900  1
  H  H16  1  0.899700  0.813400  0.354100  1
  H  H17  1  0.470300  0.355300  0.833300  1
  H  H18  1  0.470300  0.644700  0.666700  1
  H  H19  1  0.970300  0.855300  0.833300  1
  H  H20  1  0.970300  0.144700  0.666700  1
  H  H21  1  0.529700  0.644700  0.166700  1
  H  H22  1  0.529700  0.355300  0.333300  1
  H  H23  1  0.029700  0.144700  0.166700  1
  H  H24  1  0.029700  0.855300  0.333300  1
  H  H25  1  0.385100  0.428100  0.882600  1
  H  H26  1  0.385100  0.571900  0.617400  1
  H  H27  1  0.885100  0.928100  0.882600  1
  H  H28  1  0.885100  0.071900  0.617400  1
  H  H29  1  0.614900  0.571900  0.117400  1
  H  H30  1  0.614900  0.428100  0.382600  1
  H  H31  1  0.114900  0.071900  0.117400  1
  H  H32  1  0.114900  0.928100  0.382600  1
  H  H33  1  0.430000  0.459100  0.952800  1
  H  H34  1  0.430000  0.540900  0.547200  1
  H  H35  1  0.930000  0.959100  0.952800  1
  H  H36  1  0.930000  0.040900  0.547200  1
  H  H37  1  0.570000  0.540900  0.047200  1
  H  H38  1  0.570000  0.459100  0.452800  1
  H  H39  1  0.070000  0.040900  0.047200  1
  H  H40  1  0.070000  0.959100  0.452800  1
  H  H41  1  0.560000  0.417200  0.973700  1
  H  H42  1  0.560000  0.582800  0.526300  1
  H  H43  1  0.060000  0.917200  0.973700  1
  H  H44  1  0.060000  0.082800  0.526300  1
  H  H45  1  0.440000  0.582800  0.026300  1
  H  H46  1  0.440000  0.417200  0.473700  1
  H  H47  1  0.940000  0.082800  0.026300  1
  H  H48  1  0.940000  0.917200  0.473700  1
  H  H49  1  0.916300  0.843400  0.577500  1.0
  H  H50  1  0.916300  0.156600  0.922500  1.0
  H  H51  1  0.416300  0.343400  0.577500  1.0
  H  H52  1  0.416300  0.656600  0.922500  1.0
  H  H53  1  0.083700  0.156600  0.422500  1.0
  H  H54  1  0.083700  0.843400  0.077500  1.0
  H  H55  1  0.583700  0.656600  0.422500  1.0
  H  H56  1  0.583700  0.343400  0.077500  1.0
  H  H57  1  0.987300  0.765000  0.622600  1.0
  H  H58  1  0.987300  0.235000  0.877400  1.0
  H  H59  1  0.487300  0.265000  0.622600  1.0
  H  H60  1  0.487300  0.735000  0.877400  1.0
  H  H61  1  0.012700  0.235000  0.377400  1.0
  H  H62  1  0.012700  0.765000  0.122600  1.0
  H  H63  1  0.512700  0.735000  0.377400  1.0
  H  H64  1  0.512700  0.265000  0.122600  1.0
  H  H65  1  0.987100  0.627800  0.607700  1.0
  H  H66  1  0.987100  0.372200  0.892300  1.0
  H  H67  1  0.487100  0.127800  0.607700  1.0
  H  H68  1  0.487100  0.872200  0.892300  1.0
  H  H69  1  0.012900  0.372200  0.392300  1.0
  H  H70  1  0.012900  0.627800  0.107700  1.0
  H  H71  1  0.512900  0.872200  0.392300  1.0
  H  H72  1  0.512900  0.127800  0.107700  1.0
  H  H73  1  0.851700  0.648000  0.501600  1.0
  H  H74  1  0.851700  0.352000  0.998400  1.0
  H  H75  1  0.351700  0.148000  0.501600  1.0
  H  H76  1  0.351700  0.852000  0.998400  1.0
  H  H77  1  0.148300  0.352000  0.498400  1.0
  H  H78  1  0.148300  0.648000  0.001600  1.0
  H  H79  1  0.648300  0.852000  0.498400  1.0
  H  H80  1  0.648300  0.148000  0.001600  1.0
  H  H81  1  0.849600  0.785200  0.517700  1.0
  H  H82  1  0.849600  0.214800  0.982300  1.0
  H  H83  1  0.349600  0.285200  0.517700  1.0
  H  H84  1  0.349600  0.714800  0.982300  1.0
  H  H85  1  0.150400  0.214800  0.482300  1.0
  H  H86  1  0.150400  0.785200  0.017700  1.0
  H  H87  1  0.650400  0.714800  0.482300  1.0
  H  H88  1  0.650400  0.285200  0.017700  1.0
  H  H89  1  0.877700  0.520500  0.520700  1.0
  H  H90  1  0.877700  0.479500  0.979300  1.0
  H  H91  1  0.377700  0.020500  0.520700  1.0
  H  H92  1  0.377700  0.979500  0.979300  1.0
  H  H93  1  0.122300  0.479500  0.479300  1.0
  H  H94  1  0.122300  0.520500  0.020700  1.0
  H  H95  1  0.622300  0.979500  0.479300  1.0
  H  H96  1  0.622300  0.020500  0.020700  1.0
  H  H97  1  0.973000  0.517300  0.534000  1.0
  H  H98  1  0.973000  0.482700  0.966000  1.0
  H  H99  1  0.473000  0.017300  0.534000  1.0
  H  H100  1  0.473000  0.982700  0.966000  1.0
  H  H101  1  0.027000  0.482700  0.466000  1.0
  H  H102  1  0.027000  0.517300  0.034000  1.0
  H  H103  1  0.527000  0.982700  0.466000  1.0
  H  H104  1  0.527000  0.017300  0.034000  1.0
  H  H105  1  0.993800  0.433700  0.579100  1.0
  H  H106  1  0.993800  0.566300  0.920900  1.0
  H  H107  1  0.493800  0.933700  0.579100  1.0
  H  H108  1  0.493800  0.066300  0.920900  1.0
  H  H109  1  0.006200  0.566300  0.420900  1.0
  H  H110  1  0.006200  0.433700  0.079100  1.0
  H  H111  1  0.506200  0.066300  0.420900  1.0
  H  H112  1  0.506200  0.933700  0.079100  1.0
  H  H113  1  0.033700  0.344900  0.634700  1.0
  H  H114  1  0.033700  0.655100  0.865300  1.0
  H  H115  1  0.533700  0.844900  0.634700  1.0
  H  H116  1  0.533700  0.155100  0.865300  1.0
  H  H117  1  0.966300  0.655100  0.365300  1.0
  H  H118  1  0.966300  0.344900  0.134700  1.0
  H  H119  1  0.466300  0.155100  0.365300  1.0
  H  H120  1  0.466300  0.844900  0.134700  1.0
  H  H121  1  0.007200  0.295000  0.700500  1.0
  H  H122  1  0.007200  0.705000  0.799500  1.0
  H  H123  1  0.507200  0.795000  0.700500  1.0
  H  H124  1  0.507200  0.205000  0.799500  1.0
  H  H125  1  0.992800  0.705000  0.299500  1.0
  H  H126  1  0.992800  0.295000  0.200500  1.0
  H  H127  1  0.492800  0.205000  0.299500  1.0
  H  H128  1  0.492800  0.795000  0.200500  1.0
  H  H129  1  0.790000  0.411500  0.705100  1.0
  H  H130  1  0.790000  0.588500  0.794900  1.0
  H  H131  1  0.290000  0.911500  0.705100  1.0
  H  H132  1  0.290000  0.088500  0.794900  1.0
  H  H133  1  0.210000  0.588500  0.294900  1.0
  H  H134  1  0.210000  0.411500  0.205100  1.0
  H  H135  1  0.710000  0.088500  0.294900  1.0
  H  H136  1  0.710000  0.911500  0.205100  1.0
  H  H137  1  0.691700  0.463300  0.780100  1.0
  H  H138  1  0.691700  0.536700  0.719900  1.0
  H  H139  1  0.191700  0.963300  0.780100  1.0
  H  H140  1  0.191700  0.036700  0.719900  1.0
  H  H141  1  0.308300  0.536700  0.219900  1.0
  H  H142  1  0.308300  0.463300  0.280100  1.0
  H  H143  1  0.808300  0.036700  0.219900  1.0
  H  H144  1  0.808300  0.963300  0.280100  1.0
  H  H145  1  0.460600  0.551800  0.783200  1.0
  H  H146  1  0.460600  0.448200  0.716800  1.0
  H  H147  1  0.960600  0.051800  0.783200  1.0
  H  H148  1  0.960600  0.948200  0.716800  1.0
  H  H149  1  0.539400  0.448200  0.216800  1.0
  H  H150  1  0.539400  0.551800  0.283200  1.0
  H  H151  1  0.039400  0.948200  0.216800  1.0
  H  H152  1  0.039400  0.051800  0.283200  1.0
  H  H153  1  0.476500  0.582300  0.857200  1.0
  H  H154  1  0.476500  0.417700  0.642800  1.0
  H  H155  1  0.976500  0.082300  0.857200  1.0
  H  H156  1  0.976500  0.917700  0.642800  1.0
  H  H157  1  0.523500  0.417700  0.142800  1.0
  H  H158  1  0.523500  0.582300  0.357200  1.0
  H  H159  1  0.023500  0.917700  0.142800  1.0
  H  H160  1  0.023500  0.082300  0.357200  1.0
  H  H161  1  0.570700  0.598400  0.921200  1.0
  H  H162  1  0.570700  0.401600  0.578800  1.0
  H  H163  1  0.070700  0.098400  0.921200  1.0
  H  H164  1  0.070700  0.901600  0.578800  1.0
  H  H165  1  0.429300  0.401600  0.078800  1.0
  H  H166  1  0.429300  0.598400  0.421200  1.0
  H  H167  1  0.929300  0.901600  0.078800  1.0
  H  H168  1  0.929300  0.098400  0.421200  1.0
  H  H169  1  0.706500  0.544500  0.984400  1.0
  H  H170  1  0.706500  0.455500  0.515600  1.0
  H  H171  1  0.206500  0.044500  0.984400  1.0
  H  H172  1  0.206500  0.955500  0.515600  1.0
  H  H173  1  0.293500  0.455500  0.015600  1.0
  H  H174  1  0.293500  0.544500  0.484400  1.0
  H  H175  1  0.793500  0.955500  0.015600  1.0
  H  H176  1  0.793500  0.044500  0.484400  1.0
  H  H177  1  0.645600  0.616400  0.977400  1.0
  H  H178  1  0.645600  0.383600  0.522600  1.0
  H  H179  1  0.145600  0.116400  0.977400  1.0
  H  H180  1  0.145600  0.883600  0.522600  1.0
  H  H181  1  0.354400  0.383600  0.022600  1.0
  H  H182  1  0.354400  0.616400  0.477400  1.0
  H  H183  1  0.854400  0.883600  0.022600  1.0
  H  H184  1  0.854400  0.116400  0.477400  1.0
  H  H185  1  0.739200  0.693300  0.912600  1.0
  H  H186  1  0.739200  0.306700  0.587400  1.0
  H  H187  1  0.239200  0.193300  0.912600  1.0
  H  H188  1  0.239200  0.806700  0.587400  1.0
  H  H189  1  0.260800  0.306700  0.087400  1.0
  H  H190  1  0.260800  0.693300  0.412600  1.0
  H  H191  1  0.760800  0.806700  0.087400  1.0
  H  H192  1  0.760800  0.193300  0.412600  1.0
  H  H193  1  0.852800  0.775000  0.913300  1.0
  H  H194  1  0.852800  0.225000  0.586700  1.0
  H  H195  1  0.352800  0.275000  0.913300  1.0
  H  H196  1  0.352800  0.725000  0.586700  1.0
  H  H197  1  0.147200  0.225000  0.086700  1.0
  H  H198  1  0.147200  0.775000  0.413300  1.0
  H  H199  1  0.647200  0.725000  0.086700  1.0
  H  H200  1  0.647200  0.275000  0.413300  1.0
  H  H201  1  0.818200  0.612200  0.021900  1.0
  H  H202  1  0.818200  0.387800  0.478100  1.0
  H  H203  1  0.318200  0.112200  0.021900  1.0
  H  H204  1  0.318200  0.887800  0.478100  1.0
  H  H205  1  0.181800  0.387800  0.978100  1.0
  H  H206  1  0.181800  0.612200  0.521900  1.0
  H  H207  1  0.681800  0.887800  0.978100  1.0
  H  H208  1  0.681800  0.112200  0.521900  1.0
  H  H209  1  0.933300  0.693600  0.021200  1.0
  H  H210  1  0.933300  0.306400  0.478800  1.0
  H  H211  1  0.433300  0.193600  0.021200  1.0
  H  H212  1  0.433300  0.806400  0.478800  1.0
  H  H213  1  0.066700  0.306400  0.978800  1.0
  H  H214  1  0.066700  0.693600  0.521200  1.0
  H  H215  1  0.566700  0.806400  0.978800  1.0
  H  H216  1  0.566700  0.193600  0.521200  1.0
  H  H217  1  0.952700  0.773100  0.965800  1.0
  H  H218  1  0.952700  0.226900  0.534200  1.0
  H  H219  1  0.452700  0.273100  0.965800  1.0
  H  H220  1  0.452700  0.726900  0.534200  1.0
  H  H221  1  0.047300  0.226900  0.034200  1.0
  H  H222  1  0.047300  0.773100  0.465800  1.0
  H  H223  1  0.547300  0.726900  0.034200  1.0
  H  H224  1  0.547300  0.273100  0.465800  1.0
  H  H225  1  0.863600  0.442800  0.778500  1.0
  H  H226  1  0.863600  0.557200  0.721500  1.0
  H  H227  1  0.363600  0.942800  0.778500  1.0
  H  H228  1  0.363600  0.057200  0.721500  1.0
  H  H229  1  0.136400  0.557200  0.221500  1.0
  H  H230  1  0.136400  0.442800  0.278500  1.0
  H  H231  1  0.636400  0.057200  0.221500  1.0
  H  H232  1  0.636400  0.942800  0.278500  1.0
  H  H233  1  0.752600  0.240600  0.877300  1.0
  H  H234  1  0.752600  0.759400  0.622700  1.0
  H  H235  1  0.252600  0.740600  0.877300  1.0
  H  H236  1  0.252600  0.259400  0.622700  1.0
  H  H237  1  0.247400  0.759400  0.122700  1.0
  H  H238  1  0.247400  0.240600  0.377300  1.0
  H  H239  1  0.747400  0.259400  0.122700  1.0
  H  H240  1  0.747400  0.740600  0.377300  1.0
  H  H241  1  0.886000  0.209800  0.744800  1.0
  H  H242  1  0.886000  0.790200  0.755200  1.0
  H  H243  1  0.386000  0.709800  0.744800  1.0
  H  H244  1  0.386000  0.290200  0.755200  1.0
  H  H245  1  0.114000  0.790200  0.255200  1.0
  H  H246  1  0.114000  0.209800  0.244800  1.0
  H  H247  1  0.614000  0.290200  0.255200  1.0
  H  H248  1  0.614000  0.709800  0.244800  1.0
  H  H249  1  0.828200  0.187400  0.810900  1.0
  H  H250  1  0.828200  0.812600  0.689100  1.0
  H  H251  1  0.328200  0.687400  0.810900  1.0
  H  H252  1  0.328200  0.312600  0.689100  1.0
  H  H253  1  0.171800  0.812600  0.189100  1.0
  H  H254  1  0.171800  0.187400  0.310900  1.0
  H  H255  1  0.671800  0.312600  0.189100  1.0
  H  H256  1  0.671800  0.687400  0.310900  1.0
  H  H257  1  0.701000  0.367600  0.956900  1.0
  H  H258  1  0.701000  0.632400  0.543100  1.0
  H  H259  1  0.201000  0.867600  0.956900  1.0
  H  H260  1  0.201000  0.132400  0.543100  1.0
  H  H261  1  0.299000  0.632400  0.043100  1.0
  H  H262  1  0.299000  0.367600  0.456900  1.0
  H  H263  1  0.799000  0.132400  0.043100  1.0
  H  H264  1  0.799000  0.867600  0.456900  1.0
  H  H265  1  0.685400  0.279200  0.935000  1.0
  H  H266  1  0.685400  0.720800  0.565000  1.0
  H  H267  1  0.185400  0.779200  0.935000  1.0
  H  H268  1  0.185400  0.220800  0.565000  1.0
  H  H269  1  0.314600  0.720800  0.065000  1.0
  H  H270  1  0.314600  0.279200  0.435000  1.0
  H  H271  1  0.814600  0.220800  0.065000  1.0
  H  H272  1  0.814600  0.779200  0.435000  1.0
  H  H273  1  0.583700  0.326900  0.866100  1.0
  H  H274  1  0.583700  0.673100  0.633900  1.0
  H  H275  1  0.083700  0.826900  0.866100  1.0
  H  H276  1  0.083700  0.173100  0.633900  1.0
  H  H277  1  0.416300  0.673100  0.133900  1.0
  H  H278  1  0.416300  0.326900  0.366100  1.0
  H  H279  1  0.916300  0.173100  0.133900  1.0
  H  H280  1  0.916300  0.826900  0.366100  1.0
  H  H281  1  0.451200  0.379900  0.861200  1.0
  H  H282  1  0.451200  0.620100  0.638800  1.0
  H  H283  1  0.951200  0.879900  0.861200  1.0
  H  H284  1  0.951200  0.120100  0.638800  1.0
  H  H285  1  0.548800  0.620100  0.138800  1.0
  H  H286  1  0.548800  0.379900  0.361200  1.0
  H  H287  1  0.048800  0.120100  0.138800  1.0
  H  H288  1  0.048800  0.879900  0.361200  1.0
  H  H289  1  0.392100  0.452800  0.920400  1.0
  H  H290  1  0.392100  0.547200  0.579600  1.0
  H  H291  1  0.892100  0.952800  0.920400  1.0
  H  H292  1  0.892100  0.047200  0.579600  1.0
  H  H293  1  0.607900  0.547200  0.079600  1.0
  H  H294  1  0.607900  0.452800  0.420400  1.0
  H  H295  1  0.107900  0.047200  0.079600  1.0
  H  H296  1  0.107900  0.952800  0.420400  1.0
  H  H297  1  0.465600  0.472800  0.984500  1.0
  H  H298  1  0.465600  0.527200  0.515500  1.0
  H  H299  1  0.965600  0.972800  0.984500  1.0
  H  H300  1  0.965600  0.027200  0.515500  1.0
  H  H301  1  0.534400  0.527200  0.015500  1.0
  H  H302  1  0.534400  0.472800  0.484500  1.0
  H  H303  1  0.034400  0.027200  0.015500  1.0
  H  H304  1  0.034400  0.972800  0.484500  1.0
  H  H305  1  0.598100  0.419900  0.989300  1.0
  H  H306  1  0.598100  0.580100  0.510700  1.0
  H  H307  1  0.098100  0.919900  0.989300  1.0
  H  H308  1  0.098100  0.080100  0.510700  1.0
  H  H309  1  0.401900  0.580100  0.010700  1.0
  H  H310  1  0.401900  0.419900  0.489300  1.0
  H  H311  1  0.901900  0.080100  0.010700  1.0
  H  H312  1  0.901900  0.919900  0.489300  1.0
  C  C313  1  0.638300  0.787600  0.803100  1
  C  C314  1  0.638300  0.212400  0.696900  1
  C  C315  1  0.138300  0.287600  0.803100  1
  C  C316  1  0.138300  0.712400  0.696900  1
  C  C317  1  0.361700  0.212400  0.196900  1
  C  C318  1  0.361700  0.787600  0.303100  1
  C  C319  1  0.861700  0.712400  0.196900  1
  C  C320  1  0.861700  0.287600  0.303100  1
  C  C321  1  0.824500  0.515300  0.101800  1
  C  C322  1  0.824500  0.484700  0.398200  1
  C  C323  1  0.324500  0.015300  0.101800  1
  C  C324  1  0.324500  0.984700  0.398200  1
  C  C325  1  0.175500  0.484700  0.898200  1
  C  C326  1  0.175500  0.515300  0.601800  1
  C  C327  1  0.675500  0.984700  0.898200  1
  C  C328  1  0.675500  0.015300  0.601800  1
  C  C329  1  0.835900  0.500000  0.250000  1
  C  C330  1  0.335900  0.000000  0.250000  1
  C  C331  1  0.164100  0.500000  0.750000  1
  C  C332  1  0.664100  0.000000  0.750000  1
  C  C333  1  0.735000  0.500000  0.250000  1
  C  C334  1  0.235000  0.000000  0.250000  1
  C  C335  1  0.265000  0.500000  0.750000  1
  C  C336  1  0.765000  0.000000  0.750000  1
  C  C337  1  0.592400  0.361400  0.915900  1
  C  C338  1  0.592400  0.638600  0.584100  1
  C  C339  1  0.092400  0.861400  0.915900  1
  C  C340  1  0.092400  0.138600  0.584100  1
  C  C341  1  0.407600  0.638600  0.084100  1
  C  C342  1  0.407600  0.361400  0.415900  1
  C  C343  1  0.907600  0.138600  0.084100  1
  C  C344  1  0.907600  0.861400  0.415900  1
  C  C345  1  0.565700  0.343000  0.874100  1
  C  C346  1  0.565700  0.657000  0.625900  1
  C  C347  1  0.065700  0.843000  0.874100  1
  C  C348  1  0.065700  0.157000  0.625900  1
  C  C349  1  0.434300  0.657000  0.125900  1
  C  C350  1  0.434300  0.343000  0.374100  1
  C  C351  1  0.934300  0.157000  0.125900  1
  C  C352  1  0.934300  0.843000  0.374100  1
  C  C353  1  0.488500  0.367900  0.861800  1
  C  C354  1  0.488500  0.632100  0.638200  1
  C  C355  1  0.988500  0.867900  0.861800  1
  C  C356  1  0.988500  0.132100  0.638200  1
  C  C357  1  0.511500  0.632100  0.138200  1
  C  C358  1  0.511500  0.367900  0.361800  1
  C  C359  1  0.011500  0.132100  0.138200  1
  C  C360  1  0.011500  0.867900  0.361800  1
  C  C361  1  0.437900  0.411100  0.891100  1
  C  C362  1  0.437900  0.588900  0.608900  1
  C  C363  1  0.937900  0.911100  0.891100  1
  C  C364  1  0.937900  0.088900  0.608900  1
  C  C365  1  0.562100  0.588900  0.108900  1
  C  C366  1  0.562100  0.411100  0.391100  1
  C  C367  1  0.062100  0.088900  0.108900  1
  C  C368  1  0.062100  0.911100  0.391100  1
  C  C369  1  0.464600  0.429500  0.932800  1
  C  C370  1  0.464600  0.570500  0.567200  1
  C  C371  1  0.964600  0.929500  0.932800  1
  C  C372  1  0.964600  0.070500  0.567200  1
  C  C373  1  0.535400  0.570500  0.067200  1
  C  C374  1  0.535400  0.429500  0.432800  1
  C  C375  1  0.035400  0.070500  0.067200  1
  C  C376  1  0.035400  0.929500  0.432800  1
  C  C377  1  0.541800  0.404600  0.945200  1
  C  C378  1  0.541800  0.595400  0.554800  1
  C  C379  1  0.041800  0.904600  0.945200  1
  C  C380  1  0.041800  0.095400  0.554800  1
  C  C381  1  0.458200  0.595400  0.054800  1
  C  C382  1  0.458200  0.404600  0.445200  1
  C  C383  1  0.958200  0.095400  0.054800  1
  C  C384  1  0.958200  0.904600  0.445200  1
  C  C385  1  0.768100  0.492300  0.124500  1
  C  C386  1  0.768100  0.507700  0.375500  1
  C  C387  1  0.268100  0.992300  0.124500  1
  C  C388  1  0.268100  0.007700  0.375500  1
  C  C389  1  0.231900  0.507700  0.875500  1
  C  C390  1  0.231900  0.492300  0.624500  1
  C  C391  1  0.731900  0.007700  0.875500  1
  C  C392  1  0.731900  0.992300  0.624500  1
  C  C393  1  0.917300  0.787600  0.571290  1.0
  C  C394  1  0.917300  0.212400  0.928710  1.0
  C  C395  1  0.417300  0.287600  0.571290  1.0
  C  C396  1  0.417300  0.712400  0.928710  1.0
  C  C397  1  0.082700  0.212400  0.428710  1.0
  C  C398  1  0.082700  0.787600  0.071290  1.0
  C  C399  1  0.582700  0.712400  0.428710  1.0
  C  C400  1  0.582700  0.287600  0.071290  1.0
  C  C401  1  0.959000  0.741100  0.598260  1.0
  C  C402  1  0.959000  0.258900  0.901740  1.0
  C  C403  1  0.459000  0.241100  0.598260  1.0
  C  C404  1  0.459000  0.758900  0.901740  1.0
  C  C405  1  0.041000  0.258900  0.401740  1.0
  C  C406  1  0.041000  0.741100  0.098260  1.0
  C  C407  1  0.541000  0.758900  0.401740  1.0
  C  C408  1  0.541000  0.241100  0.098260  1.0
  C  C409  1  0.958900  0.659600  0.589300  1.0
  C  C410  1  0.958900  0.340400  0.910700  1.0
  C  C411  1  0.458900  0.159600  0.589300  1.0
  C  C412  1  0.458900  0.840400  0.910700  1.0
  C  C413  1  0.041100  0.340400  0.410700  1.0
  C  C414  1  0.041100  0.659600  0.089300  1.0
  C  C415  1  0.541100  0.840400  0.410700  1.0
  C  C416  1  0.541100  0.159600  0.089300  1.0
  C  C417  1  0.918100  0.623600  0.553710  1.0
  C  C418  1  0.918100  0.376400  0.946290  1.0
  C  C419  1  0.418100  0.123600  0.553710  1.0
  C  C420  1  0.418100  0.876400  0.946290  1.0
  C  C421  1  0.081900  0.376400  0.446290  1.0
  C  C422  1  0.081900  0.623600  0.053710  1.0
  C  C423  1  0.581900  0.876400  0.446290  1.0
  C  C424  1  0.581900  0.123600  0.053710  1.0
  C  C425  1  0.878400  0.671300  0.526610  1.0
  C  C426  1  0.878400  0.328700  0.973390  1.0
  C  C427  1  0.378400  0.171300  0.526610  1.0
  C  C428  1  0.378400  0.828700  0.973390  1.0
  C  C429  1  0.121600  0.328700  0.473390  1.0
  C  C430  1  0.121600  0.671300  0.026610  1.0
  C  C431  1  0.621600  0.828700  0.473390  1.0
  C  C432  1  0.621600  0.171300  0.026610  1.0
  C  C433  1  0.877800  0.753200  0.536000  1.0
  C  C434  1  0.877800  0.246800  0.964000  1.0
  C  C435  1  0.377800  0.253200  0.536000  1.0
  C  C436  1  0.377800  0.746800  0.964000  1.0
  C  C437  1  0.122200  0.246800  0.464000  1.0
  C  C438  1  0.122200  0.753200  0.036000  1.0
  C  C439  1  0.622200  0.746800  0.464000  1.0
  C  C440  1  0.622200  0.253200  0.036000  1.0
  C  C441  1  0.917600  0.535500  0.543850  1.0
  C  C442  1  0.917600  0.464500  0.956150  1.0
  C  C443  1  0.417600  0.035500  0.543850  1.0
  C  C444  1  0.417600  0.964500  0.956150  1.0
  C  C445  1  0.082400  0.464500  0.456150  1.0
  C  C446  1  0.082400  0.535500  0.043850  1.0
  C  C447  1  0.582400  0.964500  0.456150  1.0
  C  C448  1  0.582400  0.035500  0.043850  1.0
  C  C449  1  0.944900  0.446800  0.594910  1.0
  C  C450  1  0.944900  0.553200  0.905090  1.0
  C  C451  1  0.444900  0.946800  0.594910  1.0
  C  C452  1  0.444900  0.053200  0.905090  1.0
  C  C453  1  0.055100  0.553200  0.405090  1.0
  C  C454  1  0.055100  0.446800  0.094910  1.0
  C  C455  1  0.555100  0.053200  0.405090  1.0
  C  C456  1  0.555100  0.946800  0.094910  1.0
  C  C457  1  0.927700  0.409180  0.634390  1.0
  C  C458  1  0.927700  0.590820  0.865610  1.0
  C  C459  1  0.427700  0.909180  0.634390  1.0
  C  C460  1  0.427700  0.090820  0.865610  1.0
  C  C461  1  0.072300  0.590820  0.365610  1.0
  C  C462  1  0.072300  0.409180  0.134390  1.0
  C  C463  1  0.572300  0.090820  0.365610  1.0
  C  C464  1  0.572300  0.909180  0.134390  1.0
  C  C465  1  0.984700  0.359000  0.650130  1.0
  C  C466  1  0.984700  0.641000  0.849870  1.0
  C  C467  1  0.484700  0.859000  0.650130  1.0
  C  C468  1  0.484700  0.141000  0.849870  1.0
  C  C469  1  0.015300  0.641000  0.349870  1.0
  C  C470  1  0.015300  0.359000  0.150130  1.0
  C  C471  1  0.515300  0.141000  0.349870  1.0
  C  C472  1  0.515300  0.859000  0.150130  1.0
  C  C473  1  0.968900  0.329500  0.689050  1.0
  C  C474  1  0.968900  0.670500  0.810950  1.0
  C  C475  1  0.468900  0.829500  0.689050  1.0
  C  C476  1  0.468900  0.170500  0.810950  1.0
  C  C477  1  0.031100  0.670500  0.310950  1.0
  C  C478  1  0.031100  0.329500  0.189050  1.0
  C  C479  1  0.531100  0.170500  0.310950  1.0
  C  C480  1  0.531100  0.829500  0.189050  1.0
  C  C481  1  0.897200  0.350900  0.710760  1.0
  C  C482  1  0.897200  0.649100  0.789240  1.0
  C  C483  1  0.397200  0.850900  0.710760  1.0
  C  C484  1  0.397200  0.149100  0.789240  1.0
  C  C485  1  0.102800  0.649100  0.289240  1.0
  C  C486  1  0.102800  0.350900  0.210760  1.0
  C  C487  1  0.602800  0.149100  0.289240  1.0
  C  C488  1  0.602800  0.850900  0.210760  1.0
  C  C489  1  0.841100  0.399270  0.691330  1.0
  C  C490  1  0.841100  0.600730  0.808670  1.0
  C  C491  1  0.341100  0.899270  0.691330  1.0
  C  C492  1  0.341100  0.100730  0.808670  1.0
  C  C493  1  0.158900  0.600730  0.308670  1.0
  C  C494  1  0.158900  0.399270  0.191330  1.0
  C  C495  1  0.658900  0.100730  0.308670  1.0
  C  C496  1  0.658900  0.899270  0.191330  1.0
  C  C497  1  0.648100  0.489870  0.795650  1.0
  C  C498  1  0.648100  0.510130  0.704350  1.0
  C  C499  1  0.148100  0.989870  0.795650  1.0
  C  C500  1  0.148100  0.010130  0.704350  1.0
  C  C501  1  0.351900  0.510130  0.204350  1.0
  C  C502  1  0.351900  0.489870  0.295650  1.0
  C  C503  1  0.851900  0.010130  0.204350  1.0
  C  C504  1  0.851900  0.989870  0.295650  1.0
  C  C505  1  0.577100  0.507740  0.773410  1.0
  C  C506  1  0.577100  0.492260  0.726590  1.0
  C  C507  1  0.077100  0.007740  0.773410  1.0
  C  C508  1  0.077100  0.992260  0.726590  1.0
  C  C509  1  0.422900  0.492260  0.226590  1.0
  C  C510  1  0.422900  0.507740  0.273410  1.0
  C  C511  1  0.922900  0.992260  0.226590  1.0
  C  C512  1  0.922900  0.007740  0.273410  1.0
  C  C513  1  0.511200  0.541410  0.796760  1.0
  C  C514  1  0.511200  0.458590  0.703240  1.0
  C  C515  1  0.011200  0.041410  0.796760  1.0
  C  C516  1  0.011200  0.958590  0.703240  1.0
  C  C517  1  0.488800  0.458590  0.203240  1.0
  C  C518  1  0.488800  0.541410  0.296760  1.0
  C  C519  1  0.988800  0.958590  0.203240  1.0
  C  C520  1  0.988800  0.041410  0.296760  1.0
  C  C521  1  0.520900  0.559500  0.840460  1.0
  C  C522  1  0.520900  0.440500  0.659540  1.0
  C  C523  1  0.020900  0.059500  0.840460  1.0
  C  C524  1  0.020900  0.940500  0.659540  1.0
  C  C525  1  0.479100  0.440500  0.159540  1.0
  C  C526  1  0.479100  0.559500  0.340460  1.0
  C  C527  1  0.979100  0.940500  0.159540  1.0
  C  C528  1  0.979100  0.059500  0.340460  1.0
  C  C529  1  0.595400  0.544310  0.859560  1.0
  C  C530  1  0.595400  0.455690  0.640440  1.0
  C  C531  1  0.095400  0.044310  0.859560  1.0
  C  C532  1  0.095400  0.955690  0.640440  1.0
  C  C533  1  0.404600  0.455690  0.140440  1.0
  C  C534  1  0.404600  0.544310  0.359560  1.0
  C  C535  1  0.904600  0.955690  0.140440  1.0
  C  C536  1  0.904600  0.044310  0.359560  1.0
  C  C537  1  0.611500  0.569280  0.904700  1.0
  C  C538  1  0.611500  0.430720  0.595300  1.0
  C  C539  1  0.111500  0.069280  0.904700  1.0
  C  C540  1  0.111500  0.930720  0.595300  1.0
  C  C541  1  0.388500  0.430720  0.095300  1.0
  C  C542  1  0.388500  0.569280  0.404700  1.0
  C  C543  1  0.888500  0.930720  0.095300  1.0
  C  C544  1  0.888500  0.069280  0.404700  1.0
  C  C545  1  0.695000  0.587200  0.966020  1.0
  C  C546  1  0.695000  0.412800  0.533980  1.0
  C  C547  1  0.195000  0.087200  0.966020  1.0
  C  C548  1  0.195000  0.912800  0.533980  1.0
  C  C549  1  0.305000  0.412800  0.033980  1.0
  C  C550  1  0.305000  0.587200  0.466020  1.0
  C  C551  1  0.805000  0.912800  0.033980  1.0
  C  C552  1  0.805000  0.087200  0.466020  1.0
  C  C553  1  0.767400  0.642300  0.966670  1.0
  C  C554  1  0.767400  0.357700  0.533330  1.0
  C  C555  1  0.267400  0.142300  0.966670  1.0
  C  C556  1  0.267400  0.857700  0.533330  1.0
  C  C557  1  0.232600  0.357700  0.033330  1.0
  C  C558  1  0.232600  0.642300  0.466670  1.0
  C  C559  1  0.732600  0.857700  0.033330  1.0
  C  C560  1  0.732600  0.142300  0.466670  1.0
  C  C561  1  0.778800  0.692500  0.934810  1.0
  C  C562  1  0.778800  0.307500  0.565190  1.0
  C  C563  1  0.278800  0.192500  0.934810  1.0
  C  C564  1  0.278800  0.807500  0.565190  1.0
  C  C565  1  0.221200  0.307500  0.065190  1.0
  C  C566  1  0.221200  0.692500  0.434810  1.0
  C  C567  1  0.721200  0.807500  0.065190  1.0
  C  C568  1  0.721200  0.192500  0.434810  1.0
  C  C569  1  0.846400  0.740800  0.935170  1.0
  C  C570  1  0.846400  0.259200  0.564830  1.0
  C  C571  1  0.346400  0.240800  0.935170  1.0
  C  C572  1  0.346400  0.759200  0.564830  1.0
  C  C573  1  0.153600  0.259200  0.064830  1.0
  C  C574  1  0.153600  0.740800  0.435170  1.0
  C  C575  1  0.653600  0.759200  0.064830  1.0
  C  C576  1  0.653600  0.240800  0.435170  1.0
  C  C577  1  0.825500  0.644400  0.999250  1.0
  C  C578  1  0.825500  0.355600  0.500750  1.0
  C  C579  1  0.325500  0.144400  0.999250  1.0
  C  C580  1  0.325500  0.855600  0.500750  1.0
  C  C581  1  0.174500  0.355600  0.000750  1.0
  C  C582  1  0.174500  0.644400  0.499250  1.0
  C  C583  1  0.674500  0.855600  0.000750  1.0
  C  C584  1  0.674500  0.144400  0.499250  1.0
  C  C585  1  0.893800  0.693000  0.998940  1.0
  C  C586  1  0.893800  0.307000  0.501060  1.0
  C  C587  1  0.393800  0.193000  0.998940  1.0
  C  C588  1  0.393800  0.807000  0.501060  1.0
  C  C589  1  0.106200  0.307000  0.001060  1.0
  C  C590  1  0.106200  0.693000  0.498940  1.0
  C  C591  1  0.606200  0.807000  0.001060  1.0
  C  C592  1  0.606200  0.193000  0.498940  1.0
  C  C593  1  0.905000  0.740800  0.966420  1.0
  C  C594  1  0.905000  0.259200  0.533580  1.0
  C  C595  1  0.405000  0.240800  0.966420  1.0
  C  C596  1  0.405000  0.759200  0.533580  1.0
  C  C597  1  0.095000  0.259200  0.033580  1.0
  C  C598  1  0.095000  0.740800  0.466420  1.0
  C  C599  1  0.595000  0.759200  0.033580  1.0
  C  C600  1  0.595000  0.240800  0.466420  1.0
  C  C601  1  0.854400  0.390000  0.784690  1.0
  C  C602  1  0.854400  0.610000  0.715310  1.0
  C  C603  1  0.354400  0.890000  0.784690  1.0
  C  C604  1  0.354400  0.110000  0.715310  1.0
  C  C605  1  0.145600  0.610000  0.215310  1.0
  C  C606  1  0.145600  0.390000  0.284690  1.0
  C  C607  1  0.645600  0.110000  0.215310  1.0
  C  C608  1  0.645600  0.890000  0.284690  1.0
  C  C609  1  0.875100  0.329400  0.753780  1.0
  C  C610  1  0.875100  0.670600  0.746220  1.0
  C  C611  1  0.375100  0.829400  0.753780  1.0
  C  C612  1  0.375100  0.170600  0.746220  1.0
  C  C613  1  0.124900  0.670600  0.246220  1.0
  C  C614  1  0.124900  0.329400  0.253780  1.0
  C  C615  1  0.624900  0.170600  0.246220  1.0
  C  C616  1  0.624900  0.829400  0.253780  1.0
  C  C617  1  0.763700  0.292600  0.870220  1.0
  C  C618  1  0.763700  0.707400  0.629780  1.0
  C  C619  1  0.263700  0.792600  0.870220  1.0
  C  C620  1  0.263700  0.207400  0.629780  1.0
  C  C621  1  0.236300  0.707400  0.129780  1.0
  C  C622  1  0.236300  0.292600  0.370220  1.0
  C  C623  1  0.736300  0.207400  0.129780  1.0
  C  C624  1  0.736300  0.792600  0.370220  1.0
  C  C625  1  0.868100  0.252900  0.764150  1.0
  C  C626  1  0.868100  0.747100  0.735850  1.0
  C  C627  1  0.368100  0.752900  0.764150  1.0
  C  C628  1  0.368100  0.247100  0.735850  1.0
  C  C629  1  0.131900  0.747100  0.235850  1.0
  C  C630  1  0.131900  0.252900  0.264150  1.0
  C  C631  1  0.631900  0.247100  0.235850  1.0
  C  C632  1  0.631900  0.752900  0.264150  1.0
  C  C633  1  0.834400  0.239800  0.803300  1.0
  C  C634  1  0.834400  0.760200  0.696700  1.0
  C  C635  1  0.334400  0.739800  0.803300  1.0
  C  C636  1  0.334400  0.260200  0.696700  1.0
  C  C637  1  0.165600  0.760200  0.196700  1.0
  C  C638  1  0.165600  0.239800  0.303300  1.0
  C  C639  1  0.665600  0.260200  0.196700  1.0
  C  C640  1  0.665600  0.739800  0.303300  1.0
  C  C641  1  0.810300  0.303490  0.830990  1.0
  C  C642  1  0.810300  0.696510  0.669010  1.0
  C  C643  1  0.310300  0.803490  0.830990  1.0
  C  C644  1  0.310300  0.196510  0.669010  1.0
  C  C645  1  0.189700  0.696510  0.169010  1.0
  C  C646  1  0.189700  0.303490  0.330990  1.0
  C  C647  1  0.689700  0.196510  0.169010  1.0
  C  C648  1  0.689700  0.803490  0.330990  1.0
  C  C649  1  0.684000  0.335800  0.930300  1.0
  C  C650  1  0.684000  0.664200  0.569700  1.0
  C  C651  1  0.184000  0.835800  0.930300  1.0
  C  C652  1  0.184000  0.164200  0.569700  1.0
  C  C653  1  0.316000  0.664200  0.069700  1.0
  C  C654  1  0.316000  0.335800  0.430300  1.0
  C  C655  1  0.816000  0.164200  0.069700  1.0
  C  C656  1  0.816000  0.835800  0.430300  1.0
  C  C657  1  0.603400  0.368400  0.928100  1.0
  C  C658  1  0.603400  0.631600  0.571900  1.0
  C  C659  1  0.103400  0.868400  0.928100  1.0
  C  C660  1  0.103400  0.131600  0.571900  1.0
  C  C661  1  0.396600  0.631600  0.071900  1.0
  C  C662  1  0.396600  0.368400  0.428100  1.0
  C  C663  1  0.896600  0.131600  0.071900  1.0
  C  C664  1  0.896600  0.868400  0.428100  1.0
  C  C665  1  0.559700  0.356500  0.890100  1.0
  C  C666  1  0.559700  0.643500  0.609900  1.0
  C  C667  1  0.059700  0.856500  0.890100  1.0
  C  C668  1  0.059700  0.143500  0.609900  1.0
  C  C669  1  0.440300  0.643500  0.109900  1.0
  C  C670  1  0.440300  0.356500  0.390100  1.0
  C  C671  1  0.940300  0.143500  0.109900  1.0
  C  C672  1  0.940300  0.856500  0.390100  1.0
  C  C673  1  0.481000  0.388000  0.887200  1.0
  C  C674  1  0.481000  0.612000  0.612800  1.0
  C  C675  1  0.981000  0.888000  0.887200  1.0
  C  C676  1  0.981000  0.112000  0.612800  1.0
  C  C677  1  0.519000  0.612000  0.112800  1.0
  C  C678  1  0.519000  0.388000  0.387200  1.0
  C  C679  1  0.019000  0.112000  0.112800  1.0
  C  C680  1  0.019000  0.888000  0.387200  1.0
  C  C681  1  0.445900  0.431300  0.922400  1.0
  C  C682  1  0.445900  0.568700  0.577600  1.0
  C  C683  1  0.945900  0.931300  0.922400  1.0
  C  C684  1  0.945900  0.068700  0.577600  1.0
  C  C685  1  0.554100  0.568700  0.077600  1.0
  C  C686  1  0.554100  0.431300  0.422400  1.0
  C  C687  1  0.054100  0.068700  0.077600  1.0
  C  C688  1  0.054100  0.931300  0.422400  1.0
  C  C689  1  0.489600  0.443200  0.960400  1.0
  C  C690  1  0.489600  0.556800  0.539600  1.0
  C  C691  1  0.989600  0.943200  0.960400  1.0
  C  C692  1  0.989600  0.056800  0.539600  1.0
  C  C693  1  0.510400  0.556800  0.039600  1.0
  C  C694  1  0.510400  0.443200  0.460400  1.0
  C  C695  1  0.010400  0.056800  0.039600  1.0
  C  C696  1  0.010400  0.943200  0.460400  1.0
  C  C697  1  0.568300  0.411700  0.963300  1.0
  C  C698  1  0.568300  0.588300  0.536700  1.0
  C  C699  1  0.068300  0.911700  0.963300  1.0
  C  C700  1  0.068300  0.088300  0.536700  1.0
  C  C701  1  0.431700  0.588300  0.036700  1.0
  C  C702  1  0.431700  0.411700  0.463300  1.0
  C  C703  1  0.931700  0.088300  0.036700  1.0
  C  C704  1  0.931700  0.911700  0.463300  1.0
  S  S705  1  0.628010  0.721070  0.755310  1
  S  S706  1  0.628010  0.278930  0.744690  1
  S  S707  1  0.128010  0.221070  0.755310  1
  S  S708  1  0.128010  0.778930  0.744690  1
  S  S709  1  0.371990  0.278930  0.244690  1
  S  S710  1  0.371990  0.721070  0.255310  1
  S  S711  1  0.871990  0.778930  0.244690  1
  S  S712  1  0.871990  0.221070  0.255310  1
  S  S713  1  0.765600  0.427360  0.085250  1
  S  S714  1  0.765600  0.572640  0.414750  1
  S  S715  1  0.265600  0.927360  0.085250  1
  S  S716  1  0.265600  0.072640  0.414750  1
  S  S717  1  0.234400  0.572640  0.914750  1
  S  S718  1  0.234400  0.427360  0.585250  1
  S  S719  1  0.734400  0.072640  0.914750  1
  S  S720  1  0.734400  0.927360  0.585250  1
  S  S721  1  0.800100  0.442620  0.074540  1
  S  S722  1  0.800100  0.557380  0.425460  1
  S  S723  1  0.300100  0.942620  0.074540  1
  S  S724  1  0.300100  0.057380  0.425460  1
  S  S725  1  0.199900  0.557380  0.925460  1
  S  S726  1  0.199900  0.442620  0.574540  1
  S  S727  1  0.699900  0.057380  0.925460  1
  S  S728  1  0.699900  0.942620  0.574540  1
  N  N729  1  0.681000  0.500000  0.250000  1
  N  N730  1  0.181000  0.000000  0.250000  1
  N  N731  1  0.319000  0.500000  0.750000  1
  N  N732  1  0.819000  0.000000  0.750000  1
  N  N733  1  0.894530  0.496350  0.582150  1.0
  N  N734  1  0.894530  0.503650  0.917850  1.0
  N  N735  1  0.394530  0.996350  0.582150  1.0
  N  N736  1  0.394530  0.003650  0.917850  1.0
  N  N737  1  0.105470  0.503650  0.417850  1.0
  N  N738  1  0.105470  0.496350  0.082150  1.0
  N  N739  1  0.605470  0.003650  0.417850  1.0
  N  N740  1  0.605470  0.996350  0.082150  1.0
  N  N741  1  0.856170  0.428880  0.654400  1.0
  N  N742  1  0.856170  0.571120  0.845600  1.0
  N  N743  1  0.356170  0.928880  0.654400  1.0
  N  N744  1  0.356170  0.071120  0.845600  1.0
  N  N745  1  0.143830  0.571120  0.345600  1.0
  N  N746  1  0.143830  0.428880  0.154400  1.0
  N  N747  1  0.643830  0.071120  0.345600  1.0
  N  N748  1  0.643830  0.928880  0.154400  1.0
  N  N749  1  0.658090  0.507840  0.837190  1.0
  N  N750  1  0.658090  0.492160  0.662810  1.0
  N  N751  1  0.158090  0.007840  0.837190  1.0
  N  N752  1  0.158090  0.992160  0.662810  1.0
  N  N753  1  0.341910  0.492160  0.162810  1.0
  N  N754  1  0.341910  0.507840  0.337190  1.0
  N  N755  1  0.841910  0.992160  0.162810  1.0
  N  N756  1  0.841910  0.007840  0.337190  1.0
  N  N757  1  0.679060  0.552650  0.922170  1.0
  N  N758  1  0.679060  0.447350  0.577830  1.0
  N  N759  1  0.179060  0.052650  0.922170  1.0
  N  N760  1  0.179060  0.947350  0.577830  1.0
  N  N761  1  0.320940  0.447350  0.077830  1.0
  N  N762  1  0.320940  0.552650  0.422170  1.0
  N  N763  1  0.820940  0.947350  0.077830  1.0
  N  N764  1  0.820940  0.052650  0.422170  1.0
  N  N765  1  0.822220  0.378920  0.822650  1.0
  N  N766  1  0.822220  0.621080  0.677350  1.0
  N  N767  1  0.322220  0.878920  0.822650  1.0
  N  N768  1  0.322220  0.121080  0.677350  1.0
  N  N769  1  0.177780  0.621080  0.177350  1.0
  N  N770  1  0.177780  0.378920  0.322650  1.0
  N  N771  1  0.677780  0.121080  0.177350  1.0
  N  N772  1  0.677780  0.878920  0.322650  1.0
  N  N773  1  0.738260  0.351530  0.894660  1.0
  N  N774  1  0.738260  0.648470  0.605340  1.0
  N  N775  1  0.238260  0.851530  0.894660  1.0
  N  N776  1  0.238260  0.148470  0.605340  1.0
  N  N777  1  0.261740  0.648470  0.105340  1.0
  N  N778  1  0.261740  0.351530  0.394660  1.0
  N  N779  1  0.761740  0.148470  0.105340  1.0
  N  N780  1  0.761740  0.851530  0.394660  1.0
  O  O781  1  0.688130  0.662570  0.761680  1
  O  O782  1  0.688130  0.337430  0.738320  1
  O  O783  1  0.188130  0.162570  0.761680  1
  O  O784  1  0.188130  0.837430  0.738320  1
  O  O785  1  0.311870  0.337430  0.238320  1
  O  O786  1  0.311870  0.662570  0.261680  1
  O  O787  1  0.811870  0.837430  0.238320  1
  O  O788  1  0.811870  0.162570  0.261680  1
  O  O789  1  0.647600  0.770100  0.722420  1
  O  O790  1  0.647600  0.229900  0.777580  1
  O  O791  1  0.147600  0.270100  0.722420  1
  O  O792  1  0.147600  0.729900  0.777580  1
  O  O793  1  0.352400  0.229900  0.277580  1
  O  O794  1  0.352400  0.770100  0.222420  1
  O  O795  1  0.852400  0.729900  0.277580  1
  O  O796  1  0.852400  0.270100  0.222420  1
  O  O797  1  0.543400  0.695380  0.755740  1
  O  O798  1  0.543400  0.304620  0.744260  1
  O  O799  1  0.043400  0.195380  0.755740  1
  O  O800  1  0.043400  0.804620  0.744260  1
  O  O801  1  0.456600  0.304620  0.244260  1
  O  O802  1  0.456600  0.695380  0.255740  1
  O  O803  1  0.956600  0.804620  0.244260  1
  O  O804  1  0.956600  0.195380  0.255740  1
  O  O805  1  0.727600  0.448000  0.046600  1
  O  O806  1  0.727600  0.552000  0.453400  1
  O  O807  1  0.227600  0.948000  0.046600  1
  O  O808  1  0.227600  0.052000  0.453400  1
  O  O809  1  0.272400  0.552000  0.953400  1
  O  O810  1  0.272400  0.448000  0.546600  1
  O  O811  1  0.772400  0.052000  0.953400  1
  O  O812  1  0.772400  0.948000  0.546600  1
  O  O813  1  0.707000  0.423100  0.119400  1
  O  O814  1  0.707000  0.576900  0.380600  1
  O  O815  1  0.207000  0.923100  0.119400  1
  O  O816  1  0.207000  0.076900  0.380600  1
  O  O817  1  0.293000  0.576900  0.880600  1
  O  O818  1  0.293000  0.423100  0.619400  1
  O  O819  1  0.793000  0.076900  0.880600  1
  O  O820  1  0.793000  0.923100  0.619400  1
  O  O821  1  0.824500  0.364400  0.081400  1
  O  O822  1  0.824500  0.635600  0.418600  1
  O  O823  1  0.324500  0.864400  0.081400  1
  O  O824  1  0.324500  0.135600  0.418600  1
  O  O825  1  0.175500  0.635600  0.918600  1
  O  O826  1  0.175500  0.364400  0.581400  1
  O  O827  1  0.675500  0.135600  0.918600  1
  O  O828  1  0.675500  0.864400  0.581400  1
  O  O829  1  0.866500  0.483600  0.060500  1
  O  O830  1  0.866500  0.516400  0.439500  1
  O  O831  1  0.366500  0.983600  0.060500  1
  O  O832  1  0.366500  0.016400  0.439500  1
  O  O833  1  0.133500  0.516400  0.939500  1
  O  O834  1  0.133500  0.483600  0.560500  1
  O  O835  1  0.633500  0.016400  0.939500  1
  O  O836  1  0.633500  0.983600  0.560500  1
  O  O837  1  0.824300  0.370500  0.088700  1
  O  O838  1  0.824300  0.629500  0.411300  1
  O  O839  1  0.324300  0.870500  0.088700  1
  O  O840  1  0.324300  0.129500  0.411300  1
  O  O841  1  0.175700  0.629500  0.911300  1
  O  O842  1  0.175700  0.370500  0.588700  1
  O  O843  1  0.675700  0.129500  0.911300  1
  O  O844  1  0.675700  0.870500  0.588700  1
  O  O845  1  0.732400  0.440000  0.048600  1
  O  O846  1  0.732400  0.560000  0.451400  1
  O  O847  1  0.232400  0.940000  0.048600  1
  O  O848  1  0.232400  0.060000  0.451400  1
  O  O849  1  0.267600  0.560000  0.951400  1
  O  O850  1  0.267600  0.440000  0.548600  1
  O  O851  1  0.767600  0.060000  0.951400  1
  O  O852  1  0.767600  0.940000  0.548600  1
  F  F853  1  0.711800  0.820500  0.805660  1
  F  F854  1  0.711800  0.179500  0.694340  1
  F  F855  1  0.211800  0.320500  0.805660  1
  F  F856  1  0.211800  0.679500  0.694340  1
  F  F857  1  0.288200  0.179500  0.194340  1
  F  F858  1  0.288200  0.820500  0.305660  1
  F  F859  1  0.788200  0.679500  0.194340  1
  F  F860  1  0.788200  0.320500  0.305660  1
  F  F861  1  0.627600  0.748300  0.837330  1
  F  F862  1  0.627600  0.251700  0.662670  1
  F  F863  1  0.127600  0.248300  0.837330  1
  F  F864  1  0.127600  0.751700  0.662670  1
  F  F865  1  0.372400  0.251700  0.162670  1
  F  F866  1  0.372400  0.748300  0.337330  1
  F  F867  1  0.872400  0.751700  0.162670  1
  F  F868  1  0.872400  0.248300  0.337330  1
  F  F869  1  0.582100  0.844500  0.803800  1
  F  F870  1  0.582100  0.155500  0.696200  1
  F  F871  1  0.082100  0.344500  0.803800  1
  F  F872  1  0.082100  0.655500  0.696200  1
  F  F873  1  0.417900  0.155500  0.196200  1
  F  F874  1  0.417900  0.844500  0.303800  1
  F  F875  1  0.917900  0.655500  0.196200  1
  F  F876  1  0.917900  0.344500  0.303800  1
  F  F877  1  0.779100  0.581200  0.105900  1
  F  F878  1  0.779100  0.418800  0.394100  1
  F  F879  1  0.279100  0.081200  0.105900  1
  F  F880  1  0.279100  0.918800  0.394100  1
  F  F881  1  0.220900  0.418800  0.894100  1
  F  F882  1  0.220900  0.581200  0.605900  1
  F  F883  1  0.720900  0.918800  0.894100  1
  F  F884  1  0.720900  0.081200  0.605900  1
  F  F885  1  0.867000  0.513100  0.138000  1
  F  F886  1  0.867000  0.486900  0.362000  1
  F  F887  1  0.367000  0.013100  0.138000  1
  F  F888  1  0.367000  0.986900  0.362000  1
  F  F889  1  0.133000  0.486900  0.862000  1
  F  F890  1  0.133000  0.513100  0.638000  1
  F  F891  1  0.633000  0.986900  0.862000  1
  F  F892  1  0.633000  0.013100  0.638000  1
  F  F893  1  0.880800  0.526500  0.071900  1
  F  F894  1  0.880800  0.473500  0.428100  1
  F  F895  1  0.380800  0.026500  0.071900  1
  F  F896  1  0.380800  0.973500  0.428100  1
  F  F897  1  0.119200  0.473500  0.928100  1
  F  F898  1  0.119200  0.526500  0.571900  1
  F  F899  1  0.619200  0.973500  0.928100  1
  F  F900  1  0.619200  0.026500  0.571900  1
  F  F901  1  0.703400  0.459100  0.141000  1
  F  F902  1  0.703400  0.540900  0.359000  1
  F  F903  1  0.203400  0.959100  0.141000  1
  F  F904  1  0.203400  0.040900  0.359000  1
  F  F905  1  0.296600  0.540900  0.859000  1
  F  F906  1  0.296600  0.459100  0.641000  1
  F  F907  1  0.796600  0.040900  0.859000  1
  F  F908  1  0.796600  0.959100  0.641000  1
  F  F909  1  0.745700  0.565300  0.121700  1
  F  F910  1  0.745700  0.434700  0.378300  1
  F  F911  1  0.245700  0.065300  0.121700  1
  F  F912  1  0.245700  0.934700  0.378300  1
  F  F913  1  0.254300  0.434700  0.878300  1
  F  F914  1  0.254300  0.565300  0.621700  1
  F  F915  1  0.754300  0.934700  0.878300  1
  F  F916  1  0.754300  0.065300  0.621700  1
  F  F917  1  0.827000  0.494700  0.152700  1
  F  F918  1  0.827000  0.505300  0.347300  1
  F  F919  1  0.327000  0.994700  0.152700  1
  F  F920  1  0.327000  0.005300  0.347300  1
  F  F921  1  0.173000  0.505300  0.847300  1
  F  F922  1  0.173000  0.494700  0.652700  1
  F  F923  1  0.673000  0.005300  0.847300  1
  F  F924  1  0.673000  0.994700  0.652700  1
