# generated using pymatgen
data_CdH33C40SN6(O2F)3
_symmetry_space_group_name_H-M   'P 1'
_cell_length_a   26.21900000
_cell_length_b   32.25700000
_cell_length_c   42.86000000
_cell_angle_alpha   90.00000000
_cell_angle_beta   90.00000000
_cell_angle_gamma   90.00000000
_symmetry_Int_Tables_number   1
_chemical_formula_structural   CdH33C40SN6(O2F)3
_chemical_formula_sum   'Cd24 H792 C960 S24 N144 O144 F72'
_cell_volume   36248.68568938
_cell_formula_units_Z   24
loop_
 _symmetry_equiv_pos_site_id
 _symmetry_equiv_pos_as_xyz
  1  'x, y, z'
loop_
 _atom_site_type_symbol
 _atom_site_label
 _atom_site_symmetry_multiplicity
 _atom_site_fract_x
 _atom_site_fract_y
 _atom_site_fract_z
 _atom_site_occupancy
  Cd  Cd1  1  0.090270  0.755430  0.056090  1.0
  Cd  Cd2  1  0.409730  0.744570  0.056090  1.0
  Cd  Cd3  1  0.409730  0.755430  0.443910  1.0
  Cd  Cd4  1  0.090270  0.744570  0.443910  1.0
  Cd  Cd5  1  0.909730  0.244570  0.943910  1.0
  Cd  Cd6  1  0.590270  0.255430  0.943910  1.0
  Cd  Cd7  1  0.590270  0.244570  0.556090  1.0
  Cd  Cd8  1  0.909730  0.255430  0.556090  1.0
  Cd  Cd9  1  0.101580  0.008970  0.140950  1.0
  Cd  Cd10  1  0.398420  0.491030  0.140950  1.0
  Cd  Cd11  1  0.398420  0.008970  0.359050  1.0
  Cd  Cd12  1  0.101580  0.491030  0.359050  1.0
  Cd  Cd13  1  0.898420  0.991030  0.859050  1.0
  Cd  Cd14  1  0.601580  0.508970  0.859050  1.0
  Cd  Cd15  1  0.601580  0.991030  0.640950  1.0
  Cd  Cd16  1  0.898420  0.508970  0.640950  1.0
  Cd  Cd17  1  0.080960  0.997470  0.347360  1.0
  Cd  Cd18  1  0.419040  0.502530  0.347360  1.0
  Cd  Cd19  1  0.419040  0.997470  0.152640  1.0
  Cd  Cd20  1  0.080960  0.502530  0.152640  1.0
  Cd  Cd21  1  0.919040  0.002530  0.652640  1.0
  Cd  Cd22  1  0.580960  0.497470  0.652640  1.0
  Cd  Cd23  1  0.580960  0.002530  0.847360  1.0
  Cd  Cd24  1  0.919040  0.497470  0.847360  1.0
  H  H25  1  0.950600  0.633500  0.025500  1.0
  H  H26  1  0.549400  0.866500  0.025500  1.0
  H  H27  1  0.549400  0.633500  0.474500  1.0
  H  H28  1  0.950600  0.866500  0.474500  1.0
  H  H29  1  0.049400  0.366500  0.974500  1.0
  H  H30  1  0.450600  0.133500  0.974500  1.0
  H  H31  1  0.450600  0.366500  0.525500  1.0
  H  H32  1  0.049400  0.133500  0.525500  1.0
  H  H33  1  0.982400  0.697600  0.042100  1.0
  H  H34  1  0.517600  0.802400  0.042100  1.0
  H  H35  1  0.517600  0.697600  0.457900  1.0
  H  H36  1  0.982400  0.802400  0.457900  1.0
  H  H37  1  0.017600  0.302400  0.957900  1.0
  H  H38  1  0.482400  0.197600  0.957900  1.0
  H  H39  1  0.482400  0.302400  0.542100  1.0
  H  H40  1  0.017600  0.197600  0.542100  1.0
  H  H41  1  0.040500  0.718100  0.955900  1.0
  H  H42  1  0.459500  0.781900  0.955900  1.0
  H  H43  1  0.459500  0.718100  0.544100  1.0
  H  H44  1  0.040500  0.781900  0.544100  1.0
  H  H45  1  0.959500  0.281900  0.044100  1.0
  H  H46  1  0.540500  0.218100  0.044100  1.0
  H  H47  1  0.540500  0.281900  0.455900  1.0
  H  H48  1  0.959500  0.218100  0.455900  1.0
  H  H49  1  0.008700  0.654000  0.939200  1.0
  H  H50  1  0.491300  0.846000  0.939200  1.0
  H  H51  1  0.491300  0.654000  0.560800  1.0
  H  H52  1  0.008700  0.846000  0.560800  1.0
  H  H53  1  0.991300  0.346000  0.060800  1.0
  H  H54  1  0.508700  0.154000  0.060800  1.0
  H  H55  1  0.508700  0.346000  0.439200  1.0
  H  H56  1  0.991300  0.154000  0.439200  1.0
  H  H57  1  0.024400  0.780900  0.974200  1.0
  H  H58  1  0.475600  0.719100  0.974200  1.0
  H  H59  1  0.475600  0.780900  0.525800  1.0
  H  H60  1  0.024400  0.719100  0.525800  1.0
  H  H61  1  0.975600  0.219100  0.025800  1.0
  H  H62  1  0.524400  0.280900  0.025800  1.0
  H  H63  1  0.524400  0.219100  0.474200  1.0
  H  H64  1  0.975600  0.280900  0.474200  1.0
  H  H65  1  0.102800  0.861200  0.070400  1.0
  H  H66  1  0.397200  0.638800  0.070400  1.0
  H  H67  1  0.397200  0.861200  0.429600  1.0
  H  H68  1  0.102800  0.638800  0.429600  1.0
  H  H69  1  0.897200  0.138800  0.929600  1.0
  H  H70  1  0.602800  0.361200  0.929600  1.0
  H  H71  1  0.602800  0.138800  0.570400  1.0
  H  H72  1  0.897200  0.361200  0.570400  1.0
  H  H73  1  0.074900  0.920700  0.988800  1.0
  H  H74  1  0.425100  0.579300  0.988800  1.0
  H  H75  1  0.425100  0.920700  0.511200  1.0
  H  H76  1  0.074900  0.579300  0.511200  1.0
  H  H77  1  0.925100  0.079300  0.011200  1.0
  H  H78  1  0.574900  0.420700  0.011200  1.0
  H  H79  1  0.574900  0.079300  0.488800  1.0
  H  H80  1  0.925100  0.420700  0.488800  1.0
  H  H81  1  0.047400  0.858300  0.966600  1.0
  H  H82  1  0.452600  0.641700  0.966600  1.0
  H  H83  1  0.452600  0.858300  0.533400  1.0
  H  H84  1  0.047400  0.641700  0.533400  1.0
  H  H85  1  0.952600  0.141700  0.033400  1.0
  H  H86  1  0.547400  0.358300  0.033400  1.0
  H  H87  1  0.547400  0.141700  0.466600  1.0
  H  H88  1  0.952600  0.358300  0.466600  1.0
  H  H89  1  0.083900  0.927000  0.089500  1.0
  H  H90  1  0.416100  0.573000  0.089500  1.0
  H  H91  1  0.416100  0.927000  0.410500  1.0
  H  H92  1  0.083900  0.573000  0.410500  1.0
  H  H93  1  0.916100  0.073000  0.910500  1.0
  H  H94  1  0.583900  0.427000  0.910500  1.0
  H  H95  1  0.583900  0.073000  0.589500  1.0
  H  H96  1  0.916100  0.427000  0.589500  1.0
  H  H97  1  0.177200  0.017500  0.031200  1.0
  H  H98  1  0.322800  0.482500  0.031200  1.0
  H  H99  1  0.322800  0.017500  0.468800  1.0
  H  H100  1  0.177200  0.482500  0.468800  1.0
  H  H101  1  0.822800  0.982500  0.968800  1.0
  H  H102  1  0.677200  0.517500  0.968800  1.0
  H  H103  1  0.677200  0.982500  0.531200  1.0
  H  H104  1  0.822800  0.517500  0.531200  1.0
  H  H105  1  0.141600  0.958600  0.006400  1.0
  H  H106  1  0.358400  0.541400  0.006400  1.0
  H  H107  1  0.358400  0.958600  0.493600  1.0
  H  H108  1  0.141600  0.541400  0.493600  1.0
  H  H109  1  0.858400  0.041400  0.993600  1.0
  H  H110  1  0.641600  0.458600  0.993600  1.0
  H  H111  1  0.641600  0.041400  0.506400  1.0
  H  H112  1  0.858400  0.458600  0.506400  1.0
  H  H113  1  0.194500  0.058600  0.079200  1.0
  H  H114  1  0.305500  0.441400  0.079200  1.0
  H  H115  1  0.305500  0.058600  0.420800  1.0
  H  H116  1  0.194500  0.441400  0.420800  1.0
  H  H117  1  0.805500  0.941400  0.920800  1.0
  H  H118  1  0.694500  0.558600  0.920800  1.0
  H  H119  1  0.694500  0.941400  0.579200  1.0
  H  H120  1  0.805500  0.558600  0.579200  1.0
  H  H121  1  0.192700  0.057700  0.175600  1.0
  H  H122  1  0.307300  0.442300  0.175600  1.0
  H  H123  1  0.307300  0.057700  0.324400  1.0
  H  H124  1  0.192700  0.442300  0.324400  1.0
  H  H125  1  0.807300  0.942300  0.824400  1.0
  H  H126  1  0.692700  0.557700  0.824400  1.0
  H  H127  1  0.692700  0.942300  0.675600  1.0
  H  H128  1  0.807300  0.557700  0.675600  1.0
  H  H129  1  0.221100  0.116000  0.203400  1.0
  H  H130  1  0.278900  0.384000  0.203400  1.0
  H  H131  1  0.278900  0.116000  0.296600  1.0
  H  H132  1  0.221100  0.384000  0.296600  1.0
  H  H133  1  0.778900  0.884000  0.796600  1.0
  H  H134  1  0.721100  0.616000  0.796600  1.0
  H  H135  1  0.721100  0.884000  0.703400  1.0
  H  H136  1  0.778900  0.616000  0.703400  1.0
  H  H137  1  0.238300  0.175500  0.120500  1.0
  H  H138  1  0.261700  0.324500  0.120500  1.0
  H  H139  1  0.261700  0.175500  0.379500  1.0
  H  H140  1  0.238300  0.324500  0.379500  1.0
  H  H141  1  0.761700  0.824500  0.879500  1.0
  H  H142  1  0.738300  0.675500  0.879500  1.0
  H  H143  1  0.738300  0.824500  0.620500  1.0
  H  H144  1  0.761700  0.675500  0.620500  1.0
  H  H145  1  0.205300  0.118000  0.094500  1.0
  H  H146  1  0.294700  0.382000  0.094500  1.0
  H  H147  1  0.294700  0.118000  0.405500  1.0
  H  H148  1  0.205300  0.382000  0.405500  1.0
  H  H149  1  0.794700  0.882000  0.905500  1.0
  H  H150  1  0.705300  0.618000  0.905500  1.0
  H  H151  1  0.705300  0.882000  0.594500  1.0
  H  H152  1  0.794700  0.618000  0.594500  1.0
  H  H153  1  0.232300  0.875300  0.018000  1.0
  H  H154  1  0.267700  0.624700  0.018000  1.0
  H  H155  1  0.267700  0.875300  0.482000  1.0
  H  H156  1  0.232300  0.624700  0.482000  1.0
  H  H157  1  0.767700  0.124700  0.982000  1.0
  H  H158  1  0.732300  0.375300  0.982000  1.0
  H  H159  1  0.732300  0.124700  0.518000  1.0
  H  H160  1  0.767700  0.375300  0.518000  1.0
  H  H161  1  0.199000  0.815900  0.041900  1.0
  H  H162  1  0.301000  0.684100  0.041900  1.0
  H  H163  1  0.301000  0.815900  0.458100  1.0
  H  H164  1  0.199000  0.684100  0.458100  1.0
  H  H165  1  0.801000  0.184100  0.958100  1.0
  H  H166  1  0.699000  0.315900  0.958100  1.0
  H  H167  1  0.699000  0.184100  0.541900  1.0
  H  H168  1  0.801000  0.315900  0.541900  1.0
  H  H169  1  0.165300  0.768000  0.957000  1.0
  H  H170  1  0.334700  0.732000  0.957000  1.0
  H  H171  1  0.334700  0.768000  0.543000  1.0
  H  H172  1  0.165300  0.732000  0.543000  1.0
  H  H173  1  0.834700  0.232000  0.043000  1.0
  H  H174  1  0.665300  0.268000  0.043000  1.0
  H  H175  1  0.665300  0.232000  0.457000  1.0
  H  H176  1  0.834700  0.268000  0.457000  1.0
  H  H177  1  0.198600  0.827400  0.933100  1.0
  H  H178  1  0.301400  0.672600  0.933100  1.0
  H  H179  1  0.301400  0.827400  0.566900  1.0
  H  H180  1  0.198600  0.672600  0.566900  1.0
  H  H181  1  0.801400  0.172600  0.066900  1.0
  H  H182  1  0.698600  0.327400  0.066900  1.0
  H  H183  1  0.698600  0.172600  0.433100  1.0
  H  H184  1  0.801400  0.327400  0.433100  1.0
  H  H185  1  0.189600  0.712800  0.991300  1.0
  H  H186  1  0.310400  0.787200  0.991300  1.0
  H  H187  1  0.310400  0.712800  0.508700  1.0
  H  H188  1  0.189600  0.787200  0.508700  1.0
  H  H189  1  0.810400  0.287200  0.008700  1.0
  H  H190  1  0.689600  0.212800  0.008700  1.0
  H  H191  1  0.689600  0.287200  0.491300  1.0
  H  H192  1  0.810400  0.212800  0.491300  1.0
  H  H193  1  0.069900  0.652000  0.076400  1.0
  H  H194  1  0.430100  0.848000  0.076400  1.0
  H  H195  1  0.430100  0.652000  0.423600  1.0
  H  H196  1  0.069900  0.848000  0.423600  1.0
  H  H197  1  0.930100  0.348000  0.923600  1.0
  H  H198  1  0.569900  0.152000  0.923600  1.0
  H  H199  1  0.569900  0.348000  0.576400  1.0
  H  H200  1  0.930100  0.152000  0.576400  1.0
  H  H201  1  0.128700  0.582500  0.006400  1.0
  H  H202  1  0.371300  0.917500  0.006400  1.0
  H  H203  1  0.371300  0.582500  0.493600  1.0
  H  H204  1  0.128700  0.917500  0.493600  1.0
  H  H205  1  0.871300  0.417500  0.993600  1.0
  H  H206  1  0.628700  0.082500  0.993600  1.0
  H  H207  1  0.628700  0.417500  0.506400  1.0
  H  H208  1  0.871300  0.082500  0.506400  1.0
  H  H209  1  0.168300  0.641400  0.985700  1.0
  H  H210  1  0.331700  0.858600  0.985700  1.0
  H  H211  1  0.331700  0.641400  0.514300  1.0
  H  H212  1  0.168300  0.858600  0.514300  1.0
  H  H213  1  0.831700  0.358600  0.014300  1.0
  H  H214  1  0.668300  0.141400  0.014300  1.0
  H  H215  1  0.668300  0.358600  0.485700  1.0
  H  H216  1  0.831700  0.141400  0.485700  1.0
  H  H217  1  0.980500  0.777600  0.146600  1.0
  H  H218  1  0.519500  0.722400  0.146600  1.0
  H  H219  1  0.519500  0.777600  0.353400  1.0
  H  H220  1  0.980500  0.722400  0.353400  1.0
  H  H221  1  0.019500  0.222400  0.853400  1.0
  H  H222  1  0.480500  0.277600  0.853400  1.0
  H  H223  1  0.480500  0.222400  0.646600  1.0
  H  H224  1  0.019500  0.277600  0.646600  1.0
  H  H225  1  0.891400  0.781300  0.147100  1.0
  H  H226  1  0.608600  0.718700  0.147100  1.0
  H  H227  1  0.608600  0.781300  0.352900  1.0
  H  H228  1  0.891400  0.718700  0.352900  1.0
  H  H229  1  0.108600  0.218700  0.852900  1.0
  H  H230  1  0.391400  0.281300  0.852900  1.0
  H  H231  1  0.391400  0.218700  0.647100  1.0
  H  H232  1  0.108600  0.281300  0.647100  1.0
  H  H233  1  0.890400  0.789900  0.052800  1.0
  H  H234  1  0.609600  0.710100  0.052800  1.0
  H  H235  1  0.609600  0.789900  0.447200  1.0
  H  H236  1  0.890400  0.710100  0.447200  1.0
  H  H237  1  0.109600  0.210100  0.947200  1.0
  H  H238  1  0.390400  0.289900  0.947200  1.0
  H  H239  1  0.390400  0.210100  0.552800  1.0
  H  H240  1  0.109600  0.289900  0.552800  1.0
  H  H241  1  0.979500  0.786300  0.052300  1.0
  H  H242  1  0.520500  0.713700  0.052300  1.0
  H  H243  1  0.520500  0.786300  0.447700  1.0
  H  H244  1  0.979500  0.713700  0.447700  1.0
  H  H245  1  0.020500  0.213700  0.947700  1.0
  H  H246  1  0.479500  0.286300  0.947700  1.0
  H  H247  1  0.479500  0.213700  0.552300  1.0
  H  H248  1  0.020500  0.286300  0.552300  1.0
  H  H249  1  0.050900  0.796200  0.141200  1.0
  H  H250  1  0.449100  0.703800  0.141200  1.0
  H  H251  1  0.449100  0.796200  0.358800  1.0
  H  H252  1  0.050900  0.703800  0.358800  1.0
  H  H253  1  0.949100  0.203800  0.858800  1.0
  H  H254  1  0.550900  0.296200  0.858800  1.0
  H  H255  1  0.550900  0.203800  0.641200  1.0
  H  H256  1  0.949100  0.296200  0.641200  1.0
  H  H257  1  0.210300  0.744000  0.081400  1.0
  H  H258  1  0.289700  0.756000  0.081400  1.0
  H  H259  1  0.289700  0.744000  0.418600  1.0
  H  H260  1  0.210300  0.756000  0.418600  1.0
  H  H261  1  0.789700  0.256000  0.918600  1.0
  H  H262  1  0.710300  0.244000  0.918600  1.0
  H  H263  1  0.710300  0.256000  0.581400  1.0
  H  H264  1  0.789700  0.244000  0.581400  1.0
  H  H265  1  0.218700  0.775300  0.172200  1.0
  H  H266  1  0.281300  0.724700  0.172200  1.0
  H  H267  1  0.281300  0.775300  0.327800  1.0
  H  H268  1  0.218700  0.724700  0.327800  1.0
  H  H269  1  0.781300  0.224700  0.827800  1.0
  H  H270  1  0.718700  0.275300  0.827800  1.0
  H  H271  1  0.718700  0.224700  0.672200  1.0
  H  H272  1  0.781300  0.275300  0.672200  1.0
  H  H273  1  0.131800  0.789800  0.170100  1.0
  H  H274  1  0.368200  0.710200  0.170100  1.0
  H  H275  1  0.368200  0.789800  0.329900  1.0
  H  H276  1  0.131800  0.710200  0.329900  1.0
  H  H277  1  0.868200  0.210200  0.829900  1.0
  H  H278  1  0.631800  0.289800  0.829900  1.0
  H  H279  1  0.631800  0.210200  0.670100  1.0
  H  H280  1  0.868200  0.289800  0.670100  1.0
  H  H281  1  0.079900  0.114900  0.019500  1.0
  H  H282  1  0.420100  0.385100  0.019500  1.0
  H  H283  1  0.420100  0.114900  0.480500  1.0
  H  H284  1  0.079900  0.385100  0.480500  1.0
  H  H285  1  0.920100  0.885100  0.980500  1.0
  H  H286  1  0.579900  0.614900  0.980500  1.0
  H  H287  1  0.579900  0.885100  0.519500  1.0
  H  H288  1  0.920100  0.614900  0.519500  1.0
  H  H289  1  0.088600  0.118400  0.073800  1.0
  H  H290  1  0.411400  0.381600  0.073800  1.0
  H  H291  1  0.411400  0.118400  0.426200  1.0
  H  H292  1  0.088600  0.381600  0.426200  1.0
  H  H293  1  0.911400  0.881600  0.926200  1.0
  H  H294  1  0.588600  0.618400  0.926200  1.0
  H  H295  1  0.588600  0.881600  0.573800  1.0
  H  H296  1  0.911400  0.618400  0.573800  1.0
  H  H297  1  0.003600  0.014100  0.082700  1.0
  H  H298  1  0.496400  0.485900  0.082700  1.0
  H  H299  1  0.496400  0.014100  0.417300  1.0
  H  H300  1  0.003600  0.485900  0.417300  1.0
  H  H301  1  0.996400  0.985900  0.917300  1.0
  H  H302  1  0.503600  0.514100  0.917300  1.0
  H  H303  1  0.503600  0.985900  0.582700  1.0
  H  H304  1  0.996400  0.514100  0.582700  1.0
  H  H305  1  0.995000  0.010600  0.028400  1.0
  H  H306  1  0.505000  0.489400  0.028400  1.0
  H  H307  1  0.505000  0.010600  0.471600  1.0
  H  H308  1  0.995000  0.489400  0.471600  1.0
  H  H309  1  0.005000  0.989400  0.971600  1.0
  H  H310  1  0.495000  0.510600  0.971600  1.0
  H  H311  1  0.495000  0.989400  0.528400  1.0
  H  H312  1  0.005000  0.510600  0.528400  1.0
  H  H313  1  0.036400  0.118800  0.122400  1.0
  H  H314  1  0.463600  0.381200  0.122400  1.0
  H  H315  1  0.463600  0.118800  0.377600  1.0
  H  H316  1  0.036400  0.381200  0.377600  1.0
  H  H317  1  0.963600  0.881200  0.877600  1.0
  H  H318  1  0.536400  0.618800  0.877600  1.0
  H  H319  1  0.536400  0.881200  0.622400  1.0
  H  H320  1  0.963600  0.618800  0.622400  1.0
  H  H321  1  0.099300  0.030300  0.219500  1.0
  H  H322  1  0.400700  0.469700  0.219500  1.0
  H  H323  1  0.400700  0.030300  0.280500  1.0
  H  H324  1  0.099300  0.469700  0.280500  1.0
  H  H325  1  0.900700  0.969700  0.780500  1.0
  H  H326  1  0.599300  0.530300  0.780500  1.0
  H  H327  1  0.599300  0.969700  0.719500  1.0
  H  H328  1  0.900700  0.530300  0.719500  1.0
  H  H329  1  0.055600  0.150000  0.229500  1.0
  H  H330  1  0.444400  0.350000  0.229500  1.0
  H  H331  1  0.444400  0.150000  0.270500  1.0
  H  H332  1  0.055600  0.350000  0.270500  1.0
  H  H333  1  0.944400  0.850000  0.770500  1.0
  H  H334  1  0.555600  0.650000  0.770500  1.0
  H  H335  1  0.555600  0.850000  0.729500  1.0
  H  H336  1  0.944400  0.650000  0.729500  1.0
  H  H337  1  0.038200  0.153700  0.176000  1.0
  H  H338  1  0.461800  0.346300  0.176000  1.0
  H  H339  1  0.461800  0.153700  0.324000  1.0
  H  H340  1  0.038200  0.346300  0.324000  1.0
  H  H341  1  0.961800  0.846300  0.824000  1.0
  H  H342  1  0.538200  0.653700  0.824000  1.0
  H  H343  1  0.538200  0.846300  0.676000  1.0
  H  H344  1  0.961800  0.653700  0.676000  1.0
  H  H345  1  0.070300  0.030400  0.270300  1.0
  H  H346  1  0.429700  0.469600  0.270300  1.0
  H  H347  1  0.429700  0.030400  0.229700  1.0
  H  H348  1  0.070300  0.469600  0.229700  1.0
  H  H349  1  0.929700  0.969600  0.729700  1.0
  H  H350  1  0.570300  0.530400  0.729700  1.0
  H  H351  1  0.570300  0.969600  0.770300  1.0
  H  H352  1  0.929700  0.530400  0.770300  1.0
  H  H353  1  0.151400  0.139900  0.317500  1.0
  H  H354  1  0.348600  0.360100  0.317500  1.0
  H  H355  1  0.348600  0.139900  0.182500  1.0
  H  H356  1  0.151400  0.360100  0.182500  1.0
  H  H357  1  0.848600  0.860100  0.682500  1.0
  H  H358  1  0.651400  0.639900  0.682500  1.0
  H  H359  1  0.651400  0.860100  0.817500  1.0
  H  H360  1  0.848600  0.639900  0.817500  1.0
  H  H361  1  0.125900  0.146800  0.265700  1.0
  H  H362  1  0.374100  0.353200  0.265700  1.0
  H  H363  1  0.374100  0.146800  0.234300  1.0
  H  H364  1  0.125900  0.353200  0.234300  1.0
  H  H365  1  0.874100  0.853200  0.734300  1.0
  H  H366  1  0.625900  0.646800  0.734300  1.0
  H  H367  1  0.625900  0.853200  0.765700  1.0
  H  H368  1  0.874100  0.646800  0.765700  1.0
  H  H369  1  0.166600  0.097500  0.363800  1.0
  H  H370  1  0.333400  0.402500  0.363800  1.0
  H  H371  1  0.333400  0.097500  0.136200  1.0
  H  H372  1  0.166600  0.402500  0.136200  1.0
  H  H373  1  0.833400  0.902500  0.636200  1.0
  H  H374  1  0.666600  0.597500  0.636200  1.0
  H  H375  1  0.666600  0.902500  0.863800  1.0
  H  H376  1  0.833400  0.597500  0.863800  1.0
  H  H377  1  0.167300  0.097600  0.413100  1.0
  H  H378  1  0.332700  0.402400  0.413100  1.0
  H  H379  1  0.332700  0.097600  0.086900  1.0
  H  H380  1  0.167300  0.402400  0.086900  1.0
  H  H381  1  0.832700  0.902400  0.586900  1.0
  H  H382  1  0.667300  0.597600  0.586900  1.0
  H  H383  1  0.667300  0.902400  0.913100  1.0
  H  H384  1  0.832700  0.597600  0.913100  1.0
  H  H385  1  0.199800  0.086400  0.463200  1.0
  H  H386  1  0.300200  0.413600  0.463200  1.0
  H  H387  1  0.300200  0.086400  0.036800  1.0
  H  H388  1  0.199800  0.413600  0.036800  1.0
  H  H389  1  0.800200  0.913600  0.536800  1.0
  H  H390  1  0.699800  0.586400  0.536800  1.0
  H  H391  1  0.699800  0.913600  0.963200  1.0
  H  H392  1  0.800200  0.586400  0.963200  1.0
  H  H393  1  0.204100  0.962800  0.446600  1.0
  H  H394  1  0.295900  0.537200  0.446600  1.0
  H  H395  1  0.295900  0.962800  0.053400  1.0
  H  H396  1  0.204100  0.537200  0.053400  1.0
  H  H397  1  0.795900  0.037200  0.553400  1.0
  H  H398  1  0.704100  0.462800  0.553400  1.0
  H  H399  1  0.704100  0.037200  0.946600  1.0
  H  H400  1  0.795900  0.462800  0.946600  1.0
  H  H401  1  0.171700  0.973900  0.396400  1.0
  H  H402  1  0.328300  0.526100  0.396400  1.0
  H  H403  1  0.328300  0.973900  0.103600  1.0
  H  H404  1  0.171700  0.526100  0.103600  1.0
  H  H405  1  0.828300  0.026100  0.603600  1.0
  H  H406  1  0.671700  0.473900  0.603600  1.0
  H  H407  1  0.671700  0.026100  0.896400  1.0
  H  H408  1  0.828300  0.473900  0.896400  1.0
  H  H409  1  0.919400  0.879700  0.119000  1.0
  H  H410  1  0.580600  0.620300  0.119000  1.0
  H  H411  1  0.580600  0.879700  0.381000  1.0
  H  H412  1  0.919400  0.620300  0.381000  1.0
  H  H413  1  0.080600  0.120300  0.881000  1.0
  H  H414  1  0.419400  0.379700  0.881000  1.0
  H  H415  1  0.419400  0.120300  0.619000  1.0
  H  H416  1  0.080600  0.379700  0.619000  1.0
  H  H417  1  0.004800  0.888900  0.133400  1.0
  H  H418  1  0.495200  0.611100  0.133400  1.0
  H  H419  1  0.495200  0.888900  0.366600  1.0
  H  H420  1  0.004800  0.611100  0.366600  1.0
  H  H421  1  0.995200  0.111100  0.866600  1.0
  H  H422  1  0.504800  0.388900  0.866600  1.0
  H  H423  1  0.504800  0.111100  0.633400  1.0
  H  H424  1  0.995200  0.388900  0.633400  1.0
  H  H425  1  0.977800  0.010900  0.149100  1.0
  H  H426  1  0.522200  0.489100  0.149100  1.0
  H  H427  1  0.522200  0.010900  0.350900  1.0
  H  H428  1  0.977800  0.489100  0.350900  1.0
  H  H429  1  0.022200  0.989100  0.850900  1.0
  H  H430  1  0.477800  0.510900  0.850900  1.0
  H  H431  1  0.477800  0.989100  0.649100  1.0
  H  H432  1  0.022200  0.510900  0.649100  1.0
  H  H433  1  0.892400  0.001700  0.134600  1.0
  H  H434  1  0.607600  0.498300  0.134600  1.0
  H  H435  1  0.607600  0.001700  0.365400  1.0
  H  H436  1  0.892400  0.498300  0.365400  1.0
  H  H437  1  0.107600  0.998300  0.865400  1.0
  H  H438  1  0.392400  0.501700  0.865400  1.0
  H  H439  1  0.392400  0.998300  0.634600  1.0
  H  H440  1  0.107600  0.501700  0.634600  1.0
  H  H441  1  0.050300  0.901800  0.173700  1.0
  H  H442  1  0.449700  0.598200  0.173700  1.0
  H  H443  1  0.449700  0.901800  0.326300  1.0
  H  H444  1  0.050300  0.598200  0.326300  1.0
  H  H445  1  0.949700  0.098200  0.826300  1.0
  H  H446  1  0.550300  0.401800  0.826300  1.0
  H  H447  1  0.550300  0.098200  0.673700  1.0
  H  H448  1  0.949700  0.401800  0.673700  1.0
  H  H449  1  0.216900  0.986300  0.173200  1.0
  H  H450  1  0.283100  0.513700  0.173200  1.0
  H  H451  1  0.283100  0.986300  0.326800  1.0
  H  H452  1  0.216900  0.513700  0.326800  1.0
  H  H453  1  0.783100  0.013700  0.826800  1.0
  H  H454  1  0.716900  0.486300  0.826800  1.0
  H  H455  1  0.716900  0.013700  0.673200  1.0
  H  H456  1  0.783100  0.486300  0.673200  1.0
  H  H457  1  0.213300  0.868700  0.204700  1.0
  H  H458  1  0.286700  0.631300  0.204700  1.0
  H  H459  1  0.286700  0.868700  0.295300  1.0
  H  H460  1  0.213300  0.631300  0.295300  1.0
  H  H461  1  0.786700  0.131300  0.795300  1.0
  H  H462  1  0.713300  0.368700  0.795300  1.0
  H  H463  1  0.713300  0.131300  0.704700  1.0
  H  H464  1  0.786700  0.368700  0.704700  1.0
  H  H465  1  0.124400  0.868000  0.194600  1.0
  H  H466  1  0.375600  0.632000  0.194600  1.0
  H  H467  1  0.375600  0.868000  0.305400  1.0
  H  H468  1  0.124400  0.632000  0.305400  1.0
  H  H469  1  0.875600  0.132000  0.805400  1.0
  H  H470  1  0.624400  0.368000  0.805400  1.0
  H  H471  1  0.624400  0.132000  0.694600  1.0
  H  H472  1  0.875600  0.368000  0.694600  1.0
  H  H473  1  0.883700  0.911100  0.279200  1.0
  H  H474  1  0.616300  0.588900  0.279200  1.0
  H  H475  1  0.616300  0.911100  0.220800  1.0
  H  H476  1  0.883700  0.588900  0.220800  1.0
  H  H477  1  0.116300  0.088900  0.720800  1.0
  H  H478  1  0.383700  0.411100  0.720800  1.0
  H  H479  1  0.383700  0.088900  0.779200  1.0
  H  H480  1  0.116300  0.411100  0.779200  1.0
  H  H481  1  0.972900  0.912100  0.277900  1.0
  H  H482  1  0.527100  0.587900  0.277900  1.0
  H  H483  1  0.527100  0.912100  0.222100  1.0
  H  H484  1  0.972900  0.587900  0.222100  1.0
  H  H485  1  0.027100  0.087900  0.722100  1.0
  H  H486  1  0.472900  0.412100  0.722100  1.0
  H  H487  1  0.472900  0.087900  0.777900  1.0
  H  H488  1  0.027100  0.412100  0.777900  1.0
  H  H489  1  0.974800  0.979000  0.357900  1.0
  H  H490  1  0.525200  0.521000  0.357900  1.0
  H  H491  1  0.525200  0.979000  0.142100  1.0
  H  H492  1  0.974800  0.521000  0.142100  1.0
  H  H493  1  0.025200  0.021000  0.642100  1.0
  H  H494  1  0.474800  0.479000  0.642100  1.0
  H  H495  1  0.474800  0.021000  0.857900  1.0
  H  H496  1  0.025200  0.479000  0.857900  1.0
  H  H497  1  0.885600  0.978000  0.359200  1.0
  H  H498  1  0.614400  0.522000  0.359200  1.0
  H  H499  1  0.614400  0.978000  0.140800  1.0
  H  H500  1  0.885600  0.522000  0.140800  1.0
  H  H501  1  0.114400  0.022000  0.640800  1.0
  H  H502  1  0.385600  0.478000  0.640800  1.0
  H  H503  1  0.385600  0.022000  0.859200  1.0
  H  H504  1  0.114400  0.478000  0.859200  1.0
  H  H505  1  0.043100  0.910500  0.285900  1.0
  H  H506  1  0.456900  0.589500  0.285900  1.0
  H  H507  1  0.456900  0.910500  0.214100  1.0
  H  H508  1  0.043100  0.589500  0.214100  1.0
  H  H509  1  0.956900  0.089500  0.714100  1.0
  H  H510  1  0.543100  0.410500  0.714100  1.0
  H  H511  1  0.543100  0.089500  0.785900  1.0
  H  H512  1  0.956900  0.410500  0.785900  1.0
  H  H513  1  0.205200  0.968500  0.342100  1.0
  H  H514  1  0.294800  0.531500  0.342100  1.0
  H  H515  1  0.294800  0.968500  0.157900  1.0
  H  H516  1  0.205200  0.531500  0.157900  1.0
  H  H517  1  0.794800  0.031500  0.657900  1.0
  H  H518  1  0.705200  0.468500  0.657900  1.0
  H  H519  1  0.705200  0.031500  0.842100  1.0
  H  H520  1  0.794800  0.468500  0.842100  1.0
  H  H521  1  0.216500  0.887400  0.270200  1.0
  H  H522  1  0.283500  0.612600  0.270200  1.0
  H  H523  1  0.283500  0.887400  0.229800  1.0
  H  H524  1  0.216500  0.612600  0.229800  1.0
  H  H525  1  0.783500  0.112600  0.729800  1.0
  H  H526  1  0.716500  0.387400  0.729800  1.0
  H  H527  1  0.716500  0.112600  0.770200  1.0
  H  H528  1  0.783500  0.387400  0.770200  1.0
  H  H529  1  0.127600  0.887600  0.264800  1.0
  H  H530  1  0.372400  0.612400  0.264800  1.0
  H  H531  1  0.372400  0.887600  0.235200  1.0
  H  H532  1  0.127600  0.612400  0.235200  1.0
  H  H533  1  0.872400  0.112400  0.735200  1.0
  H  H534  1  0.627600  0.387600  0.735200  1.0
  H  H535  1  0.627600  0.112400  0.764800  1.0
  H  H536  1  0.872400  0.387600  0.764800  1.0
  H  H537  1  0.955300  0.114300  0.297100  1.0
  H  H538  1  0.544700  0.385700  0.297100  1.0
  H  H539  1  0.544700  0.114300  0.202900  1.0
  H  H540  1  0.955300  0.385700  0.202900  1.0
  H  H541  1  0.044700  0.885700  0.702900  1.0
  H  H542  1  0.455300  0.614300  0.702900  1.0
  H  H543  1  0.455300  0.885700  0.797100  1.0
  H  H544  1  0.044700  0.614300  0.797100  1.0
  H  H545  1  0.028400  0.181000  0.363600  1.0
  H  H546  1  0.471600  0.319000  0.363600  1.0
  H  H547  1  0.471600  0.181000  0.136400  1.0
  H  H548  1  0.028400  0.319000  0.136400  1.0
  H  H549  1  0.971600  0.819000  0.636400  1.0
  H  H550  1  0.528400  0.681000  0.636400  1.0
  H  H551  1  0.528400  0.819000  0.863600  1.0
  H  H552  1  0.971600  0.681000  0.863600  1.0
  H  H553  1  0.048100  0.119800  0.390300  1.0
  H  H554  1  0.451900  0.380200  0.390300  1.0
  H  H555  1  0.451900  0.119800  0.109700  1.0
  H  H556  1  0.048100  0.380200  0.109700  1.0
  H  H557  1  0.951900  0.880200  0.609700  1.0
  H  H558  1  0.548100  0.619800  0.609700  1.0
  H  H559  1  0.548100  0.880200  0.890300  1.0
  H  H560  1  0.951900  0.619800  0.890300  1.0
  H  H561  1  0.975000  0.053100  0.323800  1.0
  H  H562  1  0.525000  0.446900  0.323800  1.0
  H  H563  1  0.525000  0.053100  0.176200  1.0
  H  H564  1  0.975000  0.446900  0.176200  1.0
  H  H565  1  0.025000  0.946900  0.676200  1.0
  H  H566  1  0.475000  0.553100  0.676200  1.0
  H  H567  1  0.475000  0.946900  0.823800  1.0
  H  H568  1  0.025000  0.553100  0.823800  1.0
  H  H569  1  0.014800  0.064100  0.415800  1.0
  H  H570  1  0.485200  0.435900  0.415800  1.0
  H  H571  1  0.485200  0.064100  0.084200  1.0
  H  H572  1  0.014800  0.435900  0.084200  1.0
  H  H573  1  0.985200  0.935900  0.584200  1.0
  H  H574  1  0.514800  0.564100  0.584200  1.0
  H  H575  1  0.514800  0.935900  0.915800  1.0
  H  H576  1  0.985200  0.564100  0.915800  1.0
  H  H577  1  0.087800  0.910400  0.395300  1.0
  H  H578  1  0.412200  0.589600  0.395300  1.0
  H  H579  1  0.412200  0.910400  0.104700  1.0
  H  H580  1  0.087800  0.589600  0.104700  1.0
  H  H581  1  0.912200  0.089600  0.604700  1.0
  H  H582  1  0.587800  0.410400  0.604700  1.0
  H  H583  1  0.587800  0.089600  0.895300  1.0
  H  H584  1  0.912200  0.410400  0.895300  1.0
  H  H585  1  0.052900  0.949700  0.482600  1.0
  H  H586  1  0.447100  0.550300  0.482600  1.0
  H  H587  1  0.447100  0.949700  0.017400  1.0
  H  H588  1  0.052900  0.550300  0.017400  1.0
  H  H589  1  0.947100  0.050300  0.517400  1.0
  H  H590  1  0.552900  0.449700  0.517400  1.0
  H  H591  1  0.552900  0.050300  0.982600  1.0
  H  H592  1  0.947100  0.449700  0.982600  1.0
  H  H593  1  0.025400  0.013200  0.462300  1.0
  H  H594  1  0.474600  0.486800  0.462300  1.0
  H  H595  1  0.474600  0.013200  0.037700  1.0
  H  H596  1  0.025400  0.486800  0.037700  1.0
  H  H597  1  0.974600  0.986800  0.537700  1.0
  H  H598  1  0.525400  0.513200  0.537700  1.0
  H  H599  1  0.525400  0.986800  0.962300  1.0
  H  H600  1  0.974600  0.513200  0.962300  1.0
  H  H601  1  0.905900  0.547500  0.979900  0.5
  H  H602  1  0.594100  0.952500  0.979900  0.5
  H  H603  1  0.594100  0.547500  0.520100  0.5
  H  H604  1  0.905900  0.952500  0.520100  0.5
  H  H605  1  0.094100  0.452500  0.020100  0.5
  H  H606  1  0.405900  0.047500  0.020100  0.5
  H  H607  1  0.405900  0.452500  0.479900  0.5
  H  H608  1  0.094100  0.047500  0.479900  0.5
  H  H609  1  0.889600  0.587700  0.999400  0.5
  H  H610  1  0.610400  0.912300  0.999400  0.5
  H  H611  1  0.610400  0.587700  0.500600  0.5
  H  H612  1  0.889600  0.912300  0.500600  0.5
  H  H613  1  0.110400  0.412300  0.000600  0.5
  H  H614  1  0.389600  0.087700  0.000600  0.5
  H  H615  1  0.389600  0.412300  0.499400  0.5
  H  H616  1  0.110400  0.087700  0.499400  0.5
  H  H617  1  0.939800  0.562400  0.008800  0.5
  H  H618  1  0.560200  0.937600  0.008800  0.5
  H  H619  1  0.560200  0.562400  0.491200  0.5
  H  H620  1  0.939800  0.937600  0.491200  0.5
  H  H621  1  0.060200  0.437600  0.991200  0.5
  H  H622  1  0.439800  0.062400  0.991200  0.5
  H  H623  1  0.439800  0.437600  0.508800  0.5
  H  H624  1  0.060200  0.062400  0.508800  0.5
  H  H625  1  0.917700  0.584200  0.012200  0.5
  H  H626  1  0.582300  0.915800  0.012200  0.5
  H  H627  1  0.582300  0.584200  0.487800  0.5
  H  H628  1  0.917700  0.915800  0.487800  0.5
  H  H629  1  0.082300  0.415800  0.987800  0.5
  H  H630  1  0.417700  0.084200  0.987800  0.5
  H  H631  1  0.417700  0.415800  0.512200  0.5
  H  H632  1  0.082300  0.084200  0.512200  0.5
  H  H633  1  0.934000  0.544000  0.992700  0.5
  H  H634  1  0.566000  0.956000  0.992700  0.5
  H  H635  1  0.566000  0.544000  0.507300  0.5
  H  H636  1  0.934000  0.956000  0.507300  0.5
  H  H637  1  0.066000  0.456000  0.007300  0.5
  H  H638  1  0.434000  0.044000  0.007300  0.5
  H  H639  1  0.434000  0.456000  0.492700  0.5
  H  H640  1  0.066000  0.044000  0.492700  0.5
  H  H641  1  0.883800  0.569300  0.983200  0.5
  H  H642  1  0.616200  0.930700  0.983200  0.5
  H  H643  1  0.616200  0.569300  0.516800  0.5
  H  H644  1  0.883800  0.930700  0.516800  0.5
  H  H645  1  0.116200  0.430700  0.016800  0.5
  H  H646  1  0.383800  0.069300  0.016800  0.5
  H  H647  1  0.383800  0.430700  0.483200  0.5
  H  H648  1  0.116200  0.069300  0.483200  0.5
  H  H649  1  0.273700  0.213100  0.216100  0.5
  H  H650  1  0.226300  0.286900  0.216100  0.5
  H  H651  1  0.226300  0.213100  0.283900  0.5
  H  H652  1  0.273700  0.286900  0.283900  0.5
  H  H653  1  0.726300  0.786900  0.783900  0.5
  H  H654  1  0.773700  0.713100  0.783900  0.5
  H  H655  1  0.773700  0.786900  0.716100  0.5
  H  H656  1  0.726300  0.713100  0.716100  0.5
  H  H657  1  0.269900  0.163800  0.218800  0.5
  H  H658  1  0.230100  0.336200  0.218800  0.5
  H  H659  1  0.230100  0.163800  0.281200  0.5
  H  H660  1  0.269900  0.336200  0.281200  0.5
  H  H661  1  0.730100  0.836200  0.781200  0.5
  H  H662  1  0.769900  0.663800  0.781200  0.5
  H  H663  1  0.769900  0.836200  0.718800  0.5
  H  H664  1  0.730100  0.663800  0.718800  0.5
  H  H665  1  0.219100  0.191100  0.217500  0.5
  H  H666  1  0.280900  0.308900  0.217500  0.5
  H  H667  1  0.280900  0.191100  0.282500  0.5
  H  H668  1  0.219100  0.308900  0.282500  0.5
  H  H669  1  0.780900  0.808900  0.782500  0.5
  H  H670  1  0.719100  0.691100  0.782500  0.5
  H  H671  1  0.719100  0.808900  0.717500  0.5
  H  H672  1  0.780900  0.691100  0.717500  0.5
  H  H673  1  0.234800  0.165500  0.218800  0.5
  H  H674  1  0.265200  0.334500  0.218800  0.5
  H  H675  1  0.265200  0.165500  0.281200  0.5
  H  H676  1  0.234800  0.334500  0.281200  0.5
  H  H677  1  0.765200  0.834500  0.781200  0.5
  H  H678  1  0.734800  0.665500  0.781200  0.5
  H  H679  1  0.734800  0.834500  0.718800  0.5
  H  H680  1  0.765200  0.665500  0.718800  0.5
  H  H681  1  0.238500  0.214900  0.216100  0.5
  H  H682  1  0.261500  0.285100  0.216100  0.5
  H  H683  1  0.261500  0.214900  0.283900  0.5
  H  H684  1  0.238500  0.285100  0.283900  0.5
  H  H685  1  0.761500  0.785100  0.783900  0.5
  H  H686  1  0.738500  0.714900  0.783900  0.5
  H  H687  1  0.738500  0.785100  0.716100  0.5
  H  H688  1  0.761500  0.714900  0.716100  0.5
  H  H689  1  0.289400  0.187600  0.217400  0.5
  H  H690  1  0.210600  0.312400  0.217400  0.5
  H  H691  1  0.210600  0.187600  0.282600  0.5
  H  H692  1  0.289400  0.312400  0.282600  0.5
  H  H693  1  0.710600  0.812400  0.782600  0.5
  H  H694  1  0.789400  0.687600  0.782600  0.5
  H  H695  1  0.789400  0.812400  0.717400  0.5
  H  H696  1  0.710600  0.687600  0.717400  0.5
  H  H697  1  0.256200  0.927900  0.918100  0.5
  H  H698  1  0.243800  0.572100  0.918100  0.5
  H  H699  1  0.243800  0.927900  0.581900  0.5
  H  H700  1  0.256200  0.572100  0.581900  0.5
  H  H701  1  0.743800  0.072100  0.081900  0.5
  H  H702  1  0.756200  0.427900  0.081900  0.5
  H  H703  1  0.756200  0.072100  0.418100  0.5
  H  H704  1  0.743800  0.427900  0.418100  0.5
  H  H705  1  0.203100  0.903600  0.915600  0.5
  H  H706  1  0.296900  0.596400  0.915600  0.5
  H  H707  1  0.296900  0.903600  0.584400  0.5
  H  H708  1  0.203100  0.596400  0.584400  0.5
  H  H709  1  0.796900  0.096400  0.084400  0.5
  H  H710  1  0.703100  0.403600  0.084400  0.5
  H  H711  1  0.703100  0.096400  0.415600  0.5
  H  H712  1  0.796900  0.403600  0.415600  0.5
  H  H713  1  0.255700  0.879100  0.911300  0.5
  H  H714  1  0.244300  0.620900  0.911300  0.5
  H  H715  1  0.244300  0.879100  0.588700  0.5
  H  H716  1  0.255700  0.620900  0.588700  0.5
  H  H717  1  0.744300  0.120900  0.088700  0.5
  H  H718  1  0.755700  0.379100  0.088700  0.5
  H  H719  1  0.755700  0.120900  0.411300  0.5
  H  H720  1  0.744300  0.379100  0.411300  0.5
  H  H721  1  0.220500  0.879200  0.911900  0.5
  H  H722  1  0.279500  0.620800  0.911900  0.5
  H  H723  1  0.279500  0.879200  0.588100  0.5
  H  H724  1  0.220500  0.620800  0.588100  0.5
  H  H725  1  0.779500  0.120800  0.088100  0.5
  H  H726  1  0.720500  0.379200  0.088100  0.5
  H  H727  1  0.720500  0.120800  0.411900  0.5
  H  H728  1  0.779500  0.379200  0.411900  0.5
  H  H729  1  0.273500  0.903400  0.914400  0.5
  H  H730  1  0.226500  0.596600  0.914400  0.5
  H  H731  1  0.226500  0.903400  0.585600  0.5
  H  H732  1  0.273500  0.596600  0.585600  0.5
  H  H733  1  0.726500  0.096600  0.085600  0.5
  H  H734  1  0.773500  0.403400  0.085600  0.5
  H  H735  1  0.773500  0.096600  0.414400  0.5
  H  H736  1  0.726500  0.403400  0.414400  0.5
  H  H737  1  0.220900  0.927900  0.918700  0.5
  H  H738  1  0.279100  0.572100  0.918700  0.5
  H  H739  1  0.279100  0.927900  0.581300  0.5
  H  H740  1  0.220900  0.572100  0.581300  0.5
  H  H741  1  0.779100  0.072100  0.081300  0.5
  H  H742  1  0.720900  0.427900  0.081300  0.5
  H  H743  1  0.720900  0.072100  0.418700  0.5
  H  H744  1  0.779100  0.427900  0.418700  0.5
  H  H745  1  0.051200  0.094800  0.947000  0.5
  H  H746  1  0.448800  0.405200  0.947000  0.5
  H  H747  1  0.448800  0.094800  0.553000  0.5
  H  H748  1  0.051200  0.405200  0.553000  0.5
  H  H749  1  0.948800  0.905200  0.053000  0.5
  H  H750  1  0.551200  0.594800  0.053000  0.5
  H  H751  1  0.551200  0.905200  0.447000  0.5
  H  H752  1  0.948800  0.594800  0.447000  0.5
  H  H753  1  0.093000  0.093900  0.974100  0.5
  H  H754  1  0.407000  0.406100  0.974100  0.5
  H  H755  1  0.407000  0.093900  0.525900  0.5
  H  H756  1  0.093000  0.406100  0.525900  0.5
  H  H757  1  0.907000  0.906100  0.025900  0.5
  H  H758  1  0.593000  0.593900  0.025900  0.5
  H  H759  1  0.593000  0.906100  0.474100  0.5
  H  H760  1  0.907000  0.593900  0.474100  0.5
  H  H761  1  0.042800  0.121700  0.977900  0.5
  H  H762  1  0.457200  0.378300  0.977900  0.5
  H  H763  1  0.457200  0.121700  0.522100  0.5
  H  H764  1  0.042800  0.378300  0.522100  0.5
  H  H765  1  0.957200  0.878300  0.022100  0.5
  H  H766  1  0.542800  0.621700  0.022100  0.5
  H  H767  1  0.542800  0.878300  0.477900  0.5
  H  H768  1  0.957200  0.621700  0.477900  0.5
  H  H769  1  0.073500  0.112200  0.985700  0.5
  H  H770  1  0.426500  0.387800  0.985700  0.5
  H  H771  1  0.426500  0.112200  0.514300  0.5
  H  H772  1  0.073500  0.387800  0.514300  0.5
  H  H773  1  0.926500  0.887800  0.014300  0.5
  H  H774  1  0.573500  0.612200  0.014300  0.5
  H  H775  1  0.573500  0.887800  0.485700  0.5
  H  H776  1  0.926500  0.612200  0.485700  0.5
  H  H777  1  0.031700  0.113000  0.958500  0.5
  H  H778  1  0.468300  0.387000  0.958500  0.5
  H  H779  1  0.468300  0.113000  0.541500  0.5
  H  H780  1  0.031700  0.387000  0.541500  0.5
  H  H781  1  0.968300  0.887000  0.041500  0.5
  H  H782  1  0.531700  0.613000  0.041500  0.5
  H  H783  1  0.531700  0.887000  0.458500  0.5
  H  H784  1  0.968300  0.613000  0.458500  0.5
  H  H785  1  0.081800  0.085200  0.954800  0.5
  H  H786  1  0.418200  0.414800  0.954800  0.5
  H  H787  1  0.418200  0.085200  0.545200  0.5
  H  H788  1  0.081800  0.414800  0.545200  0.5
  H  H789  1  0.918200  0.914800  0.045200  0.5
  H  H790  1  0.581800  0.585200  0.045200  0.5
  H  H791  1  0.581800  0.914800  0.454800  0.5
  H  H792  1  0.918200  0.585200  0.454800  0.5
  H  H793  1  0.245400  0.975600  0.521300  0.5
  H  H794  1  0.254600  0.524400  0.521300  0.5
  H  H795  1  0.254600  0.975600  0.978700  0.5
  H  H796  1  0.245400  0.524400  0.978700  0.5
  H  H797  1  0.754600  0.024400  0.478700  0.5
  H  H798  1  0.745400  0.475600  0.478700  0.5
  H  H799  1  0.745400  0.024400  0.021300  0.5
  H  H800  1  0.754600  0.475600  0.021300  0.5
  H  H801  1  0.243000  0.957700  0.486500  0.5
  H  H802  1  0.257000  0.542300  0.486500  0.5
  H  H803  1  0.257000  0.957700  0.013500  0.5
  H  H804  1  0.243000  0.542300  0.013500  0.5
  H  H805  1  0.757000  0.042300  0.513500  0.5
  H  H806  1  0.743000  0.457700  0.513500  0.5
  H  H807  1  0.743000  0.042300  0.986500  0.5
  H  H808  1  0.757000  0.457700  0.986500  0.5
  H  H809  1  0.191400  0.968700  0.504600  0.5
  H  H810  1  0.308600  0.531300  0.504600  0.5
  H  H811  1  0.308600  0.968700  0.995400  0.5
  H  H812  1  0.191400  0.531300  0.995400  0.5
  H  H813  1  0.808600  0.031300  0.495400  0.5
  H  H814  1  0.691400  0.468700  0.495400  0.5
  H  H815  1  0.691400  0.031300  0.004600  0.5
  H  H816  1  0.808600  0.468700  0.004600  0.5
  H  H817  1  0.207800  0.959100  0.487000  0.5
  H  H818  1  0.292200  0.540900  0.487000  0.5
  H  H819  1  0.292200  0.959100  0.013000  0.5
  H  H820  1  0.207800  0.540900  0.013000  0.5
  H  H821  1  0.792200  0.040900  0.513000  0.5
  H  H822  1  0.707800  0.459100  0.513000  0.5
  H  H823  1  0.707800  0.040900  0.987000  0.5
  H  H824  1  0.792200  0.459100  0.987000  0.5
  H  H825  1  0.210200  0.977000  0.521700  0.5
  H  H826  1  0.289800  0.523000  0.521700  0.5
  H  H827  1  0.289800  0.977000  0.978300  0.5
  H  H828  1  0.210200  0.523000  0.978300  0.5
  H  H829  1  0.789800  0.023000  0.478300  0.5
  H  H830  1  0.710200  0.477000  0.478300  0.5
  H  H831  1  0.710200  0.023000  0.021700  0.5
  H  H832  1  0.789800  0.477000  0.021700  0.5
  H  H833  1  0.261800  0.965900  0.503600  0.5
  H  H834  1  0.238200  0.534100  0.503600  0.5
  H  H835  1  0.238200  0.965900  0.996400  0.5
  H  H836  1  0.261800  0.534100  0.996400  0.5
  H  H837  1  0.738200  0.034100  0.496400  0.5
  H  H838  1  0.761800  0.465900  0.496400  0.5
  H  H839  1  0.761800  0.034100  0.003600  0.5
  H  H840  1  0.738200  0.465900  0.003600  0.5
  H  H841  1  0.752000  0.965600  0.338800  0.5
  H  H842  1  0.748000  0.534400  0.338800  0.5
  H  H843  1  0.748000  0.965600  0.161200  0.5
  H  H844  1  0.752000  0.534400  0.161200  0.5
  H  H845  1  0.248000  0.034400  0.661200  0.5
  H  H846  1  0.252000  0.465600  0.661200  0.5
  H  H847  1  0.252000  0.034400  0.838800  0.5
  H  H848  1  0.248000  0.465600  0.838800  0.5
  H  H849  1  0.797300  0.997800  0.345200  0.5
  H  H850  1  0.702700  0.502200  0.345200  0.5
  H  H851  1  0.702700  0.997800  0.154800  0.5
  H  H852  1  0.797300  0.502200  0.154800  0.5
  H  H853  1  0.202700  0.002200  0.654800  0.5
  H  H854  1  0.297300  0.497800  0.654800  0.5
  H  H855  1  0.297300  0.002200  0.845200  0.5
  H  H856  1  0.202700  0.497800  0.845200  0.5
  H  H857  1  0.794700  0.955200  0.364300  0.5
  H  H858  1  0.705300  0.544800  0.364300  0.5
  H  H859  1  0.705300  0.955200  0.135700  0.5
  H  H860  1  0.794700  0.544800  0.135700  0.5
  H  H861  1  0.205300  0.044800  0.635700  0.5
  H  H862  1  0.294700  0.455200  0.635700  0.5
  H  H863  1  0.294700  0.044800  0.864300  0.5
  H  H864  1  0.205300  0.455200  0.864300  0.5
  H  H865  1  0.810600  0.980100  0.360100  0.5
  H  H866  1  0.689400  0.519900  0.360100  0.5
  H  H867  1  0.689400  0.980100  0.139900  0.5
  H  H868  1  0.810600  0.519900  0.139900  0.5
  H  H869  1  0.189400  0.019900  0.639900  0.5
  H  H870  1  0.310600  0.480100  0.639900  0.5
  H  H871  1  0.310600  0.019900  0.860100  0.5
  H  H872  1  0.189400  0.480100  0.860100  0.5
  H  H873  1  0.765400  0.947900  0.353700  0.5
  H  H874  1  0.734600  0.552100  0.353700  0.5
  H  H875  1  0.734600  0.947900  0.146300  0.5
  H  H876  1  0.765400  0.552100  0.146300  0.5
  H  H877  1  0.234600  0.052100  0.646300  0.5
  H  H878  1  0.265400  0.447900  0.646300  0.5
  H  H879  1  0.265400  0.052100  0.853700  0.5
  H  H880  1  0.234600  0.447900  0.853700  0.5
  H  H881  1  0.768000  0.990500  0.334600  0.5
  H  H882  1  0.732000  0.509500  0.334600  0.5
  H  H883  1  0.732000  0.990500  0.165400  0.5
  H  H884  1  0.768000  0.509500  0.165400  0.5
  H  H885  1  0.232000  0.009500  0.665400  0.5
  H  H886  1  0.268000  0.490500  0.665400  0.5
  H  H887  1  0.268000  0.009500  0.834600  0.5
  H  H888  1  0.232000  0.490500  0.834600  0.5
  H  H889  1  0.983800  0.253600  0.310500  0.5
  H  H890  1  0.516200  0.246400  0.310500  0.5
  H  H891  1  0.516200  0.253600  0.189500  0.5
  H  H892  1  0.983800  0.246400  0.189500  0.5
  H  H893  1  0.016200  0.746400  0.689500  0.5
  H  H894  1  0.483800  0.753600  0.689500  0.5
  H  H895  1  0.483800  0.746400  0.810500  0.5
  H  H896  1  0.016200  0.753600  0.810500  0.5
  H  H897  1  0.028000  0.230900  0.329800  0.5
  H  H898  1  0.472000  0.269100  0.329800  0.5
  H  H899  1  0.472000  0.230900  0.170200  0.5
  H  H900  1  0.028000  0.269100  0.170200  0.5
  H  H901  1  0.972000  0.769100  0.670200  0.5
  H  H902  1  0.528000  0.730900  0.670200  0.5
  H  H903  1  0.528000  0.769100  0.829800  0.5
  H  H904  1  0.972000  0.730900  0.829800  0.5
  H  H905  1  0.971900  0.234800  0.344300  0.5
  H  H906  1  0.528100  0.265200  0.344300  0.5
  H  H907  1  0.528100  0.234800  0.155700  0.5
  H  H908  1  0.971900  0.265200  0.155700  0.5
  H  H909  1  0.028100  0.765200  0.655700  0.5
  H  H910  1  0.471900  0.734800  0.655700  0.5
  H  H911  1  0.471900  0.765200  0.844300  0.5
  H  H912  1  0.028100  0.734800  0.844300  0.5
  H  H913  1  0.005300  0.226000  0.345900  0.5
  H  H914  1  0.494700  0.274000  0.345900  0.5
  H  H915  1  0.494700  0.226000  0.154100  0.5
  H  H916  1  0.005300  0.274000  0.154100  0.5
  H  H917  1  0.994700  0.774000  0.654100  0.5
  H  H918  1  0.505300  0.726000  0.654100  0.5
  H  H919  1  0.505300  0.774000  0.845900  0.5
  H  H920  1  0.994700  0.726000  0.845900  0.5
  H  H921  1  0.961100  0.248700  0.326600  0.5
  H  H922  1  0.538900  0.251300  0.326600  0.5
  H  H923  1  0.538900  0.248700  0.173400  0.5
  H  H924  1  0.961100  0.251300  0.173400  0.5
  H  H925  1  0.038900  0.751300  0.673400  0.5
  H  H926  1  0.461100  0.748700  0.673400  0.5
  H  H927  1  0.461100  0.751300  0.826600  0.5
  H  H928  1  0.038900  0.748700  0.826600  0.5
  H  H929  1  0.017200  0.244800  0.312100  0.5
  H  H930  1  0.482800  0.255200  0.312100  0.5
  H  H931  1  0.482800  0.244800  0.187900  0.5
  H  H932  1  0.017200  0.255200  0.187900  0.5
  H  H933  1  0.982800  0.755200  0.687900  0.5
  H  H934  1  0.517200  0.744800  0.687900  0.5
  H  H935  1  0.517200  0.755200  0.812100  0.5
  H  H936  1  0.982800  0.744800  0.812100  0.5
  H  H937  1  0.758200  0.790100  0.073900  0.5
  H  H938  1  0.741800  0.709900  0.073900  0.5
  H  H939  1  0.741800  0.790100  0.426100  0.5
  H  H940  1  0.758200  0.709900  0.426100  0.5
  H  H941  1  0.241800  0.209900  0.926100  0.5
  H  H942  1  0.258200  0.290100  0.926100  0.5
  H  H943  1  0.258200  0.209900  0.573900  0.5
  H  H944  1  0.241800  0.290100  0.573900  0.5
  H  H945  1  0.803800  0.770500  0.054000  0.5
  H  H946  1  0.696200  0.729500  0.054000  0.5
  H  H947  1  0.696200  0.770500  0.446000  0.5
  H  H948  1  0.803800  0.729500  0.446000  0.5
  H  H949  1  0.196200  0.229500  0.946000  0.5
  H  H950  1  0.303800  0.270500  0.946000  0.5
  H  H951  1  0.303800  0.229500  0.554000  0.5
  H  H952  1  0.196200  0.270500  0.554000  0.5
  H  H953  1  0.800800  0.819600  0.059000  0.5
  H  H954  1  0.699200  0.680400  0.059000  0.5
  H  H955  1  0.699200  0.819600  0.441000  0.5
  H  H956  1  0.800800  0.680400  0.441000  0.5
  H  H957  1  0.199200  0.180400  0.941000  0.5
  H  H958  1  0.300800  0.319600  0.941000  0.5
  H  H959  1  0.300800  0.180400  0.559000  0.5
  H  H960  1  0.199200  0.319600  0.559000  0.5
  H  H961  1  0.817000  0.796700  0.050600  0.5
  H  H962  1  0.683000  0.703300  0.050600  0.5
  H  H963  1  0.683000  0.796700  0.449400  0.5
  H  H964  1  0.817000  0.703300  0.449400  0.5
  H  H965  1  0.183000  0.203300  0.949400  0.5
  H  H966  1  0.317000  0.296700  0.949400  0.5
  H  H967  1  0.317000  0.203300  0.550600  0.5
  H  H968  1  0.183000  0.296700  0.550600  0.5
  H  H969  1  0.771400  0.816300  0.070600  0.5
  H  H970  1  0.728600  0.683700  0.070600  0.5
  H  H971  1  0.728600  0.816300  0.429400  0.5
  H  H972  1  0.771400  0.683700  0.429400  0.5
  H  H973  1  0.228600  0.183700  0.929400  0.5
  H  H974  1  0.271400  0.316300  0.929400  0.5
  H  H975  1  0.271400  0.183700  0.570600  0.5
  H  H976  1  0.228600  0.316300  0.570600  0.5
  H  H977  1  0.774500  0.767200  0.065600  0.5
  H  H978  1  0.725500  0.732800  0.065600  0.5
  H  H979  1  0.725500  0.767200  0.434400  0.5
  H  H980  1  0.774500  0.732800  0.434400  0.5
  H  H981  1  0.225500  0.232800  0.934400  0.5
  H  H982  1  0.274500  0.267200  0.934400  0.5
  H  H983  1  0.274500  0.232800  0.565600  0.5
  H  H984  1  0.225500  0.267200  0.565600  0.5
  H  H985  1  0.785400  0.897900  0.099100  0.5
  H  H986  1  0.714600  0.602100  0.099100  0.5
  H  H987  1  0.714600  0.897900  0.400900  0.5
  H  H988  1  0.785400  0.602100  0.400900  0.5
  H  H989  1  0.214600  0.102100  0.900900  0.5
  H  H990  1  0.285400  0.397900  0.900900  0.5
  H  H991  1  0.285400  0.102100  0.599100  0.5
  H  H992  1  0.214600  0.397900  0.599100  0.5
  H  H993  1  0.824300  0.871200  0.119700  0.5
  H  H994  1  0.675700  0.628800  0.119700  0.5
  H  H995  1  0.675700  0.871200  0.380300  0.5
  H  H996  1  0.824300  0.628800  0.380300  0.5
  H  H997  1  0.175700  0.128800  0.880300  0.5
  H  H998  1  0.324300  0.371200  0.880300  0.5
  H  H999  1  0.324300  0.128800  0.619700  0.5
  H  H1000  1  0.175700  0.371200  0.619700  0.5
  H  H1001  1  0.840000  0.885300  0.085300  0.5
  H  H1002  1  0.660000  0.614700  0.085300  0.5
  H  H1003  1  0.660000  0.885300  0.414700  0.5
  H  H1004  1  0.840000  0.614700  0.414700  0.5
  H  H1005  1  0.160000  0.114700  0.914700  0.5
  H  H1006  1  0.340000  0.385300  0.914700  0.5
  H  H1007  1  0.340000  0.114700  0.585300  0.5
  H  H1008  1  0.160000  0.385300  0.585300  0.5
  H  H1009  1  0.847700  0.871700  0.103600  0.5
  H  H1010  1  0.652300  0.628300  0.103600  0.5
  H  H1011  1  0.652300  0.871700  0.396400  0.5
  H  H1012  1  0.847700  0.628300  0.396400  0.5
  H  H1013  1  0.152300  0.128300  0.896400  0.5
  H  H1014  1  0.347700  0.371700  0.896400  0.5
  H  H1015  1  0.347700  0.128300  0.603600  0.5
  H  H1016  1  0.152300  0.371700  0.603600  0.5
  H  H1017  1  0.808800  0.898400  0.083000  0.5
  H  H1018  1  0.691200  0.601600  0.083000  0.5
  H  H1019  1  0.691200  0.898400  0.417000  0.5
  H  H1020  1  0.808800  0.601600  0.417000  0.5
  H  H1021  1  0.191200  0.101600  0.917000  0.5
  H  H1022  1  0.308800  0.398400  0.917000  0.5
  H  H1023  1  0.308800  0.101600  0.583000  0.5
  H  H1024  1  0.191200  0.398400  0.583000  0.5
  H  H1025  1  0.793200  0.884200  0.117500  0.5
  H  H1026  1  0.706800  0.615800  0.117500  0.5
  H  H1027  1  0.706800  0.884200  0.382500  0.5
  H  H1028  1  0.793200  0.615800  0.382500  0.5
  H  H1029  1  0.206800  0.115800  0.882500  0.5
  H  H1030  1  0.293200  0.384200  0.882500  0.5
  H  H1031  1  0.293200  0.115800  0.617500  0.5
  H  H1032  1  0.206800  0.384200  0.617500  0.5
  C  C1033  1  0.918600  0.571700  0.991400  1.0
  C  C1034  1  0.581400  0.928300  0.991400  1.0
  C  C1035  1  0.581400  0.571700  0.508600  1.0
  C  C1036  1  0.918600  0.928300  0.508600  1.0
  C  C1037  1  0.081400  0.428300  0.008600  1.0
  C  C1038  1  0.418600  0.071700  0.008600  1.0
  C  C1039  1  0.418600  0.428300  0.491400  1.0
  C  C1040  1  0.081400  0.071700  0.491400  1.0
  C  C1041  1  0.976700  0.637700  0.980800  1.0
  C  C1042  1  0.523300  0.862300  0.980800  1.0
  C  C1043  1  0.523300  0.637700  0.519200  1.0
  C  C1044  1  0.976700  0.862300  0.519200  1.0
  C  C1045  1  0.023300  0.362300  0.019200  1.0
  C  C1046  1  0.476700  0.137700  0.019200  1.0
  C  C1047  1  0.476700  0.362300  0.480800  1.0
  C  C1048  1  0.023300  0.137700  0.480800  1.0
  C  C1049  1  0.968800  0.650700  0.011300  1.0
  C  C1050  1  0.531200  0.849300  0.011300  1.0
  C  C1051  1  0.531200  0.650700  0.488700  1.0
  C  C1052  1  0.968800  0.849300  0.488700  1.0
  C  C1053  1  0.031200  0.349300  0.988700  1.0
  C  C1054  1  0.468800  0.150700  0.988700  1.0
  C  C1055  1  0.468800  0.349300  0.511300  1.0
  C  C1056  1  0.031200  0.150700  0.511300  1.0
  C  C1057  1  0.987700  0.688700  0.021200  1.0
  C  C1058  1  0.512300  0.811300  0.021200  1.0
  C  C1059  1  0.512300  0.688700  0.478800  1.0
  C  C1060  1  0.987700  0.811300  0.478800  1.0
  C  C1061  1  0.012300  0.311300  0.978800  1.0
  C  C1062  1  0.487700  0.188700  0.978800  1.0
  C  C1063  1  0.487700  0.311300  0.521200  1.0
  C  C1064  1  0.012300  0.188700  0.521200  1.0
  C  C1065  1  0.014400  0.713900  0.000600  1.0
  C  C1066  1  0.485600  0.786100  0.000600  1.0
  C  C1067  1  0.485600  0.713900  0.499400  1.0
  C  C1068  1  0.014400  0.786100  0.499400  1.0
  C  C1069  1  0.985600  0.286100  0.999400  1.0
  C  C1070  1  0.514400  0.213900  0.999400  1.0
  C  C1071  1  0.514400  0.286100  0.500600  1.0
  C  C1072  1  0.985600  0.213900  0.500600  1.0
  C  C1073  1  0.022200  0.700900  0.970000  1.0
  C  C1074  1  0.477800  0.799100  0.970000  1.0
  C  C1075  1  0.477800  0.700900  0.530000  1.0
  C  C1076  1  0.022200  0.799100  0.530000  1.0
  C  C1077  1  0.977800  0.299100  0.030000  1.0
  C  C1078  1  0.522200  0.200900  0.030000  1.0
  C  C1079  1  0.522200  0.299100  0.470000  1.0
  C  C1080  1  0.977800  0.200900  0.470000  1.0
  C  C1081  1  0.003400  0.662900  0.960100  1.0
  C  C1082  1  0.496600  0.837100  0.960100  1.0
  C  C1083  1  0.496600  0.662900  0.539900  1.0
  C  C1084  1  0.003400  0.837100  0.539900  1.0
  C  C1085  1  0.996600  0.337100  0.039900  1.0
  C  C1086  1  0.503400  0.162900  0.039900  1.0
  C  C1087  1  0.503400  0.337100  0.460100  1.0
  C  C1088  1  0.996600  0.162900  0.460100  1.0
  C  C1089  1  0.037900  0.782800  0.994700  1.0
  C  C1090  1  0.462100  0.717200  0.994700  1.0
  C  C1091  1  0.462100  0.782800  0.505300  1.0
  C  C1092  1  0.037900  0.717200  0.505300  1.0
  C  C1093  1  0.962100  0.217200  0.005300  1.0
  C  C1094  1  0.537900  0.282800  0.005300  1.0
  C  C1095  1  0.537900  0.217200  0.494700  1.0
  C  C1096  1  0.962100  0.282800  0.494700  1.0
  C  C1097  1  0.058700  0.822700  0.005270  1.0
  C  C1098  1  0.441300  0.677300  0.005270  1.0
  C  C1099  1  0.441300  0.822700  0.494730  1.0
  C  C1100  1  0.058700  0.677300  0.494730  1.0
  C  C1101  1  0.941300  0.177300  0.994730  1.0
  C  C1102  1  0.558700  0.322700  0.994730  1.0
  C  C1103  1  0.558700  0.177300  0.505270  1.0
  C  C1104  1  0.941300  0.322700  0.505270  1.0
  C  C1105  1  0.091500  0.860600  0.049310  1.0
  C  C1106  1  0.408500  0.639400  0.049310  1.0
  C  C1107  1  0.408500  0.860600  0.450690  1.0
  C  C1108  1  0.091500  0.639400  0.450690  1.0
  C  C1109  1  0.908500  0.139400  0.950690  1.0
  C  C1110  1  0.591500  0.360600  0.950690  1.0
  C  C1111  1  0.591500  0.139400  0.549310  1.0
  C  C1112  1  0.908500  0.360600  0.549310  1.0
  C  C1113  1  0.091400  0.896800  0.031700  1.0
  C  C1114  1  0.408600  0.603200  0.031700  1.0
  C  C1115  1  0.408600  0.896800  0.468300  1.0
  C  C1116  1  0.091400  0.603200  0.468300  1.0
  C  C1117  1  0.908600  0.103200  0.968300  1.0
  C  C1118  1  0.591400  0.396800  0.968300  1.0
  C  C1119  1  0.591400  0.103200  0.531700  1.0
  C  C1120  1  0.908600  0.396800  0.531700  1.0
  C  C1121  1  0.075000  0.895900  0.000900  1.0
  C  C1122  1  0.425000  0.604100  0.000900  1.0
  C  C1123  1  0.425000  0.895900  0.499100  1.0
  C  C1124  1  0.075000  0.604100  0.499100  1.0
  C  C1125  1  0.925000  0.104100  0.999100  1.0
  C  C1126  1  0.575000  0.395900  0.999100  1.0
  C  C1127  1  0.575000  0.104100  0.500900  1.0
  C  C1128  1  0.925000  0.395900  0.500900  1.0
  C  C1129  1  0.058600  0.858900  0.987660  1.0
  C  C1130  1  0.441400  0.641100  0.987660  1.0
  C  C1131  1  0.441400  0.858900  0.512340  1.0
  C  C1132  1  0.058600  0.641100  0.512340  1.0
  C  C1133  1  0.941400  0.141100  0.012340  1.0
  C  C1134  1  0.558600  0.358900  0.012340  1.0
  C  C1135  1  0.558600  0.141100  0.487660  1.0
  C  C1136  1  0.941400  0.358900  0.487660  1.0
  C  C1137  1  0.109600  0.935400  0.044900  1.0
  C  C1138  1  0.390400  0.564600  0.044900  1.0
  C  C1139  1  0.390400  0.935400  0.455100  1.0
  C  C1140  1  0.109600  0.564600  0.455100  1.0
  C  C1141  1  0.890400  0.064600  0.955100  1.0
  C  C1142  1  0.609600  0.435400  0.955100  1.0
  C  C1143  1  0.609600  0.064600  0.544900  1.0
  C  C1144  1  0.890400  0.435400  0.544900  1.0
  C  C1145  1  0.103000  0.945600  0.077000  1.0
  C  C1146  1  0.397000  0.554400  0.077000  1.0
  C  C1147  1  0.397000  0.945600  0.423000  1.0
  C  C1148  1  0.103000  0.554400  0.423000  1.0
  C  C1149  1  0.897000  0.054400  0.923000  1.0
  C  C1150  1  0.603000  0.445600  0.923000  1.0
  C  C1151  1  0.603000  0.054400  0.577000  1.0
  C  C1152  1  0.897000  0.445600  0.577000  1.0
  C  C1153  1  0.149800  0.004200  0.075200  1.0
  C  C1154  1  0.350200  0.495800  0.075200  1.0
  C  C1155  1  0.350200  0.004200  0.424800  1.0
  C  C1156  1  0.149800  0.495800  0.424800  1.0
  C  C1157  1  0.850200  0.995800  0.924800  1.0
  C  C1158  1  0.649800  0.504200  0.924800  1.0
  C  C1159  1  0.649800  0.995800  0.575200  1.0
  C  C1160  1  0.850200  0.504200  0.575200  1.0
  C  C1161  1  0.157800  0.998000  0.042900  1.0
  C  C1162  1  0.342200  0.502000  0.042900  1.0
  C  C1163  1  0.342200  0.998000  0.457100  1.0
  C  C1164  1  0.157800  0.502000  0.457100  1.0
  C  C1165  1  0.842200  0.002000  0.957100  1.0
  C  C1166  1  0.657800  0.498000  0.957100  1.0
  C  C1167  1  0.657800  0.002000  0.542900  1.0
  C  C1168  1  0.842200  0.498000  0.542900  1.0
  C  C1169  1  0.136700  0.962900  0.028200  1.0
  C  C1170  1  0.363300  0.537100  0.028200  1.0
  C  C1171  1  0.363300  0.962900  0.471800  1.0
  C  C1172  1  0.136700  0.537100  0.471800  1.0
  C  C1173  1  0.863300  0.037100  0.971800  1.0
  C  C1174  1  0.636700  0.462900  0.971800  1.0
  C  C1175  1  0.636700  0.037100  0.528200  1.0
  C  C1176  1  0.863300  0.462900  0.528200  1.0
  C  C1177  1  0.174300  0.040100  0.091200  1.0
  C  C1178  1  0.325700  0.459900  0.091200  1.0
  C  C1179  1  0.325700  0.040100  0.408800  1.0
  C  C1180  1  0.174300  0.459900  0.408800  1.0
  C  C1181  1  0.825700  0.959900  0.908800  1.0
  C  C1182  1  0.674300  0.540100  0.908800  1.0
  C  C1183  1  0.674300  0.959900  0.591200  1.0
  C  C1184  1  0.825700  0.540100  0.591200  1.0
  C  C1185  1  0.191900  0.081900  0.133500  1.0
  C  C1186  1  0.308100  0.418100  0.133500  1.0
  C  C1187  1  0.308100  0.081900  0.366500  1.0
  C  C1188  1  0.191900  0.418100  0.366500  1.0
  C  C1189  1  0.808100  0.918100  0.866500  1.0
  C  C1190  1  0.691900  0.581900  0.866500  1.0
  C  C1191  1  0.691900  0.918100  0.633500  1.0
  C  C1192  1  0.808100  0.581900  0.633500  1.0
  C  C1193  1  0.199900  0.082400  0.164300  1.0
  C  C1194  1  0.300100  0.417600  0.164300  1.0
  C  C1195  1  0.300100  0.082400  0.335700  1.0
  C  C1196  1  0.199900  0.417600  0.335700  1.0
  C  C1197  1  0.800100  0.917600  0.835700  1.0
  C  C1198  1  0.699900  0.582400  0.835700  1.0
  C  C1199  1  0.699900  0.917600  0.664300  1.0
  C  C1200  1  0.800100  0.582400  0.664300  1.0
  C  C1201  1  0.218100  0.116300  0.181300  1.0
  C  C1202  1  0.281900  0.383700  0.181300  1.0
  C  C1203  1  0.281900  0.116300  0.318700  1.0
  C  C1204  1  0.218100  0.383700  0.318700  1.0
  C  C1205  1  0.781900  0.883700  0.818700  1.0
  C  C1206  1  0.718100  0.616300  0.818700  1.0
  C  C1207  1  0.718100  0.883700  0.681300  1.0
  C  C1208  1  0.781900  0.616300  0.681300  1.0
  C  C1209  1  0.231000  0.149400  0.163800  1.0
  C  C1210  1  0.269000  0.350600  0.163800  1.0
  C  C1211  1  0.269000  0.149400  0.336200  1.0
  C  C1212  1  0.231000  0.350600  0.336200  1.0
  C  C1213  1  0.769000  0.850600  0.836200  1.0
  C  C1214  1  0.731000  0.649400  0.836200  1.0
  C  C1215  1  0.731000  0.850600  0.663800  1.0
  C  C1216  1  0.769000  0.649400  0.663800  1.0
  C  C1217  1  0.227600  0.151500  0.131700  1.0
  C  C1218  1  0.272400  0.348500  0.131700  1.0
  C  C1219  1  0.272400  0.151500  0.368300  1.0
  C  C1220  1  0.227600  0.348500  0.368300  1.0
  C  C1221  1  0.772400  0.848500  0.868300  1.0
  C  C1222  1  0.727600  0.651500  0.868300  1.0
  C  C1223  1  0.727600  0.848500  0.631700  1.0
  C  C1224  1  0.772400  0.651500  0.631700  1.0
  C  C1225  1  0.208100  0.117700  0.116600  1.0
  C  C1226  1  0.291900  0.382300  0.116600  1.0
  C  C1227  1  0.291900  0.117700  0.383400  1.0
  C  C1228  1  0.208100  0.382300  0.383400  1.0
  C  C1229  1  0.791900  0.882300  0.883400  1.0
  C  C1230  1  0.708100  0.617700  0.883400  1.0
  C  C1231  1  0.708100  0.882300  0.616600  1.0
  C  C1232  1  0.791900  0.617700  0.616600  1.0
  C  C1233  1  0.254200  0.188600  0.209800  1.0
  C  C1234  1  0.245800  0.311400  0.209800  1.0
  C  C1235  1  0.245800  0.188600  0.290200  1.0
  C  C1236  1  0.254200  0.311400  0.290200  1.0
  C  C1237  1  0.745800  0.811400  0.790200  1.0
  C  C1238  1  0.754200  0.688600  0.790200  1.0
  C  C1239  1  0.754200  0.811400  0.709800  1.0
  C  C1240  1  0.745800  0.688600  0.709800  1.0
  C  C1241  1  0.238600  0.901700  0.922500  1.0
  C  C1242  1  0.261400  0.598300  0.922500  1.0
  C  C1243  1  0.261400  0.901700  0.577500  1.0
  C  C1244  1  0.238600  0.598300  0.577500  1.0
  C  C1245  1  0.761400  0.098300  0.077500  1.0
  C  C1246  1  0.738600  0.401700  0.077500  1.0
  C  C1247  1  0.738600  0.098300  0.422500  1.0
  C  C1248  1  0.761400  0.401700  0.422500  1.0
  C  C1249  1  0.218600  0.856900  0.973300  1.0
  C  C1250  1  0.281400  0.643100  0.973300  1.0
  C  C1251  1  0.281400  0.856900  0.526700  1.0
  C  C1252  1  0.218600  0.643100  0.526700  1.0
  C  C1253  1  0.781400  0.143100  0.026700  1.0
  C  C1254  1  0.718600  0.356900  0.026700  1.0
  C  C1255  1  0.718600  0.143100  0.473300  1.0
  C  C1256  1  0.781400  0.356900  0.473300  1.0
  C  C1257  1  0.218700  0.853500  0.005600  1.0
  C  C1258  1  0.281300  0.646500  0.005600  1.0
  C  C1259  1  0.281300  0.853500  0.494400  1.0
  C  C1260  1  0.218700  0.646500  0.494400  1.0
  C  C1261  1  0.781300  0.146500  0.994400  1.0
  C  C1262  1  0.718700  0.353500  0.994400  1.0
  C  C1263  1  0.718700  0.146500  0.505600  1.0
  C  C1264  1  0.781300  0.353500  0.505600  1.0
  C  C1265  1  0.198900  0.818200  0.019800  1.0
  C  C1266  1  0.301100  0.681800  0.019800  1.0
  C  C1267  1  0.301100  0.818200  0.480200  1.0
  C  C1268  1  0.198900  0.681800  0.480200  1.0
  C  C1269  1  0.801100  0.181800  0.980200  1.0
  C  C1270  1  0.698900  0.318200  0.980200  1.0
  C  C1271  1  0.698900  0.181800  0.519800  1.0
  C  C1272  1  0.801100  0.318200  0.519800  1.0
  C  C1273  1  0.179000  0.786400  0.001700  1.0
  C  C1274  1  0.321000  0.713600  0.001700  1.0
  C  C1275  1  0.321000  0.786400  0.498300  1.0
  C  C1276  1  0.179000  0.713600  0.498300  1.0
  C  C1277  1  0.821000  0.213600  0.998300  1.0
  C  C1278  1  0.679000  0.286400  0.998300  1.0
  C  C1279  1  0.679000  0.213600  0.501700  1.0
  C  C1280  1  0.821000  0.286400  0.501700  1.0
  C  C1281  1  0.178900  0.789800  0.969400  1.0
  C  C1282  1  0.321100  0.710200  0.969400  1.0
  C  C1283  1  0.321100  0.789800  0.530600  1.0
  C  C1284  1  0.178900  0.710200  0.530600  1.0
  C  C1285  1  0.821100  0.210200  0.030600  1.0
  C  C1286  1  0.678900  0.289800  0.030600  1.0
  C  C1287  1  0.678900  0.210200  0.469400  1.0
  C  C1288  1  0.821100  0.289800  0.469400  1.0
  C  C1289  1  0.198700  0.825100  0.955200  1.0
  C  C1290  1  0.301300  0.674900  0.955200  1.0
  C  C1291  1  0.301300  0.825100  0.544800  1.0
  C  C1292  1  0.198700  0.674900  0.544800  1.0
  C  C1293  1  0.801300  0.174900  0.044800  1.0
  C  C1294  1  0.698700  0.325100  0.044800  1.0
  C  C1295  1  0.698700  0.174900  0.455200  1.0
  C  C1296  1  0.801300  0.325100  0.455200  1.0
  C  C1297  1  0.166000  0.716100  0.007900  1.0
  C  C1298  1  0.334000  0.783900  0.007900  1.0
  C  C1299  1  0.334000  0.716100  0.492100  1.0
  C  C1300  1  0.166000  0.783900  0.492100  1.0
  C  C1301  1  0.834000  0.283900  0.992100  1.0
  C  C1302  1  0.666000  0.216100  0.992100  1.0
  C  C1303  1  0.666000  0.283900  0.507900  1.0
  C  C1304  1  0.834000  0.216100  0.507900  1.0
  C  C1305  1  0.142500  0.681700  0.018700  1.0
  C  C1306  1  0.357500  0.818300  0.018700  1.0
  C  C1307  1  0.357500  0.681700  0.481300  1.0
  C  C1308  1  0.142500  0.818300  0.481300  1.0
  C  C1309  1  0.857500  0.318300  0.981300  1.0
  C  C1310  1  0.642500  0.181700  0.981300  1.0
  C  C1311  1  0.642500  0.318300  0.518700  1.0
  C  C1312  1  0.857500  0.181700  0.518700  1.0
  C  C1313  1  0.089800  0.649800  0.057990  1.0
  C  C1314  1  0.410200  0.850200  0.057990  1.0
  C  C1315  1  0.410200  0.649800  0.442010  1.0
  C  C1316  1  0.089800  0.850200  0.442010  1.0
  C  C1317  1  0.910200  0.350200  0.942010  1.0
  C  C1318  1  0.589800  0.149800  0.942010  1.0
  C  C1319  1  0.589800  0.350200  0.557990  1.0
  C  C1320  1  0.910200  0.149800  0.557990  1.0
  C  C1321  1  0.095600  0.611700  0.043300  1.0
  C  C1322  1  0.404400  0.888300  0.043300  1.0
  C  C1323  1  0.404400  0.611700  0.456700  1.0
  C  C1324  1  0.095600  0.888300  0.456700  1.0
  C  C1325  1  0.904400  0.388300  0.956700  1.0
  C  C1326  1  0.595600  0.111700  0.956700  1.0
  C  C1327  1  0.595600  0.388300  0.543300  1.0
  C  C1328  1  0.904400  0.111700  0.543300  1.0
  C  C1329  1  0.124800  0.608600  0.016400  1.0
  C  C1330  1  0.375200  0.891400  0.016400  1.0
  C  C1331  1  0.375200  0.608600  0.483600  1.0
  C  C1332  1  0.124800  0.891400  0.483600  1.0
  C  C1333  1  0.875200  0.391400  0.983600  1.0
  C  C1334  1  0.624800  0.108600  0.983600  1.0
  C  C1335  1  0.624800  0.391400  0.516400  1.0
  C  C1336  1  0.875200  0.108600  0.516400  1.0
  C  C1337  1  0.148300  0.643600  0.004080  1.0
  C  C1338  1  0.351700  0.856400  0.004080  1.0
  C  C1339  1  0.351700  0.643600  0.495920  1.0
  C  C1340  1  0.148300  0.856400  0.495920  1.0
  C  C1341  1  0.851700  0.356400  0.995920  1.0
  C  C1342  1  0.648300  0.143600  0.995920  1.0
  C  C1343  1  0.648300  0.356400  0.504080  1.0
  C  C1344  1  0.851700  0.143600  0.504080  1.0
  C  C1345  1  0.962200  0.780100  0.127600  1.0
  C  C1346  1  0.537800  0.719900  0.127600  1.0
  C  C1347  1  0.537800  0.780100  0.372400  1.0
  C  C1348  1  0.962200  0.719900  0.372400  1.0
  C  C1349  1  0.037800  0.219900  0.872400  1.0
  C  C1350  1  0.462200  0.280100  0.872400  1.0
  C  C1351  1  0.462200  0.219900  0.627600  1.0
  C  C1352  1  0.037800  0.280100  0.627600  1.0
  C  C1353  1  0.909300  0.782300  0.127900  1.0
  C  C1354  1  0.590700  0.717700  0.127900  1.0
  C  C1355  1  0.590700  0.782300  0.372100  1.0
  C  C1356  1  0.909300  0.717700  0.372100  1.0
  C  C1357  1  0.090700  0.217700  0.872100  1.0
  C  C1358  1  0.409300  0.282300  0.872100  1.0
  C  C1359  1  0.409300  0.217700  0.627900  1.0
  C  C1360  1  0.090700  0.282300  0.627900  1.0
  C  C1361  1  0.882500  0.786000  0.100000  1.0
  C  C1362  1  0.617500  0.714000  0.100000  1.0
  C  C1363  1  0.617500  0.786000  0.400000  1.0
  C  C1364  1  0.882500  0.714000  0.400000  1.0
  C  C1365  1  0.117500  0.214000  0.900000  1.0
  C  C1366  1  0.382500  0.286000  0.900000  1.0
  C  C1367  1  0.382500  0.214000  0.600000  1.0
  C  C1368  1  0.117500  0.286000  0.600000  1.0
  C  C1369  1  0.908700  0.787400  0.071800  1.0
  C  C1370  1  0.591300  0.712600  0.071800  1.0
  C  C1371  1  0.591300  0.787400  0.428200  1.0
  C  C1372  1  0.908700  0.712600  0.428200  1.0
  C  C1373  1  0.091300  0.212600  0.928200  1.0
  C  C1374  1  0.408700  0.287400  0.928200  1.0
  C  C1375  1  0.408700  0.212600  0.571800  1.0
  C  C1376  1  0.091300  0.287400  0.571800  1.0
  C  C1377  1  0.961600  0.785300  0.071500  1.0
  C  C1378  1  0.538400  0.714700  0.071500  1.0
  C  C1379  1  0.538400  0.785300  0.428500  1.0
  C  C1380  1  0.961600  0.714700  0.428500  1.0
  C  C1381  1  0.038400  0.214700  0.928500  1.0
  C  C1382  1  0.461600  0.285300  0.928500  1.0
  C  C1383  1  0.461600  0.214700  0.571500  1.0
  C  C1384  1  0.038400  0.285300  0.571500  1.0
  C  C1385  1  0.988400  0.781600  0.099400  1.0
  C  C1386  1  0.511600  0.718400  0.099400  1.0
  C  C1387  1  0.511600  0.781600  0.400600  1.0
  C  C1388  1  0.988400  0.718400  0.400600  1.0
  C  C1389  1  0.011600  0.218400  0.900600  1.0
  C  C1390  1  0.488400  0.281600  0.900600  1.0
  C  C1391  1  0.488400  0.218400  0.599400  1.0
  C  C1392  1  0.011600  0.281600  0.599400  1.0
  C  C1393  1  0.067200  0.783900  0.123700  1.0
  C  C1394  1  0.432800  0.716100  0.123700  1.0
  C  C1395  1  0.432800  0.783900  0.376300  1.0
  C  C1396  1  0.067200  0.716100  0.376300  1.0
  C  C1397  1  0.932800  0.216100  0.876300  1.0
  C  C1398  1  0.567200  0.283900  0.876300  1.0
  C  C1399  1  0.567200  0.216100  0.623700  1.0
  C  C1400  1  0.932800  0.283900  0.623700  1.0
  C  C1401  1  0.120300  0.776800  0.125200  1.0
  C  C1402  1  0.379700  0.723200  0.125200  1.0
  C  C1403  1  0.379700  0.776800  0.374800  1.0
  C  C1404  1  0.120300  0.723200  0.374800  1.0
  C  C1405  1  0.879700  0.223200  0.874800  1.0
  C  C1406  1  0.620300  0.276800  0.874800  1.0
  C  C1407  1  0.620300  0.223200  0.625200  1.0
  C  C1408  1  0.879700  0.276800  0.625200  1.0
  C  C1409  1  0.194500  0.753600  0.100000  1.0
  C  C1410  1  0.305500  0.746400  0.100000  1.0
  C  C1411  1  0.305500  0.753600  0.400000  1.0
  C  C1412  1  0.194500  0.746400  0.400000  1.0
  C  C1413  1  0.805500  0.246400  0.900000  1.0
  C  C1414  1  0.694500  0.253600  0.900000  1.0
  C  C1415  1  0.694500  0.246400  0.600000  1.0
  C  C1416  1  0.805500  0.253600  0.600000  1.0
  C  C1417  1  0.224500  0.756900  0.126200  1.0
  C  C1418  1  0.275500  0.743100  0.126200  1.0
  C  C1419  1  0.275500  0.756900  0.373800  1.0
  C  C1420  1  0.224500  0.743100  0.373800  1.0
  C  C1421  1  0.775500  0.243100  0.873800  1.0
  C  C1422  1  0.724500  0.256900  0.873800  1.0
  C  C1423  1  0.724500  0.243100  0.626200  1.0
  C  C1424  1  0.775500  0.256900  0.626200  1.0
  C  C1425  1  0.200200  0.771600  0.153400  1.0
  C  C1426  1  0.299800  0.728400  0.153400  1.0
  C  C1427  1  0.299800  0.771600  0.346600  1.0
  C  C1428  1  0.200200  0.728400  0.346600  1.0
  C  C1429  1  0.799800  0.228400  0.846600  1.0
  C  C1430  1  0.700200  0.271600  0.846600  1.0
  C  C1431  1  0.700200  0.228400  0.653400  1.0
  C  C1432  1  0.799800  0.271600  0.653400  1.0
  C  C1433  1  0.148500  0.780500  0.151700  1.0
  C  C1434  1  0.351500  0.719500  0.151700  1.0
  C  C1435  1  0.351500  0.780500  0.348300  1.0
  C  C1436  1  0.148500  0.719500  0.348300  1.0
  C  C1437  1  0.851500  0.219500  0.848300  1.0
  C  C1438  1  0.648500  0.280500  0.848300  1.0
  C  C1439  1  0.648500  0.219500  0.651700  1.0
  C  C1440  1  0.851500  0.280500  0.651700  1.0
  C  C1441  1  0.056400  0.095700  0.969600  1.0
  C  C1442  1  0.443600  0.404300  0.969600  1.0
  C  C1443  1  0.443600  0.095700  0.530400  1.0
  C  C1444  1  0.056400  0.404300  0.530400  1.0
  C  C1445  1  0.943600  0.904300  0.030400  1.0
  C  C1446  1  0.556400  0.595700  0.030400  1.0
  C  C1447  1  0.556400  0.904300  0.469600  1.0
  C  C1448  1  0.943600  0.595700  0.469600  1.0
  C  C1449  1  0.036600  0.062400  0.018860  1.0
  C  C1450  1  0.463400  0.437600  0.018860  1.0
  C  C1451  1  0.463400  0.062400  0.481140  1.0
  C  C1452  1  0.036600  0.437600  0.481140  1.0
  C  C1453  1  0.963400  0.937600  0.981140  1.0
  C  C1454  1  0.536600  0.562400  0.981140  1.0
  C  C1455  1  0.536600  0.937600  0.518860  1.0
  C  C1456  1  0.963400  0.562400  0.518860  1.0
  C  C1457  1  0.064400  0.094400  0.032300  1.0
  C  C1458  1  0.435600  0.405600  0.032300  1.0
  C  C1459  1  0.435600  0.094400  0.467700  1.0
  C  C1460  1  0.064400  0.405600  0.467700  1.0
  C  C1461  1  0.935600  0.905600  0.967700  1.0
  C  C1462  1  0.564400  0.594400  0.967700  1.0
  C  C1463  1  0.564400  0.905600  0.532300  1.0
  C  C1464  1  0.935600  0.594400  0.532300  1.0
  C  C1465  1  0.069600  0.096500  0.064600  1.0
  C  C1466  1  0.430400  0.403500  0.064600  1.0
  C  C1467  1  0.430400  0.096500  0.435400  1.0
  C  C1468  1  0.069600  0.403500  0.435400  1.0
  C  C1469  1  0.930400  0.903500  0.935400  1.0
  C  C1470  1  0.569600  0.596500  0.935400  1.0
  C  C1471  1  0.569600  0.903500  0.564600  1.0
  C  C1472  1  0.930400  0.596500  0.564600  1.0
  C  C1473  1  0.046900  0.066600  0.083340  1.0
  C  C1474  1  0.453100  0.433400  0.083340  1.0
  C  C1475  1  0.453100  0.066600  0.416660  1.0
  C  C1476  1  0.046900  0.433400  0.416660  1.0
  C  C1477  1  0.953100  0.933400  0.916660  1.0
  C  C1478  1  0.546900  0.566600  0.916660  1.0
  C  C1479  1  0.546900  0.933400  0.583340  1.0
  C  C1480  1  0.953100  0.566600  0.583340  1.0
  C  C1481  1  0.019100  0.034600  0.069800  1.0
  C  C1482  1  0.480900  0.465400  0.069800  1.0
  C  C1483  1  0.480900  0.034600  0.430200  1.0
  C  C1484  1  0.019100  0.465400  0.430200  1.0
  C  C1485  1  0.980900  0.965400  0.930200  1.0
  C  C1486  1  0.519100  0.534600  0.930200  1.0
  C  C1487  1  0.519100  0.965400  0.569800  1.0
  C  C1488  1  0.980900  0.534600  0.569800  1.0
  C  C1489  1  0.014000  0.032500  0.037600  1.0
  C  C1490  1  0.486000  0.467500  0.037600  1.0
  C  C1491  1  0.486000  0.032500  0.462400  1.0
  C  C1492  1  0.014000  0.467500  0.462400  1.0
  C  C1493  1  0.986000  0.967500  0.962400  1.0
  C  C1494  1  0.514000  0.532500  0.962400  1.0
  C  C1495  1  0.514000  0.967500  0.537600  1.0
  C  C1496  1  0.986000  0.532500  0.537600  1.0
  C  C1497  1  0.047800  0.094000  0.132200  1.0
  C  C1498  1  0.452200  0.406000  0.132200  1.0
  C  C1499  1  0.452200  0.094000  0.367800  1.0
  C  C1500  1  0.047800  0.406000  0.367800  1.0
  C  C1501  1  0.952200  0.906000  0.867800  1.0
  C  C1502  1  0.547800  0.594000  0.867800  1.0
  C  C1503  1  0.547800  0.906000  0.632200  1.0
  C  C1504  1  0.952200  0.594000  0.632200  1.0
  C  C1505  1  0.058500  0.094100  0.165980  1.0
  C  C1506  1  0.441500  0.405900  0.165980  1.0
  C  C1507  1  0.441500  0.094100  0.334020  1.0
  C  C1508  1  0.058500  0.405900  0.334020  1.0
  C  C1509  1  0.941500  0.905900  0.834020  1.0
  C  C1510  1  0.558500  0.594100  0.834020  1.0
  C  C1511  1  0.558500  0.905900  0.665980  1.0
  C  C1512  1  0.941500  0.594100  0.665980  1.0
  C  C1513  1  0.086900  0.055300  0.210700  1.0
  C  C1514  1  0.413100  0.444700  0.210700  1.0
  C  C1515  1  0.413100  0.055300  0.289300  1.0
  C  C1516  1  0.086900  0.444700  0.289300  1.0
  C  C1517  1  0.913100  0.944700  0.789300  1.0
  C  C1518  1  0.586900  0.555300  0.789300  1.0
  C  C1519  1  0.586900  0.944700  0.710700  1.0
  C  C1520  1  0.913100  0.555300  0.710700  1.0
  C  C1521  1  0.079100  0.089800  0.229520  1.0
  C  C1522  1  0.420900  0.410200  0.229520  1.0
  C  C1523  1  0.420900  0.089800  0.270480  1.0
  C  C1524  1  0.079100  0.410200  0.270480  1.0
  C  C1525  1  0.920900  0.910200  0.770480  1.0
  C  C1526  1  0.579100  0.589800  0.770480  1.0
  C  C1527  1  0.579100  0.910200  0.729520  1.0
  C  C1528  1  0.920900  0.589800  0.729520  1.0
  C  C1529  1  0.060900  0.126500  0.216600  1.0
  C  C1530  1  0.439100  0.373500  0.216600  1.0
  C  C1531  1  0.439100  0.126500  0.283400  1.0
  C  C1532  1  0.060900  0.373500  0.283400  1.0
  C  C1533  1  0.939100  0.873500  0.783400  1.0
  C  C1534  1  0.560900  0.626500  0.783400  1.0
  C  C1535  1  0.560900  0.873500  0.716600  1.0
  C  C1536  1  0.939100  0.626500  0.716600  1.0
  C  C1537  1  0.050600  0.128600  0.184800  1.0
  C  C1538  1  0.449400  0.371400  0.184800  1.0
  C  C1539  1  0.449400  0.128600  0.315200  1.0
  C  C1540  1  0.050600  0.371400  0.315200  1.0
  C  C1541  1  0.949400  0.871400  0.815200  1.0
  C  C1542  1  0.550600  0.628600  0.815200  1.0
  C  C1543  1  0.550600  0.871400  0.684800  1.0
  C  C1544  1  0.949400  0.628600  0.684800  1.0
  C  C1545  1  0.093200  0.088600  0.264000  1.0
  C  C1546  1  0.406800  0.411400  0.264000  1.0
  C  C1547  1  0.406800  0.088600  0.236000  1.0
  C  C1548  1  0.093200  0.411400  0.236000  1.0
  C  C1549  1  0.906800  0.911400  0.736000  1.0
  C  C1550  1  0.593200  0.588600  0.736000  1.0
  C  C1551  1  0.593200  0.911400  0.764000  1.0
  C  C1552  1  0.906800  0.588600  0.764000  1.0
  C  C1553  1  0.086400  0.053300  0.280200  1.0
  C  C1554  1  0.413600  0.446700  0.280200  1.0
  C  C1555  1  0.413600  0.053300  0.219800  1.0
  C  C1556  1  0.086400  0.446700  0.219800  1.0
  C  C1557  1  0.913600  0.946700  0.719800  1.0
  C  C1558  1  0.586400  0.553300  0.719800  1.0
  C  C1559  1  0.586400  0.946700  0.780200  1.0
  C  C1560  1  0.913600  0.553300  0.780200  1.0
  C  C1561  1  0.129700  0.080700  0.323800  1.0
  C  C1562  1  0.370300  0.419300  0.323800  1.0
  C  C1563  1  0.370300  0.080700  0.176200  1.0
  C  C1564  1  0.129700  0.419300  0.176200  1.0
  C  C1565  1  0.870300  0.919300  0.676200  1.0
  C  C1566  1  0.629700  0.580700  0.676200  1.0
  C  C1567  1  0.629700  0.919300  0.823800  1.0
  C  C1568  1  0.870300  0.580700  0.823800  1.0
  C  C1569  1  0.135500  0.117100  0.307400  1.0
  C  C1570  1  0.364500  0.382900  0.307400  1.0
  C  C1571  1  0.364500  0.117100  0.192600  1.0
  C  C1572  1  0.135500  0.382900  0.192600  1.0
  C  C1573  1  0.864500  0.882900  0.692600  1.0
  C  C1574  1  0.635500  0.617100  0.692600  1.0
  C  C1575  1  0.635500  0.882900  0.807400  1.0
  C  C1576  1  0.864500  0.617100  0.807400  1.0
  C  C1577  1  0.119500  0.122100  0.277100  1.0
  C  C1578  1  0.380500  0.377900  0.277100  1.0
  C  C1579  1  0.380500  0.122100  0.222900  1.0
  C  C1580  1  0.119500  0.377900  0.222900  1.0
  C  C1581  1  0.880500  0.877900  0.722900  1.0
  C  C1582  1  0.619500  0.622100  0.722900  1.0
  C  C1583  1  0.619500  0.877900  0.777100  1.0
  C  C1584  1  0.880500  0.622100  0.777100  1.0
  C  C1585  1  0.149200  0.075100  0.354100  1.0
  C  C1586  1  0.350800  0.424900  0.354100  1.0
  C  C1587  1  0.350800  0.075100  0.145900  1.0
  C  C1588  1  0.149200  0.424900  0.145900  1.0
  C  C1589  1  0.850800  0.924900  0.645900  1.0
  C  C1590  1  0.649200  0.575100  0.645900  1.0
  C  C1591  1  0.649200  0.924900  0.854100  1.0
  C  C1592  1  0.850800  0.575100  0.854100  1.0
  C  C1593  1  0.166500  0.036800  0.400010  1.0
  C  C1594  1  0.333500  0.463200  0.400010  1.0
  C  C1595  1  0.333500  0.036800  0.099990  1.0
  C  C1596  1  0.166500  0.463200  0.099990  1.0
  C  C1597  1  0.833500  0.963200  0.599990  1.0
  C  C1598  1  0.666500  0.536800  0.599990  1.0
  C  C1599  1  0.666500  0.963200  0.900010  1.0
  C  C1600  1  0.833500  0.536800  0.900010  1.0
  C  C1601  1  0.174800  0.070200  0.419900  1.0
  C  C1602  1  0.325200  0.429800  0.419900  1.0
  C  C1603  1  0.325200  0.070200  0.080100  1.0
  C  C1604  1  0.174800  0.429800  0.080100  1.0
  C  C1605  1  0.825200  0.929800  0.580100  1.0
  C  C1606  1  0.674800  0.570200  0.580100  1.0
  C  C1607  1  0.674800  0.929800  0.919900  1.0
  C  C1608  1  0.825200  0.570200  0.919900  1.0
  C  C1609  1  0.194100  0.063600  0.449600  1.0
  C  C1610  1  0.305900  0.436400  0.449600  1.0
  C  C1611  1  0.305900  0.063600  0.050400  1.0
  C  C1612  1  0.194100  0.436400  0.050400  1.0
  C  C1613  1  0.805900  0.936400  0.550400  1.0
  C  C1614  1  0.694100  0.563600  0.550400  1.0
  C  C1615  1  0.694100  0.936400  0.949600  1.0
  C  C1616  1  0.805900  0.563600  0.949600  1.0
  C  C1617  1  0.205000  0.023500  0.459600  1.0
  C  C1618  1  0.295000  0.476500  0.459600  1.0
  C  C1619  1  0.295000  0.023500  0.040400  1.0
  C  C1620  1  0.205000  0.476500  0.040400  1.0
  C  C1621  1  0.795000  0.976500  0.540400  1.0
  C  C1622  1  0.705000  0.523500  0.540400  1.0
  C  C1623  1  0.705000  0.976500  0.959600  1.0
  C  C1624  1  0.795000  0.523500  0.959600  1.0
  C  C1625  1  0.196700  0.990100  0.439800  1.0
  C  C1626  1  0.303300  0.509900  0.439800  1.0
  C  C1627  1  0.303300  0.990100  0.060200  1.0
  C  C1628  1  0.196700  0.509900  0.060200  1.0
  C  C1629  1  0.803300  0.009900  0.560200  1.0
  C  C1630  1  0.696700  0.490100  0.560200  1.0
  C  C1631  1  0.696700  0.009900  0.939800  1.0
  C  C1632  1  0.803300  0.490100  0.939800  1.0
  C  C1633  1  0.177400  0.996800  0.410000  1.0
  C  C1634  1  0.322600  0.503200  0.410000  1.0
  C  C1635  1  0.322600  0.996800  0.090000  1.0
  C  C1636  1  0.177400  0.503200  0.090000  1.0
  C  C1637  1  0.822600  0.003200  0.590000  1.0
  C  C1638  1  0.677400  0.496800  0.590000  1.0
  C  C1639  1  0.677400  0.003200  0.910000  1.0
  C  C1640  1  0.822600  0.496800  0.910000  1.0
  C  C1641  1  0.227100  0.976700  0.501300  1.0
  C  C1642  1  0.272900  0.523300  0.501300  1.0
  C  C1643  1  0.272900  0.976700  0.998700  1.0
  C  C1644  1  0.227100  0.523300  0.998700  1.0
  C  C1645  1  0.772900  0.023300  0.498700  1.0
  C  C1646  1  0.727100  0.476700  0.498700  1.0
  C  C1647  1  0.727100  0.023300  0.001300  1.0
  C  C1648  1  0.772900  0.476700  0.001300  1.0
  C  C1649  1  0.897900  0.939800  0.125400  1.0
  C  C1650  1  0.602100  0.560200  0.125400  1.0
  C  C1651  1  0.602100  0.939800  0.374600  1.0
  C  C1652  1  0.897900  0.560200  0.374600  1.0
  C  C1653  1  0.102100  0.060200  0.874600  1.0
  C  C1654  1  0.397900  0.439800  0.874600  1.0
  C  C1655  1  0.397900  0.060200  0.625400  1.0
  C  C1656  1  0.102100  0.439800  0.625400  1.0
  C  C1657  1  0.931300  0.906400  0.125100  1.0
  C  C1658  1  0.568700  0.593600  0.125100  1.0
  C  C1659  1  0.568700  0.906400  0.374900  1.0
  C  C1660  1  0.931300  0.593600  0.374900  1.0
  C  C1661  1  0.068700  0.093600  0.874900  1.0
  C  C1662  1  0.431300  0.406400  0.874900  1.0
  C  C1663  1  0.431300  0.093600  0.625100  1.0
  C  C1664  1  0.068700  0.406400  0.625100  1.0
  C  C1665  1  0.982000  0.911800  0.133700  1.0
  C  C1666  1  0.518000  0.588200  0.133700  1.0
  C  C1667  1  0.518000  0.911800  0.366300  1.0
  C  C1668  1  0.982000  0.588200  0.366300  1.0
  C  C1669  1  0.018000  0.088200  0.866300  1.0
  C  C1670  1  0.482000  0.411800  0.866300  1.0
  C  C1671  1  0.482000  0.088200  0.633700  1.0
  C  C1672  1  0.018000  0.411800  0.633700  1.0
  C  C1673  1  0.999300  0.950800  0.142600  1.0
  C  C1674  1  0.500700  0.549200  0.142600  1.0
  C  C1675  1  0.500700  0.950800  0.357400  1.0
  C  C1676  1  0.999300  0.549200  0.357400  1.0
  C  C1677  1  0.000700  0.049200  0.857400  1.0
  C  C1678  1  0.499300  0.450800  0.857400  1.0
  C  C1679  1  0.499300  0.049200  0.642600  1.0
  C  C1680  1  0.000700  0.450800  0.642600  1.0
  C  C1681  1  0.965900  0.984300  0.142900  1.0
  C  C1682  1  0.534100  0.515700  0.142900  1.0
  C  C1683  1  0.534100  0.984300  0.357100  1.0
  C  C1684  1  0.965900  0.515700  0.357100  1.0
  C  C1685  1  0.034100  0.015700  0.857100  1.0
  C  C1686  1  0.465900  0.484300  0.857100  1.0
  C  C1687  1  0.465900  0.015700  0.642900  1.0
  C  C1688  1  0.034100  0.484300  0.642900  1.0
  C  C1689  1  0.915200  0.978800  0.134400  1.0
  C  C1690  1  0.584800  0.521200  0.134400  1.0
  C  C1691  1  0.584800  0.978800  0.365600  1.0
  C  C1692  1  0.915200  0.521200  0.365600  1.0
  C  C1693  1  0.084800  0.021200  0.865600  1.0
  C  C1694  1  0.415200  0.478800  0.865600  1.0
  C  C1695  1  0.415200  0.021200  0.634400  1.0
  C  C1696  1  0.084800  0.478800  0.634400  1.0
  C  C1697  1  0.070300  0.925100  0.167900  1.0
  C  C1698  1  0.429700  0.574900  0.167900  1.0
  C  C1699  1  0.429700  0.925100  0.332100  1.0
  C  C1700  1  0.070300  0.574900  0.332100  1.0
  C  C1701  1  0.929700  0.074900  0.832100  1.0
  C  C1702  1  0.570300  0.425100  0.832100  1.0
  C  C1703  1  0.570300  0.074900  0.667900  1.0
  C  C1704  1  0.929700  0.425100  0.667900  1.0
  C  C1705  1  0.124300  0.927400  0.176100  1.0
  C  C1706  1  0.375700  0.572600  0.176100  1.0
  C  C1707  1  0.375700  0.927400  0.323900  1.0
  C  C1708  1  0.124300  0.572600  0.323900  1.0
  C  C1709  1  0.875700  0.072600  0.823900  1.0
  C  C1710  1  0.624300  0.427400  0.823900  1.0
  C  C1711  1  0.624300  0.072600  0.676100  1.0
  C  C1712  1  0.875700  0.427400  0.676100  1.0
  C  C1713  1  0.198500  0.961300  0.176500  1.0
  C  C1714  1  0.301500  0.538700  0.176500  1.0
  C  C1715  1  0.301500  0.961300  0.323500  1.0
  C  C1716  1  0.198500  0.538700  0.323500  1.0
  C  C1717  1  0.801500  0.038700  0.823500  1.0
  C  C1718  1  0.698500  0.461300  0.823500  1.0
  C  C1719  1  0.698500  0.038700  0.676500  1.0
  C  C1720  1  0.801500  0.461300  0.676500  1.0
  C  C1721  1  0.225000  0.927200  0.187700  1.0
  C  C1722  1  0.275000  0.572800  0.187700  1.0
  C  C1723  1  0.275000  0.927200  0.312300  1.0
  C  C1724  1  0.225000  0.572800  0.312300  1.0
  C  C1725  1  0.775000  0.072800  0.812300  1.0
  C  C1726  1  0.725000  0.427200  0.812300  1.0
  C  C1727  1  0.725000  0.072800  0.687700  1.0
  C  C1728  1  0.775000  0.427200  0.687700  1.0
  C  C1729  1  0.196900  0.892000  0.195500  1.0
  C  C1730  1  0.303100  0.608000  0.195500  1.0
  C  C1731  1  0.303100  0.892000  0.304500  1.0
  C  C1732  1  0.196900  0.608000  0.304500  1.0
  C  C1733  1  0.803100  0.108000  0.804500  1.0
  C  C1734  1  0.696900  0.392000  0.804500  1.0
  C  C1735  1  0.696900  0.108000  0.695500  1.0
  C  C1736  1  0.803100  0.392000  0.695500  1.0
  C  C1737  1  0.144900  0.891300  0.189700  1.0
  C  C1738  1  0.355100  0.608700  0.189700  1.0
  C  C1739  1  0.355100  0.891300  0.310300  1.0
  C  C1740  1  0.144900  0.608700  0.310300  1.0
  C  C1741  1  0.855100  0.108700  0.810300  1.0
  C  C1742  1  0.644900  0.391300  0.810300  1.0
  C  C1743  1  0.644900  0.108700  0.689700  1.0
  C  C1744  1  0.855100  0.391300  0.689700  1.0
  C  C1745  1  0.788200  0.968300  0.344100  1.0
  C  C1746  1  0.711800  0.531700  0.344100  1.0
  C  C1747  1  0.711800  0.968300  0.155900  1.0
  C  C1748  1  0.788200  0.531700  0.155900  1.0
  C  C1749  1  0.211800  0.031700  0.655900  1.0
  C  C1750  1  0.288200  0.468300  0.655900  1.0
  C  C1751  1  0.288200  0.031700  0.844100  1.0
  C  C1752  1  0.211800  0.468300  0.844100  1.0
  C  C1753  1  0.876200  0.944400  0.319300  1.0
  C  C1754  1  0.623800  0.555600  0.319300  1.0
  C  C1755  1  0.623800  0.944400  0.180700  1.0
  C  C1756  1  0.876200  0.555600  0.180700  1.0
  C  C1757  1  0.123800  0.055600  0.680700  1.0
  C  C1758  1  0.376200  0.444400  0.680700  1.0
  C  C1759  1  0.376200  0.055600  0.819300  1.0
  C  C1760  1  0.123800  0.444400  0.819300  1.0
  C  C1761  1  0.902200  0.924900  0.295200  1.0
  C  C1762  1  0.597800  0.575100  0.295200  1.0
  C  C1763  1  0.597800  0.924900  0.204800  1.0
  C  C1764  1  0.902200  0.575100  0.204800  1.0
  C  C1765  1  0.097800  0.075100  0.704800  1.0
  C  C1766  1  0.402200  0.424900  0.704800  1.0
  C  C1767  1  0.402200  0.075100  0.795200  1.0
  C  C1768  1  0.097800  0.424900  0.795200  1.0
  C  C1769  1  0.955200  0.925400  0.294400  1.0
  C  C1770  1  0.544800  0.574600  0.294400  1.0
  C  C1771  1  0.544800  0.925400  0.205600  1.0
  C  C1772  1  0.955200  0.574600  0.205600  1.0
  C  C1773  1  0.044800  0.074600  0.705600  1.0
  C  C1774  1  0.455200  0.425400  0.705600  1.0
  C  C1775  1  0.455200  0.074600  0.794400  1.0
  C  C1776  1  0.044800  0.425400  0.794400  1.0
  C  C1777  1  0.982200  0.945600  0.317800  1.0
  C  C1778  1  0.517800  0.554400  0.317800  1.0
  C  C1779  1  0.517800  0.945600  0.182200  1.0
  C  C1780  1  0.982200  0.554400  0.182200  1.0
  C  C1781  1  0.017800  0.054400  0.682200  1.0
  C  C1782  1  0.482200  0.445600  0.682200  1.0
  C  C1783  1  0.482200  0.054400  0.817800  1.0
  C  C1784  1  0.017800  0.445600  0.817800  1.0
  C  C1785  1  0.956300  0.965200  0.341900  1.0
  C  C1786  1  0.543700  0.534800  0.341900  1.0
  C  C1787  1  0.543700  0.965200  0.158100  1.0
  C  C1788  1  0.956300  0.534800  0.158100  1.0
  C  C1789  1  0.043700  0.034800  0.658100  1.0
  C  C1790  1  0.456300  0.465200  0.658100  1.0
  C  C1791  1  0.456300  0.034800  0.841900  1.0
  C  C1792  1  0.043700  0.465200  0.841900  1.0
  C  C1793  1  0.903300  0.964600  0.342700  1.0
  C  C1794  1  0.596700  0.535400  0.342700  1.0
  C  C1795  1  0.596700  0.964600  0.157300  1.0
  C  C1796  1  0.903300  0.535400  0.157300  1.0
  C  C1797  1  0.096700  0.035400  0.657300  1.0
  C  C1798  1  0.403300  0.464600  0.657300  1.0
  C  C1799  1  0.403300  0.035400  0.842700  1.0
  C  C1800  1  0.096700  0.464600  0.842700  1.0
  C  C1801  1  0.059900  0.928800  0.299900  1.0
  C  C1802  1  0.440100  0.571200  0.299900  1.0
  C  C1803  1  0.440100  0.928800  0.200100  1.0
  C  C1804  1  0.059900  0.571200  0.200100  1.0
  C  C1805  1  0.940100  0.071200  0.700100  1.0
  C  C1806  1  0.559900  0.428800  0.700100  1.0
  C  C1807  1  0.559900  0.071200  0.799900  1.0
  C  C1808  1  0.940100  0.428800  0.799900  1.0
  C  C1809  1  0.113600  0.928100  0.300300  1.0
  C  C1810  1  0.386400  0.571900  0.300300  1.0
  C  C1811  1  0.386400  0.928100  0.199700  1.0
  C  C1812  1  0.113600  0.571900  0.199700  1.0
  C  C1813  1  0.886400  0.071900  0.699700  1.0
  C  C1814  1  0.613600  0.428100  0.699700  1.0
  C  C1815  1  0.613600  0.071900  0.800300  1.0
  C  C1816  1  0.886400  0.428100  0.800300  1.0
  C  C1817  1  0.189400  0.952100  0.326400  1.0
  C  C1818  1  0.310600  0.547900  0.326400  1.0
  C  C1819  1  0.310600  0.952100  0.173600  1.0
  C  C1820  1  0.189400  0.547900  0.173600  1.0
  C  C1821  1  0.810600  0.047900  0.673600  1.0
  C  C1822  1  0.689400  0.452100  0.673600  1.0
  C  C1823  1  0.689400  0.047900  0.826400  1.0
  C  C1824  1  0.810600  0.452100  0.826400  1.0
  C  C1825  1  0.219200  0.927900  0.306630  1.0
  C  C1826  1  0.280800  0.572100  0.306630  1.0
  C  C1827  1  0.280800  0.927900  0.193370  1.0
  C  C1828  1  0.219200  0.572100  0.193370  1.0
  C  C1829  1  0.780800  0.072100  0.693370  1.0
  C  C1830  1  0.719200  0.427900  0.693370  1.0
  C  C1831  1  0.719200  0.072100  0.806630  1.0
  C  C1832  1  0.780800  0.427900  0.806630  1.0
  C  C1833  1  0.196100  0.903900  0.283700  1.0
  C  C1834  1  0.303900  0.596100  0.283700  1.0
  C  C1835  1  0.303900  0.903900  0.216300  1.0
  C  C1836  1  0.196100  0.596100  0.216300  1.0
  C  C1837  1  0.803900  0.096100  0.716300  1.0
  C  C1838  1  0.696100  0.403900  0.716300  1.0
  C  C1839  1  0.696100  0.096100  0.783700  1.0
  C  C1840  1  0.803900  0.403900  0.783700  1.0
  C  C1841  1  0.143400  0.904000  0.280530  1.0
  C  C1842  1  0.356600  0.596000  0.280530  1.0
  C  C1843  1  0.356600  0.904000  0.219470  1.0
  C  C1844  1  0.143400  0.596000  0.219470  1.0
  C  C1845  1  0.856600  0.096000  0.719470  1.0
  C  C1846  1  0.643400  0.404000  0.719470  1.0
  C  C1847  1  0.643400  0.096000  0.780530  1.0
  C  C1848  1  0.856600  0.404000  0.780530  1.0
  C  C1849  1  0.991400  0.231000  0.325000  1.0
  C  C1850  1  0.508600  0.269000  0.325000  1.0
  C  C1851  1  0.508600  0.231000  0.175000  1.0
  C  C1852  1  0.991400  0.269000  0.175000  1.0
  C  C1853  1  0.008600  0.769000  0.675000  1.0
  C  C1854  1  0.491400  0.731000  0.675000  1.0
  C  C1855  1  0.491400  0.769000  0.825000  1.0
  C  C1856  1  0.008600  0.731000  0.825000  1.0
  C  C1857  1  0.974200  0.115400  0.316000  1.0
  C  C1858  1  0.525800  0.384600  0.316000  1.0
  C  C1859  1  0.525800  0.115400  0.184000  1.0
  C  C1860  1  0.974200  0.384600  0.184000  1.0
  C  C1861  1  0.025800  0.884600  0.684000  1.0
  C  C1862  1  0.474200  0.615400  0.684000  1.0
  C  C1863  1  0.474200  0.884600  0.816000  1.0
  C  C1864  1  0.025800  0.615400  0.816000  1.0
  C  C1865  1  0.990000  0.153400  0.327900  1.0
  C  C1866  1  0.510000  0.346600  0.327900  1.0
  C  C1867  1  0.510000  0.153400  0.172100  1.0
  C  C1868  1  0.990000  0.346600  0.172100  1.0
  C  C1869  1  0.010000  0.846600  0.672100  1.0
  C  C1870  1  0.490000  0.653400  0.672100  1.0
  C  C1871  1  0.490000  0.846600  0.827900  1.0
  C  C1872  1  0.010000  0.653400  0.827900  1.0
  C  C1873  1  0.017600  0.155100  0.355500  1.0
  C  C1874  1  0.482400  0.344900  0.355500  1.0
  C  C1875  1  0.482400  0.155100  0.144500  1.0
  C  C1876  1  0.017600  0.344900  0.144500  1.0
  C  C1877  1  0.982400  0.844900  0.644500  1.0
  C  C1878  1  0.517600  0.655100  0.644500  1.0
  C  C1879  1  0.517600  0.844900  0.855500  1.0
  C  C1880  1  0.982400  0.655100  0.855500  1.0
  C  C1881  1  0.029300  0.118700  0.371400  1.0
  C  C1882  1  0.470700  0.381300  0.371400  1.0
  C  C1883  1  0.470700  0.118700  0.128600  1.0
  C  C1884  1  0.029300  0.381300  0.128600  1.0
  C  C1885  1  0.970700  0.881300  0.628600  1.0
  C  C1886  1  0.529300  0.618700  0.628600  1.0
  C  C1887  1  0.529300  0.881300  0.871400  1.0
  C  C1888  1  0.970700  0.618700  0.871400  1.0
  C  C1889  1  0.013400  0.080700  0.359500  1.0
  C  C1890  1  0.486600  0.419300  0.359500  1.0
  C  C1891  1  0.486600  0.080700  0.140500  1.0
  C  C1892  1  0.013400  0.419300  0.140500  1.0
  C  C1893  1  0.986600  0.919300  0.640500  1.0
  C  C1894  1  0.513400  0.580700  0.640500  1.0
  C  C1895  1  0.513400  0.919300  0.859500  1.0
  C  C1896  1  0.986600  0.580700  0.859500  1.0
  C  C1897  1  0.985900  0.079100  0.331900  1.0
  C  C1898  1  0.514100  0.420900  0.331900  1.0
  C  C1899  1  0.514100  0.079100  0.168100  1.0
  C  C1900  1  0.985900  0.420900  0.168100  1.0
  C  C1901  1  0.014100  0.920900  0.668100  1.0
  C  C1902  1  0.485900  0.579100  0.668100  1.0
  C  C1903  1  0.485900  0.920900  0.831900  1.0
  C  C1904  1  0.014100  0.579100  0.831900  1.0
  C  C1905  1  0.025000  0.041400  0.403100  1.0
  C  C1906  1  0.475000  0.458600  0.403100  1.0
  C  C1907  1  0.475000  0.041400  0.096900  1.0
  C  C1908  1  0.025000  0.458600  0.096900  1.0
  C  C1909  1  0.975000  0.958600  0.596900  1.0
  C  C1910  1  0.525000  0.541400  0.596900  1.0
  C  C1911  1  0.525000  0.958600  0.903100  1.0
  C  C1912  1  0.975000  0.541400  0.903100  1.0
  C  C1913  1  0.040200  0.999500  0.416700  1.0
  C  C1914  1  0.459800  0.500500  0.416700  1.0
  C  C1915  1  0.459800  0.999500  0.083300  1.0
  C  C1916  1  0.040200  0.500500  0.083300  1.0
  C  C1917  1  0.959800  0.000500  0.583300  1.0
  C  C1918  1  0.540200  0.499500  0.583300  1.0
  C  C1919  1  0.540200  0.000500  0.916700  1.0
  C  C1920  1  0.959800  0.499500  0.916700  1.0
  C  C1921  1  0.075100  0.931300  0.408900  1.0
  C  C1922  1  0.424900  0.568700  0.408900  1.0
  C  C1923  1  0.424900  0.931300  0.091100  1.0
  C  C1924  1  0.075100  0.568700  0.091100  1.0
  C  C1925  1  0.924900  0.068700  0.591100  1.0
  C  C1926  1  0.575100  0.431300  0.591100  1.0
  C  C1927  1  0.575100  0.068700  0.908900  1.0
  C  C1928  1  0.924900  0.431300  0.908900  1.0
  C  C1929  1  0.072900  0.924100  0.440900  1.0
  C  C1930  1  0.427100  0.575900  0.440900  1.0
  C  C1931  1  0.427100  0.924100  0.059100  1.0
  C  C1932  1  0.072900  0.575900  0.059100  1.0
  C  C1933  1  0.927100  0.075900  0.559100  1.0
  C  C1934  1  0.572900  0.424100  0.559100  1.0
  C  C1935  1  0.572900  0.075900  0.940900  1.0
  C  C1936  1  0.927100  0.424100  0.940900  1.0
  C  C1937  1  0.054400  0.954600  0.460750  1.0
  C  C1938  1  0.445600  0.545400  0.460750  1.0
  C  C1939  1  0.445600  0.954600  0.039250  1.0
  C  C1940  1  0.054400  0.545400  0.039250  1.0
  C  C1941  1  0.945600  0.045400  0.539250  1.0
  C  C1942  1  0.554400  0.454600  0.539250  1.0
  C  C1943  1  0.554400  0.045400  0.960750  1.0
  C  C1944  1  0.945600  0.454600  0.960750  1.0
  C  C1945  1  0.038000  0.992300  0.448700  1.0
  C  C1946  1  0.462000  0.507700  0.448700  1.0
  C  C1947  1  0.462000  0.992300  0.051300  1.0
  C  C1948  1  0.038000  0.507700  0.051300  1.0
  C  C1949  1  0.962000  0.007700  0.551300  1.0
  C  C1950  1  0.538000  0.492300  0.551300  1.0
  C  C1951  1  0.538000  0.007700  0.948700  1.0
  C  C1952  1  0.962000  0.492300  0.948700  1.0
  C  C1953  1  0.794500  0.792500  0.068600  1.0
  C  C1954  1  0.705500  0.707500  0.068600  1.0
  C  C1955  1  0.705500  0.792500  0.431400  1.0
  C  C1956  1  0.794500  0.707500  0.431400  1.0
  C  C1957  1  0.205500  0.207500  0.931400  1.0
  C  C1958  1  0.294500  0.292500  0.931400  1.0
  C  C1959  1  0.294500  0.207500  0.568600  1.0
  C  C1960  1  0.205500  0.292500  0.568600  1.0
  C  C1961  1  0.821500  0.893300  0.104200  1.0
  C  C1962  1  0.678500  0.606700  0.104200  1.0
  C  C1963  1  0.678500  0.893300  0.395800  1.0
  C  C1964  1  0.821500  0.606700  0.395800  1.0
  C  C1965  1  0.178500  0.106700  0.895800  1.0
  C  C1966  1  0.321500  0.393300  0.895800  1.0
  C  C1967  1  0.321500  0.106700  0.604200  1.0
  C  C1968  1  0.178500  0.393300  0.604200  1.0
  C  C1969  1  0.959080  0.823800  0.223280  1.0
  C  C1970  1  0.540920  0.676200  0.223280  1.0
  C  C1971  1  0.540920  0.823800  0.276720  1.0
  C  C1972  1  0.959080  0.676200  0.276720  1.0
  C  C1973  1  0.040920  0.176200  0.776720  1.0
  C  C1974  1  0.459080  0.323800  0.776720  1.0
  C  C1975  1  0.459080  0.176200  0.723280  1.0
  C  C1976  1  0.040920  0.323800  0.723280  1.0
  C  C1977  1  0.218600  0.037400  0.256280  0.5
  C  C1978  1  0.281400  0.462600  0.256280  0.5
  C  C1979  1  0.281400  0.037400  0.243720  0.5
  C  C1980  1  0.218600  0.462600  0.243720  0.5
  C  C1981  1  0.781400  0.962600  0.743720  0.5
  C  C1982  1  0.718600  0.537400  0.743720  0.5
  C  C1983  1  0.718600  0.962600  0.756280  0.5
  C  C1984  1  0.781400  0.537400  0.756280  0.5
  C  C1985  1  0.096400  0.256100  0.290090  0.5
  C  C1986  1  0.403600  0.243900  0.290090  0.5
  C  C1987  1  0.403600  0.256100  0.209910  0.5
  C  C1988  1  0.096400  0.243900  0.209910  0.5
  C  C1989  1  0.903600  0.743900  0.709910  0.5
  C  C1990  1  0.596400  0.756100  0.709910  0.5
  C  C1991  1  0.596400  0.743900  0.790090  0.5
  C  C1992  1  0.903600  0.756100  0.790090  0.5
  C  C1993  1  0.279000  0.866300  0.103900  0.5
  S  S1994  1  0.279000  0.866300  0.103900  0.5
  C  C1995  1  0.221000  0.633700  0.103900  0.5
  S  S1996  1  0.221000  0.633700  0.103900  0.5
  C  C1997  1  0.221000  0.866300  0.396100  0.5
  S  S1998  1  0.221000  0.866300  0.396100  0.5
  C  C1999  1  0.279000  0.633700  0.396100  0.5
  S  S2000  1  0.279000  0.633700  0.396100  0.5
  C  C2001  1  0.721000  0.133700  0.896100  0.5
  S  S2002  1  0.721000  0.133700  0.896100  0.5
  C  C2003  1  0.779000  0.366300  0.896100  0.5
  S  S2004  1  0.779000  0.366300  0.896100  0.5
  C  C2005  1  0.779000  0.133700  0.603900  0.5
  S  S2006  1  0.779000  0.133700  0.603900  0.5
  C  C2007  1  0.721000  0.366300  0.603900  0.5
  S  S2008  1  0.721000  0.366300  0.603900  0.5
  C  C2009  1  0.216300  0.895000  0.101400  0.5
  S  S2010  1  0.216300  0.895000  0.101400  0.5
  C  C2011  1  0.283700  0.605000  0.101400  0.5
  S  S2012  1  0.283700  0.605000  0.101400  0.5
  C  C2013  1  0.283700  0.895000  0.398600  0.5
  S  S2014  1  0.283700  0.895000  0.398600  0.5
  C  C2015  1  0.216300  0.605000  0.398600  0.5
  S  S2016  1  0.216300  0.605000  0.398600  0.5
  C  C2017  1  0.783700  0.105000  0.898600  0.5
  S  S2018  1  0.783700  0.105000  0.898600  0.5
  C  C2019  1  0.716300  0.395000  0.898600  0.5
  S  S2020  1  0.716300  0.395000  0.898600  0.5
  C  C2021  1  0.716300  0.105000  0.601400  0.5
  S  S2022  1  0.716300  0.105000  0.601400  0.5
  C  C2023  1  0.783700  0.395000  0.601400  0.5
  S  S2024  1  0.783700  0.395000  0.601400  0.5
  S  S2025  1  0.027390  0.828500  0.218070  1.0
  S  S2026  1  0.472610  0.671500  0.218070  1.0
  S  S2027  1  0.472610  0.828500  0.281930  1.0
  S  S2028  1  0.027390  0.671500  0.281930  1.0
  S  S2029  1  0.972610  0.171500  0.781930  1.0
  S  S2030  1  0.527390  0.328500  0.781930  1.0
  S  S2031  1  0.527390  0.171500  0.718070  1.0
  S  S2032  1  0.972610  0.328500  0.718070  1.0
  S  S2033  1  0.108100  0.250000  0.250000  1.0
  S  S2034  1  0.391900  0.250000  0.250000  1.0
  S  S2035  1  0.891900  0.750000  0.750000  1.0
  S  S2036  1  0.608100  0.750000  0.750000  1.0
  S  S2037  1  0.282200  0.025500  0.242460  0.5
  S  S2038  1  0.217800  0.474500  0.242460  0.5
  S  S2039  1  0.217800  0.025500  0.257540  0.5
  S  S2040  1  0.282200  0.474500  0.257540  0.5
  S  S2041  1  0.717800  0.974500  0.757540  0.5
  S  S2042  1  0.782200  0.525500  0.757540  0.5
  S  S2043  1  0.782200  0.974500  0.742460  0.5
  S  S2044  1  0.717800  0.525500  0.742460  0.5
  N  N2045  1  0.075200  0.823600  0.036100  1.0
  N  N2046  1  0.424800  0.676400  0.036100  1.0
  N  N2047  1  0.424800  0.823600  0.463900  1.0
  N  N2048  1  0.075200  0.676400  0.463900  1.0
  N  N2049  1  0.924800  0.176400  0.963900  1.0
  N  N2050  1  0.575200  0.323600  0.963900  1.0
  N  N2051  1  0.575200  0.176400  0.536100  1.0
  N  N2052  1  0.924800  0.323600  0.536100  1.0
  N  N2053  1  0.113300  0.684900  0.045700  1.0
  N  N2054  1  0.386700  0.815100  0.045700  1.0
  N  N2055  1  0.386700  0.684900  0.454300  1.0
  N  N2056  1  0.113300  0.815100  0.454300  1.0
  N  N2057  1  0.886700  0.315100  0.954300  1.0
  N  N2058  1  0.613300  0.184900  0.954300  1.0
  N  N2059  1  0.613300  0.315100  0.545700  1.0
  N  N2060  1  0.886700  0.184900  0.545700  1.0
  N  N2061  1  0.076600  0.057500  0.178910  1.0
  N  N2062  1  0.423400  0.442500  0.178910  1.0
  N  N2063  1  0.423400  0.057500  0.321090  1.0
  N  N2064  1  0.076600  0.442500  0.321090  1.0
  N  N2065  1  0.923400  0.942500  0.821090  1.0
  N  N2066  1  0.576600  0.557500  0.821090  1.0
  N  N2067  1  0.576600  0.942500  0.678910  1.0
  N  N2068  1  0.923400  0.557500  0.678910  1.0
  N  N2069  1  0.136700  0.952200  0.323240  1.0
  N  N2070  1  0.363300  0.547800  0.323240  1.0
  N  N2071  1  0.363300  0.952200  0.176760  1.0
  N  N2072  1  0.136700  0.547800  0.176760  1.0
  N  N2073  1  0.863300  0.047800  0.676760  1.0
  N  N2074  1  0.636700  0.452200  0.676760  1.0
  N  N2075  1  0.636700  0.047800  0.823240  1.0
  N  N2076  1  0.863300  0.452200  0.823240  1.0
  N  N2077  1  0.058800  0.969000  0.396900  1.0
  N  N2078  1  0.441200  0.531000  0.396900  1.0
  N  N2079  1  0.441200  0.969000  0.103100  1.0
  N  N2080  1  0.058800  0.531000  0.103100  1.0
  N  N2081  1  0.941200  0.031000  0.603100  1.0
  N  N2082  1  0.558800  0.469000  0.603100  1.0
  N  N2083  1  0.558800  0.031000  0.896900  1.0
  N  N2084  1  0.941200  0.469000  0.896900  1.0
  N  N2085  1  0.037300  0.751700  0.011400  1.0
  N  N2086  1  0.462700  0.748300  0.011400  1.0
  N  N2087  1  0.462700  0.751700  0.488600  1.0
  N  N2088  1  0.037300  0.748300  0.488600  1.0
  N  N2089  1  0.962700  0.248300  0.988600  1.0
  N  N2090  1  0.537300  0.251700  0.988600  1.0
  N  N2091  1  0.537300  0.248300  0.511400  1.0
  N  N2092  1  0.962700  0.251700  0.511400  1.0
  N  N2093  1  0.121800  0.979800  0.090800  1.0
  N  N2094  1  0.378200  0.520200  0.090800  1.0
  N  N2095  1  0.378200  0.979800  0.409200  1.0
  N  N2096  1  0.121800  0.520200  0.409200  1.0
  N  N2097  1  0.878200  0.020200  0.909200  1.0
  N  N2098  1  0.621800  0.479800  0.909200  1.0
  N  N2099  1  0.621800  0.020200  0.590800  1.0
  N  N2100  1  0.878200  0.479800  0.590800  1.0
  N  N2101  1  0.169300  0.046900  0.119900  1.0
  N  N2102  1  0.330700  0.453100  0.119900  1.0
  N  N2103  1  0.330700  0.046900  0.380100  1.0
  N  N2104  1  0.169300  0.453100  0.380100  1.0
  N  N2105  1  0.830700  0.953100  0.880100  1.0
  N  N2106  1  0.669300  0.546900  0.880100  1.0
  N  N2107  1  0.669300  0.953100  0.619900  1.0
  N  N2108  1  0.830700  0.546900  0.619900  1.0
  N  N2109  1  0.159200  0.752000  0.018200  1.0
  N  N2110  1  0.340800  0.748000  0.018200  1.0
  N  N2111  1  0.340800  0.752000  0.481800  1.0
  N  N2112  1  0.159200  0.748000  0.481800  1.0
  N  N2113  1  0.840800  0.248000  0.981800  1.0
  N  N2114  1  0.659200  0.252000  0.981800  1.0
  N  N2115  1  0.659200  0.248000  0.518200  1.0
  N  N2116  1  0.840800  0.252000  0.518200  1.0
  N  N2117  1  0.040200  0.774700  0.099800  1.0
  N  N2118  1  0.459800  0.725300  0.099800  1.0
  N  N2119  1  0.459800  0.774700  0.400200  1.0
  N  N2120  1  0.040200  0.725300  0.400200  1.0
  N  N2121  1  0.959800  0.225300  0.900200  1.0
  N  N2122  1  0.540200  0.274700  0.900200  1.0
  N  N2123  1  0.540200  0.225300  0.599800  1.0
  N  N2124  1  0.959800  0.274700  0.599800  1.0
  N  N2125  1  0.142800  0.763100  0.098500  1.0
  N  N2126  1  0.357200  0.736900  0.098500  1.0
  N  N2127  1  0.357200  0.763100  0.401500  1.0
  N  N2128  1  0.142800  0.736900  0.401500  1.0
  N  N2129  1  0.857200  0.236900  0.901500  1.0
  N  N2130  1  0.642800  0.263100  0.901500  1.0
  N  N2131  1  0.642800  0.236900  0.598500  1.0
  N  N2132  1  0.857200  0.263100  0.598500  1.0
  N  N2133  1  0.053600  0.061800  0.116100  1.0
  N  N2134  1  0.446400  0.438200  0.116100  1.0
  N  N2135  1  0.446400  0.061800  0.383900  1.0
  N  N2136  1  0.053600  0.438200  0.383900  1.0
  N  N2137  1  0.946400  0.938200  0.883900  1.0
  N  N2138  1  0.553600  0.561800  0.883900  1.0
  N  N2139  1  0.553600  0.938200  0.616100  1.0
  N  N2140  1  0.946400  0.561800  0.616100  1.0
  N  N2141  1  0.101800  0.049500  0.310400  1.0
  N  N2142  1  0.398200  0.450500  0.310400  1.0
  N  N2143  1  0.398200  0.049500  0.189600  1.0
  N  N2144  1  0.101800  0.450500  0.189600  1.0
  N  N2145  1  0.898200  0.950500  0.689600  1.0
  N  N2146  1  0.601800  0.549500  0.689600  1.0
  N  N2147  1  0.601800  0.950500  0.810400  1.0
  N  N2148  1  0.898200  0.549500  0.810400  1.0
  N  N2149  1  0.144500  0.041100  0.369100  1.0
  N  N2150  1  0.355500  0.458900  0.369100  1.0
  N  N2151  1  0.355500  0.041100  0.130900  1.0
  N  N2152  1  0.144500  0.458900  0.130900  1.0
  N  N2153  1  0.855500  0.958900  0.630900  1.0
  N  N2154  1  0.644500  0.541100  0.630900  1.0
  N  N2155  1  0.644500  0.958900  0.869100  1.0
  N  N2156  1  0.855500  0.541100  0.869100  1.0
  N  N2157  1  0.050300  0.955700  0.152600  1.0
  N  N2158  1  0.449700  0.544300  0.152600  1.0
  N  N2159  1  0.449700  0.955700  0.347400  1.0
  N  N2160  1  0.050300  0.544300  0.347400  1.0
  N  N2161  1  0.949700  0.044300  0.847400  1.0
  N  N2162  1  0.550300  0.455700  0.847400  1.0
  N  N2163  1  0.550300  0.044300  0.652600  1.0
  N  N2164  1  0.949700  0.455700  0.652600  1.0
  N  N2165  1  0.150700  0.960900  0.170400  1.0
  N  N2166  1  0.349300  0.539100  0.170400  1.0
  N  N2167  1  0.349300  0.960900  0.329600  1.0
  N  N2168  1  0.150700  0.539100  0.329600  1.0
  N  N2169  1  0.849300  0.039100  0.829600  1.0
  N  N2170  1  0.650700  0.460900  0.829600  1.0
  N  N2171  1  0.650700  0.039100  0.670400  1.0
  N  N2172  1  0.849300  0.460900  0.670400  1.0
  N  N2173  1  0.033300  0.950900  0.316000  1.0
  N  N2174  1  0.466700  0.549100  0.316000  1.0
  N  N2175  1  0.466700  0.950900  0.184000  1.0
  N  N2176  1  0.033300  0.549100  0.184000  1.0
  N  N2177  1  0.966700  0.049100  0.684000  1.0
  N  N2178  1  0.533300  0.450900  0.684000  1.0
  N  N2179  1  0.533300  0.049100  0.816000  1.0
  N  N2180  1  0.966700  0.450900  0.816000  1.0
  N  N2181  1  0.026900  0.043600  0.373900  1.0
  N  N2182  1  0.473100  0.456400  0.373900  1.0
  N  N2183  1  0.473100  0.043600  0.126100  1.0
  N  N2184  1  0.026900  0.456400  0.126100  1.0
  N  N2185  1  0.973100  0.956400  0.626100  1.0
  N  N2186  1  0.526900  0.543600  0.626100  1.0
  N  N2187  1  0.526900  0.956400  0.873900  1.0
  N  N2188  1  0.973100  0.543600  0.873900  1.0
  O  O2189  1  0.950600  0.599200  0.969300  1.0
  O  O2190  1  0.549400  0.900800  0.969300  1.0
  O  O2191  1  0.549400  0.599200  0.530700  1.0
  O  O2192  1  0.950600  0.900800  0.530700  1.0
  O  O2193  1  0.049400  0.400800  0.030700  1.0
  O  O2194  1  0.450600  0.099200  0.030700  1.0
  O  O2195  1  0.450600  0.400800  0.469300  1.0
  O  O2196  1  0.049400  0.099200  0.469300  1.0
  O  O2197  1  0.253900  0.185500  0.177900  1.0
  O  O2198  1  0.246100  0.314500  0.177900  1.0
  O  O2199  1  0.246100  0.185500  0.322100  1.0
  O  O2200  1  0.253900  0.314500  0.322100  1.0
  O  O2201  1  0.746100  0.814500  0.822100  1.0
  O  O2202  1  0.753900  0.685500  0.822100  1.0
  O  O2203  1  0.753900  0.814500  0.677900  1.0
  O  O2204  1  0.746100  0.685500  0.677900  1.0
  O  O2205  1  0.240200  0.893100  0.957300  1.0
  O  O2206  1  0.259800  0.606900  0.957300  1.0
  O  O2207  1  0.259800  0.893100  0.542700  1.0
  O  O2208  1  0.240200  0.606900  0.542700  1.0
  O  O2209  1  0.759800  0.106900  0.042700  1.0
  O  O2210  1  0.740200  0.393100  0.042700  1.0
  O  O2211  1  0.740200  0.106900  0.457300  1.0
  O  O2212  1  0.759800  0.393100  0.457300  1.0
  O  O2213  1  0.826500  0.788500  0.098200  1.0
  O  O2214  1  0.673500  0.711500  0.098200  1.0
  O  O2215  1  0.673500  0.788500  0.401800  1.0
  O  O2216  1  0.826500  0.711500  0.401800  1.0
  O  O2217  1  0.173500  0.211500  0.901800  1.0
  O  O2218  1  0.326500  0.288500  0.901800  1.0
  O  O2219  1  0.326500  0.211500  0.598200  1.0
  O  O2220  1  0.173500  0.288500  0.598200  1.0
  O  O2221  1  0.029600  0.060200  0.984400  1.0
  O  O2222  1  0.470400  0.439800  0.984400  1.0
  O  O2223  1  0.470400  0.060200  0.515600  1.0
  O  O2224  1  0.029600  0.439800  0.515600  1.0
  O  O2225  1  0.970400  0.939800  0.015600  1.0
  O  O2226  1  0.529600  0.560200  0.015600  1.0
  O  O2227  1  0.529600  0.939800  0.484400  1.0
  O  O2228  1  0.970400  0.560200  0.484400  1.0
  O  O2229  1  0.229100  0.017600  0.489400  1.0
  O  O2230  1  0.270900  0.482400  0.489400  1.0
  O  O2231  1  0.270900  0.017600  0.010600  1.0
  O  O2232  1  0.229100  0.482400  0.010600  1.0
  O  O2233  1  0.770900  0.982400  0.510600  1.0
  O  O2234  1  0.729100  0.517600  0.510600  1.0
  O  O2235  1  0.729100  0.982400  0.989400  1.0
  O  O2236  1  0.770900  0.517600  0.989400  1.0
  O  O2237  1  0.844300  0.933200  0.117400  1.0
  O  O2238  1  0.655700  0.566800  0.117400  1.0
  O  O2239  1  0.655700  0.933200  0.382600  1.0
  O  O2240  1  0.844300  0.566800  0.382600  1.0
  O  O2241  1  0.155700  0.066800  0.882600  1.0
  O  O2242  1  0.344300  0.433200  0.882600  1.0
  O  O2243  1  0.344300  0.066800  0.617400  1.0
  O  O2244  1  0.155700  0.433200  0.617400  1.0
  O  O2245  1  0.820400  0.947300  0.319100  1.0
  O  O2246  1  0.679600  0.552700  0.319100  1.0
  O  O2247  1  0.679600  0.947300  0.180900  1.0
  O  O2248  1  0.820400  0.552700  0.180900  1.0
  O  O2249  1  0.179600  0.052700  0.680900  1.0
  O  O2250  1  0.320400  0.447300  0.680900  1.0
  O  O2251  1  0.320400  0.052700  0.819100  1.0
  O  O2252  1  0.179600  0.447300  0.819100  1.0
  O  O2253  1  0.977200  0.191000  0.310600  1.0
  O  O2254  1  0.522800  0.309000  0.310600  1.0
  O  O2255  1  0.522800  0.191000  0.189400  1.0
  O  O2256  1  0.977200  0.309000  0.189400  1.0
  O  O2257  1  0.022800  0.809000  0.689400  1.0
  O  O2258  1  0.477200  0.691000  0.689400  1.0
  O  O2259  1  0.477200  0.809000  0.810600  1.0
  O  O2260  1  0.022800  0.691000  0.810600  1.0
  O  O2261  1  0.040000  0.864000  0.236500  1.0
  O  O2262  1  0.460000  0.636000  0.236500  1.0
  O  O2263  1  0.460000  0.864000  0.263500  1.0
  O  O2264  1  0.040000  0.636000  0.263500  1.0
  O  O2265  1  0.960000  0.136000  0.763500  1.0
  O  O2266  1  0.540000  0.364000  0.763500  1.0
  O  O2267  1  0.540000  0.136000  0.736500  1.0
  O  O2268  1  0.960000  0.364000  0.736500  1.0
  O  O2269  1  0.033000  0.834400  0.185340  1.0
  O  O2270  1  0.467000  0.665600  0.185340  1.0
  O  O2271  1  0.467000  0.834400  0.314660  1.0
  O  O2272  1  0.033000  0.665600  0.314660  1.0
  O  O2273  1  0.967000  0.165600  0.814660  1.0
  O  O2274  1  0.533000  0.334400  0.814660  1.0
  O  O2275  1  0.533000  0.165600  0.685340  1.0
  O  O2276  1  0.967000  0.334400  0.685340  1.0
  O  O2277  1  0.046000  0.789800  0.229900  1.0
  O  O2278  1  0.454000  0.710200  0.229900  1.0
  O  O2279  1  0.454000  0.789800  0.270100  1.0
  O  O2280  1  0.046000  0.710200  0.270100  1.0
  O  O2281  1  0.954000  0.210200  0.770100  1.0
  O  O2282  1  0.546000  0.289800  0.770100  1.0
  O  O2283  1  0.546000  0.210200  0.729900  1.0
  O  O2284  1  0.954000  0.289800  0.729900  1.0
  O  O2285  1  0.279900  0.035900  0.210020  0.5
  O  O2286  1  0.220100  0.464100  0.210020  0.5
  O  O2287  1  0.220100  0.035900  0.289980  0.5
  O  O2288  1  0.279900  0.464100  0.289980  0.5
  O  O2289  1  0.720100  0.964100  0.789980  0.5
  O  O2290  1  0.779900  0.535900  0.789980  0.5
  O  O2291  1  0.779900  0.964100  0.710020  0.5
  O  O2292  1  0.720100  0.535900  0.710020  0.5
  O  O2293  1  0.287400  0.982400  0.248600  0.5
  O  O2294  1  0.212600  0.517600  0.248600  0.5
  O  O2295  1  0.212600  0.982400  0.251400  0.5
  O  O2296  1  0.287400  0.517600  0.251400  0.5
  O  O2297  1  0.712600  0.017600  0.751400  0.5
  O  O2298  1  0.787400  0.482400  0.751400  0.5
  O  O2299  1  0.787400  0.017600  0.748600  0.5
  O  O2300  1  0.712600  0.482400  0.748600  0.5
  O  O2301  1  0.313600  0.052200  0.261000  0.5
  O  O2302  1  0.186400  0.447800  0.261000  0.5
  O  O2303  1  0.186400  0.052200  0.239000  0.5
  O  O2304  1  0.313600  0.447800  0.239000  0.5
  O  O2305  1  0.686400  0.947800  0.739000  0.5
  O  O2306  1  0.813600  0.552200  0.739000  0.5
  O  O2307  1  0.813600  0.947800  0.761000  0.5
  O  O2308  1  0.686400  0.552200  0.761000  0.5
  O  O2309  1  0.156200  0.226700  0.248600  0.5
  O  O2310  1  0.343800  0.273300  0.248600  0.5
  O  O2311  1  0.343800  0.226700  0.251400  0.5
  O  O2312  1  0.156200  0.273300  0.251400  0.5
  O  O2313  1  0.843800  0.773300  0.751400  0.5
  O  O2314  1  0.656200  0.726700  0.751400  0.5
  O  O2315  1  0.656200  0.773300  0.748600  0.5
  O  O2316  1  0.843800  0.726700  0.748600  0.5
  O  O2317  1  0.111100  0.289490  0.236860  0.5
  O  O2318  1  0.388900  0.210510  0.236860  0.5
  O  O2319  1  0.388900  0.289490  0.263140  0.5
  O  O2320  1  0.111100  0.210510  0.263140  0.5
  O  O2321  1  0.888900  0.710510  0.763140  0.5
  O  O2322  1  0.611100  0.789490  0.763140  0.5
  O  O2323  1  0.611100  0.710510  0.736860  0.5
  O  O2324  1  0.888900  0.789490  0.736860  0.5
  O  O2325  1  0.065400  0.224600  0.239120  0.5
  O  O2326  1  0.434600  0.275400  0.239120  0.5
  O  O2327  1  0.434600  0.224600  0.260880  0.5
  O  O2328  1  0.065400  0.275400  0.260880  0.5
  O  O2329  1  0.934600  0.775400  0.760880  0.5
  O  O2330  1  0.565400  0.724600  0.760880  0.5
  O  O2331  1  0.565400  0.775400  0.739120  0.5
  O  O2332  1  0.934600  0.724600  0.739120  0.5
  O  O2333  1  0.315500  0.894700  0.098800  0.5
  F  F2334  1  0.315500  0.894700  0.098800  0.5
  O  O2335  1  0.184500  0.605300  0.098800  0.5
  F  F2336  1  0.184500  0.605300  0.098800  0.5
  O  O2337  1  0.184500  0.894700  0.401200  0.5
  F  F2338  1  0.184500  0.894700  0.401200  0.5
  O  O2339  1  0.315500  0.605300  0.401200  0.5
  F  F2340  1  0.315500  0.605300  0.401200  0.5
  O  O2341  1  0.684500  0.105300  0.901200  0.5
  F  F2342  1  0.684500  0.105300  0.901200  0.5
  O  O2343  1  0.815500  0.394700  0.901200  0.5
  F  F2344  1  0.815500  0.394700  0.901200  0.5
  O  O2345  1  0.815500  0.105300  0.598800  0.5
  F  F2346  1  0.815500  0.105300  0.598800  0.5
  O  O2347  1  0.684500  0.394700  0.598800  0.5
  F  F2348  1  0.684500  0.394700  0.598800  0.5
  O  O2349  1  0.269700  0.854200  0.137300  0.5
  F  F2350  1  0.269700  0.854200  0.137300  0.5
  O  O2351  1  0.230300  0.645800  0.137300  0.5
  F  F2352  1  0.230300  0.645800  0.137300  0.5
  O  O2353  1  0.230300  0.854200  0.362700  0.5
  F  F2354  1  0.230300  0.854200  0.362700  0.5
  O  O2355  1  0.269700  0.645800  0.362700  0.5
  F  F2356  1  0.269700  0.645800  0.362700  0.5
  O  O2357  1  0.730300  0.145800  0.862700  0.5
  F  F2358  1  0.730300  0.145800  0.862700  0.5
  O  O2359  1  0.769700  0.354200  0.862700  0.5
  F  F2360  1  0.769700  0.354200  0.862700  0.5
  O  O2361  1  0.769700  0.145800  0.637300  0.5
  F  F2362  1  0.769700  0.145800  0.637300  0.5
  O  O2363  1  0.730300  0.354200  0.637300  0.5
  F  F2364  1  0.730300  0.354200  0.637300  0.5
  O  O2365  1  0.274000  0.833300  0.083600  0.5
  F  F2366  1  0.274000  0.833300  0.083600  0.5
  O  O2367  1  0.226000  0.666700  0.083600  0.5
  F  F2368  1  0.226000  0.666700  0.083600  0.5
  O  O2369  1  0.226000  0.833300  0.416400  0.5
  F  F2370  1  0.226000  0.833300  0.416400  0.5
  O  O2371  1  0.274000  0.666700  0.416400  0.5
  F  F2372  1  0.274000  0.666700  0.416400  0.5
  O  O2373  1  0.726000  0.166700  0.916400  0.5
  F  F2374  1  0.726000  0.166700  0.916400  0.5
  O  O2375  1  0.774000  0.333300  0.916400  0.5
  F  F2376  1  0.774000  0.333300  0.916400  0.5
  O  O2377  1  0.774000  0.166700  0.583600  0.5
  F  F2378  1  0.774000  0.166700  0.583600  0.5
  O  O2379  1  0.726000  0.333300  0.583600  0.5
  F  F2380  1  0.726000  0.333300  0.583600  0.5
  O  O2381  1  0.220500  0.906500  0.066700  0.5
  F  F2382  1  0.220500  0.906500  0.066700  0.5
  O  O2383  1  0.279500  0.593500  0.066700  0.5
  F  F2384  1  0.279500  0.593500  0.066700  0.5
  O  O2385  1  0.279500  0.906500  0.433300  0.5
  F  F2386  1  0.279500  0.906500  0.433300  0.5
  O  O2387  1  0.220500  0.593500  0.433300  0.5
  F  F2388  1  0.220500  0.593500  0.433300  0.5
  O  O2389  1  0.779500  0.093500  0.933300  0.5
  F  F2390  1  0.779500  0.093500  0.933300  0.5
  O  O2391  1  0.720500  0.406500  0.933300  0.5
  F  F2392  1  0.720500  0.406500  0.933300  0.5
  O  O2393  1  0.720500  0.093500  0.566700  0.5
  F  F2394  1  0.720500  0.093500  0.566700  0.5
  O  O2395  1  0.779500  0.406500  0.566700  0.5
  F  F2396  1  0.779500  0.406500  0.566700  0.5
  O  O2397  1  0.175200  0.871700  0.105500  0.5
  F  F2398  1  0.175200  0.871700  0.105500  0.5
  O  O2399  1  0.324800  0.628300  0.105500  0.5
  F  F2400  1  0.324800  0.628300  0.105500  0.5
  O  O2401  1  0.324800  0.871700  0.394500  0.5
  F  F2402  1  0.324800  0.871700  0.394500  0.5
  O  O2403  1  0.175200  0.628300  0.394500  0.5
  F  F2404  1  0.175200  0.628300  0.394500  0.5
  O  O2405  1  0.824800  0.128300  0.894500  0.5
  F  F2406  1  0.824800  0.128300  0.894500  0.5
  O  O2407  1  0.675200  0.371700  0.894500  0.5
  F  F2408  1  0.675200  0.371700  0.894500  0.5
  O  O2409  1  0.675200  0.128300  0.605500  0.5
  F  F2410  1  0.675200  0.128300  0.605500  0.5
  O  O2411  1  0.824800  0.371700  0.605500  0.5
  F  F2412  1  0.824800  0.371700  0.605500  0.5
  O  O2413  1  0.220600  0.932600  0.114100  0.5
  F  F2414  1  0.220600  0.932600  0.114100  0.5
  O  O2415  1  0.279400  0.567400  0.114100  0.5
  F  F2416  1  0.279400  0.567400  0.114100  0.5
  O  O2417  1  0.279400  0.932600  0.385900  0.5
  F  F2418  1  0.279400  0.932600  0.385900  0.5
  O  O2419  1  0.220600  0.567400  0.385900  0.5
  F  F2420  1  0.220600  0.567400  0.385900  0.5
  O  O2421  1  0.779400  0.067400  0.885900  0.5
  F  F2422  1  0.779400  0.067400  0.885900  0.5
  O  O2423  1  0.720600  0.432600  0.885900  0.5
  F  F2424  1  0.720600  0.432600  0.885900  0.5
  O  O2425  1  0.720600  0.067400  0.614100  0.5
  F  F2426  1  0.720600  0.067400  0.614100  0.5
  O  O2427  1  0.779400  0.432600  0.614100  0.5
  F  F2428  1  0.779400  0.432600  0.614100  0.5
  F  F2429  1  0.940000  0.792000  0.207300  1.0
  F  F2430  1  0.560000  0.708000  0.207300  1.0
  F  F2431  1  0.560000  0.792000  0.292700  1.0
  F  F2432  1  0.940000  0.708000  0.292700  1.0
  F  F2433  1  0.060000  0.208000  0.792700  1.0
  F  F2434  1  0.440000  0.292000  0.792700  1.0
  F  F2435  1  0.440000  0.208000  0.707300  1.0
  F  F2436  1  0.060000  0.292000  0.707300  1.0
  F  F2437  1  0.946600  0.817500  0.252740  1.0
  F  F2438  1  0.553400  0.682500  0.252740  1.0
  F  F2439  1  0.553400  0.817500  0.247260  1.0
  F  F2440  1  0.946600  0.682500  0.247260  1.0
  F  F2441  1  0.053400  0.182500  0.747260  1.0
  F  F2442  1  0.446600  0.317500  0.747260  1.0
  F  F2443  1  0.446600  0.182500  0.752740  1.0
  F  F2444  1  0.053400  0.317500  0.752740  1.0
  F  F2445  1  0.935100  0.857500  0.213700  1.0
  F  F2446  1  0.564900  0.642500  0.213700  1.0
  F  F2447  1  0.564900  0.857500  0.286300  1.0
  F  F2448  1  0.935100  0.642500  0.286300  1.0
  F  F2449  1  0.064900  0.142500  0.786300  1.0
  F  F2450  1  0.435100  0.357500  0.786300  1.0
  F  F2451  1  0.435100  0.142500  0.713700  1.0
  F  F2452  1  0.064900  0.357500  0.713700  1.0
  F  F2453  1  0.213300  0.029200  0.286530  0.5
  F  F2454  1  0.286700  0.470800  0.286530  0.5
  F  F2455  1  0.286700  0.029200  0.213470  0.5
  F  F2456  1  0.213300  0.470800  0.213470  0.5
  F  F2457  1  0.786700  0.970800  0.713470  0.5
  F  F2458  1  0.713300  0.529200  0.713470  0.5
  F  F2459  1  0.713300  0.970800  0.786530  0.5
  F  F2460  1  0.786700  0.529200  0.786530  0.5
  F  F2461  1  0.207200  0.077000  0.252700  0.5
  F  F2462  1  0.292800  0.423000  0.252700  0.5
  F  F2463  1  0.292800  0.077000  0.247300  0.5
  F  F2464  1  0.207200  0.423000  0.247300  0.5
  F  F2465  1  0.792800  0.923000  0.747300  0.5
  F  F2466  1  0.707200  0.577000  0.747300  0.5
  F  F2467  1  0.707200  0.923000  0.752700  0.5
  F  F2468  1  0.792800  0.577000  0.752700  0.5
  F  F2469  1  0.183800  0.015400  0.241300  0.5
  F  F2470  1  0.316200  0.484600  0.241300  0.5
  F  F2471  1  0.316200  0.015400  0.258700  0.5
  F  F2472  1  0.183800  0.484600  0.258700  0.5
  F  F2473  1  0.816200  0.984600  0.758700  0.5
  F  F2474  1  0.683800  0.515400  0.758700  0.5
  F  F2475  1  0.683800  0.984600  0.741300  0.5
  F  F2476  1  0.816200  0.515400  0.741300  0.5
  F  F2477  1  0.053100  0.276500  0.295050  0.5
  F  F2478  1  0.446900  0.223500  0.295050  0.5
  F  F2479  1  0.446900  0.276500  0.204950  0.5
  F  F2480  1  0.053100  0.223500  0.204950  0.5
  F  F2481  1  0.946900  0.723500  0.704950  0.5
  F  F2482  1  0.553100  0.776500  0.704950  0.5
  F  F2483  1  0.553100  0.723500  0.795050  0.5
  F  F2484  1  0.946900  0.776500  0.795050  0.5
  F  F2485  1  0.092300  0.220600  0.305250  0.5
  F  F2486  1  0.407700  0.279400  0.305250  0.5
  F  F2487  1  0.407700  0.220600  0.194750  0.5
  F  F2488  1  0.092300  0.279400  0.194750  0.5
  F  F2489  1  0.907700  0.779400  0.694750  0.5
  F  F2490  1  0.592300  0.720600  0.694750  0.5
  F  F2491  1  0.592300  0.779400  0.805250  0.5
  F  F2492  1  0.907700  0.720600  0.805250  0.5
  F  F2493  1  0.133400  0.277700  0.303340  0.5
  F  F2494  1  0.366600  0.222300  0.303340  0.5
  F  F2495  1  0.366600  0.277700  0.196660  0.5
  F  F2496  1  0.133400  0.222300  0.196660  0.5
  F  F2497  1  0.866600  0.722300  0.696660  0.5
  F  F2498  1  0.633400  0.777700  0.696660  0.5
  F  F2499  1  0.633400  0.722300  0.803340  0.5
  F  F2500  1  0.866600  0.777700  0.803340  0.5
