
#######################################################################
#
#                 Cambridge Crystallographic Data Centre
#                                CCDC 
#
#######################################################################
#
# If this CIF has been generated from an entry in the Cambridge 
# Structural Database, then it will include bibliographic, chemical, 
# crystal, experimental, refinement or atomic coordinate data resulting 
# from the CCDC's data processing and validation procedures.
#
#######################################################################

data_KICSAS
_chemical_formula_moiety         
'C60 H84 Cd3 N18 6+,6(C1 F3 O3 S1 1-),18(C2 H3 N1)'
_chemical_name_systematic        
"tris(\m~2~-6,6'-bis(((2-(Dimethylamino)ethyl)imino)methyl)-3,3'-bipyridine)-tri-cadmium(ii) hexakis(trifluoromethanesulfonate) acetonitrile solvate"
_symmetry_cell_setting           rhombohedral
_symmetry_space_group_name_H-M   'R -3'
_symmetry_Int_Tables_number      148
_space_group_name_Hall           '-R 3'
loop_
_symmetry_equiv_pos_site_id
_symmetry_equiv_pos_as_xyz
1 x,y,z
2 -y,x-y,z
3 -x+y,-x,z
4 2/3+x,1/3+y,1/3+z
5 2/3-y,1/3+x-y,1/3+z
6 2/3-x+y,1/3-x,1/3+z
7 1/3+x,2/3+y,2/3+z
8 1/3-y,2/3+x-y,2/3+z
9 1/3-x+y,2/3-x,2/3+z
10 -x,-y,-z
11 y,-x+y,-z
12 x-y,x,-z
13 1/3-x,2/3-y,2/3-z
14 1/3+y,2/3-x+y,2/3-z
15 1/3+x-y,2/3+x,2/3-z
16 2/3-x,1/3-y,1/3-z
17 2/3+y,1/3-x+y,1/3-z
18 2/3+x-y,1/3+x,1/3-z
_cell_length_a                   19.852(3)
_cell_length_b                   19.852(3)
_cell_length_c                   54.869(11)
_cell_angle_alpha                90
_cell_angle_beta                 90
_cell_angle_gamma                120
_cell_volume                     18726.9
_exptl_crystal_colour            colorless
_exptl_crystal_description       block
_cell_formula_units_Z            6
_chemical_properties_physical    air-sensitive
loop_
_atom_site_label
_atom_site_type_symbol
_atom_site_fract_x
_atom_site_fract_y
_atom_site_fract_z
S1 S 0.47629(18) 0.38593(18) 0.17416(6)
O1 O 0.5250(6) 0.4083(6) 0.15334(19)
O2 O 0.4709(6) 0.4462(6) 0.1864(2)
O3 O 0.4031(6) 0.3172(6) 0.1697(2)
C21 C 0.5094(12) 0.3410(12) 0.1956(4)
F1 F 0.5037(10) 0.2775(10) 0.1824(3)
F2 F 0.4672(12) 0.3155(13) 0.2170(4)
F3 F 0.5865(10) 0.3973(9) 0.1989(3)
Cd1 Cd 0.54104(3) 0.55281(3) 0.091797(11)
N1 N 0.5013(4) 0.4241(3) 0.07859(12)
N2 N 0.5150(5) 0.5424(4) 0.05120(15)
N3 N 0.4409(3) 0.0998(4) 0.10432(12)
N4 N 0.4183(4) -0.0204(6) 0.13196(13)
N5 N 0.4869(7) -0.1005(9) 0.10867(19)
N6 N 0.6037(7) 0.6850(4) 0.07475(19)
C1 C 0.4891(4) 0.3647(4) 0.09249(15)
H1 H 0.5000 0.3736 0.1090
C2 C 0.4597(5) 0.2869(4) 0.08331(15)
C3 C 0.4394(7) 0.2779(6) 0.05908(17)
H2 H 0.4119 0.2280 0.0526
C4 C 0.4593(6) 0.3428(5) 0.04368(17)
H3 H 0.4569 0.3380 0.0268
C5 C 0.4820(6) 0.4122(5) 0.05480(18)
C6 C 0.4915(6) 0.4806(6) 0.0411(2)
H4 H 0.4793 0.4760 0.0246
C7 C 0.5338(7) 0.6159(7) 0.0378(2)
H5 H 0.5548 0.6161 0.0219
H6 H 0.4871 0.6193 0.0357
C8 C 0.5835(16) 0.6730(16) 0.0503(5)
H7 H 0.5724 0.7142 0.0465
H8 H 0.6324 0.6876 0.0422
C9 C 0.5791(9) 0.7340(9) 0.0899(3)
H9 H 0.5823 0.7248 0.1069
H10 H 0.5266 0.7199 0.0859
H11 H 0.6131 0.7882 0.0864
C10 C 0.6876(11) 0.7213(11) 0.0721(4)
H12 H 0.7109 0.7265 0.0878
H13 H 0.7077 0.7718 0.0648
H14 H 0.6997 0.6895 0.0618
C11 C 0.4531(4) 0.1616(6) 0.09058(16)
H15 H 0.4671 0.1629 0.0743
C12 C 0.4459(4) 0.2223(6) 0.09939(16)
C13 C 0.4306(5) 0.2222(7) 0.12410(15)
H16 H 0.4279 0.2635 0.1310
C14 C 0.4193(5) 0.1591(6) 0.13830(16)
H17 H 0.4090 0.1574 0.1549
C15 C 0.4238(4) 0.1003(6) 0.12729(16)
C16 C 0.4149(4) 0.0316(6) 0.14193(16)
H18 H 0.4068 0.0297 0.1587
C17 C 0.4199(6) -0.0860(8) 0.14522(19)
H19 H 0.4253 -0.0756 0.1626
H20 H 0.3716 -0.1342 0.1424
C18 C 0.4845(7) -0.0930(10) 0.1364(2)
H21 H 0.4823 -0.1384 0.1439
H22 H 0.5325 -0.0477 0.1417
C19 C 0.5697(8) -0.0810(11) 0.1023(3)
H23 H 0.6055 -0.0279 0.1065
H24 H 0.5731 -0.0882 0.0851
H25 H 0.5826 -0.1147 0.1112
C20 C 0.4293(8) -0.1867(11) 0.1003(3)
H26 H 0.4308 -0.1900 0.0829
H27 H 0.3774 -0.2015 0.1054
H28 H 0.4446 -0.2209 0.1076
Cd1A Cd 0.44719(3) -0.01177(4) 0.091797(11)
N1A N 0.5759(3) 0.0772(5) 0.07859(12)
N2A N 0.4576(4) -0.0274(6) 0.05120(15)
N3A N 0.9002(4) 0.3411(5) 0.10432(12)
N4A N 1.0204(6) 0.4387(7) 0.13196(13)
N5A N 1.1005(9) 0.5874(11) 0.10867(19)
N6A N 0.3150(4) -0.0813(8) 0.07475(19)
C1A C 0.6353(4) 0.1244(6) 0.09249(15)
H1A H 0.6264 0.1264 0.1090
C2A C 0.7131(4) 0.1728(6) 0.08331(15)
C3A C 0.7221(6) 0.1615(9) 0.05908(17)
H2A H 0.7720 0.1839 0.0526
C4A C 0.6572(5) 0.1165(8) 0.04368(17)
H3A H 0.6620 0.1189 0.0268
C5A C 0.5878(5) 0.0698(8) 0.05480(18)
C6A C 0.5194(6) 0.0109(8) 0.0411(2)
H4A H 0.5240 0.0033 0.0246
C7A C 0.3841(7) -0.0821(10) 0.0378(2)
H5A H 0.3839 -0.0613 0.0219
H6A H 0.3807 -0.1322 0.0357
C8A C 0.3270(16) -0.0895(23) 0.0503(5)
H7A H 0.2858 -0.1418 0.0465
H8A H 0.3124 -0.0552 0.0422
C9A C 0.2660(9) -0.1549(13) 0.0899(3)
H9A H 0.2752 -0.1425 0.1069
H10A H 0.2801 -0.1933 0.0859
H11A H 0.2118 -0.1751 0.0864
C10A C 0.2787(11) -0.0337(16) 0.0721(4)
H12A H 0.2735 -0.0156 0.0878
H13A H 0.2282 -0.0641 0.0648
H14A H 0.3105 0.0102 0.0618
C11A C 0.8384(6) 0.2915(7) 0.09058(16)
H15A H 0.8371 0.3042 0.0743
C12A C 0.7777(6) 0.2236(7) 0.09939(16)
C13A C 0.7778(7) 0.2084(9) 0.12410(15)
H16A H 0.7365 0.1644 0.1310
C14A C 0.8409(6) 0.2602(8) 0.13830(16)
H17A H 0.8426 0.2516 0.1549
C15A C 0.8997(6) 0.3235(7) 0.12729(16)
C16A C 0.9684(6) 0.3833(7) 0.14193(16)
H18A H 0.9703 0.3771 0.1587
C17A C 1.0860(8) 0.5059(10) 0.14522(19)
H19A H 1.0756 0.5009 0.1626
H20A H 1.1342 0.5058 0.1424
C18A C 1.0930(10) 0.5775(12) 0.1364(2)
H21A H 1.1384 0.6207 0.1439
H22A H 1.0477 0.5802 0.1417
C19A C 1.0810(11) 0.6507(14) 0.1023(3)
H23A H 1.0279 0.6334 0.1065
H24A H 1.0882 0.6613 0.0851
H25A H 1.1147 0.6973 0.1112
C20A C 1.1867(11) 0.6160(14) 0.1003(3)
H26A H 1.1900 0.6208 0.0829
H27A H 1.2015 0.5789 0.1054
H28A H 1.2209 0.6655 0.1076
Cd1B Cd 1.01177(4) 0.45896(3) 0.091797(11)
N1B N 0.9228(5) 0.4987(4) 0.07859(12)
N2B N 1.0274(6) 0.4850(5) 0.05120(15)
N3B N 0.6589(5) 0.5591(3) 0.10432(12)
N4B N 0.5613(7) 0.5817(4) 0.13196(13)
N5B N 0.4126(11) 0.5131(7) 0.10867(19)
N6B N 1.0813(8) 0.3963(7) 0.07475(19)
C1B C 0.8756(6) 0.5109(4) 0.09249(15)
H1B H 0.8736 0.5000 0.1090
C2B C 0.8272(6) 0.5403(5) 0.08331(15)
C3B C 0.8385(9) 0.5606(7) 0.05908(17)
H2B H 0.8161 0.5881 0.0526
C4B C 0.8835(8) 0.5407(6) 0.04368(17)
H3B H 0.8811 0.5431 0.0268
C5B C 0.9302(8) 0.5180(6) 0.05480(18)
C6B C 0.9891(8) 0.5085(6) 0.0411(2)
H4B H 0.9967 0.5207 0.0246
C7B C 1.0821(10) 0.4662(7) 0.0378(2)
H5B H 1.0613 0.4452 0.0219
H6B H 1.1322 0.5129 0.0357
C8B C 1.0895(23) 0.4165(16) 0.0503(5)
H7B H 1.1418 0.4276 0.0465
H8B H 1.0552 0.3676 0.0422
C9B C 1.1549(13) 0.4209(9) 0.0899(3)
H9B H 1.1425 0.4177 0.1069
H10B H 1.1933 0.4734 0.0859
H11B H 1.1751 0.3869 0.0864
C10B C 1.0337(16) 0.3124(11) 0.0721(4)
H12B H 1.0156 0.2891 0.0878
H13B H 1.0641 0.2923 0.0648
H14B H 0.9898 0.3003 0.0618
C11B C 0.7085(7) 0.5469(4) 0.09058(16)
H15B H 0.6958 0.5329 0.0743
C12B C 0.7764(7) 0.5541(4) 0.09939(16)
C13B C 0.7916(9) 0.5694(5) 0.12410(15)
H16B H 0.8356 0.5721 0.1310
C14B C 0.7398(8) 0.5807(5) 0.13830(16)
H17B H 0.7484 0.5910 0.1549
C15B C 0.6765(7) 0.5762(4) 0.12729(16)
C16B C 0.6167(7) 0.5851(4) 0.14193(16)
H18B H 0.6229 0.5932 0.1587
C17B C 0.4941(10) 0.5801(6) 0.14522(19)
H19B H 0.4991 0.5747 0.1626
H20B H 0.4942 0.6284 0.1424
C18B C 0.4225(12) 0.5155(7) 0.1364(2)
H21B H 0.3793 0.5177 0.1439
H22B H 0.4198 0.4675 0.1417
C19B C 0.3493(14) 0.4303(8) 0.1023(3)
H23B H 0.3666 0.3945 0.1065
H24B H 0.3387 0.4269 0.0851
H25B H 0.3027 0.4174 0.1112
C20B C 0.3840(14) 0.5707(8) 0.1003(3)
H26B H 0.3792 0.5692 0.0829
H27B H 0.4211 0.6226 0.1054
H28B H 0.3345 0.5554 0.1076
loop_
_geom_bond_atom_site_label_1
_geom_bond_atom_site_label_2
_geom_bond_site_symmetry_1
_geom_bond_site_symmetry_2
Cd1 N1 1_555 1_555
N1 C1 1_555 1_555
N2 Cd1 1_555 1_555
N3 C11 1_555 1_555
N4 C16 1_555 1_555
N5 C18 1_555 1_555
N6 Cd1 1_555 1_555
C1 H1 1_555 1_555
C2 C1 1_555 1_555
C3 C2 1_555 1_555
H2 C3 1_555 1_555
C4 C3 1_555 1_555
H3 C4 1_555 1_555
C5 N1 1_555 1_555
C6 N2 1_555 1_555
H4 C6 1_555 1_555
C7 N2 1_555 1_555
H5 C7 1_555 1_555
H6 C7 1_555 1_555
C8 N6 1_555 1_555
H7 C8 1_555 1_555
H8 C8 1_555 1_555
C9 N6 1_555 1_555
H9 C9 1_555 1_555
H10 C9 1_555 1_555
H11 C9 1_555 1_555
C10 N6 1_555 1_555
H12 C10 1_555 1_555
H13 C10 1_555 1_555
H14 C10 1_555 1_555
C11 H15 1_555 1_555
C12 C2 1_555 1_555
C13 C12 1_555 1_555
H16 C13 1_555 1_555
C14 C13 1_555 1_555
H17 C14 1_555 1_555
C15 N3 1_555 1_555
C16 C15 1_555 1_555
H18 C16 1_555 1_555
C17 N4 1_555 1_555
H19 C17 1_555 1_555
H20 C17 1_555 1_555
C18 C17 1_555 1_555
H21 C18 1_555 1_555
H22 C18 1_555 1_555
C19 N5 1_555 1_555
H23 C19 1_555 1_555
H24 C19 1_555 1_555
H25 C19 1_555 1_555
C20 N5 1_555 1_555
H26 C20 1_555 1_555
H27 C20 1_555 1_555
H28 C20 1_555 1_555
S1 O1 1_555 1_555
O2 S1 1_555 1_555
O3 S1 1_555 1_555
C21 S1 1_555 1_555
F1 C21 1_555 1_555
F2 C21 1_555 1_555
F3 C21 1_555 1_555
Cd1A N3 1_555 1_555
N1A Cd1A 1_555 1_555
N2A Cd1A 1_555 1_555
N3A C11A 1_555 1_555
N4A C16A 1_555 1_555
N5A C18A 1_555 1_555
N6A Cd1A 1_555 1_555
C1A N1A 1_555 1_555
H1A C1A 1_555 1_555
C2A C1A 1_555 1_555
C3A C2A 1_555 1_555
H2A C3A 1_555 1_555
C4A C3A 1_555 1_555
H3A C4A 1_555 1_555
C5A N1A 1_555 1_555
C6A N2A 1_555 1_555
H4A C6A 1_555 1_555
C7A N2A 1_555 1_555
H5A C7A 1_555 1_555
H6A C7A 1_555 1_555
C8A N6A 1_555 1_555
H7A C8A 1_555 1_555
H8A C8A 1_555 1_555
C9A N6A 1_555 1_555
H9A C9A 1_555 1_555
H10A C9A 1_555 1_555
H11A C9A 1_555 1_555
C10A N6A 1_555 1_555
H12A C10A 1_555 1_555
H13A C10A 1_555 1_555
H14A C10A 1_555 1_555
C11A H15A 1_555 1_555
C12A C2A 1_555 1_555
C13A C12A 1_555 1_555
H16A C13A 1_555 1_555
C14A C13A 1_555 1_555
H17A C14A 1_555 1_555
C15A N3A 1_555 1_555
C16A C15A 1_555 1_555
H18A C16A 1_555 1_555
C17A N4A 1_555 1_555
H19A C17A 1_555 1_555
H20A C17A 1_555 1_555
C18A C17A 1_555 1_555
H21A C18A 1_555 1_555
H22A C18A 1_555 1_555
C19A N5A 1_555 1_555
H23A C19A 1_555 1_555
H24A C19A 1_555 1_555
H25A C19A 1_555 1_555
C20A N5A 1_555 1_555
H26A C20A 1_555 1_555
H27A C20A 1_555 1_555
H28A C20A 1_555 1_555
Cd1B N3A 1_555 1_555
N1B Cd1B 1_555 1_555
N2B Cd1B 1_555 1_555
N3B Cd1 1_555 1_555
N4B Cd1 1_555 1_555
N5B Cd1 1_555 1_555
N6B Cd1B 1_555 1_555
C1B N1B 1_555 1_555
H1B C1B 1_555 1_555
C2B C1B 1_555 1_555
C3B C2B 1_555 1_555
H2B C3B 1_555 1_555
C4B C3B 1_555 1_555
H3B C4B 1_555 1_555
C5B N1B 1_555 1_555
C6B N2B 1_555 1_555
H4B C6B 1_555 1_555
C7B N2B 1_555 1_555
H5B C7B 1_555 1_555
H6B C7B 1_555 1_555
C8B N6B 1_555 1_555
H7B C8B 1_555 1_555
H8B C8B 1_555 1_555
C9B N6B 1_555 1_555
H9B C9B 1_555 1_555
H10B C9B 1_555 1_555
H11B C9B 1_555 1_555
C10B N6B 1_555 1_555
H12B C10B 1_555 1_555
H13B C10B 1_555 1_555
H14B C10B 1_555 1_555
C11B N3B 1_555 1_555
H15B C11B 1_555 1_555
C12B C2B 1_555 1_555
C13B C12B 1_555 1_555
H16B C13B 1_555 1_555
C14B C13B 1_555 1_555
H17B C14B 1_555 1_555
C15B N3B 1_555 1_555
C16B N4B 1_555 1_555
H18B C16B 1_555 1_555
C17B N4B 1_555 1_555
H19B C17B 1_555 1_555
H20B C17B 1_555 1_555
C18B N5B 1_555 1_555
H21B C18B 1_555 1_555
H22B C18B 1_555 1_555
C19B N5B 1_555 1_555
H23B C19B 1_555 1_555
H24B C19B 1_555 1_555
H25B C19B 1_555 1_555
C20B N5B 1_555 1_555
H26B C20B 1_555 1_555
H27B C20B 1_555 1_555
H28B C20B 1_555 1_555
N4 Cd1A 1_555 1_555
N5 Cd1A 1_555 1_555
C4 C5 1_555 1_555
C5 C6 1_555 1_555
C7 C8 1_555 1_555
C11 C12 1_555 1_555
C14 C15 1_555 1_555
N4A Cd1B 1_555 1_555
N5A Cd1B 1_555 1_555
C4A C5A 1_555 1_555
C5A C6A 1_555 1_555
C7A C8A 1_555 1_555
C11A C12A 1_555 1_555
C14A C15A 1_555 1_555
C4B C5B 1_555 1_555
C5B C6B 1_555 1_555
C7B C8B 1_555 1_555
C11B C12B 1_555 1_555
C14B C15B 1_555 1_555
C15B C16B 1_555 1_555
C17B C18B 1_555 1_555

#END
