
#######################################################################
#
#                 Cambridge Crystallographic Data Centre
#                                CCDC 
#
#######################################################################
#
# If this CIF has been generated from an entry in the Cambridge 
# Structural Database, then it will include bibliographic, chemical, 
# crystal, experimental, refinement or atomic coordinate data resulting 
# from the CCDC's data processing and validation procedures.
#
#######################################################################

data_KINCES
_chemical_formula_moiety         
'C36 H52 N12 Pd2 4+,2(C2 H6 O1 S1),2(C1 Cl4),4(N1 O3 1-)'
_chemical_name_systematic        
"bis(\m-1,1'-(1,3-phenylene)di(1H-imidazole))-bis(N^1^,N^1^,N^2^,N^2^-tetramethylethane-1,2-diamine)-di-palladium tetranitrate tetrachloromethane dimethyl sulfoxide solvate"
_symmetry_cell_setting           monoclinic
_symmetry_space_group_name_H-M   'P 21/m'
_symmetry_Int_Tables_number      11
_space_group_name_Hall           '-P 2yb'
loop_
_symmetry_equiv_pos_site_id
_symmetry_equiv_pos_as_xyz
1 x,y,z
2 -x,1/2+y,-z
3 -x,-y,-z
4 x,1/2-y,z
_cell_length_a                   14.1878(5)
_cell_length_b                   16.3766(5)
_cell_length_c                   14.5171(5)
_cell_angle_alpha                90
_cell_angle_beta                 102.328(2)
_cell_angle_gamma                90
_cell_volume                     3295.24
_exptl_crystal_colour            colorless
_exptl_crystal_description       block
_cell_formula_units_Z            2
loop_
_atom_site_label
_atom_site_type_symbol
_atom_site_fract_x
_atom_site_fract_y
_atom_site_fract_z
C1 C 0.3297(6) 0.4922(4) 0.9647(5)
H1 H 0.3347 0.5098 1.0286
H2 H 0.3898 0.4685 0.9581
H3 H 0.2793 0.4522 0.9489
C2 C 0.3923(5) 0.6193(5) 0.9231(5)
H4 H 0.3972 0.6422 0.9848
H5 H 0.3838 0.6623 0.8772
H6 H 0.4502 0.5896 0.9211
C3 C 0.2204(5) 0.6069(5) 0.9152(5)
H7 H 0.2212 0.6111 0.9820
H8 H 0.2203 0.6617 0.8899
C4 C 0.1344(5) 0.5637(5) 0.8677(5)
H9 H 0.0777 0.5948 0.8730
H10 H 0.1312 0.5112 0.8980
C5 C 0.1027(6) 0.6253(5) 0.7114(6)
H11 H 0.1019 0.6162 0.6459
H12 H 0.1460 0.6692 0.7346
H13 H 0.0389 0.6391 0.7187
C6 C 0.0691(5) 0.4820(4) 0.7296(5)
H14 H 0.0058 0.4940 0.7395
H15 H 0.0927 0.4329 0.7628
H16 H 0.0661 0.4746 0.6634
C7 C 0.2348(6) 0.5270(4) 0.5469(5)
H17 H 0.2398 0.5835 0.5432
C8 C 0.2178(6) 0.4760(4) 0.4729(5)
H18 H 0.2093 0.4901 0.4096
C9 C 0.2315(4) 0.4052(3) 0.6037(4)
H19 H 0.2340 0.3619 0.6456
C10 C 0.2001(4) 0.3229(3) 0.4580(4)
C11 C 0.1682(5) 0.3245(4) 0.3626(4)
H20 H 0.1569 0.3739 0.3305
C12 C 0.1527(8) 0.2500 0.3137(7)
H21 H 0.1321 0.2500 0.2484
C13 C 0.2175(6) 0.2500 0.5072(6)
H22 H 0.2405 0.2500 0.5722
C14 C 0.7325(6) 0.2500 0.8460(7)
H23 H 0.7992 0.2500 0.8674
C15 C 0.6836(4) 0.3235(4) 0.8303(4)
H24 H 0.7168 0.3728 0.8401
C16 C 0.5843(4) 0.3222(3) 0.7998(4)
C17 C 0.5347(6) 0.2500 0.7828(6)
H25 H 0.4682 0.2500 0.7600
C18 C 0.4390(4) 0.4080(3) 0.7862(4)
H26 H 0.3981 0.3665 0.7975
C19 C 0.5680(5) 0.4731(4) 0.7648(5)
H27 H 0.6307 0.4852 0.7597
C20 C 0.4925(5) 0.5257(4) 0.7544(5)
H28 H 0.4945 0.5807 0.7391
N1 N 0.3073(4) 0.5623(3) 0.9013(4)
N2 N 0.1351(4) 0.5506(3) 0.7652(4)
N3 N 0.2436(4) 0.4835(3) 0.6287(4)
N4 N 0.2154(4) 0.3977(3) 0.5098(3)
N5 N 0.5329(3) 0.3979(3) 0.7844(4)
N6 N 0.4130(4) 0.4851(3) 0.7699(3)
Pd1 Pd 0.27585(3) 0.52276(2) 0.76331(3)
C7C C 0.2348(6) -0.0270(4) 0.5469(5)
H17C H 0.2398 -0.0835 0.5432
C8C C 0.2178(6) 0.0240(4) 0.4729(5)
H18C H 0.2093 0.0099 0.4096
C9C C 0.2315(4) 0.0948(3) 0.6037(4)
H19C H 0.2340 0.1381 0.6456
C10C C 0.2001(4) 0.1771(3) 0.4580(4)
C11C C 0.1682(5) 0.1755(4) 0.3626(4)
H20C H 0.1569 0.1261 0.3305
N3C N 0.2436(4) 0.0165(3) 0.6287(4)
N4C N 0.2154(4) 0.1023(3) 0.5098(3)
C15C C 0.6836(4) 0.1765(4) 0.8303(4)
H24C H 0.7168 0.1272 0.8401
C16C C 0.5843(4) 0.1778(3) 0.7998(4)
C18C C 0.4390(4) 0.0920(3) 0.7862(4)
H26C H 0.3981 0.1335 0.7975
C19C C 0.5680(5) 0.0269(4) 0.7648(5)
H27C H 0.6307 0.0148 0.7597
C20C C 0.4925(5) -0.0257(4) 0.7544(5)
H28C H 0.4945 -0.0807 0.7391
N5C N 0.5329(3) 0.1021(3) 0.7844(4)
N6C N 0.4130(4) 0.0149(3) 0.7699(3)
C1C C 0.3297(6) 0.0078(4) 0.9647(5)
H1C H 0.3347 -0.0098 1.0286
H2C H 0.3898 0.0315 0.9581
H3C H 0.2793 0.0478 0.9489
C2C C 0.3923(5) -0.1193(5) 0.9231(5)
H4C H 0.3972 -0.1422 0.9848
H5C H 0.3838 -0.1623 0.8772
H6C H 0.4502 -0.0896 0.9211
C3C C 0.2204(5) -0.1069(5) 0.9152(5)
H7C H 0.2212 -0.1111 0.9820
H8C H 0.2203 -0.1617 0.8899
C4C C 0.1344(5) -0.0637(5) 0.8677(5)
H9C H 0.0777 -0.0948 0.8730
H10C H 0.1312 -0.0112 0.8980
C5C C 0.1027(6) -0.1253(5) 0.7114(6)
H11C H 0.1019 -0.1162 0.6459
H12C H 0.1460 -0.1692 0.7346
H13C H 0.0389 -0.1391 0.7187
C6C C 0.0691(5) 0.0180(4) 0.7296(5)
H14C H 0.0058 0.0060 0.7395
H15C H 0.0927 0.0671 0.7628
H16C H 0.0661 0.0254 0.6634
N1C N 0.3073(4) -0.0623(3) 0.9013(4)
N2C N 0.1351(4) -0.0506(3) 0.7652(4)
Pd1C Pd 0.27585(3) -0.02276(2) 0.76331(3)
N7 N 0.1597(4) 0.0180(3) 0.1720(4)
O1 O 0.1994(4) -0.0109(3) 0.2501(3)
O2 O 0.0999(4) 0.0740(3) 0.1681(4)
O3 O 0.1831(5) -0.0065(4) 0.1007(4)
N8 N 0.2387(6) 0.2500 0.8068(6)
O4 O 0.2149(5) 0.1838(4) 0.8350(5)
O5 O 0.2887(5) 0.2500 0.7459(4)
O4C O 0.2149(5) 0.3162(4) 0.8350(5)
N9 N 0.6657(7) 0.2500 0.3093(7)
O6 O 0.6462(5) 0.1843(4) 0.3390(5)
O7 O 0.7087(8) 0.2500 0.2428(9)
O6C O 0.6462(5) 0.3157(4) 0.3390(5)
C21 C 0.3581(10) 0.2500 0.1119(14)
Cl1 Cl 0.4462(3) 0.2500 0.2076(3)
Cl2 Cl 0.4079(3) 0.2500 0.0067(3)
Cl3 Cl 0.2833(2) 0.16277(15) 0.1054(2)
Cl3C Cl 0.2833(2) 0.33723(15) 0.1054(2)
C22 C 0.9052(8) 0.2500 0.6216(8)
Cl4 Cl 0.86927(16) 0.16185(11) 0.67317(14)
Cl5 Cl 1.0306(3) 0.2500 0.6387(6)
Cl6 Cl 0.8516(4) 0.2500 0.5020(2)
Cl4C Cl 0.86927(16) 0.33815(11) 0.67317(14)
S1 S 1.02291(18) 0.2500 1.03364(18)
O8 O 0.9251(6) 0.2500 1.0569(6)
C23 C 1.0229(6) 0.1676(5) 0.9533(6)
H29 H 1.0309 0.1170 0.9873
H30 H 1.0750 0.1746 0.9213
H31 H 0.9627 0.1670 0.9079
C23C C 1.0229(6) 0.3324(5) 0.9533(6)
H29C H 1.0309 0.3830 0.9873
H30C H 1.0750 0.3254 0.9213
H31C H 0.9627 0.3330 0.9079
S2? S 0.4789(5) 0.1773(8) 0.5145(6)
O9? O 0.4281(8) 0.1672(11) 0.5914(8)
C24? C 0.6032(12) 0.1850(17) 0.5639(17)
H32? H 0.6380 0.1916 0.5144
H33? H 0.6148 0.2313 0.6053
H34? H 0.6248 0.1362 0.5988
C25? C 0.4734(14) 0.0689(12) 0.5262(14)
H35? H 0.5040 0.0433 0.4808
H36? H 0.5060 0.0532 0.5886
H37? H 0.4072 0.0519 0.5155
loop_
_geom_bond_atom_site_label_1
_geom_bond_atom_site_label_2
_geom_bond_site_symmetry_1
_geom_bond_site_symmetry_2
C1 H1 1_555 1_555
H2 C1 1_555 1_555
H3 C1 1_555 1_555
C2 H4 1_555 1_555
H5 C2 1_555 1_555
H6 C2 1_555 1_555
C3 H7 1_555 1_555
H8 C3 1_555 1_555
C4 C3 1_555 1_555
H9 C4 1_555 1_555
H10 C4 1_555 1_555
C5 H11 1_555 1_555
H12 C5 1_555 1_555
H13 C5 1_555 1_555
C6 H14 1_555 1_555
H15 C6 1_555 1_555
H16 C6 1_555 1_555
C7 H17 1_555 1_555
C8 C7 1_555 1_555
H18 C8 1_555 1_555
C9 H19 1_555 1_555
C10 C11 1_555 1_555
C11 H20 1_555 1_555
C12 C11 1_555 1_555
H21 C12 1_555 1_555
C13 C10 1_555 1_555
H22 C13 1_555 1_555
C14 H23 1_555 1_555
C15 C14 1_555 1_555
H24 C15 1_555 1_555
C16 C15 1_555 1_555
C17 C16 1_555 1_555
H25 C17 1_555 1_555
C18 H26 1_555 1_555
C19 H27 1_555 1_555
C20 C19 1_555 1_555
H28 C20 1_555 1_555
N1 C1 1_555 1_555
N2 C4 1_555 1_555
N3 C7 1_555 1_555
N4 C8 1_555 1_555
N5 C16 1_555 1_555
N6 C18 1_555 1_555
Pd1 N1 1_555 1_555
N7 O1 1_555 1_555
O2 N7 1_555 1_555
O3 N7 1_555 1_555
N8 O4 1_555 1_555
O5 N8 1_555 1_555
N9 O6 1_555 1_555
O7 N9 1_555 1_555
C21 Cl1 1_555 1_555
Cl2 C21 1_555 1_555
Cl3 C21 1_555 1_555
C22 Cl4 1_555 1_555
Cl5 C22 1_555 1_555
Cl6 C22 1_555 1_555
S1 O8 1_555 1_555
C23 S1 1_555 1_555
H29 C23 1_555 1_555
H30 C23 1_555 1_555
H31 C23 1_555 1_555
C7C H17C 1_555 1_555
C8C C7C 1_555 1_555
H18C C8C 1_555 1_555
C9C H19C 1_555 1_555
C10C C13 1_555 1_555
C11C C12 1_555 1_555
H20C C11C 1_555 1_555
N3C C7C 1_555 1_555
N4C C8C 1_555 1_555
C15C C14 1_555 1_555
H24C C15C 1_555 1_555
C16C C17 1_555 1_555
C18C H26C 1_555 1_555
C19C H27C 1_555 1_555
C20C C19C 1_555 1_555
H28C C20C 1_555 1_555
N5C C16C 1_555 1_555
N6C C18C 1_555 1_555
C1C H1C 1_555 1_555
H2C C1C 1_555 1_555
H3C C1C 1_555 1_555
C2C H4C 1_555 1_555
H5C C2C 1_555 1_555
H6C C2C 1_555 1_555
C3C H7C 1_555 1_555
H8C C3C 1_555 1_555
C4C C3C 1_555 1_555
H9C C4C 1_555 1_555
H10C C4C 1_555 1_555
C5C H11C 1_555 1_555
H12C C5C 1_555 1_555
H13C C5C 1_555 1_555
C6C H14C 1_555 1_555
H15C C6C 1_555 1_555
H16C C6C 1_555 1_555
N1C C1C 1_555 1_555
N2C C4C 1_555 1_555
Pd1C N3C 1_555 1_555
O4C N8 1_555 1_555
O6C N9 1_555 1_555
Cl3C C21 1_555 1_555
Cl4C C22 1_555 1_555
C23C S1 1_555 1_555
H29C C23C 1_555 1_555
H30C C23C 1_555 1_555
H31C C23C 1_555 1_555
C2 N1 1_555 1_555
C3 N1 1_555 1_555
C5 N2 1_555 1_555
C6 N2 1_555 1_555
C9 N3 1_555 1_555
C9 N4 1_555 1_555
C10 N4 1_555 1_555
C18 N5 1_555 1_555
C19 N5 1_555 1_555
C20 N6 1_555 1_555
N2 Pd1 1_555 1_555
N3 Pd1 1_555 1_555
N6 Pd1 1_555 1_555
C9C N3C 1_555 1_555
C9C N4C 1_555 1_555
C10C C11C 1_555 1_555
C10C N4C 1_555 1_555
C15C C16C 1_555 1_555
C18C N5C 1_555 1_555
C19C N5C 1_555 1_555
C20C N6C 1_555 1_555
N6C Pd1C 1_555 1_555
C2C N1C 1_555 1_555
C3C N1C 1_555 1_555
C5C N2C 1_555 1_555
C6C N2C 1_555 1_555
N1C Pd1C 1_555 1_555
N2C Pd1C 1_555 1_555

#END
