
#######################################################################
#
#                 Cambridge Crystallographic Data Centre
#                                CCDC 
#
#######################################################################
#
# If this CIF has been generated from an entry in the Cambridge 
# Structural Database, then it will include bibliographic, chemical, 
# crystal, experimental, refinement or atomic coordinate data resulting 
# from the CCDC's data processing and validation procedures.
#
#######################################################################

data_KINCIW
_chemical_formula_moiety         'C44 H36 N12 Pd2 4+,4(N1 O3 1-),2(H2 O1)'
_chemical_name_systematic        
"bis(2,2'-bipyridine)-bis(\m-1,1'-(1,3-phenylene)bis(1H-imidazole))-di-palladium tetranitrate dihydrate"
_symmetry_cell_setting           monoclinic
_symmetry_space_group_name_H-M   'P 21/c'
_symmetry_Int_Tables_number      14
_space_group_name_Hall           '-P 2ybc'
loop_
_symmetry_equiv_pos_site_id
_symmetry_equiv_pos_as_xyz
1 x,y,z
2 -x,1/2+y,1/2-z
3 -x,-y,-z
4 x,1/2-y,1/2+z
_cell_length_a                   14.0694(2)
_cell_length_b                   12.3141(2)
_cell_length_c                   14.0745(2)
_cell_angle_alpha                90
_cell_angle_beta                 101.9200(10)
_cell_angle_gamma                90
_cell_volume                     2385.86
_exptl_crystal_colour            colorless
_exptl_crystal_description       block
_cell_formula_units_Z            2
loop_
_atom_site_label
_atom_site_type_symbol
_atom_site_fract_x
_atom_site_fract_y
_atom_site_fract_z
C1 C 0.55673(15) -0.16413(17) 0.11695(15)
H1 H 0.6127 -0.2015 0.1111
C2 C 0.47330(17) -0.22247(19) 0.11839(17)
H2 H 0.4729 -0.2978 0.1136
C3 C 0.39067(16) -0.1666(2) 0.12710(18)
H3 H 0.3335 -0.2040 0.1283
C4 C 0.39328(16) -0.05490(19) 0.13400(18)
H4 H 0.3379 -0.0165 0.1401
C5 C 0.47886(14) -0.00030(17) 0.13184(15)
C6 C 0.48811(14) 0.11877(17) 0.13391(14)
C7 C 0.41187(16) 0.18878(19) 0.13467(17)
H5 H 0.3514 0.1618 0.1397
C8 C 0.42596(17) 0.2998(2) 0.12782(18)
H6 H 0.3751 0.3481 0.1277
C9 C 0.51640(18) 0.33711(19) 0.12116(18)
H7 H 0.5272 0.4111 0.1156
C10 C 0.59089(16) 0.26411(18) 0.12283(16)
H8 H 0.6521 0.2900 0.1190
C11 C 0.82575(15) 0.19915(18) 0.23831(16)
H9 H 0.8006 0.1954 0.2943
C12 C 0.90109(15) 0.26126(18) 0.22628(16)
H10 H 0.9366 0.3088 0.2714
C13 C 0.84778(14) 0.16874(16) 0.09258(15)
H11 H 0.8411 0.1417 0.0299
C14 C 0.98831(13) 0.28759(16) 0.08962(15)
C15 C 1.01749(15) 0.39364(17) 0.11223(16)
H12 H 0.9898 0.4338 0.1555
C16 C 1.08843(17) 0.43887(18) 0.06942(19)
H13 H 1.1084 0.5100 0.0840
C17 C 1.12966(15) 0.37952(18) 0.00548(17)
H14 H 1.1775 0.4101 -0.0229
C18 C 1.09910(14) 0.27389(16) -0.01599(15)
C19 C 1.02828(14) 0.22617(16) 0.02565(15)
H15 H 1.0083 0.1550 0.0110
C20 C 1.15323(15) 0.24259(19) -0.17257(16)
H16 H 1.1283 0.3050 -0.2058
C21 C 1.19014(14) 0.11640(17) -0.06040(15)
H17 H 1.1940 0.0777 -0.0030
C22 C 1.20592(15) 0.16395(19) -0.20430(16)
H18 H 1.2236 0.1629 -0.2644
N1 N 0.56004(12) -0.05540(13) 0.12366(12)
N2 N 0.57778(12) 0.15681(14) 0.12990(12)
N3 N 0.79203(12) 0.14196(14) 0.15390(13)
N4 N 0.91516(11) 0.24043(13) 0.13401(12)
N5 N 1.14393(12) 0.21138(14) -0.08101(12)
N6 N 1.22931(12) 0.08578(14) -0.13370(13)
Pd1 Pd 0.67878(2) 0.03960(2) 0.13360(2)
C1B C 1.44327(15) 0.16413(17) -0.11695(15)
H1B H 1.3873 0.2015 -0.1111
C2B C 1.52670(17) 0.22247(19) -0.11839(17)
H2B H 1.5271 0.2978 -0.1136
C3B C 1.60933(16) 0.1666(2) -0.12710(18)
H3B H 1.6665 0.2040 -0.1283
C4B C 1.60672(16) 0.05490(19) -0.13400(18)
H4B H 1.6621 0.0165 -0.1401
C5B C 1.52114(14) 0.00030(17) -0.13184(15)
C6B C 1.51189(14) -0.11877(17) -0.13391(14)
C7B C 1.58813(16) -0.18878(19) -0.13467(17)
H5B H 1.6486 -0.1618 -0.1397
C8B C 1.57404(17) -0.2998(2) -0.12782(18)
H6B H 1.6249 -0.3481 -0.1277
C9B C 1.48360(18) -0.33711(19) -0.12116(18)
H7B H 1.4728 -0.4111 -0.1156
C10B C 1.40911(16) -0.26411(18) -0.12283(16)
H8B H 1.3479 -0.2900 -0.1190
C11B C 1.17425(15) -0.19915(18) -0.23831(16)
H9B H 1.1994 -0.1954 -0.2943
C12B C 1.09891(15) -0.26126(18) -0.22628(16)
H10B H 1.0634 -0.3088 -0.2714
C13B C 1.15222(14) -0.16874(16) -0.09258(15)
H11B H 1.1589 -0.1417 -0.0299
C14B C 1.01169(13) -0.28759(16) -0.08962(15)
C15B C 0.98251(15) -0.39364(17) -0.11223(16)
H12B H 1.0102 -0.4338 -0.1555
C16B C 0.91157(17) -0.43887(18) -0.06942(19)
H13B H 0.8916 -0.5100 -0.0840
C17B C 0.87034(15) -0.37952(18) -0.00548(17)
H14B H 0.8225 -0.4101 0.0229
C18B C 0.90090(14) -0.27389(16) 0.01599(15)
C19B C 0.97172(14) -0.22617(16) -0.02565(15)
H15B H 0.9917 -0.1550 -0.0110
C20B C 0.84677(15) -0.24259(19) 0.17257(16)
H16B H 0.8717 -0.3050 0.2058
C21B C 0.80986(14) -0.11640(17) 0.06040(15)
H17B H 0.8060 -0.0777 0.0030
C22B C 0.79408(15) -0.16395(19) 0.20430(16)
H18B H 0.7764 -0.1629 0.2644
N1B N 1.43996(12) 0.05540(13) -0.12366(12)
N2B N 1.42222(12) -0.15681(14) -0.12990(12)
N3B N 1.20797(12) -0.14196(14) -0.15390(13)
N4B N 1.08484(11) -0.24043(13) -0.13401(12)
N5B N 0.85607(12) -0.21138(14) 0.08101(12)
N6B N 0.77069(12) -0.08578(14) 0.13370(13)
Pd1B Pd 1.32122(2) -0.03960(2) -0.13360(2)
N7 N 0.30780(16) 0.57344(17) 0.06770(17)
O1 O 0.3629(2) 0.5310(2) 0.02109(19)
O2 O 0.24401(17) 0.63583(19) 0.0309(2)
O3 O 0.3214(2) 0.5536(2) 0.15353(18)
N8 N 0.12953(16) 0.01574(17) 0.16393(15)
O4 O 0.1301(3) -0.0541(2) 0.10411(18)
O5 O 0.0671(2) 0.02671(18) 0.2103(2)
O6 O 0.20009(15) 0.08163(19) 0.17676(16)
O7 O 0.3508(2) 0.0946(3) 0.3548(2)
H19 H 0.300(3) 0.066(4) 0.306(3)
H20 H 0.338(4) 0.069(4) 0.412(2)
loop_
_geom_bond_atom_site_label_1
_geom_bond_atom_site_label_2
_geom_bond_site_symmetry_1
_geom_bond_site_symmetry_2
C1 H1 1_555 1_555
C2 C1 1_555 1_555
H2 C2 1_555 1_555
C3 C2 1_555 1_555
H3 C3 1_555 1_555
C4 C3 1_555 1_555
H4 C4 1_555 1_555
C5 C4 1_555 1_555
C6 C5 1_555 1_555
C7 C6 1_555 1_555
H5 C7 1_555 1_555
C8 C7 1_555 1_555
H6 C8 1_555 1_555
C9 C8 1_555 1_555
H7 C9 1_555 1_555
C10 C9 1_555 1_555
H8 C10 1_555 1_555
C11 H9 1_555 1_555
C12 C11 1_555 1_555
H10 C12 1_555 1_555
C13 H11 1_555 1_555
C14 C15 1_555 1_555
C15 H12 1_555 1_555
C16 C15 1_555 1_555
H13 C16 1_555 1_555
C17 C16 1_555 1_555
H14 C17 1_555 1_555
C18 C17 1_555 1_555
C19 C14 1_555 1_555
H15 C19 1_555 1_555
C20 H16 1_555 1_555
C21 H17 1_555 1_555
C22 C20 1_555 1_555
H18 C22 1_555 1_555
N1 C1 1_555 1_555
N2 C6 1_555 1_555
N3 C11 1_555 1_555
N4 C12 1_555 1_555
N5 C18 1_555 1_555
N6 C21 1_555 1_555
Pd1 N1 1_555 1_555
N7 O1 1_555 1_555
O2 N7 1_555 1_555
O3 N7 1_555 1_555
N8 O4 1_555 1_555
O5 N8 1_555 1_555
O6 N8 1_555 1_555
O7 H19 1_555 1_555
H20 O7 1_555 1_555
C1B H1B 1_555 1_555
C2B C1B 1_555 1_555
H2B C2B 1_555 1_555
C3B C2B 1_555 1_555
H3B C3B 1_555 1_555
C4B C3B 1_555 1_555
H4B C4B 1_555 1_555
C5B C4B 1_555 1_555
C6B C5B 1_555 1_555
C7B C6B 1_555 1_555
H5B C7B 1_555 1_555
C8B C7B 1_555 1_555
H6B C8B 1_555 1_555
C9B C8B 1_555 1_555
H7B C9B 1_555 1_555
C10B C9B 1_555 1_555
H8B C10B 1_555 1_555
C11B H9B 1_555 1_555
C12B C11B 1_555 1_555
H10B C12B 1_555 1_555
C13B H11B 1_555 1_555
C14B C15B 1_555 1_555
C15B H12B 1_555 1_555
C16B C15B 1_555 1_555
H13B C16B 1_555 1_555
C17B C16B 1_555 1_555
H14B C17B 1_555 1_555
C18B C17B 1_555 1_555
C19B C14B 1_555 1_555
H15B C19B 1_555 1_555
C20B H16B 1_555 1_555
C21B H17B 1_555 1_555
C22B C20B 1_555 1_555
H18B C22B 1_555 1_555
N1B C1B 1_555 1_555
N2B C6B 1_555 1_555
N3B C11B 1_555 1_555
N4B C12B 1_555 1_555
N5B C18B 1_555 1_555
N6B Pd1 1_555 1_555
Pd1B N6 1_555 1_555
C5 N1 1_555 1_555
C10 N2 1_555 1_555
C13 N3 1_555 1_555
C13 N4 1_555 1_555
C14 N4 1_555 1_555
C18 C19 1_555 1_555
C20 N5 1_555 1_555
C21 N5 1_555 1_555
C22 N6 1_555 1_555
N2 Pd1 1_555 1_555
N3 Pd1 1_555 1_555
C5B N1B 1_555 1_555
C10B N2B 1_555 1_555
C13B N3B 1_555 1_555
C13B N4B 1_555 1_555
C14B N4B 1_555 1_555
C18B C19B 1_555 1_555
C20B N5B 1_555 1_555
C21B N5B 1_555 1_555
C21B N6B 1_555 1_555
C22B N6B 1_555 1_555
N1B Pd1B 1_555 1_555
N2B Pd1B 1_555 1_555
N3B Pd1B 1_555 1_555

#END
