
#######################################################################
#
#                 Cambridge Crystallographic Data Centre
#                                CCDC 
#
#######################################################################
#
# If this CIF has been generated from an entry in the Cambridge 
# Structural Database, then it will include bibliographic, chemical, 
# crystal, experimental, refinement or atomic coordinate data resulting 
# from the CCDC's data processing and validation procedures.
#
#######################################################################

data_KOJWUC
_chemical_name_common            MOP-14
_chemical_formula_moiety         
'C264 H248 Br24 Cu24 N16 O128,32(C3 H7 N1 O1),20(H2 O1)'
_chemical_name_systematic        
'tetracosakis(\m~4~-5-Bromobenzene-1,3-dicarboxylato)-octaaqua-octakis(glycine t-butyl ester)-octakis(N,N-dimethylformamide)-tetracosa-copper N,N-dimethylformamide solvate icosahydrate'
_symmetry_cell_setting           cubic
_symmetry_space_group_name_H-M   'I m -3 m'
_symmetry_Int_Tables_number      229
_space_group_name_Hall           '-I 4 2 3'
loop_
_symmetry_equiv_pos_site_id
_symmetry_equiv_pos_as_xyz
1 x,y,z
2 z,x,y
3 y,z,x
4 y,x,-z
5 y,-x,z
6 -y,x,z
7 x,z,-y
8 -x,z,y
9 x,-z,y
10 z,y,-x
11 z,-y,x
12 -z,y,x
13 1/2+x,1/2+y,1/2+z
14 1/2+z,1/2+x,1/2+y
15 1/2+y,1/2+z,1/2+x
16 1/2+y,1/2+x,1/2-z
17 1/2+y,1/2-x,1/2+z
18 1/2-y,1/2+x,1/2+z
19 1/2+x,1/2+z,1/2-y
20 1/2-x,1/2+z,1/2+y
21 1/2+x,1/2-z,1/2+y
22 1/2+z,1/2+y,1/2-x
23 1/2+z,1/2-y,1/2+x
24 1/2-z,1/2+y,1/2+x
25 -x,-y,z
26 -x,y,-z
27 x,-y,-z
28 z,-x,-y
29 -z,-x,y
30 -z,x,-y
31 -y,z,-x
32 y,-z,-x
33 -y,-z,x
34 -y,-x,-z
35 -x,-z,-y
36 -z,-y,-x
37 1/2-x,1/2-y,1/2+z
38 1/2-x,1/2+y,1/2-z
39 1/2+x,1/2-y,1/2-z
40 1/2+z,1/2-x,1/2-y
41 1/2-z,1/2-x,1/2+y
42 1/2-z,1/2+x,1/2-y
43 1/2-y,1/2+z,1/2-x
44 1/2+y,1/2-z,1/2-x
45 1/2-y,1/2-z,1/2+x
46 1/2-y,1/2-x,1/2-z
47 1/2-x,1/2-z,1/2-y
48 1/2-z,1/2-y,1/2-x
49 -x,-y,-z
50 -z,-x,-y
51 -y,-z,-x
52 -y,-x,z
53 -y,x,-z
54 y,-x,-z
55 -x,-z,y
56 x,-z,-y
57 -x,z,-y
58 -z,-y,x
59 -z,y,-x
60 z,-y,-x
61 1/2-x,1/2-y,1/2-z
62 1/2-z,1/2-x,1/2-y
63 1/2-y,1/2-z,1/2-x
64 1/2-y,1/2-x,1/2+z
65 1/2-y,1/2+x,1/2-z
66 1/2+y,1/2-x,1/2-z
67 1/2-x,1/2-z,1/2+y
68 1/2+x,1/2-z,1/2-y
69 1/2-x,1/2+z,1/2-y
70 1/2-z,1/2-y,1/2+x
71 1/2-z,1/2+y,1/2-x
72 1/2+z,1/2-y,1/2-x
73 x,y,-z
74 x,-y,z
75 -x,y,z
76 -z,x,y
77 z,x,-y
78 z,-x,y
79 y,-z,x
80 -y,z,x
81 y,z,-x
82 y,x,z
83 x,z,y
84 z,y,x
85 1/2+x,1/2+y,1/2-z
86 1/2+x,1/2-y,1/2+z
87 1/2-x,1/2+y,1/2+z
88 1/2-z,1/2+x,1/2+y
89 1/2+z,1/2+x,1/2-y
90 1/2+z,1/2-x,1/2+y
91 1/2+y,1/2-z,1/2+x
92 1/2-y,1/2+z,1/2+x
93 1/2+y,1/2+z,1/2-x
94 1/2+y,1/2+x,1/2+z
95 1/2+x,1/2+z,1/2+y
96 1/2+z,1/2+y,1/2+x
_cell_length_a                   29.663(2)
_cell_length_b                   29.663(2)
_cell_length_c                   29.663(2)
_cell_angle_alpha                90
_cell_angle_beta                 90
_cell_angle_gamma                90
_cell_volume                     26100.3
_exptl_crystal_colour            blue
_exptl_crystal_description       prism
_cell_formula_units_Z            2
loop_
_atom_site_label
_atom_site_type_symbol
_atom_site_fract_x
_atom_site_fract_y
_atom_site_fract_z
Cu1 Cu 0.5000 0.24625(5) 0.24625(5)
Cu2 Cu 0.5000 0.30962(5) 0.30962(5)
O1 O 0.5000 0.1948(3) 0.1948(3)
O2 O 0.5000 0.3604(3) 0.3604(3)
O3 O 0.5476(2) 0.2841(2) 0.2187(2)
O4 O 0.5470(2) 0.3371(2) 0.2720(2)
C1 C 0.5624(4) 0.3195(4) 0.2366(4)
C2 C 0.6215(3) 0.3785(3) 0.2339(4)
H1 H 0.6084 0.3916 0.2593
C3 C 0.6026(3) 0.3408(3) 0.2156(3)
C4 C 0.6214(4) 0.3212(4) 0.1775(4)
H2 H 0.6089 0.2952 0.1652
C5 C 0.6590(4) 0.3410(4) 0.1582(5)
Br1 Br 0.68649(7) 0.31351(7) 0.10864(9)
Cu1K Cu 0.75375(5) 0.24625(5) 0.5000
Cu1F Cu 0.5000 0.24625(5) 0.75375(5)
Cu1B Cu 0.24625(5) 0.24625(5) 0.5000
Cu1C Cu 0.24625(5) 0.5000 0.75375(5)
Cu1J Cu 0.24625(5) 0.75375(5) 0.5000
Cu1A Cu 0.24625(5) 0.5000 0.24625(5)
Cu1H Cu 0.5000 0.75375(5) 0.24625(5)
Cu1E Cu 0.75375(5) 0.5000 0.24625(5)
Cu1XA Cu 0.75375(5) 0.75375(5) 0.5000
Cu1WA Cu 0.75375(5) 0.5000 0.75375(5)
Cu1VA Cu 0.5000 0.75375(5) 0.75375(5)
Cu2K Cu 0.69038(5) 0.30962(5) 0.5000
Cu2F Cu 0.5000 0.30962(5) 0.69038(5)
Cu2B Cu 0.30962(5) 0.30962(5) 0.5000
Cu2C Cu 0.30962(5) 0.5000 0.69038(5)
Cu2J Cu 0.30962(5) 0.69038(5) 0.5000
Cu2A Cu 0.30962(5) 0.5000 0.30962(5)
Cu2H Cu 0.5000 0.69038(5) 0.30962(5)
Cu2E Cu 0.69038(5) 0.5000 0.30962(5)
Cu2XA Cu 0.69038(5) 0.69038(5) 0.5000
Cu2WA Cu 0.69038(5) 0.5000 0.69038(5)
Cu2VA Cu 0.5000 0.69038(5) 0.69038(5)
O1K O 0.8052(3) 0.1948(3) 0.5000
O1F O 0.5000 0.1948(3) 0.8052(3)
O1B O 0.1948(3) 0.1948(3) 0.5000
O1C O 0.1948(3) 0.5000 0.8052(3)
O1J O 0.1948(3) 0.8052(3) 0.5000
O1A O 0.1948(3) 0.5000 0.1948(3)
O1H O 0.5000 0.8052(3) 0.1948(3)
O1E O 0.8052(3) 0.5000 0.1948(3)
O1XA O 0.8052(3) 0.8052(3) 0.5000
O1WA O 0.8052(3) 0.5000 0.8052(3)
O1VA O 0.5000 0.8052(3) 0.8052(3)
O2K O 0.6396(3) 0.3604(3) 0.5000
O2F O 0.5000 0.3604(3) 0.6396(3)
O2B O 0.3604(3) 0.3604(3) 0.5000
O2C O 0.3604(3) 0.5000 0.6396(3)
O2J O 0.3604(3) 0.6396(3) 0.5000
O2A O 0.3604(3) 0.5000 0.3604(3)
O2H O 0.5000 0.6396(3) 0.3604(3)
O2E O 0.6396(3) 0.5000 0.3604(3)
O2XA O 0.6396(3) 0.6396(3) 0.5000
O2WA O 0.6396(3) 0.5000 0.6396(3)
O2VA O 0.5000 0.6396(3) 0.6396(3)
O3G O 0.4524(2) 0.2187(2) 0.2841(2)
O3VB O 0.4524(2) 0.2841(2) 0.2187(2)
O3DC O 0.5476(2) 0.2187(2) 0.2841(2)
O3DA O 0.7159(2) 0.2187(2) 0.4524(2)
O3K O 0.7813(2) 0.2841(2) 0.5476(2)
O3FB O 0.7813(2) 0.2841(2) 0.4524(2)
O3AC O 0.7159(2) 0.2187(2) 0.5476(2)
O3F O 0.5476(2) 0.2187(2) 0.7159(2)
O3Y O 0.4524(2) 0.2841(2) 0.7813(2)
O3TB O 0.5476(2) 0.2841(2) 0.7813(2)
O3DB O 0.4524(2) 0.2187(2) 0.7159(2)
O3B O 0.2841(2) 0.2187(2) 0.5476(2)
O3I O 0.2187(2) 0.2841(2) 0.4524(2)
O3EC O 0.2187(2) 0.2841(2) 0.5476(2)
O3BC O 0.2841(2) 0.2187(2) 0.4524(2)
O3AA O 0.2187(2) 0.4524(2) 0.7159(2)
O3C O 0.2841(2) 0.5476(2) 0.7813(2)
O3AB O 0.2841(2) 0.4524(2) 0.7813(2)
O3XB O 0.2187(2) 0.5476(2) 0.7159(2)
O3J O 0.2187(2) 0.7159(2) 0.5476(2)
O3EA O 0.2841(2) 0.7813(2) 0.4524(2)
O3ZB O 0.2841(2) 0.7813(2) 0.5476(2)
O3GB O 0.2187(2) 0.7159(2) 0.4524(2)
O3A O 0.2187(2) 0.5476(2) 0.2841(2)
O3D O 0.2841(2) 0.4524(2) 0.2187(2)
O3CC O 0.2841(2) 0.5476(2) 0.2187(2)
O3YB O 0.2187(2) 0.4524(2) 0.2841(2)
O3X O 0.4524(2) 0.7159(2) 0.2187(2)
O3H O 0.5476(2) 0.7813(2) 0.2841(2)
O3BB O 0.4524(2) 0.7813(2) 0.2841(2)
O3UB O 0.5476(2) 0.7159(2) 0.2187(2)
O3E O 0.7159(2) 0.5476(2) 0.2187(2)
O3BA O 0.7813(2) 0.4524(2) 0.2841(2)
O3WB O 0.7813(2) 0.5476(2) 0.2841(2)
O3YA O 0.7159(2) 0.4524(2) 0.2187(2)
O3IA O 0.7813(2) 0.7159(2) 0.4524(2)
O3FA O 0.7159(2) 0.7813(2) 0.5476(2)
O3XA O 0.7159(2) 0.7813(2) 0.4524(2)
O3EB O 0.7813(2) 0.7159(2) 0.5476(2)
O3CA O 0.7813(2) 0.5476(2) 0.7159(2)
O3GA O 0.7159(2) 0.4524(2) 0.7813(2)
O3ZA O 0.7159(2) 0.5476(2) 0.7813(2)
O3WA O 0.7813(2) 0.4524(2) 0.7159(2)
O3Z O 0.5476(2) 0.7159(2) 0.7813(2)
O3HA O 0.4524(2) 0.7813(2) 0.7159(2)
O3CB O 0.5476(2) 0.7813(2) 0.7159(2)
O3VA O 0.4524(2) 0.7159(2) 0.7813(2)
O4G O 0.4530(2) 0.2720(2) 0.3371(2)
O4VB O 0.4530(2) 0.3371(2) 0.2720(2)
O4DC O 0.5470(2) 0.2720(2) 0.3371(2)
O4K O 0.7280(2) 0.3371(2) 0.5470(2)
O4DA O 0.6629(2) 0.2720(2) 0.4530(2)
O4FB O 0.7280(2) 0.3371(2) 0.4530(2)
O4AC O 0.6629(2) 0.2720(2) 0.5470(2)
O4Y O 0.4530(2) 0.3371(2) 0.7280(2)
O4F O 0.5470(2) 0.2720(2) 0.6629(2)
O4TB O 0.5470(2) 0.3371(2) 0.7280(2)
O4DB O 0.4530(2) 0.2720(2) 0.6629(2)
O4I O 0.2720(2) 0.3371(2) 0.4530(2)
O4B O 0.3371(2) 0.2720(2) 0.5470(2)
O4EC O 0.2720(2) 0.3371(2) 0.5470(2)
O4BC O 0.3371(2) 0.2720(2) 0.4530(2)
O4C O 0.3371(2) 0.5470(2) 0.7280(2)
O4AA O 0.2720(2) 0.4530(2) 0.6629(2)
O4AB O 0.3371(2) 0.4530(2) 0.7280(2)
O4XB O 0.2720(2) 0.5470(2) 0.6629(2)
O4EA O 0.3371(2) 0.7280(2) 0.4530(2)
O4J O 0.2720(2) 0.6629(2) 0.5470(2)
O4ZB O 0.3371(2) 0.7280(2) 0.5470(2)
O4GB O 0.2720(2) 0.6629(2) 0.4530(2)
O4D O 0.3371(2) 0.4530(2) 0.2720(2)
O4A O 0.2720(2) 0.5470(2) 0.3371(2)
O4CC O 0.3371(2) 0.5470(2) 0.2720(2)
O4YB O 0.2720(2) 0.4530(2) 0.3371(2)
O4H O 0.5470(2) 0.7280(2) 0.3371(2)
O4X O 0.4530(2) 0.6629(2) 0.2720(2)
O4BB O 0.4530(2) 0.7280(2) 0.3371(2)
O4UB O 0.5470(2) 0.6629(2) 0.2720(2)
O4BA O 0.7280(2) 0.4530(2) 0.3371(2)
O4E O 0.6629(2) 0.5470(2) 0.2720(2)
O4WB O 0.7280(2) 0.5470(2) 0.3371(2)
O4YA O 0.6629(2) 0.4530(2) 0.2720(2)
O4FA O 0.6629(2) 0.7280(2) 0.5470(2)
O4IA O 0.7280(2) 0.6629(2) 0.4530(2)
O4XA O 0.6629(2) 0.7280(2) 0.4530(2)
O4EB O 0.7280(2) 0.6629(2) 0.5470(2)
O4GA O 0.6629(2) 0.4530(2) 0.7280(2)
O4CA O 0.7280(2) 0.5470(2) 0.6629(2)
O4ZA O 0.6629(2) 0.5470(2) 0.7280(2)
O4WA O 0.7280(2) 0.4530(2) 0.6629(2)
O4HA O 0.4530(2) 0.7280(2) 0.6629(2)
O4Z O 0.5470(2) 0.6629(2) 0.7280(2)
O4CB O 0.5470(2) 0.7280(2) 0.6629(2)
O4VA O 0.4530(2) 0.6629(2) 0.7280(2)
C1G C 0.4376(4) 0.2366(4) 0.3195(4)
C1VB C 0.4376(4) 0.3195(4) 0.2366(4)
C1DC C 0.5624(4) 0.2366(4) 0.3195(4)
C1DA C 0.6805(4) 0.2366(4) 0.4376(4)
C1K C 0.7634(4) 0.3195(4) 0.5624(4)
C1FB C 0.7634(4) 0.3195(4) 0.4376(4)
C1AC C 0.6805(4) 0.2366(4) 0.5624(4)
C1F C 0.5624(4) 0.2366(4) 0.6805(4)
C1Y C 0.4376(4) 0.3195(4) 0.7634(4)
C1TB C 0.5624(4) 0.3195(4) 0.7634(4)
C1DB C 0.4376(4) 0.2366(4) 0.6805(4)
C1B C 0.3195(4) 0.2366(4) 0.5624(4)
C1I C 0.2366(4) 0.3195(4) 0.4376(4)
C1EC C 0.2366(4) 0.3195(4) 0.5624(4)
C1BC C 0.3195(4) 0.2366(4) 0.4376(4)
C1AA C 0.2366(4) 0.4376(4) 0.6805(4)
C1C C 0.3195(4) 0.5624(4) 0.7634(4)
C1AB C 0.3195(4) 0.4376(4) 0.7634(4)
C1XB C 0.2366(4) 0.5624(4) 0.6805(4)
C1J C 0.2366(4) 0.6805(4) 0.5624(4)
C1EA C 0.3195(4) 0.7634(4) 0.4376(4)
C1ZB C 0.3195(4) 0.7634(4) 0.5624(4)
C1GB C 0.2366(4) 0.6805(4) 0.4376(4)
C1A C 0.2366(4) 0.5624(4) 0.3195(4)
C1D C 0.3195(4) 0.4376(4) 0.2366(4)
C1CC C 0.3195(4) 0.5624(4) 0.2366(4)
C1YB C 0.2366(4) 0.4376(4) 0.3195(4)
C1X C 0.4376(4) 0.6805(4) 0.2366(4)
C1H C 0.5624(4) 0.7634(4) 0.3195(4)
C1BB C 0.4376(4) 0.7634(4) 0.3195(4)
C1UB C 0.5624(4) 0.6805(4) 0.2366(4)
C1E C 0.6805(4) 0.5624(4) 0.2366(4)
C1BA C 0.7634(4) 0.4376(4) 0.3195(4)
C1WB C 0.7634(4) 0.5624(4) 0.3195(4)
C1YA C 0.6805(4) 0.4376(4) 0.2366(4)
C1IA C 0.7634(4) 0.6805(4) 0.4376(4)
C1FA C 0.6805(4) 0.7634(4) 0.5624(4)
C1XA C 0.6805(4) 0.7634(4) 0.4376(4)
C1EB C 0.7634(4) 0.6805(4) 0.5624(4)
C1CA C 0.7634(4) 0.5624(4) 0.6805(4)
C1GA C 0.6805(4) 0.4376(4) 0.7634(4)
C1ZA C 0.6805(4) 0.5624(4) 0.7634(4)
C1WA C 0.7634(4) 0.4376(4) 0.6805(4)
C1Z C 0.5624(4) 0.6805(4) 0.7634(4)
C1HA C 0.4376(4) 0.7634(4) 0.6805(4)
C1CB C 0.5624(4) 0.7634(4) 0.6805(4)
C1VA C 0.4376(4) 0.6805(4) 0.7634(4)
C2DC C 0.6215(3) 0.2339(4) 0.3785(3)
C2F C 0.6215(3) 0.2339(4) 0.6215(3)
C2B C 0.3785(3) 0.2339(4) 0.6215(3)
C2G C 0.3785(3) 0.2339(4) 0.3785(3)
C2EC C 0.2339(4) 0.3785(3) 0.6215(3)
C2J C 0.2339(4) 0.6215(3) 0.6215(3)
C2A C 0.2339(4) 0.6215(3) 0.3785(3)
C2I C 0.2339(4) 0.3785(3) 0.3785(3)
C2CC C 0.3785(3) 0.6215(3) 0.2339(4)
C2E C 0.6215(3) 0.6215(3) 0.2339(4)
C2WB C 0.7661(4) 0.6215(3) 0.3785(3)
C2EB C 0.7661(4) 0.6215(3) 0.6215(3)
C2K C 0.7661(4) 0.3785(3) 0.6215(3)
C2ZA C 0.6215(3) 0.6215(3) 0.7661(4)
C2C C 0.3785(3) 0.6215(3) 0.7661(4)
C2CB C 0.6215(3) 0.7661(4) 0.6215(3)
C2ZB C 0.3785(3) 0.7661(4) 0.6215(3)
C2TB C 0.6215(3) 0.3785(3) 0.7661(4)
C2H C 0.6215(3) 0.7661(4) 0.3785(3)
C2FB C 0.7661(4) 0.3785(3) 0.3785(3)
C2BB C 0.3785(3) 0.7661(4) 0.3785(3)
C2D C 0.3785(3) 0.3785(3) 0.2339(4)
C2AB C 0.3785(3) 0.3785(3) 0.7661(4)
H1DC H 0.6084 0.2593 0.3916
H1F H 0.6084 0.2593 0.6084
H1B H 0.3916 0.2593 0.6084
H1G H 0.3916 0.2593 0.3916
H1EC H 0.2593 0.3916 0.6084
H1J H 0.2593 0.6084 0.6084
H1A H 0.2593 0.6084 0.3916
H1I H 0.2593 0.3916 0.3916
H1CC H 0.3916 0.6084 0.2593
H1E H 0.6084 0.6084 0.2593
H1WB H 0.7407 0.6084 0.3916
H1EB H 0.7407 0.6084 0.6084
H1K H 0.7407 0.3916 0.6084
H1ZA H 0.6084 0.6084 0.7407
H1C H 0.3916 0.6084 0.7407
H1CB H 0.6084 0.7407 0.6084
H1ZB H 0.3916 0.7407 0.6084
H1TB H 0.6084 0.3916 0.7407
H1H H 0.6084 0.7407 0.3916
H1FB H 0.7407 0.3916 0.3916
H1BB H 0.3916 0.7407 0.3916
H1D H 0.3916 0.3916 0.2593
H1AB H 0.3916 0.3916 0.7407
C3DC C 0.6026(3) 0.2156(3) 0.3408(3)
C3DA C 0.6592(3) 0.2156(3) 0.3974(3)
C3AC C 0.6592(3) 0.2156(3) 0.6026(3)
C3F C 0.6026(3) 0.2156(3) 0.6592(3)
C3DB C 0.3974(3) 0.2156(3) 0.6592(3)
C3B C 0.3408(3) 0.2156(3) 0.6026(3)
C3BC C 0.3408(3) 0.2156(3) 0.3974(3)
C3G C 0.3974(3) 0.2156(3) 0.3408(3)
C3EC C 0.2156(3) 0.3408(3) 0.6026(3)
C3AA C 0.2156(3) 0.3974(3) 0.6592(3)
C3XB C 0.2156(3) 0.6026(3) 0.6592(3)
C3J C 0.2156(3) 0.6592(3) 0.6026(3)
C3GB C 0.2156(3) 0.6592(3) 0.3974(3)
C3A C 0.2156(3) 0.6026(3) 0.3408(3)
C3YB C 0.2156(3) 0.3974(3) 0.3408(3)
C3I C 0.2156(3) 0.3408(3) 0.3974(3)
C3CC C 0.3408(3) 0.6026(3) 0.2156(3)
C3X C 0.3974(3) 0.6592(3) 0.2156(3)
C3UB C 0.6026(3) 0.6592(3) 0.2156(3)
C3E C 0.6592(3) 0.6026(3) 0.2156(3)
C3YA C 0.6592(3) 0.3974(3) 0.2156(3)
C3WB C 0.7844(3) 0.6026(3) 0.3408(3)
C3IA C 0.7844(3) 0.6592(3) 0.3974(3)
C3EB C 0.7844(3) 0.6592(3) 0.6026(3)
C3CA C 0.7844(3) 0.6026(3) 0.6592(3)
C3WA C 0.7844(3) 0.3974(3) 0.6592(3)
C3K C 0.7844(3) 0.3408(3) 0.6026(3)
C3ZA C 0.6592(3) 0.6026(3) 0.7844(3)
C3Z C 0.6026(3) 0.6592(3) 0.7844(3)
C3VA C 0.3974(3) 0.6592(3) 0.7844(3)
C3C C 0.3408(3) 0.6026(3) 0.7844(3)
C3CB C 0.6026(3) 0.7844(3) 0.6592(3)
C3FA C 0.6592(3) 0.7844(3) 0.6026(3)
C3HA C 0.3974(3) 0.7844(3) 0.6592(3)
C3ZB C 0.3408(3) 0.7844(3) 0.6026(3)
C3GA C 0.6592(3) 0.3974(3) 0.7844(3)
C3TB C 0.6026(3) 0.3408(3) 0.7844(3)
C3XA C 0.6592(3) 0.7844(3) 0.3974(3)
C3H C 0.6026(3) 0.7844(3) 0.3408(3)
C3BA C 0.7844(3) 0.3974(3) 0.3408(3)
C3FB C 0.7844(3) 0.3408(3) 0.3974(3)
C3BB C 0.3974(3) 0.7844(3) 0.3408(3)
C3EA C 0.3408(3) 0.7844(3) 0.3974(3)
C3D C 0.3408(3) 0.3974(3) 0.2156(3)
C3VB C 0.3974(3) 0.3408(3) 0.2156(3)
C3AB C 0.3408(3) 0.3974(3) 0.7844(3)
C3Y C 0.3974(3) 0.3408(3) 0.7844(3)
C4G C 0.3786(4) 0.1775(4) 0.3212(4)
C4BC C 0.3212(4) 0.1775(4) 0.3786(4)
C4I C 0.1775(4) 0.3212(4) 0.3786(4)
C4YB C 0.1775(4) 0.3786(4) 0.3212(4)
C4YA C 0.6788(4) 0.3786(4) 0.1775(4)
C4K C 0.8225(4) 0.3212(4) 0.6214(4)
C4WA C 0.8225(4) 0.3786(4) 0.6788(4)
C4C C 0.3212(4) 0.6214(4) 0.8225(4)
C4VA C 0.3786(4) 0.6788(4) 0.8225(4)
C4FA C 0.6788(4) 0.8225(4) 0.6214(4)
C4CB C 0.6214(4) 0.8225(4) 0.6788(4)
C4ZB C 0.3212(4) 0.8225(4) 0.6214(4)
C4HA C 0.3786(4) 0.8225(4) 0.6788(4)
C4Z C 0.6214(4) 0.6788(4) 0.8225(4)
C4ZA C 0.6788(4) 0.6214(4) 0.8225(4)
C4TB C 0.6214(4) 0.3212(4) 0.8225(4)
C4GA C 0.6788(4) 0.3786(4) 0.8225(4)
C4CA C 0.8225(4) 0.6214(4) 0.6788(4)
C4EB C 0.8225(4) 0.6788(4) 0.6214(4)
C4H C 0.6214(4) 0.8225(4) 0.3212(4)
C4XA C 0.6788(4) 0.8225(4) 0.3786(4)
C4IA C 0.8225(4) 0.6788(4) 0.3786(4)
C4WB C 0.8225(4) 0.6214(4) 0.3212(4)
C4FB C 0.8225(4) 0.3212(4) 0.3786(4)
C4BA C 0.8225(4) 0.3786(4) 0.3212(4)
C4E C 0.6788(4) 0.6214(4) 0.1775(4)
C4UB C 0.6214(4) 0.6788(4) 0.1775(4)
C4EA C 0.3212(4) 0.8225(4) 0.3786(4)
C4BB C 0.3786(4) 0.8225(4) 0.3212(4)
C4X C 0.3786(4) 0.6788(4) 0.1775(4)
C4CC C 0.3212(4) 0.6214(4) 0.1775(4)
C4VB C 0.3786(4) 0.3212(4) 0.1775(4)
C4D C 0.3212(4) 0.3786(4) 0.1775(4)
C4A C 0.1775(4) 0.6214(4) 0.3212(4)
C4GB C 0.1775(4) 0.6788(4) 0.3786(4)
C4J C 0.1775(4) 0.6788(4) 0.6214(4)
C4XB C 0.1775(4) 0.6214(4) 0.6788(4)
C4Y C 0.3786(4) 0.3212(4) 0.8225(4)
C4AB C 0.3212(4) 0.3786(4) 0.8225(4)
C4AA C 0.1775(4) 0.3786(4) 0.6788(4)
C4EC C 0.1775(4) 0.3212(4) 0.6214(4)
C4B C 0.3212(4) 0.1775(4) 0.6214(4)
C4DB C 0.3786(4) 0.1775(4) 0.6788(4)
C4F C 0.6214(4) 0.1775(4) 0.6788(4)
C4AC C 0.6788(4) 0.1775(4) 0.6214(4)
C4DA C 0.6788(4) 0.1775(4) 0.3786(4)
C4DC C 0.6214(4) 0.1775(4) 0.3212(4)
H2G H 0.3911 0.1652 0.2952
H2BC H 0.2952 0.1652 0.3911
H2I H 0.1652 0.2952 0.3911
H2YB H 0.1652 0.3911 0.2952
H2YA H 0.7048 0.3911 0.1652
H2K H 0.8348 0.2952 0.6089
H2WA H 0.8348 0.3911 0.7048
H2C H 0.2952 0.6089 0.8348
H2VA H 0.3911 0.7048 0.8348
H2FA H 0.7048 0.8348 0.6089
H2CB H 0.6089 0.8348 0.7048
H2ZB H 0.2952 0.8348 0.6089
H2HA H 0.3911 0.8348 0.7048
H2Z H 0.6089 0.7048 0.8348
H2ZA H 0.7048 0.6089 0.8348
H2TB H 0.6089 0.2952 0.8348
H2GA H 0.7048 0.3911 0.8348
H2CA H 0.8348 0.6089 0.7048
H2EB H 0.8348 0.7048 0.6089
H2H H 0.6089 0.8348 0.2952
H2XA H 0.7048 0.8348 0.3911
H2IA H 0.8348 0.7048 0.3911
H2WB H 0.8348 0.6089 0.2952
H2FB H 0.8348 0.2952 0.3911
H2BA H 0.8348 0.3911 0.2952
H2E H 0.7048 0.6089 0.1652
H2UB H 0.6089 0.7048 0.1652
H2EA H 0.2952 0.8348 0.3911
H2BB H 0.3911 0.8348 0.2952
H2X H 0.3911 0.7048 0.1652
H2CC H 0.2952 0.6089 0.1652
H2VB H 0.3911 0.2952 0.1652
H2D H 0.2952 0.3911 0.1652
H2A H 0.1652 0.6089 0.2952
H2GB H 0.1652 0.7048 0.3911
H2J H 0.1652 0.7048 0.6089
H2XB H 0.1652 0.6089 0.7048
H2Y H 0.3911 0.2952 0.8348
H2AB H 0.2952 0.3911 0.8348
H2AA H 0.1652 0.3911 0.7048
H2EC H 0.1652 0.2952 0.6089
H2B H 0.2952 0.1652 0.6089
H2DB H 0.3911 0.1652 0.7048
H2F H 0.6089 0.1652 0.7048
H2AC H 0.7048 0.1652 0.6089
H2DA H 0.7048 0.1652 0.3911
H2DC H 0.6089 0.1652 0.2952
C5G C 0.3410(4) 0.1582(5) 0.3410(4)
C5I C 0.1582(5) 0.3410(4) 0.3410(4)
C5K C 0.8418(5) 0.3410(4) 0.6590(4)
C5C C 0.3410(4) 0.6590(4) 0.8418(5)
C5CB C 0.6590(4) 0.8418(5) 0.6590(4)
C5ZB C 0.3410(4) 0.8418(5) 0.6590(4)
C5ZA C 0.6590(4) 0.6590(4) 0.8418(5)
C5TB C 0.6590(4) 0.3410(4) 0.8418(5)
C5EB C 0.8418(5) 0.6590(4) 0.6590(4)
C5H C 0.6590(4) 0.8418(5) 0.3410(4)
C5WB C 0.8418(5) 0.6590(4) 0.3410(4)
C5FB C 0.8418(5) 0.3410(4) 0.3410(4)
C5E C 0.6590(4) 0.6590(4) 0.1582(5)
C5BB C 0.3410(4) 0.8418(5) 0.3410(4)
C5CC C 0.3410(4) 0.6590(4) 0.1582(5)
C5D C 0.3410(4) 0.3410(4) 0.1582(5)
C5A C 0.1582(5) 0.6590(4) 0.3410(4)
C5J C 0.1582(5) 0.6590(4) 0.6590(4)
C5AB C 0.3410(4) 0.3410(4) 0.8418(5)
C5EC C 0.1582(5) 0.3410(4) 0.6590(4)
C5B C 0.3410(4) 0.1582(5) 0.6590(4)
C5F C 0.6590(4) 0.1582(5) 0.6590(4)
C5DC C 0.6590(4) 0.1582(5) 0.3410(4)
Br1G Br 0.31351(7) 0.10864(9) 0.31351(7)
Br1I Br 0.10864(9) 0.31351(7) 0.31351(7)
Br1K Br 0.89136(9) 0.31351(7) 0.68649(7)
Br1C Br 0.31351(7) 0.68649(7) 0.89136(9)
Br1CB Br 0.68649(7) 0.89136(9) 0.68649(7)
Br1ZB Br 0.31351(7) 0.89136(9) 0.68649(7)
Br1ZA Br 0.68649(7) 0.68649(7) 0.89136(9)
Br1TB Br 0.68649(7) 0.31351(7) 0.89136(9)
Br1EB Br 0.89136(9) 0.68649(7) 0.68649(7)
Br1H Br 0.68649(7) 0.89136(9) 0.31351(7)
Br1WB Br 0.89136(9) 0.68649(7) 0.31351(7)
Br1FB Br 0.89136(9) 0.31351(7) 0.31351(7)
Br1E Br 0.68649(7) 0.68649(7) 0.10864(9)
Br1BB Br 0.31351(7) 0.89136(9) 0.31351(7)
Br1CC Br 0.31351(7) 0.68649(7) 0.10864(9)
Br1D Br 0.31351(7) 0.31351(7) 0.10864(9)
Br1A Br 0.10864(9) 0.68649(7) 0.31351(7)
Br1J Br 0.10864(9) 0.68649(7) 0.68649(7)
Br1AB Br 0.31351(7) 0.31351(7) 0.89136(9)
Br1EC Br 0.10864(9) 0.31351(7) 0.68649(7)
Br1B Br 0.31351(7) 0.10864(9) 0.68649(7)
Br1F Br 0.68649(7) 0.10864(9) 0.68649(7)
Br1DC Br 0.68649(7) 0.10864(9) 0.31351(7)
loop_
_geom_bond_atom_site_label_1
_geom_bond_atom_site_label_2
_geom_bond_site_symmetry_1
_geom_bond_site_symmetry_2
Cu1 O1 1_555 1_555
Cu2 O2 1_555 1_555
O3 Cu1 1_555 1_555
O4 Cu2 1_555 1_555
C1 O3 1_555 1_555
C2 H1 1_555 1_555
C3 C1 1_555 1_555
C4 C3 1_555 1_555
H2 C4 1_555 1_555
C5 C4 1_555 1_555
Br1 C5 1_555 1_555
Cu1K O1K 1_555 1_555
Cu1F O1F 1_555 1_555
Cu1B O1B 1_555 1_555
Cu1C O1C 1_555 1_555
Cu1J O1J 1_555 1_555
Cu1A O1A 1_555 1_555
Cu1H O1H 1_555 1_555
Cu1E O1E 1_555 1_555
Cu1XA O1XA 1_555 1_555
Cu1WA O1WA 1_555 1_555
Cu1VA O1VA 1_555 1_555
Cu2K O2K 1_555 1_555
Cu2F O2F 1_555 1_555
Cu2B O2B 1_555 1_555
Cu2C O2C 1_555 1_555
Cu2J O2J 1_555 1_555
Cu2A O2A 1_555 1_555
Cu2H O2H 1_555 1_555
Cu2E O2E 1_555 1_555
Cu2XA O2XA 1_555 1_555
Cu2WA O2WA 1_555 1_555
Cu2VA O2VA 1_555 1_555
O3G Cu1 1_555 1_555
O3VB Cu1 1_555 1_555
O3DC Cu1 1_555 1_555
O3DA Cu1K 1_555 1_555
O3K Cu1K 1_555 1_555
O3FB Cu1K 1_555 1_555
O3AC Cu1K 1_555 1_555
O3F Cu1F 1_555 1_555
O3Y Cu1F 1_555 1_555
O3TB Cu1F 1_555 1_555
O3DB Cu1F 1_555 1_555
O3B Cu1B 1_555 1_555
O3I Cu1B 1_555 1_555
O3EC Cu1B 1_555 1_555
O3BC Cu1B 1_555 1_555
O3AA Cu1C 1_555 1_555
O3C Cu1C 1_555 1_555
O3AB Cu1C 1_555 1_555
O3XB Cu1C 1_555 1_555
O3J Cu1J 1_555 1_555
O3EA Cu1J 1_555 1_555
O3ZB Cu1J 1_555 1_555
O3GB Cu1J 1_555 1_555
O3A Cu1A 1_555 1_555
O3D Cu1A 1_555 1_555
O3CC Cu1A 1_555 1_555
O3YB Cu1A 1_555 1_555
O3X Cu1H 1_555 1_555
O3H Cu1H 1_555 1_555
O3BB Cu1H 1_555 1_555
O3UB Cu1H 1_555 1_555
O3E Cu1E 1_555 1_555
O3BA Cu1E 1_555 1_555
O3WB Cu1E 1_555 1_555
O3YA Cu1E 1_555 1_555
O3IA Cu1XA 1_555 1_555
O3FA Cu1XA 1_555 1_555
O3XA Cu1XA 1_555 1_555
O3EB Cu1XA 1_555 1_555
O3CA Cu1WA 1_555 1_555
O3GA Cu1WA 1_555 1_555
O3ZA Cu1WA 1_555 1_555
O3WA Cu1WA 1_555 1_555
O3Z Cu1VA 1_555 1_555
O3HA Cu1VA 1_555 1_555
O3CB Cu1VA 1_555 1_555
O3VA Cu1VA 1_555 1_555
O4G Cu2 1_555 1_555
O4VB Cu2 1_555 1_555
O4DC Cu2 1_555 1_555
O4K Cu2K 1_555 1_555
O4DA Cu2K 1_555 1_555
O4FB Cu2K 1_555 1_555
O4AC Cu2K 1_555 1_555
O4Y Cu2F 1_555 1_555
O4F Cu2F 1_555 1_555
O4TB Cu2F 1_555 1_555
O4DB Cu2F 1_555 1_555
O4I Cu2B 1_555 1_555
O4B Cu2B 1_555 1_555
O4EC Cu2B 1_555 1_555
O4BC Cu2B 1_555 1_555
O4C Cu2C 1_555 1_555
O4AA Cu2C 1_555 1_555
O4AB Cu2C 1_555 1_555
O4XB Cu2C 1_555 1_555
O4EA Cu2J 1_555 1_555
O4J Cu2J 1_555 1_555
O4ZB Cu2J 1_555 1_555
O4GB Cu2J 1_555 1_555
O4D Cu2A 1_555 1_555
O4A Cu2A 1_555 1_555
O4CC Cu2A 1_555 1_555
O4YB Cu2A 1_555 1_555
O4H Cu2H 1_555 1_555
O4X Cu2H 1_555 1_555
O4BB Cu2H 1_555 1_555
O4UB Cu2H 1_555 1_555
O4BA Cu2E 1_555 1_555
O4E Cu2E 1_555 1_555
O4WB Cu2E 1_555 1_555
O4YA Cu2E 1_555 1_555
O4FA Cu2XA 1_555 1_555
O4IA Cu2XA 1_555 1_555
O4XA Cu2XA 1_555 1_555
O4EB Cu2XA 1_555 1_555
O4GA Cu2WA 1_555 1_555
O4CA Cu2WA 1_555 1_555
O4ZA Cu2WA 1_555 1_555
O4WA Cu2WA 1_555 1_555
O4HA Cu2VA 1_555 1_555
O4Z Cu2VA 1_555 1_555
O4CB Cu2VA 1_555 1_555
O4VA Cu2VA 1_555 1_555
C1G O3G 1_555 1_555
C1VB O3VB 1_555 1_555
C1DC O3DC 1_555 1_555
C1DA O3DA 1_555 1_555
C1K O3K 1_555 1_555
C1FB O3FB 1_555 1_555
C1AC O3AC 1_555 1_555
C1F O3F 1_555 1_555
C1Y O3Y 1_555 1_555
C1TB O3TB 1_555 1_555
C1DB O3DB 1_555 1_555
C1B O3B 1_555 1_555
C1I O3I 1_555 1_555
C1EC O3EC 1_555 1_555
C1BC O3BC 1_555 1_555
C1AA O3AA 1_555 1_555
C1C O3C 1_555 1_555
C1AB O3AB 1_555 1_555
C1XB O3XB 1_555 1_555
C1J O3J 1_555 1_555
C1EA O3EA 1_555 1_555
C1ZB O3ZB 1_555 1_555
C1GB O3GB 1_555 1_555
C1A O3A 1_555 1_555
C1D O3D 1_555 1_555
C1CC O3CC 1_555 1_555
C1YB O3YB 1_555 1_555
C1X O3X 1_555 1_555
C1H O3H 1_555 1_555
C1BB O3BB 1_555 1_555
C1UB O3UB 1_555 1_555
C1E O3E 1_555 1_555
C1BA O3BA 1_555 1_555
C1WB O3WB 1_555 1_555
C1YA O3YA 1_555 1_555
C1IA O3IA 1_555 1_555
C1FA O3FA 1_555 1_555
C1XA O3XA 1_555 1_555
C1EB O3EB 1_555 1_555
C1CA O3CA 1_555 1_555
C1GA O3GA 1_555 1_555
C1ZA O3ZA 1_555 1_555
C1WA O3WA 1_555 1_555
C1Z O3Z 1_555 1_555
C1HA O3HA 1_555 1_555
C1CB O3CB 1_555 1_555
C1VA O3VA 1_555 1_555
C2DC H1DC 1_555 1_555
C2F H1F 1_555 1_555
C2B H1B 1_555 1_555
C2G H1G 1_555 1_555
C2EC H1EC 1_555 1_555
C2J H1J 1_555 1_555
C2A H1A 1_555 1_555
C2I H1I 1_555 1_555
C2CC H1CC 1_555 1_555
C2E H1E 1_555 1_555
C2WB H1WB 1_555 1_555
C2EB H1EB 1_555 1_555
C2K H1K 1_555 1_555
C2ZA H1ZA 1_555 1_555
C2C H1C 1_555 1_555
C2CB H1CB 1_555 1_555
C2ZB H1ZB 1_555 1_555
C2TB H1TB 1_555 1_555
C2H H1H 1_555 1_555
C2FB H1FB 1_555 1_555
C2BB H1BB 1_555 1_555
C2D H1D 1_555 1_555
C2AB H1AB 1_555 1_555
C3DC C1DC 1_555 1_555
C3DA C1DA 1_555 1_555
C3AC C1AC 1_555 1_555
C3F C1F 1_555 1_555
C3DB C1DB 1_555 1_555
C3B C1B 1_555 1_555
C3BC C1BC 1_555 1_555
C3G C1G 1_555 1_555
C3EC C1EC 1_555 1_555
C3AA C1AA 1_555 1_555
C3XB C1XB 1_555 1_555
C3J C1J 1_555 1_555
C3GB C1GB 1_555 1_555
C3A C1A 1_555 1_555
C3YB C1YB 1_555 1_555
C3I C1I 1_555 1_555
C3CC C1CC 1_555 1_555
C3X C1X 1_555 1_555
C3UB C1UB 1_555 1_555
C3E C1E 1_555 1_555
C3YA C2 1_555 1_555
C3WB C1WB 1_555 1_555
C3IA C1IA 1_555 1_555
C3EB C1EB 1_555 1_555
C3CA C1CA 1_555 1_555
C3WA C1WA 1_555 1_555
C3K C1K 1_555 1_555
C3ZA C1ZA 1_555 1_555
C3Z C1Z 1_555 1_555
C3VA C1VA 1_555 1_555
C3C C1C 1_555 1_555
C3CB C1CB 1_555 1_555
C3FA C1FA 1_555 1_555
C3HA C1HA 1_555 1_555
C3ZB C1ZB 1_555 1_555
C3GA C1GA 1_555 1_555
C3TB C1TB 1_555 1_555
C3XA C1XA 1_555 1_555
C3H C1H 1_555 1_555
C3BA C1BA 1_555 1_555
C3FB C1FB 1_555 1_555
C3BB C1BB 1_555 1_555
C3EA C1EA 1_555 1_555
C3D C1D 1_555 1_555
C3VB C1VB 1_555 1_555
C3AB C1AB 1_555 1_555
C3Y C1Y 1_555 1_555
C4G C3G 1_555 1_555
C4BC C3BC 1_555 1_555
C4I C3I 1_555 1_555
C4YB C3YB 1_555 1_555
C4YA C5 1_555 1_555
C4K C3K 1_555 1_555
C4WA C3WA 1_555 1_555
C4C C3C 1_555 1_555
C4VA C3VA 1_555 1_555
C4FA C3FA 1_555 1_555
C4CB C3CB 1_555 1_555
C4ZB C3ZB 1_555 1_555
C4HA C3HA 1_555 1_555
C4Z C3Z 1_555 1_555
C4ZA C3ZA 1_555 1_555
C4TB C3TB 1_555 1_555
C4GA C3GA 1_555 1_555
C4CA C3CA 1_555 1_555
C4EB C3EB 1_555 1_555
C4H C3H 1_555 1_555
C4XA C3XA 1_555 1_555
C4IA C3IA 1_555 1_555
C4WB C3WB 1_555 1_555
C4FB C3FB 1_555 1_555
C4BA C3BA 1_555 1_555
C4E C3E 1_555 1_555
C4UB C3UB 1_555 1_555
C4EA C3EA 1_555 1_555
C4BB C3BB 1_555 1_555
C4X C3X 1_555 1_555
C4CC C3CC 1_555 1_555
C4VB C3VB 1_555 1_555
C4D C3D 1_555 1_555
C4A C3A 1_555 1_555
C4GB C3GB 1_555 1_555
C4J C3J 1_555 1_555
C4XB C3XB 1_555 1_555
C4Y C3Y 1_555 1_555
C4AB C3AB 1_555 1_555
C4AA C3AA 1_555 1_555
C4EC C3EC 1_555 1_555
C4B C3B 1_555 1_555
C4DB C3DB 1_555 1_555
C4F C3F 1_555 1_555
C4AC C3AC 1_555 1_555
C4DA C3DA 1_555 1_555
C4DC C3DC 1_555 1_555
H2G C4G 1_555 1_555
H2BC C4BC 1_555 1_555
H2I C4I 1_555 1_555
H2YB C4YB 1_555 1_555
H2YA C4YA 1_555 1_555
H2K C4K 1_555 1_555
H2WA C4WA 1_555 1_555
H2C C4C 1_555 1_555
H2VA C4VA 1_555 1_555
H2FA C4FA 1_555 1_555
H2CB C4CB 1_555 1_555
H2ZB C4ZB 1_555 1_555
H2HA C4HA 1_555 1_555
H2Z C4Z 1_555 1_555
H2ZA C4ZA 1_555 1_555
H2TB C4TB 1_555 1_555
H2GA C4GA 1_555 1_555
H2CA C4CA 1_555 1_555
H2EB C4EB 1_555 1_555
H2H C4H 1_555 1_555
H2XA C4XA 1_555 1_555
H2IA C4IA 1_555 1_555
H2WB C4WB 1_555 1_555
H2FB C4FB 1_555 1_555
H2BA C4BA 1_555 1_555
H2E C4E 1_555 1_555
H2UB C4UB 1_555 1_555
H2EA C4EA 1_555 1_555
H2BB C4BB 1_555 1_555
H2X C4X 1_555 1_555
H2CC C4CC 1_555 1_555
H2VB C4VB 1_555 1_555
H2D C4D 1_555 1_555
H2A C4A 1_555 1_555
H2GB C4GB 1_555 1_555
H2J C4J 1_555 1_555
H2XB C4XB 1_555 1_555
H2Y C4Y 1_555 1_555
H2AB C4AB 1_555 1_555
H2AA C4AA 1_555 1_555
H2EC C4EC 1_555 1_555
H2B C4B 1_555 1_555
H2DB C4DB 1_555 1_555
H2F C4F 1_555 1_555
H2AC C4AC 1_555 1_555
H2DA C4DA 1_555 1_555
H2DC C4DC 1_555 1_555
C5G C4G 1_555 1_555
C5I C4I 1_555 1_555
C5K C4K 1_555 1_555
C5C C4C 1_555 1_555
C5CB C4FA 1_555 1_555
C5ZB C4ZB 1_555 1_555
C5ZA C4Z 1_555 1_555
C5TB C4TB 1_555 1_555
C5EB C4CA 1_555 1_555
C5H C4H 1_555 1_555
C5WB C4IA 1_555 1_555
C5FB C4FB 1_555 1_555
C5E C4E 1_555 1_555
C5BB C4EA 1_555 1_555
C5CC C4X 1_555 1_555
C5D C4VB 1_555 1_555
C5A C4A 1_555 1_555
C5J C4J 1_555 1_555
C5AB C4Y 1_555 1_555
C5EC C4AA 1_555 1_555
C5B C4B 1_555 1_555
C5F C4F 1_555 1_555
C5DC C4DA 1_555 1_555
Br1G C5G 1_555 1_555
Br1I C5I 1_555 1_555
Br1K C5K 1_555 1_555
Br1C C5C 1_555 1_555
Br1CB C5CB 1_555 1_555
Br1ZB C5ZB 1_555 1_555
Br1ZA C5ZA 1_555 1_555
Br1TB C5TB 1_555 1_555
Br1EB C5EB 1_555 1_555
Br1H C5H 1_555 1_555
Br1WB C5WB 1_555 1_555
Br1FB C5FB 1_555 1_555
Br1E C5E 1_555 1_555
Br1BB C5BB 1_555 1_555
Br1CC C5CC 1_555 1_555
Br1D C5D 1_555 1_555
Br1A C5A 1_555 1_555
Br1J C5J 1_555 1_555
Br1AB C5AB 1_555 1_555
Br1EC C5EC 1_555 1_555
Br1B C5B 1_555 1_555
Br1F C5F 1_555 1_555
Br1DC C5DC 1_555 1_555
O4 C1 1_555 1_555
C2 C3 1_555 1_555
O4G C1G 1_555 1_555
O4VB C1VB 1_555 1_555
O4DC C1DC 1_555 1_555
O4K C1K 1_555 1_555
O4DA C1DA 1_555 1_555
O4FB C1FB 1_555 1_555
O4AC C1AC 1_555 1_555
O4Y C1Y 1_555 1_555
O4F C1F 1_555 1_555
O4TB C1TB 1_555 1_555
O4DB C1DB 1_555 1_555
O4I C1I 1_555 1_555
O4B C1B 1_555 1_555
O4EC C1EC 1_555 1_555
O4BC C1BC 1_555 1_555
O4C C1C 1_555 1_555
O4AA C1AA 1_555 1_555
O4AB C1AB 1_555 1_555
O4XB C1XB 1_555 1_555
O4EA C1EA 1_555 1_555
O4J C1J 1_555 1_555
O4ZB C1ZB 1_555 1_555
O4GB C1GB 1_555 1_555
O4D C1D 1_555 1_555
O4A C1A 1_555 1_555
O4CC C1CC 1_555 1_555
O4YB C1YB 1_555 1_555
O4H C1H 1_555 1_555
O4X C1X 1_555 1_555
O4BB C1BB 1_555 1_555
O4UB C1UB 1_555 1_555
O4BA C1BA 1_555 1_555
O4E C1E 1_555 1_555
O4WB C1WB 1_555 1_555
O4YA C1YA 1_555 1_555
O4FA C1FA 1_555 1_555
O4IA C1IA 1_555 1_555
O4XA C1XA 1_555 1_555
O4EB C1EB 1_555 1_555
O4GA C1GA 1_555 1_555
O4CA C1CA 1_555 1_555
O4ZA C1ZA 1_555 1_555
O4WA C1WA 1_555 1_555
O4HA C1HA 1_555 1_555
O4Z C1Z 1_555 1_555
O4CB C1CB 1_555 1_555
O4VA C1VA 1_555 1_555
C1YA C3YA 1_555 1_555
C2DC C3DC 1_555 1_555
C2DC C3DA 1_555 1_555
C2F C3AC 1_555 1_555
C2F C3F 1_555 1_555
C2B C3DB 1_555 1_555
C2B C3B 1_555 1_555
C2G C3BC 1_555 1_555
C2G C3G 1_555 1_555
C2EC C3EC 1_555 1_555
C2EC C3AA 1_555 1_555
C2J C3XB 1_555 1_555
C2J C3J 1_555 1_555
C2A C3GB 1_555 1_555
C2A C3A 1_555 1_555
C2I C3YB 1_555 1_555
C2I C3I 1_555 1_555
C2CC C3CC 1_555 1_555
C2CC C3X 1_555 1_555
C2E C3UB 1_555 1_555
C2E C3E 1_555 1_555
C2WB C3WB 1_555 1_555
C2WB C3IA 1_555 1_555
C2EB C3EB 1_555 1_555
C2EB C3CA 1_555 1_555
C2K C3WA 1_555 1_555
C2K C3K 1_555 1_555
C2ZA C3ZA 1_555 1_555
C2ZA C3Z 1_555 1_555
C2C C3VA 1_555 1_555
C2C C3C 1_555 1_555
C2CB C3CB 1_555 1_555
C2CB C3FA 1_555 1_555
C2ZB C3HA 1_555 1_555
C2ZB C3ZB 1_555 1_555
C2TB C3GA 1_555 1_555
C2TB C3TB 1_555 1_555
C2H C3XA 1_555 1_555
C2H C3H 1_555 1_555
C2FB C3BA 1_555 1_555
C2FB C3FB 1_555 1_555
C2BB C3BB 1_555 1_555
C2BB C3EA 1_555 1_555
C2D C3D 1_555 1_555
C2D C3VB 1_555 1_555
C2AB C3AB 1_555 1_555
C2AB C3Y 1_555 1_555
C3YA C4YA 1_555 1_555
C4BC C5G 1_555 1_555
C4YB C5I 1_555 1_555
C4WA C5K 1_555 1_555
C4VA C5C 1_555 1_555
C4CB C5CB 1_555 1_555
C4HA C5ZB 1_555 1_555
C4ZA C5ZA 1_555 1_555
C4GA C5TB 1_555 1_555
C4EB C5EB 1_555 1_555
C4XA C5H 1_555 1_555
C4WB C5WB 1_555 1_555
C4BA C5FB 1_555 1_555
C4UB C5E 1_555 1_555
C4BB C5BB 1_555 1_555
C4CC C5CC 1_555 1_555
C4D C5D 1_555 1_555
C4GB C5A 1_555 1_555
C4XB C5J 1_555 1_555
C4AB C5AB 1_555 1_555
C4EC C5EC 1_555 1_555
C4DB C5B 1_555 1_555
C4AC C5F 1_555 1_555
C4DC C5DC 1_555 1_555

#END
