# generated using pymatgen
data_CuH6C14O5
_symmetry_space_group_name_H-M   'P 1'
_cell_length_a   38.38670000
_cell_length_b   38.38670000
_cell_length_c   52.21392829
_cell_angle_alpha   68.43289921
_cell_angle_beta   68.43289921
_cell_angle_gamma   60.00000000
_symmetry_Int_Tables_number   1
_chemical_formula_structural   CuH6C14O5
_chemical_formula_sum   'Cu48 H288 C672 O240'
_cell_volume   60331.21882989
_cell_formula_units_Z   48
loop_
 _symmetry_equiv_pos_site_id
 _symmetry_equiv_pos_as_xyz
  1  'x, y, z'
loop_
 _atom_site_type_symbol
 _atom_site_label
 _atom_site_symmetry_multiplicity
 _atom_site_fract_x
 _atom_site_fract_y
 _atom_site_fract_z
 _atom_site_occupancy
  C  C1  1  0.729730  0.838930  0.193110  1.0
  C  C2  1  0.238230  0.729730  0.193110  1.0
  C  C3  1  0.838930  0.238230  0.193110  1.0
  C  C4  1  0.261770  0.661070  0.306890  1.0
  C  C5  1  0.661070  0.770270  0.306890  1.0
  C  C6  1  0.770270  0.261770  0.306890  1.0
  C  C7  1  0.270270  0.161070  0.806890  1.0
  C  C8  1  0.761770  0.270270  0.806890  1.0
  C  C9  1  0.161070  0.761770  0.806890  1.0
  C  C10  1  0.738230  0.338930  0.693110  1.0
  C  C11  1  0.338930  0.229730  0.693110  1.0
  C  C12  1  0.229730  0.738230  0.693110  1.0
  C  C13  1  0.754210  0.834810  0.164370  1.0
  C  C14  1  0.246610  0.754210  0.164370  1.0
  C  C15  1  0.834810  0.246610  0.164370  1.0
  C  C16  1  0.253390  0.665190  0.335630  1.0
  C  C17  1  0.665190  0.745790  0.335630  1.0
  C  C18  1  0.745790  0.253390  0.335630  1.0
  C  C19  1  0.245790  0.165190  0.835630  1.0
  C  C20  1  0.753390  0.245790  0.835630  1.0
  C  C21  1  0.165190  0.753390  0.835630  1.0
  C  C22  1  0.746610  0.334810  0.664370  1.0
  C  C23  1  0.334810  0.254210  0.664370  1.0
  C  C24  1  0.254210  0.746610  0.664370  1.0
  C  C25  1  0.749920  0.809220  0.154740  1.0
  C  C26  1  0.286120  0.749920  0.154740  1.0
  C  C27  1  0.809220  0.286120  0.154740  1.0
  C  C28  1  0.213880  0.690780  0.345260  1.0
  C  C29  1  0.690780  0.750080  0.345260  1.0
  C  C30  1  0.750080  0.213880  0.345260  1.0
  C  C31  1  0.250080  0.190780  0.845260  1.0
  C  C32  1  0.713880  0.250080  0.845260  1.0
  C  C33  1  0.190780  0.713880  0.845260  1.0
  C  C34  1  0.786120  0.309220  0.654740  1.0
  C  C35  1  0.309220  0.249920  0.654740  1.0
  C  C36  1  0.249920  0.786120  0.654740  1.0
  C  C37  1  0.761280  0.793880  0.129060  1.0
  C  C38  1  0.315780  0.761280  0.129060  1.0
  C  C39  1  0.793880  0.315780  0.129060  1.0
  C  C40  1  0.184220  0.706120  0.370940  1.0
  C  C41  1  0.706120  0.738720  0.370940  1.0
  C  C42  1  0.738720  0.184220  0.370940  1.0
  C  C43  1  0.238720  0.206120  0.870940  1.0
  C  C44  1  0.684220  0.238720  0.870940  1.0
  C  C45  1  0.206120  0.684220  0.870940  1.0
  C  C46  1  0.815780  0.293880  0.629060  1.0
  C  C47  1  0.293880  0.261280  0.629060  1.0
  C  C48  1  0.261280  0.815780  0.629060  1.0
  C  C49  1  0.781650  0.793750  0.101250  1.0
  C  C50  1  0.323350  0.781650  0.101250  1.0
  C  C51  1  0.793750  0.323350  0.101250  1.0
  C  C52  1  0.176650  0.706250  0.398750  1.0
  C  C53  1  0.706250  0.718350  0.398750  1.0
  C  C54  1  0.718350  0.176650  0.398750  1.0
  C  C55  1  0.218350  0.206250  0.898750  1.0
  C  C56  1  0.676650  0.218350  0.898750  1.0
  C  C57  1  0.206250  0.676650  0.898750  1.0
  C  C58  1  0.823350  0.293750  0.601250  1.0
  C  C59  1  0.293750  0.281650  0.601250  1.0
  C  C60  1  0.281650  0.823350  0.601250  1.0
  C  C61  1  0.776250  0.770350  0.088050  1.0
  C  C62  1  0.365350  0.776250  0.088050  1.0
  C  C63  1  0.770350  0.365350  0.088050  1.0
  C  C64  1  0.134650  0.729650  0.411950  1.0
  C  C65  1  0.729650  0.723750  0.411950  1.0
  C  C66  1  0.723750  0.134650  0.411950  1.0
  C  C67  1  0.223750  0.229650  0.911950  1.0
  C  C68  1  0.634650  0.223750  0.911950  1.0
  C  C69  1  0.229650  0.634650  0.911950  1.0
  C  C70  1  0.865350  0.270350  0.588050  1.0
  C  C71  1  0.270350  0.276250  0.588050  1.0
  C  C72  1  0.276250  0.865350  0.588050  1.0
  C  C73  1  0.753130  0.748230  0.102810  1.0
  C  C74  1  0.395830  0.753130  0.102810  1.0
  C  C75  1  0.748230  0.395830  0.102810  1.0
  C  C76  1  0.104170  0.751770  0.397190  1.0
  C  C77  1  0.751770  0.746870  0.397190  1.0
  C  C78  1  0.746870  0.104170  0.397190  1.0
  C  C79  1  0.246870  0.251770  0.897190  1.0
  C  C80  1  0.604170  0.246870  0.897190  1.0
  C  C81  1  0.251770  0.604170  0.897190  1.0
  C  C82  1  0.895830  0.248230  0.602810  1.0
  C  C83  1  0.248230  0.253130  0.602810  1.0
  C  C84  1  0.253130  0.895830  0.602810  1.0
  C  C85  1  0.732850  0.747450  0.131250  1.0
  C  C86  1  0.388450  0.732850  0.131250  1.0
  C  C87  1  0.747450  0.388450  0.131250  1.0
  C  C88  1  0.111550  0.752550  0.368750  1.0
  C  C89  1  0.752550  0.767150  0.368750  1.0
  C  C90  1  0.767150  0.111550  0.368750  1.0
  C  C91  1  0.267150  0.252550  0.868750  1.0
  C  C92  1  0.611550  0.267150  0.868750  1.0
  C  C93  1  0.252550  0.611550  0.868750  1.0
  C  C94  1  0.888450  0.247450  0.631250  1.0
  C  C95  1  0.247450  0.232850  0.631250  1.0
  C  C96  1  0.232850  0.888450  0.631250  1.0
  C  C97  1  0.736870  0.771270  0.144090  1.0
  C  C98  1  0.347770  0.736870  0.144090  1.0
  C  C99  1  0.771270  0.347770  0.144090  1.0
  C  C100  1  0.152230  0.728730  0.355910  1.0
  C  C101  1  0.728730  0.763130  0.355910  1.0
  C  C102  1  0.763130  0.152230  0.355910  1.0
  C  C103  1  0.263130  0.228730  0.855910  1.0
  C  C104  1  0.652230  0.263130  0.855910  1.0
  C  C105  1  0.228730  0.652230  0.855910  1.0
  C  C106  1  0.847770  0.271270  0.644090  1.0
  C  C107  1  0.271270  0.236870  0.644090  1.0
  C  C108  1  0.236870  0.847770  0.644090  1.0
  C  C109  1  0.726490  0.788290  0.170130  1.0
  C  C110  1  0.315090  0.726490  0.170130  1.0
  C  C111  1  0.788290  0.315090  0.170130  1.0
  C  C112  1  0.184910  0.711710  0.329870  1.0
  C  C113  1  0.711710  0.773510  0.329870  1.0
  C  C114  1  0.773510  0.184910  0.329870  1.0
  C  C115  1  0.273510  0.211710  0.829870  1.0
  C  C116  1  0.684910  0.273510  0.829870  1.0
  C  C117  1  0.211710  0.684910  0.829870  1.0
  C  C118  1  0.815090  0.288290  0.670130  1.0
  C  C119  1  0.288290  0.226490  0.670130  1.0
  C  C120  1  0.226490  0.815090  0.670130  1.0
  C  C121  1  0.703590  0.791490  0.196230  1.0
  C  C122  1  0.308690  0.703590  0.196230  1.0
  C  C123  1  0.791490  0.308690  0.196230  1.0
  C  C124  1  0.191310  0.708510  0.303770  1.0
  C  C125  1  0.708510  0.796410  0.303770  1.0
  C  C126  1  0.796410  0.191310  0.303770  1.0
  C  C127  1  0.296410  0.208510  0.803770  1.0
  C  C128  1  0.691310  0.296410  0.803770  1.0
  C  C129  1  0.208510  0.691310  0.803770  1.0
  C  C130  1  0.808690  0.291490  0.696230  1.0
  C  C131  1  0.291490  0.203590  0.696230  1.0
  C  C132  1  0.203590  0.808690  0.696230  1.0
  C  C133  1  0.706190  0.816890  0.206730  1.0
  C  C134  1  0.270190  0.706190  0.206730  1.0
  C  C135  1  0.816890  0.270190  0.206730  1.0
  C  C136  1  0.229810  0.683110  0.293270  1.0
  C  C137  1  0.683110  0.793810  0.293270  1.0
  C  C138  1  0.793810  0.229810  0.293270  1.0
  C  C139  1  0.293810  0.183110  0.793270  1.0
  C  C140  1  0.729810  0.293810  0.793270  1.0
  C  C141  1  0.183110  0.729810  0.793270  1.0
  C  C142  1  0.770190  0.316890  0.706730  1.0
  C  C143  1  0.316890  0.206190  0.706730  1.0
  C  C144  1  0.206190  0.770190  0.706730  1.0
  C  C145  1  0.731040  0.867940  0.205380  1.0
  C  C146  1  0.195640  0.731040  0.205380  1.0
  C  C147  1  0.867940  0.195640  0.205380  1.0
  C  C148  1  0.304360  0.632060  0.294620  1.0
  C  C149  1  0.632060  0.768960  0.294620  1.0
  C  C150  1  0.768960  0.304360  0.294620  1.0
  C  C151  1  0.268960  0.132060  0.794620  1.0
  C  C152  1  0.804360  0.268960  0.794620  1.0
  C  C153  1  0.132060  0.804360  0.794620  1.0
  C  C154  1  0.695640  0.367940  0.705380  1.0
  C  C155  1  0.367940  0.231040  0.705380  1.0
  C  C156  1  0.231040  0.695640  0.705380  1.0
  C  C157  1  0.798330  0.770630  0.056010  1.0
  C  C158  1  0.375030  0.798330  0.056010  1.0
  C  C159  1  0.770630  0.375030  0.056010  1.0
  C  C160  1  0.124970  0.729370  0.443990  1.0
  C  C161  1  0.729370  0.701670  0.443990  1.0
  C  C162  1  0.701670  0.124970  0.443990  1.0
  C  C163  1  0.201670  0.229370  0.943990  1.0
  C  C164  1  0.624970  0.201670  0.943990  1.0
  C  C165  1  0.229370  0.624970  0.943990  1.0
  C  C166  1  0.875030  0.270630  0.556010  1.0
  C  C167  1  0.270630  0.298330  0.556010  1.0
  C  C168  1  0.298330  0.875030  0.556010  1.0
  C  C169  1  0.734730  0.992030  0.261210  1.0
  C  C170  1  0.012030  0.734730  0.261210  1.0
  C  C171  1  0.992030  0.012030  0.261210  1.0
  C  C172  1  0.487970  0.507970  0.238790  1.0
  C  C173  1  0.507970  0.765270  0.238790  1.0
  C  C174  1  0.765270  0.487970  0.238790  1.0
  C  C175  1  0.265270  0.007970  0.738790  1.0
  C  C176  1  0.987970  0.265270  0.738790  1.0
  C  C177  1  0.007970  0.987970  0.738790  1.0
  C  C178  1  0.512030  0.492030  0.761210  1.0
  C  C179  1  0.492030  0.234730  0.761210  1.0
  C  C180  1  0.234730  0.512030  0.761210  1.0
  C  C181  1  0.764980  0.009280  0.248760  1.0
  C  C182  1  0.976980  0.764980  0.248760  1.0
  C  C183  1  0.009280  0.976980  0.248760  1.0
  C  C184  1  0.523020  0.490720  0.251240  1.0
  C  C185  1  0.490720  0.735020  0.251240  1.0
  C  C186  1  0.735020  0.523020  0.251240  1.0
  C  C187  1  0.235020  0.990720  0.751240  1.0
  C  C188  1  0.023020  0.235020  0.751240  1.0
  C  C189  1  0.990720  0.023020  0.751240  1.0
  C  C190  1  0.476980  0.509280  0.748760  1.0
  C  C191  1  0.509280  0.264980  0.748760  1.0
  C  C192  1  0.264980  0.476980  0.748760  1.0
  C  C193  1  0.769640  0.030940  0.261480  1.0
  C  C194  1  0.937940  0.769640  0.261480  1.0
  C  C195  1  0.030940  0.937940  0.261480  1.0
  C  C196  1  0.562060  0.469060  0.238520  1.0
  C  C197  1  0.469060  0.730360  0.238520  1.0
  C  C198  1  0.730360  0.562060  0.238520  1.0
  C  C199  1  0.230360  0.969060  0.738520  1.0
  C  C200  1  0.062060  0.230360  0.738520  1.0
  C  C201  1  0.969060  0.062060  0.738520  1.0
  C  C202  1  0.437940  0.530940  0.761480  1.0
  C  C203  1  0.530940  0.269640  0.761480  1.0
  C  C204  1  0.269640  0.437940  0.761480  1.0
  C  C205  1  0.789590  0.053390  0.261330  1.0
  C  C206  1  0.895690  0.789590  0.261330  1.0
  C  C207  1  0.053390  0.895690  0.261330  1.0
  C  C208  1  0.604310  0.446610  0.238670  1.0
  C  C209  1  0.446610  0.710410  0.238670  1.0
  C  C210  1  0.710410  0.604310  0.238670  1.0
  C  C211  1  0.210410  0.946610  0.738670  1.0
  C  C212  1  0.104310  0.210410  0.738670  1.0
  C  C213  1  0.946610  0.104310  0.738670  1.0
  C  C214  1  0.395690  0.553390  0.761330  1.0
  C  C215  1  0.553390  0.289590  0.761330  1.0
  C  C216  1  0.289590  0.395690  0.761330  1.0
  C  C217  1  0.819080  0.067380  0.249660  1.0
  C  C218  1  0.863880  0.819080  0.249660  1.0
  C  C219  1  0.067380  0.863880  0.249660  1.0
  C  C220  1  0.636120  0.432620  0.250340  1.0
  C  C221  1  0.432620  0.680920  0.250340  1.0
  C  C222  1  0.680920  0.636120  0.250340  1.0
  C  C223  1  0.180920  0.932620  0.750340  1.0
  C  C224  1  0.136120  0.180920  0.750340  1.0
  C  C225  1  0.932620  0.136120  0.750340  1.0
  C  C226  1  0.363880  0.567380  0.749660  1.0
  C  C227  1  0.567380  0.319080  0.749660  1.0
  C  C228  1  0.319080  0.363880  0.749660  1.0
  C  C229  1  0.825740  0.087740  0.262680  1.0
  C  C230  1  0.823840  0.825740  0.262680  1.0
  C  C231  1  0.087740  0.823840  0.262680  1.0
  C  C232  1  0.676160  0.412260  0.237320  1.0
  C  C233  1  0.412260  0.674260  0.237320  1.0
  C  C234  1  0.674260  0.676160  0.237320  1.0
  C  C235  1  0.174260  0.912260  0.737320  1.0
  C  C236  1  0.176160  0.174260  0.737320  1.0
  C  C237  1  0.912260  0.176160  0.737320  1.0
  C  C238  1  0.323840  0.587740  0.762680  1.0
  C  C239  1  0.587740  0.325740  0.762680  1.0
  C  C240  1  0.325740  0.323840  0.762680  1.0
  C  C241  1  0.800540  0.093440  0.291180  1.0
  C  C242  1  0.814840  0.800540  0.291180  1.0
  C  C243  1  0.093440  0.814840  0.291180  1.0
  C  C244  1  0.685160  0.406560  0.208820  1.0
  C  C245  1  0.406560  0.699460  0.208820  1.0
  C  C246  1  0.699460  0.685160  0.208820  1.0
  C  C247  1  0.199460  0.906560  0.708820  1.0
  C  C248  1  0.185160  0.199460  0.708820  1.0
  C  C249  1  0.906560  0.185160  0.708820  1.0
  C  C250  1  0.314840  0.593440  0.791180  1.0
  C  C251  1  0.593440  0.300540  0.791180  1.0
  C  C252  1  0.300540  0.314840  0.791180  1.0
  C  C253  1  0.768670  0.079570  0.304890  1.0
  C  C254  1  0.846870  0.768670  0.304890  1.0
  C  C255  1  0.079570  0.846870  0.304890  1.0
  C  C256  1  0.653130  0.420430  0.195110  1.0
  C  C257  1  0.420430  0.731330  0.195110  1.0
  C  C258  1  0.731330  0.653130  0.195110  1.0
  C  C259  1  0.231330  0.920430  0.695110  1.0
  C  C260  1  0.153130  0.231330  0.695110  1.0
  C  C261  1  0.920430  0.153130  0.695110  1.0
  C  C262  1  0.346870  0.579570  0.804890  1.0
  C  C263  1  0.579570  0.268670  0.804890  1.0
  C  C264  1  0.268670  0.346870  0.804890  1.0
  C  C265  1  0.763590  0.061990  0.290730  1.0
  C  C266  1  0.883690  0.763590  0.290730  1.0
  C  C267  1  0.061990  0.883690  0.290730  1.0
  C  C268  1  0.616310  0.438010  0.209270  1.0
  C  C269  1  0.438010  0.736410  0.209270  1.0
  C  C270  1  0.736410  0.616310  0.209270  1.0
  C  C271  1  0.236410  0.938010  0.709270  1.0
  C  C272  1  0.116310  0.236410  0.709270  1.0
  C  C273  1  0.938010  0.116310  0.709270  1.0
  C  C274  1  0.383690  0.561990  0.790730  1.0
  C  C275  1  0.561990  0.263590  0.790730  1.0
  C  C276  1  0.263590  0.383690  0.790730  1.0
  C  C277  1  0.741190  0.038690  0.288930  1.0
  C  C278  1  0.931190  0.741190  0.288930  1.0
  C  C279  1  0.038690  0.931190  0.288930  1.0
  C  C280  1  0.568810  0.461310  0.211070  1.0
  C  C281  1  0.461310  0.758810  0.211070  1.0
  C  C282  1  0.758810  0.568810  0.211070  1.0
  C  C283  1  0.258810  0.961310  0.711070  1.0
  C  C284  1  0.068810  0.258810  0.711070  1.0
  C  C285  1  0.961310  0.068810  0.711070  1.0
  C  C286  1  0.431190  0.538690  0.788930  1.0
  C  C287  1  0.538690  0.241190  0.788930  1.0
  C  C288  1  0.241190  0.431190  0.788930  1.0
  C  C289  1  0.713700  0.020100  0.301200  1.0
  C  C290  1  0.965000  0.713700  0.301200  1.0
  C  C291  1  0.020100  0.965000  0.301200  1.0
  C  C292  1  0.535000  0.479900  0.198800  1.0
  C  C293  1  0.479900  0.786300  0.198800  1.0
  C  C294  1  0.786300  0.535000  0.198800  1.0
  C  C295  1  0.286300  0.979900  0.698800  1.0
  C  C296  1  0.035000  0.286300  0.698800  1.0
  C  C297  1  0.979900  0.035000  0.698800  1.0
  C  C298  1  0.465000  0.520100  0.801200  1.0
  C  C299  1  0.520100  0.213700  0.801200  1.0
  C  C300  1  0.213700  0.465000  0.801200  1.0
  C  C301  1  0.710130  0.998230  0.288210  1.0
  C  C302  1  0.003430  0.710130  0.288210  1.0
  C  C303  1  0.998230  0.003430  0.288210  1.0
  C  C304  1  0.496570  0.501770  0.211790  1.0
  C  C305  1  0.501770  0.789870  0.211790  1.0
  C  C306  1  0.789870  0.496570  0.211790  1.0
  C  C307  1  0.289870  0.001770  0.711790  1.0
  C  C308  1  0.996570  0.289870  0.711790  1.0
  C  C309  1  0.001770  0.996570  0.711790  1.0
  C  C310  1  0.503430  0.498230  0.788210  1.0
  C  C311  1  0.498230  0.210130  0.788210  1.0
  C  C312  1  0.210130  0.503430  0.788210  1.0
  C  C313  1  0.731050  0.964350  0.248550  1.0
  C  C314  1  0.056050  0.731050  0.248550  1.0
  C  C315  1  0.964350  0.056050  0.248550  1.0
  C  C316  1  0.443950  0.535650  0.251450  1.0
  C  C317  1  0.535650  0.768950  0.251450  1.0
  C  C318  1  0.768950  0.443950  0.251450  1.0
  C  C319  1  0.268950  0.035650  0.751450  1.0
  C  C320  1  0.943950  0.268950  0.751450  1.0
  C  C321  1  0.035650  0.943950  0.751450  1.0
  C  C322  1  0.556050  0.464350  0.748550  1.0
  C  C323  1  0.464350  0.231050  0.748550  1.0
  C  C324  1  0.231050  0.556050  0.748550  1.0
  C  C325  1  0.789300  0.857800  0.251100  1.0
  C  C326  1  0.101800  0.789300  0.251100  1.0
  C  C327  1  0.857800  0.101800  0.251100  1.0
  C  C328  1  0.398200  0.642200  0.248900  1.0
  C  C329  1  0.642200  0.710700  0.248900  1.0
  C  C330  1  0.710700  0.398200  0.248900  1.0
  C  C331  1  0.210700  0.142200  0.748900  1.0
  C  C332  1  0.898200  0.210700  0.748900  1.0
  C  C333  1  0.142200  0.898200  0.748900  1.0
  C  C334  1  0.601800  0.357800  0.751100  1.0
  C  C335  1  0.357800  0.289300  0.751100  1.0
  C  C336  1  0.289300  0.601800  0.751100  1.0
  C  C337  1  0.049790  0.625290  0.011130  1.0
  C  C338  1  0.313790  0.049790  0.011130  1.0
  C  C339  1  0.625290  0.313790  0.011130  1.0
  C  C340  1  0.186210  0.874710  0.488870  1.0
  C  C341  1  0.874710  0.450210  0.488870  1.0
  C  C342  1  0.450210  0.186210  0.488870  1.0
  C  C343  1  0.950210  0.374710  0.988870  1.0
  C  C344  1  0.686210  0.950210  0.988870  1.0
  C  C345  1  0.374710  0.686210  0.988870  1.0
  C  C346  1  0.813790  0.125290  0.511130  1.0
  C  C347  1  0.125290  0.549790  0.511130  1.0
  C  C348  1  0.549790  0.813790  0.511130  1.0
  C  C349  1  0.084190  0.629590  0.008130  1.0
  C  C350  1  0.278090  0.084190  0.008130  1.0
  C  C351  1  0.629590  0.278090  0.008130  1.0
  C  C352  1  0.221910  0.870410  0.491870  1.0
  C  C353  1  0.870410  0.415810  0.491870  1.0
  C  C354  1  0.415810  0.221910  0.491870  1.0
  C  C355  1  0.915810  0.370410  0.991870  1.0
  C  C356  1  0.721910  0.915810  0.991870  1.0
  C  C357  1  0.370410  0.721910  0.991870  1.0
  C  C358  1  0.778090  0.129590  0.508130  1.0
  C  C359  1  0.129590  0.584190  0.508130  1.0
  C  C360  1  0.584190  0.778090  0.508130  1.0
  C  C361  1  0.120670  0.599670  0.006990  1.0
  C  C362  1  0.272670  0.120670  0.006990  1.0
  C  C363  1  0.599670  0.272670  0.006990  1.0
  C  C364  1  0.227330  0.900330  0.493010  1.0
  C  C365  1  0.900330  0.379330  0.493010  1.0
  C  C366  1  0.379330  0.227330  0.493010  1.0
  C  C367  1  0.879330  0.400330  0.993010  1.0
  C  C368  1  0.727330  0.879330  0.993010  1.0
  C  C369  1  0.400330  0.727330  0.993010  1.0
  C  C370  1  0.772670  0.099670  0.506990  1.0
  C  C371  1  0.099670  0.620670  0.506990  1.0
  C  C372  1  0.620670  0.772670  0.506990  1.0
  C  C373  1  0.123110  0.559210  0.009570  1.0
  C  C374  1  0.308110  0.123110  0.009570  1.0
  C  C375  1  0.559210  0.308110  0.009570  1.0
  C  C376  1  0.191890  0.940790  0.490430  1.0
  C  C377  1  0.940790  0.376890  0.490430  1.0
  C  C378  1  0.376890  0.191890  0.490430  1.0
  C  C379  1  0.876890  0.440790  0.990430  1.0
  C  C380  1  0.691890  0.876890  0.990430  1.0
  C  C381  1  0.440790  0.691890  0.990430  1.0
  C  C382  1  0.808110  0.059210  0.509570  1.0
  C  C383  1  0.059210  0.623110  0.509570  1.0
  C  C384  1  0.623110  0.808110  0.509570  1.0
  C  C385  1  0.081260  0.558160  0.013920  1.0
  C  C386  1  0.346660  0.081260  0.013920  1.0
  C  C387  1  0.558160  0.346660  0.013920  1.0
  C  C388  1  0.153340  0.941840  0.486080  1.0
  C  C389  1  0.941840  0.418740  0.486080  1.0
  C  C390  1  0.418740  0.153340  0.486080  1.0
  C  C391  1  0.918740  0.441840  0.986080  1.0
  C  C392  1  0.653340  0.918740  0.986080  1.0
  C  C393  1  0.441840  0.653340  0.986080  1.0
  C  C394  1  0.846660  0.058160  0.513920  1.0
  C  C395  1  0.058160  0.581260  0.513920  1.0
  C  C396  1  0.581260  0.846660  0.513920  1.0
  C  C397  1  0.035780  0.589480  0.016560  1.0
  C  C398  1  0.358180  0.035780  0.016560  1.0
  C  C399  1  0.589480  0.358180  0.016560  1.0
  C  C400  1  0.141820  0.910520  0.483440  1.0
  C  C401  1  0.910520  0.464220  0.483440  1.0
  C  C402  1  0.464220  0.141820  0.483440  1.0
  C  C403  1  0.964220  0.410520  0.983440  1.0
  C  C404  1  0.641820  0.964220  0.983440  1.0
  C  C405  1  0.410520  0.641820  0.983440  1.0
  C  C406  1  0.858180  0.089480  0.516560  1.0
  C  C407  1  0.089480  0.535780  0.516560  1.0
  C  C408  1  0.535780  0.858180  0.516560  1.0
  C  C409  1  0.996130  0.606930  0.016710  1.0
  C  C410  1  0.380230  0.996130  0.016710  1.0
  C  C411  1  0.606930  0.380230  0.016710  1.0
  C  C412  1  0.119770  0.893070  0.483290  1.0
  C  C413  1  0.893070  0.503870  0.483290  1.0
  C  C414  1  0.503870  0.119770  0.483290  1.0
  C  C415  1  0.003870  0.393070  0.983290  1.0
  C  C416  1  0.619770  0.003870  0.983290  1.0
  C  C417  1  0.393070  0.619770  0.983290  1.0
  C  C418  1  0.880230  0.106930  0.516710  1.0
  C  C419  1  0.106930  0.496130  0.516710  1.0
  C  C420  1  0.496130  0.880230  0.516710  1.0
  C  C421  1  0.964770  0.606270  0.014190  1.0
  C  C422  1  0.414770  0.964770  0.014190  1.0
  C  C423  1  0.606270  0.414770  0.014190  1.0
  C  C424  1  0.085230  0.893730  0.485810  1.0
  C  C425  1  0.893730  0.535230  0.485810  1.0
  C  C426  1  0.535230  0.085230  0.485810  1.0
  C  C427  1  0.035230  0.393730  0.985810  1.0
  C  C428  1  0.585230  0.035230  0.985810  1.0
  C  C429  1  0.393730  0.585230  0.985810  1.0
  C  C430  1  0.914770  0.106270  0.514190  1.0
  C  C431  1  0.106270  0.464770  0.514190  1.0
  C  C432  1  0.464770  0.914770  0.514190  1.0
  C  C433  1  0.931450  0.638750  0.016050  1.0
  C  C434  1  0.413750  0.931450  0.016050  1.0
  C  C435  1  0.638750  0.413750  0.016050  1.0
  C  C436  1  0.086250  0.861250  0.483950  1.0
  C  C437  1  0.861250  0.568550  0.483950  1.0
  C  C438  1  0.568550  0.086250  0.483950  1.0
  C  C439  1  0.068550  0.361250  0.983950  1.0
  C  C440  1  0.586250  0.068550  0.983950  1.0
  C  C441  1  0.361250  0.586250  0.983950  1.0
  C  C442  1  0.913750  0.138750  0.516050  1.0
  C  C443  1  0.138750  0.431450  0.516050  1.0
  C  C444  1  0.431450  0.913750  0.516050  1.0
  C  C445  1  0.929610  0.675510  0.013770  1.0
  C  C446  1  0.381110  0.929610  0.013770  1.0
  C  C447  1  0.675510  0.381110  0.013770  1.0
  C  C448  1  0.118890  0.824490  0.486230  1.0
  C  C449  1  0.824490  0.570390  0.486230  1.0
  C  C450  1  0.570390  0.118890  0.486230  1.0
  C  C451  1  0.070390  0.324490  0.986230  1.0
  C  C452  1  0.618890  0.070390  0.986230  1.0
  C  C453  1  0.324490  0.618890  0.986230  1.0
  C  C454  1  0.881110  0.175510  0.513770  1.0
  C  C455  1  0.175510  0.429610  0.513770  1.0
  C  C456  1  0.429610  0.881110  0.513770  1.0
  C  C457  1  0.966890  0.677190  0.012330  1.0
  C  C458  1  0.343590  0.966890  0.012330  1.0
  C  C459  1  0.677190  0.343590  0.012330  1.0
  C  C460  1  0.156410  0.822810  0.487670  1.0
  C  C461  1  0.822810  0.533110  0.487670  1.0
  C  C462  1  0.533110  0.156410  0.487670  1.0
  C  C463  1  0.033110  0.322810  0.987670  1.0
  C  C464  1  0.656410  0.033110  0.987670  1.0
  C  C465  1  0.322810  0.656410  0.987670  1.0
  C  C466  1  0.843590  0.177190  0.512330  1.0
  C  C467  1  0.177190  0.466890  0.512330  1.0
  C  C468  1  0.466890  0.843590  0.512330  1.0
  C  C469  1  0.003940  0.642640  0.013380  1.0
  C  C470  1  0.340040  0.003940  0.013380  1.0
  C  C471  1  0.642640  0.340040  0.013380  1.0
  C  C472  1  0.159960  0.857360  0.486620  1.0
  C  C473  1  0.857360  0.496060  0.486620  1.0
  C  C474  1  0.496060  0.159960  0.486620  1.0
  C  C475  1  0.996060  0.357360  0.986620  1.0
  C  C476  1  0.659960  0.996060  0.986620  1.0
  C  C477  1  0.357360  0.659960  0.986620  1.0
  C  C478  1  0.840040  0.142640  0.513380  1.0
  C  C479  1  0.142640  0.503940  0.513380  1.0
  C  C480  1  0.503940  0.840040  0.513380  1.0
  C  C481  1  0.890190  0.709090  0.012030  1.0
  C  C482  1  0.388690  0.890190  0.012030  1.0
  C  C483  1  0.709090  0.388690  0.012030  1.0
  C  C484  1  0.111310  0.790910  0.487970  1.0
  C  C485  1  0.790910  0.609810  0.487970  1.0
  C  C486  1  0.609810  0.111310  0.487970  1.0
  C  C487  1  0.109810  0.290910  0.987970  1.0
  C  C488  1  0.611310  0.109810  0.987970  1.0
  C  C489  1  0.290910  0.611310  0.987970  1.0
  C  C490  1  0.888690  0.209090  0.512030  1.0
  C  C491  1  0.209090  0.390190  0.512030  1.0
  C  C492  1  0.390190  0.888690  0.512030  1.0
  C  C493  1  0.760850  0.843150  0.996850  1.0
  C  C494  1  0.399150  0.760850  0.996850  1.0
  C  C495  1  0.843150  0.399150  0.996850  1.0
  C  C496  1  0.100850  0.656850  0.503150  1.0
  C  C497  1  0.656850  0.739150  0.503150  1.0
  C  C498  1  0.739150  0.100850  0.503150  1.0
  C  C499  1  0.239150  0.156850  0.003150  1.0
  C  C500  1  0.600850  0.239150  0.003150  1.0
  C  C501  1  0.156850  0.600850  0.003150  1.0
  C  C502  1  0.899150  0.343150  0.496850  1.0
  C  C503  1  0.343150  0.260850  0.496850  1.0
  C  C504  1  0.260850  0.899150  0.496850  1.0
  C  C505  1  0.871540  0.789040  0.921280  1.0
  C  C506  1  0.418140  0.871540  0.921280  1.0
  C  C507  1  0.789040  0.418140  0.921280  1.0
  C  C508  1  0.081860  0.710960  0.578720  1.0
  C  C509  1  0.710960  0.628460  0.578720  1.0
  C  C510  1  0.628460  0.081860  0.578720  1.0
  C  C511  1  0.128460  0.210960  0.078720  1.0
  C  C512  1  0.581860  0.128460  0.078720  1.0
  C  C513  1  0.210960  0.581860  0.078720  1.0
  C  C514  1  0.918140  0.289040  0.421280  1.0
  C  C515  1  0.289040  0.371540  0.421280  1.0
  C  C516  1  0.371540  0.918140  0.421280  1.0
  C  C517  1  0.900620  0.805420  0.909040  1.0
  C  C518  1  0.384920  0.900620  0.909040  1.0
  C  C519  1  0.805420  0.384920  0.909040  1.0
  C  C520  1  0.115080  0.694580  0.590960  1.0
  C  C521  1  0.694580  0.599380  0.590960  1.0
  C  C522  1  0.599380  0.115080  0.590960  1.0
  C  C523  1  0.099380  0.194580  0.090960  1.0
  C  C524  1  0.615080  0.099380  0.090960  1.0
  C  C525  1  0.194580  0.615080  0.090960  1.0
  C  C526  1  0.884920  0.305420  0.409040  1.0
  C  C527  1  0.305420  0.400620  0.409040  1.0
  C  C528  1  0.400620  0.884920  0.409040  1.0
  C  C529  1  0.917810  0.806910  0.881170  1.0
  C  C530  1  0.394110  0.917810  0.881170  1.0
  C  C531  1  0.806910  0.394110  0.881170  1.0
  C  C532  1  0.105890  0.693090  0.618830  1.0
  C  C533  1  0.693090  0.582190  0.618830  1.0
  C  C534  1  0.582190  0.105890  0.618830  1.0
  C  C535  1  0.082190  0.193090  0.118830  1.0
  C  C536  1  0.605890  0.082190  0.118830  1.0
  C  C537  1  0.193090  0.605890  0.118830  1.0
  C  C538  1  0.894110  0.306910  0.381170  1.0
  C  C539  1  0.306910  0.417810  0.381170  1.0
  C  C540  1  0.417810  0.894110  0.381170  1.0
  C  C541  1  0.947000  0.818600  0.853300  1.0
  C  C542  1  0.381100  0.947000  0.853300  1.0
  C  C543  1  0.818600  0.381100  0.853300  1.0
  C  C544  1  0.118900  0.681400  0.646700  1.0
  C  C545  1  0.681400  0.553000  0.646700  1.0
  C  C546  1  0.553000  0.118900  0.646700  1.0
  C  C547  1  0.053000  0.181400  0.146700  1.0
  C  C548  1  0.618900  0.053000  0.146700  1.0
  C  C549  1  0.181400  0.618900  0.146700  1.0
  C  C550  1  0.881100  0.318600  0.353300  1.0
  C  C551  1  0.318600  0.447000  0.353300  1.0
  C  C552  1  0.447000  0.881100  0.353300  1.0
  C  C553  1  0.972430  0.836930  0.841810  1.0
  C  C554  1  0.348830  0.972430  0.841810  1.0
  C  C555  1  0.836930  0.348830  0.841810  1.0
  C  C556  1  0.151170  0.663070  0.658190  1.0
  C  C557  1  0.663070  0.527570  0.658190  1.0
  C  C558  1  0.527570  0.151170  0.658190  1.0
  C  C559  1  0.027570  0.163070  0.158190  1.0
  C  C560  1  0.651170  0.027570  0.158190  1.0
  C  C561  1  0.163070  0.651170  0.158190  1.0
  C  C562  1  0.848830  0.336930  0.341810  1.0
  C  C563  1  0.336930  0.472430  0.341810  1.0
  C  C564  1  0.472430  0.848830  0.341810  1.0
  C  C565  1  0.989920  0.836020  0.811240  1.0
  C  C566  1  0.362820  0.989920  0.811240  1.0
  C  C567  1  0.836020  0.362820  0.811240  1.0
  C  C568  1  0.137180  0.663980  0.688760  1.0
  C  C569  1  0.663980  0.510080  0.688760  1.0
  C  C570  1  0.510080  0.137180  0.688760  1.0
  C  C571  1  0.010080  0.163980  0.188760  1.0
  C  C572  1  0.637180  0.010080  0.188760  1.0
  C  C573  1  0.163980  0.637180  0.188760  1.0
  C  C574  1  0.862820  0.336020  0.311240  1.0
  C  C575  1  0.336020  0.489920  0.311240  1.0
  C  C576  1  0.489920  0.862820  0.311240  1.0
  C  C577  1  0.980770  0.819370  0.797290  1.0
  C  C578  1  0.402570  0.980770  0.797290  1.0
  C  C579  1  0.819370  0.402570  0.797290  1.0
  C  C580  1  0.097430  0.680630  0.702710  1.0
  C  C581  1  0.680630  0.519230  0.702710  1.0
  C  C582  1  0.519230  0.097430  0.702710  1.0
  C  C583  1  0.019230  0.180630  0.202710  1.0
  C  C584  1  0.597430  0.019230  0.202710  1.0
  C  C585  1  0.180630  0.597430  0.202710  1.0
  C  C586  1  0.902570  0.319370  0.297290  1.0
  C  C587  1  0.319370  0.480770  0.297290  1.0
  C  C588  1  0.480770  0.902570  0.297290  1.0
  C  C589  1  0.953050  0.800950  0.811150  1.0
  C  C590  1  0.434850  0.953050  0.811150  1.0
  C  C591  1  0.800950  0.434850  0.811150  1.0
  C  C592  1  0.065150  0.699050  0.688850  1.0
  C  C593  1  0.699050  0.546950  0.688850  1.0
  C  C594  1  0.546950  0.065150  0.688850  1.0
  C  C595  1  0.046950  0.199050  0.188850  1.0
  C  C596  1  0.565150  0.046950  0.188850  1.0
  C  C597  1  0.199050  0.565150  0.188850  1.0
  C  C598  1  0.934850  0.300950  0.311150  1.0
  C  C599  1  0.300950  0.453050  0.311150  1.0
  C  C600  1  0.453050  0.934850  0.311150  1.0
  C  C601  1  0.936190  0.800690  0.839230  1.0
  C  C602  1  0.423890  0.936190  0.839230  1.0
  C  C603  1  0.800690  0.423890  0.839230  1.0
  C  C604  1  0.076110  0.699310  0.660770  1.0
  C  C605  1  0.699310  0.563810  0.660770  1.0
  C  C606  1  0.563810  0.076110  0.660770  1.0
  C  C607  1  0.063810  0.199310  0.160770  1.0
  C  C608  1  0.576110  0.063810  0.160770  1.0
  C  C609  1  0.199310  0.576110  0.160770  1.0
  C  C610  1  0.923890  0.300690  0.339230  1.0
  C  C611  1  0.300690  0.436190  0.339230  1.0
  C  C612  1  0.436190  0.923890  0.339230  1.0
  C  C613  1  0.908020  0.791520  0.864640  1.0
  C  C614  1  0.435820  0.908020  0.864640  1.0
  C  C615  1  0.791520  0.435820  0.864640  1.0
  C  C616  1  0.064180  0.708480  0.635360  1.0
  C  C617  1  0.708480  0.591980  0.635360  1.0
  C  C618  1  0.591980  0.064180  0.635360  1.0
  C  C619  1  0.091980  0.208480  0.135360  1.0
  C  C620  1  0.564180  0.091980  0.135360  1.0
  C  C621  1  0.208480  0.564180  0.135360  1.0
  C  C622  1  0.935820  0.291520  0.364640  1.0
  C  C623  1  0.291520  0.408020  0.364640  1.0
  C  C624  1  0.408020  0.935820  0.364640  1.0
  C  C625  1  0.880730  0.773630  0.876610  1.0
  C  C626  1  0.469030  0.880730  0.876610  1.0
  C  C627  1  0.773630  0.469030  0.876610  1.0
  C  C628  1  0.030970  0.726370  0.623390  1.0
  C  C629  1  0.726370  0.619270  0.623390  1.0
  C  C630  1  0.619270  0.030970  0.623390  1.0
  C  C631  1  0.119270  0.226370  0.123390  1.0
  C  C632  1  0.530970  0.119270  0.123390  1.0
  C  C633  1  0.226370  0.530970  0.123390  1.0
  C  C634  1  0.969030  0.273630  0.376610  1.0
  C  C635  1  0.273630  0.380730  0.376610  1.0
  C  C636  1  0.380730  0.969030  0.376610  1.0
  C  C637  1  0.862600  0.772100  0.906400  1.0
  C  C638  1  0.458900  0.862600  0.906400  1.0
  C  C639  1  0.772100  0.458900  0.906400  1.0
  C  C640  1  0.041100  0.727900  0.593600  1.0
  C  C641  1  0.727900  0.637400  0.593600  1.0
  C  C642  1  0.637400  0.041100  0.593600  1.0
  C  C643  1  0.137400  0.227900  0.093600  1.0
  C  C644  1  0.541100  0.137400  0.093600  1.0
  C  C645  1  0.227900  0.541100  0.093600  1.0
  C  C646  1  0.958900  0.272100  0.406400  1.0
  C  C647  1  0.272100  0.362600  0.406400  1.0
  C  C648  1  0.362600  0.958900  0.406400  1.0
  C  C649  1  0.851530  0.784530  0.952510  1.0
  C  C650  1  0.411430  0.851530  0.952510  1.0
  C  C651  1  0.784530  0.411430  0.952510  1.0
  C  C652  1  0.088570  0.715470  0.547490  1.0
  C  C653  1  0.715470  0.648470  0.547490  1.0
  C  C654  1  0.648470  0.088570  0.547490  1.0
  C  C655  1  0.148470  0.215470  0.047490  1.0
  C  C656  1  0.588570  0.148470  0.047490  1.0
  C  C657  1  0.215470  0.588570  0.047490  1.0
  C  C658  1  0.911430  0.284530  0.452510  1.0
  C  C659  1  0.284530  0.351530  0.452510  1.0
  C  C660  1  0.351530  0.911430  0.452510  1.0
  C  C661  1  0.674510  0.977410  0.200670  1.0
  C  C662  1  0.147410  0.674510  0.200670  1.0
  C  C663  1  0.977410  0.147410  0.200670  1.0
  C  C664  1  0.352590  0.522590  0.299330  1.0
  C  C665  1  0.522590  0.825490  0.299330  1.0
  C  C666  1  0.825490  0.352590  0.299330  1.0
  C  C667  1  0.325490  0.022590  0.799330  1.0
  C  C668  1  0.852590  0.325490  0.799330  1.0
  C  C669  1  0.022590  0.852590  0.799330  1.0
  C  C670  1  0.647410  0.477410  0.700670  1.0
  C  C671  1  0.477410  0.174510  0.700670  1.0
  C  C672  1  0.174510  0.647410  0.700670  1.0
  Cu  Cu673  1  0.703388  0.909648  0.249606  1.0
  Cu  Cu674  1  0.137358  0.703388  0.249606  1.0
  Cu  Cu675  1  0.909648  0.137358  0.249606  1.0
  Cu  Cu676  1  0.362642  0.590352  0.250394  1.0
  Cu  Cu677  1  0.590352  0.796612  0.250394  1.0
  Cu  Cu678  1  0.796612  0.362642  0.250394  1.0
  Cu  Cu679  1  0.296612  0.090352  0.750394  1.0
  Cu  Cu680  1  0.862642  0.296612  0.750394  1.0
  Cu  Cu681  1  0.090352  0.862642  0.750394  1.0
  Cu  Cu682  1  0.637358  0.409648  0.749606  1.0
  Cu  Cu683  1  0.409648  0.203388  0.749606  1.0
  Cu  Cu684  1  0.203388  0.637358  0.749606  1.0
  Cu  Cu685  1  0.758461  0.925461  0.204177  1.0
  Cu  Cu686  1  0.111901  0.758461  0.204177  1.0
  Cu  Cu687  1  0.925461  0.111901  0.204177  1.0
  Cu  Cu688  1  0.388099  0.574539  0.295823  1.0
  Cu  Cu689  1  0.574539  0.741539  0.295823  1.0
  Cu  Cu690  1  0.741539  0.388099  0.295823  1.0
  Cu  Cu691  1  0.241539  0.074539  0.795823  1.0
  Cu  Cu692  1  0.888099  0.241539  0.795823  1.0
  Cu  Cu693  1  0.074539  0.888099  0.795823  1.0
  Cu  Cu694  1  0.611901  0.425461  0.704177  1.0
  Cu  Cu695  1  0.425461  0.258461  0.704177  1.0
  Cu  Cu696  1  0.258461  0.611901  0.704177  1.0
  Cu  Cu697  1  0.807604  0.755584  0.005148  1.0
  Cu  Cu698  1  0.431664  0.807604  0.005148  1.0
  Cu  Cu699  1  0.755584  0.431664  0.005148  1.0
  Cu  Cu700  1  0.068336  0.744416  0.494852  1.0
  Cu  Cu701  1  0.744416  0.692396  0.494852  1.0
  Cu  Cu702  1  0.692396  0.068336  0.494852  1.0
  Cu  Cu703  1  0.192396  0.244416  0.994852  1.0
  Cu  Cu704  1  0.568336  0.192396  0.994852  1.0
  Cu  Cu705  1  0.244416  0.568336  0.994852  1.0
  Cu  Cu706  1  0.931664  0.255584  0.505148  1.0
  Cu  Cu707  1  0.255584  0.307604  0.505148  1.0
  Cu  Cu708  1  0.307604  0.931664  0.505148  1.0
  Cu  Cu709  1  0.842845  0.800335  0.004575  1.0
  Cu  Cu710  1  0.352245  0.842845  0.004575  1.0
  Cu  Cu711  1  0.800335  0.352245  0.004575  1.0
  Cu  Cu712  1  0.147755  0.699665  0.495425  1.0
  Cu  Cu713  1  0.699665  0.657155  0.495425  1.0
  Cu  Cu714  1  0.657155  0.147755  0.495425  1.0
  Cu  Cu715  1  0.157155  0.199665  0.995425  1.0
  Cu  Cu716  1  0.647755  0.157155  0.995425  1.0
  Cu  Cu717  1  0.199665  0.647755  0.995425  1.0
  Cu  Cu718  1  0.852245  0.300335  0.504575  1.0
  Cu  Cu719  1  0.300335  0.342845  0.504575  1.0
  Cu  Cu720  1  0.342845  0.852245  0.504575  1.0
  H  H721  1  0.771100  0.848400  0.153900  1.0
  H  H722  1  0.226600  0.771100  0.153900  1.0
  H  H723  1  0.848400  0.226600  0.153900  1.0
  H  H724  1  0.273400  0.651600  0.346100  1.0
  H  H725  1  0.651600  0.728900  0.346100  1.0
  H  H726  1  0.728900  0.273400  0.346100  1.0
  H  H727  1  0.228900  0.151600  0.846100  1.0
  H  H728  1  0.773400  0.228900  0.846100  1.0
  H  H729  1  0.151600  0.773400  0.846100  1.0
  H  H730  1  0.726600  0.348400  0.653900  1.0
  H  H731  1  0.348400  0.271100  0.653900  1.0
  H  H732  1  0.271100  0.726600  0.653900  1.0
  H  H733  1  0.798100  0.808000  0.091500  1.0
  H  H734  1  0.302400  0.798100  0.091500  1.0
  H  H735  1  0.808000  0.302400  0.091500  1.0
  H  H736  1  0.197600  0.692000  0.408500  1.0
  H  H737  1  0.692000  0.701900  0.408500  1.0
  H  H738  1  0.701900  0.197600  0.408500  1.0
  H  H739  1  0.201900  0.192000  0.908500  1.0
  H  H740  1  0.697600  0.201900  0.908500  1.0
  H  H741  1  0.192000  0.697600  0.908500  1.0
  H  H742  1  0.802400  0.308000  0.591500  1.0
  H  H743  1  0.308000  0.298100  0.591500  1.0
  H  H744  1  0.298100  0.802400  0.591500  1.0
  H  H745  1  0.750900  0.733100  0.093600  1.0
  H  H746  1  0.422400  0.750900  0.093600  1.0
  H  H747  1  0.733100  0.422400  0.093600  1.0
  H  H748  1  0.077600  0.766900  0.406400  1.0
  H  H749  1  0.766900  0.749100  0.406400  1.0
  H  H750  1  0.749100  0.077600  0.406400  1.0
  H  H751  1  0.249100  0.266900  0.906400  1.0
  H  H752  1  0.577600  0.249100  0.906400  1.0
  H  H753  1  0.266900  0.577600  0.906400  1.0
  H  H754  1  0.922400  0.233100  0.593600  1.0
  H  H755  1  0.233100  0.250900  0.593600  1.0
  H  H756  1  0.250900  0.922400  0.593600  1.0
  H  H757  1  0.717400  0.732200  0.141000  1.0
  H  H758  1  0.409400  0.717400  0.141000  1.0
  H  H759  1  0.732200  0.409400  0.141000  1.0
  H  H760  1  0.090600  0.767800  0.359000  1.0
  H  H761  1  0.767800  0.782600  0.359000  1.0
  H  H762  1  0.782600  0.090600  0.359000  1.0
  H  H763  1  0.282600  0.267800  0.859000  1.0
  H  H764  1  0.590600  0.282600  0.859000  1.0
  H  H765  1  0.267800  0.590600  0.859000  1.0
  H  H766  1  0.909400  0.232200  0.641000  1.0
  H  H767  1  0.232200  0.217400  0.641000  1.0
  H  H768  1  0.217400  0.909400  0.641000  1.0
  H  H769  1  0.687000  0.777300  0.206400  1.0
  H  H770  1  0.329300  0.687000  0.206400  1.0
  H  H771  1  0.777300  0.329300  0.206400  1.0
  H  H772  1  0.170700  0.722700  0.293600  1.0
  H  H773  1  0.722700  0.813000  0.293600  1.0
  H  H774  1  0.813000  0.170700  0.293600  1.0
  H  H775  1  0.313000  0.222700  0.793600  1.0
  H  H776  1  0.670700  0.313000  0.793600  1.0
  H  H777  1  0.222700  0.670700  0.793600  1.0
  H  H778  1  0.829300  0.277300  0.706400  1.0
  H  H779  1  0.277300  0.187000  0.706400  1.0
  H  H780  1  0.187000  0.829300  0.706400  1.0
  H  H781  1  0.690700  0.819800  0.225000  1.0
  H  H782  1  0.264500  0.690700  0.225000  1.0
  H  H783  1  0.819800  0.264500  0.225000  1.0
  H  H784  1  0.235500  0.680200  0.275000  1.0
  H  H785  1  0.680200  0.809300  0.275000  1.0
  H  H786  1  0.809300  0.235500  0.275000  1.0
  H  H787  1  0.309300  0.180200  0.775000  1.0
  H  H788  1  0.735500  0.309300  0.775000  1.0
  H  H789  1  0.180200  0.735500  0.775000  1.0
  H  H790  1  0.764500  0.319800  0.725000  1.0
  H  H791  1  0.319800  0.190700  0.725000  1.0
  H  H792  1  0.190700  0.764500  0.725000  1.0
  H  H793  1  0.782200  0.005000  0.231000  1.0
  H  H794  1  0.981800  0.782200  0.231000  1.0
  H  H795  1  0.005000  0.981800  0.231000  1.0
  H  H796  1  0.518200  0.495000  0.269000  1.0
  H  H797  1  0.495000  0.717800  0.269000  1.0
  H  H798  1  0.717800  0.518200  0.269000  1.0
  H  H799  1  0.217800  0.995000  0.769000  1.0
  H  H800  1  0.018200  0.217800  0.769000  1.0
  H  H801  1  0.995000  0.018200  0.769000  1.0
  H  H802  1  0.481800  0.505000  0.731000  1.0
  H  H803  1  0.505000  0.282200  0.731000  1.0
  H  H804  1  0.282200  0.481800  0.731000  1.0
  H  H805  1  0.835700  0.063000  0.231900  1.0
  H  H806  1  0.869400  0.835700  0.231900  1.0
  H  H807  1  0.063000  0.869400  0.231900  1.0
  H  H808  1  0.630600  0.437000  0.268100  1.0
  H  H809  1  0.437000  0.664300  0.268100  1.0
  H  H810  1  0.664300  0.630600  0.268100  1.0
  H  H811  1  0.164300  0.937000  0.768100  1.0
  H  H812  1  0.130600  0.164300  0.768100  1.0
  H  H813  1  0.937000  0.130600  0.768100  1.0
  H  H814  1  0.369400  0.563000  0.731900  1.0
  H  H815  1  0.563000  0.335700  0.731900  1.0
  H  H816  1  0.335700  0.369400  0.731900  1.0
  H  H817  1  0.805500  0.106400  0.300600  1.0
  H  H818  1  0.787500  0.805500  0.300600  1.0
  H  H819  1  0.106400  0.787500  0.300600  1.0
  H  H820  1  0.712500  0.393600  0.199400  1.0
  H  H821  1  0.393600  0.694500  0.199400  1.0
  H  H822  1  0.694500  0.712500  0.199400  1.0
  H  H823  1  0.194500  0.893600  0.699400  1.0
  H  H824  1  0.212500  0.194500  0.699400  1.0
  H  H825  1  0.893600  0.212500  0.699400  1.0
  H  H826  1  0.287500  0.606400  0.800600  1.0
  H  H827  1  0.606400  0.305500  0.800600  1.0
  H  H828  1  0.305500  0.287500  0.800600  1.0
  H  H829  1  0.752600  0.083000  0.322800  1.0
  H  H830  1  0.841600  0.752600  0.322800  1.0
  H  H831  1  0.083000  0.841600  0.322800  1.0
  H  H832  1  0.658400  0.417000  0.177200  1.0
  H  H833  1  0.417000  0.747400  0.177200  1.0
  H  H834  1  0.747400  0.658400  0.177200  1.0
  H  H835  1  0.247400  0.917000  0.677200  1.0
  H  H836  1  0.158400  0.247400  0.677200  1.0
  H  H837  1  0.917000  0.158400  0.677200  1.0
  H  H838  1  0.341600  0.583000  0.822800  1.0
  H  H839  1  0.583000  0.252600  0.822800  1.0
  H  H840  1  0.252600  0.341600  0.822800  1.0
  H  H841  1  0.697300  0.022900  0.319200  1.0
  H  H842  1  0.960600  0.697300  0.319200  1.0
  H  H843  1  0.022900  0.960600  0.319200  1.0
  H  H844  1  0.539400  0.477100  0.180800  1.0
  H  H845  1  0.477100  0.802700  0.180800  1.0
  H  H846  1  0.802700  0.539400  0.180800  1.0
  H  H847  1  0.302700  0.977100  0.680800  1.0
  H  H848  1  0.039400  0.302700  0.680800  1.0
  H  H849  1  0.977100  0.039400  0.680800  1.0
  H  H850  1  0.460600  0.522900  0.819200  1.0
  H  H851  1  0.522900  0.197300  0.819200  1.0
  H  H852  1  0.197300  0.460600  0.819200  1.0
  H  H853  1  0.690900  0.986900  0.297300  1.0
  H  H854  1  0.024900  0.690900  0.297300  1.0
  H  H855  1  0.986900  0.024900  0.297300  1.0
  H  H856  1  0.475100  0.513100  0.202700  1.0
  H  H857  1  0.513100  0.809100  0.202700  1.0
  H  H858  1  0.809100  0.475100  0.202700  1.0
  H  H859  1  0.309100  0.013100  0.702700  1.0
  H  H860  1  0.975100  0.309100  0.702700  1.0
  H  H861  1  0.013100  0.975100  0.702700  1.0
  H  H862  1  0.524900  0.486900  0.797300  1.0
  H  H863  1  0.486900  0.190900  0.797300  1.0
  H  H864  1  0.190900  0.524900  0.797300  1.0
  H  H865  1  0.081200  0.655700  0.006900  1.0
  H  H866  1  0.256200  0.081200  0.006900  1.0
  H  H867  1  0.655700  0.256200  0.006900  1.0
  H  H868  1  0.243800  0.844300  0.493100  1.0
  H  H869  1  0.844300  0.418800  0.493100  1.0
  H  H870  1  0.418800  0.243800  0.493100  1.0
  H  H871  1  0.918800  0.344300  0.993100  1.0
  H  H872  1  0.743800  0.918800  0.993100  1.0
  H  H873  1  0.344300  0.743800  0.993100  1.0
  H  H874  1  0.756200  0.155700  0.506900  1.0
  H  H875  1  0.155700  0.581200  0.506900  1.0
  H  H876  1  0.581200  0.756200  0.506900  1.0
  H  H877  1  0.148000  0.535700  0.008700  1.0
  H  H878  1  0.307600  0.148000  0.008700  1.0
  H  H879  1  0.535700  0.307600  0.008700  1.0
  H  H880  1  0.192400  0.964300  0.491300  1.0
  H  H881  1  0.964300  0.352000  0.491300  1.0
  H  H882  1  0.352000  0.192400  0.491300  1.0
  H  H883  1  0.852000  0.464300  0.991300  1.0
  H  H884  1  0.692400  0.852000  0.991300  1.0
  H  H885  1  0.464300  0.692400  0.991300  1.0
  H  H886  1  0.807600  0.035700  0.508700  1.0
  H  H887  1  0.035700  0.648000  0.508700  1.0
  H  H888  1  0.648000  0.807600  0.508700  1.0
  H  H889  1  0.084700  0.531800  0.015300  1.0
  H  H890  1  0.368200  0.084700  0.015300  1.0
  H  H891  1  0.531800  0.368200  0.015300  1.0
  H  H892  1  0.131800  0.968200  0.484700  1.0
  H  H893  1  0.968200  0.415300  0.484700  1.0
  H  H894  1  0.415300  0.131800  0.484700  1.0
  H  H895  1  0.915300  0.468200  0.984700  1.0
  H  H896  1  0.631800  0.915300  0.984700  1.0
  H  H897  1  0.468200  0.631800  0.984700  1.0
  H  H898  1  0.868200  0.031800  0.515300  1.0
  H  H899  1  0.031800  0.584700  0.515300  1.0
  H  H900  1  0.584700  0.868200  0.515300  1.0
  H  H901  1  0.966200  0.583100  0.011100  1.0
  H  H902  1  0.439600  0.966200  0.011100  1.0
  H  H903  1  0.583100  0.439600  0.011100  1.0
  H  H904  1  0.060400  0.916900  0.488900  1.0
  H  H905  1  0.916900  0.533800  0.488900  1.0
  H  H906  1  0.533800  0.060400  0.488900  1.0
  H  H907  1  0.033800  0.416900  0.988900  1.0
  H  H908  1  0.560400  0.033800  0.988900  1.0
  H  H909  1  0.416900  0.560400  0.988900  1.0
  H  H910  1  0.939600  0.083100  0.511100  1.0
  H  H911  1  0.083100  0.466200  0.511100  1.0
  H  H912  1  0.466200  0.939600  0.511100  1.0
  H  H913  1  0.906800  0.637100  0.019200  1.0
  H  H914  1  0.436900  0.906800  0.019200  1.0
  H  H915  1  0.637100  0.436900  0.019200  1.0
  H  H916  1  0.063100  0.862900  0.480800  1.0
  H  H917  1  0.862900  0.593200  0.480800  1.0
  H  H918  1  0.593200  0.063100  0.480800  1.0
  H  H919  1  0.093200  0.362900  0.980800  1.0
  H  H920  1  0.563100  0.093200  0.980800  1.0
  H  H921  1  0.362900  0.563100  0.980800  1.0
  H  H922  1  0.936900  0.137100  0.519200  1.0
  H  H923  1  0.137100  0.406800  0.519200  1.0
  H  H924  1  0.406800  0.936900  0.519200  1.0
  H  H925  1  0.966000  0.702600  0.010500  1.0
  H  H926  1  0.320900  0.966000  0.010500  1.0
  H  H927  1  0.702600  0.320900  0.010500  1.0
  H  H928  1  0.179100  0.797400  0.489500  1.0
  H  H929  1  0.797400  0.534000  0.489500  1.0
  H  H930  1  0.534000  0.179100  0.489500  1.0
  H  H931  1  0.034000  0.297400  0.989500  1.0
  H  H932  1  0.679100  0.034000  0.989500  1.0
  H  H933  1  0.297400  0.679100  0.989500  1.0
  H  H934  1  0.820900  0.202600  0.510500  1.0
  H  H935  1  0.202600  0.466000  0.510500  1.0
  H  H936  1  0.466000  0.820900  0.510500  1.0
  H  H937  1  0.907800  0.814900  0.919600  1.0
  H  H938  1  0.357700  0.907800  0.919600  1.0
  H  H939  1  0.814900  0.357700  0.919600  1.0
  H  H940  1  0.142300  0.685100  0.580400  1.0
  H  H941  1  0.685100  0.592200  0.580400  1.0
  H  H942  1  0.592200  0.142300  0.580400  1.0
  H  H943  1  0.092200  0.185100  0.080400  1.0
  H  H944  1  0.642300  0.092200  0.080400  1.0
  H  H945  1  0.185100  0.642300  0.080400  1.0
  H  H946  1  0.857700  0.314900  0.419600  1.0
  H  H947  1  0.314900  0.407800  0.419600  1.0
  H  H948  1  0.407800  0.857700  0.419600  1.0
  H  H949  1  0.978500  0.848600  0.851500  1.0
  H  H950  1  0.321400  0.978500  0.851500  1.0
  H  H951  1  0.848600  0.321400  0.851500  1.0
  H  H952  1  0.178600  0.651400  0.648500  1.0
  H  H953  1  0.651400  0.521500  0.648500  1.0
  H  H954  1  0.521500  0.178600  0.648500  1.0
  H  H955  1  0.021500  0.151400  0.148500  1.0
  H  H956  1  0.678600  0.021500  0.148500  1.0
  H  H957  1  0.151400  0.678600  0.148500  1.0
  H  H958  1  0.821400  0.348600  0.351500  1.0
  H  H959  1  0.348600  0.478500  0.351500  1.0
  H  H960  1  0.478500  0.821400  0.351500  1.0
  H  H961  1  0.992900  0.820100  0.778300  1.0
  H  H962  1  0.408700  0.992900  0.778300  1.0
  H  H963  1  0.820100  0.408700  0.778300  1.0
  H  H964  1  0.091300  0.679900  0.721700  1.0
  H  H965  1  0.679900  0.507100  0.721700  1.0
  H  H966  1  0.507100  0.091300  0.721700  1.0
  H  H967  1  0.007100  0.179900  0.221700  1.0
  H  H968  1  0.591300  0.007100  0.221700  1.0
  H  H969  1  0.179900  0.591300  0.221700  1.0
  H  H970  1  0.908700  0.320100  0.278300  1.0
  H  H971  1  0.320100  0.492900  0.278300  1.0
  H  H972  1  0.492900  0.908700  0.278300  1.0
  H  H973  1  0.946400  0.789500  0.801700  1.0
  H  H974  1  0.462400  0.946400  0.801700  1.0
  H  H975  1  0.789500  0.462400  0.801700  1.0
  H  H976  1  0.037600  0.710500  0.698300  1.0
  H  H977  1  0.710500  0.553600  0.698300  1.0
  H  H978  1  0.553600  0.037600  0.698300  1.0
  H  H979  1  0.053600  0.210500  0.198300  1.0
  H  H980  1  0.537600  0.053600  0.198300  1.0
  H  H981  1  0.210500  0.537600  0.198300  1.0
  H  H982  1  0.962400  0.289500  0.301700  1.0
  H  H983  1  0.289500  0.446400  0.301700  1.0
  H  H984  1  0.446400  0.962400  0.301700  1.0
  H  H985  1  0.874400  0.763200  0.866200  1.0
  H  H986  1  0.496200  0.874400  0.866200  1.0
  H  H987  1  0.763200  0.496200  0.866200  1.0
  H  H988  1  0.003800  0.736800  0.633800  1.0
  H  H989  1  0.736800  0.625600  0.633800  1.0
  H  H990  1  0.625600  0.003800  0.633800  1.0
  H  H991  1  0.125600  0.236800  0.133800  1.0
  H  H992  1  0.503800  0.125600  0.133800  1.0
  H  H993  1  0.236800  0.503800  0.133800  1.0
  H  H994  1  0.996200  0.263200  0.366200  1.0
  H  H995  1  0.263200  0.374400  0.366200  1.0
  H  H996  1  0.374400  0.996200  0.366200  1.0
  H  H997  1  0.844600  0.759600  0.915700  1.0
  H  H998  1  0.480100  0.844600  0.915700  1.0
  H  H999  1  0.759600  0.480100  0.915700  1.0
  H  H1000  1  0.019900  0.740400  0.584300  1.0
  H  H1001  1  0.740400  0.655400  0.584300  1.0
  H  H1002  1  0.655400  0.019900  0.584300  1.0
  H  H1003  1  0.155400  0.240400  0.084300  1.0
  H  H1004  1  0.519900  0.155400  0.084300  1.0
  H  H1005  1  0.240400  0.519900  0.084300  1.0
  H  H1006  1  0.980100  0.259600  0.415700  1.0
  H  H1007  1  0.259600  0.344600  0.415700  1.0
  H  H1008  1  0.344600  0.980100  0.415700  1.0
  O  O1009  1  0.707990  0.871670  0.229950  1.0
  O  O1010  1  0.190390  0.707990  0.229950  1.0
  O  O1011  1  0.871670  0.190390  0.229950  1.0
  O  O1012  1  0.309610  0.628330  0.270050  1.0
  O  O1013  1  0.628330  0.792010  0.270050  1.0
  O  O1014  1  0.792010  0.309610  0.270050  1.0
  O  O1015  1  0.292010  0.128330  0.770050  1.0
  O  O1016  1  0.809610  0.292010  0.770050  1.0
  O  O1017  1  0.128330  0.809610  0.770050  1.0
  O  O1018  1  0.690390  0.371670  0.729950  1.0
  O  O1019  1  0.371670  0.207990  0.729950  1.0
  O  O1020  1  0.207990  0.690390  0.729950  1.0
  O  O1021  1  0.754350  0.885040  0.191850  1.0
  O  O1022  1  0.168760  0.754350  0.191850  1.0
  O  O1023  1  0.885040  0.168760  0.191850  1.0
  O  O1024  1  0.331240  0.614960  0.308150  1.0
  O  O1025  1  0.614960  0.745650  0.308150  1.0
  O  O1026  1  0.745650  0.331240  0.308150  1.0
  O  O1027  1  0.245650  0.114960  0.808150  1.0
  O  O1028  1  0.831240  0.245650  0.808150  1.0
  O  O1029  1  0.114960  0.831240  0.808150  1.0
  O  O1030  1  0.668760  0.385040  0.691850  1.0
  O  O1031  1  0.385040  0.254350  0.691850  1.0
  O  O1032  1  0.254350  0.668760  0.691850  1.0
  O  O1033  1  0.788500  0.753340  0.045330  1.0
  O  O1034  1  0.412830  0.788500  0.045330  1.0
  O  O1035  1  0.753340  0.412830  0.045330  1.0
  O  O1036  1  0.087170  0.746660  0.454670  1.0
  O  O1037  1  0.746660  0.711500  0.454670  1.0
  O  O1038  1  0.711500  0.087170  0.454670  1.0
  O  O1039  1  0.211500  0.246660  0.954670  1.0
  O  O1040  1  0.587170  0.211500  0.954670  1.0
  O  O1041  1  0.246660  0.587170  0.954670  1.0
  O  O1042  1  0.912830  0.253340  0.545330  1.0
  O  O1043  1  0.253340  0.288500  0.545330  1.0
  O  O1044  1  0.288500  0.912830  0.545330  1.0
  O  O1045  1  0.818190  0.792810  0.044790  1.0
  O  O1046  1  0.344210  0.818190  0.044790  1.0
  O  O1047  1  0.792810  0.344210  0.044790  1.0
  O  O1048  1  0.155790  0.707190  0.455210  1.0
  O  O1049  1  0.707190  0.681810  0.455210  1.0
  O  O1050  1  0.681810  0.155790  0.455210  1.0
  O  O1051  1  0.181810  0.207190  0.955210  1.0
  O  O1052  1  0.655790  0.181810  0.955210  1.0
  O  O1053  1  0.207190  0.655790  0.955210  1.0
  O  O1054  1  0.844210  0.292810  0.544790  1.0
  O  O1055  1  0.292810  0.318190  0.544790  1.0
  O  O1056  1  0.318190  0.844210  0.544790  1.0
  O  O1057  1  0.707530  0.947490  0.262740  1.0
  O  O1058  1  0.082240  0.707530  0.262740  1.0
  O  O1059  1  0.947490  0.082240  0.262740  1.0
  O  O1060  1  0.417760  0.552510  0.237260  1.0
  O  O1061  1  0.552510  0.792470  0.237260  1.0
  O  O1062  1  0.792470  0.417760  0.237260  1.0
  O  O1063  1  0.292470  0.052510  0.737260  1.0
  O  O1064  1  0.917760  0.292470  0.737260  1.0
  O  O1065  1  0.052510  0.917760  0.737260  1.0
  O  O1066  1  0.582240  0.447490  0.762740  1.0
  O  O1067  1  0.447490  0.207530  0.762740  1.0
  O  O1068  1  0.207530  0.582240  0.762740  1.0
  O  O1069  1  0.753990  0.962430  0.224130  1.0
  O  O1070  1  0.059450  0.753990  0.224130  1.0
  O  O1071  1  0.962430  0.059450  0.224130  1.0
  O  O1072  1  0.440550  0.537570  0.275870  1.0
  O  O1073  1  0.537570  0.746010  0.275870  1.0
  O  O1074  1  0.746010  0.440550  0.275870  1.0
  O  O1075  1  0.246010  0.037570  0.775870  1.0
  O  O1076  1  0.940550  0.246010  0.775870  1.0
  O  O1077  1  0.037570  0.940550  0.775870  1.0
  O  O1078  1  0.559450  0.462430  0.724130  1.0
  O  O1079  1  0.462430  0.253990  0.724130  1.0
  O  O1080  1  0.253990  0.559450  0.724130  1.0
  O  O1081  1  0.752230  0.866050  0.263730  1.0
  O  O1082  1  0.117990  0.752230  0.263730  1.0
  O  O1083  1  0.866050  0.117990  0.263730  1.0
  O  O1084  1  0.382010  0.633950  0.236270  1.0
  O  O1085  1  0.633950  0.747770  0.236270  1.0
  O  O1086  1  0.747770  0.382010  0.236270  1.0
  O  O1087  1  0.247770  0.133950  0.736270  1.0
  O  O1088  1  0.882010  0.247770  0.736270  1.0
  O  O1089  1  0.133950  0.882010  0.736270  1.0
  O  O1090  1  0.617990  0.366050  0.763730  1.0
  O  O1091  1  0.366050  0.252230  0.763730  1.0
  O  O1092  1  0.252230  0.617990  0.763730  1.0
  O  O1093  1  0.798690  0.878720  0.226140  1.0
  O  O1094  1  0.096450  0.798690  0.226140  1.0
  O  O1095  1  0.878720  0.096450  0.226140  1.0
  O  O1096  1  0.403550  0.621280  0.273860  1.0
  O  O1097  1  0.621280  0.701310  0.273860  1.0
  O  O1098  1  0.701310  0.403550  0.273860  1.0
  O  O1099  1  0.201310  0.121280  0.773860  1.0
  O  O1100  1  0.903550  0.201310  0.773860  1.0
  O  O1101  1  0.121280  0.903550  0.773860  1.0
  O  O1102  1  0.596450  0.378720  0.726140  1.0
  O  O1103  1  0.378720  0.298690  0.726140  1.0
  O  O1104  1  0.298690  0.596450  0.726140  1.0
  O  O1105  1  0.858710  0.709610  0.011670  1.0
  O  O1106  1  0.420010  0.858710  0.011670  1.0
  O  O1107  1  0.709610  0.420010  0.011670  1.0
  O  O1108  1  0.079990  0.790390  0.488330  1.0
  O  O1109  1  0.790390  0.641290  0.488330  1.0
  O  O1110  1  0.641290  0.079990  0.488330  1.0
  O  O1111  1  0.141290  0.290390  0.988330  1.0
  O  O1112  1  0.579990  0.141290  0.988330  1.0
  O  O1113  1  0.290390  0.579990  0.988330  1.0
  O  O1114  1  0.920010  0.209610  0.511670  1.0
  O  O1115  1  0.209610  0.358710  0.511670  1.0
  O  O1116  1  0.358710  0.920010  0.511670  1.0
  O  O1117  1  0.889440  0.745220  0.011010  1.0
  O  O1118  1  0.354330  0.889440  0.011010  1.0
  O  O1119  1  0.745220  0.354330  0.011010  1.0
  O  O1120  1  0.145670  0.754780  0.488990  1.0
  O  O1121  1  0.754780  0.610560  0.488990  1.0
  O  O1122  1  0.610560  0.145670  0.488990  1.0
  O  O1123  1  0.110560  0.254780  0.988990  1.0
  O  O1124  1  0.645670  0.110560  0.988990  1.0
  O  O1125  1  0.254780  0.645670  0.988990  1.0
  O  O1126  1  0.854330  0.245220  0.511010  1.0
  O  O1127  1  0.245220  0.389440  0.511010  1.0
  O  O1128  1  0.389440  0.854330  0.511010  1.0
  O  O1129  1  0.761310  0.808810  0.999070  1.0
  O  O1130  1  0.430810  0.761310  0.999070  1.0
  O  O1131  1  0.808810  0.430810  0.999070  1.0
  O  O1132  1  0.069190  0.691190  0.500930  1.0
  O  O1133  1  0.691190  0.738690  0.500930  1.0
  O  O1134  1  0.738690  0.069190  0.500930  1.0
  O  O1135  1  0.238690  0.191190  0.000930  1.0
  O  O1136  1  0.569190  0.238690  0.000930  1.0
  O  O1137  1  0.191190  0.569190  0.000930  1.0
  O  O1138  1  0.930810  0.308810  0.499070  1.0
  O  O1139  1  0.308810  0.261310  0.499070  1.0
  O  O1140  1  0.261310  0.930810  0.499070  1.0
  O  O1141  1  0.791910  0.846310  0.998170  1.0
  O  O1142  1  0.363610  0.791910  0.998170  1.0
  O  O1143  1  0.846310  0.363610  0.998170  1.0
  O  O1144  1  0.136390  0.653690  0.501830  1.0
  O  O1145  1  0.653690  0.708090  0.501830  1.0
  O  O1146  1  0.708090  0.136390  0.501830  1.0
  O  O1147  1  0.208090  0.153690  0.001830  1.0
  O  O1148  1  0.636390  0.208090  0.001830  1.0
  O  O1149  1  0.153690  0.636390  0.001830  1.0
  O  O1150  1  0.863610  0.346310  0.498170  1.0
  O  O1151  1  0.346310  0.291910  0.498170  1.0
  O  O1152  1  0.291910  0.863610  0.498170  1.0
  O  O1153  1  0.831220  0.764820  0.963940  1.0
  O  O1154  1  0.440020  0.831220  0.963940  1.0
  O  O1155  1  0.764820  0.440020  0.963940  1.0
  O  O1156  1  0.059980  0.735180  0.536060  1.0
  O  O1157  1  0.735180  0.668780  0.536060  1.0
  O  O1158  1  0.668780  0.059980  0.536060  1.0
  O  O1159  1  0.168780  0.235180  0.036060  1.0
  O  O1160  1  0.559980  0.168780  0.036060  1.0
  O  O1161  1  0.235180  0.559980  0.036060  1.0
  O  O1162  1  0.940020  0.264820  0.463940  1.0
  O  O1163  1  0.264820  0.331220  0.463940  1.0
  O  O1164  1  0.331220  0.940020  0.463940  1.0
  O  O1165  1  0.861810  0.802110  0.963670  1.0
  O  O1166  1  0.372410  0.861810  0.963670  1.0
  O  O1167  1  0.802110  0.372410  0.963670  1.0
  O  O1168  1  0.127590  0.697890  0.536330  1.0
  O  O1169  1  0.697890  0.638190  0.536330  1.0
  O  O1170  1  0.638190  0.127590  0.536330  1.0
  O  O1171  1  0.138190  0.197890  0.036330  1.0
  O  O1172  1  0.627590  0.138190  0.036330  1.0
  O  O1173  1  0.197890  0.627590  0.036330  1.0
  O  O1174  1  0.872410  0.302110  0.463670  1.0
  O  O1175  1  0.302110  0.361810  0.463670  1.0
  O  O1176  1  0.361810  0.872410  0.463670  1.0
  O  O1177  1  0.664660  0.957230  0.226890  1.0
  O  O1178  1  0.151220  0.664660  0.226890  1.0
  O  O1179  1  0.957230  0.151220  0.226890  1.0
  O  O1180  1  0.348780  0.542770  0.273110  1.0
  O  O1181  1  0.542770  0.835340  0.273110  1.0
  O  O1182  1  0.835340  0.348780  0.273110  1.0
  O  O1183  1  0.335340  0.042770  0.773110  1.0
  O  O1184  1  0.848780  0.335340  0.773110  1.0
  O  O1185  1  0.042770  0.848780  0.773110  1.0
  O  O1186  1  0.651220  0.457230  0.726890  1.0
  O  O1187  1  0.457230  0.164660  0.726890  1.0
  O  O1188  1  0.164660  0.651220  0.726890  1.0
  O  O1189  1  0.711950  0.968690  0.188610  1.0
  O  O1190  1  0.130750  0.711950  0.188610  1.0
  O  O1191  1  0.968690  0.130750  0.188610  1.0
  O  O1192  1  0.369250  0.531310  0.311390  1.0
  O  O1193  1  0.531310  0.788050  0.311390  1.0
  O  O1194  1  0.788050  0.369250  0.311390  1.0
  O  O1195  1  0.288050  0.031310  0.811390  1.0
  O  O1196  1  0.869250  0.288050  0.811390  1.0
  O  O1197  1  0.031310  0.869250  0.811390  1.0
  O  O1198  1  0.630750  0.468690  0.688610  1.0
  O  O1199  1  0.468690  0.211950  0.688610  1.0
  O  O1200  1  0.211950  0.630750  0.688610  1.0
  O  O1201  1  0.654320  0.898150  0.286410  1.0
  O  O1202  1  0.161120  0.654320  0.286410  1.0
  O  O1203  1  0.898150  0.161120  0.286410  1.0
  O  O1204  1  0.338880  0.601850  0.213590  1.0
  O  O1205  1  0.601850  0.845680  0.213590  1.0
  O  O1206  1  0.845680  0.338880  0.213590  1.0
  O  O1207  1  0.345680  0.101850  0.713590  1.0
  O  O1208  1  0.838880  0.345680  0.713590  1.0
  O  O1209  1  0.101850  0.838880  0.713590  1.0
  O  O1210  1  0.661120  0.398150  0.786410  1.0
  O  O1211  1  0.398150  0.154320  0.786410  1.0
  O  O1212  1  0.154320  0.661120  0.786410  1.0
  O  O1213  1  0.804960  0.938090  0.166080  1.0
  O  O1214  1  0.090870  0.804960  0.166080  1.0
  O  O1215  1  0.938090  0.090870  0.166080  1.0
  O  O1216  1  0.409130  0.561910  0.333920  1.0
  O  O1217  1  0.561910  0.695040  0.333920  1.0
  O  O1218  1  0.695040  0.409130  0.333920  1.0
  O  O1219  1  0.195040  0.061910  0.833920  1.0
  O  O1220  1  0.909130  0.195040  0.833920  1.0
  O  O1221  1  0.061910  0.909130  0.833920  1.0
  O  O1222  1  0.590870  0.438090  0.666080  1.0
  O  O1223  1  0.438090  0.304960  0.666080  1.0
  O  O1224  1  0.304960  0.590870  0.666080  1.0
  O  O1225  1  0.779290  0.717340  0.005730  1.0
  O  O1226  1  0.497640  0.779290  0.005730  1.0
  O  O1227  1  0.717340  0.497640  0.005730  1.0
  O  O1228  1  0.002360  0.782660  0.494270  1.0
  O  O1229  1  0.782660  0.720710  0.494270  1.0
  O  O1230  1  0.720710  0.002360  0.494270  1.0
  O  O1231  1  0.220710  0.282660  0.994270  1.0
  O  O1232  1  0.502360  0.220710  0.994270  1.0
  O  O1233  1  0.282660  0.502360  0.994270  1.0
  O  O1234  1  0.997640  0.217340  0.505730  1.0
  O  O1235  1  0.217340  0.279290  0.505730  1.0
  O  O1236  1  0.279290  0.997640  0.505730  1.0
  O  O1237  1  0.873120  0.837650  0.003300  1.0
  O  O1238  1  0.285930  0.873120  0.003300  1.0
  O  O1239  1  0.837650  0.285930  0.003300  1.0
  O  O1240  1  0.214070  0.662350  0.496700  1.0
  O  O1241  1  0.662350  0.626880  0.496700  1.0
  O  O1242  1  0.626880  0.214070  0.496700  1.0
  O  O1243  1  0.126880  0.162350  0.996700  1.0
  O  O1244  1  0.714070  0.126880  0.996700  1.0
  O  O1245  1  0.162350  0.714070  0.996700  1.0
  O  O1246  1  0.785930  0.337650  0.503300  1.0
  O  O1247  1  0.337650  0.373120  0.503300  1.0
  O  O1248  1  0.373120  0.785930  0.503300  1.0
