
#######################################################################
#
#                 Cambridge Crystallographic Data Centre
#                                CCDC 
#
#######################################################################
#
# If this CIF has been generated from an entry in the Cambridge 
# Structural Database, then it will include bibliographic, chemical, 
# crystal, experimental, refinement or atomic coordinate data resulting 
# from the CCDC's data processing and validation procedures.
#
#######################################################################

data_KOJXOX
_chemical_name_common            MOP-24
_chemical_formula_moiety         
'C396 H276 Cu24 N12 O120,52(C5 H9 N1 O1),16(H2 O1)'
_chemical_name_systematic        
'tetracosakis(\m~4~-Biphenylene-2,7-dicarboxylato)-dodecaaqua-dodecakis(1-methylpyrrolidin-2-one)-tetracosa-copper 1-methylpyrrolidin-2-one solvate hexadecahydrate'
_symmetry_cell_setting           rhombohedral
_symmetry_space_group_name_H-M   'R -3 c'
_symmetry_Int_Tables_number      167
_space_group_name_Hall           '-R 3 2"c'
loop_
_symmetry_equiv_pos_site_id
_symmetry_equiv_pos_as_xyz
1 x,y,z
2 -y,x-y,z
3 -x+y,-x,z
4 y,x,1/2-z
5 2/3+x,1/3+y,1/3+z
6 2/3-y,1/3+x-y,1/3+z
7 2/3-x+y,1/3-x,1/3+z
8 2/3+y,1/3+x,5/6-z
9 1/3+x,2/3+y,2/3+z
10 1/3+y,2/3+x,1/6-z
11 x-y,-y,1/2-z
12 -x,-x+y,1/2-z
13 1/3-y,2/3+x-y,2/3+z
14 1/3-x+y,2/3-x,2/3+z
15 1/3+x-y,2/3-y,1/6-z
16 1/3-x,2/3-x+y,1/6-z
17 2/3+x-y,1/3-y,5/6-z
18 2/3-x,1/3-x+y,5/6-z
19 -x,-y,-z
20 y,-x+y,-z
21 x-y,x,-z
22 -y,-x,1/2+z
23 1/3-x,2/3-y,2/3-z
24 1/3+y,2/3-x+y,2/3-z
25 1/3+x-y,2/3+x,2/3-z
26 1/3-y,2/3-x,1/6+z
27 2/3-x,1/3-y,1/3-z
28 2/3-y,1/3-x,5/6+z
29 -x+y,y,1/2+z
30 x,x-y,1/2+z
31 2/3+y,1/3-x+y,1/3-z
32 2/3+x-y,1/3+x,1/3-z
33 2/3-x+y,1/3+y,5/6+z
34 2/3+x,1/3+x-y,5/6+z
35 1/3-x+y,2/3+y,1/6+z
36 1/3+x,2/3+x-y,1/6+z
_cell_length_a                   38.3867(9)
_cell_length_b                   38.3867(9)
_cell_length_c                   141.831(3)
_cell_angle_alpha                90
_cell_angle_beta                 90
_cell_angle_gamma                120.00
_cell_volume                     180994
_exptl_crystal_colour            green
_exptl_crystal_description       block
_cell_formula_units_Z            6
loop_
_atom_site_label
_atom_site_type_symbol
_atom_site_fract_x
_atom_site_fract_y
_atom_site_fract_z
Cu1 Cu 0.21341(3) 0.22056(3) 0.083202(5)
Cu2 Cu 0.17348(3) 0.17996(3) 0.068059(5)
Cu3 Cu 0.19068(5) 0.43338(3) 0.001716(7)
Cu4 Cu 0.15563(5) 0.35377(3) 0.001525(7)
O1 O 0.21536(14) 0.26704(13) 0.07665(3)
O2 O 0.18170(14) 0.23271(16) 0.06395(3)
O3 O 0.19639(19) 0.42794(18) 0.01511(4)
O4 O 0.16688(19) 0.35914(18) 0.01493(4)
C1 C 0.2059(3) 0.3026(3) 0.06437(7)
C2 C 0.1910(2) 0.3014(3) 0.05479(6)
H1 H 0.1776 0.2779 0.0513
C3 C 0.1985(3) 0.3377(4) 0.05158(7)
C4 C 0.1957(3) 0.3588(3) 0.04302(8)
C5 C 0.1846(2) 0.3571(3) 0.03375(7)
H2 H 0.1714 0.3329 0.0305
C6 C 0.1944(3) 0.3947(4) 0.02935(7)
C7 C 0.2126(3) 0.4301(3) 0.03427(7)
H3 H 0.2179 0.4536 0.0312
C8 C 0.2234(3) 0.4322(3) 0.04375(8)
H4 H 0.2356 0.4564 0.0470
C9 C 0.2151(3) 0.3958(4) 0.04803(8)
C10 C 0.2168(3) 0.3718(3) 0.05671(8)
C11 C 0.2310(2) 0.3741(3) 0.06541(7)
H5 H 0.2442 0.3981 0.0688
C12 C 0.2249(2) 0.3391(3) 0.06891(5)
H6 H 0.2343 0.3395 0.0750
C13 C 0.2005(2) 0.2641(3) 0.06846(6)
C14 C 0.1830(3) 0.3937(3) 0.01867(6)
O5 O 0.20489(16) 0.16982(17) 0.08758(3)
O6 O 0.17130(16) 0.13416(14) 0.07471(4)
O7 O 0.15986(14) 0.20590(15) 0.08791(3)
O8 O 0.12593(14) 0.17183(13) 0.07538(3)
C15 C 0.1782(3) 0.0991(3) 0.08707(8)
C16 C 0.1521(2) 0.0599(3) 0.08292(5)
H7 H 0.1408 0.0588 0.0770
C17 C 0.1432(3) 0.0251(3) 0.08716(7)
C18 C 0.1233(3) -0.0172(2) 0.08711(7)
C19 C 0.0977(2) -0.0529(2) 0.08322(5)
H8 H 0.0870 -0.0533 0.0773
C20 C 0.0867(2) -0.0886(2) 0.08756(7)
C21 C 0.1024(3) -0.0881(3) 0.09706(6)
H9 H 0.0943 -0.1123 0.1002
C22 C 0.1297(4) -0.0515(4) 0.10163(7)
H10 H 0.1398 -0.0508 0.1076
C23 C 0.1395(3) -0.0194(4) 0.09691(7)
C24 C 0.1625(4) 0.0275(5) 0.09631(8)
C25 C 0.1859(3) 0.0654(5) 0.10040(7)
H11 H 0.1963 0.0670 0.1064
C26 C 0.1938(3) 0.0995(3) 0.09607(8)
H12 H 0.2100 0.1240 0.0991
C27 C 0.1861(3) 0.1389(3) 0.08285(7)
C28 C 0.1270(3) 0.1855(3) 0.08370(6)
O9 O 0.1374(3) 0.4239(2) 0.00389(6)
O10 O 0.10689(19) 0.3580(2) 0.00367(4)
O11 O 0.2390(2) 0.4305(2) -0.00031(4)
O12 O 0.2087(2) 0.3630(2) -0.00061(4)
C29 C -0.0535(2) 0.3175(3) 0.00371(5)
C30 C -0.0869(3) 0.2808(2) 0.00271(4)
H13 H -0.0835 0.2585 0.0023
C31 C -0.1230(2) 0.2750(2) 0.00233(5)
C32 C -0.1263(2) 0.3113(3) 0.00319(5)
H14 H -0.1509 0.3105 0.0029
C33 C -0.0859(3) 0.3513(2) 0.00464(5)
H15 H -0.0898 0.3733 0.0051
C34 C -0.0413(2) 0.3637(2) 0.00552(7)
C35 C -0.0017(2) 0.3858(3) 0.00557(6)
C36 C 0.0305(3) 0.4195(2) 0.00473(7)
H16 H 0.0301 0.4433 0.0037
C37 C 0.0632(2) 0.4191(2) 0.00535(6)
H17 H 0.0868 0.4433 0.0064
C38 C 0.0658(2) 0.3857(3) 0.00459(6)
C39 C 0.0290(3) 0.3477(2) 0.00411(5)
H18 H 0.0305 0.3244 0.0035
C40 C -0.0084(2) 0.3445(2) 0.00446(6)
C41 C 0.1058(5) 0.3927(4) 0.00401(9)
C42 C 0.2402(3) 0.3981(4) -0.00105(6)
O13 O 0.1808(2) 0.4280(2) -0.01202(4)
O14 O 0.1503(2) 0.3603(2) -0.01211(4)
O15 O 0.25971(13) 0.22685(14) 0.07563(4)
O16 O 0.22518(17) 0.19362(16) 0.06287(3)
C43 C 0.1547(4) 0.3919(3) -0.02624(8)
C44 C 0.1297(3) 0.3546(3) -0.03032(8)
H19 H 0.1190 0.3309 -0.0268
C45 C 0.1218(3) 0.3545(3) -0.03961(10)
C46 C 0.1019(4) 0.3322(3) -0.04890(7)
C47 C 0.0803(3) 0.2961(3) -0.05273(7)
H20 H 0.0710 0.2719 -0.0495
C48 C 0.0730(4) 0.2999(3) -0.06292(9)
C49 C 0.0868(4) 0.3350(4) -0.06757(8)
H21 H 0.0810 0.3348 -0.0739
C50 C 0.1099(4) 0.3719(4) -0.06295(10)
H22 H 0.1197 0.3963 -0.0661
C51 C 0.1174(4) 0.3703(4) -0.05359(9)
C52 C 0.1371(5) 0.3907(4) -0.04512(9)
C53 C 0.1604(4) 0.4279(4) -0.04113(10)
H23 H 0.1702 0.4516 -0.0446
C54 C 0.1686(4) 0.4277(4) -0.03120(9)
H24 H 0.1835 0.4520 -0.0281
C55 C 0.1643(4) 0.3956(3) -0.01583(8)
C56 C 0.2586(4) 0.2143(2) 0.06689(6)
O17 O 0.25021(14) 0.25659(14) 0.09547(3)
O18 O 0.13968(16) 0.14623(15) 0.05536(3)
O19 O 0.2188(2) 0.49955(17) 0.00191(4)
O20 O 0.12578(17) 0.28703(16) 0.00110(4)
Cu1S Cu 0.22056(3) 0.00715(4) -0.083202(5)
Cu1T Cu -0.00715(4) 0.21341(3) -0.083202(5)
Cu1A Cu -0.22056(3) -0.00715(4) 0.083202(5)
Cu1B Cu 0.00715(4) -0.21341(3) 0.083202(5)
Cu1R Cu -0.21341(3) -0.22056(3) -0.083202(5)
Cu2S Cu 0.17996(3) 0.00648(4) -0.068059(5)
Cu2T Cu -0.00648(4) 0.17348(3) -0.068059(5)
Cu2A Cu -0.17996(3) -0.00648(4) 0.068059(5)
Cu2B Cu 0.00648(4) -0.17348(3) 0.068059(5)
Cu2R Cu -0.17348(3) -0.17996(3) -0.068059(5)
Cu3S Cu 0.43338(3) 0.24270(6) -0.001716(7)
Cu3B Cu 0.24270(6) -0.19068(5) 0.001716(7)
Cu3T Cu -0.24270(6) 0.19068(5) -0.001716(7)
Cu3R Cu -0.19068(5) -0.43338(3) -0.001716(7)
Cu3A Cu -0.43338(3) -0.24270(6) 0.001716(7)
Cu4S Cu 0.35377(3) 0.19814(6) -0.001525(7)
Cu4B Cu 0.19814(6) -0.15563(5) 0.001525(7)
Cu4T Cu -0.19814(6) 0.15563(5) -0.001525(7)
Cu4R Cu -0.15563(5) -0.35377(3) -0.001525(7)
Cu4A Cu -0.35377(3) -0.19814(6) 0.001525(7)
O1S O 0.26704(13) 0.05168(19) -0.07665(3)
O1T O -0.05168(19) 0.21536(14) -0.07665(3)
O1A O -0.26704(13) -0.05168(19) 0.07665(3)
O1B O 0.05168(19) -0.21536(14) 0.07665(3)
O1R O -0.21536(14) -0.26704(13) -0.07665(3)
O2S O 0.23271(16) 0.05101(21) -0.06395(3)
O2T O -0.05101(21) 0.18170(14) -0.06395(3)
O2A O -0.23271(16) -0.05101(21) 0.06395(3)
O2B O 0.05101(21) -0.18170(14) 0.06395(3)
O2R O -0.18170(14) -0.23271(16) -0.06395(3)
O3S O 0.42794(18) 0.23155(26) -0.01511(4)
O3B O 0.23155(26) -0.19639(19) 0.01511(4)
O3T O -0.23155(26) 0.19639(19) -0.01511(4)
O3R O -0.19639(19) -0.42794(18) -0.01511(4)
O3A O -0.42794(18) -0.23155(26) 0.01511(4)
O4S O 0.35914(18) 0.19226(26) -0.01493(4)
O4B O 0.19226(26) -0.16688(19) 0.01493(4)
O4T O -0.19226(26) 0.16688(19) -0.01493(4)
O4R O -0.16688(19) -0.35914(18) -0.01493(4)
O4A O -0.35914(18) -0.19226(26) 0.01493(4)
C1R C -0.2059(3) -0.3026(3) -0.06437(7)
C1A C -0.3026(3) -0.0967(4) 0.06437(7)
C1B C 0.0967(4) -0.2059(3) 0.06437(7)
C1T C -0.0967(4) 0.2059(3) -0.06437(7)
C1S C 0.3026(3) 0.0967(4) -0.06437(7)
C2R C -0.1910(2) -0.3014(3) -0.05479(6)
C2A C -0.3014(3) -0.1104(4) 0.05479(6)
C2B C 0.1104(4) -0.1910(2) 0.05479(6)
C2T C -0.1104(4) 0.1910(2) -0.05479(6)
C2S C 0.3014(3) 0.1104(4) -0.05479(6)
H1R H -0.1776 -0.2779 -0.0513
H1A H -0.2779 -0.1003 0.0513
H1B H 0.1003 -0.1776 0.0513
H1T H -0.1003 0.1776 -0.0513
H1S H 0.2779 0.1003 -0.0513
C3R C -0.1985(3) -0.3377(4) -0.05158(7)
C3A C -0.3377(4) -0.1392(5) 0.05158(7)
C3B C 0.1392(5) -0.1985(3) 0.05158(7)
C3T C -0.1392(5) 0.1985(3) -0.05158(7)
C3S C 0.3377(4) 0.1392(5) -0.05158(7)
C4R C -0.1957(3) -0.3588(3) -0.04302(8)
C4A C -0.3588(3) -0.1631(4) 0.04302(8)
C4B C 0.1631(4) -0.1957(3) 0.04302(8)
C4T C -0.1631(4) 0.1957(3) -0.04302(8)
C4S C 0.3588(3) 0.1631(4) -0.04302(8)
C5R C -0.1846(2) -0.3571(3) -0.03375(7)
C5A C -0.3571(3) -0.1725(4) 0.03375(7)
C5B C 0.1725(4) -0.1846(2) 0.03375(7)
C5T C -0.1725(4) 0.1846(2) -0.03375(7)
C5S C 0.3571(3) 0.1725(4) -0.03375(7)
H2R H -0.1714 -0.3329 -0.0305
H2A H -0.3329 -0.1615 0.0305
H2B H 0.1615 -0.1714 0.0305
H2T H -0.1615 0.1714 -0.0305
H2S H 0.3329 0.1615 -0.0305
C6R C -0.1944(3) -0.3947(4) -0.02935(7)
C6A C -0.3947(4) -0.2003(5) 0.02935(7)
C6B C 0.2003(5) -0.1944(3) 0.02935(7)
C6T C -0.2003(5) 0.1944(3) -0.02935(7)
C6S C 0.3947(4) 0.2003(5) -0.02935(7)
C7R C -0.2126(3) -0.4301(3) -0.03427(7)
C7A C -0.4301(3) -0.2175(4) 0.03427(7)
C7B C 0.2175(4) -0.2126(3) 0.03427(7)
C7T C -0.2175(4) 0.2126(3) -0.03427(7)
C7S C 0.4301(3) 0.2175(4) -0.03427(7)
H3R H -0.2179 -0.4536 -0.0312
H3A H -0.4536 -0.2357 0.0312
H3B H 0.2357 -0.2179 0.0312
H3T H -0.2357 0.2179 -0.0312
H3S H 0.4536 0.2357 -0.0312
C8R C -0.2234(3) -0.4322(3) -0.04375(8)
C8A C -0.4322(3) -0.2088(4) 0.04375(8)
C8B C 0.2088(4) -0.2234(3) 0.04375(8)
C8T C -0.2088(4) 0.2234(3) -0.04375(8)
C8S C 0.4322(3) 0.2088(4) -0.04375(8)
H4R H -0.2356 -0.4564 -0.0470
H4A H -0.4564 -0.2208 0.0470
H4B H 0.2208 -0.2356 0.0470
H4T H -0.2208 0.2356 -0.0470
H4S H 0.4564 0.2208 -0.0470
C9R C -0.2151(3) -0.3958(4) -0.04803(8)
C9A C -0.3958(4) -0.1807(5) 0.04803(8)
C9B C 0.1807(5) -0.2151(3) 0.04803(8)
C9T C -0.1807(5) 0.2151(3) -0.04803(8)
C9S C 0.3958(4) 0.1807(5) -0.04803(8)
C10R C -0.2168(3) -0.3718(3) -0.05671(8)
C10A C -0.3718(3) -0.1550(4) 0.05671(8)
C10B C 0.1550(4) -0.2168(3) 0.05671(8)
C10T C -0.1550(4) 0.2168(3) -0.05671(8)
C10S C 0.3718(3) 0.1550(4) -0.05671(8)
C11R C -0.2310(2) -0.3741(3) -0.06541(7)
C11A C -0.3741(3) -0.1431(4) 0.06541(7)
C11B C 0.1431(4) -0.2310(2) 0.06541(7)
C11T C -0.1431(4) 0.2310(2) -0.06541(7)
C11S C 0.3741(3) 0.1431(4) -0.06541(7)
H5R H -0.2442 -0.3981 -0.0688
H5A H -0.3981 -0.1539 0.0688
H5B H 0.1539 -0.2442 0.0688
H5T H -0.1539 0.2442 -0.0688
H5S H 0.3981 0.1539 -0.0688
C12R C -0.2249(2) -0.3391(3) -0.06891(5)
C12A C -0.3391(3) -0.1142(4) 0.06891(5)
C12B C 0.1142(4) -0.2249(2) 0.06891(5)
C12T C -0.1142(4) 0.2249(2) -0.06891(5)
C12S C 0.3391(3) 0.1142(4) -0.06891(5)
H6R H -0.2343 -0.3395 -0.0750
H6A H -0.3395 -0.1052 0.0750
H6B H 0.1052 -0.2343 0.0750
H6T H -0.1052 0.2343 -0.0750
H6S H 0.3395 0.1052 -0.0750
C13S C 0.2641(3) 0.0636(4) -0.06846(6)
C13T C -0.0636(4) 0.2005(2) -0.06846(6)
C13A C -0.2641(3) -0.0636(4) 0.06846(6)
C13B C 0.0636(4) -0.2005(2) 0.06846(6)
C13R C -0.2005(2) -0.2641(3) -0.06846(6)
C14S C 0.3937(3) 0.2107(4) -0.01867(6)
C14B C 0.2107(4) -0.1830(3) 0.01867(6)
C14T C -0.2107(4) 0.1830(3) -0.01867(6)
C14R C -0.1830(3) -0.3937(3) -0.01867(6)
C14A C -0.3937(3) -0.2107(4) 0.01867(6)
O5S O 0.16982(17) -0.03507(23) -0.08758(3)
O5T O 0.03507(23) 0.20489(16) -0.08758(3)
O5A O -0.16982(17) 0.03507(23) 0.08758(3)
O5B O -0.03507(23) -0.20489(16) 0.08758(3)
O5R O -0.20489(16) -0.16982(17) -0.08758(3)
O6S O 0.13416(14) -0.03714(21) -0.07471(4)
O6T O 0.03714(21) 0.17130(16) -0.07471(4)
O6A O -0.13416(14) 0.03714(21) 0.07471(4)
O6B O -0.03714(21) -0.17130(16) 0.07471(4)
O6R O -0.17130(16) -0.13416(14) -0.07471(4)
O7S O 0.20590(15) 0.04604(21) -0.08791(3)
O7T O -0.04604(21) 0.15986(14) -0.08791(3)
O7A O -0.20590(15) -0.04604(21) 0.08791(3)
O7B O 0.04604(21) -0.15986(14) 0.08791(3)
O7R O -0.15986(14) -0.20590(15) -0.08791(3)
O8S O 0.17183(13) 0.04590(19) -0.07538(3)
O8T O -0.04590(19) 0.12593(14) -0.07538(3)
O8A O -0.17183(13) -0.04590(19) 0.07538(3)
O8B O 0.04590(19) -0.12593(14) 0.07538(3)
O8R O -0.12593(14) -0.17183(13) -0.07538(3)
C15T C 0.0791(4) 0.1782(3) -0.08707(8)
C15B C -0.0791(4) -0.1782(3) 0.08707(8)
C15S C 0.0991(3) -0.0791(4) -0.08707(8)
C15R C -0.1782(3) -0.0991(3) -0.08707(8)
C15A C -0.0991(3) 0.0791(4) 0.08707(8)
C16T C 0.0922(4) 0.1521(2) -0.08292(5)
C16B C -0.0922(4) -0.1521(2) 0.08292(5)
C16S C 0.0599(3) -0.0922(4) -0.08292(5)
C16R C -0.1521(2) -0.0599(3) -0.08292(5)
C16A C -0.0599(3) 0.0922(4) 0.08292(5)
H7S H 0.0588 -0.0820 -0.0770
H7R H -0.1408 -0.0588 -0.0770
H7B H -0.0820 -0.1408 0.0770
H7A H -0.0588 0.0820 0.0770
H7T H 0.0820 0.1408 -0.0770
C17T C 0.1181(4) 0.1432(3) -0.08716(7)
C17B C -0.1181(4) -0.1432(3) 0.08716(7)
C17S C 0.0251(3) -0.1181(4) -0.08716(7)
C17R C -0.1432(3) -0.0251(3) -0.08716(7)
C17A C -0.0251(3) 0.1181(4) 0.08716(7)
C18T C 0.1405(4) 0.1233(3) -0.08711(7)
C18B C -0.1405(4) -0.1233(3) 0.08711(7)
C18S C -0.0172(2) -0.1405(4) -0.08711(7)
C18R C -0.1233(3) 0.0172(2) -0.08711(7)
C18A C 0.0172(2) 0.1405(4) 0.08711(7)
C19T C 0.1506(3) 0.0977(2) -0.08322(5)
C19B C -0.1506(3) -0.0977(2) 0.08322(5)
C19S C -0.0529(2) -0.1506(3) -0.08322(5)
C19R C -0.0977(2) 0.0529(2) -0.08322(5)
C19A C 0.0529(2) 0.1506(3) 0.08322(5)
H8S H -0.0533 -0.1403 -0.0773
H8R H -0.0870 0.0533 -0.0773
H8B H -0.1403 -0.0870 0.0773
H8A H 0.0533 0.1403 0.0773
H8T H 0.1403 0.0870 -0.0773
C20T C 0.1753(3) 0.0867(2) -0.08756(7)
C20B C -0.1753(3) -0.0867(2) 0.08756(7)
C20S C -0.0886(2) -0.1753(3) -0.08756(7)
C20R C -0.0867(2) 0.0886(2) -0.08756(7)
C20A C 0.0886(2) 0.1753(3) 0.08756(7)
C21T C 0.1905(4) 0.1024(3) -0.09706(6)
C21B C -0.1905(4) -0.1024(3) 0.09706(6)
C21S C -0.0881(3) -0.1905(4) -0.09706(6)
C21R C -0.1024(3) 0.0881(3) -0.09706(6)
C21A C 0.0881(3) 0.1905(4) 0.09706(6)
H9T H 0.2066 0.0943 -0.1002
H9B H -0.2066 -0.0943 0.1002
H9S H -0.1123 -0.2066 -0.1002
H9R H -0.0943 0.1123 -0.1002
H9A H 0.1123 0.2066 0.1002
C22T C 0.1812(6) 0.1297(4) -0.10163(7)
C22B C -0.1812(6) -0.1297(4) 0.10163(7)
C22S C -0.0515(4) -0.1812(6) -0.10163(7)
C22R C -0.1297(4) 0.0515(4) -0.10163(7)
C22A C 0.0515(4) 0.1812(6) 0.10163(7)
H10T H 0.1906 0.1398 -0.1076
H10B H -0.1906 -0.1398 0.1076
H10S H -0.0508 -0.1906 -0.1076
H10R H -0.1398 0.0508 -0.1076
H10A H 0.0508 0.1906 0.1076
C23T C 0.1589(5) 0.1395(3) -0.09691(7)
C23B C -0.1589(5) -0.1395(3) 0.09691(7)
C23S C -0.0194(4) -0.1589(5) -0.09691(7)
C23R C -0.1395(3) 0.0194(4) -0.09691(7)
C23A C 0.0194(4) 0.1589(5) 0.09691(7)
C24T C 0.1350(6) 0.1625(4) -0.09631(8)
C24B C -0.1350(6) -0.1625(4) 0.09631(8)
C24S C 0.0275(5) -0.1350(6) -0.09631(8)
C24R C -0.1625(4) -0.0275(5) -0.09631(8)
C24A C -0.0275(5) 0.1350(6) 0.09631(8)
C25T C 0.1205(6) 0.1859(3) -0.10040(7)
C25B C -0.1205(6) -0.1859(3) 0.10040(7)
C25S C 0.0654(5) -0.1205(6) -0.10040(7)
C25R C -0.1859(3) -0.0654(5) -0.10040(7)
C25A C -0.0654(5) 0.1205(6) 0.10040(7)
H11T H 0.1293 0.1963 -0.1064
H11B H -0.1293 -0.1963 0.1064
H11S H 0.0670 -0.1293 -0.1064
H11R H -0.1963 -0.0670 -0.1064
H11A H -0.0670 0.1293 0.1064
C26T C 0.0943(4) 0.1938(3) -0.09607(8)
C26B C -0.0943(4) -0.1938(3) 0.09607(8)
C26S C 0.0995(3) -0.0943(4) -0.09607(8)
C26R C -0.1938(3) -0.0995(3) -0.09607(8)
C26A C -0.0995(3) 0.0943(4) 0.09607(8)
H12T H 0.0860 0.2100 -0.0991
H12B H -0.0860 -0.2100 0.0991
H12S H 0.1240 -0.0860 -0.0991
H12R H -0.2100 -0.1240 -0.0991
H12A H -0.1240 0.0860 0.0991
C27S C 0.1389(3) -0.0472(4) -0.08285(7)
C27T C 0.0472(4) 0.1861(3) -0.08285(7)
C27A C -0.1389(3) 0.0472(4) 0.08285(7)
C27B C -0.0472(4) -0.1861(3) 0.08285(7)
C27R C -0.1861(3) -0.1389(3) -0.08285(7)
C28S C 0.1855(3) 0.0585(4) -0.08370(6)
C28T C -0.0585(4) 0.1270(3) -0.08370(6)
C28A C -0.1855(3) -0.0585(4) 0.08370(6)
C28B C 0.0585(4) -0.1270(3) 0.08370(6)
C28R C -0.1270(3) -0.1855(3) -0.08370(6)
O9S O 0.4239(2) 0.2865(4) -0.00389(6)
O9B O 0.2865(4) -0.1374(3) 0.00389(6)
O9T O -0.2865(4) 0.1374(3) -0.00389(6)
O9R O -0.1374(3) -0.4239(2) -0.00389(6)
O9A O -0.4239(2) -0.2865(4) 0.00389(6)
O10S O 0.3580(2) 0.25111(28) -0.00367(4)
O10B O 0.25111(28) -0.10689(19) 0.00367(4)
O10T O -0.25111(28) 0.10689(19) -0.00367(4)
O10R O -0.10689(19) -0.3580(2) -0.00367(4)
O10A O -0.3580(2) -0.25111(28) 0.00367(4)
O11S O 0.4305(2) 0.1915(3) 0.00031(4)
O11B O 0.1915(3) -0.2390(2) -0.00031(4)
O11T O -0.1915(3) 0.2390(2) 0.00031(4)
O11R O -0.2390(2) -0.4305(2) 0.00031(4)
O11A O -0.4305(2) -0.1915(3) -0.00031(4)
O12S O 0.3630(2) 0.1543(3) 0.00061(4)
O12B O 0.1543(3) -0.2087(2) -0.00061(4)
O12T O -0.1543(3) 0.2087(2) 0.00061(4)
O12R O -0.2087(2) -0.3630(2) 0.00061(4)
O12A O -0.3630(2) -0.1543(3) -0.00061(4)
C29B C 0.3710(4) 0.0535(2) 0.00371(5)
C29S C 0.3175(3) 0.3710(4) -0.00371(5)
C29A C -0.3175(3) -0.3710(4) 0.00371(5)
C29T C -0.3710(4) -0.0535(2) -0.00371(5)
C29R C 0.0535(2) -0.3175(3) -0.00371(5)
C30B C 0.3677(4) 0.0869(3) 0.00271(4)
C30S C 0.2808(2) 0.3677(4) -0.00271(4)
C30A C -0.2808(2) -0.3677(4) 0.00271(4)
C30T C -0.3677(4) -0.0869(3) -0.00271(4)
C30R C 0.0869(3) -0.2808(2) -0.00271(4)
H13S H 0.2585 0.3420 -0.0023
H13T H -0.3420 -0.0835 -0.0023
H13A H -0.2585 -0.3420 0.0023
H13R H 0.0835 -0.2585 -0.0023
H13B H 0.3420 0.0835 0.0023
C31B C 0.3980(3) 0.1230(2) 0.00233(5)
C31S C 0.2750(2) 0.3980(3) -0.00233(5)
C31A C -0.2750(2) -0.3980(3) 0.00233(5)
C31T C -0.3980(3) -0.1230(2) -0.00233(5)
C31R C 0.1230(2) -0.2750(2) -0.00233(5)
C32B C 0.4376(4) 0.1263(2) 0.00319(5)
C32S C 0.3113(3) 0.4376(4) -0.00319(5)
C32A C -0.3113(3) -0.4376(4) 0.00319(5)
C32T C -0.4376(4) -0.1263(2) -0.00319(5)
C32R C 0.1263(2) -0.3113(3) -0.00319(5)
H14B H 0.4614 0.1509 0.0029
H14S H 0.3105 0.4614 -0.0029
H14A H -0.3105 -0.4614 0.0029
H14T H -0.4614 -0.1509 -0.0029
H14R H 0.1509 -0.3105 -0.0029
C33B C 0.4372(4) 0.0859(3) 0.00464(5)
C33S C 0.3513(2) 0.4372(4) -0.00464(5)
C33A C -0.3513(2) -0.4372(4) 0.00464(5)
C33T C -0.4372(4) -0.0859(3) -0.00464(5)
C33R C 0.0859(3) -0.3513(2) -0.00464(5)
H15B H 0.4631 0.0898 0.0051
H15S H 0.3733 0.4631 -0.0051
H15A H -0.3733 -0.4631 0.0051
H15T H -0.4631 -0.0898 -0.0051
H15R H 0.0898 -0.3733 -0.0051
C34B C 0.4050(3) 0.0413(2) 0.00552(7)
C34S C 0.3637(2) 0.4050(3) -0.00552(7)
C34A C -0.3637(2) -0.4050(3) 0.00552(7)
C34T C -0.4050(3) -0.0413(2) -0.00552(7)
C34R C 0.0413(2) -0.3637(2) -0.00552(7)
C35B C 0.3875(4) 0.0017(2) 0.00557(6)
C35S C 0.3858(3) 0.3875(4) -0.00557(6)
C35A C -0.3858(3) -0.3875(4) 0.00557(6)
C35T C -0.3875(4) -0.0017(2) -0.00557(6)
C35R C 0.0017(2) -0.3858(3) -0.00557(6)
C36B C 0.3890(4) -0.0305(3) 0.00473(7)
C36S C 0.4195(2) 0.3890(4) -0.00473(7)
C36A C -0.4195(2) -0.3890(4) 0.00473(7)
C36T C -0.3890(4) 0.0305(3) -0.00473(7)
C36R C -0.0305(3) -0.4195(2) -0.00473(7)
H16B H 0.4132 -0.0301 0.0037
H16S H 0.4433 0.4132 -0.0037
H16A H -0.4433 -0.4132 0.0037
H16T H -0.4132 0.0301 -0.0037
H16R H -0.0301 -0.4433 -0.0037
C37B C 0.3559(3) -0.0632(2) 0.00535(6)
C37S C 0.4191(2) 0.3559(3) -0.00535(6)
C37A C -0.4191(2) -0.3559(3) 0.00535(6)
C37T C -0.3559(3) 0.0632(2) -0.00535(6)
C37R C -0.0632(2) -0.4191(2) -0.00535(6)
H17B H 0.3565 -0.0868 0.0064
H17S H 0.4433 0.3565 -0.0064
H17A H -0.4433 -0.3565 0.0064
H17T H -0.3565 0.0868 -0.0064
H17R H -0.0868 -0.4433 -0.0064
C38B C 0.3199(4) -0.0658(2) 0.00459(6)
C38S C 0.3857(3) 0.3199(4) -0.00459(6)
C38A C -0.3857(3) -0.3199(4) 0.00459(6)
C38T C -0.3199(4) 0.0658(2) -0.00459(6)
C38R C -0.0658(2) -0.3857(3) -0.00459(6)
C39B C 0.3187(4) -0.0290(3) 0.00411(5)
C39S C 0.3477(2) 0.3187(4) -0.00411(5)
C39A C -0.3477(2) -0.3187(4) 0.00411(5)
C39T C -0.3187(4) 0.0290(3) -0.00411(5)
C39R C -0.0290(3) -0.3477(2) -0.00411(5)
H18B H 0.2939 -0.0305 0.0035
H18S H 0.3244 0.2939 -0.0035
H18A H -0.3244 -0.2939 0.0035
H18T H -0.2939 0.0305 -0.0035
H18R H -0.0305 -0.3244 -0.0035
C40B C 0.3529(3) 0.0084(2) 0.00446(6)
C40S C 0.3445(2) 0.3529(3) -0.00446(6)
C40A C -0.3445(2) -0.3529(3) 0.00446(6)
C40T C -0.3529(3) -0.0084(2) -0.00446(6)
C40R C 0.0084(2) -0.3445(2) -0.00446(6)
C41S C 0.3927(4) 0.2869(6) -0.00401(9)
C41B C 0.2869(6) -0.1058(5) 0.00401(9)
C41T C -0.2869(6) 0.1058(5) -0.00401(9)
C41R C -0.1058(5) -0.3927(4) -0.00401(9)
C41A C -0.3927(4) -0.2869(6) 0.00401(9)
C42S C 0.3981(4) 0.1579(5) 0.00105(6)
C42B C 0.1579(5) -0.2402(3) -0.00105(6)
C42T C -0.1579(5) 0.2402(3) 0.00105(6)
C42R C -0.2402(3) -0.3981(4) 0.00105(6)
C42A C -0.3981(4) -0.1579(5) -0.00105(6)
O13S O 0.4280(2) 0.2472(3) 0.01202(4)
O13B O 0.2472(3) -0.1808(2) -0.01202(4)
O13T O -0.2472(3) 0.1808(2) 0.01202(4)
O13R O -0.1808(2) -0.4280(2) 0.01202(4)
O13A O -0.4280(2) -0.2472(3) -0.01202(4)
O14S O 0.3603(2) 0.2100(3) 0.01211(4)
O14B O 0.2100(3) -0.1503(2) -0.01211(4)
O14T O -0.2100(3) 0.1503(2) 0.01211(4)
O14R O -0.1503(2) -0.3603(2) 0.01211(4)
O14A O -0.3603(2) -0.2100(3) -0.01211(4)
O15S O 0.22685(14) -0.03286(19) -0.07563(4)
O15T O 0.03286(19) 0.25971(13) -0.07563(4)
O15A O -0.22685(14) 0.03286(19) 0.07563(4)
O15B O -0.03286(19) -0.25971(13) 0.07563(4)
O15R O -0.25971(13) -0.22685(14) -0.07563(4)
O16S O 0.19362(16) -0.03156(23) -0.06287(3)
O16T O 0.03156(23) 0.22518(17) -0.06287(3)
O16A O -0.19362(16) 0.03156(23) 0.06287(3)
O16B O -0.03156(23) -0.22518(17) 0.06287(3)
O16R O -0.22518(17) -0.19362(16) -0.06287(3)
C43S C 0.3919(3) 0.2372(5) 0.02624(8)
C43B C 0.2372(5) -0.1547(4) -0.02624(8)
C43T C -0.2372(5) 0.1547(4) 0.02624(8)
C43R C -0.1547(4) -0.3919(3) 0.02624(8)
C43A C -0.3919(3) -0.2372(5) -0.02624(8)
C44S C 0.3546(3) 0.2249(4) 0.03032(8)
C44B C 0.2249(4) -0.1297(3) -0.03032(8)
C44T C -0.2249(4) 0.1297(3) 0.03032(8)
C44R C -0.1297(3) -0.3546(3) 0.03032(8)
C44A C -0.3546(3) -0.2249(4) -0.03032(8)
H19B H 0.2119 -0.1190 -0.0268
H19T H -0.2119 0.1190 0.0268
H19A H -0.3309 -0.2119 -0.0268
H19R H -0.1190 -0.3309 0.0268
H19S H 0.3309 0.2119 0.0268
C45S C 0.3545(3) 0.2327(4) 0.03961(10)
C45B C 0.2327(4) -0.1218(3) -0.03961(10)
C45T C -0.2327(4) 0.1218(3) 0.03961(10)
C45R C -0.1218(3) -0.3545(3) 0.03961(10)
C45A C -0.3545(3) -0.2327(4) -0.03961(10)
C46S C 0.3322(3) 0.2303(5) 0.04890(7)
C46B C 0.2303(5) -0.1019(4) -0.04890(7)
C46T C -0.2303(5) 0.1019(4) 0.04890(7)
C46R C -0.1019(4) -0.3322(3) 0.04890(7)
C46A C -0.3322(3) -0.2303(5) -0.04890(7)
C47S C 0.2961(3) 0.2158(4) 0.05273(7)
C47B C 0.2158(4) -0.0803(3) -0.05273(7)
C47T C -0.2158(4) 0.0803(3) 0.05273(7)
C47R C -0.0803(3) -0.2961(3) 0.05273(7)
C47A C -0.2961(3) -0.2158(4) -0.05273(7)
H20B H 0.2009 -0.0710 -0.0495
H20T H -0.2009 0.0710 0.0495
H20A H -0.2719 -0.2009 -0.0495
H20R H -0.0710 -0.2719 0.0495
H20S H 0.2719 0.2009 0.0495
C48S C 0.2999(3) 0.2269(5) 0.06292(9)
C48B C 0.2269(5) -0.0730(4) -0.06292(9)
C48T C -0.2269(5) 0.0730(4) 0.06292(9)
C48R C -0.0730(4) -0.2999(3) 0.06292(9)
C48A C -0.2999(3) -0.2269(5) -0.06292(9)
C49S C 0.3350(4) 0.2482(6) 0.06757(8)
C49B C 0.2482(6) -0.0868(4) -0.06757(8)
C49T C -0.2482(6) 0.0868(4) 0.06757(8)
C49R C -0.0868(4) -0.3350(4) 0.06757(8)
C49A C -0.3350(4) -0.2482(6) -0.06757(8)
H21S H 0.3348 0.2538 0.0739
H21B H 0.2538 -0.0810 -0.0739
H21T H -0.2538 0.0810 0.0739
H21R H -0.0810 -0.3348 0.0739
H21A H -0.3348 -0.2538 -0.0739
C50S C 0.3719(4) 0.2620(6) 0.06295(10)
C50B C 0.2620(6) -0.1099(4) -0.06295(10)
C50T C -0.2620(6) 0.1099(4) 0.06295(10)
C50R C -0.1099(4) -0.3719(4) 0.06295(10)
C50A C -0.3719(4) -0.2620(6) -0.06295(10)
H22S H 0.3963 0.2766 0.0661
H22B H 0.2766 -0.1197 -0.0661
H22T H -0.2766 0.1197 0.0661
H22R H -0.1197 -0.3963 0.0661
H22A H -0.3963 -0.2766 -0.0661
C51S C 0.3703(4) 0.2529(6) 0.05359(9)
C51B C 0.2529(6) -0.1174(4) -0.05359(9)
C51T C -0.2529(6) 0.1174(4) 0.05359(9)
C51R C -0.1174(4) -0.3703(4) 0.05359(9)
C51A C -0.3703(4) -0.2529(6) -0.05359(9)
C52S C 0.3907(4) 0.2536(6) 0.04512(9)
C52B C 0.2536(6) -0.1371(5) -0.04512(9)
C52T C -0.2536(6) 0.1371(5) 0.04512(9)
C52R C -0.1371(5) -0.3907(4) 0.04512(9)
C52A C -0.3907(4) -0.2536(6) -0.04512(9)
C53S C 0.4279(4) 0.2675(6) 0.04113(10)
C53B C 0.2675(6) -0.1604(4) -0.04113(10)
C53T C -0.2675(6) 0.1604(4) 0.04113(10)
C53R C -0.1604(4) -0.4279(4) 0.04113(10)
C53A C -0.4279(4) -0.2675(6) -0.04113(10)
H23S H 0.4516 0.2814 0.0446
H23B H 0.2814 -0.1702 -0.0446
H23T H -0.2814 0.1702 0.0446
H23R H -0.1702 -0.4516 0.0446
H23A H -0.4516 -0.2814 -0.0446
C54S C 0.4277(4) 0.2591(6) 0.03120(9)
C54B C 0.2591(6) -0.1686(4) -0.03120(9)
C54T C -0.2591(6) 0.1686(4) 0.03120(9)
C54R C -0.1686(4) -0.4277(4) 0.03120(9)
C54A C -0.4277(4) -0.2591(6) -0.03120(9)
H24S H 0.4520 0.2685 0.0281
H24B H 0.2685 -0.1835 -0.0281
H24T H -0.2685 0.1835 0.0281
H24R H -0.1835 -0.4520 0.0281
H24A H -0.4520 -0.2685 -0.0281
C55S C 0.3956(3) 0.2313(5) 0.01583(8)
C55B C 0.2313(5) -0.1643(4) -0.01583(8)
C55T C -0.2313(5) 0.1643(4) 0.01583(8)
C55R C -0.1643(4) -0.3956(3) 0.01583(8)
C55A C -0.3956(3) -0.2313(5) -0.01583(8)
C56S C 0.2143(2) -0.0443(4) -0.06689(6)
C56T C 0.0443(4) 0.2586(4) -0.06689(6)
C56A C -0.2143(2) 0.0443(4) 0.06689(6)
C56B C -0.0443(4) -0.2586(4) 0.06689(6)
C56R C -0.2586(4) -0.2143(2) -0.06689(6)
O17R O -0.25021(14) -0.25659(14) -0.09547(3)
O17B O 0.00638(20) -0.25021(14) 0.09547(3)
O17A O -0.25659(14) -0.00638(20) 0.09547(3)
O17T O -0.00638(20) 0.25021(14) -0.09547(3)
O17S O 0.25659(14) 0.00638(20) -0.09547(3)
O18S O 0.14623(15) 0.00655(22) -0.05536(3)
O18T O -0.00655(22) 0.13968(16) -0.05536(3)
O18A O -0.14623(15) -0.00655(22) 0.05536(3)
O18B O 0.00655(22) -0.13968(16) 0.05536(3)
O18R O -0.13968(16) -0.14623(15) -0.05536(3)
O19A O -0.49955(17) -0.28075(26) 0.00191(4)
O19R O -0.2188(2) -0.49955(17) -0.00191(4)
O19T O -0.28075(26) 0.2188(2) -0.00191(4)
O19B O 0.28075(26) -0.2188(2) 0.00191(4)
O19S O 0.49955(17) 0.28075(26) -0.00191(4)
O20S O 0.28703(16) 0.16125(23) -0.00110(4)
O20B O 0.16125(23) -0.12578(17) 0.00110(4)
O20T O -0.16125(23) 0.12578(17) -0.00110(4)
O20R O -0.12578(17) -0.28703(16) -0.00110(4)
O20A O -0.28703(16) -0.16125(23) 0.00110(4)
loop_
_geom_bond_atom_site_label_1
_geom_bond_atom_site_label_2
_geom_bond_site_symmetry_1
_geom_bond_site_symmetry_2
Cu1 O1 1_555 1_555
Cu2 O2 1_555 1_555
Cu3 O3 1_555 1_555
Cu4 O4 1_555 1_555
O1 C13 1_555 1_555
O2 C13 1_555 1_555
O3 C14 1_555 1_555
O4 C14 1_555 1_555
C1 C2 1_555 1_555
C2 H1 1_555 1_555
C3 C2 1_555 1_555
C4 C3 1_555 1_555
C5 C4 1_555 1_555
H2 C5 1_555 1_555
C6 C5 1_555 1_555
C7 C6 1_555 1_555
H3 C7 1_555 1_555
C8 C7 1_555 1_555
H4 C8 1_555 1_555
C9 C4 1_555 1_555
C10 C3 1_555 1_555
C11 C10 1_555 1_555
H5 C11 1_555 1_555
C12 C1 1_555 1_555
H6 C12 1_555 1_555
C13 C1 1_555 1_555
C14 C6 1_555 1_555
O5 Cu1 1_555 1_555
O6 Cu2 1_555 1_555
O7 Cu1 1_555 1_555
O8 Cu2 1_555 1_555
C15 C16 1_555 1_555
C16 H7 1_555 1_555
C17 C16 1_555 1_555
C18 C17 1_555 1_555
C19 C18 1_555 1_555
H8 C19 1_555 1_555
C20 C19 1_555 1_555
C21 C20 1_555 1_555
H9 C21 1_555 1_555
C22 C21 1_555 1_555
H10 C22 1_555 1_555
C23 C18 1_555 1_555
C24 C17 1_555 1_555
C25 C24 1_555 1_555
H11 C25 1_555 1_555
C26 C15 1_555 1_555
H12 C26 1_555 1_555
C27 O5 1_555 1_555
C28 O7 1_555 1_555
O9 Cu3 1_555 1_555
O10 Cu4 1_555 1_555
O11 Cu3 1_555 1_555
O12 Cu4 1_555 1_555
C29 C30 1_555 1_555
C30 H13 1_555 1_555
C31 C30 1_555 1_555
C32 C31 1_555 1_555
H14 C32 1_555 1_555
C33 C32 1_555 1_555
H15 C33 1_555 1_555
C34 C29 1_555 1_555
C35 C34 1_555 1_555
C36 C35 1_555 1_555
H16 C36 1_555 1_555
C37 C36 1_555 1_555
H17 C37 1_555 1_555
C38 C37 1_555 1_555
C39 C38 1_555 1_555
H18 C39 1_555 1_555
C40 C29 1_555 1_555
C41 O9 1_555 1_555
C42 O11 1_555 1_555
O13 Cu3 1_555 1_555
O14 Cu4 1_555 1_555
O15 Cu1 1_555 1_555
O16 Cu2 1_555 1_555
C43 C44 1_555 1_555
C44 H19 1_555 1_555
C45 C44 1_555 1_555
C46 C45 1_555 1_555
C47 C46 1_555 1_555
H20 C47 1_555 1_555
C48 C47 1_555 1_555
C49 C48 1_555 1_555
H21 C49 1_555 1_555
C50 C49 1_555 1_555
H22 C50 1_555 1_555
C51 C46 1_555 1_555
C52 C45 1_555 1_555
C53 C52 1_555 1_555
H23 C53 1_555 1_555
C54 C43 1_555 1_555
H24 C54 1_555 1_555
C55 O13 1_555 1_555
C56 O15 1_555 1_555
O17 Cu1 1_555 1_555
O18 Cu2 1_555 1_555
O19 Cu3 1_555 1_555
O20 Cu4 1_555 1_555
Cu1S O1S 1_555 1_555
Cu1T O1T 1_555 1_555
Cu1A O1A 1_555 1_555
Cu1B O1B 1_555 1_555
Cu1R O1R 1_555 1_555
Cu2S O2S 1_555 1_555
Cu2T O2T 1_555 1_555
Cu2A O2A 1_555 1_555
Cu2B O2B 1_555 1_555
Cu2R O2R 1_555 1_555
Cu3S O3S 1_555 1_555
Cu3B O3B 1_555 1_555
Cu3T O3T 1_555 1_555
Cu3R O3R 1_555 1_555
Cu3A O3A 1_555 1_555
Cu4S O4S 1_555 1_555
Cu4B O4B 1_555 1_555
Cu4T O4T 1_555 1_555
Cu4R O4R 1_555 1_555
Cu4A O4A 1_555 1_555
O1S C13S 1_555 1_555
O1T C13T 1_555 1_555
O1A C13A 1_555 1_555
O1B C13B 1_555 1_555
O1R C13R 1_555 1_555
O2S C13S 1_555 1_555
O2T C13T 1_555 1_555
O2A C13A 1_555 1_555
O2B C13B 1_555 1_555
O2R C13R 1_555 1_555
O3S C14S 1_555 1_555
O3B C14B 1_555 1_555
O3T C14T 1_555 1_555
O3R C14R 1_555 1_555
O3A C14A 1_555 1_555
O4S C14S 1_555 1_555
O4B C14B 1_555 1_555
O4T C14T 1_555 1_555
O4R C14R 1_555 1_555
O4A C14A 1_555 1_555
C1R C2R 1_555 1_555
C1A C2A 1_555 1_555
C1B C2B 1_555 1_555
C1T C2T 1_555 1_555
C1S C2S 1_555 1_555
C2R H1R 1_555 1_555
C2A H1A 1_555 1_555
C2B H1B 1_555 1_555
C2T H1T 1_555 1_555
C2S H1S 1_555 1_555
C3R C2R 1_555 1_555
C3A C2A 1_555 1_555
C3B C2B 1_555 1_555
C3T C2T 1_555 1_555
C3S C2S 1_555 1_555
C4R C3R 1_555 1_555
C4A C3A 1_555 1_555
C4B C3B 1_555 1_555
C4T C3T 1_555 1_555
C4S C3S 1_555 1_555
C5R C4R 1_555 1_555
C5A C4A 1_555 1_555
C5B C4B 1_555 1_555
C5T C4T 1_555 1_555
C5S C4S 1_555 1_555
H2R C5R 1_555 1_555
H2A C5A 1_555 1_555
H2B C5B 1_555 1_555
H2T C5T 1_555 1_555
H2S C5S 1_555 1_555
C6R C5R 1_555 1_555
C6A C5A 1_555 1_555
C6B C5B 1_555 1_555
C6T C5T 1_555 1_555
C6S C5S 1_555 1_555
C7R C6R 1_555 1_555
C7A C6A 1_555 1_555
C7B C6B 1_555 1_555
C7T C6T 1_555 1_555
C7S C6S 1_555 1_555
H3R C7R 1_555 1_555
H3A C7A 1_555 1_555
H3B C7B 1_555 1_555
H3T C7T 1_555 1_555
H3S C7S 1_555 1_555
C8R C7R 1_555 1_555
C8A C7A 1_555 1_555
C8B C7B 1_555 1_555
C8T C7T 1_555 1_555
C8S C7S 1_555 1_555
H4R C8R 1_555 1_555
H4A C8A 1_555 1_555
H4B C8B 1_555 1_555
H4T C8T 1_555 1_555
H4S C8S 1_555 1_555
C9R C4R 1_555 1_555
C9A C4A 1_555 1_555
C9B C4B 1_555 1_555
C9T C4T 1_555 1_555
C9S C4S 1_555 1_555
C10R C3R 1_555 1_555
C10A C3A 1_555 1_555
C10B C3B 1_555 1_555
C10T C3T 1_555 1_555
C10S C3S 1_555 1_555
C11R C10R 1_555 1_555
C11A C10A 1_555 1_555
C11B C10B 1_555 1_555
C11T C10T 1_555 1_555
C11S C10S 1_555 1_555
H5R C11R 1_555 1_555
H5A C11A 1_555 1_555
H5B C11B 1_555 1_555
H5T C11T 1_555 1_555
H5S C11S 1_555 1_555
C12R C1R 1_555 1_555
C12A C1A 1_555 1_555
C12B C1B 1_555 1_555
C12T C1T 1_555 1_555
C12S C1S 1_555 1_555
H6R C12R 1_555 1_555
H6A C12A 1_555 1_555
H6B C12B 1_555 1_555
H6T C12T 1_555 1_555
H6S C12S 1_555 1_555
C13S C1S 1_555 1_555
C13T C1T 1_555 1_555
C13A C1A 1_555 1_555
C13B C1B 1_555 1_555
C13R C1R 1_555 1_555
C14S C6S 1_555 1_555
C14B C6B 1_555 1_555
C14T C6T 1_555 1_555
C14R C6R 1_555 1_555
C14A C6A 1_555 1_555
O5S Cu1S 1_555 1_555
O5T Cu1T 1_555 1_555
O5A Cu1A 1_555 1_555
O5B Cu1B 1_555 1_555
O5R Cu1R 1_555 1_555
O6S Cu2S 1_555 1_555
O6T Cu2T 1_555 1_555
O6A Cu2A 1_555 1_555
O6B Cu2B 1_555 1_555
O6R Cu2R 1_555 1_555
O7S Cu1S 1_555 1_555
O7T Cu1T 1_555 1_555
O7A Cu1A 1_555 1_555
O7B Cu1B 1_555 1_555
O7R Cu1R 1_555 1_555
O8S Cu2S 1_555 1_555
O8T Cu2T 1_555 1_555
O8A Cu2A 1_555 1_555
O8B Cu2B 1_555 1_555
O8R Cu2R 1_555 1_555
C15T C16T 1_555 1_555
C15B C16B 1_555 1_555
C15S C16S 1_555 1_555
C15R C16R 1_555 1_555
C15A C16A 1_555 1_555
C16T H7T 1_555 1_555
C16B H7B 1_555 1_555
C16S H7S 1_555 1_555
C16R H7R 1_555 1_555
C16A H7A 1_555 1_555
C17T C16T 1_555 1_555
C17B C16B 1_555 1_555
C17S C16S 1_555 1_555
C17R C16R 1_555 1_555
C17A C16A 1_555 1_555
C18T C17T 1_555 1_555
C18B C17B 1_555 1_555
C18S C17S 1_555 1_555
C18R C17R 1_555 1_555
C18A C17A 1_555 1_555
C19T C18T 1_555 1_555
C19B C18B 1_555 1_555
C19S C18S 1_555 1_555
C19R C18R 1_555 1_555
C19A C18A 1_555 1_555
H8S C19S 1_555 1_555
H8R C19R 1_555 1_555
H8B C19B 1_555 1_555
H8A C19A 1_555 1_555
H8T C19T 1_555 1_555
C20T C19T 1_555 1_555
C20B C19B 1_555 1_555
C20S C19S 1_555 1_555
C20R C19R 1_555 1_555
C20A C28 1_555 1_555
C21T C20T 1_555 1_555
C21B C20B 1_555 1_555
C21S C20S 1_555 1_555
C21R C20R 1_555 1_555
C21A C20A 1_555 1_555
H9T C21T 1_555 1_555
H9B C21B 1_555 1_555
H9S C21S 1_555 1_555
H9R C21R 1_555 1_555
H9A C21A 1_555 1_555
C22T C21T 1_555 1_555
C22B C21B 1_555 1_555
C22S C21S 1_555 1_555
C22R C21R 1_555 1_555
C22A C21A 1_555 1_555
H10T C22T 1_555 1_555
H10B C22B 1_555 1_555
H10S C22S 1_555 1_555
H10R C22R 1_555 1_555
H10A C22A 1_555 1_555
C23T C18T 1_555 1_555
C23B C18B 1_555 1_555
C23S C18S 1_555 1_555
C23R C18R 1_555 1_555
C23A C18A 1_555 1_555
C24T C17T 1_555 1_555
C24B C17B 1_555 1_555
C24S C17S 1_555 1_555
C24R C17R 1_555 1_555
C24A C17A 1_555 1_555
C25T C24T 1_555 1_555
C25B C24B 1_555 1_555
C25S C24S 1_555 1_555
C25R C24R 1_555 1_555
C25A C24A 1_555 1_555
H11T C25T 1_555 1_555
H11B C25B 1_555 1_555
H11S C25S 1_555 1_555
H11R C25R 1_555 1_555
H11A C25A 1_555 1_555
C26T C15T 1_555 1_555
C26B C15B 1_555 1_555
C26S C15S 1_555 1_555
C26R C15R 1_555 1_555
C26A C15A 1_555 1_555
H12T C26T 1_555 1_555
H12B C26B 1_555 1_555
H12S C26S 1_555 1_555
H12R C26R 1_555 1_555
H12A C26A 1_555 1_555
C27S O5S 1_555 1_555
C27T O5T 1_555 1_555
C27A O5A 1_555 1_555
C27B O5B 1_555 1_555
C27R O5R 1_555 1_555
C28S O7S 1_555 1_555
C28T O7T 1_555 1_555
C28A O7A 1_555 1_555
C28B C20 1_555 1_555
C28R O7R 1_555 1_555
O9S Cu3S 1_555 1_555
O9B Cu3B 1_555 1_555
O9T Cu3T 1_555 1_555
O9R Cu3R 1_555 1_555
O9A Cu3A 1_555 1_555
O10S Cu4S 1_555 1_555
O10B Cu4B 1_555 1_555
O10T Cu4T 1_555 1_555
O10R Cu4R 1_555 1_555
O10A Cu4A 1_555 1_555
O11S Cu3S 1_555 1_555
O11B Cu3B 1_555 1_555
O11T Cu3T 1_555 1_555
O11R Cu3R 1_555 1_555
O11A Cu3A 1_555 1_555
O12S Cu4S 1_555 1_555
O12B Cu4B 1_555 1_555
O12T Cu4T 1_555 1_555
O12R Cu4R 1_555 1_555
O12A Cu4A 1_555 1_555
C29B C30B 1_555 1_555
C29S C30S 1_555 1_555
C29A C30A 1_555 1_555
C29T C30T 1_555 1_555
C29R C30R 1_555 1_555
C30B H13B 1_555 1_555
C30S H13S 1_555 1_555
C30A H13A 1_555 1_555
C30T H13T 1_555 1_555
C30R H13R 1_555 1_555
C31B C30B 1_555 1_555
C31S C42 1_555 1_555
C31A C30A 1_555 1_555
C31T C30T 1_555 1_555
C31R C30R 1_555 1_555
C32B C31B 1_555 1_555
C32S C31S 1_555 1_555
C32A C31A 1_555 1_555
C32T C31T 1_555 1_555
C32R C31R 1_555 1_555
H14B C32B 1_555 1_555
H14S C32S 1_555 1_555
H14A C32A 1_555 1_555
H14T C32T 1_555 1_555
H14R C32R 1_555 1_555
C33B C32B 1_555 1_555
C33S C32S 1_555 1_555
C33A C32A 1_555 1_555
C33T C32T 1_555 1_555
C33R C32R 1_555 1_555
H15B C33B 1_555 1_555
H15S C33S 1_555 1_555
H15A C33A 1_555 1_555
H15T C33T 1_555 1_555
H15R C33R 1_555 1_555
C34B C29B 1_555 1_555
C34S C29S 1_555 1_555
C34A C29A 1_555 1_555
C34T C29T 1_555 1_555
C34R C29R 1_555 1_555
C35B C34B 1_555 1_555
C35S C34S 1_555 1_555
C35A C34A 1_555 1_555
C35T C34T 1_555 1_555
C35R C34R 1_555 1_555
C36B C35B 1_555 1_555
C36S C35S 1_555 1_555
C36A C35A 1_555 1_555
C36T C35T 1_555 1_555
C36R C35R 1_555 1_555
H16B C36B 1_555 1_555
H16S C36S 1_555 1_555
H16A C36A 1_555 1_555
H16T C36T 1_555 1_555
H16R C36R 1_555 1_555
C37B C36B 1_555 1_555
C37S C36S 1_555 1_555
C37A C36A 1_555 1_555
C37T C36T 1_555 1_555
C37R C36R 1_555 1_555
H17B C37B 1_555 1_555
H17S C37S 1_555 1_555
H17A C37A 1_555 1_555
H17T C37T 1_555 1_555
H17R C37R 1_555 1_555
C38B C37B 1_555 1_555
C38S C37S 1_555 1_555
C38A C37A 1_555 1_555
C38T C37T 1_555 1_555
C38R C37R 1_555 1_555
C39B C38B 1_555 1_555
C39S C38S 1_555 1_555
C39A C38A 1_555 1_555
C39T C38T 1_555 1_555
C39R C38R 1_555 1_555
H18B C39B 1_555 1_555
H18S C39S 1_555 1_555
H18A C39A 1_555 1_555
H18T C39T 1_555 1_555
H18R C39R 1_555 1_555
C40B C29B 1_555 1_555
C40S C29S 1_555 1_555
C40A C29A 1_555 1_555
C40T C29T 1_555 1_555
C40R C29R 1_555 1_555
C41S O9S 1_555 1_555
C41B O9B 1_555 1_555
C41T O9T 1_555 1_555
C41R O9R 1_555 1_555
C41A O9A 1_555 1_555
C42S O11S 1_555 1_555
C42B O11B 1_555 1_555
C42T C31 1_555 1_555
C42R O11R 1_555 1_555
C42A O11A 1_555 1_555
O13S Cu3S 1_555 1_555
O13B Cu3B 1_555 1_555
O13T Cu3T 1_555 1_555
O13R Cu3R 1_555 1_555
O13A Cu3A 1_555 1_555
O14S Cu4S 1_555 1_555
O14B Cu4B 1_555 1_555
O14T Cu4T 1_555 1_555
O14R Cu4R 1_555 1_555
O14A Cu4A 1_555 1_555
O15S Cu1S 1_555 1_555
O15T Cu1T 1_555 1_555
O15A Cu1A 1_555 1_555
O15B Cu1B 1_555 1_555
O15R Cu1R 1_555 1_555
O16S Cu2S 1_555 1_555
O16T Cu2T 1_555 1_555
O16A Cu2A 1_555 1_555
O16B Cu2B 1_555 1_555
O16R Cu2R 1_555 1_555
C43S C44S 1_555 1_555
C43B C44B 1_555 1_555
C43T C44T 1_555 1_555
C43R C44R 1_555 1_555
C43A C44A 1_555 1_555
C44S H19S 1_555 1_555
C44B H19B 1_555 1_555
C44T H19T 1_555 1_555
C44R H19R 1_555 1_555
C44A H19A 1_555 1_555
C45S C44S 1_555 1_555
C45B C44B 1_555 1_555
C45T C44T 1_555 1_555
C45R C44R 1_555 1_555
C45A C44A 1_555 1_555
C46S C45S 1_555 1_555
C46B C45B 1_555 1_555
C46T C45T 1_555 1_555
C46R C45R 1_555 1_555
C46A C45A 1_555 1_555
C47S C46S 1_555 1_555
C47B C46B 1_555 1_555
C47T C46T 1_555 1_555
C47R C46R 1_555 1_555
C47A C46A 1_555 1_555
H20B C47B 1_555 1_555
H20T C47T 1_555 1_555
H20A C47A 1_555 1_555
H20R C47R 1_555 1_555
H20S C47S 1_555 1_555
C48S C56 1_555 1_555
C48B C47B 1_555 1_555
C48T C47T 1_555 1_555
C48R C47R 1_555 1_555
C48A C47A 1_555 1_555
C49S C48S 1_555 1_555
C49B C48B 1_555 1_555
C49T C48T 1_555 1_555
C49R C48R 1_555 1_555
C49A C48A 1_555 1_555
H21S C49S 1_555 1_555
H21B C49B 1_555 1_555
H21T C49T 1_555 1_555
H21R C49R 1_555 1_555
H21A C49A 1_555 1_555
C50S C49S 1_555 1_555
C50B C49B 1_555 1_555
C50T C49T 1_555 1_555
C50R C49R 1_555 1_555
C50A C49A 1_555 1_555
H22S C50S 1_555 1_555
H22B C50B 1_555 1_555
H22T C50T 1_555 1_555
H22R C50R 1_555 1_555
H22A C50A 1_555 1_555
C51S C46S 1_555 1_555
C51B C46B 1_555 1_555
C51T C46T 1_555 1_555
C51R C46R 1_555 1_555
C51A C46A 1_555 1_555
C52S C45S 1_555 1_555
C52B C45B 1_555 1_555
C52T C45T 1_555 1_555
C52R C45R 1_555 1_555
C52A C45A 1_555 1_555
C53S C52S 1_555 1_555
C53B C52B 1_555 1_555
C53T C52T 1_555 1_555
C53R C52R 1_555 1_555
C53A C52A 1_555 1_555
H23S C53S 1_555 1_555
H23B C53B 1_555 1_555
H23T C53T 1_555 1_555
H23R C53R 1_555 1_555
H23A C53A 1_555 1_555
C54S C43S 1_555 1_555
C54B C43B 1_555 1_555
C54T C43T 1_555 1_555
C54R C43R 1_555 1_555
C54A C43A 1_555 1_555
H24S C54S 1_555 1_555
H24B C54B 1_555 1_555
H24T C54T 1_555 1_555
H24R C54R 1_555 1_555
H24A C54A 1_555 1_555
C55S O13S 1_555 1_555
C55B O13B 1_555 1_555
C55T O13T 1_555 1_555
C55R O13R 1_555 1_555
C55A O13A 1_555 1_555
C56S O15S 1_555 1_555
C56T C48 1_555 1_555
C56A O15A 1_555 1_555
C56B O15B 1_555 1_555
C56R O15R 1_555 1_555
O17R Cu1R 1_555 1_555
O17B Cu1B 1_555 1_555
O17A Cu1A 1_555 1_555
O17T Cu1T 1_555 1_555
O17S Cu1S 1_555 1_555
O18S Cu2S 1_555 1_555
O18T Cu2T 1_555 1_555
O18A Cu2A 1_555 1_555
O18B Cu2B 1_555 1_555
O18R Cu2R 1_555 1_555
O19A Cu3A 1_555 1_555
O19R Cu3R 1_555 1_555
O19T Cu3T 1_555 1_555
O19B Cu3B 1_555 1_555
O19S Cu3S 1_555 1_555
O20S Cu4S 1_555 1_555
O20B Cu4B 1_555 1_555
O20T Cu4T 1_555 1_555
O20R Cu4R 1_555 1_555
O20A Cu4A 1_555 1_555
C8 C9 1_555 1_555
C9 C10 1_555 1_555
C11 C12 1_555 1_555
O6 C27 1_555 1_555
O8 C28 1_555 1_555
C15 C27 1_555 1_555
C22 C23 1_555 1_555
C23 C24 1_555 1_555
C25 C26 1_555 1_555
O10 C41 1_555 1_555
O12 C42 1_555 1_555
C33 C34 1_555 1_555
C35 C40 1_555 1_555
C38 C41 1_555 1_555
C39 C40 1_555 1_555
O14 C55 1_555 1_555
O16 C56 1_555 1_555
C43 C55 1_555 1_555
C50 C51 1_555 1_555
C51 C52 1_555 1_555
C53 C54 1_555 1_555
C8R C9R 1_555 1_555
C8A C9A 1_555 1_555
C8B C9B 1_555 1_555
C8T C9T 1_555 1_555
C8S C9S 1_555 1_555
C9R C10R 1_555 1_555
C9A C10A 1_555 1_555
C9B C10B 1_555 1_555
C9T C10T 1_555 1_555
C9S C10S 1_555 1_555
C11R C12R 1_555 1_555
C11A C12A 1_555 1_555
C11B C12B 1_555 1_555
C11T C12T 1_555 1_555
C11S C12S 1_555 1_555
O6S C27S 1_555 1_555
O6T C27T 1_555 1_555
O6A C27A 1_555 1_555
O6B C27B 1_555 1_555
O6R C27R 1_555 1_555
O7B C28B 1_555 1_555
O8S C28S 1_555 1_555
O8T C28T 1_555 1_555
O8A C28A 1_555 1_555
O8B C28B 1_555 1_555
O8R C28R 1_555 1_555
C15T C27T 1_555 1_555
C15B C27B 1_555 1_555
C15S C27S 1_555 1_555
C15R C27R 1_555 1_555
C15A C27A 1_555 1_555
C19A C20A 1_555 1_555
C20T C28S 1_555 1_555
C20B C28A 1_555 1_555
C20S C28R 1_555 1_555
C20R C28T 1_555 1_555
C22T C23T 1_555 1_555
C22B C23B 1_555 1_555
C22S C23S 1_555 1_555
C22R C23R 1_555 1_555
C22A C23A 1_555 1_555
C23T C24T 1_555 1_555
C23B C24B 1_555 1_555
C23S C24S 1_555 1_555
C23R C24R 1_555 1_555
C23A C24A 1_555 1_555
C25T C26T 1_555 1_555
C25B C26B 1_555 1_555
C25S C26S 1_555 1_555
C25R C26R 1_555 1_555
C25A C26A 1_555 1_555
O10S C41S 1_555 1_555
O10B C41B 1_555 1_555
O10T C41T 1_555 1_555
O10R C41R 1_555 1_555
O10A C41A 1_555 1_555
O11T C42T 1_555 1_555
O12S C42S 1_555 1_555
O12B C42B 1_555 1_555
O12T C42T 1_555 1_555
O12R C42R 1_555 1_555
O12A C42A 1_555 1_555
C30S C31S 1_555 1_555
C31B C42S 1_555 1_555
C31A C42R 1_555 1_555
C31T C42A 1_555 1_555
C31R C42B 1_555 1_555
C33B C34B 1_555 1_555
C33S C34S 1_555 1_555
C33A C34A 1_555 1_555
C33T C34T 1_555 1_555
C33R C34R 1_555 1_555
C35B C40B 1_555 1_555
C35S C40S 1_555 1_555
C35A C40A 1_555 1_555
C35T C40T 1_555 1_555
C35R C40R 1_555 1_555
C38B C41B 1_555 1_555
C38S C41S 1_555 1_555
C38A C41A 1_555 1_555
C38T C41T 1_555 1_555
C38R C41R 1_555 1_555
C39B C40B 1_555 1_555
C39S C40S 1_555 1_555
C39A C40A 1_555 1_555
C39T C40T 1_555 1_555
C39R C40R 1_555 1_555
O14S C55S 1_555 1_555
O14B C55B 1_555 1_555
O14T C55T 1_555 1_555
O14R C55R 1_555 1_555
O14A C55A 1_555 1_555
O15T C56T 1_555 1_555
O16S C56S 1_555 1_555
O16T C56T 1_555 1_555
O16A C56A 1_555 1_555
O16B C56B 1_555 1_555
O16R C56R 1_555 1_555
C43S C55S 1_555 1_555
C43B C55B 1_555 1_555
C43T C55T 1_555 1_555
C43R C55R 1_555 1_555
C43A C55A 1_555 1_555
C47S C48S 1_555 1_555
C48B C56S 1_555 1_555
C48T C56A 1_555 1_555
C48R C56B 1_555 1_555
C48A C56R 1_555 1_555
C50S C51S 1_555 1_555
C50B C51B 1_555 1_555
C50T C51T 1_555 1_555
C50R C51R 1_555 1_555
C50A C51A 1_555 1_555
C51S C52S 1_555 1_555
C51B C52B 1_555 1_555
C51T C52T 1_555 1_555
C51R C52R 1_555 1_555
C51A C52A 1_555 1_555
C53S C54S 1_555 1_555
C53B C54B 1_555 1_555
C53T C54T 1_555 1_555
C53R C54R 1_555 1_555
C53A C54A 1_555 1_555

#END
