# generated using pymatgen
data_Cu12H94C158(NO20)3
_symmetry_space_group_name_H-M   'P 1'
_cell_length_a   29.66890469
_cell_length_b   29.66890469
_cell_length_c   37.17600000
_cell_angle_alpha   90.00000000
_cell_angle_beta   90.00000000
_cell_angle_gamma   96.55682933
_symmetry_Int_Tables_number   1
_chemical_formula_structural   Cu12H94C158(NO20)3
_chemical_formula_sum   'Cu48 H376 C632 N12 O240'
_cell_volume   32509.90287468
_cell_formula_units_Z   4
loop_
 _symmetry_equiv_pos_site_id
 _symmetry_equiv_pos_as_xyz
  1  'x, y, z'
loop_
 _atom_site_type_symbol
 _atom_site_label
 _atom_site_symmetry_multiplicity
 _atom_site_fract_x
 _atom_site_fract_y
 _atom_site_fract_z
 _atom_site_occupancy
  C  C1  1  0.339300  0.339300  0.833400  1.0
  C  C2  1  0.160700  0.160700  0.333400  1.0
  C  C3  1  0.839300  0.839300  0.666600  1.0
  C  C4  1  0.660700  0.660700  0.166600  1.0
  C  C5  1  0.354600  0.354600  0.798400  1.0
  C  C6  1  0.145400  0.145400  0.298400  1.0
  C  C7  1  0.854600  0.854600  0.701600  1.0
  C  C8  1  0.645400  0.645400  0.201600  1.0
  C  C9  1  0.156800  0.156800  0.468300  1.0
  C  C10  1  0.343200  0.343200  0.968300  1.0
  C  C11  1  0.656800  0.656800  0.031700  1.0
  C  C12  1  0.843200  0.843200  0.531700  1.0
  C  C13  1  0.190800  0.190800  0.476100  1.0
  C  C14  1  0.309200  0.309200  0.976100  1.0
  C  C15  1  0.690800  0.690800  0.023900  1.0
  C  C16  1  0.809200  0.809200  0.523900  1.0
  C  C17  1  0.692800  0.221600  0.618300  1.0
  C  C18  1  0.807200  0.278400  0.118300  1.0
  C  C19  1  0.721600  0.192800  0.881700  1.0
  C  C20  1  0.778400  0.307200  0.381700  1.0
  C  C21  1  0.307200  0.778400  0.381700  1.0
  C  C22  1  0.192800  0.721600  0.881700  1.0
  C  C23  1  0.278400  0.807200  0.118300  1.0
  C  C24  1  0.221600  0.692800  0.618300  1.0
  C  C25  1  0.729300  0.205700  0.598900  1.0
  C  C26  1  0.770700  0.294300  0.098900  1.0
  C  C27  1  0.705700  0.229300  0.901100  1.0
  C  C28  1  0.794300  0.270700  0.401100  1.0
  C  C29  1  0.270700  0.794300  0.401100  1.0
  C  C30  1  0.229300  0.705700  0.901100  1.0
  C  C31  1  0.294300  0.770700  0.098900  1.0
  C  C32  1  0.205700  0.729300  0.598900  1.0
  C  C33  1  0.746500  0.168500  0.618600  1.0
  C  C34  1  0.753500  0.331500  0.118600  1.0
  C  C35  1  0.668500  0.246500  0.881400  1.0
  C  C36  1  0.831500  0.253500  0.381400  1.0
  C  C37  1  0.253500  0.831500  0.381400  1.0
  C  C38  1  0.246500  0.668500  0.881400  1.0
  C  C39  1  0.331500  0.753500  0.118600  1.0
  C  C40  1  0.168500  0.746500  0.618600  1.0
  C  C41  1  0.725400  0.146600  0.648700  1.0
  C  C42  1  0.774600  0.353400  0.148700  1.0
  C  C43  1  0.646600  0.225400  0.851300  1.0
  C  C44  1  0.853400  0.274600  0.351300  1.0
  C  C45  1  0.274600  0.853400  0.351300  1.0
  C  C46  1  0.225400  0.646600  0.851300  1.0
  C  C47  1  0.353400  0.774600  0.148700  1.0
  C  C48  1  0.146600  0.725400  0.648700  1.0
  C  C49  1  0.667600  0.147000  0.693600  1.0
  C  C50  1  0.832400  0.353000  0.193600  1.0
  C  C51  1  0.647000  0.167600  0.806400  1.0
  C  C52  1  0.853000  0.332400  0.306400  1.0
  C  C53  1  0.332400  0.853000  0.306400  1.0
  C  C54  1  0.167600  0.647000  0.806400  1.0
  C  C55  1  0.353000  0.832400  0.193600  1.0
  C  C56  1  0.147000  0.667600  0.693600  1.0
  C  C57  1  0.630800  0.164800  0.712200  1.0
  C  C58  1  0.869200  0.335200  0.212200  1.0
  C  C59  1  0.664800  0.130800  0.787800  1.0
  C  C60  1  0.835200  0.369200  0.287800  1.0
  C  C61  1  0.369200  0.835200  0.287800  1.0
  C  C62  1  0.130800  0.664800  0.787800  1.0
  C  C63  1  0.335200  0.869200  0.212200  1.0
  C  C64  1  0.164800  0.630800  0.712200  1.0
  C  C65  1  0.619100  0.205700  0.698800  1.0
  C  C66  1  0.880900  0.294300  0.198800  1.0
  C  C67  1  0.705700  0.119100  0.801200  1.0
  C  C68  1  0.794300  0.380900  0.301200  1.0
  C  C69  1  0.380900  0.794300  0.301200  1.0
  C  C70  1  0.119100  0.705700  0.801200  1.0
  C  C71  1  0.294300  0.880900  0.198800  1.0
  C  C72  1  0.205700  0.619100  0.698800  1.0
  C  C73  1  0.635900  0.222700  0.667000  1.0
  C  C74  1  0.864100  0.277300  0.167000  1.0
  C  C75  1  0.722700  0.135900  0.833000  1.0
  C  C76  1  0.777300  0.364100  0.333000  1.0
  C  C77  1  0.364100  0.777300  0.333000  1.0
  C  C78  1  0.135900  0.722700  0.833000  1.0
  C  C79  1  0.277300  0.864100  0.167000  1.0
  C  C80  1  0.222700  0.635900  0.667000  1.0
  C  C81  1  0.672500  0.205100  0.649300  1.0
  C  C82  1  0.827500  0.294900  0.149300  1.0
  C  C83  1  0.705100  0.172500  0.850700  1.0
  C  C84  1  0.794900  0.327500  0.350700  1.0
  C  C85  1  0.327500  0.794900  0.350700  1.0
  C  C86  1  0.172500  0.705100  0.850700  1.0
  C  C87  1  0.294900  0.827500  0.149300  1.0
  C  C88  1  0.205100  0.672500  0.649300  1.0
  C  C89  1  0.689200  0.167600  0.663700  1.0
  C  C90  1  0.810800  0.332400  0.163700  1.0
  C  C91  1  0.667600  0.189200  0.836300  1.0
  C  C92  1  0.832400  0.310800  0.336300  1.0
  C  C93  1  0.310800  0.832400  0.336300  1.0
  C  C94  1  0.189200  0.667600  0.836300  1.0
  C  C95  1  0.332400  0.810800  0.163700  1.0
  C  C96  1  0.167600  0.689200  0.663700  1.0
  C  C97  1  0.743800  0.219200  0.560400  1.0
  C  C98  1  0.756200  0.280800  0.060400  1.0
  C  C99  1  0.719200  0.243800  0.939600  1.0
  C  C100  1  0.780800  0.256200  0.439600  1.0
  C  C101  1  0.256200  0.780800  0.439600  1.0
  C  C102  1  0.243800  0.719200  0.939600  1.0
  C  C103  1  0.280800  0.756200  0.060400  1.0
  C  C104  1  0.219200  0.743800  0.560400  1.0
  C  C105  1  0.575220  0.222580  0.719300  1.0
  C  C106  1  0.924780  0.277420  0.219300  1.0
  C  C107  1  0.722580  0.075220  0.780700  1.0
  C  C108  1  0.777420  0.424780  0.280700  1.0
  C  C109  1  0.424780  0.777420  0.280700  1.0
  C  C110  1  0.075220  0.722580  0.780700  1.0
  C  C111  1  0.277420  0.924780  0.219300  1.0
  C  C112  1  0.222580  0.575220  0.719300  1.0
  C  C113  1  0.404730  0.125270  0.599500  1.0
  C  C114  1  0.095270  0.374730  0.099500  1.0
  C  C115  1  0.625270  0.904730  0.900500  1.0
  C  C116  1  0.874730  0.595270  0.400500  1.0
  C  C117  1  0.595270  0.874730  0.400500  1.0
  C  C118  1  0.904730  0.625270  0.900500  1.0
  C  C119  1  0.374730  0.095270  0.099500  1.0
  C  C120  1  0.125270  0.404730  0.599500  1.0
  C  C121  1  0.386300  0.090900  0.576400  1.0
  C  C122  1  0.113700  0.409100  0.076400  1.0
  C  C123  1  0.590900  0.886300  0.923600  1.0
  C  C124  1  0.909100  0.613700  0.423600  1.0
  C  C125  1  0.613700  0.909100  0.423600  1.0
  C  C126  1  0.886300  0.590900  0.923600  1.0
  C  C127  1  0.409100  0.113700  0.076400  1.0
  C  C128  1  0.090900  0.386300  0.576400  1.0
  C  C129  1  0.375900  0.047100  0.594600  1.0
  C  C130  1  0.124100  0.452900  0.094600  1.0
  C  C131  1  0.547100  0.875900  0.905400  1.0
  C  C132  1  0.952900  0.624100  0.405400  1.0
  C  C133  1  0.624100  0.952900  0.405400  1.0
  C  C134  1  0.875900  0.547100  0.905400  1.0
  C  C135  1  0.452900  0.124100  0.094600  1.0
  C  C136  1  0.047100  0.375900  0.594600  1.0
  C  C137  1  0.383800  0.042200  0.631200  1.0
  C  C138  1  0.116200  0.457800  0.131200  1.0
  C  C139  1  0.542200  0.883800  0.868800  1.0
  C  C140  1  0.957800  0.616200  0.368800  1.0
  C  C141  1  0.616200  0.957800  0.368800  1.0
  C  C142  1  0.883800  0.542200  0.868800  1.0
  C  C143  1  0.457800  0.116200  0.131200  1.0
  C  C144  1  0.042200  0.383800  0.631200  1.0
  C  C145  1  0.413800  0.074400  0.690000  1.0
  C  C146  1  0.086200  0.425600  0.190000  1.0
  C  C147  1  0.574400  0.913800  0.810000  1.0
  C  C148  1  0.925600  0.586200  0.310000  1.0
  C  C149  1  0.586200  0.925600  0.310000  1.0
  C  C150  1  0.913800  0.574400  0.810000  1.0
  C  C151  1  0.425600  0.086200  0.190000  1.0
  C  C152  1  0.074400  0.413800  0.690000  1.0
  C  C153  1  0.434100  0.108900  0.710200  1.0
  C  C154  1  0.065900  0.391100  0.210200  1.0
  C  C155  1  0.608900  0.934100  0.789800  1.0
  C  C156  1  0.891100  0.565900  0.289800  1.0
  C  C157  1  0.565900  0.891100  0.289800  1.0
  C  C158  1  0.934100  0.608900  0.789800  1.0
  C  C159  1  0.391100  0.065900  0.210200  1.0
  C  C160  1  0.108900  0.434100  0.710200  1.0
  C  C161  1  0.443600  0.152200  0.692800  1.0
  C  C162  1  0.056400  0.347800  0.192800  1.0
  C  C163  1  0.652200  0.943600  0.807200  1.0
  C  C164  1  0.847800  0.556400  0.307200  1.0
  C  C165  1  0.556400  0.847800  0.307200  1.0
  C  C166  1  0.943600  0.652200  0.807200  1.0
  C  C167  1  0.347800  0.056400  0.192800  1.0
  C  C168  1  0.152200  0.443600  0.692800  1.0
  C  C169  1  0.433500  0.155700  0.658300  1.0
  C  C170  1  0.066500  0.344300  0.158300  1.0
  C  C171  1  0.655700  0.933500  0.841700  1.0
  C  C172  1  0.844300  0.566500  0.341700  1.0
  C  C173  1  0.566500  0.844300  0.341700  1.0
  C  C174  1  0.933500  0.655700  0.841700  1.0
  C  C175  1  0.344300  0.066500  0.158300  1.0
  C  C176  1  0.155700  0.433500  0.658300  1.0
  C  C177  1  0.414300  0.121700  0.636500  1.0
  C  C178  1  0.085700  0.378300  0.136500  1.0
  C  C179  1  0.621700  0.914300  0.863500  1.0
  C  C180  1  0.878300  0.585700  0.363500  1.0
  C  C181  1  0.585700  0.878300  0.363500  1.0
  C  C182  1  0.914300  0.621700  0.863500  1.0
  C  C183  1  0.378300  0.085700  0.136500  1.0
  C  C184  1  0.121700  0.414300  0.636500  1.0
  C  C185  1  0.404500  0.076700  0.653600  1.0
  C  C186  1  0.095500  0.423300  0.153600  1.0
  C  C187  1  0.576700  0.904500  0.846400  1.0
  C  C188  1  0.923300  0.595500  0.346400  1.0
  C  C189  1  0.595500  0.923300  0.346400  1.0
  C  C190  1  0.904500  0.576700  0.846400  1.0
  C  C191  1  0.423300  0.095500  0.153600  1.0
  C  C192  1  0.076700  0.404500  0.653600  1.0
  C  C193  1  0.382500  0.097700  0.536600  1.0
  C  C194  1  0.117500  0.402300  0.036600  1.0
  C  C195  1  0.597700  0.882500  0.963400  1.0
  C  C196  1  0.902300  0.617500  0.463400  1.0
  C  C197  1  0.617500  0.902300  0.463400  1.0
  C  C198  1  0.882500  0.597700  0.963400  1.0
  C  C199  1  0.402300  0.117500  0.036600  1.0
  C  C200  1  0.097700  0.382500  0.536600  1.0
  C  C201  1  0.469000  0.189400  0.713600  1.0
  C  C202  1  0.031000  0.310600  0.213600  1.0
  C  C203  1  0.689400  0.969000  0.786400  1.0
  C  C204  1  0.810600  0.531000  0.286400  1.0
  C  C205  1  0.531000  0.810600  0.286400  1.0
  C  C206  1  0.969000  0.689400  0.786400  1.0
  C  C207  1  0.310600  0.031000  0.213600  1.0
  C  C208  1  0.189400  0.469000  0.713600  1.0
  C  C209  1  0.621900  0.146300  0.473900  1.0
  C  C210  1  0.878100  0.353700  0.973900  1.0
  C  C211  1  0.646300  0.121900  0.026100  1.0
  C  C212  1  0.853700  0.378100  0.526100  1.0
  C  C213  1  0.378100  0.853700  0.526100  1.0
  C  C214  1  0.121900  0.646300  0.026100  1.0
  C  C215  1  0.353700  0.878100  0.973900  1.0
  C  C216  1  0.146300  0.621900  0.473900  1.0
  C  C217  1  0.664300  0.136900  0.476200  1.0
  C  C218  1  0.835700  0.363100  0.976200  1.0
  C  C219  1  0.636900  0.164300  0.023800  1.0
  C  C220  1  0.863100  0.335700  0.523800  1.0
  C  C221  1  0.335700  0.863100  0.523800  1.0
  C  C222  1  0.164300  0.636900  0.023800  1.0
  C  C223  1  0.363100  0.835700  0.976200  1.0
  C  C224  1  0.136900  0.664300  0.476200  1.0
  C  C225  1  0.675600  0.093400  0.475300  1.0
  C  C226  1  0.824400  0.406600  0.975300  1.0
  C  C227  1  0.593400  0.175600  0.024700  1.0
  C  C228  1  0.906600  0.324400  0.524700  1.0
  C  C229  1  0.324400  0.906600  0.524700  1.0
  C  C230  1  0.175600  0.593400  0.024700  1.0
  C  C231  1  0.406600  0.824400  0.975300  1.0
  C  C232  1  0.093400  0.675600  0.475300  1.0
  C  C233  1  0.641400  0.056800  0.471700  1.0
  C  C234  1  0.858600  0.443200  0.971700  1.0
  C  C235  1  0.556800  0.141400  0.028300  1.0
  C  C236  1  0.943200  0.358600  0.528300  1.0
  C  C237  1  0.358600  0.943200  0.528300  1.0
  C  C238  1  0.141400  0.556800  0.028300  1.0
  C  C239  1  0.443200  0.858600  0.971700  1.0
  C  C240  1  0.056800  0.641400  0.471700  1.0
  C  C241  1  0.559000  0.028600  0.466300  1.0
  C  C242  1  0.941000  0.471400  0.966300  1.0
  C  C243  1  0.528600  0.059000  0.033700  1.0
  C  C244  1  0.971400  0.441000  0.533700  1.0
  C  C245  1  0.441000  0.971400  0.533700  1.0
  C  C246  1  0.059000  0.528600  0.033700  1.0
  C  C247  1  0.471400  0.941000  0.966300  1.0
  C  C248  1  0.028600  0.559000  0.466300  1.0
  C  C249  1  0.516100  0.038500  0.465800  1.0
  C  C250  1  0.983900  0.461500  0.965800  1.0
  C  C251  1  0.538500  0.016100  0.034200  1.0
  C  C252  1  0.961500  0.483900  0.534200  1.0
  C  C253  1  0.483900  0.961500  0.534200  1.0
  C  C254  1  0.016100  0.538500  0.034200  1.0
  C  C255  1  0.461500  0.983900  0.965800  1.0
  C  C256  1  0.038500  0.516100  0.465800  1.0
  C  C257  1  0.504200  0.083600  0.467600  1.0
  C  C258  1  0.995800  0.416400  0.967600  1.0
  C  C259  1  0.583600  0.004200  0.032400  1.0
  C  C260  1  0.916400  0.495800  0.532400  1.0
  C  C261  1  0.495800  0.916400  0.532400  1.0
  C  C262  1  0.004200  0.583600  0.032400  1.0
  C  C263  1  0.416400  0.995800  0.967600  1.0
  C  C264  1  0.083600  0.504200  0.467600  1.0
  C  C265  1  0.539300  0.119100  0.469400  1.0
  C  C266  1  0.960700  0.380900  0.969400  1.0
  C  C267  1  0.619100  0.039300  0.030600  1.0
  C  C268  1  0.880900  0.460700  0.530600  1.0
  C  C269  1  0.460700  0.880900  0.530600  1.0
  C  C270  1  0.039300  0.619100  0.030600  1.0
  C  C271  1  0.380900  0.960700  0.969400  1.0
  C  C272  1  0.119100  0.539300  0.469400  1.0
  C  C273  1  0.585400  0.111400  0.469800  1.0
  C  C274  1  0.914600  0.388600  0.969800  1.0
  C  C275  1  0.611400  0.085400  0.030200  1.0
  C  C276  1  0.888600  0.414600  0.530200  1.0
  C  C277  1  0.414600  0.888600  0.530200  1.0
  C  C278  1  0.085400  0.611400  0.030200  1.0
  C  C279  1  0.388600  0.914600  0.969800  1.0
  C  C280  1  0.111400  0.585400  0.469800  1.0
  C  C281  1  0.595600  0.064400  0.469200  1.0
  C  C282  1  0.904400  0.435600  0.969200  1.0
  C  C283  1  0.564400  0.095600  0.030800  1.0
  C  C284  1  0.935600  0.404400  0.530800  1.0
  C  C285  1  0.404400  0.935600  0.530800  1.0
  C  C286  1  0.095600  0.564400  0.030800  1.0
  C  C287  1  0.435600  0.904400  0.969200  1.0
  C  C288  1  0.064400  0.595600  0.469200  1.0
  C  C289  1  0.703140  0.176540  0.484500  1.0
  C  C290  1  0.796860  0.323460  0.984500  1.0
  C  C291  1  0.676540  0.203140  0.015500  1.0
  C  C292  1  0.823460  0.296860  0.515500  1.0
  C  C293  1  0.296860  0.823460  0.515500  1.0
  C  C294  1  0.203140  0.676540  0.015500  1.0
  C  C295  1  0.323460  0.796860  0.984500  1.0
  C  C296  1  0.176540  0.703140  0.484500  1.0
  C  C297  1  0.454320  0.094480  0.469900  1.0
  C  C298  1  0.045680  0.405520  0.969900  1.0
  C  C299  1  0.594480  0.954320  0.030100  1.0
  C  C300  1  0.905520  0.545680  0.530100  1.0
  C  C301  1  0.545680  0.905520  0.530100  1.0
  C  C302  1  0.954320  0.594480  0.030100  1.0
  C  C303  1  0.405520  0.045680  0.969900  1.0
  C  C304  1  0.094480  0.454320  0.469900  1.0
  C  C305  1  0.591500  0.394100  0.787400  1.0
  C  C306  1  0.908500  0.105900  0.287400  1.0
  C  C307  1  0.894100  0.091500  0.712600  1.0
  C  C308  1  0.605900  0.408500  0.212600  1.0
  C  C309  1  0.408500  0.605900  0.212600  1.0
  C  C310  1  0.091500  0.894100  0.712600  1.0
  C  C311  1  0.105900  0.908500  0.287400  1.0
  C  C312  1  0.394100  0.591500  0.787400  1.0
  C  C313  1  0.587900  0.350700  0.800400  1.0
  C  C314  1  0.912100  0.149300  0.300400  1.0
  C  C315  1  0.850700  0.087900  0.699600  1.0
  C  C316  1  0.649300  0.412100  0.199600  1.0
  C  C317  1  0.412100  0.649300  0.199600  1.0
  C  C318  1  0.087900  0.850700  0.699600  1.0
  C  C319  1  0.149300  0.912100  0.300400  1.0
  C  C320  1  0.350700  0.587900  0.800400  1.0
  C  C321  1  0.605500  0.343500  0.834700  1.0
  C  C322  1  0.894500  0.156500  0.334700  1.0
  C  C323  1  0.843500  0.105500  0.665300  1.0
  C  C324  1  0.656500  0.394500  0.165300  1.0
  C  C325  1  0.394500  0.656500  0.165300  1.0
  C  C326  1  0.105500  0.843500  0.665300  1.0
  C  C327  1  0.156500  0.894500  0.334700  1.0
  C  C328  1  0.343500  0.605500  0.834700  1.0
  C  C329  1  0.626500  0.376500  0.856500  1.0
  C  C330  1  0.873500  0.123500  0.356500  1.0
  C  C331  1  0.876500  0.126500  0.643500  1.0
  C  C332  1  0.623500  0.373500  0.143500  1.0
  C  C333  1  0.373500  0.623500  0.143500  1.0
  C  C334  1  0.126500  0.876500  0.643500  1.0
  C  C335  1  0.123500  0.873500  0.356500  1.0
  C  C336  1  0.376500  0.626500  0.856500  1.0
  C  C337  1  0.653300  0.461100  0.863600  1.0
  C  C338  1  0.846700  0.038900  0.363600  1.0
  C  C339  1  0.961100  0.153300  0.636400  1.0
  C  C340  1  0.538900  0.346700  0.136400  1.0
  C  C341  1  0.346700  0.538900  0.136400  1.0
  C  C342  1  0.153300  0.961100  0.636400  1.0
  C  C343  1  0.038900  0.846700  0.363600  1.0
  C  C344  1  0.461100  0.653300  0.863600  1.0
  C  C345  1  0.655200  0.504200  0.852300  1.0
  C  C346  1  0.844800  0.995800  0.352300  1.0
  C  C347  1  0.004200  0.155200  0.647700  1.0
  C  C348  1  0.495800  0.344800  0.147700  1.0
  C  C349  1  0.344800  0.495800  0.147700  1.0
  C  C350  1  0.155200  0.004200  0.647700  1.0
  C  C351  1  0.995800  0.844800  0.352300  1.0
  C  C352  1  0.504200  0.655200  0.852300  1.0
  C  C353  1  0.636000  0.511600  0.815800  1.0
  C  C354  1  0.864000  0.988400  0.315800  1.0
  C  C355  1  0.011600  0.136000  0.684200  1.0
  C  C356  1  0.488400  0.364000  0.184200  1.0
  C  C357  1  0.364000  0.488400  0.184200  1.0
  C  C358  1  0.136000  0.011600  0.684200  1.0
  C  C359  1  0.988400  0.864000  0.315800  1.0
  C  C360  1  0.511600  0.636000  0.815800  1.0
  C  C361  1  0.616300  0.476900  0.794300  1.0
  C  C362  1  0.883700  0.023100  0.294300  1.0
  C  C363  1  0.976900  0.116300  0.705700  1.0
  C  C364  1  0.523100  0.383700  0.205700  1.0
  C  C365  1  0.383700  0.523100  0.205700  1.0
  C  C366  1  0.116300  0.976900  0.705700  1.0
  C  C367  1  0.023100  0.883700  0.294300  1.0
  C  C368  1  0.476900  0.616300  0.794300  1.0
  C  C369  1  0.612900  0.430500  0.807900  1.0
  C  C370  1  0.887100  0.069500  0.307900  1.0
  C  C371  1  0.930500  0.112900  0.692100  1.0
  C  C372  1  0.569500  0.387100  0.192100  1.0
  C  C373  1  0.387100  0.569500  0.192100  1.0
  C  C374  1  0.112900  0.930500  0.692100  1.0
  C  C375  1  0.069500  0.887100  0.307900  1.0
  C  C376  1  0.430500  0.612900  0.807900  1.0
  C  C377  1  0.631000  0.425000  0.842400  1.0
  C  C378  1  0.869000  0.075000  0.342400  1.0
  C  C379  1  0.925000  0.131000  0.657600  1.0
  C  C380  1  0.575000  0.369000  0.157600  1.0
  C  C381  1  0.369000  0.575000  0.157600  1.0
  C  C382  1  0.131000  0.925000  0.657600  1.0
  C  C383  1  0.075000  0.869000  0.342400  1.0
  C  C384  1  0.425000  0.631000  0.842400  1.0
  C  C385  1  0.559700  0.311700  0.781700  1.0
  C  C386  1  0.940300  0.188300  0.281700  1.0
  C  C387  1  0.811700  0.059700  0.718300  1.0
  C  C388  1  0.688300  0.440300  0.218300  1.0
  C  C389  1  0.440300  0.688300  0.218300  1.0
  C  C390  1  0.059700  0.811700  0.718300  1.0
  C  C391  1  0.188300  0.940300  0.281700  1.0
  C  C392  1  0.311700  0.559700  0.781700  1.0
  C  C393  1  0.637100  0.560100  0.797700  1.0
  C  C394  1  0.862900  0.939900  0.297700  1.0
  C  C395  1  0.060100  0.137100  0.702300  1.0
  C  C396  1  0.439900  0.362900  0.202300  1.0
  C  C397  1  0.362900  0.439900  0.202300  1.0
  C  C398  1  0.137100  0.060100  0.702300  1.0
  C  C399  1  0.939900  0.862900  0.297700  1.0
  C  C400  1  0.560100  0.637100  0.797700  1.0
  C  C401  1  0.631800  0.769400  0.700900  1.0
  C  C402  1  0.868200  0.730600  0.200900  1.0
  C  C403  1  0.269400  0.131800  0.799100  1.0
  C  C404  1  0.230600  0.368200  0.299100  1.0
  C  C405  1  0.368200  0.230600  0.299100  1.0
  C  C406  1  0.131800  0.269400  0.799100  1.0
  C  C407  1  0.730600  0.868200  0.200900  1.0
  C  C408  1  0.769400  0.631800  0.700900  1.0
  C  C409  1  0.642100  0.763500  0.736600  1.0
  C  C410  1  0.857900  0.736500  0.236600  1.0
  C  C411  1  0.263500  0.142100  0.763400  1.0
  C  C412  1  0.236500  0.357900  0.263400  1.0
  C  C413  1  0.357900  0.236500  0.263400  1.0
  C  C414  1  0.142100  0.263500  0.763400  1.0
  C  C415  1  0.736500  0.857900  0.236600  1.0
  C  C416  1  0.763500  0.642100  0.736600  1.0
  C  C417  1  0.655400  0.799600  0.758200  1.0
  C  C418  1  0.844600  0.700400  0.258200  1.0
  C  C419  1  0.299600  0.155400  0.741800  1.0
  C  C420  1  0.200400  0.344600  0.241800  1.0
  C  C421  1  0.344600  0.200400  0.241800  1.0
  C  C422  1  0.155400  0.299600  0.741800  1.0
  C  C423  1  0.700400  0.844600  0.258200  1.0
  C  C424  1  0.799600  0.655400  0.758200  1.0
  C  C425  1  0.659800  0.844800  0.743800  1.0
  C  C426  1  0.840200  0.655200  0.243800  1.0
  C  C427  1  0.344800  0.159800  0.756200  1.0
  C  C428  1  0.155200  0.340200  0.256200  1.0
  C  C429  1  0.340200  0.155200  0.256200  1.0
  C  C430  1  0.159800  0.344800  0.756200  1.0
  C  C431  1  0.655200  0.840200  0.243800  1.0
  C  C432  1  0.844800  0.659800  0.743800  1.0
  C  C433  1  0.657200  0.895800  0.691000  1.0
  C  C434  1  0.842800  0.604200  0.191000  1.0
  C  C435  1  0.395800  0.157200  0.809000  1.0
  C  C436  1  0.104200  0.342800  0.309000  1.0
  C  C437  1  0.342800  0.104200  0.309000  1.0
  C  C438  1  0.157200  0.395800  0.809000  1.0
  C  C439  1  0.604200  0.842800  0.191000  1.0
  C  C440  1  0.895800  0.657200  0.691000  1.0
  C  C441  1  0.648700  0.901100  0.655900  1.0
  C  C442  1  0.851300  0.598900  0.155900  1.0
  C  C443  1  0.401100  0.148700  0.844100  1.0
  C  C444  1  0.098900  0.351300  0.344100  1.0
  C  C445  1  0.351300  0.098900  0.344100  1.0
  C  C446  1  0.148700  0.401100  0.844100  1.0
  C  C447  1  0.598900  0.851300  0.155900  1.0
  C  C448  1  0.901100  0.648700  0.655900  1.0
  C  C449  1  0.634600  0.865400  0.631400  1.0
  C  C450  1  0.865400  0.634600  0.131400  1.0
  C  C451  1  0.365400  0.134600  0.868600  1.0
  C  C452  1  0.134600  0.365400  0.368600  1.0
  C  C453  1  0.365400  0.134600  0.368600  1.0
  C  C454  1  0.134600  0.365400  0.868600  1.0
  C  C455  1  0.634600  0.865400  0.131400  1.0
  C  C456  1  0.865400  0.634600  0.631400  1.0
  C  C457  1  0.629900  0.821500  0.646600  1.0
  C  C458  1  0.870100  0.678500  0.146600  1.0
  C  C459  1  0.321500  0.129900  0.853400  1.0
  C  C460  1  0.178500  0.370100  0.353400  1.0
  C  C461  1  0.370100  0.178500  0.353400  1.0
  C  C462  1  0.129900  0.321500  0.853400  1.0
  C  C463  1  0.678500  0.870100  0.146600  1.0
  C  C464  1  0.821500  0.629900  0.646600  1.0
  C  C465  1  0.637300  0.815300  0.683300  1.0
  C  C466  1  0.862700  0.684700  0.183300  1.0
  C  C467  1  0.315300  0.137300  0.816700  1.0
  C  C468  1  0.184700  0.362700  0.316700  1.0
  C  C469  1  0.362700  0.184700  0.316700  1.0
  C  C470  1  0.137300  0.315300  0.816700  1.0
  C  C471  1  0.684700  0.862700  0.183300  1.0
  C  C472  1  0.815300  0.637300  0.683300  1.0
  C  C473  1  0.650800  0.850800  0.707500  1.0
  C  C474  1  0.849200  0.649200  0.207500  1.0
  C  C475  1  0.350800  0.150800  0.792500  1.0
  C  C476  1  0.149200  0.349200  0.292500  1.0
  C  C477  1  0.349200  0.149200  0.292500  1.0
  C  C478  1  0.150800  0.350800  0.792500  1.0
  C  C479  1  0.649200  0.849200  0.207500  1.0
  C  C480  1  0.850800  0.650800  0.707500  1.0
  C  C481  1  0.639600  0.714600  0.750800  1.0
  C  C482  1  0.860400  0.785400  0.250800  1.0
  C  C483  1  0.214600  0.139600  0.749200  1.0
  C  C484  1  0.285400  0.360400  0.249200  1.0
  C  C485  1  0.360400  0.285400  0.249200  1.0
  C  C486  1  0.139600  0.214600  0.749200  1.0
  C  C487  1  0.785400  0.860400  0.250800  1.0
  C  C488  1  0.714600  0.639600  0.750800  1.0
  C  C489  1  0.369920  0.129080  0.407600  1.0
  C  C490  1  0.130080  0.370920  0.907600  1.0
  C  C491  1  0.629080  0.869920  0.092400  1.0
  C  C492  1  0.870920  0.630080  0.592400  1.0
  C  C493  1  0.630080  0.870920  0.592400  1.0
  C  C494  1  0.869920  0.629080  0.092400  1.0
  C  C495  1  0.370920  0.130080  0.907600  1.0
  C  C496  1  0.129080  0.369920  0.407600  1.0
  C  C497  1  0.390500  0.333900  0.781100  1.0
  C  C498  1  0.109500  0.166100  0.281100  1.0
  C  C499  1  0.833900  0.890500  0.718900  1.0
  C  C500  1  0.666100  0.609500  0.218900  1.0
  C  C501  1  0.609500  0.666100  0.218900  1.0
  C  C502  1  0.890500  0.833900  0.718900  1.0
  C  C503  1  0.166100  0.109500  0.281100  1.0
  C  C504  1  0.333900  0.390500  0.781100  1.0
  C  C505  1  0.408400  0.299200  0.797600  1.0
  C  C506  1  0.091600  0.200800  0.297600  1.0
  C  C507  1  0.799200  0.908400  0.702400  1.0
  C  C508  1  0.700800  0.591600  0.202400  1.0
  C  C509  1  0.591600  0.700800  0.202400  1.0
  C  C510  1  0.908400  0.799200  0.702400  1.0
  C  C511  1  0.200800  0.091600  0.297600  1.0
  C  C512  1  0.299200  0.408400  0.797600  1.0
  C  C513  1  0.395300  0.285900  0.832600  1.0
  C  C514  1  0.104700  0.214100  0.332600  1.0
  C  C515  1  0.785900  0.895300  0.667400  1.0
  C  C516  1  0.714100  0.604700  0.167400  1.0
  C  C517  1  0.604700  0.714100  0.167400  1.0
  C  C518  1  0.895300  0.785900  0.667400  1.0
  C  C519  1  0.214100  0.104700  0.332600  1.0
  C  C520  1  0.285900  0.395300  0.832600  1.0
  C  C521  1  0.362900  0.303500  0.850900  1.0
  C  C522  1  0.137100  0.196500  0.350900  1.0
  C  C523  1  0.803500  0.862900  0.649100  1.0
  C  C524  1  0.696500  0.637100  0.149100  1.0
  C  C525  1  0.637100  0.696500  0.149100  1.0
  C  C526  1  0.862900  0.803500  0.649100  1.0
  C  C527  1  0.196500  0.137100  0.350900  1.0
  C  C528  1  0.303500  0.362900  0.850900  1.0
  C  C529  1  0.450700  0.282100  0.778100  1.0
  C  C530  1  0.049300  0.217900  0.278100  1.0
  C  C531  1  0.782100  0.950700  0.721900  1.0
  C  C532  1  0.717900  0.549300  0.221900  1.0
  C  C533  1  0.549300  0.717900  0.221900  1.0
  C  C534  1  0.950700  0.782100  0.721900  1.0
  C  C535  1  0.217900  0.049300  0.278100  1.0
  C  C536  1  0.282100  0.450700  0.778100  1.0
  C  C537  1  0.235800  0.179800  0.477700  1.0
  C  C538  1  0.264200  0.320200  0.977700  1.0
  C  C539  1  0.679800  0.735800  0.022300  1.0
  C  C540  1  0.820200  0.764200  0.522300  1.0
  C  C541  1  0.764200  0.820200  0.522300  1.0
  C  C542  1  0.735800  0.679800  0.022300  1.0
  C  C543  1  0.320200  0.264200  0.977700  1.0
  C  C544  1  0.179800  0.235800  0.477700  1.0
  C  C545  1  0.247600  0.136600  0.474300  1.0
  C  C546  1  0.252400  0.363400  0.974300  1.0
  C  C547  1  0.636600  0.747600  0.025700  1.0
  C  C548  1  0.863400  0.752400  0.525700  1.0
  C  C549  1  0.752400  0.863400  0.525700  1.0
  C  C550  1  0.747600  0.636600  0.025700  1.0
  C  C551  1  0.363400  0.252400  0.974300  1.0
  C  C552  1  0.136600  0.247600  0.474300  1.0
  C  C553  1  0.213300  0.102900  0.467000  1.0
  C  C554  1  0.286700  0.397100  0.967000  1.0
  C  C555  1  0.602900  0.713300  0.033000  1.0
  C  C556  1  0.897100  0.786700  0.533000  1.0
  C  C557  1  0.786700  0.897100  0.533000  1.0
  C  C558  1  0.713300  0.602900  0.033000  1.0
  C  C559  1  0.397100  0.286700  0.967000  1.0
  C  C560  1  0.102900  0.213300  0.467000  1.0
  C  C561  1  0.169600  0.111000  0.463600  1.0
  C  C562  1  0.330400  0.389000  0.963600  1.0
  C  C563  1  0.611000  0.669600  0.036400  1.0
  C  C564  1  0.889000  0.830400  0.536400  1.0
  C  C565  1  0.830400  0.889000  0.536400  1.0
  C  C566  1  0.669600  0.611000  0.036400  1.0
  C  C567  1  0.389000  0.330400  0.963600  1.0
  C  C568  1  0.111000  0.169600  0.463600  1.0
  C  C569  1  0.297500  0.127300  0.472400  1.0
  C  C570  1  0.202500  0.372700  0.972400  1.0
  C  C571  1  0.627300  0.797500  0.027600  1.0
  C  C572  1  0.872700  0.702500  0.527600  1.0
  C  C573  1  0.702500  0.872700  0.527600  1.0
  C  C574  1  0.797500  0.627300  0.027600  1.0
  C  C575  1  0.372700  0.202500  0.972400  1.0
  C  C576  1  0.127300  0.297500  0.472400  1.0
  C  C577  1  0.307300  0.998700  0.431800  1.0
  C  C578  1  0.192700  0.501300  0.931800  1.0
  C  C579  1  0.498700  0.807300  0.068200  1.0
  C  C580  1  0.001300  0.692700  0.568200  1.0
  C  C581  1  0.692700  0.001300  0.568200  1.0
  C  C582  1  0.807300  0.498700  0.068200  1.0
  C  C583  1  0.501300  0.192700  0.931800  1.0
  C  C584  1  0.998700  0.307300  0.431800  1.0
  C  C585  1  0.262100  0.938100  0.446300  1.0
  C  C586  1  0.237900  0.561900  0.946300  1.0
  C  C587  1  0.438100  0.762100  0.053700  1.0
  C  C588  1  0.061900  0.737900  0.553700  1.0
  C  C589  1  0.737900  0.061900  0.553700  1.0
  C  C590  1  0.762100  0.438100  0.053700  1.0
  C  C591  1  0.561900  0.237900  0.946300  1.0
  C  C592  1  0.938100  0.262100  0.446300  1.0
  C  C593  1  0.304000  0.912800  0.439900  1.0
  C  C594  1  0.196000  0.587200  0.939900  1.0
  C  C595  1  0.412800  0.804000  0.060100  1.0
  C  C596  1  0.087200  0.696000  0.560100  1.0
  C  C597  1  0.696000  0.087200  0.560100  1.0
  C  C598  1  0.804000  0.412800  0.060100  1.0
  C  C599  1  0.587200  0.196000  0.939900  1.0
  C  C600  1  0.912800  0.304000  0.439900  1.0
  C  C601  1  0.255600  0.984400  0.381000  1.0
  C  C602  1  0.244400  0.515600  0.881000  1.0
  C  C603  1  0.484400  0.755600  0.119000  1.0
  C  C604  1  0.015600  0.744400  0.619000  1.0
  C  C605  1  0.744400  0.015600  0.619000  1.0
  C  C606  1  0.755600  0.484400  0.119000  1.0
  C  C607  1  0.515600  0.244400  0.881000  1.0
  C  C608  1  0.984400  0.255600  0.381000  1.0
  C  C609  1  0.206700  0.993500  0.390200  1.0
  C  C610  1  0.293300  0.506500  0.890200  1.0
  C  C611  1  0.493500  0.706700  0.109800  1.0
  C  C612  1  0.006500  0.793300  0.609800  1.0
  C  C613  1  0.793300  0.006500  0.609800  1.0
  C  C614  1  0.706700  0.493500  0.109800  1.0
  C  C615  1  0.506500  0.293300  0.890200  1.0
  C  C616  1  0.993500  0.206700  0.390200  1.0
  C  C617  1  0.855500  0.127300  0.485300  1.0
  C  C618  1  0.644500  0.372700  0.985300  1.0
  C  C619  1  0.627300  0.355500  0.014700  1.0
  C  C620  1  0.872700  0.144500  0.514700  1.0
  C  C621  1  0.144500  0.872700  0.514700  1.0
  C  C622  1  0.355500  0.627300  0.014700  1.0
  C  C623  1  0.372700  0.644500  0.985300  1.0
  C  C624  1  0.127300  0.855500  0.485300  1.0
  C  C625  1  0.893800  0.074200  0.469400  1.0
  C  C626  1  0.606200  0.425800  0.969400  1.0
  C  C627  1  0.574200  0.393800  0.030600  1.0
  C  C628  1  0.925800  0.106200  0.530600  1.0
  C  C629  1  0.106200  0.925800  0.530600  1.0
  C  C630  1  0.393800  0.574200  0.030600  1.0
  C  C631  1  0.425800  0.606200  0.969400  1.0
  C  C632  1  0.074200  0.893800  0.469400  1.0
  Cu  Cu633  1  0.793120  0.206880  0.500000  1.0
  Cu  Cu634  1  0.706880  0.293120  0.000000  1.0
  Cu  Cu635  1  0.206880  0.793120  0.500000  1.0
  Cu  Cu636  1  0.293120  0.706880  0.000000  1.0
  Cu  Cu637  1  0.733410  0.266590  0.500000  1.0
  Cu  Cu638  1  0.766590  0.233410  1.000000  1.0
  Cu  Cu639  1  0.266590  0.733410  0.500000  1.0
  Cu  Cu640  1  0.233410  0.766590  0.000000  1.0
  Cu  Cu641  1  0.654600  0.654600  0.806960  1.0
  Cu  Cu642  1  0.845400  0.845400  0.306960  1.0
  Cu  Cu643  1  0.154600  0.154600  0.693040  1.0
  Cu  Cu644  1  0.345400  0.345400  0.193040  1.0
  Cu  Cu645  1  0.621240  0.621240  0.744930  1.0
  Cu  Cu646  1  0.878760  0.878760  0.244930  1.0
  Cu  Cu647  1  0.121240  0.121240  0.755070  1.0
  Cu  Cu648  1  0.378760  0.378760  0.255070  1.0
  Cu  Cu649  1  0.518130  0.224490  0.775520  1.0
  Cu  Cu650  1  0.981870  0.275510  0.275520  1.0
  Cu  Cu651  1  0.724490  0.018130  0.724480  1.0
  Cu  Cu652  1  0.775510  0.481870  0.224480  1.0
  Cu  Cu653  1  0.481870  0.775510  0.224480  1.0
  Cu  Cu654  1  0.018130  0.724490  0.724480  1.0
  Cu  Cu655  1  0.275510  0.981870  0.275520  1.0
  Cu  Cu656  1  0.224490  0.518130  0.775520  1.0
  Cu  Cu657  1  0.509760  0.279980  0.720810  1.0
  Cu  Cu658  1  0.990240  0.220020  0.220810  1.0
  Cu  Cu659  1  0.779980  0.009760  0.779190  1.0
  Cu  Cu660  1  0.720020  0.490240  0.279190  1.0
  Cu  Cu661  1  0.490240  0.720020  0.279190  1.0
  Cu  Cu662  1  0.009760  0.779980  0.779190  1.0
  Cu  Cu663  1  0.220020  0.990240  0.220810  1.0
  Cu  Cu664  1  0.279980  0.509760  0.720810  1.0
  Cu  Cu665  1  0.362290  0.067570  0.468240  1.0
  Cu  Cu666  1  0.137710  0.432430  0.968240  1.0
  Cu  Cu667  1  0.567570  0.862290  0.031760  1.0
  Cu  Cu668  1  0.932430  0.637710  0.531760  1.0
  Cu  Cu669  1  0.637710  0.932430  0.531760  1.0
  Cu  Cu670  1  0.862290  0.567570  0.031760  1.0
  Cu  Cu671  1  0.432430  0.137710  0.968240  1.0
  Cu  Cu672  1  0.067570  0.362290  0.468240  1.0
  Cu  Cu673  1  0.389110  0.154850  0.477260  1.0
  Cu  Cu674  1  0.110890  0.345150  0.977260  1.0
  Cu  Cu675  1  0.654850  0.889110  0.022740  1.0
  Cu  Cu676  1  0.845150  0.610890  0.522740  1.0
  Cu  Cu677  1  0.610890  0.845150  0.522740  1.0
  Cu  Cu678  1  0.889110  0.654850  0.022740  1.0
  Cu  Cu679  1  0.345150  0.110890  0.977260  1.0
  Cu  Cu680  1  0.154850  0.389110  0.477260  1.0
  H  H681  1  0.681100  0.247300  0.608300  1.0
  H  H682  1  0.818900  0.252700  0.108300  1.0
  H  H683  1  0.747300  0.181100  0.891700  1.0
  H  H684  1  0.752700  0.318900  0.391700  1.0
  H  H685  1  0.318900  0.752700  0.391700  1.0
  H  H686  1  0.181100  0.747300  0.891700  1.0
  H  H687  1  0.252700  0.818900  0.108300  1.0
  H  H688  1  0.247300  0.681100  0.608300  1.0
  H  H689  1  0.774000  0.158400  0.610400  1.0
  H  H690  1  0.726000  0.341600  0.110400  1.0
  H  H691  1  0.658400  0.274000  0.889600  1.0
  H  H692  1  0.841600  0.226000  0.389600  1.0
  H  H693  1  0.226000  0.841600  0.389600  1.0
  H  H694  1  0.274000  0.658400  0.889600  1.0
  H  H695  1  0.341600  0.726000  0.110400  1.0
  H  H696  1  0.158400  0.774000  0.610400  1.0
  H  H697  1  0.734700  0.119500  0.658300  1.0
  H  H698  1  0.765300  0.380500  0.158300  1.0
  H  H699  1  0.619500  0.234700  0.841700  1.0
  H  H700  1  0.880500  0.265300  0.341700  1.0
  H  H701  1  0.265300  0.880500  0.341700  1.0
  H  H702  1  0.234700  0.619500  0.841700  1.0
  H  H703  1  0.380500  0.765300  0.158300  1.0
  H  H704  1  0.119500  0.734700  0.658300  1.0
  H  H705  1  0.677700  0.119700  0.702200  1.0
  H  H706  1  0.822300  0.380300  0.202200  1.0
  H  H707  1  0.619700  0.177700  0.797800  1.0
  H  H708  1  0.880300  0.322300  0.297800  1.0
  H  H709  1  0.322300  0.880300  0.297800  1.0
  H  H710  1  0.177700  0.619700  0.797800  1.0
  H  H711  1  0.380300  0.822300  0.202200  1.0
  H  H712  1  0.119700  0.677700  0.702200  1.0
  H  H713  1  0.615700  0.149700  0.732100  1.0
  H  H714  1  0.884300  0.350300  0.232100  1.0
  H  H715  1  0.649700  0.115700  0.767900  1.0
  H  H716  1  0.850300  0.384300  0.267900  1.0
  H  H717  1  0.384300  0.850300  0.267900  1.0
  H  H718  1  0.115700  0.649700  0.767900  1.0
  H  H719  1  0.350300  0.884300  0.232100  1.0
  H  H720  1  0.149700  0.615700  0.732100  1.0
  H  H721  1  0.622900  0.247300  0.656400  1.0
  H  H722  1  0.877100  0.252700  0.156400  1.0
  H  H723  1  0.747300  0.122900  0.843600  1.0
  H  H724  1  0.752700  0.377100  0.343600  1.0
  H  H725  1  0.377100  0.752700  0.343600  1.0
  H  H726  1  0.122900  0.747300  0.843600  1.0
  H  H727  1  0.252700  0.877100  0.156400  1.0
  H  H728  1  0.247300  0.622900  0.656400  1.0
  H  H729  1  0.411600  0.154400  0.589000  1.0
  H  H730  1  0.088400  0.345600  0.089000  1.0
  H  H731  1  0.654400  0.911600  0.911000  1.0
  H  H732  1  0.845600  0.588400  0.411000  1.0
  H  H733  1  0.588400  0.845600  0.411000  1.0
  H  H734  1  0.911600  0.654400  0.911000  1.0
  H  H735  1  0.345600  0.088400  0.089000  1.0
  H  H736  1  0.154400  0.411600  0.589000  1.0
  H  H737  1  0.363400  0.021600  0.581100  1.0
  H  H738  1  0.136600  0.478400  0.081100  1.0
  H  H739  1  0.521600  0.863400  0.918900  1.0
  H  H740  1  0.978400  0.636600  0.418900  1.0
  H  H741  1  0.636600  0.978400  0.418900  1.0
  H  H742  1  0.863400  0.521600  0.918900  1.0
  H  H743  1  0.478400  0.136600  0.081100  1.0
  H  H744  1  0.021600  0.363400  0.581100  1.0
  H  H745  1  0.374500  0.013500  0.641900  1.0
  H  H746  1  0.125500  0.486500  0.141900  1.0
  H  H747  1  0.513500  0.874500  0.858100  1.0
  H  H748  1  0.986500  0.625500  0.358100  1.0
  H  H749  1  0.625500  0.986500  0.358100  1.0
  H  H750  1  0.874500  0.513500  0.858100  1.0
  H  H751  1  0.486500  0.125500  0.141900  1.0
  H  H752  1  0.013500  0.374500  0.641900  1.0
  H  H753  1  0.405300  0.046300  0.701800  1.0
  H  H754  1  0.094700  0.453700  0.201800  1.0
  H  H755  1  0.546300  0.905300  0.798200  1.0
  H  H756  1  0.953700  0.594700  0.298200  1.0
  H  H757  1  0.594700  0.953700  0.298200  1.0
  H  H758  1  0.905300  0.546300  0.798200  1.0
  H  H759  1  0.453700  0.094700  0.201800  1.0
  H  H760  1  0.046300  0.405300  0.701800  1.0
  H  H761  1  0.441800  0.104800  0.734700  1.0
  H  H762  1  0.058200  0.395200  0.234700  1.0
  H  H763  1  0.604800  0.941800  0.765300  1.0
  H  H764  1  0.895200  0.558200  0.265300  1.0
  H  H765  1  0.558200  0.895200  0.265300  1.0
  H  H766  1  0.941800  0.604800  0.765300  1.0
  H  H767  1  0.395200  0.058200  0.234700  1.0
  H  H768  1  0.104800  0.441800  0.734700  1.0
  H  H769  1  0.440200  0.184800  0.647700  1.0
  H  H770  1  0.059800  0.315200  0.147700  1.0
  H  H771  1  0.684800  0.940200  0.852300  1.0
  H  H772  1  0.815200  0.559800  0.352300  1.0
  H  H773  1  0.559800  0.815200  0.352300  1.0
  H  H774  1  0.940200  0.684800  0.852300  1.0
  H  H775  1  0.315200  0.059800  0.147700  1.0
  H  H776  1  0.184800  0.440200  0.647700  1.0
  H  H777  1  0.615800  0.177000  0.475100  1.0
  H  H778  1  0.884200  0.323000  0.975100  1.0
  H  H779  1  0.677000  0.115800  0.024900  1.0
  H  H780  1  0.823000  0.384200  0.524900  1.0
  H  H781  1  0.384200  0.823000  0.524900  1.0
  H  H782  1  0.115800  0.677000  0.024900  1.0
  H  H783  1  0.323000  0.884200  0.975100  1.0
  H  H784  1  0.177000  0.615800  0.475100  1.0
  H  H785  1  0.706500  0.087900  0.477100  1.0
  H  H786  1  0.793500  0.412100  0.977100  1.0
  H  H787  1  0.587900  0.206500  0.022900  1.0
  H  H788  1  0.912100  0.293500  0.522900  1.0
  H  H789  1  0.293500  0.912100  0.522900  1.0
  H  H790  1  0.206500  0.587900  0.022900  1.0
  H  H791  1  0.412100  0.793500  0.977100  1.0
  H  H792  1  0.087900  0.706500  0.477100  1.0
  H  H793  1  0.649200  0.026600  0.470900  1.0
  H  H794  1  0.850800  0.473400  0.970900  1.0
  H  H795  1  0.526600  0.149200  0.029100  1.0
  H  H796  1  0.973400  0.350800  0.529100  1.0
  H  H797  1  0.350800  0.973400  0.529100  1.0
  H  H798  1  0.149200  0.526600  0.029100  1.0
  H  H799  1  0.473400  0.850800  0.970900  1.0
  H  H800  1  0.026600  0.649200  0.470900  1.0
  H  H801  1  0.565100  0.997900  0.464700  1.0
  H  H802  1  0.934900  0.502100  0.964700  1.0
  H  H803  1  0.497900  0.065100  0.035300  1.0
  H  H804  1  0.002100  0.434900  0.535300  1.0
  H  H805  1  0.434900  0.002100  0.535300  1.0
  H  H806  1  0.065100  0.497900  0.035300  1.0
  H  H807  1  0.502100  0.934900  0.964700  1.0
  H  H808  1  0.997900  0.565100  0.464700  1.0
  H  H809  1  0.492300  0.014300  0.464300  1.0
  H  H810  1  0.007700  0.485700  0.964300  1.0
  H  H811  1  0.514300  0.992300  0.035700  1.0
  H  H812  1  0.985700  0.507700  0.535700  1.0
  H  H813  1  0.507700  0.985700  0.535700  1.0
  H  H814  1  0.992300  0.514300  0.035700  1.0
  H  H815  1  0.485700  0.007700  0.964300  1.0
  H  H816  1  0.014300  0.492300  0.464300  1.0
  H  H817  1  0.532000  0.149400  0.470400  1.0
  H  H818  1  0.968000  0.350600  0.970400  1.0
  H  H819  1  0.649400  0.032000  0.029600  1.0
  H  H820  1  0.850600  0.468000  0.529600  1.0
  H  H821  1  0.468000  0.850600  0.529600  1.0
  H  H822  1  0.032000  0.649400  0.029600  1.0
  H  H823  1  0.350600  0.968000  0.970400  1.0
  H  H824  1  0.149400  0.532000  0.470400  1.0
  H  H825  1  0.579400  0.399800  0.764400  1.0
  H  H826  1  0.920600  0.100200  0.264400  1.0
  H  H827  1  0.899800  0.079400  0.735600  1.0
  H  H828  1  0.600200  0.420600  0.235600  1.0
  H  H829  1  0.420600  0.600200  0.235600  1.0
  H  H830  1  0.079400  0.899800  0.735600  1.0
  H  H831  1  0.100200  0.920600  0.264400  1.0
  H  H832  1  0.399800  0.579400  0.764400  1.0
  H  H833  1  0.602600  0.313200  0.843400  1.0
  H  H834  1  0.897400  0.186800  0.343400  1.0
  H  H835  1  0.813200  0.102600  0.656600  1.0
  H  H836  1  0.686800  0.397400  0.156600  1.0
  H  H837  1  0.397400  0.686800  0.156600  1.0
  H  H838  1  0.102600  0.813200  0.656600  1.0
  H  H839  1  0.186800  0.897400  0.343400  1.0
  H  H840  1  0.313200  0.602600  0.843400  1.0
  H  H841  1  0.637700  0.369500  0.879500  1.0
  H  H842  1  0.862300  0.130500  0.379500  1.0
  H  H843  1  0.869500  0.137700  0.620500  1.0
  H  H844  1  0.630500  0.362300  0.120500  1.0
  H  H845  1  0.362300  0.630500  0.120500  1.0
  H  H846  1  0.137700  0.869500  0.620500  1.0
  H  H847  1  0.130500  0.862300  0.379500  1.0
  H  H848  1  0.369500  0.637700  0.879500  1.0
  H  H849  1  0.666800  0.454400  0.885800  1.0
  H  H850  1  0.833200  0.045600  0.385800  1.0
  H  H851  1  0.954400  0.166800  0.614200  1.0
  H  H852  1  0.545600  0.333200  0.114200  1.0
  H  H853  1  0.333200  0.545600  0.114200  1.0
  H  H854  1  0.166800  0.954400  0.614200  1.0
  H  H855  1  0.045600  0.833200  0.385800  1.0
  H  H856  1  0.454400  0.666800  0.885800  1.0
  H  H857  1  0.668100  0.528700  0.866800  1.0
  H  H858  1  0.831900  0.971300  0.366800  1.0
  H  H859  1  0.028700  0.168100  0.633200  1.0
  H  H860  1  0.471300  0.331900  0.133200  1.0
  H  H861  1  0.331900  0.471300  0.133200  1.0
  H  H862  1  0.168100  0.028700  0.633200  1.0
  H  H863  1  0.971300  0.831900  0.366800  1.0
  H  H864  1  0.528700  0.668100  0.866800  1.0
  H  H865  1  0.605300  0.483100  0.771000  1.0
  H  H866  1  0.894700  0.016900  0.271000  1.0
  H  H867  1  0.983100  0.105300  0.729000  1.0
  H  H868  1  0.516900  0.394700  0.229000  1.0
  H  H869  1  0.394700  0.516900  0.229000  1.0
  H  H870  1  0.105300  0.983100  0.729000  1.0
  H  H871  1  0.016900  0.894700  0.271000  1.0
  H  H872  1  0.483100  0.605300  0.771000  1.0
  H  H873  1  0.621000  0.743600  0.686900  1.0
  H  H874  1  0.879000  0.756400  0.186900  1.0
  H  H875  1  0.243600  0.121000  0.813100  1.0
  H  H876  1  0.256400  0.379000  0.313100  1.0
  H  H877  1  0.379000  0.256400  0.313100  1.0
  H  H878  1  0.121000  0.243600  0.813100  1.0
  H  H879  1  0.756400  0.879000  0.186900  1.0
  H  H880  1  0.743600  0.621000  0.686900  1.0
  H  H881  1  0.661800  0.795000  0.782900  1.0
  H  H882  1  0.838200  0.705000  0.282900  1.0
  H  H883  1  0.295000  0.161800  0.717100  1.0
  H  H884  1  0.205000  0.338200  0.217100  1.0
  H  H885  1  0.338200  0.205000  0.217100  1.0
  H  H886  1  0.161800  0.295000  0.717100  1.0
  H  H887  1  0.705000  0.838200  0.282900  1.0
  H  H888  1  0.795000  0.661800  0.782900  1.0
  H  H889  1  0.668500  0.870100  0.758900  1.0
  H  H890  1  0.831500  0.629900  0.258900  1.0
  H  H891  1  0.370100  0.168500  0.741100  1.0
  H  H892  1  0.129900  0.331500  0.241100  1.0
  H  H893  1  0.331500  0.129900  0.241100  1.0
  H  H894  1  0.168500  0.370100  0.741100  1.0
  H  H895  1  0.629900  0.831500  0.258900  1.0
  H  H896  1  0.870100  0.668500  0.758900  1.0
  H  H897  1  0.667700  0.921500  0.705200  1.0
  H  H898  1  0.832300  0.578500  0.205200  1.0
  H  H899  1  0.421500  0.167700  0.794800  1.0
  H  H900  1  0.078500  0.332300  0.294800  1.0
  H  H901  1  0.332300  0.078500  0.294800  1.0
  H  H902  1  0.167700  0.421500  0.794800  1.0
  H  H903  1  0.578500  0.832300  0.205200  1.0
  H  H904  1  0.921500  0.667700  0.705200  1.0
  H  H905  1  0.652300  0.931100  0.646700  1.0
  H  H906  1  0.847700  0.568900  0.146700  1.0
  H  H907  1  0.431100  0.152300  0.853300  1.0
  H  H908  1  0.068900  0.347700  0.353300  1.0
  H  H909  1  0.347700  0.068900  0.353300  1.0
  H  H910  1  0.152300  0.431100  0.853300  1.0
  H  H911  1  0.568900  0.847700  0.146700  1.0
  H  H912  1  0.931100  0.652300  0.646700  1.0
  H  H913  1  0.621600  0.795800  0.631700  1.0
  H  H914  1  0.878400  0.704200  0.131700  1.0
  H  H915  1  0.295800  0.121600  0.868300  1.0
  H  H916  1  0.204200  0.378400  0.368300  1.0
  H  H917  1  0.378400  0.204200  0.368300  1.0
  H  H918  1  0.121600  0.295800  0.868300  1.0
  H  H919  1  0.704200  0.878400  0.131700  1.0
  H  H920  1  0.795800  0.621600  0.631700  1.0
  H  H921  1  0.401500  0.344500  0.758200  1.0
  H  H922  1  0.098500  0.155500  0.258200  1.0
  H  H923  1  0.844500  0.901500  0.741800  1.0
  H  H924  1  0.655500  0.598500  0.241800  1.0
  H  H925  1  0.598500  0.655500  0.241800  1.0
  H  H926  1  0.901500  0.844500  0.741800  1.0
  H  H927  1  0.155500  0.098500  0.258200  1.0
  H  H928  1  0.344500  0.401500  0.758200  1.0
  H  H929  1  0.410500  0.263100  0.843900  1.0
  H  H930  1  0.089500  0.236900  0.343900  1.0
  H  H931  1  0.763100  0.910500  0.656100  1.0
  H  H932  1  0.736900  0.589500  0.156100  1.0
  H  H933  1  0.589500  0.736900  0.156100  1.0
  H  H934  1  0.910500  0.763100  0.656100  1.0
  H  H935  1  0.236900  0.089500  0.343900  1.0
  H  H936  1  0.263100  0.410500  0.843900  1.0
  H  H937  1  0.355000  0.293400  0.874600  1.0
  H  H938  1  0.145000  0.206600  0.374600  1.0
  H  H939  1  0.793400  0.855000  0.625400  1.0
  H  H940  1  0.706600  0.645000  0.125400  1.0
  H  H941  1  0.645000  0.706600  0.125400  1.0
  H  H942  1  0.855000  0.793400  0.625400  1.0
  H  H943  1  0.206600  0.145000  0.374600  1.0
  H  H944  1  0.293400  0.355000  0.874600  1.0
  H  H945  1  0.259400  0.203800  0.481400  1.0
  H  H946  1  0.240600  0.296200  0.981400  1.0
  H  H947  1  0.703800  0.759400  0.018600  1.0
  H  H948  1  0.796200  0.740600  0.518600  1.0
  H  H949  1  0.740600  0.796200  0.518600  1.0
  H  H950  1  0.759400  0.703800  0.018600  1.0
  H  H951  1  0.296200  0.240600  0.981400  1.0
  H  H952  1  0.203800  0.259400  0.481400  1.0
  H  H953  1  0.220700  0.072700  0.464100  1.0
  H  H954  1  0.279300  0.427300  0.964100  1.0
  H  H955  1  0.572700  0.720700  0.035900  1.0
  H  H956  1  0.927300  0.779300  0.535900  1.0
  H  H957  1  0.779300  0.927300  0.535900  1.0
  H  H958  1  0.720700  0.572700  0.035900  1.0
  H  H959  1  0.427300  0.279300  0.964100  1.0
  H  H960  1  0.072700  0.220700  0.464100  1.0
  H  H961  1  0.147000  0.086600  0.458100  1.0
  H  H962  1  0.353000  0.413400  0.958100  1.0
  H  H963  1  0.586600  0.647000  0.041900  1.0
  H  H964  1  0.913400  0.853000  0.541900  1.0
  H  H965  1  0.853000  0.913400  0.541900  1.0
  H  H966  1  0.647000  0.586600  0.041900  1.0
  H  H967  1  0.413400  0.353000  0.958100  1.0
  H  H968  1  0.086600  0.147000  0.458100  1.0
  H  H969  1  0.312300  0.025900  0.418300  1.0
  H  H970  1  0.187700  0.474100  0.918300  1.0
  H  H971  1  0.525900  0.812300  0.081700  1.0
  H  H972  1  0.974100  0.687700  0.581700  1.0
  H  H973  1  0.687700  0.974100  0.581700  1.0
  H  H974  1  0.812300  0.525900  0.081700  1.0
  H  H975  1  0.474100  0.187700  0.918300  1.0
  H  H976  1  0.025900  0.312300  0.418300  1.0
  H  H977  1  0.233200  0.918000  0.443700  1.0
  H  H978  1  0.266800  0.582000  0.943700  1.0
  H  H979  1  0.418000  0.733200  0.056300  1.0
  H  H980  1  0.082000  0.766800  0.556300  1.0
  H  H981  1  0.766800  0.082000  0.556300  1.0
  H  H982  1  0.733200  0.418000  0.056300  1.0
  H  H983  1  0.582000  0.266800  0.943700  1.0
  H  H984  1  0.918000  0.233200  0.443700  1.0
  H  H985  1  0.263100  0.953500  0.470000  1.0
  H  H986  1  0.236900  0.546500  0.970000  1.0
  H  H987  1  0.453500  0.763100  0.030000  1.0
  H  H988  1  0.046500  0.736900  0.530000  1.0
  H  H989  1  0.736900  0.046500  0.530000  1.0
  H  H990  1  0.763100  0.453500  0.030000  1.0
  H  H991  1  0.546500  0.236900  0.970000  1.0
  H  H992  1  0.953500  0.263100  0.470000  1.0
  H  H993  1  0.306400  0.891000  0.459400  1.0
  H  H994  1  0.193600  0.609000  0.959400  1.0
  H  H995  1  0.391000  0.806400  0.040600  1.0
  H  H996  1  0.109000  0.693600  0.540600  1.0
  H  H997  1  0.693600  0.109000  0.540600  1.0
  H  H998  1  0.806400  0.391000  0.040600  1.0
  H  H999  1  0.609000  0.193600  0.959400  1.0
  H  H1000  1  0.891000  0.306400  0.459400  1.0
  H  H1001  1  0.331400  0.934600  0.439400  1.0
  H  H1002  1  0.168600  0.565400  0.939400  1.0
  H  H1003  1  0.434600  0.831400  0.060600  1.0
  H  H1004  1  0.065400  0.668600  0.560600  1.0
  H  H1005  1  0.668600  0.065400  0.560600  1.0
  H  H1006  1  0.831400  0.434600  0.060600  1.0
  H  H1007  1  0.565400  0.168600  0.939400  1.0
  H  H1008  1  0.934600  0.331400  0.439400  1.0
  H  H1009  1  0.300700  0.896700  0.416900  1.0
  H  H1010  1  0.199300  0.603300  0.916900  1.0
  H  H1011  1  0.396700  0.800700  0.083100  1.0
  H  H1012  1  0.103300  0.699300  0.583100  1.0
  H  H1013  1  0.699300  0.103300  0.583100  1.0
  H  H1014  1  0.800700  0.396700  0.083100  1.0
  H  H1015  1  0.603300  0.199300  0.916900  1.0
  H  H1016  1  0.896700  0.300700  0.416900  1.0
  H  H1017  1  0.256200  0.960000  0.362900  1.0
  H  H1018  1  0.243800  0.540000  0.862900  1.0
  H  H1019  1  0.460000  0.756200  0.137100  1.0
  H  H1020  1  0.040000  0.743800  0.637100  1.0
  H  H1021  1  0.743800  0.040000  0.637100  1.0
  H  H1022  1  0.756200  0.460000  0.137100  1.0
  H  H1023  1  0.540000  0.243800  0.862900  1.0
  H  H1024  1  0.960000  0.256200  0.362900  1.0
  H  H1025  1  0.274300  0.012100  0.372600  1.0
  H  H1026  1  0.225700  0.487900  0.872600  1.0
  H  H1027  1  0.512100  0.774300  0.127400  1.0
  H  H1028  1  0.987900  0.725700  0.627400  1.0
  H  H1029  1  0.725700  0.987900  0.627400  1.0
  H  H1030  1  0.774300  0.512100  0.127400  1.0
  H  H1031  1  0.487900  0.225700  0.872600  1.0
  H  H1032  1  0.012100  0.274300  0.372600  1.0
  H  H1033  1  0.191300  0.001700  0.368200  1.0
  H  H1034  1  0.308700  0.498300  0.868200  1.0
  H  H1035  1  0.501700  0.691300  0.131800  1.0
  H  H1036  1  0.998300  0.808700  0.631800  1.0
  H  H1037  1  0.808700  0.998300  0.631800  1.0
  H  H1038  1  0.691300  0.501700  0.131800  1.0
  H  H1039  1  0.498300  0.308700  0.868200  1.0
  H  H1040  1  0.001700  0.191300  0.368200  1.0
  H  H1041  1  0.207600  0.018400  0.407600  1.0
  H  H1042  1  0.292400  0.481600  0.907600  1.0
  H  H1043  1  0.518400  0.707600  0.092400  1.0
  H  H1044  1  0.981600  0.792400  0.592400  1.0
  H  H1045  1  0.792400  0.981600  0.592400  1.0
  H  H1046  1  0.707600  0.518400  0.092400  1.0
  H  H1047  1  0.481600  0.292400  0.907600  1.0
  H  H1048  1  0.018400  0.207600  0.407600  1.0
  H  H1049  1  0.190200  0.966200  0.400700  1.0
  H  H1050  1  0.309800  0.533800  0.900700  1.0
  H  H1051  1  0.466200  0.690200  0.099300  1.0
  H  H1052  1  0.033800  0.809800  0.599300  1.0
  H  H1053  1  0.809800  0.033800  0.599300  1.0
  H  H1054  1  0.690200  0.466200  0.099300  1.0
  H  H1055  1  0.533800  0.309800  0.900700  1.0
  H  H1056  1  0.966200  0.190200  0.400700  1.0
  N  N1057  1  0.893800  0.106200  0.500000  1.0
  N  N1058  1  0.606200  0.393800  0.000000  1.0
  N  N1059  1  0.106200  0.893800  0.500000  1.0
  N  N1060  1  0.393800  0.606200  0.000000  1.0
  N  N1061  1  0.269900  0.970300  0.416400  1.0
  N  N1062  1  0.230100  0.529700  0.916400  1.0
  N  N1063  1  0.470300  0.769900  0.083600  1.0
  N  N1064  1  0.029700  0.730100  0.583600  1.0
  N  N1065  1  0.730100  0.029700  0.583600  1.0
  N  N1066  1  0.769900  0.470300  0.083600  1.0
  N  N1067  1  0.529700  0.230100  0.916400  1.0
  N  N1068  1  0.970300  0.269900  0.416400  1.0
  O  O1069  1  0.841600  0.158400  0.500000  1.0
  O  O1070  1  0.658400  0.341600  0.000000  1.0
  O  O1071  1  0.158400  0.841600  0.500000  1.0
  O  O1072  1  0.341600  0.658400  0.000000  1.0
  O  O1073  1  0.684200  0.315800  0.500000  1.0
  O  O1074  1  0.815800  0.184200  0.000000  1.0
  O  O1075  1  0.315800  0.684200  0.500000  1.0
  O  O1076  1  0.184200  0.815800  0.000000  1.0
  O  O1077  1  0.681200  0.681200  0.856100  1.0
  O  O1078  1  0.818800  0.818800  0.356100  1.0
  O  O1079  1  0.181200  0.181200  0.643900  1.0
  O  O1080  1  0.318800  0.318800  0.143900  1.0
  O  O1081  1  0.593900  0.593900  0.692000  1.0
  O  O1082  1  0.906100  0.906100  0.192000  1.0
  O  O1083  1  0.093900  0.093900  0.808000  1.0
  O  O1084  1  0.406100  0.406100  0.308000  1.0
  O  O1085  1  0.775910  0.198150  0.549200  1.0
  O  O1086  1  0.724090  0.301850  0.049200  1.0
  O  O1087  1  0.698150  0.275910  0.950800  1.0
  O  O1088  1  0.801850  0.224090  0.450800  1.0
  O  O1089  1  0.224090  0.801850  0.450800  1.0
  O  O1090  1  0.275910  0.698150  0.950800  1.0
  O  O1091  1  0.301850  0.724090  0.049200  1.0
  O  O1092  1  0.198150  0.775910  0.549200  1.0
  O  O1093  1  0.724630  0.250130  0.549300  1.0
  O  O1094  1  0.775370  0.249870  0.049300  1.0
  O  O1095  1  0.750130  0.224630  0.950700  1.0
  O  O1096  1  0.749870  0.275370  0.450700  1.0
  O  O1097  1  0.275370  0.749870  0.450700  1.0
  O  O1098  1  0.224630  0.750130  0.950700  1.0
  O  O1099  1  0.249870  0.775370  0.049300  1.0
  O  O1100  1  0.250130  0.724630  0.549300  1.0
  O  O1101  1  0.569240  0.206160  0.747300  1.0
  O  O1102  1  0.930760  0.293840  0.247300  1.0
  O  O1103  1  0.706160  0.069240  0.752700  1.0
  O  O1104  1  0.793840  0.430760  0.252700  1.0
  O  O1105  1  0.430760  0.793840  0.252700  1.0
  O  O1106  1  0.069240  0.706160  0.752700  1.0
  O  O1107  1  0.293840  0.930760  0.247300  1.0
  O  O1108  1  0.206160  0.569240  0.747300  1.0
  O  O1109  1  0.563640  0.257620  0.700690  1.0
  O  O1110  1  0.936360  0.242380  0.200690  1.0
  O  O1111  1  0.757620  0.063640  0.799310  1.0
  O  O1112  1  0.742380  0.436360  0.299310  1.0
  O  O1113  1  0.436360  0.742380  0.299310  1.0
  O  O1114  1  0.063640  0.757620  0.799310  1.0
  O  O1115  1  0.242380  0.936360  0.200690  1.0
  O  O1116  1  0.257620  0.563640  0.700690  1.0
  O  O1117  1  0.365130  0.063190  0.517700  1.0
  O  O1118  1  0.134870  0.436810  0.017700  1.0
  O  O1119  1  0.563190  0.865130  0.982300  1.0
  O  O1120  1  0.936810  0.634870  0.482300  1.0
  O  O1121  1  0.634870  0.936810  0.482300  1.0
  O  O1122  1  0.865130  0.563190  0.982300  1.0
  O  O1123  1  0.436810  0.134870  0.017700  1.0
  O  O1124  1  0.063190  0.365130  0.517700  1.0
  O  O1125  1  0.392380  0.138780  0.525900  1.0
  O  O1126  1  0.107620  0.361220  0.025900  1.0
  O  O1127  1  0.638780  0.892380  0.974100  1.0
  O  O1128  1  0.861220  0.607620  0.474100  1.0
  O  O1129  1  0.607620  0.861220  0.474100  1.0
  O  O1130  1  0.892380  0.638780  0.974100  1.0
  O  O1131  1  0.361220  0.107620  0.025900  1.0
  O  O1132  1  0.138780  0.392380  0.525900  1.0
  O  O1133  1  0.476670  0.182830  0.747500  1.0
  O  O1134  1  0.023330  0.317170  0.247500  1.0
  O  O1135  1  0.682830  0.976670  0.752500  1.0
  O  O1136  1  0.817170  0.523330  0.252500  1.0
  O  O1137  1  0.523330  0.817170  0.252500  1.0
  O  O1138  1  0.976670  0.682830  0.752500  1.0
  O  O1139  1  0.317170  0.023330  0.247500  1.0
  O  O1140  1  0.182830  0.476670  0.747500  1.0
  O  O1141  1  0.474310  0.227590  0.697700  1.0
  O  O1142  1  0.025690  0.272410  0.197700  1.0
  O  O1143  1  0.727590  0.974310  0.802300  1.0
  O  O1144  1  0.772410  0.525690  0.302300  1.0
  O  O1145  1  0.525690  0.772410  0.302300  1.0
  O  O1146  1  0.974310  0.727590  0.802300  1.0
  O  O1147  1  0.272410  0.025690  0.197700  1.0
  O  O1148  1  0.227590  0.474310  0.697700  1.0
  O  O1149  1  0.741890  0.163130  0.485720  1.0
  O  O1150  1  0.758110  0.336870  0.985720  1.0
  O  O1151  1  0.663130  0.241890  0.014280  1.0
  O  O1152  1  0.836870  0.258110  0.514280  1.0
  O  O1153  1  0.258110  0.836870  0.514280  1.0
  O  O1154  1  0.241890  0.663130  0.014280  1.0
  O  O1155  1  0.336870  0.758110  0.985720  1.0
  O  O1156  1  0.163130  0.741890  0.485720  1.0
  O  O1157  1  0.690720  0.214800  0.485610  1.0
  O  O1158  1  0.809280  0.285200  0.985610  1.0
  O  O1159  1  0.714800  0.190720  0.014390  1.0
  O  O1160  1  0.785200  0.309280  0.514390  1.0
  O  O1161  1  0.309280  0.785200  0.514390  1.0
  O  O1162  1  0.190720  0.714800  0.014390  1.0
  O  O1163  1  0.285200  0.809280  0.985610  1.0
  O  O1164  1  0.214800  0.690720  0.485610  1.0
  O  O1165  1  0.427300  0.059340  0.465830  1.0
  O  O1166  1  0.072700  0.440660  0.965830  1.0
  O  O1167  1  0.559340  0.927300  0.034170  1.0
  O  O1168  1  0.940660  0.572700  0.534170  1.0
  O  O1169  1  0.572700  0.940660  0.534170  1.0
  O  O1170  1  0.927300  0.559340  0.034170  1.0
  O  O1171  1  0.440660  0.072700  0.965830  1.0
  O  O1172  1  0.059340  0.427300  0.465830  1.0
  O  O1173  1  0.449490  0.135030  0.470100  1.0
  O  O1174  1  0.050510  0.364970  0.970100  1.0
  O  O1175  1  0.635030  0.949490  0.029900  1.0
  O  O1176  1  0.864970  0.550510  0.529900  1.0
  O  O1177  1  0.550510  0.864970  0.529900  1.0
  O  O1178  1  0.949490  0.635030  0.029900  1.0
  O  O1179  1  0.364970  0.050510  0.970100  1.0
  O  O1180  1  0.135030  0.449490  0.470100  1.0
  O  O1181  1  0.558490  0.273710  0.795500  1.0
  O  O1182  1  0.941510  0.226290  0.295500  1.0
  O  O1183  1  0.773710  0.058490  0.704500  1.0
  O  O1184  1  0.726290  0.441510  0.204500  1.0
  O  O1185  1  0.441510  0.726290  0.204500  1.0
  O  O1186  1  0.058490  0.773710  0.704500  1.0
  O  O1187  1  0.226290  0.941510  0.295500  1.0
  O  O1188  1  0.273710  0.558490  0.795500  1.0
  O  O1189  1  0.548200  0.322680  0.751300  1.0
  O  O1190  1  0.951800  0.177320  0.251300  1.0
  O  O1191  1  0.822680  0.048200  0.748700  1.0
  O  O1192  1  0.677320  0.451800  0.248700  1.0
  O  O1193  1  0.451800  0.677320  0.248700  1.0
  O  O1194  1  0.048200  0.822680  0.748700  1.0
  O  O1195  1  0.177320  0.951800  0.251300  1.0
  O  O1196  1  0.322680  0.548200  0.751300  1.0
  O  O1197  1  0.652800  0.588640  0.818700  1.0
  O  O1198  1  0.847200  0.911360  0.318700  1.0
  O  O1199  1  0.088640  0.152800  0.681300  1.0
  O  O1200  1  0.411360  0.347200  0.181300  1.0
  O  O1201  1  0.347200  0.411360  0.181300  1.0
  O  O1202  1  0.152800  0.088640  0.681300  1.0
  O  O1203  1  0.911360  0.847200  0.318700  1.0
  O  O1204  1  0.588640  0.652800  0.818700  1.0
  O  O1205  1  0.624480  0.561920  0.766900  1.0
  O  O1206  1  0.875520  0.938080  0.266900  1.0
  O  O1207  1  0.061920  0.124480  0.733100  1.0
  O  O1208  1  0.438080  0.375520  0.233100  1.0
  O  O1209  1  0.375520  0.438080  0.233100  1.0
  O  O1210  1  0.124480  0.061920  0.733100  1.0
  O  O1211  1  0.938080  0.875520  0.266900  1.0
  O  O1212  1  0.561920  0.624480  0.766900  1.0
  O  O1213  1  0.651270  0.713430  0.782800  1.0
  O  O1214  1  0.848730  0.786570  0.282800  1.0
  O  O1215  1  0.213430  0.151270  0.717200  1.0
  O  O1216  1  0.286570  0.348730  0.217200  1.0
  O  O1217  1  0.348730  0.286570  0.217200  1.0
  O  O1218  1  0.151270  0.213430  0.717200  1.0
  O  O1219  1  0.786570  0.848730  0.282800  1.0
  O  O1220  1  0.713430  0.651270  0.782800  1.0
  O  O1221  1  0.621980  0.685280  0.730900  1.0
  O  O1222  1  0.878020  0.814720  0.230900  1.0
  O  O1223  1  0.185280  0.121980  0.769100  1.0
  O  O1224  1  0.314720  0.378020  0.269100  1.0
  O  O1225  1  0.378020  0.314720  0.269100  1.0
  O  O1226  1  0.121980  0.185280  0.769100  1.0
  O  O1227  1  0.814720  0.878020  0.230900  1.0
  O  O1228  1  0.685280  0.621980  0.730900  1.0
  O  O1229  1  0.364830  0.085610  0.417700  1.0
  O  O1230  1  0.135170  0.414390  0.917700  1.0
  O  O1231  1  0.585610  0.864830  0.082300  1.0
  O  O1232  1  0.914390  0.635170  0.582300  1.0
  O  O1233  1  0.635170  0.914390  0.582300  1.0
  O  O1234  1  0.864830  0.585610  0.082300  1.0
  O  O1235  1  0.414390  0.135170  0.917700  1.0
  O  O1236  1  0.085610  0.364830  0.417700  1.0
  O  O1237  1  0.382630  0.161670  0.428000  1.0
  O  O1238  1  0.117370  0.338330  0.928000  1.0
  O  O1239  1  0.661670  0.882630  0.072000  1.0
  O  O1240  1  0.838330  0.617370  0.572000  1.0
  O  O1241  1  0.617370  0.838330  0.572000  1.0
  O  O1242  1  0.882630  0.661670  0.072000  1.0
  O  O1243  1  0.338330  0.117370  0.928000  1.0
  O  O1244  1  0.161670  0.382630  0.428000  1.0
  O  O1245  1  0.467050  0.251830  0.795800  1.0
  O  O1246  1  0.032950  0.248170  0.295800  1.0
  O  O1247  1  0.751830  0.967050  0.704200  1.0
  O  O1248  1  0.748170  0.532950  0.204200  1.0
  O  O1249  1  0.532950  0.748170  0.204200  1.0
  O  O1250  1  0.967050  0.751830  0.704200  1.0
  O  O1251  1  0.248170  0.032950  0.295800  1.0
  O  O1252  1  0.251830  0.467050  0.795800  1.0
  O  O1253  1  0.454380  0.292880  0.746500  1.0
  O  O1254  1  0.045620  0.207120  0.246500  1.0
  O  O1255  1  0.792880  0.954380  0.753500  1.0
  O  O1256  1  0.707120  0.545620  0.253500  1.0
  O  O1257  1  0.545620  0.707120  0.253500  1.0
  O  O1258  1  0.954380  0.792880  0.753500  1.0
  O  O1259  1  0.207120  0.045620  0.246500  1.0
  O  O1260  1  0.292880  0.454380  0.746500  1.0
  O  O1261  1  0.301760  0.085740  0.470200  1.0
  O  O1262  1  0.198240  0.414260  0.970200  1.0
  O  O1263  1  0.585740  0.801760  0.029800  1.0
  O  O1264  1  0.914260  0.698240  0.529800  1.0
  O  O1265  1  0.698240  0.914260  0.529800  1.0
  O  O1266  1  0.801760  0.585740  0.029800  1.0
  O  O1267  1  0.414260  0.198240  0.970200  1.0
  O  O1268  1  0.085740  0.301760  0.470200  1.0
  O  O1269  1  0.323710  0.159770  0.481200  1.0
  O  O1270  1  0.176290  0.340230  0.981200  1.0
  O  O1271  1  0.659770  0.823710  0.018800  1.0
  O  O1272  1  0.840230  0.676290  0.518800  1.0
  O  O1273  1  0.676290  0.840230  0.518800  1.0
  O  O1274  1  0.823710  0.659770  0.018800  1.0
  O  O1275  1  0.340230  0.176290  0.981200  1.0
  O  O1276  1  0.159770  0.323710  0.481200  1.0
  O  O1277  1  0.334110  0.999890  0.455300  1.0
  O  O1278  1  0.165890  0.500110  0.955300  1.0
  O  O1279  1  0.499890  0.834110  0.044700  1.0
  O  O1280  1  0.000110  0.665890  0.544700  1.0
  O  O1281  1  0.665890  0.000110  0.544700  1.0
  O  O1282  1  0.834110  0.499890  0.044700  1.0
  O  O1283  1  0.500110  0.165890  0.955300  1.0
  O  O1284  1  0.999890  0.334110  0.455300  1.0
  O  O1285  1  0.523910  0.171910  0.816420  1.0
  O  O1286  1  0.976090  0.328090  0.316420  1.0
  O  O1287  1  0.671910  0.023910  0.683580  1.0
  O  O1288  1  0.828090  0.476090  0.183580  1.0
  O  O1289  1  0.476090  0.828090  0.183580  1.0
  O  O1290  1  0.023910  0.671910  0.683580  1.0
  O  O1291  1  0.328090  0.976090  0.316420  1.0
  O  O1292  1  0.171910  0.523910  0.816420  1.0
  O  O1293  1  0.502740  0.326380  0.674800  1.0
  O  O1294  1  0.997260  0.173620  0.174800  1.0
  O  O1295  1  0.826380  0.002740  0.825200  1.0
  O  O1296  1  0.673620  0.497260  0.325200  1.0
  O  O1297  1  0.497260  0.673620  0.325200  1.0
  O  O1298  1  0.002740  0.826380  0.825200  1.0
  O  O1299  1  0.173620  0.997260  0.174800  1.0
  O  O1300  1  0.326380  0.502740  0.674800  1.0
  O  O1301  1  0.412030  0.226470  0.488500  1.0
  O  O1302  1  0.087970  0.273530  0.988500  1.0
  O  O1303  1  0.726470  0.912030  0.011500  1.0
  O  O1304  1  0.773530  0.587970  0.511500  1.0
  O  O1305  1  0.587970  0.773530  0.511500  1.0
  O  O1306  1  0.912030  0.726470  0.011500  1.0
  O  O1307  1  0.273530  0.087970  0.988500  1.0
  O  O1308  1  0.226470  0.412030  0.488500  1.0
