
#######################################################################
#
#                 Cambridge Crystallographic Data Centre
#                                CCDC 
#
#######################################################################
#
# If this CIF has been generated from an entry in the Cambridge 
# Structural Database, then it will include bibliographic, chemical, 
# crystal, experimental, refinement or atomic coordinate data resulting 
# from the CCDC's data processing and validation procedures.
#
#######################################################################

data_KOJXEN
_chemical_name_common            MOP-17
_chemical_formula_moiety         'C318 H342 Cu24 N6 O144,16(C5 H11 N1 O1)'
_chemical_name_systematic        
'tetracosakis(\m~4~-5-(Allyloxy)benzene-1,3-dicarboxylato)-hexaaqua-dodecakis(ethanol)-hexakis(N,N-diethylformamide)-tetracosa-copper N,N-diethylformamide solvate'
_symmetry_cell_setting           orthorhombic
_symmetry_space_group_name_H-M   'C m c a'
_symmetry_Int_Tables_number      64
_space_group_name_Hall           '-C 2ac 2'
loop_
_symmetry_equiv_pos_site_id
_symmetry_equiv_pos_as_xyz
1 x,y,z
2 1/2+x,1/2+y,z
3 -x,1/2-y,1/2+z
4 x,-y,-z
5 -x,1/2+y,1/2-z
6 1/2-x,-y,1/2+z
7 1/2+x,1/2-y,-z
8 1/2-x,y,1/2-z
9 -x,-y,-z
10 1/2-x,1/2-y,-z
11 x,1/2+y,1/2-z
12 -x,y,z
13 x,1/2-y,1/2+z
14 1/2+x,y,1/2-z
15 1/2-x,1/2+y,z
16 1/2+x,-y,1/2+z
_cell_length_a                   40.654(13)
_cell_length_b                   39.940(13)
_cell_length_c                   28.935(9)
_cell_angle_alpha                90
_cell_angle_beta                 90
_cell_angle_gamma                90
_cell_volume                     46982.4
_exptl_crystal_colour            blue
_exptl_crystal_description       prism
_cell_formula_units_Z            4
loop_
_atom_site_label
_atom_site_type_symbol
_atom_site_fract_x
_atom_site_fract_y
_atom_site_fract_z
Cu1 Cu 0.68502(4) 0.18730(4) 0.04873(5)
Cu2 Cu 0.68700(4) 0.03339(4) -0.25190(6)
Cu3 Cu 0.64173(4) 0.02473(4) -0.18782(6)
Cu4 Cu 0.5000 0.21838(5) -0.20476(8)
Cu5 Cu 0.63958(4) 0.14122(4) 0.03664(5)
Cu6 Cu 0.5000 0.14907(5) 0.30655(8)
Cu7 Cu 0.5000 0.16528(5) -0.15174(8)
Cu8 Cu 0.5000 0.11345(5) 0.22971(8)
O1 O 0.7099(2) -0.0047(2) -0.2211(3)
O2 O 0.7084(2) 0.0634(2) -0.2078(3)
O3 O 0.5341(2) 0.1439(2) 0.2100(3)
O4 O 0.6605(2) 0.0026(2) -0.2878(3)
O5 O 0.6580(2) 0.0703(2) -0.2717(3)
O6 O 0.6214(2) -0.0055(2) -0.2330(4)
O7 O 0.6193(2) 0.0626(2) -0.2177(4)
O8 O 0.6684(2) 0.0573(2) -0.1532(3)
O9 O 0.6712(2) -0.01121(19) -0.1680(3)
O10 O 0.7036(2) 0.1707(2) -0.0100(3)
O11 O 0.6672(2) 0.1288(2) -0.0166(3)
O12 O 0.7076(2) 0.1510(2) 0.0827(3)
O13 O 0.5337(2) 0.1755(2) 0.2744(3)
O14 O 0.6665(2) 0.1130(2) 0.0762(3)
O15 O 0.6593(2) 0.1981(2) 0.1048(3)
O16 O 0.6194(2) 0.1607(2) 0.0924(3)
O17 O 0.6184(2) 0.1758(2) -0.0021(3)
O18 O 0.6548(2) 0.2158(2) 0.0118(3)
O19 O 0.5335(2) 0.1483(2) -0.1942(3)
O20 O 0.5333(2) 0.2368(2) -0.1624(3)
O21 O 0.5338(2) 0.1911(2) -0.1182(3)
O22 O 0.4661(2) 0.1176(2) 0.3259(3)
O23 O 0.4663(2) 0.0879(2) 0.2612(4)
O24 O 0.5341(2) 0.1933(2) -0.2376(3)
C1 C 0.6336(4) -0.0101(3) -0.2726(7)
C2 C 0.5449(3) 0.1666(4) 0.2345(5)
C3 C 0.5440(4) 0.1658(4) -0.2273(5)
C4 C 0.5432(3) 0.2197(4) -0.1295(5)
C5 C 0.6918(4) 0.1460(4) -0.0298(5)
C6 C 0.6938(4) 0.0707(3) -0.1699(6)
C7 C 0.6931(4) 0.1223(3) 0.0909(4)
C8 C 0.6139(4) 0.1081(3) -0.2669(5)
C9 C 0.6170(3) 0.1936(3) 0.1594(5)
C10 C 0.6954(3) 0.1090(3) -0.1006(5)
H1 H 0.6773 0.0971 -0.0898
C11 C 0.5740(3) 0.1860(4) 0.2175(5)
C12 C 0.6333(3) 0.1835(4) 0.1155(5)
C13 C 0.6321(4) 0.0778(3) -0.2511(5)
C14 C 0.6295(3) 0.2042(4) -0.0078(5)
C15 C 0.6115(4) 0.2269(4) -0.0392(5)
C16 C 0.5856(3) 0.2150(3) -0.0661(5)
H2 H 0.5793 0.1929 -0.0619
C17 C 0.6143(4) 0.2303(4) 0.2267(5)
C18 C 0.5883(4) 0.1205(3) -0.2426(5)
H3 H 0.5810 0.1088 -0.2168
C19 C 0.7072(4) 0.1358(3) -0.0734(5)
C20 C 0.5893(3) 0.1768(3) 0.1759(5)
H4 H 0.5807 0.1591 0.1588
C21 C 0.5862(4) 0.2135(4) 0.2428(5)
H5 H 0.5758 0.2204 0.2697
C22 C 0.6296(3) 0.2200(4) 0.1856(5)
H6 H 0.6485 0.2310 0.1756
C23 C 0.6154(4) -0.0320(4) -0.3034(6)
C24 C 0.7457(3) 0.0575(3) 0.1846(5)
H7 H 0.7568 0.0436 0.2050
C25 C 0.7597(3) 0.0867(4) 0.1684(5)
C26 C 0.5718(4) 0.1511(4) -0.2554(5)
C27 C 0.7433(4) 0.1079(3) 0.1384(5)
H8 H 0.7529 0.1280 0.1294
C28 C 0.6980(4) -0.0197(3) -0.1879(5)
C29 C 0.5787(4) 0.2671(4) -0.1023(5)
H9 H 0.5691 0.2811 -0.1242
C30 C 0.7132(4) 0.0994(3) 0.1223(4)
C31 C 0.5688(4) 0.2336(4) -0.0986(5)
C32 C 0.6260(4) -0.0366(4) -0.3487(7)
H10 H 0.6435 -0.0241 -0.3598
C33 C 0.6112(6) -0.0590(5) -0.3770(7)
C34 C 0.5724(4) -0.0730(4) -0.3173(6)
C35 C 0.5887(4) -0.0501(3) -0.2890(5)
H11 H 0.5811 -0.0470 -0.2590
C36 C 0.7152(3) 0.0501(3) 0.1696(5)
C37 C 0.7094(4) 0.0994(3) -0.1430(5)
C38 C 0.6985(3) 0.0701(3) 0.1380(4)
H12 H 0.6777 0.0641 0.1276
C39 C 0.6240(4) 0.1252(4) -0.3053(5)
H13 H 0.6418 0.1174 -0.3224
C40 C 0.6198(4) 0.2593(3) -0.0438(5)
H14 H 0.6373 0.2680 -0.0268
C41 C 0.4560(3) 0.0949(4) 0.2996(6)
C42 C 0.5828(4) 0.1671(4) -0.2950(5)
H15 H 0.5728 0.1868 -0.3050
C43 C 0.7461(4) 0.1437(5) -0.1362(7)
C44 C 0.7338(4) 0.1527(4) -0.0931(6)
H16 H 0.7434 0.1704 -0.0771
C45 C 0.6029(4) 0.2792(3) -0.0731(6)
C46 C 0.6078(4) 0.1539(4) -0.3186(5)
C47 C 0.5839(5) -0.0767(4) -0.3626(7)
H17 H 0.5732 -0.0911 -0.3830
C48 C 0.7354(4) 0.1168(4) -0.1594(5)
H18 H 0.7457 0.1102 -0.1866
O25 O 0.6203(4) 0.1688(3) -0.3586(5)
C49 C 0.6039(7) 0.1997(5) -0.3732(9)
H19 H 0.6008 0.2145 -0.3470
H20 H 0.5825 0.1947 -0.3865
C50 C 0.6260(11) 0.2160(9) -0.4089(15)
H21 H 0.6188 0.2343 -0.4258
C51 C 0.6571(9) 0.2030(14) -0.4158(19)
H22 H 0.6641 0.1846 -0.3987
H23 H 0.6710 0.2126 -0.4376
O26 O 0.6116(3) 0.3134(3) -0.0743(5)
C52 C 0.5985(6) 0.3348(5) -0.1088(9)
H24 H 0.5999 0.3578 -0.0983
H25 H 0.5755 0.3295 -0.1135
C53 C 0.6165(10) 0.3316(7) -0.1544(9)
H26 H 0.6107 0.3460 -0.1782
C54 C 0.6402(12) 0.3090(13) -0.1621(16)
H27 H 0.6464 0.2943 -0.1388
H28 H 0.6504 0.3081 -0.1908
O27 O 0.6287(2) 0.2571(3) 0.2478(4)
C55 C 0.6152(4) 0.2677(4) 0.2908(6)
H29 H 0.6150 0.2494 0.3128
H30 H 0.5929 0.2757 0.2866
C56 C 0.6370(5) 0.2956(5) 0.3076(7)
H31 H 0.6397 0.3141 0.2884
C57 C 0.6527(6) 0.2957(8) 0.3476(8)
H32 H 0.6506 0.2776 0.3676
H33 H 0.6658 0.3138 0.3558
O28 O 0.7908(3) 0.0987(2) 0.1812(4)
C58 C 0.8079(4) 0.0830(4) 0.2169(6)
H34 H 0.8125 0.0599 0.2088
H35 H 0.7949 0.0833 0.2450
C59 C 0.8395(4) 0.1020(4) 0.2239(7)
H36 H 0.8537 0.1055 0.1991
C60 C 0.8470(6) 0.1136(6) 0.2647(8)
H37 H 0.8328 0.1102 0.2894
H38 H 0.8665 0.1254 0.2690
O29 O 0.7731(4) 0.1626(4) -0.1486(5)
C61 C 0.7886(8) 0.1514(6) -0.1892(9)
H39 H 0.7764 0.1327 -0.2020
H40 H 0.8107 0.1437 -0.1820
C62 C 0.7901(10) 0.1790(8) -0.2236(9)
H41 H 0.7822 0.1768 -0.2536
C63 C 0.8035(10) 0.2066(8) -0.2085(13)
H42 H 0.8112 0.2078 -0.1782
H43 H 0.8054 0.2250 -0.2279
O30 O 0.6189(5) -0.0636(5) -0.4239(6)
C64 C 0.6434(9) -0.0430(11) -0.4459(18)
H44 H 0.6411 -0.0444 -0.4792
H45 H 0.6403 -0.0198 -0.4369
C65 C 0.6773(9) -0.0543(13) -0.4319(13)
H46 H 0.6864 -0.0463 -0.4046
C66 C 0.6947(14) -0.0759(16) -0.458(2)
H47 H 0.6858 -0.0840 -0.4858
H48 H 0.7156 -0.0826 -0.4491
O31 O 0.5000 0.2603(3) -0.2511(4)
C67 C 0.5000 0.2610(6) -0.2981(7)
H49 H 0.5191 0.2742 -0.3068
H50 H 0.4809 0.2742 -0.3068
C68 C 0.5000 0.2333(9) -0.3281(10)
O32 O 0.7243(3) 0.0393(3) -0.3038(3)
O33 O 0.7234(3) 0.2237(3) 0.0596(4)
C71 C 0.7446(8) 0.2381(10) 0.0922(10)
H59 H 0.7510 0.2216 0.1151
H60 H 0.7340 0.2566 0.1077
C72 C 0.7755(9) 0.2506(13) 0.0641(17)
H61 H 0.7952 0.2447 0.0805
H62 H 0.7744 0.2744 0.0605
H63 H 0.7756 0.2401 0.0342
O34 O 0.5000 0.1814(5) 0.3664(6)
O35 O 0.5000 0.1243(4) -0.1038(5)
O36 O 0.6014(3) 0.1034(3) 0.0245(4)
O37 O 0.5000 0.0844(4) 0.1655(5)
O38 O 0.6073(3) 0.0175(3) -0.1305(5)
Cu1K Cu 0.31498(4) 0.18730(4) 0.04873(5)
Cu1C Cu 0.68502(4) -0.18730(4) -0.04873(5)
Cu1H Cu 0.31498(4) -0.18730(4) -0.04873(5)
Cu2K Cu 0.31300(4) 0.03339(4) -0.25190(6)
Cu2C Cu 0.68700(4) -0.03339(4) 0.25190(6)
Cu2H Cu 0.31300(4) -0.03339(4) 0.25190(6)
Cu3K Cu 0.35827(4) 0.02473(4) -0.18782(6)
Cu3C Cu 0.64173(4) -0.02473(4) 0.18782(6)
Cu3H Cu 0.35827(4) -0.02473(4) 0.18782(6)
Cu4H Cu 0.5000 -0.21838(5) 0.20476(8)
Cu5K Cu 0.36042(4) 0.14122(4) 0.03664(5)
Cu5C Cu 0.63958(4) -0.14122(4) -0.03664(5)
Cu5H Cu 0.36042(4) -0.14122(4) -0.03664(5)
Cu6H Cu 0.5000 -0.14907(5) -0.30655(8)
Cu7H Cu 0.5000 -0.16528(5) 0.15174(8)
Cu8H Cu 0.5000 -0.11345(5) -0.22971(8)
O1K O 0.2901(2) -0.0047(2) -0.2211(3)
O1C O 0.7099(2) 0.0047(2) 0.2211(3)
O1H O 0.2901(2) 0.0047(2) 0.2211(3)
O2K O 0.2916(2) 0.0634(2) -0.2078(3)
O2C O 0.7084(2) -0.0634(2) 0.2078(3)
O2H O 0.2916(2) -0.0634(2) 0.2078(3)
O3K O 0.4659(2) 0.1439(2) 0.2100(3)
O3H O 0.4659(2) -0.1439(2) -0.2100(3)
O3C O 0.5341(2) -0.1439(2) -0.2100(3)
O4K O 0.3395(2) 0.0026(2) -0.2878(3)
O4C O 0.6605(2) -0.0026(2) 0.2878(3)
O4H O 0.3395(2) -0.0026(2) 0.2878(3)
O5K O 0.3420(2) 0.0703(2) -0.2717(3)
O5C O 0.6580(2) -0.0703(2) 0.2717(3)
O5H O 0.3420(2) -0.0703(2) 0.2717(3)
O6K O 0.3786(2) -0.0055(2) -0.2330(4)
O6C O 0.6214(2) 0.0055(2) 0.2330(4)
O6H O 0.3786(2) 0.0055(2) 0.2330(4)
O7K O 0.3807(2) 0.0626(2) -0.2177(4)
O7C O 0.6193(2) -0.0626(2) 0.2177(4)
O7H O 0.3807(2) -0.0626(2) 0.2177(4)
O8K O 0.3316(2) 0.0573(2) -0.1532(3)
O8C O 0.6684(2) -0.0573(2) 0.1532(3)
O8H O 0.3316(2) -0.0573(2) 0.1532(3)
O9K O 0.3288(2) -0.01121(19) -0.1680(3)
O9C O 0.6712(2) 0.01121(19) 0.1680(3)
O9H O 0.3288(2) 0.01121(19) 0.1680(3)
O10K O 0.2964(2) 0.1707(2) -0.0100(3)
O10C O 0.7036(2) -0.1707(2) 0.0100(3)
O10H O 0.2964(2) -0.1707(2) 0.0100(3)
O11K O 0.3328(2) 0.1288(2) -0.0166(3)
O11C O 0.6672(2) -0.1288(2) 0.0166(3)
O11H O 0.3328(2) -0.1288(2) 0.0166(3)
O12K O 0.2924(2) 0.1510(2) 0.0827(3)
O12C O 0.7076(2) -0.1510(2) -0.0827(3)
O12H O 0.2924(2) -0.1510(2) -0.0827(3)
O13K O 0.4663(2) 0.1755(2) 0.2744(3)
O13C O 0.5337(2) -0.1755(2) -0.2744(3)
O13H O 0.4663(2) -0.1755(2) -0.2744(3)
O14K O 0.3335(2) 0.1130(2) 0.0762(3)
O14C O 0.6665(2) -0.1130(2) -0.0762(3)
O14H O 0.3335(2) -0.1130(2) -0.0762(3)
O15K O 0.3407(2) 0.1981(2) 0.1048(3)
O15C O 0.6593(2) -0.1981(2) -0.1048(3)
O15H O 0.3407(2) -0.1981(2) -0.1048(3)
O16K O 0.3806(2) 0.1607(2) 0.0924(3)
O16C O 0.6194(2) -0.1607(2) -0.0924(3)
O16H O 0.3806(2) -0.1607(2) -0.0924(3)
O17K O 0.3816(2) 0.1758(2) -0.0021(3)
O17C O 0.6184(2) -0.1758(2) 0.0021(3)
O17H O 0.3816(2) -0.1758(2) 0.0021(3)
O18K O 0.3452(2) 0.2158(2) 0.0118(3)
O18C O 0.6548(2) -0.2158(2) -0.0118(3)
O18H O 0.3452(2) -0.2158(2) -0.0118(3)
O19K O 0.4665(2) 0.1483(2) -0.1942(3)
O19H O 0.4665(2) -0.1483(2) 0.1942(3)
O19C O 0.5335(2) -0.1483(2) 0.1942(3)
O20K O 0.4667(2) 0.2368(2) -0.1624(3)
O20C O 0.5333(2) -0.2368(2) 0.1624(3)
O20H O 0.4667(2) -0.2368(2) 0.1624(3)
O21K O 0.4662(2) 0.1911(2) -0.1182(3)
O21H O 0.4662(2) -0.1911(2) 0.1182(3)
O21C O 0.5338(2) -0.1911(2) 0.1182(3)
O22K O 0.5339(2) 0.1176(2) 0.3259(3)
O22C O 0.4661(2) -0.1176(2) -0.3259(3)
O22H O 0.5339(2) -0.1176(2) -0.3259(3)
O23K O 0.5337(2) 0.0879(2) 0.2612(4)
O23C O 0.4663(2) -0.0879(2) -0.2612(4)
O23H O 0.5337(2) -0.0879(2) -0.2612(4)
O24K O 0.4659(2) 0.1933(2) -0.2376(3)
O24H O 0.4659(2) -0.1933(2) 0.2376(3)
O24C O 0.5341(2) -0.1933(2) 0.2376(3)
C1K C 0.3664(4) -0.0101(3) -0.2726(7)
C1C C 0.6336(4) 0.0101(3) 0.2726(7)
C1H C 0.3664(4) 0.0101(3) 0.2726(7)
C2K C 0.4551(3) 0.1666(4) 0.2345(5)
C2H C 0.4551(3) -0.1666(4) -0.2345(5)
C2C C 0.5449(3) -0.1666(4) -0.2345(5)
C3K C 0.4560(4) 0.1658(4) -0.2273(5)
C3H C 0.4560(4) -0.1658(4) 0.2273(5)
C3C C 0.5440(4) -0.1658(4) 0.2273(5)
C4K C 0.4568(3) 0.2197(4) -0.1295(5)
C4C C 0.5432(3) -0.2197(4) 0.1295(5)
C4H C 0.4568(3) -0.2197(4) 0.1295(5)
C5K C 0.3082(4) 0.1460(4) -0.0298(5)
C5C C 0.6918(4) -0.1460(4) 0.0298(5)
C5H C 0.3082(4) -0.1460(4) 0.0298(5)
C6K C 0.3062(4) 0.0707(3) -0.1699(6)
C6C C 0.6938(4) -0.0707(3) 0.1699(6)
C6H C 0.3062(4) -0.0707(3) 0.1699(6)
C7K C 0.3069(4) 0.1223(3) 0.0909(4)
C7C C 0.6931(4) -0.1223(3) -0.0909(4)
C7H C 0.3069(4) -0.1223(3) -0.0909(4)
C8K C 0.3861(4) 0.1081(3) -0.2669(5)
C8C C 0.6139(4) -0.1081(3) 0.2669(5)
C8H C 0.3861(4) -0.1081(3) 0.2669(5)
C9K C 0.3830(3) 0.1936(3) 0.1594(5)
C9H C 0.3830(3) -0.1936(3) -0.1594(5)
C9C C 0.6170(3) -0.1936(3) -0.1594(5)
C10K C 0.3046(3) 0.1090(3) -0.1006(5)
C10C C 0.6954(3) -0.1090(3) 0.1006(5)
C10H C 0.3046(3) -0.1090(3) 0.1006(5)
H1K H 0.3227 0.0971 -0.0898
H1C H 0.6773 -0.0971 0.0898
H1H H 0.3227 -0.0971 0.0898
C11K C 0.4260(3) 0.1860(4) 0.2175(5)
C11H C 0.4260(3) -0.1860(4) -0.2175(5)
C11C C 0.5740(3) -0.1860(4) -0.2175(5)
C12K C 0.3667(3) 0.1835(4) 0.1155(5)
C12C C 0.6333(3) -0.1835(4) -0.1155(5)
C12H C 0.3667(3) -0.1835(4) -0.1155(5)
C13K C 0.3679(4) 0.0778(3) -0.2511(5)
C13C C 0.6321(4) -0.0778(3) 0.2511(5)
C13H C 0.3679(4) -0.0778(3) 0.2511(5)
C14K C 0.3705(3) 0.2042(4) -0.0078(5)
C14C C 0.6295(3) -0.2042(4) 0.0078(5)
C14H C 0.3705(3) -0.2042(4) 0.0078(5)
C15K C 0.3885(4) 0.2269(4) -0.0392(5)
C15C C 0.6115(4) -0.2269(4) 0.0392(5)
C15H C 0.3885(4) -0.2269(4) 0.0392(5)
C16K C 0.4144(3) 0.2150(3) -0.0661(5)
C16C C 0.5856(3) -0.2150(3) 0.0661(5)
C16H C 0.4144(3) -0.2150(3) 0.0661(5)
H2K H 0.4207 0.1929 -0.0619
H2C H 0.5793 -0.1929 0.0619
H2H H 0.4207 -0.1929 0.0619
C17C C 0.6143(4) -0.2303(4) -0.2267(5)
C17H C 0.3857(4) -0.2303(4) -0.2267(5)
C17K C 0.3857(4) 0.2303(4) 0.2267(5)
C18K C 0.4117(4) 0.1205(3) -0.2426(5)
C18C C 0.5883(4) -0.1205(3) 0.2426(5)
C18H C 0.4117(4) -0.1205(3) 0.2426(5)
H3C H 0.5810 -0.1088 0.2168
H3H H 0.4190 -0.1088 0.2168
H3K H 0.4190 0.1088 -0.2168
C19K C 0.2928(4) 0.1358(3) -0.0734(5)
C19C C 0.7072(4) -0.1358(3) 0.0734(5)
C19H C 0.2928(4) -0.1358(3) 0.0734(5)
C20K C 0.4107(3) 0.1768(3) 0.1759(5)
C20H C 0.4107(3) -0.1768(3) -0.1759(5)
C20C C 0.5893(3) -0.1768(3) -0.1759(5)
H4C H 0.5807 -0.1591 -0.1588
H4H H 0.4193 -0.1591 -0.1588
H4K H 0.4193 0.1591 0.1588
C21C C 0.5862(4) -0.2135(4) -0.2428(5)
C21H C 0.4138(4) -0.2135(4) -0.2428(5)
C21K C 0.4138(4) 0.2135(4) 0.2428(5)
H5C H 0.5758 -0.2204 -0.2697
H5H H 0.4242 -0.2204 -0.2697
H5K H 0.4242 0.2204 0.2697
C22C C 0.6296(3) -0.2200(4) -0.1856(5)
C22H C 0.3704(3) -0.2200(4) -0.1856(5)
C22K C 0.3704(3) 0.2200(4) 0.1856(5)
H6C H 0.6485 -0.2310 -0.1756
H6H H 0.3515 -0.2310 -0.1756
H6K H 0.3515 0.2310 0.1756
C23C C 0.6154(4) 0.0320(4) 0.3034(6)
C23K C 0.3846(4) -0.0320(4) -0.3034(6)
C23H C 0.3846(4) 0.0320(4) 0.3034(6)
C24C C 0.7457(3) -0.0575(3) -0.1846(5)
C24H C 0.2543(3) -0.0575(3) -0.1846(5)
C24K C 0.2543(3) 0.0575(3) 0.1846(5)
H7C H 0.7568 -0.0436 -0.2050
H7H H 0.2432 -0.0436 -0.2050
H7K H 0.2432 0.0436 0.2050
C25C C 0.7597(3) -0.0867(4) -0.1684(5)
C25H C 0.2403(3) -0.0867(4) -0.1684(5)
C25K C 0.2403(3) 0.0867(4) 0.1684(5)
C26K C 0.4282(4) 0.1511(4) -0.2554(5)
C26C C 0.5718(4) -0.1511(4) 0.2554(5)
C26H C 0.4282(4) -0.1511(4) 0.2554(5)
C27C C 0.7433(4) -0.1079(3) -0.1384(5)
C27H C 0.2567(4) -0.1079(3) -0.1384(5)
C27K C 0.2567(4) 0.1079(3) 0.1384(5)
H8C H 0.7529 -0.1280 -0.1294
H8H H 0.2471 -0.1280 -0.1294
H8K H 0.2471 0.1280 0.1294
C28K C 0.3020(4) -0.0197(3) -0.1879(5)
C28C C 0.6980(4) 0.0197(3) 0.1879(5)
C28H C 0.3020(4) 0.0197(3) 0.1879(5)
C29K C 0.4213(4) 0.2671(4) -0.1023(5)
C29H C 0.4213(4) -0.2671(4) 0.1023(5)
C29C C 0.5787(4) -0.2671(4) 0.1023(5)
H9K H 0.4309 0.2811 -0.1242
H9H H 0.4309 -0.2811 0.1242
H9C H 0.5691 -0.2811 0.1242
C30C C 0.7132(4) -0.0994(3) -0.1223(4)
C30H C 0.2868(4) -0.0994(3) -0.1223(4)
C30K C 0.2868(4) 0.0994(3) 0.1223(4)
C31K C 0.4312(4) 0.2336(4) -0.0986(5)
C31C C 0.5688(4) -0.2336(4) 0.0986(5)
C31H C 0.4312(4) -0.2336(4) 0.0986(5)
C32K C 0.3740(4) -0.0366(4) -0.3487(7)
C32H C 0.3740(4) 0.0366(4) 0.3487(7)
C32C C 0.6260(4) 0.0366(4) 0.3487(7)
H10K H 0.3565 -0.0241 -0.3598
H10H H 0.3565 0.0241 0.3598
H10C H 0.6435 0.0241 0.3598
C33K C 0.3888(6) -0.0590(5) -0.3770(7)
C33H C 0.3888(6) 0.0590(5) 0.3770(7)
C33C C 0.6112(6) 0.0590(5) 0.3770(7)
C34C C 0.5724(4) 0.0730(4) 0.3173(6)
C34K C 0.4276(4) -0.0730(4) -0.3173(6)
C34H C 0.4276(4) 0.0730(4) 0.3173(6)
C35C C 0.5887(4) 0.0501(3) 0.2890(5)
C35K C 0.4113(4) -0.0501(3) -0.2890(5)
C35H C 0.4113(4) 0.0501(3) 0.2890(5)
H11K H 0.4189 -0.0470 -0.2590
H11H H 0.4189 0.0470 0.2590
H11C H 0.5811 0.0470 0.2590
C36C C 0.7152(3) -0.0501(3) -0.1696(5)
C36H C 0.2848(3) -0.0501(3) -0.1696(5)
C36K C 0.2848(3) 0.0501(3) 0.1696(5)
C37K C 0.2906(4) 0.0994(3) -0.1430(5)
C37C C 0.7094(4) -0.0994(3) 0.1430(5)
C37H C 0.2906(4) -0.0994(3) 0.1430(5)
C38C C 0.6985(3) -0.0701(3) -0.1380(4)
C38H C 0.3015(3) -0.0701(3) -0.1380(4)
C38K C 0.3015(3) 0.0701(3) 0.1380(4)
H12C H 0.6777 -0.0641 -0.1276
H12H H 0.3223 -0.0641 -0.1276
H12K H 0.3223 0.0641 0.1276
C39C C 0.6240(4) -0.1252(4) 0.3053(5)
C39H C 0.3760(4) -0.1252(4) 0.3053(5)
C39K C 0.3760(4) 0.1252(4) -0.3053(5)
H13C H 0.6418 -0.1174 0.3224
H13H H 0.3582 -0.1174 0.3224
H13K H 0.3582 0.1174 -0.3224
C40K C 0.3802(4) 0.2593(3) -0.0438(5)
C40H C 0.3802(4) -0.2593(3) 0.0438(5)
C40C C 0.6198(4) -0.2593(3) 0.0438(5)
H14K H 0.3627 0.2680 -0.0268
H14H H 0.3627 -0.2680 0.0268
H14C H 0.6373 -0.2680 0.0268
C41K C 0.5440(3) 0.0949(4) 0.2996(6)
C41C C 0.4560(3) -0.0949(4) -0.2996(6)
C41H C 0.5440(3) -0.0949(4) -0.2996(6)
C42C C 0.5828(4) -0.1671(4) 0.2950(5)
C42H C 0.4172(4) -0.1671(4) 0.2950(5)
C42K C 0.4172(4) 0.1671(4) -0.2950(5)
H15C H 0.5728 -0.1868 0.3050
H15H H 0.4272 -0.1868 0.3050
H15K H 0.4272 0.1868 -0.3050
C43H C 0.2539(4) -0.1437(5) 0.1362(7)
C43C C 0.7461(4) -0.1437(5) 0.1362(7)
C43K C 0.2539(4) 0.1437(5) -0.1362(7)
C44H C 0.2662(4) -0.1527(4) 0.0931(6)
C44C C 0.7338(4) -0.1527(4) 0.0931(6)
C44K C 0.2662(4) 0.1527(4) -0.0931(6)
H16H H 0.2566 -0.1704 0.0771
H16C H 0.7434 -0.1704 0.0771
H16K H 0.2566 0.1704 -0.0771
C45K C 0.3971(4) 0.2792(3) -0.0731(6)
C45H C 0.3971(4) -0.2792(3) 0.0731(6)
C45C C 0.6029(4) -0.2792(3) 0.0731(6)
C46C C 0.6078(4) -0.1539(4) 0.3186(5)
C46H C 0.3922(4) -0.1539(4) 0.3186(5)
C46K C 0.3922(4) 0.1539(4) -0.3186(5)
C47K C 0.4161(5) -0.0767(4) -0.3626(7)
C47H C 0.4161(5) 0.0767(4) 0.3626(7)
C47C C 0.5839(5) 0.0767(4) 0.3626(7)
H17K H 0.4268 -0.0911 -0.3830
H17H H 0.4268 0.0911 0.3830
H17C H 0.5732 0.0911 0.3830
C48H C 0.2646(4) -0.1168(4) 0.1594(5)
C48C C 0.7354(4) -0.1168(4) 0.1594(5)
C48K C 0.2646(4) 0.1168(4) -0.1594(5)
H18H H 0.2543 -0.1102 0.1866
H18C H 0.7457 -0.1102 0.1866
H18K H 0.2543 0.1102 -0.1866
O25C O 0.6203(4) -0.1688(3) 0.3586(5)
O25H O 0.3797(4) -0.1688(3) 0.3586(5)
O25K O 0.3797(4) 0.1688(3) -0.3586(5)
C49C C 0.6039(7) -0.1997(5) 0.3732(9)
C49H C 0.3961(7) -0.1997(5) 0.3732(9)
C49K C 0.3961(7) 0.1997(5) -0.3732(9)
H19C H 0.6008 -0.2145 0.3470
H19H H 0.3992 -0.2145 0.3470
H19K H 0.3992 0.2145 -0.3470
H20C H 0.5825 -0.1947 0.3865
H20H H 0.4175 -0.1947 0.3865
H20K H 0.4175 0.1947 -0.3865
C50C C 0.6260(11) -0.2160(9) 0.4089(15)
C50H C 0.3740(11) -0.2160(9) 0.4089(15)
C50K C 0.3740(11) 0.2160(9) -0.4089(15)
H21C H 0.6188 -0.2343 0.4258
H21H H 0.3812 -0.2343 0.4258
H21K H 0.3812 0.2343 -0.4258
C51C C 0.6571(9) -0.2030(14) 0.4158(19)
C51H C 0.3429(9) -0.2030(14) 0.4158(19)
C51K C 0.3429(9) 0.2030(14) -0.4158(19)
H22C H 0.6641 -0.1846 0.3987
H22H H 0.3359 -0.1846 0.3987
H22K H 0.3359 0.1846 -0.3987
H23C H 0.6710 -0.2126 0.4376
H23H H 0.3290 -0.2126 0.4376
H23K H 0.3290 0.2126 -0.4376
O26K O 0.3884(3) 0.3134(3) -0.0743(5)
O26H O 0.3884(3) -0.3134(3) 0.0743(5)
O26C O 0.6116(3) -0.3134(3) 0.0743(5)
C52K C 0.4015(6) 0.3348(5) -0.1088(9)
C52H C 0.4015(6) -0.3348(5) 0.1088(9)
C52C C 0.5985(6) -0.3348(5) 0.1088(9)
H24K H 0.4001 0.3578 -0.0983
H24H H 0.4001 -0.3578 0.0983
H24C H 0.5999 -0.3578 0.0983
H25K H 0.4245 0.3295 -0.1135
H25H H 0.4245 -0.3295 0.1135
H25C H 0.5755 -0.3295 0.1135
C53K C 0.3835(10) 0.3316(7) -0.1544(9)
C53H C 0.3835(10) -0.3316(7) 0.1544(9)
C53C C 0.6165(10) -0.3316(7) 0.1544(9)
H26K H 0.3893 0.3460 -0.1782
H26H H 0.3893 -0.3460 0.1782
H26C H 0.6107 -0.3460 0.1782
C54K C 0.3598(12) 0.3090(13) -0.1621(16)
C54H C 0.3598(12) -0.3090(13) 0.1621(16)
C54C C 0.6402(12) -0.3090(13) 0.1621(16)
H27K H 0.3536 0.2943 -0.1388
H27H H 0.3536 -0.2943 0.1388
H27C H 0.6464 -0.2943 0.1388
H28K H 0.3496 0.3081 -0.1908
H28H H 0.3496 -0.3081 0.1908
H28C H 0.6504 -0.3081 0.1908
O27C O 0.6287(2) -0.2571(3) -0.2478(4)
O27H O 0.3713(2) -0.2571(3) -0.2478(4)
O27K O 0.3713(2) 0.2571(3) 0.2478(4)
C55C C 0.6152(4) -0.2677(4) -0.2908(6)
C55H C 0.3848(4) -0.2677(4) -0.2908(6)
C55K C 0.3848(4) 0.2677(4) 0.2908(6)
H29C H 0.6150 -0.2494 -0.3128
H29H H 0.3850 -0.2494 -0.3128
H29K H 0.3850 0.2494 0.3128
H30C H 0.5929 -0.2757 -0.2866
H30H H 0.4071 -0.2757 -0.2866
H30K H 0.4071 0.2757 0.2866
C56C C 0.6370(5) -0.2956(5) -0.3076(7)
C56H C 0.3630(5) -0.2956(5) -0.3076(7)
C56K C 0.3630(5) 0.2956(5) 0.3076(7)
H31C H 0.6397 -0.3141 -0.2884
H31H H 0.3603 -0.3141 -0.2884
H31K H 0.3603 0.3141 0.2884
C57C C 0.6527(6) -0.2957(8) -0.3476(8)
C57H C 0.3473(6) -0.2957(8) -0.3476(8)
C57K C 0.3473(6) 0.2957(8) 0.3476(8)
H32C H 0.6506 -0.2776 -0.3676
H32H H 0.3494 -0.2776 -0.3676
H32K H 0.3494 0.2776 0.3676
H33C H 0.6658 -0.3138 -0.3558
H33H H 0.3342 -0.3138 -0.3558
H33K H 0.3342 0.3138 0.3558
O28C O 0.7908(3) -0.0987(2) -0.1812(4)
O28H O 0.2092(3) -0.0987(2) -0.1812(4)
O28K O 0.2092(3) 0.0987(2) 0.1812(4)
C58C C 0.8079(4) -0.0830(4) -0.2169(6)
C58H C 0.1921(4) -0.0830(4) -0.2169(6)
C58K C 0.1921(4) 0.0830(4) 0.2169(6)
H34C H 0.8125 -0.0599 -0.2088
H34H H 0.1875 -0.0599 -0.2088
H34K H 0.1875 0.0599 0.2088
H35C H 0.7949 -0.0833 -0.2450
H35H H 0.2051 -0.0833 -0.2450
H35K H 0.2051 0.0833 0.2450
C59C C 0.8395(4) -0.1020(4) -0.2239(7)
C59H C 0.1605(4) -0.1020(4) -0.2239(7)
C59K C 0.1605(4) 0.1020(4) 0.2239(7)
H36C H 0.8537 -0.1055 -0.1991
H36H H 0.1463 -0.1055 -0.1991
H36K H 0.1463 0.1055 0.1991
C60C C 0.8470(6) -0.1136(6) -0.2647(8)
C60H C 0.1530(6) -0.1136(6) -0.2647(8)
C60K C 0.1530(6) 0.1136(6) 0.2647(8)
H37C H 0.8328 -0.1102 -0.2894
H37H H 0.1672 -0.1102 -0.2894
H37K H 0.1672 0.1102 0.2894
H38C H 0.8665 -0.1254 -0.2690
H38H H 0.1335 -0.1254 -0.2690
H38K H 0.1335 0.1254 0.2690
O29H O 0.2269(4) -0.1626(4) 0.1486(5)
O29C O 0.7731(4) -0.1626(4) 0.1486(5)
O29K O 0.2269(4) 0.1626(4) -0.1486(5)
C61H C 0.2114(8) -0.1514(6) 0.1892(9)
C61C C 0.7886(8) -0.1514(6) 0.1892(9)
C61K C 0.2114(8) 0.1514(6) -0.1892(9)
H39H H 0.2236 -0.1327 0.2020
H39C H 0.7764 -0.1327 0.2020
H39K H 0.2236 0.1327 -0.2020
H40H H 0.1893 -0.1437 0.1820
H40C H 0.8107 -0.1437 0.1820
H40K H 0.1893 0.1437 -0.1820
C62H C 0.2099(10) -0.1790(8) 0.2236(9)
C62C C 0.7901(10) -0.1790(8) 0.2236(9)
C62K C 0.2099(10) 0.1790(8) -0.2236(9)
H41H H 0.2178 -0.1768 0.2536
H41C H 0.7822 -0.1768 0.2536
H41K H 0.2178 0.1768 -0.2536
C63H C 0.1965(10) -0.2066(8) 0.2085(13)
C63C C 0.8035(10) -0.2066(8) 0.2085(13)
C63K C 0.1965(10) 0.2066(8) -0.2085(13)
H42H H 0.1888 -0.2078 0.1782
H42C H 0.8112 -0.2078 0.1782
H42K H 0.1888 0.2078 -0.1782
H43H H 0.1946 -0.2250 0.2279
H43C H 0.8054 -0.2250 0.2279
H43K H 0.1946 0.2250 -0.2279
O30K O 0.3811(5) -0.0636(5) -0.4239(6)
O30H O 0.3811(5) 0.0636(5) 0.4239(6)
O30C O 0.6189(5) 0.0636(5) 0.4239(6)
C64K C 0.3566(9) -0.0430(11) -0.4459(18)
C64H C 0.3566(9) 0.0430(11) 0.4459(18)
C64C C 0.6434(9) 0.0430(11) 0.4459(18)
H44K H 0.3589 -0.0444 -0.4792
H44H H 0.3589 0.0444 0.4792
H44C H 0.6411 0.0444 0.4792
H45K H 0.3597 -0.0198 -0.4369
H45H H 0.3597 0.0198 0.4369
H45C H 0.6403 0.0198 0.4369
C65K C 0.3227(9) -0.0543(13) -0.4319(13)
C65H C 0.3227(9) 0.0543(13) 0.4319(13)
C65C C 0.6773(9) 0.0543(13) 0.4319(13)
H46K H 0.3136 -0.0463 -0.4046
H46H H 0.3136 0.0463 0.4046
H46C H 0.6864 0.0463 0.4046
C66K C 0.3053(14) -0.0759(16) -0.458(2)
C66H C 0.3053(14) 0.0759(16) 0.458(2)
C66C C 0.6947(14) 0.0759(16) 0.458(2)
H47K H 0.3142 -0.0840 -0.4858
H47H H 0.3142 0.0840 0.4858
H47C H 0.6858 0.0840 0.4858
H48K H 0.2844 -0.0826 -0.4491
H48H H 0.2844 0.0826 0.4491
H48C H 0.7156 0.0826 0.4491
O31H O 0.5000 -0.2603(3) 0.2511(4)
C67H C 0.5000 -0.2610(6) 0.2981(7)
H49C H 0.5191 -0.2742 0.3068
H49H H 0.4809 -0.2742 0.3068
C68H C 0.5000 -0.2333(9) 0.3281(10)
O32H O 0.2757(3) -0.0393(3) 0.3038(3)
O32C O 0.7243(3) -0.0393(3) 0.3038(3)
O32K O 0.2757(3) 0.0393(3) -0.3038(3)
O33K O 0.2766(3) 0.2237(3) 0.0596(4)
O33H O 0.2766(3) -0.2237(3) -0.0596(4)
O33C O 0.7234(3) -0.2237(3) -0.0596(4)
C71K C 0.2554(8) 0.2381(10) 0.0922(10)
C71H C 0.2554(8) -0.2381(10) -0.0922(10)
C71C C 0.7446(8) -0.2381(10) -0.0922(10)
H59K H 0.2490 0.2216 0.1151
H59H H 0.2490 -0.2216 -0.1151
H59C H 0.7510 -0.2216 -0.1151
H60K H 0.2660 0.2566 0.1077
H60H H 0.2660 -0.2566 -0.1077
H60C H 0.7340 -0.2566 -0.1077
C72K C 0.2245(9) 0.2506(13) 0.0641(17)
C72H C 0.2245(9) -0.2506(13) -0.0641(17)
C72C C 0.7755(9) -0.2506(13) -0.0641(17)
H61K H 0.2048 0.2447 0.0805
H61H H 0.2048 -0.2447 -0.0805
H61C H 0.7952 -0.2447 -0.0805
H62K H 0.2256 0.2744 0.0605
H62H H 0.2256 -0.2744 -0.0605
H62C H 0.7744 -0.2744 -0.0605
H63K H 0.2244 0.2401 0.0342
H63H H 0.2244 -0.2401 -0.0342
H63C H 0.7756 -0.2401 -0.0342
O34H O 0.5000 -0.1814(5) -0.3664(6)
O35H O 0.5000 -0.1243(4) 0.1038(5)
O36K O 0.3986(3) 0.1034(3) 0.0245(4)
O36C O 0.6014(3) -0.1034(3) -0.0245(4)
O36H O 0.3986(3) -0.1034(3) -0.0245(4)
O37H O 0.5000 -0.0844(4) -0.1655(5)
O38K O 0.3927(3) 0.0175(3) -0.1305(5)
O38C O 0.6073(3) -0.0175(3) 0.1305(5)
O38H O 0.3927(3) -0.0175(3) 0.1305(5)
O39 O 0.6092(7) 0.1291(8) -0.1189(10)
C75 C 0.5933(8) 0.1015(7) -0.1026(11)
C76 C 0.5709(9) 0.1181(10) -0.0678(13)
O41 O 0.7174(13) 0.0367(13) 0.0098(18)
C79 C 0.6830(12) 0.0321(14) 0.006(2)
C80 C 0.6795(17) 0.008(2) -0.036(2)
O42 O 0.5641(11) 0.0677(15) 0.1518(19)
C81 C 0.5969(10) 0.0785(9) 0.1517(13)
C82 C 0.6112(12) 0.0622(14) 0.1092(17)
O47 O 0.5816(13) -0.0506(13) 0.3782(18)
O48 O 0.6997(14) 0.1533(15) -0.527(2)
O49 O 0.7839(14) 0.2088(14) -0.010(2)
loop_
_geom_bond_atom_site_label_1
_geom_bond_atom_site_label_2
_geom_bond_site_symmetry_1
_geom_bond_site_symmetry_2
Cu1 O10 1_555 1_555
Cu2 O1 1_555 1_555
Cu3 O6 1_555 1_555
Cu4 O20 1_555 1_555
Cu5 O11 1_555 1_555
Cu6 O13 1_555 1_555
Cu7 O19 1_555 1_555
Cu8 O3 1_555 1_555
O1 C28 1_555 1_555
O2 Cu2 1_555 1_555
O3 C2 1_555 1_555
O4 Cu2 1_555 1_555
O5 Cu2 1_555 1_555
O6 C1 1_555 1_555
O7 Cu3 1_555 1_555
O8 Cu3 1_555 1_555
O9 Cu3 1_555 1_555
O10 C5 1_555 1_555
O11 C5 1_555 1_555
O12 Cu1 1_555 1_555
O13 C2 1_555 1_555
O14 Cu5 1_555 1_555
O15 Cu1 1_555 1_555
O16 Cu5 1_555 1_555
O17 Cu5 1_555 1_555
O18 Cu1 1_555 1_555
O19 C3 1_555 1_555
O20 C4 1_555 1_555
O21 Cu7 1_555 1_555
O22 Cu6 1_555 1_555
O23 Cu8 1_555 1_555
O24 Cu4 1_555 1_555
C1 O4 1_555 1_555
C2 C11 1_555 1_555
C3 O24 1_555 1_555
C4 O21 1_555 1_555
C5 C19 1_555 1_555
C6 O2 1_555 1_555
C7 O12 1_555 1_555
C8 C13 1_555 1_555
C9 C12 1_555 1_555
C10 H1 1_555 1_555
C11 C20 1_555 1_555
C12 O15 1_555 1_555
C13 O5 1_555 1_555
C14 O17 1_555 1_555
C15 C14 1_555 1_555
C16 C15 1_555 1_555
H2 C16 1_555 1_555
C17 C21 1_555 1_555
C18 C8 1_555 1_555
H3 C18 1_555 1_555
C19 C10 1_555 1_555
C20 C9 1_555 1_555
H4 C20 1_555 1_555
C21 C11 1_555 1_555
H5 C21 1_555 1_555
C22 C9 1_555 1_555
H6 C22 1_555 1_555
C23 C1 1_555 1_555
C24 H7 1_555 1_555
C25 C24 1_555 1_555
C26 C3 1_555 1_555
C27 C25 1_555 1_555
H8 C27 1_555 1_555
C28 O9 1_555 1_555
C29 H9 1_555 1_555
C30 C7 1_555 1_555
C31 C4 1_555 1_555
C32 C23 1_555 1_555
H10 C32 1_555 1_555
C33 C32 1_555 1_555
C34 C35 1_555 1_555
C35 C23 1_555 1_555
H11 C35 1_555 1_555
C36 C24 1_555 1_555
C37 C6 1_555 1_555
C38 C30 1_555 1_555
H12 C38 1_555 1_555
C39 C8 1_555 1_555
H13 C39 1_555 1_555
C40 C15 1_555 1_555
H14 C40 1_555 1_555
C41 O22 1_555 1_555
C42 C26 1_555 1_555
H15 C42 1_555 1_555
C43 C44 1_555 1_555
C44 C19 1_555 1_555
H16 C44 1_555 1_555
C45 C29 1_555 1_555
C46 C39 1_555 1_555
C47 C33 1_555 1_555
H17 C47 1_555 1_555
C48 C37 1_555 1_555
H18 C48 1_555 1_555
O25 C46 1_555 1_555
C49 O25 1_555 1_555
H19 C49 1_555 1_555
H20 C49 1_555 1_555
C50 C49 1_555 1_555
H21 C50 1_555 1_555
C51 C50 1_555 1_555
H22 C51 1_555 1_555
H23 C51 1_555 1_555
O26 C45 1_555 1_555
C52 O26 1_555 1_555
H24 C52 1_555 1_555
H25 C52 1_555 1_555
C53 C52 1_555 1_555
H26 C53 1_555 1_555
C54 C53 1_555 1_555
H27 C54 1_555 1_555
H28 C54 1_555 1_555
O27 C17 1_555 1_555
C55 O27 1_555 1_555
H29 C55 1_555 1_555
H30 C55 1_555 1_555
C56 C55 1_555 1_555
H31 C56 1_555 1_555
C57 C56 1_555 1_555
H32 C57 1_555 1_555
H33 C57 1_555 1_555
O28 C25 1_555 1_555
C58 O28 1_555 1_555
H34 C58 1_555 1_555
H35 C58 1_555 1_555
C59 C58 1_555 1_555
H36 C59 1_555 1_555
C60 C59 1_555 1_555
H37 C60 1_555 1_555
H38 C60 1_555 1_555
O29 C43 1_555 1_555
C61 O29 1_555 1_555
H39 C61 1_555 1_555
H40 C61 1_555 1_555
C62 C61 1_555 1_555
H41 C62 1_555 1_555
C63 C62 1_555 1_555
H42 C63 1_555 1_555
H43 C63 1_555 1_555
O30 C33 1_555 1_555
C64 O30 1_555 1_555
H44 C64 1_555 1_555
H45 C64 1_555 1_555
C65 C64 1_555 1_555
H46 C65 1_555 1_555
C66 C65 1_555 1_555
H47 C66 1_555 1_555
H48 C66 1_555 1_555
O31 Cu4 1_555 1_555
C67 O31 1_555 1_555
H49 C67 1_555 1_555
H50 C67 1_555 1_555
C68 C67 1_555 1_555
O32 Cu2 1_555 1_555
O33 Cu1 1_555 1_555
C71 O33 1_555 1_555
H59 C71 1_555 1_555
H60 C71 1_555 1_555
C72 C71 1_555 1_555
H61 C72 1_555 1_555
H62 C72 1_555 1_555
H63 C72 1_555 1_555
O34 Cu6 1_555 1_555
O35 Cu7 1_555 1_555
O36 Cu5 1_555 1_555
O37 Cu8 1_555 1_555
O38 Cu3 1_555 1_555
O39 C75 1_555 1_555
C75 C76 1_555 1_555
O41 C79 1_555 1_555
C79 C80 1_555 1_555
O42 C81 1_555 1_555
C81 C82 1_555 1_555
Cu1K O10K 1_555 1_555
Cu1C O10C 1_555 1_555
Cu1H O10H 1_555 1_555
Cu2K O1K 1_555 1_555
Cu2C O1C 1_555 1_555
Cu2H O1H 1_555 1_555
Cu3K O6K 1_555 1_555
Cu3C O6C 1_555 1_555
Cu3H O6H 1_555 1_555
Cu4H O20C 1_555 1_555
Cu5K O11K 1_555 1_555
Cu5C O11C 1_555 1_555
Cu5H O11H 1_555 1_555
Cu6H O13C 1_555 1_555
Cu7H O19H 1_555 1_555
Cu8H O3H 1_555 1_555
O1K C28K 1_555 1_555
O1C C28C 1_555 1_555
O1H C28H 1_555 1_555
O2K Cu2K 1_555 1_555
O2C Cu2C 1_555 1_555
O2H Cu2H 1_555 1_555
O3K Cu8 1_555 1_555
O3H C2H 1_555 1_555
O3C Cu8H 1_555 1_555
O4K Cu2K 1_555 1_555
O4C Cu2C 1_555 1_555
O4H Cu2H 1_555 1_555
O5K Cu2K 1_555 1_555
O5C Cu2C 1_555 1_555
O5H Cu2H 1_555 1_555
O6K C1K 1_555 1_555
O6C C1C 1_555 1_555
O6H C1H 1_555 1_555
O7K Cu3K 1_555 1_555
O7C Cu3C 1_555 1_555
O7H Cu3H 1_555 1_555
O8K Cu3K 1_555 1_555
O8C Cu3C 1_555 1_555
O8H Cu3H 1_555 1_555
O9K Cu3K 1_555 1_555
O9C Cu3C 1_555 1_555
O9H Cu3H 1_555 1_555
O10K C5K 1_555 1_555
O10C C5C 1_555 1_555
O10H C5H 1_555 1_555
O11K C5K 1_555 1_555
O11C C5C 1_555 1_555
O11H C5H 1_555 1_555
O12K Cu1K 1_555 1_555
O12C Cu1C 1_555 1_555
O12H Cu1H 1_555 1_555
O13K Cu6 1_555 1_555
O13C C2C 1_555 1_555
O13H Cu6H 1_555 1_555
O14K Cu5K 1_555 1_555
O14C Cu5C 1_555 1_555
O14H Cu5H 1_555 1_555
O15K Cu1K 1_555 1_555
O15C Cu1C 1_555 1_555
O15H Cu1H 1_555 1_555
O16K Cu5K 1_555 1_555
O16C Cu5C 1_555 1_555
O16H Cu5H 1_555 1_555
O17K Cu5K 1_555 1_555
O17C Cu5C 1_555 1_555
O17H Cu5H 1_555 1_555
O18K Cu1K 1_555 1_555
O18C Cu1C 1_555 1_555
O18H Cu1H 1_555 1_555
O19K Cu7 1_555 1_555
O19H C3H 1_555 1_555
O19C Cu7H 1_555 1_555
O20K Cu4 1_555 1_555
O20C C4C 1_555 1_555
O20H Cu4H 1_555 1_555
O21K Cu7 1_555 1_555
O21H Cu7H 1_555 1_555
O21C Cu7H 1_555 1_555
O22K Cu6 1_555 1_555
O22C Cu6H 1_555 1_555
O22H Cu6H 1_555 1_555
O23K Cu8 1_555 1_555
O23C Cu8H 1_555 1_555
O23H Cu8H 1_555 1_555
O24K Cu4 1_555 1_555
O24H Cu4H 1_555 1_555
O24C Cu4H 1_555 1_555
C1K O4K 1_555 1_555
C1C O4C 1_555 1_555
C1H O4H 1_555 1_555
C2K O3K 1_555 1_555
C2H O13H 1_555 1_555
C2C O3C 1_555 1_555
C3K O19K 1_555 1_555
C3H O24H 1_555 1_555
C3C O19C 1_555 1_555
C4K O20K 1_555 1_555
C4C O21C 1_555 1_555
C4H O20H 1_555 1_555
C5K C19K 1_555 1_555
C5C C19C 1_555 1_555
C5H C19H 1_555 1_555
C6K O2K 1_555 1_555
C6C O2C 1_555 1_555
C6H O2H 1_555 1_555
C7K O12K 1_555 1_555
C7C O12C 1_555 1_555
C7H O12H 1_555 1_555
C8K C13K 1_555 1_555
C8C C13C 1_555 1_555
C8H C13H 1_555 1_555
C9K C12K 1_555 1_555
C9H C12H 1_555 1_555
C9C C12C 1_555 1_555
C10K H1K 1_555 1_555
C10C H1C 1_555 1_555
C10H H1H 1_555 1_555
C11K C2K 1_555 1_555
C11H C2H 1_555 1_555
C11C C2C 1_555 1_555
C12K O15K 1_555 1_555
C12C O15C 1_555 1_555
C12H O15H 1_555 1_555
C13K O5K 1_555 1_555
C13C O5C 1_555 1_555
C13H O5H 1_555 1_555
C14K O17K 1_555 1_555
C14C O17C 1_555 1_555
C14H O17H 1_555 1_555
C15K C14K 1_555 1_555
C15C C14C 1_555 1_555
C15H C14H 1_555 1_555
C16K C15K 1_555 1_555
C16C C15C 1_555 1_555
C16H C15H 1_555 1_555
H2K C16K 1_555 1_555
H2C C16C 1_555 1_555
H2H C16H 1_555 1_555
C17C C21C 1_555 1_555
C17H C21H 1_555 1_555
C17K C21K 1_555 1_555
C18K C8K 1_555 1_555
C18C C8C 1_555 1_555
C18H C8H 1_555 1_555
H3C C18C 1_555 1_555
H3H C18H 1_555 1_555
H3K C18K 1_555 1_555
C19K C10K 1_555 1_555
C19C C10C 1_555 1_555
C19H C10H 1_555 1_555
C20K C9K 1_555 1_555
C20H C9H 1_555 1_555
C20C C9C 1_555 1_555
H4C C20C 1_555 1_555
H4H C20H 1_555 1_555
H4K C20K 1_555 1_555
C21C C11C 1_555 1_555
C21H C11H 1_555 1_555
C21K C11K 1_555 1_555
H5C C21C 1_555 1_555
H5H C21H 1_555 1_555
H5K C21K 1_555 1_555
C22C C9C 1_555 1_555
C22H C9H 1_555 1_555
C22K C9K 1_555 1_555
H6C C22C 1_555 1_555
H6H C22H 1_555 1_555
H6K C22K 1_555 1_555
C23C C1C 1_555 1_555
C23K C1K 1_555 1_555
C23H C1H 1_555 1_555
C24C H7C 1_555 1_555
C24H H7H 1_555 1_555
C24K H7K 1_555 1_555
C25C C24C 1_555 1_555
C25H C24H 1_555 1_555
C25K C24K 1_555 1_555
C26K C3K 1_555 1_555
C26C C3C 1_555 1_555
C26H C3H 1_555 1_555
C27C C25C 1_555 1_555
C27H C25H 1_555 1_555
C27K C25K 1_555 1_555
H8C C27C 1_555 1_555
H8H C27H 1_555 1_555
H8K C27K 1_555 1_555
C28K O9K 1_555 1_555
C28C C36 1_555 1_555
C28H O9H 1_555 1_555
C29K H9K 1_555 1_555
C29H H9H 1_555 1_555
C29C H9C 1_555 1_555
C30C C7C 1_555 1_555
C30H C7H 1_555 1_555
C30K C7K 1_555 1_555
C31K C4K 1_555 1_555
C31C C4C 1_555 1_555
C31H C4H 1_555 1_555
C32K C23K 1_555 1_555
C32H C23H 1_555 1_555
C32C C23C 1_555 1_555
H10K C32K 1_555 1_555
H10H C32H 1_555 1_555
H10C C32C 1_555 1_555
C33K C32K 1_555 1_555
C33H C32H 1_555 1_555
C33C C32C 1_555 1_555
C34C C35C 1_555 1_555
C34K C35K 1_555 1_555
C34H C41 1_555 1_555
C35C C23C 1_555 1_555
C35K C23K 1_555 1_555
C35H C23H 1_555 1_555
H11K C35K 1_555 1_555
H11H C35H 1_555 1_555
H11C C35C 1_555 1_555
C36C C28 1_555 1_555
C36H C24H 1_555 1_555
C36K C24K 1_555 1_555
C37K C6K 1_555 1_555
C37C C6C 1_555 1_555
C37H C6H 1_555 1_555
C38C C30C 1_555 1_555
C38H C30H 1_555 1_555
C38K C30K 1_555 1_555
H12C C38C 1_555 1_555
H12H C38H 1_555 1_555
H12K C38K 1_555 1_555
C39C C8C 1_555 1_555
C39H C8H 1_555 1_555
C39K C8K 1_555 1_555
H13C C39C 1_555 1_555
H13H C39H 1_555 1_555
H13K C39K 1_555 1_555
C40K C15K 1_555 1_555
C40H C15H 1_555 1_555
C40C C15C 1_555 1_555
H14K C40K 1_555 1_555
H14H C40H 1_555 1_555
H14C C40C 1_555 1_555
C41K O22K 1_555 1_555
C41C O22C 1_555 1_555
C41H C34 1_555 1_555
C42C C26C 1_555 1_555
C42H C26H 1_555 1_555
C42K C26K 1_555 1_555
H15C C42C 1_555 1_555
H15H C42H 1_555 1_555
H15K C42K 1_555 1_555
C43H C44H 1_555 1_555
C43C C44C 1_555 1_555
C43K C44K 1_555 1_555
C44H C19H 1_555 1_555
C44C C19C 1_555 1_555
C44K C19K 1_555 1_555
H16H C44H 1_555 1_555
H16C C44C 1_555 1_555
H16K C44K 1_555 1_555
C45K C29K 1_555 1_555
C45H C29H 1_555 1_555
C45C C29C 1_555 1_555
C46C C39C 1_555 1_555
C46H C39H 1_555 1_555
C46K C39K 1_555 1_555
C47K C33K 1_555 1_555
C47H C33H 1_555 1_555
C47C C33C 1_555 1_555
H17K C47K 1_555 1_555
H17H C47H 1_555 1_555
H17C C47C 1_555 1_555
C48H C37H 1_555 1_555
C48C C37C 1_555 1_555
C48K C37K 1_555 1_555
H18H C48H 1_555 1_555
H18C C48C 1_555 1_555
H18K C48K 1_555 1_555
O25C C46C 1_555 1_555
O25H C46H 1_555 1_555
O25K C46K 1_555 1_555
C49C O25C 1_555 1_555
C49H O25H 1_555 1_555
C49K O25K 1_555 1_555
H19C C49C 1_555 1_555
H19H C49H 1_555 1_555
H19K C49K 1_555 1_555
H20C C49C 1_555 1_555
H20H C49H 1_555 1_555
H20K C49K 1_555 1_555
C50C C49C 1_555 1_555
C50H C49H 1_555 1_555
C50K C49K 1_555 1_555
H21C C50C 1_555 1_555
H21H C50H 1_555 1_555
H21K C50K 1_555 1_555
C51C C50C 1_555 1_555
C51H C50H 1_555 1_555
C51K C50K 1_555 1_555
H22C C51C 1_555 1_555
H22H C51H 1_555 1_555
H22K C51K 1_555 1_555
H23C C51C 1_555 1_555
H23H C51H 1_555 1_555
H23K C51K 1_555 1_555
O26K C45K 1_555 1_555
O26H C45H 1_555 1_555
O26C C45C 1_555 1_555
C52K O26K 1_555 1_555
C52H O26H 1_555 1_555
C52C O26C 1_555 1_555
H24K C52K 1_555 1_555
H24H C52H 1_555 1_555
H24C C52C 1_555 1_555
H25K C52K 1_555 1_555
H25H C52H 1_555 1_555
H25C C52C 1_555 1_555
C53K C52K 1_555 1_555
C53H C52H 1_555 1_555
C53C C52C 1_555 1_555
H26K C53K 1_555 1_555
H26H C53H 1_555 1_555
H26C C53C 1_555 1_555
C54K C53K 1_555 1_555
C54H C53H 1_555 1_555
C54C C53C 1_555 1_555
H27K C54K 1_555 1_555
H27H C54H 1_555 1_555
H27C C54C 1_555 1_555
H28K C54K 1_555 1_555
H28H C54H 1_555 1_555
H28C C54C 1_555 1_555
O27C C17C 1_555 1_555
O27H C17H 1_555 1_555
O27K C17K 1_555 1_555
C55C O27C 1_555 1_555
C55H O27H 1_555 1_555
C55K O27K 1_555 1_555
H29C C55C 1_555 1_555
H29H C55H 1_555 1_555
H29K C55K 1_555 1_555
H30C C55C 1_555 1_555
H30H C55H 1_555 1_555
H30K C55K 1_555 1_555
C56C C55C 1_555 1_555
C56H C55H 1_555 1_555
C56K C55K 1_555 1_555
H31C C56C 1_555 1_555
H31H C56H 1_555 1_555
H31K C56K 1_555 1_555
C57C C56C 1_555 1_555
C57H C56H 1_555 1_555
C57K C56K 1_555 1_555
H32C C57C 1_555 1_555
H32H C57H 1_555 1_555
H32K C57K 1_555 1_555
H33C C57C 1_555 1_555
H33H C57H 1_555 1_555
H33K C57K 1_555 1_555
O28C C25C 1_555 1_555
O28H C25H 1_555 1_555
O28K C25K 1_555 1_555
C58C O28C 1_555 1_555
C58H O28H 1_555 1_555
C58K O28K 1_555 1_555
H34C C58C 1_555 1_555
H34H C58H 1_555 1_555
H34K C58K 1_555 1_555
H35C C58C 1_555 1_555
H35H C58H 1_555 1_555
H35K C58K 1_555 1_555
C59C C58C 1_555 1_555
C59H C58H 1_555 1_555
C59K C58K 1_555 1_555
H36C C59C 1_555 1_555
H36H C59H 1_555 1_555
H36K C59K 1_555 1_555
C60C C59C 1_555 1_555
C60H C59H 1_555 1_555
C60K C59K 1_555 1_555
H37C C60C 1_555 1_555
H37H C60H 1_555 1_555
H37K C60K 1_555 1_555
H38C C60C 1_555 1_555
H38H C60H 1_555 1_555
H38K C60K 1_555 1_555
O29H C43H 1_555 1_555
O29C C43C 1_555 1_555
O29K C43K 1_555 1_555
C61H O29H 1_555 1_555
C61C O29C 1_555 1_555
C61K O29K 1_555 1_555
H39H C61H 1_555 1_555
H39C C61C 1_555 1_555
H39K C61K 1_555 1_555
H40H C61H 1_555 1_555
H40C C61C 1_555 1_555
H40K C61K 1_555 1_555
C62H C61H 1_555 1_555
C62C C61C 1_555 1_555
C62K C61K 1_555 1_555
H41H C62H 1_555 1_555
H41C C62C 1_555 1_555
H41K C62K 1_555 1_555
C63H C62H 1_555 1_555
C63C C62C 1_555 1_555
C63K C62K 1_555 1_555
H42H C63H 1_555 1_555
H42C C63C 1_555 1_555
H42K C63K 1_555 1_555
H43H C63H 1_555 1_555
H43C C63C 1_555 1_555
H43K C63K 1_555 1_555
O30K C33K 1_555 1_555
O30H C33H 1_555 1_555
O30C C33C 1_555 1_555
C64K O30K 1_555 1_555
C64H O30H 1_555 1_555
C64C O30C 1_555 1_555
H44K C64K 1_555 1_555
H44H C64H 1_555 1_555
H44C C64C 1_555 1_555
H45K C64K 1_555 1_555
H45H C64H 1_555 1_555
H45C C64C 1_555 1_555
C65K C64K 1_555 1_555
C65H C64H 1_555 1_555
C65C C64C 1_555 1_555
H46K C65K 1_555 1_555
H46H C65H 1_555 1_555
H46C C65C 1_555 1_555
C66K C65K 1_555 1_555
C66H C65H 1_555 1_555
C66C C65C 1_555 1_555
H47K C66K 1_555 1_555
H47H C66H 1_555 1_555
H47C C66C 1_555 1_555
H48K C66K 1_555 1_555
H48H C66H 1_555 1_555
H48C C66C 1_555 1_555
O31H Cu4H 1_555 1_555
C67H O31H 1_555 1_555
H49C C67H 1_555 1_555
H49H C67H 1_555 1_555
C68H C67H 1_555 1_555
O32H Cu2H 1_555 1_555
O32C Cu2C 1_555 1_555
O32K Cu2K 1_555 1_555
O33K Cu1K 1_555 1_555
O33H Cu1H 1_555 1_555
O33C Cu1C 1_555 1_555
C71K O33K 1_555 1_555
C71H O33H 1_555 1_555
C71C O33C 1_555 1_555
H59K C71K 1_555 1_555
H59H C71H 1_555 1_555
H59C C71C 1_555 1_555
H60K C71K 1_555 1_555
H60H C71H 1_555 1_555
H60C C71C 1_555 1_555
C72K C71K 1_555 1_555
C72H C71H 1_555 1_555
C72C C71C 1_555 1_555
H61K C72K 1_555 1_555
H61H C72H 1_555 1_555
H61C C72C 1_555 1_555
H62K C72K 1_555 1_555
H62H C72H 1_555 1_555
H62C C72C 1_555 1_555
H63K C72K 1_555 1_555
H63H C72H 1_555 1_555
H63C C72C 1_555 1_555
O34H Cu6H 1_555 1_555
O35H Cu7H 1_555 1_555
O36K Cu5K 1_555 1_555
O36C Cu5C 1_555 1_555
O36H Cu5H 1_555 1_555
O37H Cu8H 1_555 1_555
O38K Cu3K 1_555 1_555
O38C Cu3C 1_555 1_555
O38H Cu3H 1_555 1_555
O7 C13 1_555 1_555
O8 C6 1_555 1_555
O14 C7 1_555 1_555
O16 C12 1_555 1_555
O18 C14 1_555 1_555
O23 C41 1_555 1_555
C10 C37 1_555 1_555
C16 C31 1_555 1_555
C17 C22 1_555 1_555
C18 C26 1_555 1_555
C27 C30 1_555 1_555
C29 C31 1_555 1_555
C34 C47 1_555 1_555
C36 C38 1_555 1_555
C40 C45 1_555 1_555
C42 C46 1_555 1_555
C43 C48 1_555 1_555
O7K C13K 1_555 1_555
O7C C13C 1_555 1_555
O7H C13H 1_555 1_555
O8K C6K 1_555 1_555
O8C C6C 1_555 1_555
O8H C6H 1_555 1_555
O9C C28C 1_555 1_555
O13K C2K 1_555 1_555
O14K C7K 1_555 1_555
O14C C7C 1_555 1_555
O14H C7H 1_555 1_555
O16K C12K 1_555 1_555
O16C C12C 1_555 1_555
O16H C12H 1_555 1_555
O18K C14K 1_555 1_555
O18C C14C 1_555 1_555
O18H C14H 1_555 1_555
O21K C4K 1_555 1_555
O21H C4H 1_555 1_555
O22H C41H 1_555 1_555
O23K C41K 1_555 1_555
O23C C41C 1_555 1_555
O23H C41H 1_555 1_555
O24K C3K 1_555 1_555
O24C C3C 1_555 1_555
C10K C37K 1_555 1_555
C10C C37C 1_555 1_555
C10H C37H 1_555 1_555
C11K C20K 1_555 1_555
C11H C20H 1_555 1_555
C11C C20C 1_555 1_555
C16K C31K 1_555 1_555
C16C C31C 1_555 1_555
C16H C31H 1_555 1_555
C17C C22C 1_555 1_555
C17H C22H 1_555 1_555
C17K C22K 1_555 1_555
C18K C26K 1_555 1_555
C18C C26C 1_555 1_555
C18H C26H 1_555 1_555
C24C C36C 1_555 1_555
C27C C30C 1_555 1_555
C27H C30H 1_555 1_555
C27K C30K 1_555 1_555
C28K C36H 1_555 1_555
C28H C36K 1_555 1_555
C29K C31K 1_555 1_555
C29H C31H 1_555 1_555
C29C C31C 1_555 1_555
C34C C41K 1_555 1_555
C34C C47C 1_555 1_555
C34K C41C 1_555 1_555
C34K C47K 1_555 1_555
C34H C35H 1_555 1_555
C34H C47H 1_555 1_555
C36C C38C 1_555 1_555
C36H C38H 1_555 1_555
C36K C38K 1_555 1_555
C40K C45K 1_555 1_555
C40H C45H 1_555 1_555
C40C C45C 1_555 1_555
C42C C46C 1_555 1_555
C42H C46H 1_555 1_555
C42K C46K 1_555 1_555
C43H C48H 1_555 1_555
C43C C48C 1_555 1_555
C43K C48K 1_555 1_555

#END
