
#######################################################################
#
#                 Cambridge Crystallographic Data Centre
#                                CCDC 
#
#######################################################################
#
# If this CIF has been generated from an entry in the Cambridge 
# Structural Database, then it will include bibliographic, chemical, 
# crystal, experimental, refinement or atomic coordinate data resulting 
# from the CCDC's data processing and validation procedures.
#
#######################################################################

data_KOJXIR
_chemical_name_common            MOP-23
_chemical_formula_moiety         
'C328 H264 Cu24 N8 O120,20(C5 H11 N1 O1),4(C2 H6 O1),24(H2 O1)'
_chemical_name_systematic        
'tetracosakis(\m~4~-Naphthalene-2,7-dicarboxylato)-hexadecaaqua-octakis(N,N-diethylformamide)-tetracosa-copper N,N-diethylformamide ethanol solvate hydrate'
_symmetry_cell_setting           orthorhombic
_symmetry_space_group_name_H-M   'C m c a'
_symmetry_Int_Tables_number      64
_space_group_name_Hall           '-C 2ac 2'
loop_
_symmetry_equiv_pos_site_id
_symmetry_equiv_pos_as_xyz
1 x,y,z
2 1/2+x,1/2+y,z
3 -x,1/2-y,1/2+z
4 -x,1/2+y,1/2-z
5 x,-y,-z
6 1/2-x,-y,1/2+z
7 1/2-x,y,1/2-z
8 1/2+x,1/2-y,-z
9 -x,-y,-z
10 1/2-x,1/2-y,-z
11 x,1/2+y,1/2-z
12 x,1/2-y,1/2+z
13 -x,y,z
14 1/2+x,y,1/2-z
15 1/2+x,-y,1/2+z
16 1/2-x,1/2+y,z
_cell_length_a                   44.289(2)
_cell_length_b                   39.490(2)
_cell_length_c                   37.176(2)
_cell_angle_alpha                90
_cell_angle_beta                 90
_cell_angle_gamma                90
_cell_volume                     65019.8
_exptl_crystal_colour            blue
_exptl_crystal_description       prismatic
_cell_formula_units_Z            4
loop_
_atom_site_label
_atom_site_type_symbol
_atom_site_fract_x
_atom_site_fract_y
_atom_site_fract_z
Cu1 Cu 0.29312(3) 0.5000 0.5000
Cu2 Cu 0.23341(3) 0.5000 0.5000
Cu3 Cu 0.14682(3) 0.37131(3) 0.77552(4)
Cu4 Cu 0.11489(3) 0.39487(3) 0.72081(4)
Cu5 Cu 0.14736(2) 0.21493(3) 0.46824(4)
Cu6 Cu 0.11713(2) 0.27198(3) 0.47726(4)
Cu7 Cu 0.0000 0.65460(4) 0.80696(6)
Cu8 Cu 0.0000 0.62124(4) 0.74493(5)
O1 O 0.28888(14) 0.48703(15) 0.5492(2)
O2 O 0.23725(14) 0.48738(16) 0.5493(2)
O3 O 0.18154(15) 0.38770(18) 0.7473(2)
O4 O 0.15301(15) 0.41063(15) 0.70069(19)
O5 O 0.15097(12) 0.21416(13) 0.5177(2)
O6 O 0.12680(14) 0.26558(15) 0.5259(2)
O7 O 0.14692(15) 0.32975(16) 0.7475(2)
O8 O 0.12336(16) 0.35095(17) 0.6977(2)
O9 O 0.28938(13) 0.45251(14) 0.48572(19)
O10 O 0.23796(14) 0.45276(15) 0.48561(19)
O11 O 0.18398(12) 0.24332(15) 0.46583(18)
O12 O 0.15723(13) 0.29226(13) 0.47010(19)
O13 O 0.14239(16) 0.41610(17) 0.7955(2)
O14 O 0.11276(15) 0.43544(15) 0.7513(2)
O15 O 0.03208(15) 0.62072(18) 0.8187(2)
O16 O 0.03128(16) 0.59320(15) 0.7669(2)
O17 O -0.03108(15) 0.68235(15) 0.7828(2)
O18 O -0.03165(15) 0.65363(15) 0.7309(2)
O19 O 0.13961(15) 0.22522(17) 0.4177(2)
O20 O 0.11048(13) 0.27215(14) 0.4280(2)
O21 O 0.10761(16) 0.35944(17) 0.7958(2)
O22 O 0.08075(15) 0.37363(19) 0.7465(3)
O23 O 0.10801(14) 0.19375(15) 0.4702(2)
O24 O 0.08197(13) 0.24174(17) 0.4812(2)
C1 C 0.2356(2) 0.4572(2) 0.6183(3)
H1 H 0.2169 0.4642 0.6083
C2 C 0.2618(2) 0.4675(3) 0.5989(4)
C3 C 0.2890(3) 0.4575(4) 0.6186(4)
H2 H 0.3078 0.4662 0.6104
C4 C 0.2894(3) 0.4360(6) 0.6487(4)
H3 H 0.3076 0.4271 0.6583
C5 C 0.2603(3) 0.4073(5) 0.6936(5)
H4 H 0.2790 0.3987 0.7022
C6 C 0.2330(3) 0.3978(4) 0.7122(3)
H5 H 0.2330 0.3827 0.7321
C7 C 0.2067(2) 0.4124(3) 0.6988(3)
C8 C 0.2066(2) 0.4293(2) 0.6670(3)
H6 H 0.1878 0.4351 0.6564
C9 C 0.2337(3) 0.4388(3) 0.6493(3)
C10 C 0.2608(3) 0.4284(4) 0.6637(4)
C11 C 0.2623(2) 0.4815(2) 0.5604(3)
C12 C 0.17632(18) 0.3989(2) 0.7193(3)
C13 C 0.13973(17) 0.2650(2) 0.5995(4)
H7 H 0.1286 0.2830 0.5890
C14 C 0.1477(2) 0.2386(2) 0.5764(4)
C15 C 0.1644(2) 0.2115(3) 0.5946(4)
H8 H 0.1709 0.1925 0.5811
C16 C 0.1708(3) 0.2130(3) 0.6312(4)
H9 H 0.1805 0.1940 0.6419
C17 C 0.1697(3) 0.2441(3) 0.6900(4)
H10 H 0.1795 0.2258 0.7018
C18 C 0.1626(3) 0.2715(3) 0.7102(3)
H11 H 0.1685 0.2733 0.7347
C19 C 0.1457(2) 0.2979(2) 0.6928(3)
C20 C 0.1389(2) 0.2946(2) 0.6583(4)
H12 H 0.1277 0.3125 0.6477
C21 C 0.1463(2) 0.2680(3) 0.6365(3)
C22 C 0.1639(2) 0.2406(3) 0.6536(4)
C23 C 0.1424(2) 0.2401(3) 0.5366(3)
C24 C 0.1398(3) 0.3292(2) 0.7136(3)
C25 C 0.2378(2) 0.3841(2) 0.4739(3)
H13 H 0.2194 0.3964 0.4751
C26 C 0.2637(2) 0.4006(2) 0.4762(3)
C27 C 0.2911(2) 0.3845(2) 0.4753(3)
H14 H 0.3093 0.3972 0.4771
C28 C 0.2923(2) 0.3491(3) 0.4717(3)
H15 H 0.3113 0.3379 0.4709
C29 C 0.2652(2) 0.2938(2) 0.4663(3)
H16 H 0.2836 0.2815 0.4647
C30 C 0.2388(2) 0.2773(2) 0.4658(2)
H17 H 0.2390 0.2533 0.4643
C31 C 0.2103(2) 0.2939(2) 0.4676(3)
C32 C 0.2101(2) 0.3292(2) 0.4694(3)
H18 H 0.1913 0.3407 0.4704
C33 C 0.23700(19) 0.3484(2) 0.4698(3)
C34 C 0.2656(2) 0.3300(2) 0.4692(3)
C35 C 0.2633(2) 0.43984(19) 0.4845(2)
C36 C 0.17992(19) 0.2744(2) 0.4699(2)
C37 C 0.0987(2) 0.4928(3) 0.7874(3)
H19 H 0.0898 0.4896 0.7644
C38 C 0.1186(3) 0.4693(3) 0.8004(4)
C39 C 0.1310(3) 0.4745(3) 0.8347(5)
H20 H 0.1447 0.4579 0.8434
C40 C 0.1250(3) 0.5015(4) 0.8565(4)
H21 H 0.1341 0.5036 0.8795
C41 C 0.0961(3) 0.5572(3) 0.8636(3)
H22 H 0.1062 0.5606 0.8858
C42 C 0.0755(3) 0.5797(3) 0.8523(4)
H23 H 0.0697 0.5984 0.8668
C43 C 0.0622(3) 0.5738(3) 0.8158(4)
C44 C 0.0697(2) 0.5466(3) 0.7943(3)
H24 H 0.0611 0.5442 0.7710
C45 C 0.0912(2) 0.5217(3) 0.8079(3)
C46 C 0.1030(3) 0.5280(3) 0.8424(4)
C47 C 0.1240(3) 0.4357(2) 0.7817(3)
C48 C 0.0385(3) 0.5986(2) 0.7977(3)
C49 C -0.0688(2) 0.7006(2) 0.7009(4)
H25 H -0.0613 0.6823 0.6869
C50 C -0.0607(2) 0.7028(3) 0.7366(4)
C51 C -0.0721(2) 0.7275(3) 0.7582(3)
H26 H -0.0666 0.7284 0.7829
C52 C -0.0925(3) 0.7523(3) 0.7438(4)
H27 H -0.1008 0.7693 0.7589
C53 C -0.1193(3) 0.7765(2) 0.6910(4)
H28 H -0.1269 0.7946 0.7052
C54 C -0.1262(2) 0.7749(2) 0.6559(3)
H29 H -0.1394 0.7917 0.6467
C55 C -0.1154(2) 0.7500(2) 0.6314(3)
C56 C -0.0958(2) 0.7257(2) 0.6466(3)
H30 H -0.0871 0.7087 0.6317
C57 C -0.0890(2) 0.7263(2) 0.6833(3)
C58 C -0.1000(2) 0.7508(2) 0.7075(4)
C59 C -0.0375(2) 0.6771(2) 0.7508(2)
C60 C 0.12042(19) 0.2495(3) 0.4076(3)
C61 C 0.0283(2) 0.3622(2) 0.7811(3)
H31 H 0.0285 0.3730 0.7582
C62 C 0.0546(3) 0.3538(3) 0.7976(4)
C63 C 0.0547(3) 0.3406(3) 0.8326(4)
H32 H 0.0737 0.3368 0.8439
C64 C 0.0297(3) 0.3332(3) 0.8509(4)
H33 H 0.0308 0.3242 0.8746
C65 C 0.0000 0.3393(4) 0.8334(6)
C66 C 0.0000 0.3546(4) 0.7984(4)
C67 C 0.0843(2) 0.3664(3) 0.7781(4)
C68 C 0.0280(2) 0.2078(2) 0.4777(3)
H34 H 0.0278 0.2316 0.4814
C69 C 0.0555(2) 0.1921(3) 0.4743(3)
C70 C 0.0552(3) 0.1581(4) 0.4670(4)
H35 H 0.0740 0.1467 0.4641
C71 C 0.0293(3) 0.1403(3) 0.4636(4)
H36 H 0.0302 0.1168 0.4581
C72 C 0.0000 0.1568(5) 0.4683(6)
C73 C 0.0000 0.1908(3) 0.4761(4)
C74 C 0.0851(2) 0.2124(2) 0.4724(2)
O25 O 0.16711(16) 0.16700(16) 0.4553(2)
N1 N 0.1498(4) 0.1201(3) 0.4164(4)
C75 C 0.1543(3) 0.1530(4) 0.4318(5)
H37 H 0.1432 0.1691 0.4183
C76 C 0.1620(7) 0.1001(8) 0.4463(7)
H38 H 0.1576 0.0756 0.4437
H39 H 0.1548 0.1083 0.4700
C77 C 0.1956(8) 0.1084(5) 0.4399(9)
H40 H 0.2077 0.0987 0.4594
H41 H 0.1984 0.1330 0.4394
H42 H 0.2020 0.0987 0.4169
C78 C 0.1356(5) 0.1200(7) 0.3810(5)
H43 H 0.1481 0.1081 0.3629
H44 H 0.1311 0.1432 0.3726
C79 C 0.1066(6) 0.1001(6) 0.3902(6)
H45 H 0.0948 0.0965 0.3682
H46 H 0.0946 0.1130 0.4076
H47 H 0.1120 0.0782 0.4007
O26 O 0.3416(2) 0.5000 0.5000
N2 N 0.3938(4) 0.5000 0.5000
C80 C 0.3641(3) 0.4914(7) 0.4853(6)
C81 C 0.4098(6) 0.4840(6) 0.4694(5)
O27 O 0.1842(2) 0.5000 0.5000
O28 O 0.17600(16) 0.34791(17) 0.81642(18)
O29 O 0.08818(17) 0.41456(18) 0.6748(2)
O30 O 0.09278(16) 0.31925(17) 0.4885(2)
O31 O 0.0000 0.6812(2) 0.8561(3)
O32 O 0.0000 0.5939(2) 0.6920(3)
Cu1L Cu -0.29312(3) 0.5000 0.5000
Cu2L Cu -0.23341(3) 0.5000 0.5000
Cu3L Cu -0.14682(3) 0.37131(3) 0.77552(4)
Cu3H Cu -0.14682(3) 0.62869(3) 0.22448(4)
Cu3D Cu 0.14682(3) 0.62869(3) 0.22448(4)
Cu4L Cu -0.11489(3) 0.39487(3) 0.72081(4)
Cu4H Cu -0.11489(3) 0.60513(3) 0.27919(4)
Cu4D Cu 0.11489(3) 0.60513(3) 0.27919(4)
Cu5D Cu 0.14736(2) 0.78507(3) 0.53176(4)
Cu5H Cu -0.14736(2) 0.78507(3) 0.53176(4)
Cu5L Cu -0.14736(2) 0.21493(3) 0.46824(4)
Cu6D Cu 0.11713(2) 0.72802(3) 0.52274(4)
Cu6H Cu -0.11713(2) 0.72802(3) 0.52274(4)
Cu6L Cu -0.11713(2) 0.27198(3) 0.47726(4)
Cu7H Cu 0.0000 0.34540(4) 0.19304(6)
Cu8H Cu 0.0000 0.37876(4) 0.25507(5)
O1D O 0.28888(14) 0.51297(15) 0.4508(2)
O1H O -0.28888(14) 0.51297(15) 0.4508(2)
O1L O -0.28888(14) 0.48703(15) 0.5492(2)
O2D O 0.23725(14) 0.51262(16) 0.4507(2)
O2L O -0.23725(14) 0.48738(16) 0.5493(2)
O2H O -0.23725(14) 0.51262(16) 0.4507(2)
O3L O -0.18154(15) 0.38770(18) 0.7473(2)
O3H O -0.18154(15) 0.61230(18) 0.2527(2)
O3D O 0.18154(15) 0.61230(18) 0.2527(2)
O4L O -0.15301(15) 0.41063(15) 0.70069(19)
O4H O -0.15301(15) 0.58937(15) 0.29931(19)
O4D O 0.15301(15) 0.58937(15) 0.29931(19)
O5D O 0.15097(12) 0.78584(13) 0.4823(2)
O5H O -0.15097(12) 0.78584(13) 0.4823(2)
O5L O -0.15097(12) 0.21416(13) 0.5177(2)
O6D O 0.12680(14) 0.73442(15) 0.4741(2)
O6H O -0.12680(14) 0.73442(15) 0.4741(2)
O6L O -0.12680(14) 0.26558(15) 0.5259(2)
O7L O -0.14692(15) 0.32975(16) 0.7475(2)
O7H O -0.14692(15) 0.67025(16) 0.2525(2)
O7D O 0.14692(15) 0.67025(16) 0.2525(2)
O8L O -0.12336(16) 0.35095(17) 0.6977(2)
O8H O -0.12336(16) 0.64905(17) 0.3023(2)
O8D O 0.12336(16) 0.64905(17) 0.3023(2)
O9D O 0.28938(13) 0.54749(14) 0.51428(19)
O9L O -0.28938(13) 0.45251(14) 0.48572(19)
O9H O -0.28938(13) 0.54749(14) 0.51428(19)
O10D O 0.23796(14) 0.54724(15) 0.51439(19)
O10L O -0.23796(14) 0.45276(15) 0.48561(19)
O10H O -0.23796(14) 0.54724(15) 0.51439(19)
O11D O 0.18398(12) 0.75668(15) 0.53417(18)
O11H O -0.18398(12) 0.75668(15) 0.53417(18)
O11L O -0.18398(12) 0.24332(15) 0.46583(18)
O12D O 0.15723(13) 0.70774(13) 0.52990(19)
O12H O -0.15723(13) 0.70774(13) 0.52990(19)
O12L O -0.15723(13) 0.29226(13) 0.47010(19)
O13L O -0.14239(16) 0.41610(17) 0.7955(2)
O13H O -0.14239(16) 0.58390(17) 0.2045(2)
O13D O 0.14239(16) 0.58390(17) 0.2045(2)
O14L O -0.11276(15) 0.43544(15) 0.7513(2)
O14H O -0.11276(15) 0.56456(15) 0.2487(2)
O14D O 0.11276(15) 0.56456(15) 0.2487(2)
O15L O -0.03208(15) 0.62072(18) 0.8187(2)
O15D O 0.03208(15) 0.37928(18) 0.1813(2)
O15H O -0.03208(15) 0.37928(18) 0.1813(2)
O16L O -0.03128(16) 0.59320(15) 0.7669(2)
O16D O 0.03128(16) 0.40680(15) 0.2331(2)
O16H O -0.03128(16) 0.40680(15) 0.2331(2)
O17L O 0.03108(15) 0.68235(15) 0.7828(2)
O17D O -0.03108(15) 0.31765(15) 0.2172(2)
O17H O 0.03108(15) 0.31765(15) 0.2172(2)
O18L O 0.03165(15) 0.65363(15) 0.7309(2)
O18H O 0.03165(15) 0.34637(15) 0.2691(2)
O18D O -0.03165(15) 0.34637(15) 0.2691(2)
O19D O 0.13961(15) 0.77478(17) 0.5823(2)
O19H O -0.13961(15) 0.77478(17) 0.5823(2)
O19L O -0.13961(15) 0.22522(17) 0.4177(2)
O20D O 0.11048(13) 0.72785(14) 0.5720(2)
O20H O -0.11048(13) 0.72785(14) 0.5720(2)
O20L O -0.11048(13) 0.27215(14) 0.4280(2)
O21L O -0.10761(16) 0.35944(17) 0.7958(2)
O21H O -0.10761(16) 0.64056(17) 0.2042(2)
O21D O 0.10761(16) 0.64056(17) 0.2042(2)
O22L O -0.08075(15) 0.37363(19) 0.7465(3)
O22H O -0.08075(15) 0.62637(19) 0.2535(3)
O22D O 0.08075(15) 0.62637(19) 0.2535(3)
O23D O 0.10801(14) 0.80625(15) 0.5298(2)
O23H O -0.10801(14) 0.80625(15) 0.5298(2)
O23L O -0.10801(14) 0.19375(15) 0.4702(2)
O24D O 0.08197(13) 0.75826(17) 0.5188(2)
O24H O -0.08197(13) 0.75826(17) 0.5188(2)
O24L O -0.08197(13) 0.24174(17) 0.4812(2)
C1D C 0.2356(2) 0.5428(2) 0.3817(3)
C1H C -0.2356(2) 0.5428(2) 0.3817(3)
C1L C -0.2356(2) 0.4572(2) 0.6183(3)
H1D H 0.2169 0.5358 0.3917
H1H H -0.2169 0.5358 0.3917
H1L H -0.2169 0.4642 0.6083
C2D C 0.2618(2) 0.5325(3) 0.4011(4)
C2H C -0.2618(2) 0.5325(3) 0.4011(4)
C2L C -0.2618(2) 0.4675(3) 0.5989(4)
C3D C 0.2890(3) 0.5425(4) 0.3814(4)
C3H C -0.2890(3) 0.5425(4) 0.3814(4)
C3L C -0.2890(3) 0.4575(4) 0.6186(4)
H2D H 0.3078 0.5338 0.3896
H2L H -0.3078 0.4662 0.6104
H2H H -0.3078 0.5338 0.3896
C4D C 0.2894(3) 0.5640(6) 0.3513(4)
C4H C -0.2894(3) 0.5640(6) 0.3513(4)
C4L C -0.2894(3) 0.4360(6) 0.6487(4)
H3D H 0.3076 0.5729 0.3417
H3L H -0.3076 0.4271 0.6583
H3H H -0.3076 0.5729 0.3417
C5D C 0.2603(3) 0.5927(5) 0.3064(5)
C5H C -0.2603(3) 0.5927(5) 0.3064(5)
C5L C -0.2603(3) 0.4073(5) 0.6936(5)
H4D H 0.2790 0.6013 0.2978
H4H H -0.2790 0.6013 0.2978
H4L H -0.2790 0.3987 0.7022
C6D C 0.2330(3) 0.6022(4) 0.2878(3)
C6H C -0.2330(3) 0.6022(4) 0.2878(3)
C6L C -0.2330(3) 0.3978(4) 0.7122(3)
H5D H 0.2330 0.6173 0.2679
H5L H -0.2330 0.3827 0.7321
H5H H -0.2330 0.6173 0.2679
C7D C 0.2067(2) 0.5876(3) 0.3012(3)
C7H C -0.2067(2) 0.5876(3) 0.3012(3)
C7L C -0.2067(2) 0.4124(3) 0.6988(3)
C8D C 0.2066(2) 0.5707(2) 0.3330(3)
C8H C -0.2066(2) 0.5707(2) 0.3330(3)
C8L C -0.2066(2) 0.4293(2) 0.6670(3)
H6D H 0.1878 0.5649 0.3436
H6H H -0.1878 0.5649 0.3436
H6L H -0.1878 0.4351 0.6564
C9D C 0.2337(3) 0.5612(3) 0.3507(3)
C9H C -0.2337(3) 0.5612(3) 0.3507(3)
C9L C -0.2337(3) 0.4388(3) 0.6493(3)
C10D C 0.2608(3) 0.5716(4) 0.3363(4)
C10H C -0.2608(3) 0.5716(4) 0.3363(4)
C10L C -0.2608(3) 0.4284(4) 0.6637(4)
C11D C 0.2623(2) 0.5185(2) 0.4396(3)
C11H C -0.2623(2) 0.5185(2) 0.4396(3)
C11L C -0.2623(2) 0.4815(2) 0.5604(3)
C12L C -0.17632(18) 0.3989(2) 0.7193(3)
C12H C -0.17632(18) 0.6011(2) 0.2807(3)
C12D C 0.17632(18) 0.6011(2) 0.2807(3)
C13D C 0.13973(17) 0.7350(2) 0.4005(4)
C13H C -0.13973(17) 0.7350(2) 0.4005(4)
C13L C -0.13973(17) 0.2650(2) 0.5995(4)
H7D H 0.1286 0.7170 0.4110
H7H H -0.1286 0.7170 0.4110
H7L H -0.1286 0.2830 0.5890
C14D C 0.1477(2) 0.7614(2) 0.4236(4)
C14H C -0.1477(2) 0.7614(2) 0.4236(4)
C14L C -0.1477(2) 0.2386(2) 0.5764(4)
C15D C 0.1644(2) 0.7885(3) 0.4054(4)
C15H C -0.1644(2) 0.7885(3) 0.4054(4)
C15L C -0.1644(2) 0.2115(3) 0.5946(4)
H8D H 0.1709 0.8075 0.4189
H8H H -0.1709 0.8075 0.4189
H8L H -0.1709 0.1925 0.5811
C16D C 0.1708(3) 0.7870(3) 0.3688(4)
C16H C -0.1708(3) 0.7870(3) 0.3688(4)
C16L C -0.1708(3) 0.2130(3) 0.6312(4)
H9D H 0.1805 0.8060 0.3581
H9H H -0.1805 0.8060 0.3581
H9L H -0.1805 0.1940 0.6419
C17D C 0.1697(3) 0.7559(3) 0.3100(4)
C17H C -0.1697(3) 0.7559(3) 0.3100(4)
C17L C -0.1697(3) 0.2441(3) 0.6900(4)
H10D H 0.1795 0.7742 0.2982
H10H H -0.1795 0.7742 0.2982
H10L H -0.1795 0.2258 0.7018
C18D C 0.1626(3) 0.7285(3) 0.2898(3)
C18H C -0.1626(3) 0.7285(3) 0.2898(3)
C18L C -0.1626(3) 0.2715(3) 0.7102(3)
H11D H 0.1685 0.7267 0.2653
H11H H -0.1685 0.7267 0.2653
H11L H -0.1685 0.2733 0.7347
C19D C 0.1457(2) 0.7021(2) 0.3072(3)
C19H C -0.1457(2) 0.7021(2) 0.3072(3)
C19L C -0.1457(2) 0.2979(2) 0.6928(3)
C20D C 0.1389(2) 0.7054(2) 0.3417(4)
C20H C -0.1389(2) 0.7054(2) 0.3417(4)
C20L C -0.1389(2) 0.2946(2) 0.6583(4)
H12D H 0.1277 0.6875 0.3523
H12H H -0.1277 0.6875 0.3523
H12L H -0.1277 0.3125 0.6477
C21D C 0.1463(2) 0.7320(3) 0.3635(3)
C21H C -0.1463(2) 0.7320(3) 0.3635(3)
C21L C -0.1463(2) 0.2680(3) 0.6365(3)
C22D C 0.1639(2) 0.7594(3) 0.3464(4)
C22H C -0.1639(2) 0.7594(3) 0.3464(4)
C22L C -0.1639(2) 0.2406(3) 0.6536(4)
C23D C 0.1424(2) 0.7599(3) 0.4634(3)
C23H C -0.1424(2) 0.7599(3) 0.4634(3)
C23L C -0.1424(2) 0.2401(3) 0.5366(3)
C24L C -0.1398(3) 0.3292(2) 0.7136(3)
C24H C -0.1398(3) 0.6708(2) 0.2864(3)
C24D C 0.1398(3) 0.6708(2) 0.2864(3)
C25D C 0.2378(2) 0.6159(2) 0.5261(3)
C25H C -0.2378(2) 0.6159(2) 0.5261(3)
C25L C -0.2378(2) 0.3841(2) 0.4739(3)
H13D H 0.2194 0.6036 0.5249
H13H H -0.2194 0.6036 0.5249
H13L H -0.2194 0.3964 0.4751
C26D C 0.2637(2) 0.5994(2) 0.5238(3)
C26H C -0.2637(2) 0.5994(2) 0.5238(3)
C26L C -0.2637(2) 0.4006(2) 0.4762(3)
C27D C 0.2911(2) 0.6155(2) 0.5247(3)
C27H C -0.2911(2) 0.6155(2) 0.5247(3)
C27L C -0.2911(2) 0.3845(2) 0.4753(3)
H14D H 0.3093 0.6028 0.5229
H14H H -0.3093 0.6028 0.5229
H14L H -0.3093 0.3972 0.4771
C28D C 0.2923(2) 0.6509(3) 0.5283(3)
C28H C -0.2923(2) 0.6509(3) 0.5283(3)
C28L C -0.2923(2) 0.3491(3) 0.4717(3)
H15D H 0.3113 0.6621 0.5291
H15H H -0.3113 0.6621 0.5291
H15L H -0.3113 0.3379 0.4709
C29D C 0.2652(2) 0.7062(2) 0.5337(3)
C29H C -0.2652(2) 0.7062(2) 0.5337(3)
C29L C -0.2652(2) 0.2938(2) 0.4663(3)
H16D H 0.2836 0.7185 0.5353
H16H H -0.2836 0.7185 0.5353
H16L H -0.2836 0.2815 0.4647
C30D C 0.2388(2) 0.7227(2) 0.5342(2)
C30H C -0.2388(2) 0.7227(2) 0.5342(2)
C30L C -0.2388(2) 0.2773(2) 0.4658(2)
H17D H 0.2390 0.7467 0.5357
H17H H -0.2390 0.7467 0.5357
H17L H -0.2390 0.2533 0.4643
C31D C 0.2103(2) 0.7061(2) 0.5324(3)
C31H C -0.2103(2) 0.7061(2) 0.5324(3)
C31L C -0.2103(2) 0.2939(2) 0.4676(3)
C32D C 0.2101(2) 0.6708(2) 0.5306(3)
C32H C -0.2101(2) 0.6708(2) 0.5306(3)
C32L C -0.2101(2) 0.3292(2) 0.4694(3)
H18H H -0.1913 0.6593 0.5296
H18L H -0.1913 0.3407 0.4704
H18D H 0.1913 0.6593 0.5296
C33D C 0.23700(19) 0.6516(2) 0.5302(3)
C33H C -0.23700(19) 0.6516(2) 0.5302(3)
C33L C -0.23700(19) 0.3484(2) 0.4698(3)
C34D C 0.2656(2) 0.6700(2) 0.5308(3)
C34H C -0.2656(2) 0.6700(2) 0.5308(3)
C34L C -0.2656(2) 0.3300(2) 0.4692(3)
C35D C 0.2633(2) 0.56016(19) 0.5155(2)
C35L C -0.2633(2) 0.43984(19) 0.4845(2)
C35H C -0.2633(2) 0.56016(19) 0.5155(2)
C36D C 0.17992(19) 0.7256(2) 0.5301(2)
C36H C -0.17992(19) 0.7256(2) 0.5301(2)
C36L C -0.17992(19) 0.2744(2) 0.4699(2)
C37L C -0.0987(2) 0.4928(3) 0.7874(3)
C37H C -0.0987(2) 0.5072(3) 0.2126(3)
C37D C 0.0987(2) 0.5072(3) 0.2126(3)
H19L H -0.0898 0.4896 0.7644
H19H H -0.0898 0.5104 0.2356
H19D H 0.0898 0.5104 0.2356
C38L C -0.1186(3) 0.4693(3) 0.8004(4)
C38H C -0.1186(3) 0.5307(3) 0.1996(4)
C38D C 0.1186(3) 0.5307(3) 0.1996(4)
C39L C -0.1310(3) 0.4745(3) 0.8347(5)
C39H C -0.1310(3) 0.5255(3) 0.1653(5)
C39D C 0.1310(3) 0.5255(3) 0.1653(5)
H20D H 0.1447 0.5421 0.1566
H20H H -0.1447 0.5421 0.1566
H20L H -0.1447 0.4579 0.8434
C40L C -0.1250(3) 0.5015(4) 0.8565(4)
C40H C -0.1250(3) 0.4985(4) 0.1435(4)
C40D C 0.1250(3) 0.4985(4) 0.1435(4)
H21D H 0.1341 0.4964 0.1205
H21H H -0.1341 0.4964 0.1205
H21L H -0.1341 0.5036 0.8795
C41L C -0.0961(3) 0.5572(3) 0.8636(3)
C41H C -0.0961(3) 0.4428(3) 0.1364(3)
C41D C 0.0961(3) 0.4428(3) 0.1364(3)
H22L H -0.1062 0.5606 0.8858
H22H H -0.1062 0.4394 0.1142
H22D H 0.1062 0.4394 0.1142
C42L C -0.0755(3) 0.5797(3) 0.8523(4)
C42H C -0.0755(3) 0.4203(3) 0.1477(4)
C42D C 0.0755(3) 0.4203(3) 0.1477(4)
H23D H 0.0697 0.4016 0.1332
H23H H -0.0697 0.4016 0.1332
H23L H -0.0697 0.5984 0.8668
C43L C -0.0622(3) 0.5738(3) 0.8158(4)
C43H C -0.0622(3) 0.4262(3) 0.1842(4)
C43D C 0.0622(3) 0.4262(3) 0.1842(4)
C44L C -0.0697(2) 0.5466(3) 0.7943(3)
C44H C -0.0697(2) 0.4534(3) 0.2057(3)
C44D C 0.0697(2) 0.4534(3) 0.2057(3)
H24L H -0.0611 0.5442 0.7710
H24H H -0.0611 0.4558 0.2290
H24D H 0.0611 0.4558 0.2290
C45L C -0.0912(2) 0.5217(3) 0.8079(3)
C45H C -0.0912(2) 0.4783(3) 0.1921(3)
C45D C 0.0912(2) 0.4783(3) 0.1921(3)
C46L C -0.1030(3) 0.5280(3) 0.8424(4)
C46H C -0.1030(3) 0.4720(3) 0.1576(4)
C46D C 0.1030(3) 0.4720(3) 0.1576(4)
C47L C -0.1240(3) 0.4357(2) 0.7817(3)
C47H C -0.1240(3) 0.5643(2) 0.2183(3)
C47D C 0.1240(3) 0.5643(2) 0.2183(3)
C48L C -0.0385(3) 0.5986(2) 0.7977(3)
C48D C 0.0385(3) 0.4014(2) 0.2023(3)
C48H C -0.0385(3) 0.4014(2) 0.2023(3)
C49L C 0.0688(2) 0.7006(2) 0.7009(4)
C49D C -0.0688(2) 0.2994(2) 0.2991(4)
C49H C 0.0688(2) 0.2994(2) 0.2991(4)
H25L H 0.0613 0.6823 0.6869
H25D H -0.0613 0.3177 0.3131
H25H H 0.0613 0.3177 0.3131
C50L C 0.0607(2) 0.7028(3) 0.7366(4)
C50D C -0.0607(2) 0.2972(3) 0.2634(4)
C50H C 0.0607(2) 0.2972(3) 0.2634(4)
C51L C 0.0721(2) 0.7275(3) 0.7582(3)
C51D C -0.0721(2) 0.2725(3) 0.2418(3)
C51H C 0.0721(2) 0.2725(3) 0.2418(3)
H26L H 0.0666 0.7284 0.7829
H26H H 0.0666 0.2716 0.2171
H26D H -0.0666 0.2716 0.2171
C52L C 0.0925(3) 0.7523(3) 0.7438(4)
C52D C -0.0925(3) 0.2477(3) 0.2562(4)
C52H C 0.0925(3) 0.2477(3) 0.2562(4)
H27L H 0.1008 0.7693 0.7589
H27H H 0.1008 0.2307 0.2411
H27D H -0.1008 0.2307 0.2411
C53L C 0.1193(3) 0.7765(2) 0.6910(4)
C53D C -0.1193(3) 0.2235(2) 0.3090(4)
C53H C 0.1193(3) 0.2235(2) 0.3090(4)
H28L H 0.1269 0.7946 0.7052
H28D H -0.1269 0.2054 0.2948
H28H H 0.1269 0.2054 0.2948
C54L C 0.1262(2) 0.7749(2) 0.6559(3)
C54D C -0.1262(2) 0.2251(2) 0.3441(3)
C54H C 0.1262(2) 0.2251(2) 0.3441(3)
H29L H 0.1394 0.7917 0.6467
H29H H 0.1394 0.2083 0.3533
H29D H -0.1394 0.2083 0.3533
C55L C 0.1154(2) 0.7500(2) 0.6314(3)
C55D C -0.1154(2) 0.2500(2) 0.3686(3)
C55H C 0.1154(2) 0.2500(2) 0.3686(3)
C56L C 0.0958(2) 0.7257(2) 0.6466(3)
C56D C -0.0958(2) 0.2743(2) 0.3534(3)
C56H C 0.0958(2) 0.2743(2) 0.3534(3)
H30L H 0.0871 0.7087 0.6317
H30D H -0.0871 0.2913 0.3683
H30H H 0.0871 0.2913 0.3683
C57L C 0.0890(2) 0.7263(2) 0.6833(3)
C57D C -0.0890(2) 0.2737(2) 0.3167(3)
C57H C 0.0890(2) 0.2737(2) 0.3167(3)
C58L C 0.1000(2) 0.7508(2) 0.7075(4)
C58D C -0.1000(2) 0.2492(2) 0.2925(4)
C58H C 0.1000(2) 0.2492(2) 0.2925(4)
C59L C 0.0375(2) 0.6771(2) 0.7508(2)
C59D C -0.0375(2) 0.3229(2) 0.2492(2)
C59H C 0.0375(2) 0.3229(2) 0.2492(2)
C60D C 0.12042(19) 0.7505(3) 0.5924(3)
C60H C -0.12042(19) 0.7505(3) 0.5924(3)
C60L C -0.12042(19) 0.2495(3) 0.4076(3)
C61L C -0.0283(2) 0.3622(2) 0.7811(3)
C61H C -0.0283(2) 0.6378(2) 0.2189(3)
C61D C 0.0283(2) 0.6378(2) 0.2189(3)
H31L H -0.0285 0.3730 0.7582
H31H H -0.0285 0.6270 0.2418
H31D H 0.0285 0.6270 0.2418
C62L C -0.0546(3) 0.3538(3) 0.7976(4)
C62H C -0.0546(3) 0.6462(3) 0.2024(4)
C62D C 0.0546(3) 0.6462(3) 0.2024(4)
C63L C -0.0547(3) 0.3406(3) 0.8326(4)
C63D C 0.0547(3) 0.6594(3) 0.1674(4)
C63H C -0.0547(3) 0.6594(3) 0.1674(4)
H32L H -0.0737 0.3368 0.8439
H32D H 0.0737 0.6632 0.1561
H32H H -0.0737 0.6632 0.1561
C64L C -0.0297(3) 0.3332(3) 0.8509(4)
C64D C 0.0297(3) 0.6668(3) 0.1491(4)
C64H C -0.0297(3) 0.6668(3) 0.1491(4)
H33L H -0.0308 0.3242 0.8746
H33D H 0.0308 0.6758 0.1254
H33H H -0.0308 0.6758 0.1254
C65H C 0.0000 0.6607(4) 0.1666(6)
C66H C 0.0000 0.6454(4) 0.2016(4)
C67L C -0.0843(2) 0.3664(3) 0.7781(4)
C67H C -0.0843(2) 0.6336(3) 0.2219(4)
C67D C 0.0843(2) 0.6336(3) 0.2219(4)
C68D C 0.0280(2) 0.7922(2) 0.5223(3)
C68H C -0.0280(2) 0.7922(2) 0.5223(3)
C68L C -0.0280(2) 0.2078(2) 0.4777(3)
H34D H 0.0278 0.7684 0.5186
H34H H -0.0278 0.7684 0.5186
H34L H -0.0278 0.2316 0.4814
C69D C 0.0555(2) 0.8079(3) 0.5257(3)
C69H C -0.0555(2) 0.8079(3) 0.5257(3)
C69L C -0.0555(2) 0.1921(3) 0.4743(3)
C70H C -0.0552(3) 0.8419(4) 0.5330(4)
C70D C 0.0552(3) 0.8419(4) 0.5330(4)
C70L C -0.0552(3) 0.1581(4) 0.4670(4)
H35H H -0.0740 0.8533 0.5359
H35D H 0.0740 0.8533 0.5359
H35L H -0.0740 0.1467 0.4641
C71H C -0.0293(3) 0.8597(3) 0.5364(4)
C71D C 0.0293(3) 0.8597(3) 0.5364(4)
C71L C -0.0293(3) 0.1403(3) 0.4636(4)
H36H H -0.0302 0.8832 0.5419
H36D H 0.0302 0.8832 0.5419
H36L H -0.0302 0.1168 0.4581
C72H C 0.0000 0.8432(5) 0.5317(6)
C73H C 0.0000 0.8092(3) 0.5239(4)
C74D C 0.0851(2) 0.7876(2) 0.5276(2)
C74H C -0.0851(2) 0.7876(2) 0.5276(2)
C74L C -0.0851(2) 0.2124(2) 0.4724(2)
O25L O -0.16711(16) 0.16700(16) 0.4553(2)
O25H O -0.16711(16) 0.83300(16) 0.5447(2)
O25D O 0.16711(16) 0.83300(16) 0.5447(2)
N1L N -0.1498(4) 0.1201(3) 0.4164(4)
N1H N -0.1498(4) 0.8799(3) 0.5836(4)
N1D N 0.1498(4) 0.8799(3) 0.5836(4)
C75L C -0.1543(3) 0.1530(4) 0.4318(5)
C75H C -0.1543(3) 0.8470(4) 0.5682(5)
C75D C 0.1543(3) 0.8470(4) 0.5682(5)
H37L H -0.1432 0.1691 0.4183
H37H H -0.1432 0.8309 0.5817
H37D H 0.1432 0.8309 0.5817
C76L C -0.1620(7) 0.1001(8) 0.4463(7)
C76H C -0.1620(7) 0.8999(8) 0.5537(7)
C76D C 0.1620(7) 0.8999(8) 0.5537(7)
H38L H -0.1576 0.0756 0.4437
H38H H -0.1576 0.9244 0.5563
H38D H 0.1576 0.9244 0.5563
H39L H -0.1548 0.1083 0.4700
H39H H -0.1548 0.8917 0.5300
H39D H 0.1548 0.8917 0.5300
C77L C -0.1956(8) 0.1084(5) 0.4399(9)
C77H C -0.1956(8) 0.8916(5) 0.5601(9)
C77D C 0.1956(8) 0.8916(5) 0.5601(9)
H40L H -0.2077 0.0987 0.4594
H40H H -0.2077 0.9013 0.5406
H40D H 0.2077 0.9013 0.5406
H41L H -0.1984 0.1330 0.4394
H41H H -0.1984 0.8670 0.5606
H41D H 0.1984 0.8670 0.5606
H42L H -0.2020 0.0987 0.4169
H42H H -0.2020 0.9013 0.5831
H42D H 0.2020 0.9013 0.5831
C78L C -0.1356(5) 0.1200(7) 0.3810(5)
C78H C -0.1356(5) 0.8800(7) 0.6190(5)
C78D C 0.1356(5) 0.8800(7) 0.6190(5)
H43L H -0.1481 0.1081 0.3629
H43H H -0.1481 0.8919 0.6371
H43D H 0.1481 0.8919 0.6371
H44L H -0.1311 0.1432 0.3726
H44H H -0.1311 0.8568 0.6274
H44D H 0.1311 0.8568 0.6274
C79L C -0.1066(6) 0.1001(6) 0.3902(6)
C79H C -0.1066(6) 0.8999(6) 0.6098(6)
C79D C 0.1066(6) 0.8999(6) 0.6098(6)
H45L H -0.0948 0.0965 0.3682
H45H H -0.0948 0.9035 0.6318
H45D H 0.0948 0.9035 0.6318
H46L H -0.0946 0.1130 0.4076
H46H H -0.0946 0.8870 0.5924
H46D H 0.0946 0.8870 0.5924
H47L H -0.1120 0.0782 0.4007
H47H H -0.1120 0.9218 0.5993
H47D H 0.1120 0.9218 0.5993
O26L O -0.3416(2) 0.5000 0.5000
N2L N -0.3938(4) 0.5000 0.5000
C80D C 0.3641(3) 0.5086(7) 0.5147(6)
C80H C -0.3641(3) 0.5086(7) 0.5147(6)
C80L C -0.3641(3) 0.4914(7) 0.4853(6)
C81D C 0.4098(6) 0.5160(6) 0.5306(5)
C81H C -0.4098(6) 0.5160(6) 0.5306(5)
C81L C -0.4098(6) 0.4840(6) 0.4694(5)
O27L O -0.1842(2) 0.5000 0.5000
O28D O 0.17600(16) 0.65209(17) 0.18358(18)
O28H O -0.17600(16) 0.65209(17) 0.18358(18)
O28L O -0.17600(16) 0.34791(17) 0.81642(18)
O29L O -0.08818(17) 0.41456(18) 0.6748(2)
O29H O -0.08818(17) 0.58544(18) 0.3252(2)
O29D O 0.08818(17) 0.58544(18) 0.3252(2)
O30D O 0.09278(16) 0.68075(17) 0.5115(2)
O30H O -0.09278(16) 0.68075(17) 0.5115(2)
O30L O -0.09278(16) 0.31925(17) 0.4885(2)
O31H O 0.0000 0.3188(2) 0.1439(3)
O32H O 0.0000 0.4061(2) 0.3080(3)
loop_
_geom_bond_atom_site_label_1
_geom_bond_atom_site_label_2
_geom_bond_site_symmetry_1
_geom_bond_site_symmetry_2
Cu1 O1 1_555 1_555
Cu2 O2 1_555 1_555
Cu3 O3 1_555 1_555
Cu4 O4 1_555 1_555
Cu5 O5 1_555 1_555
Cu6 O6 1_555 1_555
Cu7 O15 1_555 1_555
Cu8 O16 1_555 1_555
O1 C11 1_555 1_555
O2 C11 1_555 1_555
O3 C12 1_555 1_555
O4 C12 1_555 1_555
O5 C23 1_555 1_555
O6 C23 1_555 1_555
O7 Cu3 1_555 1_555
O8 Cu4 1_555 1_555
O9 Cu1 1_555 1_555
O10 Cu2 1_555 1_555
O11 Cu5 1_555 1_555
O12 Cu6 1_555 1_555
O13 Cu3 1_555 1_555
O14 Cu4 1_555 1_555
O15 C48 1_555 1_555
O16 C48 1_555 1_555
O17 Cu7 1_555 1_555
O18 Cu8 1_555 1_555
O19 Cu5 1_555 1_555
O20 Cu6 1_555 1_555
O21 Cu3 1_555 1_555
O22 Cu4 1_555 1_555
O23 Cu5 1_555 1_555
O24 Cu6 1_555 1_555
C1 H1 1_555 1_555
C2 C1 1_555 1_555
C3 C2 1_555 1_555
H2 C3 1_555 1_555
C4 C3 1_555 1_555
H3 C4 1_555 1_555
C5 H4 1_555 1_555
C6 C5 1_555 1_555
H5 C6 1_555 1_555
C7 C6 1_555 1_555
C8 C7 1_555 1_555
H6 C8 1_555 1_555
C9 C1 1_555 1_555
C10 C4 1_555 1_555
C11 C2 1_555 1_555
C12 C7 1_555 1_555
C13 H7 1_555 1_555
C14 C13 1_555 1_555
C15 C14 1_555 1_555
H8 C15 1_555 1_555
C16 C15 1_555 1_555
H9 C16 1_555 1_555
C17 H10 1_555 1_555
C18 C17 1_555 1_555
H11 C18 1_555 1_555
C19 C18 1_555 1_555
C20 C19 1_555 1_555
H12 C20 1_555 1_555
C21 C13 1_555 1_555
C22 C16 1_555 1_555
C23 C14 1_555 1_555
C24 O7 1_555 1_555
C25 H13 1_555 1_555
C26 C25 1_555 1_555
C27 C26 1_555 1_555
H14 C27 1_555 1_555
C28 C27 1_555 1_555
H15 C28 1_555 1_555
C29 H16 1_555 1_555
C30 C29 1_555 1_555
H17 C30 1_555 1_555
C31 C30 1_555 1_555
C32 C31 1_555 1_555
H18 C32 1_555 1_555
C33 C25 1_555 1_555
C34 C28 1_555 1_555
C35 O9 1_555 1_555
C36 O11 1_555 1_555
C37 H19 1_555 1_555
C38 C37 1_555 1_555
C39 C38 1_555 1_555
H20 C39 1_555 1_555
C40 C39 1_555 1_555
H21 C40 1_555 1_555
C41 H22 1_555 1_555
C42 C41 1_555 1_555
H23 C42 1_555 1_555
C43 C42 1_555 1_555
C44 C43 1_555 1_555
H24 C44 1_555 1_555
C45 C37 1_555 1_555
C46 C40 1_555 1_555
C47 O13 1_555 1_555
C48 C43 1_555 1_555
C49 H25 1_555 1_555
C50 C49 1_555 1_555
C51 C50 1_555 1_555
H26 C51 1_555 1_555
C52 C51 1_555 1_555
H27 C52 1_555 1_555
C53 H28 1_555 1_555
C54 C53 1_555 1_555
H29 C54 1_555 1_555
C55 C54 1_555 1_555
C56 C55 1_555 1_555
H30 C56 1_555 1_555
C57 C49 1_555 1_555
C58 C52 1_555 1_555
C59 O17 1_555 1_555
C60 O19 1_555 1_555
C61 H31 1_555 1_555
C62 C61 1_555 1_555
C63 C62 1_555 1_555
H32 C63 1_555 1_555
C64 C63 1_555 1_555
H33 C64 1_555 1_555
C65 C64 1_555 1_555
C66 C61 1_555 1_555
C67 O21 1_555 1_555
C68 H34 1_555 1_555
C69 C68 1_555 1_555
C70 C69 1_555 1_555
H35 C70 1_555 1_555
C71 C70 1_555 1_555
H36 C71 1_555 1_555
C72 C71 1_555 1_555
C73 C68 1_555 1_555
C74 O23 1_555 1_555
O25 Cu5 1_555 1_555
N1 C75 1_555 1_555
C75 O25 1_555 1_555
H37 C75 1_555 1_555
C76 N1 1_555 1_555
H38 C76 1_555 1_555
H39 C76 1_555 1_555
C77 C76 1_555 1_555
H40 C77 1_555 1_555
H41 C77 1_555 1_555
H42 C77 1_555 1_555
C78 N1 1_555 1_555
H43 C78 1_555 1_555
H44 C78 1_555 1_555
C79 C78 1_555 1_555
H45 C79 1_555 1_555
H46 C79 1_555 1_555
H47 C79 1_555 1_555
O26 Cu1 1_555 1_555
N2 C80 1_555 1_555
C80 O26 1_555 1_555
C81 N2 1_555 1_555
O27 Cu2 1_555 1_555
O28 Cu3 1_555 1_555
O29 Cu4 1_555 1_555
O30 Cu6 1_555 1_555
O31 Cu7 1_555 1_555
O32 Cu8 1_555 1_555
Cu1L O1H 1_555 1_555
Cu2L O2L 1_555 1_555
Cu3L O3L 1_555 1_555
Cu3H O3H 1_555 1_555
Cu3D O3D 1_555 1_555
Cu4L O4L 1_555 1_555
Cu4H O4H 1_555 1_555
Cu4D O4D 1_555 1_555
Cu5D O5D 1_555 1_555
Cu5H O5H 1_555 1_555
Cu5L O5L 1_555 1_555
Cu6D O6D 1_555 1_555
Cu6H O6H 1_555 1_555
Cu6L O6L 1_555 1_555
Cu7H O15D 1_555 1_555
Cu8H O16D 1_555 1_555
O1D Cu1 1_555 1_555
O1H C11H 1_555 1_555
O1L Cu1L 1_555 1_555
O2D Cu2 1_555 1_555
O2L C11L 1_555 1_555
O2H Cu2L 1_555 1_555
O3L C12L 1_555 1_555
O3H C12H 1_555 1_555
O3D C12D 1_555 1_555
O4L C12L 1_555 1_555
O4H C12H 1_555 1_555
O4D C12D 1_555 1_555
O5D C23D 1_555 1_555
O5H C23H 1_555 1_555
O5L C23L 1_555 1_555
O6D C23D 1_555 1_555
O6H C23H 1_555 1_555
O6L C23L 1_555 1_555
O7L Cu3L 1_555 1_555
O7H Cu3H 1_555 1_555
O7D Cu3D 1_555 1_555
O8L Cu4L 1_555 1_555
O8H Cu4H 1_555 1_555
O8D Cu4D 1_555 1_555
O9D Cu1 1_555 1_555
O9L Cu1L 1_555 1_555
O9H Cu1L 1_555 1_555
O10D Cu2 1_555 1_555
O10L Cu2L 1_555 1_555
O10H Cu2L 1_555 1_555
O11D Cu5D 1_555 1_555
O11H Cu5H 1_555 1_555
O11L Cu5L 1_555 1_555
O12D Cu6D 1_555 1_555
O12H Cu6H 1_555 1_555
O12L Cu6L 1_555 1_555
O13L Cu3L 1_555 1_555
O13H Cu3H 1_555 1_555
O13D Cu3D 1_555 1_555
O14L Cu4L 1_555 1_555
O14H Cu4H 1_555 1_555
O14D Cu4D 1_555 1_555
O15L Cu7 1_555 1_555
O15D C48D 1_555 1_555
O15H Cu7H 1_555 1_555
O16L Cu8 1_555 1_555
O16D C48D 1_555 1_555
O16H Cu8H 1_555 1_555
O17L Cu7 1_555 1_555
O17D Cu7H 1_555 1_555
O17H Cu7H 1_555 1_555
O18L Cu8 1_555 1_555
O18H Cu8H 1_555 1_555
O18D Cu8H 1_555 1_555
O19D Cu5D 1_555 1_555
O19H Cu5H 1_555 1_555
O19L Cu5L 1_555 1_555
O20D Cu6D 1_555 1_555
O20H Cu6H 1_555 1_555
O20L Cu6L 1_555 1_555
O21L Cu3L 1_555 1_555
O21H Cu3H 1_555 1_555
O21D Cu3D 1_555 1_555
O22L Cu4L 1_555 1_555
O22H Cu4H 1_555 1_555
O22D Cu4D 1_555 1_555
O23D Cu5D 1_555 1_555
O23H Cu5H 1_555 1_555
O23L Cu5L 1_555 1_555
O24D Cu6D 1_555 1_555
O24H Cu6H 1_555 1_555
O24L Cu6L 1_555 1_555
C1D H1D 1_555 1_555
C1H H1H 1_555 1_555
C1L H1L 1_555 1_555
C2D C1D 1_555 1_555
C2H C1H 1_555 1_555
C2L C1L 1_555 1_555
C3D C2D 1_555 1_555
C3H C2H 1_555 1_555
C3L C2L 1_555 1_555
H2D C3D 1_555 1_555
H2L C3L 1_555 1_555
H2H C3H 1_555 1_555
C4D C3D 1_555 1_555
C4H C3H 1_555 1_555
C4L C3L 1_555 1_555
H3D C4D 1_555 1_555
H3L C4L 1_555 1_555
H3H C4H 1_555 1_555
C5D H4D 1_555 1_555
C5H H4H 1_555 1_555
C5L H4L 1_555 1_555
C6D C5D 1_555 1_555
C6H C5H 1_555 1_555
C6L C5L 1_555 1_555
H5D C6D 1_555 1_555
H5L C6L 1_555 1_555
H5H C6H 1_555 1_555
C7D C6D 1_555 1_555
C7H C6H 1_555 1_555
C7L C6L 1_555 1_555
C8D C7D 1_555 1_555
C8H C7H 1_555 1_555
C8L C7L 1_555 1_555
H6D C8D 1_555 1_555
H6H C8H 1_555 1_555
H6L C8L 1_555 1_555
C9D C1D 1_555 1_555
C9H C1H 1_555 1_555
C9L C1L 1_555 1_555
C10D C4D 1_555 1_555
C10H C4H 1_555 1_555
C10L C4L 1_555 1_555
C11D O1D 1_555 1_555
C11H O2H 1_555 1_555
C11L O1L 1_555 1_555
C12L C7L 1_555 1_555
C12H C7H 1_555 1_555
C12D C7D 1_555 1_555
C13D H7D 1_555 1_555
C13H H7H 1_555 1_555
C13L H7L 1_555 1_555
C14D C13D 1_555 1_555
C14H C13H 1_555 1_555
C14L C13L 1_555 1_555
C15D C14D 1_555 1_555
C15H C14H 1_555 1_555
C15L C14L 1_555 1_555
H8D C15D 1_555 1_555
H8H C15H 1_555 1_555
H8L C15L 1_555 1_555
C16D C15D 1_555 1_555
C16H C15H 1_555 1_555
C16L C15L 1_555 1_555
H9D C16D 1_555 1_555
H9H C16H 1_555 1_555
H9L C16L 1_555 1_555
C17D H10D 1_555 1_555
C17H H10H 1_555 1_555
C17L H10L 1_555 1_555
C18D C17D 1_555 1_555
C18H C17H 1_555 1_555
C18L C17L 1_555 1_555
H11D C18D 1_555 1_555
H11H C18H 1_555 1_555
H11L C18L 1_555 1_555
C19D C18D 1_555 1_555
C19H C18H 1_555 1_555
C19L C18L 1_555 1_555
C20D C19D 1_555 1_555
C20H C19H 1_555 1_555
C20L C19L 1_555 1_555
H12D C20D 1_555 1_555
H12H C20H 1_555 1_555
H12L C20L 1_555 1_555
C21D C13D 1_555 1_555
C21H C13H 1_555 1_555
C21L C13L 1_555 1_555
C22D C16D 1_555 1_555
C22H C16H 1_555 1_555
C22L C16L 1_555 1_555
C23D C14D 1_555 1_555
C23H C14H 1_555 1_555
C23L C14L 1_555 1_555
C24L O7L 1_555 1_555
C24H O7H 1_555 1_555
C24D O7D 1_555 1_555
C25D H13D 1_555 1_555
C25H H13H 1_555 1_555
C25L H13L 1_555 1_555
C26D C25D 1_555 1_555
C26H C25H 1_555 1_555
C26L C25L 1_555 1_555
C27D C26D 1_555 1_555
C27H C26H 1_555 1_555
C27L C26L 1_555 1_555
H14D C27D 1_555 1_555
H14H C27H 1_555 1_555
H14L C27L 1_555 1_555
C28D C27D 1_555 1_555
C28H C27H 1_555 1_555
C28L C27L 1_555 1_555
H15D C28D 1_555 1_555
H15H C28H 1_555 1_555
H15L C28L 1_555 1_555
C29D H16D 1_555 1_555
C29H H16H 1_555 1_555
C29L H16L 1_555 1_555
C30D C29D 1_555 1_555
C30H C29H 1_555 1_555
C30L C29L 1_555 1_555
H17D C30D 1_555 1_555
H17H C30H 1_555 1_555
H17L C30L 1_555 1_555
C31D C30D 1_555 1_555
C31H C30H 1_555 1_555
C31L C30L 1_555 1_555
C32D C31D 1_555 1_555
C32H C31H 1_555 1_555
C32L C31L 1_555 1_555
H18H C32H 1_555 1_555
H18L C32L 1_555 1_555
H18D C32D 1_555 1_555
C33D C25D 1_555 1_555
C33H C25H 1_555 1_555
C33L C25L 1_555 1_555
C34D C28D 1_555 1_555
C34H C28H 1_555 1_555
C34L C28L 1_555 1_555
C35D O9D 1_555 1_555
C35L O9L 1_555 1_555
C35H O9H 1_555 1_555
C36D O11D 1_555 1_555
C36H O11H 1_555 1_555
C36L O11L 1_555 1_555
C37L H19L 1_555 1_555
C37H H19H 1_555 1_555
C37D H19D 1_555 1_555
C38L C37L 1_555 1_555
C38H C37H 1_555 1_555
C38D C37D 1_555 1_555
C39L C38L 1_555 1_555
C39H C38H 1_555 1_555
C39D C38D 1_555 1_555
H20D C39D 1_555 1_555
H20H C39H 1_555 1_555
H20L C39L 1_555 1_555
C40L C39L 1_555 1_555
C40H C39H 1_555 1_555
C40D C39D 1_555 1_555
H21D C40D 1_555 1_555
H21H C40H 1_555 1_555
H21L C40L 1_555 1_555
C41L H22L 1_555 1_555
C41H H22H 1_555 1_555
C41D H22D 1_555 1_555
C42L C41L 1_555 1_555
C42H C41H 1_555 1_555
C42D C41D 1_555 1_555
H23D C42D 1_555 1_555
H23H C42H 1_555 1_555
H23L C42L 1_555 1_555
C43L C42L 1_555 1_555
C43H C42H 1_555 1_555
C43D C42D 1_555 1_555
C44L C43L 1_555 1_555
C44H C43H 1_555 1_555
C44D C43D 1_555 1_555
H24L C44L 1_555 1_555
H24H C44H 1_555 1_555
H24D C44D 1_555 1_555
C45L C37L 1_555 1_555
C45H C37H 1_555 1_555
C45D C37D 1_555 1_555
C46L C40L 1_555 1_555
C46H C40H 1_555 1_555
C46D C40D 1_555 1_555
C47L O13L 1_555 1_555
C47H O13H 1_555 1_555
C47D O13D 1_555 1_555
C48L O15L 1_555 1_555
C48D C43D 1_555 1_555
C48H O15H 1_555 1_555
C49L H25L 1_555 1_555
C49D H25D 1_555 1_555
C49H H25H 1_555 1_555
C50L C49L 1_555 1_555
C50D C49D 1_555 1_555
C50H C49H 1_555 1_555
C51L C50L 1_555 1_555
C51D C50D 1_555 1_555
C51H C50H 1_555 1_555
H26L C51L 1_555 1_555
H26H C51H 1_555 1_555
H26D C51D 1_555 1_555
C52L C51L 1_555 1_555
C52D C51D 1_555 1_555
C52H C51H 1_555 1_555
H27L C52L 1_555 1_555
H27H C52H 1_555 1_555
H27D C52D 1_555 1_555
C53L H28L 1_555 1_555
C53D H28D 1_555 1_555
C53H H28H 1_555 1_555
C54L C53L 1_555 1_555
C54D C53D 1_555 1_555
C54H C53H 1_555 1_555
H29L C54L 1_555 1_555
H29H C54H 1_555 1_555
H29D C54D 1_555 1_555
C55L C54L 1_555 1_555
C55D C54D 1_555 1_555
C55H C60 1_555 1_555
C56L C55L 1_555 1_555
C56D C55D 1_555 1_555
C56H C55H 1_555 1_555
H30L C56L 1_555 1_555
H30D C56D 1_555 1_555
H30H C56H 1_555 1_555
C57L C49L 1_555 1_555
C57D C49D 1_555 1_555
C57H C49H 1_555 1_555
C58L C52L 1_555 1_555
C58D C52D 1_555 1_555
C58H C52H 1_555 1_555
C59L O17L 1_555 1_555
C59D O17D 1_555 1_555
C59H O17H 1_555 1_555
C60D O19D 1_555 1_555
C60H C55 1_555 1_555
C60L O19L 1_555 1_555
C61L C66 1_555 1_555
C61H H31H 1_555 1_555
C61D H31D 1_555 1_555
H31L C61L 1_555 1_555
C62L C61L 1_555 1_555
C62H C61H 1_555 1_555
C62D C61D 1_555 1_555
C63L C62L 1_555 1_555
C63D C62D 1_555 1_555
C63H C62H 1_555 1_555
H32L C63L 1_555 1_555
H32D C63D 1_555 1_555
H32H C63H 1_555 1_555
C64L C65 1_555 1_555
C64D C63D 1_555 1_555
C64H C63H 1_555 1_555
H33L C64L 1_555 1_555
H33D C64D 1_555 1_555
H33H C64H 1_555 1_555
C65H C64D 1_555 1_555
C66H C61H 1_555 1_555
C67L O21L 1_555 1_555
C67H O21H 1_555 1_555
C67D O21D 1_555 1_555
C68D H34D 1_555 1_555
C68H H34H 1_555 1_555
C68L C73 1_555 1_555
H34L C68L 1_555 1_555
C69D C68D 1_555 1_555
C69H C68H 1_555 1_555
C69L C68L 1_555 1_555
C70H C69H 1_555 1_555
C70D C69D 1_555 1_555
C70L C69L 1_555 1_555
H35H C70H 1_555 1_555
H35D C70D 1_555 1_555
H35L C70L 1_555 1_555
C71H C70H 1_555 1_555
C71D C70D 1_555 1_555
C71L C72 1_555 1_555
H36H C71H 1_555 1_555
H36D C71D 1_555 1_555
H36L C71L 1_555 1_555
C72H C71H 1_555 1_555
C73H C68D 1_555 1_555
C74D O23D 1_555 1_555
C74H O23H 1_555 1_555
C74L O23L 1_555 1_555
O25L Cu5L 1_555 1_555
O25H Cu5H 1_555 1_555
O25D Cu5D 1_555 1_555
N1L C75L 1_555 1_555
N1H C75H 1_555 1_555
N1D C75D 1_555 1_555
C75L O25L 1_555 1_555
C75H O25H 1_555 1_555
C75D O25D 1_555 1_555
H37L C75L 1_555 1_555
H37H C75H 1_555 1_555
H37D C75D 1_555 1_555
C76L N1L 1_555 1_555
C76H N1H 1_555 1_555
C76D N1D 1_555 1_555
H38L C76L 1_555 1_555
H38H C76H 1_555 1_555
H38D C76D 1_555 1_555
H39L C76L 1_555 1_555
H39H C76H 1_555 1_555
H39D C76D 1_555 1_555
C77L C76L 1_555 1_555
C77H C76H 1_555 1_555
C77D C76D 1_555 1_555
H40L C77L 1_555 1_555
H40H C77H 1_555 1_555
H40D C77D 1_555 1_555
H41L C77L 1_555 1_555
H41H C77H 1_555 1_555
H41D C77D 1_555 1_555
H42L C77L 1_555 1_555
H42H C77H 1_555 1_555
H42D C77D 1_555 1_555
C78L N1L 1_555 1_555
C78H N1H 1_555 1_555
C78D N1D 1_555 1_555
H43L C78L 1_555 1_555
H43H C78H 1_555 1_555
H43D C78D 1_555 1_555
H44L C78L 1_555 1_555
H44H C78H 1_555 1_555
H44D C78D 1_555 1_555
C79L C78L 1_555 1_555
C79H C78H 1_555 1_555
C79D C78D 1_555 1_555
H45L C79L 1_555 1_555
H45H C79H 1_555 1_555
H45D C79D 1_555 1_555
H46L C79L 1_555 1_555
H46H C79H 1_555 1_555
H46D C79D 1_555 1_555
H47L C79L 1_555 1_555
H47H C79H 1_555 1_555
H47D C79D 1_555 1_555
O26L Cu1L 1_555 1_555
N2L C80H 1_555 1_555
C80D O26 1_555 1_555
C80H O26L 1_555 1_555
C80L O26L 1_555 1_555
C81D N2 1_555 1_555
C81H N2L 1_555 1_555
C81L N2L 1_555 1_555
O27L Cu2L 1_555 1_555
O28D Cu3D 1_555 1_555
O28H Cu3H 1_555 1_555
O28L Cu3L 1_555 1_555
O29L Cu4L 1_555 1_555
O29H Cu4H 1_555 1_555
O29D Cu4D 1_555 1_555
O30D Cu6D 1_555 1_555
O30H Cu6H 1_555 1_555
O30L Cu6L 1_555 1_555
O31H Cu7H 1_555 1_555
O32H Cu8H 1_555 1_555
O8 C24 1_555 1_555
O10 C35 1_555 1_555
O12 C36 1_555 1_555
O14 C47 1_555 1_555
O18 C59 1_555 1_555
O20 C60 1_555 1_555
O22 C67 1_555 1_555
O24 C74 1_555 1_555
C5 C10 1_555 1_555
C8 C9 1_555 1_555
C9 C10 1_555 1_555
C17 C22 1_555 1_555
C19 C24 1_555 1_555
C20 C21 1_555 1_555
C21 C22 1_555 1_555
C26 C35 1_555 1_555
C29 C34 1_555 1_555
C31 C36 1_555 1_555
C32 C33 1_555 1_555
C33 C34 1_555 1_555
C38 C47 1_555 1_555
C41 C46 1_555 1_555
C44 C45 1_555 1_555
C45 C46 1_555 1_555
C50 C59 1_555 1_555
C53 C58 1_555 1_555
C56 C57 1_555 1_555
C57 C58 1_555 1_555
C62 C67 1_555 1_555
C65 C66 1_555 1_555
C69 C74 1_555 1_555
C72 C73 1_555 1_555
N2 C80D 1_555 1_555
C80 C80D 1_555 1_555
O2D C11D 1_555 1_555
O8L C24L 1_555 1_555
O8H C24H 1_555 1_555
O8D C24D 1_555 1_555
O10D C35D 1_555 1_555
O10L C35L 1_555 1_555
O10H C35H 1_555 1_555
O12D C36D 1_555 1_555
O12H C36H 1_555 1_555
O12L C36L 1_555 1_555
O14L C47L 1_555 1_555
O14H C47H 1_555 1_555
O14D C47D 1_555 1_555
O16L C48L 1_555 1_555
O16H C48H 1_555 1_555
O18L C59L 1_555 1_555
O18H C59H 1_555 1_555
O18D C59D 1_555 1_555
O19H C60H 1_555 1_555
O20D C60D 1_555 1_555
O20H C60H 1_555 1_555
O20L C60L 1_555 1_555
O22L C67L 1_555 1_555
O22H C67H 1_555 1_555
O22D C67D 1_555 1_555
O24D C74D 1_555 1_555
O24H C74H 1_555 1_555
O24L C74L 1_555 1_555
C2D C11D 1_555 1_555
C2H C11H 1_555 1_555
C2L C11L 1_555 1_555
C5D C10D 1_555 1_555
C5H C10H 1_555 1_555
C5L C10L 1_555 1_555
C8D C9D 1_555 1_555
C8H C9H 1_555 1_555
C8L C9L 1_555 1_555
C9D C10D 1_555 1_555
C9H C10H 1_555 1_555
C9L C10L 1_555 1_555
C17D C22D 1_555 1_555
C17H C22H 1_555 1_555
C17L C22L 1_555 1_555
C19D C24D 1_555 1_555
C19H C24H 1_555 1_555
C19L C24L 1_555 1_555
C20D C21D 1_555 1_555
C20H C21H 1_555 1_555
C20L C21L 1_555 1_555
C21D C22D 1_555 1_555
C21H C22H 1_555 1_555
C21L C22L 1_555 1_555
C26D C35D 1_555 1_555
C26H C35H 1_555 1_555
C26L C35L 1_555 1_555
C29D C34D 1_555 1_555
C29H C34H 1_555 1_555
C29L C34L 1_555 1_555
C31D C36D 1_555 1_555
C31H C36H 1_555 1_555
C31L C36L 1_555 1_555
C32D C33D 1_555 1_555
C32H C33H 1_555 1_555
C32L C33L 1_555 1_555
C33D C34D 1_555 1_555
C33H C34H 1_555 1_555
C33L C34L 1_555 1_555
C38L C47L 1_555 1_555
C38H C47H 1_555 1_555
C38D C47D 1_555 1_555
C41L C46L 1_555 1_555
C41H C46H 1_555 1_555
C41D C46D 1_555 1_555
C43L C48L 1_555 1_555
C43H C48H 1_555 1_555
C44L C45L 1_555 1_555
C44H C45H 1_555 1_555
C44D C45D 1_555 1_555
C45L C46L 1_555 1_555
C45H C46H 1_555 1_555
C45D C46D 1_555 1_555
C50L C59L 1_555 1_555
C50D C59D 1_555 1_555
C50H C59H 1_555 1_555
C53L C58L 1_555 1_555
C53D C58D 1_555 1_555
C53H C58H 1_555 1_555
C54H C55H 1_555 1_555
C55L C60D 1_555 1_555
C55D C60L 1_555 1_555
C56L C57L 1_555 1_555
C56D C57D 1_555 1_555
C56H C57H 1_555 1_555
C57L C58L 1_555 1_555
C57D C58D 1_555 1_555
C57H C58H 1_555 1_555
C61D C66H 1_555 1_555
C62L C67L 1_555 1_555
C62H C67H 1_555 1_555
C62D C67D 1_555 1_555
C63L C64L 1_555 1_555
C64H C65H 1_555 1_555
C65H C66H 1_555 1_555
C68H C73H 1_555 1_555
C69D C74D 1_555 1_555
C69H C74H 1_555 1_555
C69L C74L 1_555 1_555
C70L C71L 1_555 1_555
C71D C72H 1_555 1_555
C72H C73H 1_555 1_555
N2L C80L 1_555 1_555
C80H C80L 1_555 1_555

#END
