# generated using pymatgen
data_Cu6H107C90(NO2)21
_symmetry_space_group_name_H-M   'P 1'
_cell_length_a   26.87343532
_cell_length_b   26.87343532
_cell_length_c   26.87343532
_cell_angle_alpha   108.93547555
_cell_angle_beta   108.93547555
_cell_angle_gamma   110.54810761
_symmetry_Int_Tables_number   1
_chemical_formula_structural   Cu6H107C90(NO2)21
_chemical_formula_sum   'Cu24 H428 C360 N84 O168'
_cell_volume   14935.93255562
_cell_formula_units_Z   4
loop_
 _symmetry_equiv_pos_site_id
 _symmetry_equiv_pos_as_xyz
  1  'x, y, z'
loop_
 _atom_site_type_symbol
 _atom_site_label
 _atom_site_symmetry_multiplicity
 _atom_site_fract_x
 _atom_site_fract_y
 _atom_site_fract_z
 _atom_site_occupancy
  C  C1  1  0.635400  0.046000  0.909400  1
  C  C2  1  0.726000  0.635400  0.589400  1
  C  C3  1  0.046000  0.136600  0.410600  1
  C  C4  1  0.136600  0.726000  0.090600  1
  C  C5  1  0.364600  0.954000  0.090600  1
  C  C6  1  0.274000  0.364600  0.410600  1
  C  C7  1  0.954000  0.863400  0.589400  1
  C  C8  1  0.863400  0.274000  0.909400  1
  C  C9  1  0.558100  0.983200  0.924900  1
  C  C10  1  0.633200  0.558100  0.574900  1
  C  C11  1  0.983200  0.058300  0.425100  1
  C  C12  1  0.058300  0.633200  0.075100  1
  C  C13  1  0.441900  0.016800  0.075100  1
  C  C14  1  0.366800  0.441900  0.425100  1
  C  C15  1  0.016800  0.941700  0.574900  1
  C  C16  1  0.941700  0.366800  0.924900  1
  C  C17  1  0.537500  0.038100  0.869600  1
  C  C18  1  0.667900  0.537500  0.499400  1
  C  C19  1  0.038100  0.168500  0.500600  1
  C  C20  1  0.168500  0.667900  0.130400  1
  C  C21  1  0.462500  0.961900  0.130400  1
  C  C22  1  0.332100  0.462500  0.500600  1
  C  C23  1  0.961900  0.831500  0.499400  1
  C  C24  1  0.831500  0.332100  0.869600  1
  C  C25  1  0.614400  0.986200  0.143000  1
  C  C26  1  0.471400  0.614400  0.628200  1
  C  C27  1  0.986200  0.843200  0.371800  1
  C  C28  1  0.843200  0.471400  0.857000  1
  C  C29  1  0.385600  0.013800  0.857000  1
  C  C30  1  0.528600  0.385600  0.371800  1
  C  C31  1  0.013800  0.156800  0.628200  1
  C  C32  1  0.156800  0.528600  0.143000  1
  C  C33  1  0.542700  0.944500  0.037800  1
  C  C34  1  0.504900  0.542700  0.598200  1
  C  C35  1  0.944500  0.906700  0.401800  1
  C  C36  1  0.906700  0.504900  0.962200  1
  C  C37  1  0.457300  0.055500  0.962200  1
  C  C38  1  0.495100  0.457300  0.401800  1
  C  C39  1  0.055500  0.093300  0.598200  1
  C  C40  1  0.093300  0.495100  0.037800  1
  C  C41  1  0.551700  0.876200  0.079300  1
  C  C42  1  0.472400  0.551700  0.675500  1
  C  C43  1  0.876200  0.796900  0.324500  1
  C  C44  1  0.796900  0.472400  0.920700  1
  C  C45  1  0.448300  0.123800  0.920700  1
  C  C46  1  0.527600  0.448300  0.324500  1
  C  C47  1  0.123800  0.203100  0.675500  1
  C  C48  1  0.203100  0.527600  0.079300  1
  C  C49  1  0.310900  0.775300  0.639200  1
  C  C50  1  0.671700  0.310900  0.535600  1
  C  C51  1  0.775300  0.136100  0.464400  1
  C  C52  1  0.136100  0.671700  0.360800  1
  C  C53  1  0.689100  0.224700  0.360800  1
  C  C54  1  0.328300  0.689100  0.464400  1
  C  C55  1  0.224700  0.863900  0.535600  1
  C  C56  1  0.863900  0.328300  0.639200  1
  C  C57  1  0.307100  0.758700  0.725200  1
  C  C58  1  0.581900  0.307100  0.548400  1
  C  C59  1  0.758700  0.033500  0.451600  1
  C  C60  1  0.033500  0.581900  0.274800  1
  C  C61  1  0.692900  0.241300  0.274800  1
  C  C62  1  0.418100  0.692900  0.451600  1
  C  C63  1  0.241300  0.966500  0.548400  1
  C  C64  1  0.966500  0.418100  0.725200  1
  C  C65  1  0.385000  0.864800  0.742000  1
  C  C66  1  0.643000  0.385000  0.520200  1
  C  C67  1  0.864800  0.122800  0.479800  1
  C  C68  1  0.122800  0.643000  0.258000  1
  C  C69  1  0.615000  0.135200  0.258000  1
  C  C70  1  0.357000  0.615000  0.479800  1
  C  C71  1  0.135200  0.877200  0.520200  1
  C  C72  1  0.877200  0.357000  0.742000  1
  C  C73  1  0.110300  0.516200  0.337300  1
  C  C74  1  0.773000  0.110300  0.594100  1
  C  C75  1  0.516200  0.178900  0.405900  1
  C  C76  1  0.178900  0.773000  0.662700  1
  C  C77  1  0.889700  0.483800  0.662700  1
  C  C78  1  0.227000  0.889700  0.405900  1
  C  C79  1  0.483800  0.821100  0.594100  1
  C  C80  1  0.821100  0.227000  0.337300  1
  C  C81  1  0.115400  0.458700  0.254100  1
  C  C82  1  0.861300  0.115400  0.656700  1
  C  C83  1  0.458700  0.204600  0.343300  1
  C  C84  1  0.204600  0.861300  0.745900  1
  C  C85  1  0.884600  0.541300  0.745900  1
  C  C86  1  0.138700  0.884600  0.343300  1
  C  C87  1  0.541300  0.795400  0.656700  1
  C  C88  1  0.795400  0.138700  0.254100  1
  C  C89  1  0.196800  0.566900  0.318100  1
  C  C90  1  0.878700  0.196800  0.629900  1
  C  C91  1  0.566900  0.248800  0.370100  1
  C  C92  1  0.248800  0.878700  0.681900  1
  C  C93  1  0.803200  0.433100  0.681900  1
  C  C94  1  0.121300  0.803200  0.370100  1
  C  C95  1  0.433100  0.751200  0.629900  1
  C  C96  1  0.751200  0.121300  0.318100  1
  C  C97  1  0.348000  0.925700  0.369500  1
  C  C98  1  0.978500  0.348000  0.422300  1
  C  C99  1  0.925700  0.556200  0.577700  1
  C  C100  1  0.556200  0.978500  0.630500  1
  C  C101  1  0.652000  0.074300  0.630500  1
  C  C102  1  0.021500  0.652000  0.577700  1
  C  C103  1  0.074300  0.443800  0.422300  1
  C  C104  1  0.443800  0.021500  0.369500  1
  C  C105  1  0.357300  0.918300  0.275600  1
  C  C106  1  0.081700  0.357300  0.439000  1
  C  C107  1  0.918300  0.642700  0.561000  1
  C  C108  1  0.642700  0.081700  0.724400  1
  C  C109  1  0.331500  0.004400  0.335900  1
  C  C110  1  0.995600  0.331500  0.327100  1
  C  C111  1  0.004400  0.668500  0.672900  1
  C  C112  1  0.668500  0.995600  0.664100  1
  C  C113  1  0.364600  0.926500  0.422900  1
  C  C114  1  0.941700  0.364600  0.438100  1
  C  C115  1  0.926500  0.503600  0.561900  1
  C  C116  1  0.503600  0.941700  0.577100  1
  C  C117  1  0.635400  0.073500  0.577100  1
  C  C118  1  0.058300  0.635400  0.561900  1
  C  C119  1  0.073500  0.496400  0.438100  1
  C  C120  1  0.496400  0.058300  0.422900  1
  C  C121  1  0.389200  0.889200  0.500000  1
  C  C122  1  0.889200  0.389200  0.500000  1
  C  C123  1  0.610800  0.110800  0.500000  1
  C  C124  1  0.110800  0.610800  0.500000  1
  C  C125  1  0.390000  0.001400  0.534200  1
  C  C126  1  0.855800  0.390000  0.388600  1
  C  C127  1  0.001400  0.467200  0.611400  1
  C  C128  1  0.467200  0.855800  0.465800  1
  C  C129  1  0.610000  0.998600  0.465800  1
  C  C130  1  0.144200  0.610000  0.611400  1
  C  C131  1  0.998600  0.532800  0.388600  1
  C  C132  1  0.532800  0.144200  0.534200  1
  C  C133  1  0.830100  0.769600  0.599700  1.0
  C  C134  1  0.230400  0.830100  0.060500  1.0
  C  C135  1  0.769600  0.169900  0.939500  1.0
  C  C136  1  0.169900  0.230400  0.400300  1.0
  C  C137  1  0.906000  0.792500  0.698500  1.0
  C  C138  1  0.207500  0.906000  0.113500  1.0
  C  C139  1  0.792500  0.094000  0.886500  1.0
  C  C140  1  0.094000  0.207500  0.301500  1.0
  C  C141  1  0.840400  0.841800  0.682200  1.0
  C  C142  1  0.158200  0.840400  0.998600  1.0
  C  C143  1  0.841800  0.159600  0.001400  1.0
  C  C144  1  0.159600  0.158200  0.317800  1.0
  C  C145  1  0.503360  0.594180  0.399900  1.0
  C  C146  1  0.103460  0.503360  0.909180  1.0
  C  C147  1  0.594180  0.194280  0.090820  1.0
  C  C148  1  0.194280  0.103460  0.600100  1.0
  C  C149  1  0.496640  0.405820  0.600100  1.0
  C  C150  1  0.896540  0.496640  0.090820  1.0
  C  C151  1  0.405820  0.805720  0.909180  1.0
  C  C152  1  0.805720  0.896540  0.399900  1.0
  C  C153  1  0.553460  0.606240  0.391320  1.0
  C  C154  1  0.162140  0.553460  0.947220  1.0
  C  C155  1  0.606240  0.214920  0.052780  1.0
  C  C156  1  0.214920  0.162140  0.608680  1.0
  C  C157  1  0.446540  0.393760  0.608680  1.0
  C  C158  1  0.837860  0.446540  0.052780  1.0
  C  C159  1  0.393760  0.785080  0.947220  1.0
  C  C160  1  0.785080  0.837860  0.391320  1.0
  C  C161  1  0.611320  0.637420  0.441000  1.0
  C  C162  1  0.170320  0.611320  0.973900  1.0
  C  C163  1  0.637420  0.196420  0.026100  1.0
  C  C164  1  0.196420  0.170320  0.559000  1.0
  C  C165  1  0.388680  0.362580  0.559000  1.0
  C  C166  1  0.829680  0.388680  0.026100  1.0
  C  C167  1  0.362580  0.803580  0.973900  1.0
  C  C168  1  0.803580  0.829680  0.441000  1.0
  C  C169  1  0.619800  0.658860  0.499500  1.0
  C  C170  1  0.120300  0.619800  0.960940  1.0
  C  C171  1  0.658860  0.159360  0.039060  1.0
  C  C172  1  0.159360  0.120300  0.500500  1.0
  C  C173  1  0.380200  0.341140  0.500500  1.0
  C  C174  1  0.879700  0.380200  0.039060  1.0
  C  C175  1  0.341140  0.840640  0.960940  1.0
  C  C176  1  0.840640  0.879700  0.499500  1.0
  C  C177  1  0.569200  0.647490  0.508470  1.0
  C  C178  1  0.060730  0.569200  0.921710  1.0
  C  C179  1  0.647490  0.139020  0.078290  1.0
  C  C180  1  0.139020  0.060730  0.491530  1.0
  C  C181  1  0.430800  0.352510  0.491530  1.0
  C  C182  1  0.939270  0.430800  0.078290  1.0
  C  C183  1  0.352510  0.860980  0.921710  1.0
  C  C184  1  0.860980  0.939270  0.508470  1.0
  C  C185  1  0.511360  0.614580  0.458120  1.0
  C  C186  1  0.053240  0.511360  0.896780  1.0
  C  C187  1  0.614580  0.156460  0.103220  1.0
  C  C188  1  0.156460  0.053240  0.541880  1.0
  C  C189  1  0.488640  0.385420  0.541880  1.0
  C  C190  1  0.946760  0.488640  0.103220  1.0
  C  C191  1  0.385420  0.843540  0.896780  1.0
  C  C192  1  0.843540  0.946760  0.458120  1.0
  C  C193  1  0.440540  0.558210  0.346530  1.0
  C  C194  1  0.094010  0.440540  0.882330  1.0
  C  C195  1  0.558210  0.211680  0.117670  1.0
  C  C196  1  0.211680  0.094010  0.653470  1.0
  C  C197  1  0.559460  0.441790  0.653470  1.0
  C  C198  1  0.905990  0.559460  0.117670  1.0
  C  C199  1  0.441790  0.788320  0.882330  1.0
  C  C200  1  0.788320  0.905990  0.346530  1.0
  C  C201  1  0.665480  0.646850  0.431250  1.0
  C  C202  1  0.234230  0.665480  0.018630  1.0
  C  C203  1  0.646850  0.215600  0.981370  1.0
  C  C204  1  0.215600  0.234230  0.568750  1.0
  C  C205  1  0.334520  0.353150  0.568750  1.0
  C  C206  1  0.765770  0.334520  0.981370  1.0
  C  C207  1  0.353150  0.784400  0.018630  1.0
  C  C208  1  0.784400  0.765770  0.431250  1.0
  C  C209  1  0.347870  0.346640  0.245610  1.0
  C  C210  1  0.102260  0.347870  0.001230  1.0
  C  C211  1  0.346640  0.101030  0.998770  1.0
  C  C212  1  0.101030  0.102260  0.754390  1.0
  C  C213  1  0.652130  0.653360  0.754390  1.0
  C  C214  1  0.897740  0.652130  0.998770  1.0
  C  C215  1  0.653360  0.898970  0.001230  1.0
  C  C216  1  0.898970  0.897740  0.245610  1.0
  C  C217  1  0.380530  0.328980  0.220410  1.0
  C  C218  1  0.160120  0.380530  0.051550  1.0
  C  C219  1  0.328980  0.108570  0.948450  1.0
  C  C220  1  0.108570  0.160120  0.779590  1.0
  C  C221  1  0.619470  0.671020  0.779590  1.0
  C  C222  1  0.839880  0.619470  0.948450  1.0
  C  C223  1  0.671020  0.891430  0.051550  1.0
  C  C224  1  0.891430  0.839880  0.220410  1.0
  C  C225  1  0.389420  0.282000  0.223400  1.0
  C  C226  1  0.166020  0.389420  0.107420  1.0
  C  C227  1  0.282000  0.058600  0.892580  1.0
  C  C228  1  0.058600  0.166020  0.776600  1.0
  C  C229  1  0.610580  0.718000  0.776600  1.0
  C  C230  1  0.833980  0.610580  0.892580  1.0
  C  C231  1  0.718000  0.941400  0.107420  1.0
  C  C232  1  0.941400  0.833980  0.223400  1.0
  C  C233  1  0.364860  0.252620  0.251100  1.0
  C  C234  1  0.113760  0.364860  0.112240  1.0
  C  C235  1  0.252620  0.001520  0.887760  1.0
  C  C236  1  0.001520  0.113760  0.748900  1.0
  C  C237  1  0.635140  0.747380  0.748900  1.0
  C  C238  1  0.886240  0.635140  0.887760  1.0
  C  C239  1  0.747380  0.998480  0.112240  1.0
  C  C240  1  0.998480  0.886240  0.251100  1.0
  C  C241  1  0.330770  0.269320  0.274790  1.0
  C  C242  1  0.055980  0.330770  0.061450  1.0
  C  C243  1  0.269320  0.994530  0.938550  1.0
  C  C244  1  0.994530  0.055980  0.725210  1.0
  C  C245  1  0.669230  0.730680  0.725210  1.0
  C  C246  1  0.944020  0.669230  0.938550  1.0
  C  C247  1  0.730680  0.005470  0.061450  1.0
  C  C248  1  0.005470  0.944020  0.274790  1.0
  C  C249  1  0.323370  0.317360  0.272510  1.0
  C  C250  1  0.050860  0.323370  0.006010  1.0
  C  C251  1  0.317360  0.044850  0.993990  1.0
  C  C252  1  0.044850  0.050860  0.727490  1.0
  C  C253  1  0.676630  0.682640  0.727490  1.0
  C  C254  1  0.949140  0.676630  0.993990  1.0
  C  C255  1  0.682640  0.955150  0.006010  1.0
  C  C256  1  0.955150  0.949140  0.272510  1.0
  C  C257  1  0.341690  0.400440  0.246070  1.0
  C  C258  1  0.095620  0.341690  0.941250  1.0
  C  C259  1  0.400440  0.154370  0.058750  1.0
  C  C260  1  0.154370  0.095620  0.753930  1.0
  C  C261  1  0.658310  0.599560  0.753930  1.0
  C  C262  1  0.904380  0.658310  0.058750  1.0
  C  C263  1  0.599560  0.845630  0.941250  1.0
  C  C264  1  0.845630  0.904380  0.246070  1.0
  C  C265  1  0.227920  0.427580  0.162300  1.0
  C  C266  1  0.065620  0.227920  0.800340  1.0
  C  C267  1  0.427580  0.265280  0.199660  1.0
  C  C268  1  0.265280  0.065620  0.837700  1.0
  C  C269  1  0.772080  0.572420  0.837700  1.0
  C  C270  1  0.934380  0.772080  0.199660  1.0
  C  C271  1  0.572420  0.734720  0.800340  1.0
  C  C272  1  0.734720  0.934380  0.162300  1.0
  C  C273  1  0.326060  0.642310  0.262690  1.0
  C  C274  1  0.063370  0.326060  0.683750  1.0
  C  C275  1  0.642310  0.379620  0.316250  1.0
  C  C276  1  0.379620  0.063370  0.737310  1.0
  C  C277  1  0.673940  0.357690  0.737310  1.0
  C  C278  1  0.936630  0.673940  0.316250  1.0
  C  C279  1  0.357690  0.620380  0.683750  1.0
  C  C280  1  0.620380  0.936630  0.262690  1.0
  C  C281  1  0.332720  0.660640  0.221580  1.0
  C  C282  1  0.111140  0.332720  0.672080  1.0
  C  C283  1  0.660640  0.439060  0.327920  1.0
  C  C284  1  0.439060  0.111140  0.778420  1.0
  C  C285  1  0.667280  0.339360  0.778420  1.0
  C  C286  1  0.888860  0.667280  0.327920  1.0
  C  C287  1  0.339360  0.560940  0.672080  1.0
  C  C288  1  0.560940  0.888860  0.221580  1.0
  C  C289  1  0.326340  0.709920  0.222140  1.0
  C  C290  1  0.104200  0.326340  0.616420  1.0
  C  C291  1  0.709920  0.487780  0.383580  1.0
  C  C292  1  0.487780  0.104200  0.777860  1.0
  C  C293  1  0.673660  0.290080  0.777860  1.0
  C  C294  1  0.895800  0.673660  0.383580  1.0
  C  C295  1  0.290080  0.512220  0.616420  1.0
  C  C296  1  0.512220  0.895800  0.222140  1.0
  C  C297  1  0.314490  0.741270  0.263760  1.0
  C  C298  1  0.050730  0.314490  0.573220  1.0
  C  C299  1  0.741270  0.477510  0.426780  1.0
  C  C300  1  0.477510  0.050730  0.736240  1.0
  C  C301  1  0.685510  0.258730  0.736240  1.0
  C  C302  1  0.949270  0.685510  0.426780  1.0
  C  C303  1  0.258730  0.522490  0.573220  1.0
  C  C304  1  0.522490  0.949270  0.263760  1.0
  C  C305  1  0.306500  0.723350  0.305850  1.0
  C  C306  1  0.000650  0.306500  0.583150  1.0
  C  C307  1  0.723350  0.417500  0.416850  1.0
  C  C308  1  0.417500  0.000650  0.694150  1.0
  C  C309  1  0.693500  0.276650  0.694150  1.0
  C  C310  1  0.999350  0.693500  0.416850  1.0
  C  C311  1  0.276650  0.582500  0.583150  1.0
  C  C312  1  0.582500  0.999350  0.305850  1.0
  C  C313  1  0.311930  0.672430  0.303560  1.0
  C  C314  1  0.008370  0.311930  0.639500  1.0
  C  C315  1  0.672430  0.368870  0.360500  1.0
  C  C316  1  0.368870  0.008370  0.696440  1.0
  C  C317  1  0.688070  0.327570  0.696440  1.0
  C  C318  1  0.991630  0.688070  0.360500  1.0
  C  C319  1  0.327570  0.631130  0.639500  1.0
  C  C320  1  0.631130  0.991630  0.303560  1.0
  C  C321  1  0.330130  0.587570  0.259860  1.0
  C  C322  1  0.070270  0.330130  0.742560  1.0
  C  C323  1  0.587570  0.327710  0.257440  1.0
  C  C324  1  0.327710  0.070270  0.740140  1.0
  C  C325  1  0.669870  0.412430  0.740140  1.0
  C  C326  1  0.929730  0.669870  0.257440  1.0
  C  C327  1  0.412430  0.672290  0.742560  1.0
  C  C328  1  0.672290  0.929730  0.259860  1.0
  C  C329  1  0.727190  0.551610  0.396160  1.0
  C  C330  1  0.331030  0.727190  0.175580  1.0
  C  C331  1  0.551610  0.155450  0.824420  1.0
  C  C332  1  0.155450  0.331030  0.603840  1.0
  C  C333  1  0.272810  0.448390  0.603840  1.0
  C  C334  1  0.668970  0.272810  0.824420  1.0
  C  C335  1  0.448390  0.844550  0.175580  1.0
  C  C336  1  0.844550  0.668970  0.396160  1.0
  C  C337  1  0.224800  0.427800  0.320400  1.0
  C  C338  1  0.904400  0.224800  0.797000  1.0
  C  C339  1  0.427800  0.107400  0.203000  1.0
  C  C340  1  0.107400  0.904400  0.679600  1.0
  C  C341  1  0.775200  0.572200  0.679600  1.0
  C  C342  1  0.095600  0.775200  0.203000  1.0
  C  C343  1  0.572200  0.892600  0.797000  1.0
  C  C344  1  0.892600  0.095600  0.320400  1.0
  C  C345  1  0.203000  0.461800  0.403200  1.0
  C  C346  1  0.799800  0.203000  0.741200  1.0
  C  C347  1  0.461800  0.058600  0.258800  1.0
  C  C348  1  0.058600  0.799800  0.596800  1.0
  C  C349  1  0.797000  0.538200  0.596800  1.0
  C  C350  1  0.200200  0.797000  0.258800  1.0
  C  C351  1  0.538200  0.941400  0.741200  1.0
  C  C352  1  0.941400  0.200200  0.403200  1.0
  C  C353  1  0.138000  0.350200  0.314000  1.0
  C  C354  1  0.824000  0.138000  0.787800  1.0
  C  C355  1  0.350200  0.036200  0.212200  1.0
  C  C356  1  0.036200  0.824000  0.686000  1.0
  C  C357  1  0.862000  0.649800  0.686000  1.0
  C  C358  1  0.176000  0.862000  0.212200  1.0
  C  C359  1  0.649800  0.963800  0.787800  1.0
  C  C360  1  0.963800  0.176000  0.314000  1.0
  Cu  Cu361  1  0.791480  0.680930  0.472410  1.0
  Cu  Cu362  1  0.319070  0.791480  0.110550  1.0
  Cu  Cu363  1  0.680930  0.208520  0.889450  1.0
  Cu  Cu364  1  0.208520  0.319070  0.527590  1.0
  Cu  Cu365  1  0.719610  0.637140  0.356750  1.0
  Cu  Cu366  1  0.362860  0.719610  0.082470  1.0
  Cu  Cu367  1  0.637140  0.280390  0.917530  1.0
  Cu  Cu368  1  0.280390  0.362860  0.643250  1.0
  Cu  Cu369  1  0.310905  0.491708  0.288713  1.0
  Cu  Cu370  1  0.022192  0.310905  0.819197  1.0
  Cu  Cu371  1  0.491708  0.202995  0.180803  1.0
  Cu  Cu372  1  0.202995  0.022192  0.711287  1.0
  Cu  Cu373  1  0.689095  0.508292  0.711287  1.0
  Cu  Cu374  1  0.977808  0.689095  0.180803  1.0
  Cu  Cu375  1  0.508292  0.797005  0.819197  1.0
  Cu  Cu376  1  0.797005  0.977808  0.288713  1.0
  Cu  Cu377  1  0.359038  0.495606  0.218384  1.0
  Cu  Cu378  1  0.140654  0.359038  0.863432  1.0
  Cu  Cu379  1  0.495606  0.277222  0.136568  1.0
  Cu  Cu380  1  0.277222  0.140654  0.781616  1.0
  Cu  Cu381  1  0.640962  0.504394  0.781616  1.0
  Cu  Cu382  1  0.859346  0.640962  0.136568  1.0
  Cu  Cu383  1  0.504394  0.722778  0.863432  1.0
  Cu  Cu384  1  0.722778  0.859346  0.218384  1.0
  H  H385  1  0.645700  0.070900  0.892000  1
  H  H386  1  0.753700  0.645700  0.574800  1
  H  H387  1  0.070900  0.178900  0.425200  1
  H  H388  1  0.178900  0.753700  0.108000  1
  H  H389  1  0.354300  0.929100  0.108000  1
  H  H390  1  0.246300  0.354300  0.425200  1
  H  H391  1  0.929100  0.821100  0.574800  1
  H  H392  1  0.821100  0.246300  0.892000  1
  H  H393  1  0.590900  0.976500  0.944800  1
  H  H394  1  0.646100  0.590900  0.614400  1
  H  H395  1  0.976500  0.031700  0.385600  1
  H  H396  1  0.031700  0.646100  0.055200  1
  H  H397  1  0.409100  0.023500  0.055200  1
  H  H398  1  0.353900  0.409100  0.385600  1
  H  H399  1  0.023500  0.968300  0.614400  1
  H  H400  1  0.968300  0.353900  0.944800  1
  H  H401  1  0.521600  0.943800  0.892600  1
  H  H402  1  0.629000  0.521600  0.577800  1
  H  H403  1  0.943800  0.051200  0.422200  1
  H  H404  1  0.051200  0.629000  0.107400  1
  H  H405  1  0.478400  0.056200  0.107400  1
  H  H406  1  0.371000  0.478400  0.422200  1
  H  H407  1  0.056200  0.948800  0.577800  1
  H  H408  1  0.948800  0.371000  0.892600  1
  H  H409  1  0.548400  0.003700  0.954700  1
  H  H410  1  0.593700  0.548400  0.544700  1
  H  H411  1  0.003700  0.049000  0.455300  1
  H  H412  1  0.049000  0.593700  0.045300  1
  H  H413  1  0.451600  0.996300  0.045300  1
  H  H414  1  0.406300  0.451600  0.455300  1
  H  H415  1  0.996300  0.951000  0.544700  1
  H  H416  1  0.951000  0.406300  0.954700  1
  H  H417  1  0.557700  0.064600  0.856100  1
  H  H418  1  0.701600  0.557700  0.493100  1
  H  H419  1  0.064600  0.208500  0.506900  1
  H  H420  1  0.208500  0.701600  0.143900  1
  H  H421  1  0.442300  0.935400  0.143900  1
  H  H422  1  0.298400  0.442300  0.506900  1
  H  H423  1  0.935400  0.791500  0.493100  1
  H  H424  1  0.791500  0.298400  0.856100  1
  H  H425  1  0.527000  0.059900  0.897700  1
  H  H426  1  0.629300  0.527000  0.467100  1
  H  H427  1  0.059900  0.162200  0.532900  1
  H  H428  1  0.162200  0.629300  0.102300  1
  H  H429  1  0.473000  0.940100  0.102300  1
  H  H430  1  0.370700  0.473000  0.532900  1
  H  H431  1  0.940100  0.837800  0.467100  1
  H  H432  1  0.837800  0.370700  0.897700  1
  H  H433  1  0.500067  0.001200  0.834467  1
  H  H434  1  0.665600  0.500067  0.498867  1
  H  H435  1  0.001200  0.166733  0.501133  1
  H  H436  1  0.166733  0.665600  0.165533  1
  H  H437  1  0.499933  0.998800  0.165533  1
  H  H438  1  0.334400  0.499933  0.501133  1
  H  H439  1  0.998800  0.833267  0.498867  1
  H  H440  1  0.833267  0.334400  0.834467  1
  H  H441  1  0.633000  0.978700  0.174300  1
  H  H442  1  0.458700  0.633000  0.654300  1
  H  H443  1  0.978700  0.804400  0.345700  1
  H  H444  1  0.804400  0.458700  0.825700  1
  H  H445  1  0.367000  0.021300  0.825700  1
  H  H446  1  0.541300  0.367000  0.345700  1
  H  H447  1  0.021300  0.195600  0.654300  1
  H  H448  1  0.195600  0.541300  0.174300  1
  H  H449  1  0.559400  0.987900  0.049900  1
  H  H450  1  0.509500  0.559400  0.571500  1
  H  H451  1  0.987900  0.938000  0.428500  1
  H  H452  1  0.938000  0.509500  0.950100  1
  H  H453  1  0.440600  0.012100  0.950100  1
  H  H454  1  0.490500  0.440600  0.428500  1
  H  H455  1  0.012100  0.062000  0.571500  1
  H  H456  1  0.062000  0.490500  0.049900  1
  H  H457  1  0.498500  0.924600  0.022500  1
  H  H458  1  0.476000  0.498500  0.573900  1
  H  H459  1  0.924600  0.902100  0.426100  1
  H  H460  1  0.902100  0.476000  0.977500  1
  H  H461  1  0.501500  0.075400  0.977500  1
  H  H462  1  0.524000  0.501500  0.426100  1
  H  H463  1  0.075400  0.097900  0.573900  1
  H  H464  1  0.097900  0.524000  0.022500  1
  H  H465  1  0.550600  0.924900  0.005900  1
  H  H466  1  0.544700  0.550600  0.625700  1
  H  H467  1  0.924900  0.919000  0.374300  1
  H  H468  1  0.919000  0.544700  0.994100  1
  H  H469  1  0.449400  0.075100  0.994100  1
  H  H470  1  0.455300  0.449400  0.374300  1
  H  H471  1  0.075100  0.081000  0.625700  1
  H  H472  1  0.081000  0.455300  0.005900  1
  H  H473  1  0.574000  0.878000  0.117400  1
  H  H474  1  0.456600  0.574000  0.696000  1
  H  H475  1  0.878000  0.760600  0.304000  1
  H  H476  1  0.760600  0.456600  0.882600  1
  H  H477  1  0.426000  0.122000  0.882600  1
  H  H478  1  0.543400  0.426000  0.304000  1
  H  H479  1  0.122000  0.239400  0.696000  1
  H  H480  1  0.239400  0.543400  0.117400  1
  H  H481  1  0.560200  0.854700  0.048900  1
  H  H482  1  0.511300  0.560200  0.705500  1
  H  H483  1  0.854700  0.805800  0.294500  1
  H  H484  1  0.805800  0.511300  0.951100  1
  H  H485  1  0.439800  0.145300  0.951100  1
  H  H486  1  0.488700  0.439800  0.294500  1
  H  H487  1  0.145300  0.194200  0.705500  1
  H  H488  1  0.194200  0.488700  0.048900  1
  H  H489  1  0.507800  0.854600  0.065000  1
  H  H490  1  0.442800  0.507800  0.653200  1
  H  H491  1  0.854600  0.789600  0.346800  1
  H  H492  1  0.789600  0.442800  0.935000  1
  H  H493  1  0.492200  0.145400  0.935000  1
  H  H494  1  0.557200  0.492200  0.346800  1
  H  H495  1  0.145400  0.210400  0.653200  1
  H  H496  1  0.210400  0.557200  0.065000  1
  H  H497  1  0.326600  0.804100  0.627300  1
  H  H498  1  0.699300  0.326600  0.522500  1
  H  H499  1  0.804100  0.176800  0.477500  1
  H  H500  1  0.176800  0.699300  0.372700  1
  H  H501  1  0.673400  0.195900  0.372700  1
  H  H502  1  0.300700  0.673400  0.477500  1
  H  H503  1  0.195900  0.823200  0.522500  1
  H  H504  1  0.823200  0.300700  0.627300  1
  H  H505  1  0.273500  0.718300  0.691000  1
  H  H506  1  0.582500  0.273500  0.555200  1
  H  H507  1  0.718300  0.027300  0.444800  1
  H  H508  1  0.027300  0.582500  0.309000  1
  H  H509  1  0.726500  0.281700  0.309000  1
  H  H510  1  0.417500  0.726500  0.444800  1
  H  H511  1  0.281700  0.972700  0.555200  1
  H  H512  1  0.972700  0.417500  0.691000  1
  H  H513  1  0.291400  0.777400  0.749200  1
  H  H514  1  0.542200  0.291400  0.514000  1
  H  H515  1  0.777400  0.028200  0.486000  1
  H  H516  1  0.028200  0.542200  0.250800  1
  H  H517  1  0.708600  0.222600  0.250800  1
  H  H518  1  0.457800  0.708600  0.486000  1
  H  H519  1  0.222600  0.971800  0.514000  1
  H  H520  1  0.971800  0.457800  0.749200  1
  H  H521  1  0.338800  0.754100  0.750700  1
  H  H522  1  0.588100  0.338800  0.584700  1
  H  H523  1  0.754100  0.003400  0.415300  1
  H  H524  1  0.003400  0.588100  0.249300  1
  H  H525  1  0.661200  0.245900  0.249300  1
  H  H526  1  0.411900  0.661200  0.415300  1
  H  H527  1  0.245900  0.996600  0.584700  1
  H  H528  1  0.996600  0.411900  0.750700  1
  H  H529  1  0.392600  0.882500  0.716700  1
  H  H530  1  0.675900  0.392600  0.510100  1
  H  H531  1  0.882500  0.165800  0.489900  1
  H  H532  1  0.165800  0.675900  0.283300  1
  H  H533  1  0.607400  0.117500  0.283300  1
  H  H534  1  0.324100  0.607400  0.489900  1
  H  H535  1  0.117500  0.834200  0.510100  1
  H  H536  1  0.834200  0.324100  0.716700  1
  H  H537  1  0.422200  0.867000  0.767400  1
  H  H538  1  0.654800  0.422200  0.555200  1
  H  H539  1  0.867000  0.099600  0.444800  1
  H  H540  1  0.099600  0.654800  0.232600  1
  H  H541  1  0.577800  0.133000  0.232600  1
  H  H542  1  0.345200  0.577800  0.444800  1
  H  H543  1  0.133000  0.900400  0.555200  1
  H  H544  1  0.900400  0.345200  0.767400  1
  H  H545  1  0.373300  0.887900  0.767800  1
  H  H546  1  0.605500  0.373300  0.485400  1
  H  H547  1  0.887900  0.120100  0.514600  1
  H  H548  1  0.120100  0.605500  0.232200  1
  H  H549  1  0.626700  0.112100  0.232200  1
  H  H550  1  0.394500  0.626700  0.514600  1
  H  H551  1  0.112100  0.879900  0.485400  1
  H  H552  1  0.879900  0.394500  0.767800  1
  H  H553  1  0.121200  0.549800  0.373400  1
  H  H554  1  0.747800  0.121200  0.571400  1
  H  H555  1  0.549800  0.176400  0.428600  1
  H  H556  1  0.176400  0.747800  0.626600  1
  H  H557  1  0.878800  0.450200  0.626600  1
  H  H558  1  0.252200  0.878800  0.428600  1
  H  H559  1  0.450200  0.823600  0.571400  1
  H  H560  1  0.823600  0.252200  0.373400  1
  H  H561  1  0.079500  0.428300  0.251200  1
  H  H562  1  0.828300  0.079500  0.651200  1
  H  H563  1  0.428300  0.177100  0.348800  1
  H  H564  1  0.177100  0.828300  0.748800  1
  H  H565  1  0.920500  0.571700  0.748800  1
  H  H566  1  0.171700  0.920500  0.348800  1
  H  H567  1  0.571700  0.822900  0.651200  1
  H  H568  1  0.822900  0.171700  0.251200  1
  H  H569  1  0.145300  0.445400  0.257300  1
  H  H570  1  0.888000  0.145300  0.699900  1
  H  H571  1  0.445400  0.188100  0.300100  1
  H  H572  1  0.188100  0.888000  0.742700  1
  H  H573  1  0.854700  0.554600  0.742700  1
  H  H574  1  0.112000  0.854700  0.300100  1
  H  H575  1  0.554600  0.811900  0.699900  1
  H  H576  1  0.811900  0.112000  0.257300  1
  H  H577  1  0.102900  0.462900  0.217800  1
  H  H578  1  0.885100  0.102900  0.640000  1
  H  H579  1  0.462900  0.245100  0.360000  1
  H  H580  1  0.245100  0.885100  0.782200  1
  H  H581  1  0.897100  0.537100  0.782200  1
  H  H582  1  0.114900  0.897100  0.360000  1
  H  H583  1  0.537100  0.754900  0.640000  1
  H  H584  1  0.754900  0.114900  0.217800  1
  H  H585  1  0.210900  0.604400  0.354300  1
  H  H586  1  0.856600  0.210900  0.606500  1
  H  H587  1  0.604400  0.250100  0.393500  1
  H  H588  1  0.250100  0.856600  0.645700  1
  H  H589  1  0.789100  0.395600  0.645700  1
  H  H590  1  0.143400  0.789100  0.393500  1
  H  H591  1  0.395600  0.749900  0.606500  1
  H  H592  1  0.749900  0.143400  0.354300  1
  H  H593  1  0.187200  0.573300  0.283100  1
  H  H594  1  0.904100  0.187200  0.613900  1
  H  H595  1  0.573300  0.290200  0.386100  1
  H  H596  1  0.290200  0.904100  0.716900  1
  H  H597  1  0.812800  0.426700  0.716900  1
  H  H598  1  0.095900  0.812800  0.386100  1
  H  H599  1  0.426700  0.709800  0.613900  1
  H  H600  1  0.709800  0.095900  0.283100  1
  H  H601  1  0.229100  0.556700  0.324200  1
  H  H602  1  0.904900  0.229100  0.672400  1
  H  H603  1  0.556700  0.232500  0.327600  1
  H  H604  1  0.232500  0.904900  0.675800  1
  H  H605  1  0.770900  0.443300  0.675800  1
  H  H606  1  0.095100  0.770900  0.327600  1
  H  H607  1  0.443300  0.767500  0.672400  1
  H  H608  1  0.767500  0.095100  0.324200  1
  H  H609  1  0.800300  0.775700  0.576000  1.0
  H  H610  1  0.224300  0.800300  0.024600  1.0
  H  H611  1  0.775700  0.199700  0.975400  1.0
  H  H612  1  0.199700  0.224300  0.424000  1.0
  H  H613  1  0.911400  0.761600  0.673000  1.0
  H  H614  1  0.238400  0.911400  0.149800  1.0
  H  H615  1  0.761600  0.088600  0.850200  1.0
  H  H616  1  0.088600  0.238400  0.327000  1.0
  H  H617  1  0.809100  0.839100  0.648200  1.0
  H  H618  1  0.160900  0.809100  0.970000  1.0
  H  H619  1  0.839100  0.190900  0.030000  1.0
  H  H620  1  0.190900  0.160900  0.351800  1.0
  H  H621  1  0.545400  0.662400  0.571600  1.0
  H  H622  1  0.973800  0.545400  0.883000  1.0
  H  H623  1  0.662400  0.090800  0.117000  1.0
  H  H624  1  0.090800  0.973800  0.428400  1.0
  H  H625  1  0.454600  0.337600  0.428400  1.0
  H  H626  1  0.026200  0.454600  0.117000  1.0
  H  H627  1  0.337600  0.909200  0.883000  1.0
  H  H628  1  0.909200  0.026200  0.571600  1.0
  H  H629  1  0.614200  0.690100  0.597700  1.0
  H  H630  1  0.016500  0.614200  0.924100  1.0
  H  H631  1  0.690100  0.092400  0.075900  1.0
  H  H632  1  0.092400  0.016500  0.402300  1.0
  H  H633  1  0.385800  0.309900  0.402300  1.0
  H  H634  1  0.983500  0.385800  0.075900  1.0
  H  H635  1  0.309900  0.907600  0.924100  1.0
  H  H636  1  0.907600  0.983500  0.597700  1.0
  H  H637  1  0.311300  0.210300  0.304800  1.0
  H  H638  1  0.006500  0.311300  0.101000  1.0
  H  H639  1  0.210300  0.905500  0.899000  1.0
  H  H640  1  0.905500  0.006500  0.695200  1.0
  H  H641  1  0.688700  0.789700  0.695200  1.0
  H  H642  1  0.993500  0.688700  0.899000  1.0
  H  H643  1  0.789700  0.094500  0.101000  1.0
  H  H644  1  0.094500  0.993500  0.304800  1.0
  H  H645  1  0.284100  0.251000  0.317100  1.0
  H  H646  1  0.967000  0.284100  0.033100  1.0
  H  H647  1  0.251000  0.933900  0.966900  1.0
  H  H648  1  0.933900  0.967000  0.682900  1.0
  H  H649  1  0.715900  0.749000  0.682900  1.0
  H  H650  1  0.033000  0.715900  0.966900  1.0
  H  H651  1  0.749000  0.066100  0.033100  1.0
  H  H652  1  0.066100  0.033000  0.317100  1.0
  H  H653  1  0.287300  0.741100  0.373000  1.0
  H  H654  1  0.914300  0.287300  0.546200  1.0
  H  H655  1  0.741100  0.368100  0.453800  1.0
  H  H656  1  0.368100  0.914300  0.627000  1.0
  H  H657  1  0.712700  0.258900  0.627000  1.0
  H  H658  1  0.085700  0.712700  0.453800  1.0
  H  H659  1  0.258900  0.631900  0.546200  1.0
  H  H660  1  0.631900  0.085700  0.373000  1.0
  H  H661  1  0.289400  0.785500  0.348900  1.0
  H  H662  1  0.940500  0.289400  0.503900  1.0
  H  H663  1  0.785500  0.436600  0.496100  1.0
  H  H664  1  0.436600  0.940500  0.651100  1.0
  H  H665  1  0.710600  0.214500  0.651100  1.0
  H  H666  1  0.059500  0.710600  0.496100  1.0
  H  H667  1  0.214500  0.563400  0.503900  1.0
  H  H668  1  0.563400  0.059500  0.348900  1.0
  H  H669  1  0.548200  0.593300  0.351700  1.0
  H  H670  1  0.196500  0.548200  0.954900  1.0
  H  H671  1  0.593300  0.241600  0.045100  1.0
  H  H672  1  0.241600  0.196500  0.648300  1.0
  H  H673  1  0.451800  0.406700  0.648300  1.0
  H  H674  1  0.803500  0.451800  0.045100  1.0
  H  H675  1  0.406700  0.758400  0.954900  1.0
  H  H676  1  0.758400  0.803500  0.351700  1.0
  H  H677  1  0.659900  0.681200  0.533300  1.0
  H  H678  1  0.126600  0.659900  0.978700  1.0
  H  H679  1  0.681200  0.147900  0.021300  1.0
  H  H680  1  0.147900  0.126600  0.466700  1.0
  H  H681  1  0.340100  0.318800  0.466700  1.0
  H  H682  1  0.873400  0.340100  0.021300  1.0
  H  H683  1  0.318800  0.852100  0.978700  1.0
  H  H684  1  0.852100  0.873400  0.533300  1.0
  H  H685  1  0.476600  0.605800  0.463400  1.0
  H  H686  1  0.013200  0.476600  0.870800  1.0
  H  H687  1  0.605800  0.142400  0.129200  1.0
  H  H688  1  0.142400  0.013200  0.536600  1.0
  H  H689  1  0.523400  0.394200  0.536600  1.0
  H  H690  1  0.986800  0.523400  0.129200  1.0
  H  H691  1  0.394200  0.857600  0.870800  1.0
  H  H692  1  0.857600  0.986800  0.463400  1.0
  H  H693  1  0.396700  0.348900  0.201200  1.0
  H  H694  1  0.195500  0.396700  0.047800  1.0
  H  H695  1  0.348900  0.147700  0.952200  1.0
  H  H696  1  0.147700  0.195500  0.798800  1.0
  H  H697  1  0.603300  0.651100  0.798800  1.0
  H  H698  1  0.804500  0.603300  0.952200  1.0
  H  H699  1  0.651100  0.852300  0.047800  1.0
  H  H700  1  0.852300  0.804500  0.201200  1.0
  H  H701  1  0.371500  0.220900  0.253800  1.0
  H  H702  1  0.117700  0.371500  0.150600  1.0
  H  H703  1  0.220900  0.967100  0.849400  1.0
  H  H704  1  0.967100  0.117700  0.746200  1.0
  H  H705  1  0.628500  0.779100  0.746200  1.0
  H  H706  1  0.882300  0.628500  0.849400  1.0
  H  H707  1  0.779100  0.032900  0.150600  1.0
  H  H708  1  0.032900  0.882300  0.253800  1.0
  H  H709  1  0.301200  0.330100  0.289700  1.0
  H  H710  1  0.011500  0.301200  0.971100  1.0
  H  H711  1  0.330100  0.040400  0.028900  1.0
  H  H712  1  0.040400  0.011500  0.710300  1.0
  H  H713  1  0.698800  0.669900  0.710300  1.0
  H  H714  1  0.988500  0.698800  0.028900  1.0
  H  H715  1  0.669900  0.959600  0.971100  1.0
  H  H716  1  0.959600  0.988500  0.289700  1.0
  H  H717  1  0.341600  0.639500  0.192900  1.0
  H  H718  1  0.148700  0.341600  0.702100  1.0
  H  H719  1  0.639500  0.446600  0.297900  1.0
  H  H720  1  0.446600  0.148700  0.807100  1.0
  H  H721  1  0.658400  0.360500  0.807100  1.0
  H  H722  1  0.851300  0.658400  0.297900  1.0
  H  H723  1  0.360500  0.553400  0.702100  1.0
  H  H724  1  0.553400  0.851300  0.192900  1.0
  H  H725  1  0.311500  0.775600  0.264300  1.0
  H  H726  1  0.047200  0.311500  0.535900  1.0
  H  H727  1  0.775600  0.511300  0.464100  1.0
  H  H728  1  0.511300  0.047200  0.735700  1.0
  H  H729  1  0.688500  0.224400  0.735700  1.0
  H  H730  1  0.952800  0.688500  0.464100  1.0
  H  H731  1  0.224400  0.488700  0.535900  1.0
  H  H732  1  0.488700  0.952800  0.264300  1.0
  H  H733  1  0.305700  0.658500  0.330600  1.0
  H  H734  1  0.975100  0.305700  0.647200  1.0
  H  H735  1  0.658500  0.327900  0.352800  1.0
  H  H736  1  0.327900  0.975100  0.669400  1.0
  H  H737  1  0.694300  0.341500  0.669400  1.0
  H  H738  1  0.024900  0.694300  0.352800  1.0
  H  H739  1  0.341500  0.672100  0.647200  1.0
  H  H740  1  0.672100  0.024900  0.330600  1.0
  H  H741  1  0.216700  0.396600  0.284300  1.0
  H  H742  1  0.932400  0.216700  0.820100  1.0
  H  H743  1  0.396600  0.112300  0.179900  1.0
  H  H744  1  0.112300  0.932400  0.715700  1.0
  H  H745  1  0.783300  0.603400  0.715700  1.0
  H  H746  1  0.067600  0.783300  0.179900  1.0
  H  H747  1  0.603400  0.887700  0.820100  1.0
  H  H748  1  0.887700  0.067600  0.284300  1.0
  H  H749  1  0.238600  0.500700  0.416900  1.0
  H  H750  1  0.821700  0.238600  0.737900  1.0
  H  H751  1  0.500700  0.083800  0.262100  1.0
  H  H752  1  0.083800  0.821700  0.583100  1.0
  H  H753  1  0.761400  0.499300  0.583100  1.0
  H  H754  1  0.178300  0.761400  0.262100  1.0
  H  H755  1  0.499300  0.916200  0.737900  1.0
  H  H756  1  0.916200  0.178300  0.416900  1.0
  H  H757  1  0.211800  0.449500  0.434100  1.0
  H  H758  1  0.777700  0.211800  0.762300  1.0
  H  H759  1  0.449500  0.015400  0.237700  1.0
  H  H760  1  0.015400  0.777700  0.565900  1.0
  H  H761  1  0.788200  0.550500  0.565900  1.0
  H  H762  1  0.222300  0.788200  0.237700  1.0
  H  H763  1  0.550500  0.984600  0.762300  1.0
  H  H764  1  0.984600  0.222300  0.434100  1.0
  H  H765  1  0.167500  0.466800  0.396700  1.0
  H  H766  1  0.770800  0.167500  0.700700  1.0
  H  H767  1  0.466800  0.070100  0.299300  1.0
  H  H768  1  0.070100  0.770800  0.603300  1.0
  H  H769  1  0.832500  0.533200  0.603300  1.0
  H  H770  1  0.229200  0.832500  0.299300  1.0
  H  H771  1  0.533200  0.929900  0.700700  1.0
  H  H772  1  0.929900  0.229200  0.396700  1.0
  H  H773  1  0.135600  0.324800  0.276600  1.0
  H  H774  1  0.859000  0.135600  0.810800  1.0
  H  H775  1  0.324800  0.048200  0.189200  1.0
  H  H776  1  0.048200  0.859000  0.723400  1.0
  H  H777  1  0.864400  0.675200  0.723400  1.0
  H  H778  1  0.141000  0.864400  0.189200  1.0
  H  H779  1  0.675200  0.951800  0.810800  1.0
  H  H780  1  0.951800  0.141000  0.276600  1.0
  H  H781  1  0.100000  0.351000  0.304400  1.0
  H  H782  1  0.795600  0.100000  0.749000  1.0
  H  H783  1  0.351000  0.046600  0.251000  1.0
  H  H784  1  0.046600  0.795600  0.695600  1.0
  H  H785  1  0.900000  0.649000  0.695600  1.0
  H  H786  1  0.204400  0.900000  0.251000  1.0
  H  H787  1  0.649000  0.953400  0.749000  1.0
  H  H788  1  0.953400  0.204400  0.304400  1.0
  H  H789  1  0.144200  0.333200  0.341200  1.0
  H  H790  1  0.803000  0.144200  0.811000  1.0
  H  H791  1  0.333200  0.992000  0.189000  1.0
  H  H792  1  0.992000  0.803000  0.658800  1.0
  H  H793  1  0.855800  0.666800  0.658800  1.0
  H  H794  1  0.197000  0.855800  0.189000  1.0
  H  H795  1  0.666800  0.008000  0.811000  1.0
  H  H796  1  0.008000  0.197000  0.341200  1.0
  H  H797  1  0.892600  0.779200  0.724000  1.0
  H  H798  1  0.168600  0.892600  0.113400  1.0
  H  H799  1  0.779200  0.055200  0.886600  1.0
  H  H800  1  0.055200  0.168600  0.276000  1.0
  H  H801  1  0.107400  0.220800  0.276000  1.0
  H  H802  1  0.831400  0.107400  0.886600  1.0
  H  H803  1  0.220800  0.944800  0.113400  1.0
  H  H804  1  0.944800  0.831400  0.724000  1.0
  H  H805  1  0.875600  0.883500  0.706900  1.0
  H  H806  1  0.168700  0.875600  0.992100  1.0
  H  H807  1  0.883500  0.176600  0.007900  1.0
  H  H808  1  0.176600  0.168700  0.293100  1.0
  H  H809  1  0.124400  0.116500  0.293100  1.0
  H  H810  1  0.831300  0.124400  0.007900  1.0
  H  H811  1  0.116500  0.823400  0.992100  1.0
  H  H812  1  0.823400  0.831300  0.706900  1.0
  N  N813  1  0.577910  0.021080  0.899490  1
  N  N814  1  0.678420  0.577910  0.556830  1
  N  N815  1  0.021080  0.121590  0.443170  1
  N  N816  1  0.121590  0.678420  0.100510  1
  N  N817  1  0.422090  0.978920  0.100510  1
  N  N818  1  0.321580  0.422090  0.443170  1
  N  N819  1  0.978920  0.878410  0.556830  1
  N  N820  1  0.878410  0.321580  0.899490  1
  N  N821  1  0.571630  0.938560  0.089410  1
  N  N822  1  0.482220  0.571630  0.633070  1
  N  N823  1  0.938560  0.849150  0.366930  1
  N  N824  1  0.849150  0.482220  0.910590  1
  N  N825  1  0.428370  0.061440  0.910590  1
  N  N826  1  0.517780  0.428370  0.366930  1
  N  N827  1  0.061440  0.150850  0.633070  1
  N  N828  1  0.150850  0.517780  0.089410  1
  N  N829  1  0.333600  0.798500  0.701900  1
  N  N830  1  0.631700  0.333600  0.535100  1
  N  N831  1  0.798500  0.096600  0.464900  1
  N  N832  1  0.096600  0.631700  0.298100  1
  N  N833  1  0.666400  0.201500  0.298100  1
  N  N834  1  0.368300  0.666400  0.464900  1
  N  N835  1  0.201500  0.903400  0.535100  1
  N  N836  1  0.903400  0.368300  0.701900  1
  N  N837  1  0.142700  0.517200  0.307300  1
  N  N838  1  0.835400  0.142700  0.625500  1
  N  N839  1  0.517200  0.209900  0.374500  1
  N  N840  1  0.209900  0.835400  0.692700  1
  N  N841  1  0.857300  0.482800  0.692700  1
  N  N842  1  0.164600  0.857300  0.374500  1
  N  N843  1  0.482800  0.790100  0.625500  1
  N  N844  1  0.790100  0.164600  0.307300  1
  N  N845  1  0.337900  0.947100  0.322000  1
  N  N846  1  0.015900  0.337900  0.390800  1
  N  N847  1  0.947100  0.625100  0.609200  1
  N  N848  1  0.625100  0.015900  0.678000  1
  N  N849  1  0.662100  0.052900  0.678000  1
  N  N850  1  0.984100  0.662100  0.609200  1
  N  N851  1  0.052900  0.374900  0.390800  1
  N  N852  1  0.374900  0.984100  0.322000  1
  N  N853  1  0.377300  0.939700  0.486600  1
  N  N854  1  0.890700  0.377300  0.437600  1
  N  N855  1  0.939700  0.453100  0.562400  1
  N  N856  1  0.453100  0.890700  0.513400  1
  N  N857  1  0.622700  0.060300  0.513400  1
  N  N858  1  0.109300  0.622700  0.562400  1
  N  N859  1  0.060300  0.546900  0.437600  1
  N  N860  1  0.546900  0.109300  0.486600  1
  N  N861  1  0.859200  0.800300  0.659500  1.0
  N  N862  1  0.199700  0.859200  0.058900  1.0
  N  N863  1  0.800300  0.140800  0.941100  1.0
  N  N864  1  0.140800  0.199700  0.340500  1.0
  N  N865  1  0.577260  0.669340  0.566260  1.0
  N  N866  1  0.011000  0.577260  0.907920  1.0
  N  N867  1  0.669340  0.103080  0.092080  1.0
  N  N868  1  0.103080  0.011000  0.433740  1.0
  N  N869  1  0.422740  0.330660  0.433740  1.0
  N  N870  1  0.989000  0.422740  0.092080  1.0
  N  N871  1  0.330660  0.896920  0.907920  1.0
  N  N872  1  0.896920  0.989000  0.566260  1.0
  N  N873  1  0.305640  0.239890  0.302290  1.0
  N  N874  1  0.003350  0.305640  0.065750  1.0
  N  N875  1  0.239890  0.937600  0.934250  1.0
  N  N876  1  0.937600  0.003350  0.697710  1.0
  N  N877  1  0.694360  0.760110  0.697710  1.0
  N  N878  1  0.996650  0.694360  0.934250  1.0
  N  N879  1  0.760110  0.062400  0.065750  1.0
  N  N880  1  0.062400  0.996650  0.302290  1.0
  N  N881  1  0.292700  0.753690  0.347790  1.0
  N  N882  1  0.944910  0.292700  0.539010  1.0
  N  N883  1  0.753690  0.405900  0.460990  1.0
  N  N884  1  0.405900  0.944910  0.652210  1.0
  N  N885  1  0.707300  0.246310  0.652210  1.0
  N  N886  1  0.055090  0.707300  0.460990  1.0
  N  N887  1  0.246310  0.594100  0.539010  1.0
  N  N888  1  0.594100  0.055090  0.347790  1.0
  N  N889  1  0.189700  0.412800  0.344100  1.0
  N  N890  1  0.845600  0.189700  0.776900  1.0
  N  N891  1  0.412800  0.068700  0.223100  1.0
  N  N892  1  0.068700  0.845600  0.655900  1.0
  N  N893  1  0.810300  0.587200  0.655900  1.0
  N  N894  1  0.154400  0.810300  0.223100  1.0
  N  N895  1  0.587200  0.931300  0.776900  1.0
  N  N896  1  0.931300  0.154400  0.344100  1.0
  O  O897  1  0.676310  0.039080  0.939290  1
  O  O898  1  0.737020  0.676310  0.637230  1
  O  O899  1  0.039080  0.099790  0.362770  1
  O  O900  1  0.099790  0.737020  0.060710  1
  O  O901  1  0.323690  0.960920  0.060710  1
  O  O902  1  0.262980  0.323690  0.362770  1
  O  O903  1  0.960920  0.900210  0.637230  1
  O  O904  1  0.900210  0.262980  0.939290  1
  O  O905  1  0.632430  0.040350  0.155960  1
  O  O906  1  0.476470  0.632430  0.592080  1
  O  O907  1  0.040350  0.884390  0.407920  1
  O  O908  1  0.884390  0.476470  0.844040  1
  O  O909  1  0.367570  0.959650  0.844040  1
  O  O910  1  0.523530  0.367570  0.407920  1
  O  O911  1  0.959650  0.115610  0.592080  1
  O  O912  1  0.115610  0.523530  0.155960  1
  O  O913  1  0.275000  0.724700  0.599900  1
  O  O914  1  0.675100  0.275000  0.550300  1
  O  O915  1  0.724700  0.124800  0.449700  1
  O  O916  1  0.124800  0.675100  0.400100  1
  O  O917  1  0.725000  0.275300  0.400100  1
  O  O918  1  0.324900  0.725000  0.449700  1
  O  O919  1  0.275300  0.875200  0.550300  1
  O  O920  1  0.875200  0.324900  0.599900  1
  O  O921  1  0.530700  0.485400  0.200100  1
  O  O922  1  0.330600  0.530700  0.045300  1
  O  O923  1  0.485400  0.285300  0.954700  1
  O  O924  1  0.285300  0.330600  0.799900  1
  O  O925  1  0.469300  0.514600  0.799900  1
  O  O926  1  0.669400  0.469300  0.954700  1
  O  O927  1  0.514600  0.714700  0.045300  1
  O  O928  1  0.714700  0.669400  0.200100  1
  O  O929  1  0.061600  0.461100  0.308100  1
  O  O930  1  0.753500  0.061600  0.600500  1
  O  O931  1  0.461100  0.153000  0.399500  1
  O  O932  1  0.153000  0.753500  0.691900  1
  O  O933  1  0.938400  0.538900  0.691900  1
  O  O934  1  0.246500  0.938400  0.399500  1
  O  O935  1  0.538900  0.847000  0.600500  1
  O  O936  1  0.847000  0.246500  0.308100  1
  O  O937  1  0.346600  0.883500  0.375300  1
  O  O938  1  0.971300  0.346600  0.463100  1
  O  O939  1  0.883500  0.508200  0.536900  1
  O  O940  1  0.508200  0.971300  0.624700  1
  O  O941  1  0.653400  0.116500  0.624700  1
  O  O942  1  0.028700  0.653400  0.536900  1
  O  O943  1  0.116500  0.491800  0.463100  1
  O  O944  1  0.491800  0.028700  0.375300  1
  O  O945  1  0.848000  0.721200  0.569200  1.0
  O  O946  1  0.278800  0.848000  0.126800  1.0
  O  O947  1  0.721200  0.152000  0.873200  1.0
  O  O948  1  0.152000  0.278800  0.430800  1.0
  O  O949  1  0.662130  0.600400  0.262530  1.0
  O  O950  1  0.399600  0.662130  0.061730  1.0
  O  O951  1  0.600400  0.337870  0.938270  1.0
  O  O952  1  0.337870  0.399600  0.737470  1.0
  O  O953  1  0.395930  0.539740  0.355370  1.0
  O  O954  1  0.040560  0.395930  0.856190  1.0
  O  O955  1  0.539740  0.184370  0.143810  1.0
  O  O956  1  0.184370  0.040560  0.644630  1.0
  O  O957  1  0.604070  0.460260  0.644630  1.0
  O  O958  1  0.959440  0.604070  0.143810  1.0
  O  O959  1  0.460260  0.815630  0.856190  1.0
  O  O960  1  0.815630  0.959440  0.355370  1.0
  O  O961  1  0.436650  0.548690  0.295760  1.0
  O  O962  1  0.140890  0.436650  0.887960  1.0
  O  O963  1  0.548690  0.252930  0.112040  1.0
  O  O964  1  0.252930  0.140890  0.704240  1.0
  O  O965  1  0.563350  0.451310  0.704240  1.0
  O  O966  1  0.859110  0.563350  0.112040  1.0
  O  O967  1  0.451310  0.747070  0.887960  1.0
  O  O968  1  0.747070  0.859110  0.295760  1.0
  O  O969  1  0.716800  0.669430  0.477290  1.0
  O  O970  1  0.239510  0.716800  0.047370  1.0
  O  O971  1  0.669430  0.192140  0.952630  1.0
  O  O972  1  0.192140  0.239510  0.522710  1.0
  O  O973  1  0.283200  0.330570  0.522710  1.0
  O  O974  1  0.760490  0.283200  0.952630  1.0
  O  O975  1  0.330570  0.807860  0.047370  1.0
  O  O976  1  0.807860  0.760490  0.477290  1.0
  O  O977  1  0.655870  0.631890  0.378280  1.0
  O  O978  1  0.277590  0.655870  0.023980  1.0
  O  O979  1  0.631890  0.253610  0.976020  1.0
  O  O980  1  0.253610  0.277590  0.621720  1.0
  O  O981  1  0.344130  0.368110  0.621720  1.0
  O  O982  1  0.722410  0.344130  0.976020  1.0
  O  O983  1  0.368110  0.746390  0.023980  1.0
  O  O984  1  0.746390  0.722410  0.378280  1.0
  O  O985  1  0.314900  0.416590  0.272730  1.0
  O  O986  1  0.042170  0.314900  0.898310  1.0
  O  O987  1  0.416590  0.143860  0.101690  1.0
  O  O988  1  0.143860  0.042170  0.727270  1.0
  O  O989  1  0.685100  0.583410  0.727270  1.0
  O  O990  1  0.957830  0.685100  0.101690  1.0
  O  O991  1  0.583410  0.856140  0.898310  1.0
  O  O992  1  0.856140  0.957830  0.272730  1.0
  O  O993  1  0.363390  0.424820  0.219870  1.0
  O  O994  1  0.143520  0.363390  0.938570  1.0
  O  O995  1  0.424820  0.204950  0.061430  1.0
  O  O996  1  0.204950  0.143520  0.780130  1.0
  O  O997  1  0.636610  0.575180  0.780130  1.0
  O  O998  1  0.856480  0.636610  0.061430  1.0
  O  O999  1  0.575180  0.795050  0.938570  1.0
  O  O1000  1  0.795050  0.856480  0.219870  1.0
  O  O1001  1  0.231360  0.443160  0.213260  1.0
  O  O1002  1  0.018100  0.231360  0.788200  1.0
  O  O1003  1  0.443160  0.229900  0.211800  1.0
  O  O1004  1  0.229900  0.018100  0.786740  1.0
  O  O1005  1  0.768640  0.556840  0.786740  1.0
  O  O1006  1  0.981900  0.768640  0.211800  1.0
  O  O1007  1  0.556840  0.770100  0.788200  1.0
  O  O1008  1  0.770100  0.981900  0.213260  1.0
  O  O1009  1  0.273500  0.441800  0.153820  1.0
  O  O1010  1  0.119680  0.273500  0.831700  1.0
  O  O1011  1  0.441800  0.287980  0.168300  1.0
  O  O1012  1  0.287980  0.119680  0.846180  1.0
  O  O1013  1  0.726500  0.558200  0.846180  1.0
  O  O1014  1  0.880320  0.726500  0.168300  1.0
  O  O1015  1  0.558200  0.712020  0.831700  1.0
  O  O1016  1  0.712020  0.880320  0.153820  1.0
  O  O1017  1  0.314820  0.567150  0.292330  1.0
  O  O1018  1  0.022490  0.314820  0.747670  1.0
  O  O1019  1  0.567150  0.274820  0.252330  1.0
  O  O1020  1  0.274820  0.022490  0.707670  1.0
  O  O1021  1  0.685180  0.432850  0.707670  1.0
  O  O1022  1  0.977510  0.685180  0.252330  1.0
  O  O1023  1  0.432850  0.725180  0.747670  1.0
  O  O1024  1  0.725180  0.977510  0.292330  1.0
  O  O1025  1  0.348210  0.565370  0.226560  1.0
  O  O1026  1  0.121650  0.348210  0.782840  1.0
  O  O1027  1  0.565370  0.338810  0.217160  1.0
  O  O1028  1  0.338810  0.121650  0.773440  1.0
  O  O1029  1  0.651790  0.434630  0.773440  1.0
  O  O1030  1  0.878350  0.651790  0.217160  1.0
  O  O1031  1  0.434630  0.661190  0.782840  1.0
  O  O1032  1  0.661190  0.878350  0.226560  1.0
  O  O1033  1  0.765140  0.594700  0.449500  1.0
  O  O1034  1  0.315640  0.765140  0.170440  1.0
  O  O1035  1  0.594700  0.145200  0.829560  1.0
  O  O1036  1  0.145200  0.315640  0.550500  1.0
  O  O1037  1  0.234860  0.405300  0.550500  1.0
  O  O1038  1  0.684360  0.234860  0.829560  1.0
  O  O1039  1  0.405300  0.854800  0.170440  1.0
  O  O1040  1  0.854800  0.684360  0.449500  1.0
  O  O1041  1  0.703220  0.558360  0.351880  1.0
  O  O1042  1  0.351340  0.703220  0.144860  1.0
  O  O1043  1  0.558360  0.206480  0.855140  1.0
  O  O1044  1  0.206480  0.351340  0.648120  1.0
  O  O1045  1  0.296780  0.441640  0.648120  1.0
  O  O1046  1  0.648660  0.296780  0.855140  1.0
  O  O1047  1  0.441640  0.793520  0.144860  1.0
  O  O1048  1  0.793520  0.648660  0.351880  1.0
  O  O1049  1  0.268940  0.481590  0.343030  1.0
  O  O1050  1  0.925910  0.268940  0.787350  1.0
  O  O1051  1  0.481590  0.138560  0.212650  1.0
  O  O1052  1  0.138560  0.925910  0.656970  1.0
  O  O1053  1  0.731060  0.518410  0.656970  1.0
  O  O1054  1  0.074090  0.731060  0.212650  1.0
  O  O1055  1  0.518410  0.861440  0.787350  1.0
  O  O1056  1  0.861440  0.074090  0.343030  1.0
  O  O1057  1  0.396810  0.499060  0.160250  1.0
  O  O1058  1  0.236560  0.396810  0.897750  1.0
  O  O1059  1  0.499060  0.338810  0.102250  1.0
  O  O1060  1  0.338810  0.236560  0.839750  1.0
  O  O1061  1  0.603190  0.500940  0.839750  1.0
  O  O1062  1  0.763440  0.603190  0.102250  1.0
  O  O1063  1  0.500940  0.661190  0.897750  1.0
  O  O1064  1  0.661190  0.763440  0.160250  1.0
