# generated using pymatgen
data_Cu12H132(C13O7)13
_symmetry_space_group_name_H-M   'P 1'
_cell_length_a   28.93500000
_cell_length_b   39.94000000
_cell_length_c   40.65400000
_cell_angle_alpha   90.00000000
_cell_angle_beta   90.00000000
_cell_angle_gamma   90.00000000
_symmetry_Int_Tables_number   1
_chemical_formula_structural   Cu12H132(C13O7)13
_chemical_formula_sum   'Cu96 H1056 C1352 O728'
_cell_volume   46982.36019060
_cell_formula_units_Z   8
loop_
 _symmetry_equiv_pos_site_id
 _symmetry_equiv_pos_as_xyz
  1  'x, y, z'
loop_
 _atom_site_type_symbol
 _atom_site_label
 _atom_site_symmetry_multiplicity
 _atom_site_fract_x
 _atom_site_fract_y
 _atom_site_fract_z
 _atom_site_occupancy
  Cu  Cu1  1  0.204760  0.781620  0.500000  1.0
  Cu  Cu2  1  0.204760  0.281620  0.000000  1.0
  Cu  Cu3  1  0.704760  0.718380  0.500000  1.0
  Cu  Cu4  1  0.795240  0.218380  0.500000  1.0
  Cu  Cu5  1  0.295240  0.281620  0.500000  1.0
  Cu  Cu6  1  0.704760  0.218380  0.000000  1.0
  Cu  Cu7  1  0.795240  0.718380  0.000000  1.0
  Cu  Cu8  1  0.295240  0.781620  0.000000  1.0
  Cu  Cu9  1  0.693450  0.850930  0.500000  1.0
  Cu  Cu10  1  0.693450  0.350930  0.000000  1.0
  Cu  Cu11  1  0.193450  0.649070  0.500000  1.0
  Cu  Cu12  1  0.306550  0.149070  0.500000  1.0
  Cu  Cu13  1  0.806550  0.350930  0.500000  1.0
  Cu  Cu14  1  0.193450  0.149070  0.000000  1.0
  Cu  Cu15  1  0.306550  0.649070  0.000000  1.0
  Cu  Cu16  1  0.806550  0.850930  0.000000  1.0
  Cu  Cu17  1  0.151740  0.834720  0.500000  1.0
  Cu  Cu18  1  0.151740  0.334720  0.000000  1.0
  Cu  Cu19  1  0.651740  0.665280  0.500000  1.0
  Cu  Cu20  1  0.848260  0.165280  0.500000  1.0
  Cu  Cu21  1  0.348260  0.334720  0.500000  1.0
  Cu  Cu22  1  0.651740  0.165280  0.000000  1.0
  Cu  Cu23  1  0.848260  0.665280  0.000000  1.0
  Cu  Cu24  1  0.348260  0.834720  0.000000  1.0
  Cu  Cu25  1  0.770290  0.886550  0.500000  1.0
  Cu  Cu26  1  0.770290  0.386550  0.000000  1.0
  Cu  Cu27  1  0.270290  0.613450  0.500000  1.0
  Cu  Cu28  1  0.229710  0.113450  0.500000  1.0
  Cu  Cu29  1  0.729710  0.386550  0.500000  1.0
  Cu  Cu30  1  0.270290  0.113450  0.000000  1.0
  Cu  Cu31  1  0.229710  0.613450  0.000000  1.0
  Cu  Cu32  1  0.729710  0.886550  0.000000  1.0
  Cu  Cu33  1  0.951270  0.812700  0.314980  1.0
  Cu  Cu34  1  0.951270  0.312700  0.814980  1.0
  Cu  Cu35  1  0.451270  0.687300  0.685020  1.0
  Cu  Cu36  1  0.048730  0.187300  0.314980  1.0
  Cu  Cu37  1  0.548730  0.312700  0.685020  1.0
  Cu  Cu38  1  0.451270  0.187300  0.185020  1.0
  Cu  Cu39  1  0.048730  0.687300  0.814980  1.0
  Cu  Cu40  1  0.548730  0.812700  0.185020  1.0
  Cu  Cu41  1  0.048730  0.187300  0.685020  1.0
  Cu  Cu42  1  0.048730  0.687300  0.185020  1.0
  Cu  Cu43  1  0.548730  0.312700  0.314980  1.0
  Cu  Cu44  1  0.951270  0.812700  0.685020  1.0
  Cu  Cu45  1  0.451270  0.687300  0.314980  1.0
  Cu  Cu46  1  0.548730  0.812700  0.814980  1.0
  Cu  Cu47  1  0.951270  0.312700  0.185020  1.0
  Cu  Cu48  1  0.451270  0.187300  0.814980  1.0
  Cu  Cu49  1  0.251900  0.966610  0.313000  1.0
  Cu  Cu50  1  0.251900  0.466610  0.813000  1.0
  Cu  Cu51  1  0.751900  0.533390  0.687000  1.0
  Cu  Cu52  1  0.748100  0.033390  0.313000  1.0
  Cu  Cu53  1  0.248100  0.466610  0.687000  1.0
  Cu  Cu54  1  0.751900  0.033390  0.187000  1.0
  Cu  Cu55  1  0.748100  0.533390  0.813000  1.0
  Cu  Cu56  1  0.248100  0.966610  0.187000  1.0
  Cu  Cu57  1  0.748100  0.033390  0.687000  1.0
  Cu  Cu58  1  0.748100  0.533390  0.187000  1.0
  Cu  Cu59  1  0.248100  0.466610  0.313000  1.0
  Cu  Cu60  1  0.251900  0.966610  0.687000  1.0
  Cu  Cu61  1  0.751900  0.533390  0.313000  1.0
  Cu  Cu62  1  0.248100  0.966610  0.813000  1.0
  Cu  Cu63  1  0.251900  0.466610  0.187000  1.0
  Cu  Cu64  1  0.751900  0.033390  0.813000  1.0
  Cu  Cu65  1  0.187820  0.975270  0.358270  1.0
  Cu  Cu66  1  0.187820  0.475270  0.858270  1.0
  Cu  Cu67  1  0.687820  0.524730  0.641730  1.0
  Cu  Cu68  1  0.812180  0.024730  0.358270  1.0
  Cu  Cu69  1  0.312180  0.475270  0.641730  1.0
  Cu  Cu70  1  0.687820  0.024730  0.141730  1.0
  Cu  Cu71  1  0.812180  0.524730  0.858270  1.0
  Cu  Cu72  1  0.312180  0.975270  0.141730  1.0
  Cu  Cu73  1  0.812180  0.024730  0.641730  1.0
  Cu  Cu74  1  0.812180  0.524730  0.141730  1.0
  Cu  Cu75  1  0.312180  0.475270  0.358270  1.0
  Cu  Cu76  1  0.187820  0.975270  0.641730  1.0
  Cu  Cu77  1  0.687820  0.524730  0.358270  1.0
  Cu  Cu78  1  0.312180  0.975270  0.858270  1.0
  Cu  Cu79  1  0.187820  0.475270  0.141730  1.0
  Cu  Cu80  1  0.687820  0.024730  0.858270  1.0
  Cu  Cu81  1  0.963360  0.858780  0.360420  1.0
  Cu  Cu82  1  0.963360  0.358780  0.860420  1.0
  Cu  Cu83  1  0.463360  0.641220  0.639580  1.0
  Cu  Cu84  1  0.036640  0.141220  0.360420  1.0
  Cu  Cu85  1  0.536640  0.358780  0.639580  1.0
  Cu  Cu86  1  0.463360  0.141220  0.139580  1.0
  Cu  Cu87  1  0.036640  0.641220  0.860420  1.0
  Cu  Cu88  1  0.536640  0.858780  0.139580  1.0
  Cu  Cu89  1  0.036640  0.141220  0.639580  1.0
  Cu  Cu90  1  0.036640  0.641220  0.139580  1.0
  Cu  Cu91  1  0.536640  0.358780  0.360420  1.0
  Cu  Cu92  1  0.963360  0.858780  0.639580  1.0
  Cu  Cu93  1  0.463360  0.641220  0.360420  1.0
  Cu  Cu94  1  0.536640  0.858780  0.860420  1.0
  Cu  Cu95  1  0.963360  0.358780  0.139580  1.0
  Cu  Cu96  1  0.463360  0.141220  0.860420  1.0
  H  H97  1  0.325500  0.778400  0.479500  1
  H  H98  1  0.325500  0.278400  0.979500  1
  H  H99  1  0.825500  0.721600  0.520500  1
  H  H100  1  0.674500  0.221600  0.479500  1
  H  H101  1  0.174500  0.278400  0.520500  1
  H  H102  1  0.825500  0.221600  0.020500  1
  H  H103  1  0.674500  0.721600  0.979500  1
  H  H104  1  0.174500  0.778400  0.020500  1
  H  H105  1  0.674500  0.221600  0.520500  1
  H  H106  1  0.674500  0.721600  0.020500  1
  H  H107  1  0.174500  0.278400  0.479500  1
  H  H108  1  0.325500  0.778400  0.520500  1
  H  H109  1  0.825500  0.721600  0.479500  1
  H  H110  1  0.174500  0.778400  0.979500  1
  H  H111  1  0.325500  0.278400  0.020500  1
  H  H112  1  0.825500  0.221600  0.979500  1
  H  H113  1  0.359400  0.759100  0.502800  1
  H  H114  1  0.359400  0.259100  0.002800  1
  H  H115  1  0.859400  0.740900  0.497200  1
  H  H116  1  0.640600  0.240900  0.502800  1
  H  H117  1  0.140600  0.259100  0.497200  1
  H  H118  1  0.859400  0.240900  0.997200  1
  H  H119  1  0.640600  0.740900  0.002800  1
  H  H120  1  0.140600  0.759100  0.997200  1
  H  H121  1  0.640600  0.240900  0.497200  1
  H  H122  1  0.640600  0.740900  0.997200  1
  H  H123  1  0.140600  0.259100  0.502800  1
  H  H124  1  0.359400  0.759100  0.497200  1
  H  H125  1  0.859400  0.740900  0.502800  1
  H  H126  1  0.140600  0.759100  0.002800  1
  H  H127  1  0.359400  0.259100  0.997200  1
  H  H128  1  0.859400  0.240900  0.002800  1
  H  H129  1  0.320100  0.781400  0.517700  1
  H  H130  1  0.320100  0.281400  0.017700  1
  H  H131  1  0.820100  0.718600  0.482300  1
  H  H132  1  0.679900  0.218600  0.517700  1
  H  H133  1  0.179900  0.281400  0.482300  1
  H  H134  1  0.820100  0.218600  0.982300  1
  H  H135  1  0.679900  0.718600  0.017700  1
  H  H136  1  0.179900  0.781400  0.982300  1
  H  H137  1  0.679900  0.218600  0.482300  1
  H  H138  1  0.679900  0.718600  0.982300  1
  H  H139  1  0.179900  0.281400  0.517700  1
  H  H140  1  0.320100  0.781400  0.482300  1
  H  H141  1  0.820100  0.718600  0.517700  1
  H  H142  1  0.179900  0.781400  0.017700  1
  H  H143  1  0.320100  0.281400  0.982300  1
  H  H144  1  0.820100  0.218600  0.017700  1
  H  H145  1  0.646100  0.007200  0.282900  1
  H  H146  1  0.646100  0.507200  0.782900  1
  H  H147  1  0.146100  0.492800  0.717100  1
  H  H148  1  0.353900  0.992800  0.282900  1
  H  H149  1  0.853900  0.507200  0.717100  1
  H  H150  1  0.146100  0.992800  0.217100  1
  H  H151  1  0.353900  0.492800  0.782900  1
  H  H152  1  0.853900  0.007200  0.217100  1
  H  H153  1  0.353900  0.992800  0.717100  1
  H  H154  1  0.353900  0.492800  0.217100  1
  H  H155  1  0.853900  0.507200  0.282900  1
  H  H156  1  0.646100  0.007200  0.717100  1
  H  H157  1  0.146100  0.492800  0.282900  1
  H  H158  1  0.853900  0.007200  0.782900  1
  H  H159  1  0.646100  0.507200  0.217100  1
  H  H160  1  0.146100  0.992800  0.782900  1
  H  H161  1  0.633300  0.035900  0.258300  1
  H  H162  1  0.633300  0.535900  0.758300  1
  H  H163  1  0.133300  0.464100  0.741700  1
  H  H164  1  0.366700  0.964100  0.258300  1
  H  H165  1  0.866700  0.535900  0.741700  1
  H  H166  1  0.133300  0.964100  0.241700  1
  H  H167  1  0.366700  0.464100  0.758300  1
  H  H168  1  0.866700  0.035900  0.241700  1
  H  H169  1  0.366700  0.964100  0.741700  1
  H  H170  1  0.366700  0.464100  0.241700  1
  H  H171  1  0.866700  0.535900  0.258300  1
  H  H172  1  0.633300  0.035900  0.741700  1
  H  H173  1  0.133300  0.464100  0.258300  1
  H  H174  1  0.866700  0.035900  0.758300  1
  H  H175  1  0.633300  0.535900  0.241700  1
  H  H176  1  0.133300  0.964100  0.758300  1
  H  H177  1  0.646200  0.061400  0.318200  1
  H  H178  1  0.646200  0.561400  0.818200  1
  H  H179  1  0.146200  0.438600  0.681800  1
  H  H180  1  0.353800  0.938600  0.318200  1
  H  H181  1  0.853800  0.561400  0.681800  1
  H  H182  1  0.146200  0.938600  0.181800  1
  H  H183  1  0.353800  0.438600  0.818200  1
  H  H184  1  0.853800  0.061400  0.181800  1
  H  H185  1  0.353800  0.938600  0.681800  1
  H  H186  1  0.353800  0.438600  0.181800  1
  H  H187  1  0.853800  0.561400  0.318200  1
  H  H188  1  0.646200  0.061400  0.681800  1
  H  H189  1  0.146200  0.438600  0.318200  1
  H  H190  1  0.853800  0.061400  0.818200  1
  H  H191  1  0.646200  0.561400  0.181800  1
  H  H192  1  0.146200  0.938600  0.818200  1
  H  H193  1  0.608900  0.033000  0.319300  1
  H  H194  1  0.608900  0.533000  0.819300  1
  H  H195  1  0.108900  0.467000  0.680700  1
  H  H196  1  0.391100  0.967000  0.319300  1
  H  H197  1  0.891100  0.533000  0.680700  1
  H  H198  1  0.108900  0.967000  0.180700  1
  H  H199  1  0.391100  0.467000  0.819300  1
  H  H200  1  0.891100  0.033000  0.180700  1
  H  H201  1  0.391100  0.967000  0.680700  1
  H  H202  1  0.391100  0.467000  0.180700  1
  H  H203  1  0.891100  0.533000  0.319300  1
  H  H204  1  0.608900  0.033000  0.680700  1
  H  H205  1  0.108900  0.467000  0.319300  1
  H  H206  1  0.891100  0.033000  0.819300  1
  H  H207  1  0.608900  0.533000  0.180700  1
  H  H208  1  0.108900  0.967000  0.819300  1
  H  H209  1  0.602000  0.063900  0.296000  1
  H  H210  1  0.602000  0.563900  0.796000  1
  H  H211  1  0.102000  0.436100  0.704000  1
  H  H212  1  0.398000  0.936100  0.296000  1
  H  H213  1  0.898000  0.563900  0.704000  1
  H  H214  1  0.102000  0.936100  0.204000  1
  H  H215  1  0.398000  0.436100  0.796000  1
  H  H216  1  0.898000  0.063900  0.204000  1
  H  H217  1  0.398000  0.936100  0.704000  1
  H  H218  1  0.398000  0.436100  0.204000  1
  H  H219  1  0.898000  0.563900  0.296000  1
  H  H220  1  0.602000  0.063900  0.704000  1
  H  H221  1  0.102000  0.436100  0.296000  1
  H  H222  1  0.898000  0.063900  0.796000  1
  H  H223  1  0.602000  0.563900  0.204000  1
  H  H224  1  0.102000  0.936100  0.796000  1
  H  H225  1  0.525600  0.796600  0.511300  1
  H  H226  1  0.525600  0.296600  0.011300  1
  H  H227  1  0.025600  0.703400  0.488700  1
  H  H228  1  0.474400  0.203400  0.511300  1
  H  H229  1  0.974400  0.296600  0.488700  1
  H  H230  1  0.025600  0.203400  0.988700  1
  H  H231  1  0.474400  0.703400  0.011300  1
  H  H232  1  0.974400  0.796600  0.988700  1
  H  H233  1  0.474400  0.203400  0.488700  1
  H  H234  1  0.474400  0.703400  0.988700  1
  H  H235  1  0.974400  0.296600  0.511300  1
  H  H236  1  0.525600  0.796600  0.488700  1
  H  H237  1  0.025600  0.703400  0.511300  1
  H  H238  1  0.974400  0.796600  0.011300  1
  H  H239  1  0.525600  0.296600  0.988700  1
  H  H240  1  0.025600  0.203400  0.011300  1
  H  H241  1  0.535800  0.814500  0.477700  1
  H  H242  1  0.535800  0.314500  0.977700  1
  H  H243  1  0.035800  0.685500  0.522300  1
  H  H244  1  0.464200  0.185500  0.477700  1
  H  H245  1  0.964200  0.314500  0.522300  1
  H  H246  1  0.035800  0.185500  0.022300  1
  H  H247  1  0.464200  0.685500  0.977700  1
  H  H248  1  0.964200  0.814500  0.022300  1
  H  H249  1  0.464200  0.185500  0.522300  1
  H  H250  1  0.464200  0.685500  0.022300  1
  H  H251  1  0.964200  0.314500  0.477700  1
  H  H252  1  0.535800  0.814500  0.522300  1
  H  H253  1  0.035800  0.685500  0.477700  1
  H  H254  1  0.964200  0.814500  0.977700  1
  H  H255  1  0.535800  0.314500  0.022300  1
  H  H256  1  0.035800  0.185500  0.977700  1
  H  H257  1  0.546200  0.832900  0.511000  1
  H  H258  1  0.546200  0.332900  0.011000  1
  H  H259  1  0.046200  0.667100  0.489000  1
  H  H260  1  0.453800  0.167100  0.511000  1
  H  H261  1  0.953800  0.332900  0.489000  1
  H  H262  1  0.046200  0.167100  0.989000  1
  H  H263  1  0.453800  0.667100  0.011000  1
  H  H264  1  0.953800  0.832900  0.989000  1
  H  H265  1  0.453800  0.167100  0.489000  1
  H  H266  1  0.453800  0.667100  0.989000  1
  H  H267  1  0.953800  0.332900  0.511000  1
  H  H268  1  0.546200  0.832900  0.489000  1
  H  H269  1  0.046200  0.667100  0.511000  1
  H  H270  1  0.953800  0.832900  0.011000  1
  H  H271  1  0.546200  0.332900  0.989000  1
  H  H272  1  0.046200  0.167100  0.011000  1
  H  H273  1  0.598300  0.782600  0.519200  1.0
  H  H274  1  0.598300  0.282600  0.019200  1.0
  H  H275  1  0.098300  0.717400  0.480800  1.0
  H  H276  1  0.401700  0.217400  0.519200  1.0
  H  H277  1  0.901700  0.282600  0.480800  1.0
  H  H278  1  0.098300  0.217400  0.980800  1.0
  H  H279  1  0.401700  0.717400  0.019200  1.0
  H  H280  1  0.901700  0.782600  0.980800  1.0
  H  H281  1  0.401700  0.217400  0.480800  1.0
  H  H282  1  0.401700  0.717400  0.980800  1.0
  H  H283  1  0.901700  0.282600  0.519200  1.0
  H  H284  1  0.598300  0.782600  0.480800  1.0
  H  H285  1  0.098300  0.717400  0.519200  1.0
  H  H286  1  0.901700  0.782600  0.019200  1.0
  H  H287  1  0.598300  0.282600  0.980800  1.0
  H  H288  1  0.098300  0.217400  0.019200  1.0
  H  H289  1  0.089800  0.902900  0.322700  1.0
  H  H290  1  0.089800  0.402900  0.822700  1.0
  H  H291  1  0.589800  0.597100  0.677300  1.0
  H  H292  1  0.910200  0.097100  0.322700  1.0
  H  H293  1  0.410200  0.402900  0.677300  1.0
  H  H294  1  0.589800  0.097100  0.177300  1.0
  H  H295  1  0.910200  0.597100  0.822700  1.0
  H  H296  1  0.410200  0.902900  0.177300  1.0
  H  H297  1  0.910200  0.097100  0.677300  1.0
  H  H298  1  0.910200  0.597100  0.177300  1.0
  H  H299  1  0.410200  0.402900  0.322700  1.0
  H  H300  1  0.089800  0.902900  0.677300  1.0
  H  H301  1  0.589800  0.597100  0.322700  1.0
  H  H302  1  0.410200  0.902900  0.822700  1.0
  H  H303  1  0.089800  0.402900  0.177300  1.0
  H  H304  1  0.589800  0.097100  0.822700  1.0
  H  H305  1  0.061900  0.807100  0.420700  1.0
  H  H306  1  0.061900  0.307100  0.920700  1.0
  H  H307  1  0.561900  0.692900  0.579300  1.0
  H  H308  1  0.938100  0.192900  0.420700  1.0
  H  H309  1  0.438100  0.307100  0.579300  1.0
  H  H310  1  0.561900  0.192900  0.079300  1.0
  H  H311  1  0.938100  0.692900  0.920700  1.0
  H  H312  1  0.438100  0.807100  0.079300  1.0
  H  H313  1  0.938100  0.192900  0.579300  1.0
  H  H314  1  0.938100  0.692900  0.079300  1.0
  H  H315  1  0.438100  0.307100  0.420700  1.0
  H  H316  1  0.061900  0.807100  0.579300  1.0
  H  H317  1  0.561900  0.692900  0.420700  1.0
  H  H318  1  0.438100  0.807100  0.920700  1.0
  H  H319  1  0.061900  0.307100  0.079300  1.0
  H  H320  1  0.561900  0.192900  0.920700  1.0
  H  H321  1  0.216800  0.891200  0.419000  1.0
  H  H322  1  0.216800  0.391200  0.919000  1.0
  H  H323  1  0.716800  0.608800  0.581000  1.0
  H  H324  1  0.783200  0.108800  0.419000  1.0
  H  H325  1  0.283200  0.391200  0.581000  1.0
  H  H326  1  0.716800  0.108800  0.081000  1.0
  H  H327  1  0.783200  0.608800  0.919000  1.0
  H  H328  1  0.283200  0.891200  0.081000  1.0
  H  H329  1  0.783200  0.108800  0.581000  1.0
  H  H330  1  0.783200  0.608800  0.081000  1.0
  H  H331  1  0.283200  0.391200  0.419000  1.0
  H  H332  1  0.216800  0.891200  0.581000  1.0
  H  H333  1  0.716800  0.608800  0.419000  1.0
  H  H334  1  0.283200  0.891200  0.919000  1.0
  H  H335  1  0.216800  0.391200  0.081000  1.0
  H  H336  1  0.716800  0.108800  0.919000  1.0
  H  H337  1  0.841200  0.840900  0.419300  1.0
  H  H338  1  0.841200  0.340900  0.919300  1.0
  H  H339  1  0.341200  0.659100  0.580700  1.0
  H  H340  1  0.158800  0.159100  0.419300  1.0
  H  H341  1  0.658800  0.340900  0.580700  1.0
  H  H342  1  0.341200  0.159100  0.080700  1.0
  H  H343  1  0.158800  0.659100  0.919300  1.0
  H  H344  1  0.658800  0.840900  0.080700  1.0
  H  H345  1  0.158800  0.159100  0.580700  1.0
  H  H346  1  0.158800  0.659100  0.080700  1.0
  H  H347  1  0.658800  0.340900  0.419300  1.0
  H  H348  1  0.841200  0.840900  0.580700  1.0
  H  H349  1  0.341200  0.659100  0.419300  1.0
  H  H350  1  0.658800  0.840900  0.919300  1.0
  H  H351  1  0.841200  0.340900  0.080700  1.0
  H  H352  1  0.341200  0.159100  0.919300  1.0
  H  H353  1  0.730300  0.779600  0.424200  1.0
  H  H354  1  0.730300  0.279600  0.924200  1.0
  H  H355  1  0.230300  0.720400  0.575800  1.0
  H  H356  1  0.269700  0.220400  0.424200  1.0
  H  H357  1  0.769700  0.279600  0.575800  1.0
  H  H358  1  0.230300  0.220400  0.075800  1.0
  H  H359  1  0.269700  0.720400  0.924200  1.0
  H  H360  1  0.769700  0.779600  0.075800  1.0
  H  H361  1  0.269700  0.220400  0.575800  1.0
  H  H362  1  0.269700  0.720400  0.075800  1.0
  H  H363  1  0.769700  0.279600  0.424200  1.0
  H  H364  1  0.730300  0.779600  0.575800  1.0
  H  H365  1  0.230300  0.720400  0.424200  1.0
  H  H366  1  0.769700  0.779600  0.924200  1.0
  H  H367  1  0.730300  0.279600  0.075800  1.0
  H  H368  1  0.230300  0.220400  0.924200  1.0
  H  H369  1  0.824400  0.769000  0.351500  1.0
  H  H370  1  0.824400  0.269000  0.851500  1.0
  H  H371  1  0.324400  0.731000  0.648500  1.0
  H  H372  1  0.175600  0.231000  0.351500  1.0
  H  H373  1  0.675600  0.269000  0.648500  1.0
  H  H374  1  0.324400  0.231000  0.148500  1.0
  H  H375  1  0.175600  0.731000  0.851500  1.0
  H  H376  1  0.675600  0.769000  0.148500  1.0
  H  H377  1  0.175600  0.231000  0.648500  1.0
  H  H378  1  0.175600  0.731000  0.148500  1.0
  H  H379  1  0.675600  0.269000  0.351500  1.0
  H  H380  1  0.824400  0.769000  0.648500  1.0
  H  H381  1  0.324400  0.731000  0.351500  1.0
  H  H382  1  0.675600  0.769000  0.851500  1.0
  H  H383  1  0.824400  0.269000  0.148500  1.0
  H  H384  1  0.324400  0.231000  0.851500  1.0
  H  H385  1  0.795000  0.956400  0.243200  1.0
  H  H386  1  0.795000  0.456400  0.743200  1.0
  H  H387  1  0.295000  0.543600  0.756800  1.0
  H  H388  1  0.205000  0.043600  0.243200  1.0
  H  H389  1  0.705000  0.456400  0.756800  1.0
  H  H390  1  0.295000  0.043600  0.256800  1.0
  H  H391  1  0.205000  0.543600  0.743200  1.0
  H  H392  1  0.705000  0.956400  0.256800  1.0
  H  H393  1  0.205000  0.043600  0.756800  1.0
  H  H394  1  0.205000  0.543600  0.256800  1.0
  H  H395  1  0.705000  0.456400  0.243200  1.0
  H  H396  1  0.795000  0.956400  0.756800  1.0
  H  H397  1  0.295000  0.543600  0.243200  1.0
  H  H398  1  0.705000  0.956400  0.743200  1.0
  H  H399  1  0.795000  0.456400  0.256800  1.0
  H  H400  1  0.295000  0.043600  0.743200  1.0
  H  H401  1  0.870600  0.872000  0.247100  1.0
  H  H402  1  0.870600  0.372000  0.747100  1.0
  H  H403  1  0.370600  0.628000  0.752900  1.0
  H  H404  1  0.129400  0.128000  0.247100  1.0
  H  H405  1  0.629400  0.372000  0.752900  1.0
  H  H406  1  0.370600  0.128000  0.252900  1.0
  H  H407  1  0.129400  0.628000  0.747100  1.0
  H  H408  1  0.629400  0.872000  0.252900  1.0
  H  H409  1  0.129400  0.128000  0.752900  1.0
  H  H410  1  0.129400  0.628000  0.252900  1.0
  H  H411  1  0.629400  0.372000  0.247100  1.0
  H  H412  1  0.870600  0.872000  0.752900  1.0
  H  H413  1  0.370600  0.628000  0.247100  1.0
  H  H414  1  0.629400  0.872000  0.747100  1.0
  H  H415  1  0.870600  0.372000  0.252900  1.0
  H  H416  1  0.370600  0.128000  0.747100  1.0
  H  H417  1  0.124200  0.718900  0.430900  1.0
  H  H418  1  0.124200  0.218900  0.930900  1.0
  H  H419  1  0.624200  0.781100  0.569100  1.0
  H  H420  1  0.875800  0.281100  0.430900  1.0
  H  H421  1  0.375800  0.218900  0.569100  1.0
  H  H422  1  0.624200  0.281100  0.069100  1.0
  H  H423  1  0.875800  0.781100  0.930900  1.0
  H  H424  1  0.375800  0.718900  0.069100  1.0
  H  H425  1  0.875800  0.281100  0.569100  1.0
  H  H426  1  0.875800  0.781100  0.069100  1.0
  H  H427  1  0.375800  0.218900  0.430900  1.0
  H  H428  1  0.124200  0.718900  0.569100  1.0
  H  H429  1  0.624200  0.781100  0.430900  1.0
  H  H430  1  0.375800  0.718900  0.930900  1.0
  H  H431  1  0.124200  0.218900  0.069100  1.0
  H  H432  1  0.624200  0.281100  0.930900  1.0
  H  H433  1  0.359800  0.024100  0.356500  1.0
  H  H434  1  0.359800  0.524100  0.856500  1.0
  H  H435  1  0.859800  0.475900  0.643500  1.0
  H  H436  1  0.640200  0.975900  0.356500  1.0
  H  H437  1  0.140200  0.524100  0.643500  1.0
  H  H438  1  0.859800  0.975900  0.143500  1.0
  H  H439  1  0.640200  0.475900  0.856500  1.0
  H  H440  1  0.140200  0.024100  0.143500  1.0
  H  H441  1  0.640200  0.975900  0.643500  1.0
  H  H442  1  0.640200  0.475900  0.143500  1.0
  H  H443  1  0.140200  0.524100  0.356500  1.0
  H  H444  1  0.359800  0.024100  0.643500  1.0
  H  H445  1  0.859800  0.475900  0.356500  1.0
  H  H446  1  0.140200  0.024100  0.856500  1.0
  H  H447  1  0.359800  0.524100  0.143500  1.0
  H  H448  1  0.859800  0.975900  0.856500  1.0
  H  H449  1  0.259000  0.047000  0.418900  1.0
  H  H450  1  0.259000  0.547000  0.918900  1.0
  H  H451  1  0.759000  0.453000  0.581100  1.0
  H  H452  1  0.741000  0.953000  0.418900  1.0
  H  H453  1  0.241000  0.547000  0.581100  1.0
  H  H454  1  0.759000  0.953000  0.081100  1.0
  H  H455  1  0.741000  0.453000  0.918900  1.0
  H  H456  1  0.241000  0.047000  0.081100  1.0
  H  H457  1  0.741000  0.953000  0.581100  1.0
  H  H458  1  0.741000  0.453000  0.081100  1.0
  H  H459  1  0.241000  0.547000  0.418900  1.0
  H  H460  1  0.259000  0.047000  0.581100  1.0
  H  H461  1  0.759000  0.453000  0.418900  1.0
  H  H462  1  0.241000  0.047000  0.918900  1.0
  H  H463  1  0.259000  0.547000  0.081100  1.0
  H  H464  1  0.759000  0.953000  0.918900  1.0
  H  H465  1  0.872400  0.935900  0.322300  1.0
  H  H466  1  0.872400  0.435900  0.822300  1.0
  H  H467  1  0.372400  0.564100  0.677700  1.0
  H  H468  1  0.127600  0.064100  0.322300  1.0
  H  H469  1  0.627600  0.435900  0.677700  1.0
  H  H470  1  0.372400  0.064100  0.177700  1.0
  H  H471  1  0.127600  0.564100  0.822300  1.0
  H  H472  1  0.627600  0.935900  0.177700  1.0
  H  H473  1  0.127600  0.064100  0.677700  1.0
  H  H474  1  0.127600  0.564100  0.177700  1.0
  H  H475  1  0.627600  0.435900  0.322300  1.0
  H  H476  1  0.872400  0.935900  0.677700  1.0
  H  H477  1  0.372400  0.564100  0.322300  1.0
  H  H478  1  0.627600  0.935900  0.822300  1.0
  H  H479  1  0.872400  0.435900  0.177700  1.0
  H  H480  1  0.372400  0.064100  0.822300  1.0
  H  H481  1  0.322400  0.882600  0.358200  1.0
  H  H482  1  0.322400  0.382600  0.858200  1.0
  H  H483  1  0.822400  0.617400  0.641800  1.0
  H  H484  1  0.677600  0.117400  0.358200  1.0
  H  H485  1  0.177600  0.382600  0.641800  1.0
  H  H486  1  0.822400  0.117400  0.141800  1.0
  H  H487  1  0.677600  0.617400  0.858200  1.0
  H  H488  1  0.177600  0.882600  0.141800  1.0
  H  H489  1  0.677600  0.117400  0.641800  1.0
  H  H490  1  0.677600  0.617400  0.141800  1.0
  H  H491  1  0.177600  0.382600  0.358200  1.0
  H  H492  1  0.322400  0.882600  0.641800  1.0
  H  H493  1  0.822400  0.617400  0.358200  1.0
  H  H494  1  0.177600  0.882600  0.858200  1.0
  H  H495  1  0.322400  0.382600  0.141800  1.0
  H  H496  1  0.822400  0.117400  0.858200  1.0
  H  H497  1  0.026800  0.732000  0.362700  1.0
  H  H498  1  0.026800  0.232000  0.862700  1.0
  H  H499  1  0.526800  0.768000  0.637300  1.0
  H  H500  1  0.973200  0.268000  0.362700  1.0
  H  H501  1  0.473200  0.232000  0.637300  1.0
  H  H502  1  0.526800  0.268000  0.137300  1.0
  H  H503  1  0.973200  0.768000  0.862700  1.0
  H  H504  1  0.473200  0.732000  0.137300  1.0
  H  H505  1  0.973200  0.268000  0.637300  1.0
  H  H506  1  0.973200  0.768000  0.137300  1.0
  H  H507  1  0.473200  0.232000  0.362700  1.0
  H  H508  1  0.026800  0.732000  0.637300  1.0
  H  H509  1  0.526800  0.768000  0.362700  1.0
  H  H510  1  0.473200  0.732000  0.862700  1.0
  H  H511  1  0.026800  0.232000  0.137300  1.0
  H  H512  1  0.526800  0.268000  0.862700  1.0
  H  H513  1  0.305000  0.813200  0.427200  1.0
  H  H514  1  0.305000  0.313200  0.927200  1.0
  H  H515  1  0.805000  0.686800  0.572800  1.0
  H  H516  1  0.695000  0.186800  0.427200  1.0
  H  H517  1  0.195000  0.313200  0.572800  1.0
  H  H518  1  0.805000  0.186800  0.072800  1.0
  H  H519  1  0.695000  0.686800  0.927200  1.0
  H  H520  1  0.195000  0.813200  0.072800  1.0
  H  H521  1  0.695000  0.186800  0.572800  1.0
  H  H522  1  0.695000  0.686800  0.072800  1.0
  H  H523  1  0.195000  0.313200  0.427200  1.0
  H  H524  1  0.305000  0.813200  0.572800  1.0
  H  H525  1  0.805000  0.686800  0.427200  1.0
  H  H526  1  0.195000  0.813200  0.927200  1.0
  H  H527  1  0.305000  0.313200  0.072800  1.0
  H  H528  1  0.805000  0.186800  0.927200  1.0
  H  H529  1  0.077100  0.829600  0.256600  1.0
  H  H530  1  0.077100  0.329600  0.756600  1.0
  H  H531  1  0.577100  0.670400  0.743400  1.0
  H  H532  1  0.922900  0.170400  0.256600  1.0
  H  H533  1  0.422900  0.329600  0.743400  1.0
  H  H534  1  0.577100  0.170400  0.243400  1.0
  H  H535  1  0.922900  0.670400  0.756600  1.0
  H  H536  1  0.422900  0.829600  0.243400  1.0
  H  H537  1  0.922900  0.170400  0.743400  1.0
  H  H538  1  0.922900  0.670400  0.243400  1.0
  H  H539  1  0.422900  0.329600  0.256600  1.0
  H  H540  1  0.077100  0.829600  0.743400  1.0
  H  H541  1  0.577100  0.670400  0.256600  1.0
  H  H542  1  0.422900  0.829600  0.756600  1.0
  H  H543  1  0.077100  0.329600  0.243400  1.0
  H  H544  1  0.577100  0.170400  0.756600  1.0
  H  H545  1  0.383000  0.091100  0.426800  1.0
  H  H546  1  0.383000  0.591100  0.926800  1.0
  H  H547  1  0.883000  0.408900  0.573200  1.0
  H  H548  1  0.617000  0.908900  0.426800  1.0
  H  H549  1  0.117000  0.591100  0.573200  1.0
  H  H550  1  0.883000  0.908900  0.073200  1.0
  H  H551  1  0.617000  0.408900  0.926800  1.0
  H  H552  1  0.117000  0.091100  0.073200  1.0
  H  H553  1  0.617000  0.908900  0.573200  1.0
  H  H554  1  0.617000  0.408900  0.073200  1.0
  H  H555  1  0.117000  0.591100  0.426800  1.0
  H  H556  1  0.383000  0.091100  0.573200  1.0
  H  H557  1  0.883000  0.408900  0.426800  1.0
  H  H558  1  0.117000  0.091100  0.926800  1.0
  H  H559  1  0.383000  0.591100  0.073200  1.0
  H  H560  1  0.883000  0.908900  0.926800  1.0
  H  H561  1  0.186600  0.889800  0.254300  1.0
  H  H562  1  0.186600  0.389800  0.754300  1.0
  H  H563  1  0.686600  0.610200  0.745700  1.0
  H  H564  1  0.813400  0.110200  0.254300  1.0
  H  H565  1  0.313400  0.389800  0.745700  1.0
  H  H566  1  0.686600  0.110200  0.245700  1.0
  H  H567  1  0.813400  0.610200  0.754300  1.0
  H  H568  1  0.313400  0.889800  0.245700  1.0
  H  H569  1  0.813400  0.110200  0.745700  1.0
  H  H570  1  0.813400  0.610200  0.245700  1.0
  H  H571  1  0.313400  0.389800  0.254300  1.0
  H  H572  1  0.186600  0.889800  0.745700  1.0
  H  H573  1  0.686600  0.610200  0.254300  1.0
  H  H574  1  0.313400  0.889800  0.754300  1.0
  H  H575  1  0.186600  0.389800  0.245700  1.0
  H  H576  1  0.686600  0.110200  0.754300  1.0
  H  H577  1  0.347000  0.785500  0.399200  1.0
  H  H578  1  0.347000  0.285500  0.899200  1.0
  H  H579  1  0.847000  0.714500  0.600800  1.0
  H  H580  1  0.653000  0.214500  0.399200  1.0
  H  H581  1  0.153000  0.285500  0.600800  1.0
  H  H582  1  0.847000  0.214500  0.100800  1.0
  H  H583  1  0.653000  0.714500  0.899200  1.0
  H  H584  1  0.153000  0.785500  0.100800  1.0
  H  H585  1  0.653000  0.214500  0.600800  1.0
  H  H586  1  0.653000  0.714500  0.100800  1.0
  H  H587  1  0.153000  0.285500  0.399200  1.0
  H  H588  1  0.347000  0.785500  0.600800  1.0
  H  H589  1  0.847000  0.714500  0.399200  1.0
  H  H590  1  0.153000  0.785500  0.899200  1.0
  H  H591  1  0.347000  0.285500  0.100800  1.0
  H  H592  1  0.847000  0.214500  0.899200  1.0
  H  H593  1  0.386500  0.805300  0.417500  1.0
  H  H594  1  0.386500  0.305300  0.917500  1.0
  H  H595  1  0.886500  0.694700  0.582500  1.0
  H  H596  1  0.613500  0.194700  0.417500  1.0
  H  H597  1  0.113500  0.305300  0.582500  1.0
  H  H598  1  0.886500  0.194700  0.082500  1.0
  H  H599  1  0.613500  0.694700  0.917500  1.0
  H  H600  1  0.113500  0.805300  0.082500  1.0
  H  H601  1  0.613500  0.194700  0.582500  1.0
  H  H602  1  0.613500  0.694700  0.082500  1.0
  H  H603  1  0.113500  0.305300  0.417500  1.0
  H  H604  1  0.386500  0.805300  0.582500  1.0
  H  H605  1  0.886500  0.694700  0.417500  1.0
  H  H606  1  0.113500  0.805300  0.917500  1.0
  H  H607  1  0.386500  0.305300  0.082500  1.0
  H  H608  1  0.886500  0.194700  0.917500  1.0
  H  H609  1  0.425800  0.765700  0.381200  1.0
  H  H610  1  0.425800  0.265700  0.881200  1.0
  H  H611  1  0.925800  0.734300  0.618800  1.0
  H  H612  1  0.574200  0.234300  0.381200  1.0
  H  H613  1  0.074200  0.265700  0.618800  1.0
  H  H614  1  0.925800  0.234300  0.118800  1.0
  H  H615  1  0.574200  0.734300  0.881200  1.0
  H  H616  1  0.074200  0.765700  0.118800  1.0
  H  H617  1  0.574200  0.234300  0.618800  1.0
  H  H618  1  0.574200  0.734300  0.118800  1.0
  H  H619  1  0.074200  0.265700  0.381200  1.0
  H  H620  1  0.425800  0.765700  0.618800  1.0
  H  H621  1  0.925800  0.734300  0.381200  1.0
  H  H622  1  0.074200  0.765700  0.881200  1.0
  H  H623  1  0.425800  0.265700  0.118800  1.0
  H  H624  1  0.925800  0.234300  0.881200  1.0
  H  H625  1  0.398700  0.815400  0.335900  1.0
  H  H626  1  0.398700  0.315400  0.835900  1.0
  H  H627  1  0.898700  0.684600  0.664100  1.0
  H  H628  1  0.601300  0.184600  0.335900  1.0
  H  H629  1  0.101300  0.315400  0.664100  1.0
  H  H630  1  0.898700  0.184600  0.164100  1.0
  H  H631  1  0.601300  0.684600  0.835900  1.0
  H  H632  1  0.101300  0.815400  0.164100  1.0
  H  H633  1  0.601300  0.184600  0.664100  1.0
  H  H634  1  0.601300  0.684600  0.164100  1.0
  H  H635  1  0.101300  0.315400  0.335900  1.0
  H  H636  1  0.398700  0.815400  0.664100  1.0
  H  H637  1  0.898700  0.684600  0.335900  1.0
  H  H638  1  0.101300  0.815400  0.835900  1.0
  H  H639  1  0.398700  0.315400  0.164100  1.0
  H  H640  1  0.898700  0.184600  0.835900  1.0
  H  H641  1  0.437600  0.787400  0.329000  1.0
  H  H642  1  0.437600  0.287400  0.829000  1.0
  H  H643  1  0.937600  0.712600  0.671000  1.0
  H  H644  1  0.562400  0.212600  0.329000  1.0
  H  H645  1  0.062400  0.287400  0.671000  1.0
  H  H646  1  0.937600  0.212600  0.171000  1.0
  H  H647  1  0.562400  0.712600  0.829000  1.0
  H  H648  1  0.062400  0.787400  0.171000  1.0
  H  H649  1  0.562400  0.212600  0.671000  1.0
  H  H650  1  0.562400  0.712600  0.171000  1.0
  H  H651  1  0.062400  0.287400  0.329000  1.0
  H  H652  1  0.437600  0.787400  0.671000  1.0
  H  H653  1  0.937600  0.712600  0.329000  1.0
  H  H654  1  0.062400  0.787400  0.829000  1.0
  H  H655  1  0.437600  0.287400  0.171000  1.0
  H  H656  1  0.937600  0.212600  0.829000  1.0
  H  H657  1  0.098300  0.642200  0.400100  1.0
  H  H658  1  0.098300  0.142200  0.900100  1.0
  H  H659  1  0.598300  0.857800  0.599900  1.0
  H  H660  1  0.901700  0.357800  0.400100  1.0
  H  H661  1  0.401700  0.142200  0.599900  1.0
  H  H662  1  0.598300  0.357800  0.099900  1.0
  H  H663  1  0.901700  0.857800  0.900100  1.0
  H  H664  1  0.401700  0.642200  0.099900  1.0
  H  H665  1  0.901700  0.357800  0.599900  1.0
  H  H666  1  0.901700  0.857800  0.099900  1.0
  H  H667  1  0.401700  0.142200  0.400100  1.0
  H  H668  1  0.098300  0.642200  0.599900  1.0
  H  H669  1  0.598300  0.857800  0.400100  1.0
  H  H670  1  0.401700  0.642200  0.900100  1.0
  H  H671  1  0.098300  0.142200  0.099900  1.0
  H  H672  1  0.598300  0.357800  0.900100  1.0
  H  H673  1  0.113500  0.670500  0.424500  1.0
  H  H674  1  0.113500  0.170500  0.924500  1.0
  H  H675  1  0.613500  0.829500  0.575500  1.0
  H  H676  1  0.886500  0.329500  0.424500  1.0
  H  H677  1  0.386500  0.170500  0.575500  1.0
  H  H678  1  0.613500  0.329500  0.075500  1.0
  H  H679  1  0.886500  0.829500  0.924500  1.0
  H  H680  1  0.386500  0.670500  0.075500  1.0
  H  H681  1  0.886500  0.329500  0.575500  1.0
  H  H682  1  0.886500  0.829500  0.075500  1.0
  H  H683  1  0.386500  0.170500  0.424500  1.0
  H  H684  1  0.113500  0.670500  0.575500  1.0
  H  H685  1  0.613500  0.829500  0.424500  1.0
  H  H686  1  0.386500  0.670500  0.924500  1.0
  H  H687  1  0.113500  0.170500  0.075500  1.0
  H  H688  1  0.613500  0.329500  0.924500  1.0
  H  H689  1  0.178200  0.654000  0.389300  1.0
  H  H690  1  0.178200  0.154000  0.889300  1.0
  H  H691  1  0.678200  0.846000  0.610700  1.0
  H  H692  1  0.821800  0.346000  0.389300  1.0
  H  H693  1  0.321800  0.154000  0.610700  1.0
  H  H694  1  0.678200  0.346000  0.110700  1.0
  H  H695  1  0.821800  0.846000  0.889300  1.0
  H  H696  1  0.321800  0.654000  0.110700  1.0
  H  H697  1  0.821800  0.346000  0.610700  1.0
  H  H698  1  0.821800  0.846000  0.110700  1.0
  H  H699  1  0.321800  0.154000  0.389300  1.0
  H  H700  1  0.178200  0.654000  0.610700  1.0
  H  H701  1  0.678200  0.846000  0.389300  1.0
  H  H702  1  0.321800  0.654000  0.889300  1.0
  H  H703  1  0.178200  0.154000  0.110700  1.0
  H  H704  1  0.678200  0.346000  0.889300  1.0
  H  H705  1  0.138800  0.705700  0.353600  1.0
  H  H706  1  0.138800  0.205700  0.853600  1.0
  H  H707  1  0.638800  0.794300  0.646400  1.0
  H  H708  1  0.861200  0.294300  0.353600  1.0
  H  H709  1  0.361200  0.205700  0.646400  1.0
  H  H710  1  0.638800  0.294300  0.146400  1.0
  H  H711  1  0.861200  0.794300  0.853600  1.0
  H  H712  1  0.361200  0.705700  0.146400  1.0
  H  H713  1  0.861200  0.294300  0.646400  1.0
  H  H714  1  0.861200  0.794300  0.146400  1.0
  H  H715  1  0.361200  0.205700  0.353600  1.0
  H  H716  1  0.138800  0.705700  0.646400  1.0
  H  H717  1  0.638800  0.794300  0.353600  1.0
  H  H718  1  0.361200  0.705700  0.853600  1.0
  H  H719  1  0.138800  0.205700  0.146400  1.0
  H  H720  1  0.638800  0.294300  0.853600  1.0
  H  H721  1  0.190800  0.691900  0.349600  1.0
  H  H722  1  0.190800  0.191900  0.849600  1.0
  H  H723  1  0.690800  0.808100  0.650400  1.0
  H  H724  1  0.809200  0.308100  0.349600  1.0
  H  H725  1  0.309200  0.191900  0.650400  1.0
  H  H726  1  0.690800  0.308100  0.150400  1.0
  H  H727  1  0.809200  0.808100  0.849600  1.0
  H  H728  1  0.309200  0.691900  0.150400  1.0
  H  H729  1  0.809200  0.308100  0.650400  1.0
  H  H730  1  0.809200  0.808100  0.150400  1.0
  H  H731  1  0.309200  0.191900  0.349600  1.0
  H  H732  1  0.190800  0.691900  0.650400  1.0
  H  H733  1  0.690800  0.808100  0.349600  1.0
  H  H734  1  0.309200  0.691900  0.849600  1.0
  H  H735  1  0.190800  0.191900  0.150400  1.0
  H  H736  1  0.690800  0.308100  0.849600  1.0
  H  H737  1  0.687200  0.750600  0.385000  1.0
  H  H738  1  0.687200  0.250600  0.885000  1.0
  H  H739  1  0.187200  0.749400  0.615000  1.0
  H  H740  1  0.312800  0.249400  0.385000  1.0
  H  H741  1  0.812800  0.250600  0.615000  1.0
  H  H742  1  0.187200  0.249400  0.115000  1.0
  H  H743  1  0.312800  0.749400  0.885000  1.0
  H  H744  1  0.812800  0.750600  0.115000  1.0
  H  H745  1  0.312800  0.249400  0.615000  1.0
  H  H746  1  0.312800  0.749400  0.115000  1.0
  H  H747  1  0.812800  0.250600  0.385000  1.0
  H  H748  1  0.687200  0.750600  0.615000  1.0
  H  H749  1  0.187200  0.749400  0.385000  1.0
  H  H750  1  0.812800  0.750600  0.885000  1.0
  H  H751  1  0.687200  0.250600  0.115000  1.0
  H  H752  1  0.187200  0.249400  0.885000  1.0
  H  H753  1  0.713400  0.724300  0.407100  1.0
  H  H754  1  0.713400  0.224300  0.907100  1.0
  H  H755  1  0.213400  0.775700  0.592900  1.0
  H  H756  1  0.286600  0.275700  0.407100  1.0
  H  H757  1  0.786600  0.224300  0.592900  1.0
  H  H758  1  0.213400  0.275700  0.092900  1.0
  H  H759  1  0.286600  0.775700  0.907100  1.0
  H  H760  1  0.786600  0.724300  0.092900  1.0
  H  H761  1  0.286600  0.275700  0.592900  1.0
  H  H762  1  0.286600  0.775700  0.092900  1.0
  H  H763  1  0.786600  0.224300  0.407100  1.0
  H  H764  1  0.713400  0.724300  0.592900  1.0
  H  H765  1  0.213400  0.775700  0.407100  1.0
  H  H766  1  0.786600  0.724300  0.907100  1.0
  H  H767  1  0.713400  0.224300  0.092900  1.0
  H  H768  1  0.213400  0.275700  0.907100  1.0
  H  H769  1  0.711600  0.685900  0.360300  1.0
  H  H770  1  0.711600  0.185900  0.860300  1.0
  H  H771  1  0.211600  0.814100  0.639700  1.0
  H  H772  1  0.288400  0.314100  0.360300  1.0
  H  H773  1  0.788400  0.185900  0.639700  1.0
  H  H774  1  0.211600  0.314100  0.139700  1.0
  H  H775  1  0.288400  0.814100  0.860300  1.0
  H  H776  1  0.788400  0.685900  0.139700  1.0
  H  H777  1  0.288400  0.314100  0.639700  1.0
  H  H778  1  0.288400  0.814100  0.139700  1.0
  H  H779  1  0.788400  0.185900  0.360300  1.0
  H  H780  1  0.711600  0.685900  0.639700  1.0
  H  H781  1  0.211600  0.814100  0.360300  1.0
  H  H782  1  0.788400  0.685900  0.860300  1.0
  H  H783  1  0.711600  0.185900  0.139700  1.0
  H  H784  1  0.211600  0.314100  0.860300  1.0
  H  H785  1  0.632400  0.722400  0.349400  1.0
  H  H786  1  0.632400  0.222400  0.849400  1.0
  H  H787  1  0.132400  0.777600  0.650600  1.0
  H  H788  1  0.367600  0.277600  0.349400  1.0
  H  H789  1  0.867600  0.222400  0.650600  1.0
  H  H790  1  0.132400  0.277600  0.150600  1.0
  H  H791  1  0.367600  0.777600  0.849400  1.0
  H  H792  1  0.867600  0.722400  0.150600  1.0
  H  H793  1  0.367600  0.277600  0.650600  1.0
  H  H794  1  0.367600  0.777600  0.150600  1.0
  H  H795  1  0.867600  0.222400  0.349400  1.0
  H  H796  1  0.632400  0.722400  0.650600  1.0
  H  H797  1  0.132400  0.777600  0.349400  1.0
  H  H798  1  0.867600  0.722400  0.849400  1.0
  H  H799  1  0.632400  0.222400  0.150600  1.0
  H  H800  1  0.132400  0.277600  0.849400  1.0
  H  H801  1  0.644200  0.686200  0.334200  1.0
  H  H802  1  0.644200  0.186200  0.834200  1.0
  H  H803  1  0.144200  0.813800  0.665800  1.0
  H  H804  1  0.355800  0.313800  0.334200  1.0
  H  H805  1  0.855800  0.186200  0.665800  1.0
  H  H806  1  0.144200  0.313800  0.165800  1.0
  H  H807  1  0.355800  0.813800  0.834200  1.0
  H  H808  1  0.855800  0.686200  0.165800  1.0
  H  H809  1  0.355800  0.313800  0.665800  1.0
  H  H810  1  0.355800  0.813800  0.165800  1.0
  H  H811  1  0.855800  0.186200  0.334200  1.0
  H  H812  1  0.644200  0.686200  0.665800  1.0
  H  H813  1  0.144200  0.813800  0.334200  1.0
  H  H814  1  0.855800  0.686200  0.834200  1.0
  H  H815  1  0.644200  0.186200  0.165800  1.0
  H  H816  1  0.144200  0.313800  0.834200  1.0
  H  H817  1  0.791200  0.940100  0.187500  1.0
  H  H818  1  0.791200  0.440100  0.687500  1.0
  H  H819  1  0.291200  0.559900  0.812500  1.0
  H  H820  1  0.208800  0.059900  0.187500  1.0
  H  H821  1  0.708800  0.440100  0.812500  1.0
  H  H822  1  0.291200  0.059900  0.312500  1.0
  H  H823  1  0.208800  0.559900  0.687500  1.0
  H  H824  1  0.708800  0.940100  0.312500  1.0
  H  H825  1  0.208800  0.059900  0.812500  1.0
  H  H826  1  0.208800  0.559900  0.312500  1.0
  H  H827  1  0.708800  0.440100  0.187500  1.0
  H  H828  1  0.791200  0.940100  0.812500  1.0
  H  H829  1  0.291200  0.559900  0.187500  1.0
  H  H830  1  0.708800  0.940100  0.687500  1.0
  H  H831  1  0.791200  0.440100  0.312500  1.0
  H  H832  1  0.291200  0.059900  0.687500  1.0
  H  H833  1  0.755000  0.916700  0.205100  1.0
  H  H834  1  0.755000  0.416700  0.705100  1.0
  H  H835  1  0.255000  0.583300  0.794900  1.0
  H  H836  1  0.245000  0.083300  0.205100  1.0
  H  H837  1  0.745000  0.416700  0.794900  1.0
  H  H838  1  0.255000  0.083300  0.294900  1.0
  H  H839  1  0.245000  0.583300  0.705100  1.0
  H  H840  1  0.745000  0.916700  0.294900  1.0
  H  H841  1  0.245000  0.083300  0.794900  1.0
  H  H842  1  0.245000  0.583300  0.294900  1.0
  H  H843  1  0.745000  0.416700  0.205100  1.0
  H  H844  1  0.755000  0.916700  0.794900  1.0
  H  H845  1  0.255000  0.583300  0.205100  1.0
  H  H846  1  0.745000  0.916700  0.705100  1.0
  H  H847  1  0.755000  0.416700  0.294900  1.0
  H  H848  1  0.255000  0.083300  0.705100  1.0
  H  H849  1  0.800900  0.894500  0.146300  1.0
  H  H850  1  0.800900  0.394500  0.646300  1.0
  H  H851  1  0.300900  0.605500  0.853700  1.0
  H  H852  1  0.199100  0.105500  0.146300  1.0
  H  H853  1  0.699100  0.394500  0.853700  1.0
  H  H854  1  0.300900  0.105500  0.353700  1.0
  H  H855  1  0.199100  0.605500  0.646300  1.0
  H  H856  1  0.699100  0.894500  0.353700  1.0
  H  H857  1  0.199100  0.105500  0.853700  1.0
  H  H858  1  0.199100  0.605500  0.353700  1.0
  H  H859  1  0.699100  0.394500  0.146300  1.0
  H  H860  1  0.800900  0.894500  0.853700  1.0
  H  H861  1  0.300900  0.605500  0.146300  1.0
  H  H862  1  0.699100  0.894500  0.646300  1.0
  H  H863  1  0.800900  0.394500  0.353700  1.0
  H  H864  1  0.300900  0.105500  0.646300  1.0
  H  H865  1  0.710600  0.889800  0.167200  1.0
  H  H866  1  0.710600  0.389800  0.667200  1.0
  H  H867  1  0.210600  0.610200  0.832800  1.0
  H  H868  1  0.289400  0.110200  0.167200  1.0
  H  H869  1  0.789400  0.389800  0.832800  1.0
  H  H870  1  0.210600  0.110200  0.332800  1.0
  H  H871  1  0.289400  0.610200  0.667200  1.0
  H  H872  1  0.789400  0.889800  0.332800  1.0
  H  H873  1  0.289400  0.110200  0.832800  1.0
  H  H874  1  0.289400  0.610200  0.332800  1.0
  H  H875  1  0.789400  0.389800  0.167200  1.0
  H  H876  1  0.710600  0.889800  0.832800  1.0
  H  H877  1  0.210600  0.610200  0.167200  1.0
  H  H878  1  0.789400  0.889800  0.667200  1.0
  H  H879  1  0.710600  0.389800  0.332800  1.0
  H  H880  1  0.210600  0.110200  0.667200  1.0
  H  H881  1  0.731000  0.874600  0.133500  1.0
  H  H882  1  0.731000  0.374600  0.633500  1.0
  H  H883  1  0.231000  0.625400  0.866500  1.0
  H  H884  1  0.269000  0.125400  0.133500  1.0
  H  H885  1  0.769000  0.374600  0.866500  1.0
  H  H886  1  0.231000  0.125400  0.366500  1.0
  H  H887  1  0.269000  0.625400  0.633500  1.0
  H  H888  1  0.769000  0.874600  0.366500  1.0
  H  H889  1  0.269000  0.125400  0.866500  1.0
  H  H890  1  0.269000  0.625400  0.366500  1.0
  H  H891  1  0.769000  0.374600  0.133500  1.0
  H  H892  1  0.731000  0.874600  0.866500  1.0
  H  H893  1  0.231000  0.625400  0.133500  1.0
  H  H894  1  0.769000  0.874600  0.633500  1.0
  H  H895  1  0.731000  0.374600  0.366500  1.0
  H  H896  1  0.231000  0.125400  0.633500  1.0
  H  H897  1  0.202000  0.867300  0.223600  1.0
  H  H898  1  0.202000  0.367300  0.723600  1.0
  H  H899  1  0.702000  0.632700  0.776400  1.0
  H  H900  1  0.798000  0.132700  0.223600  1.0
  H  H901  1  0.298000  0.367300  0.776400  1.0
  H  H902  1  0.702000  0.132700  0.276400  1.0
  H  H903  1  0.798000  0.632700  0.723600  1.0
  H  H904  1  0.298000  0.867300  0.276400  1.0
  H  H905  1  0.798000  0.132700  0.776400  1.0
  H  H906  1  0.798000  0.632700  0.276400  1.0
  H  H907  1  0.298000  0.367300  0.223600  1.0
  H  H908  1  0.202000  0.867300  0.776400  1.0
  H  H909  1  0.702000  0.632700  0.223600  1.0
  H  H910  1  0.298000  0.867300  0.723600  1.0
  H  H911  1  0.202000  0.367300  0.276400  1.0
  H  H912  1  0.702000  0.132700  0.723600  1.0
  H  H913  1  0.182000  0.856300  0.189300  1.0
  H  H914  1  0.182000  0.356300  0.689300  1.0
  H  H915  1  0.682000  0.643700  0.810700  1.0
  H  H916  1  0.818000  0.143700  0.189300  1.0
  H  H917  1  0.318000  0.356300  0.810700  1.0
  H  H918  1  0.682000  0.143700  0.310700  1.0
  H  H919  1  0.818000  0.643700  0.689300  1.0
  H  H920  1  0.318000  0.856300  0.310700  1.0
  H  H921  1  0.818000  0.143700  0.810700  1.0
  H  H922  1  0.818000  0.643700  0.310700  1.0
  H  H923  1  0.318000  0.356300  0.189300  1.0
  H  H924  1  0.182000  0.856300  0.810700  1.0
  H  H925  1  0.682000  0.643700  0.189300  1.0
  H  H926  1  0.318000  0.856300  0.689300  1.0
  H  H927  1  0.182000  0.356300  0.310700  1.0
  H  H928  1  0.682000  0.143700  0.689300  1.0
  H  H929  1  0.253600  0.823200  0.217800  1.0
  H  H930  1  0.253600  0.323200  0.717800  1.0
  H  H931  1  0.753600  0.676800  0.782200  1.0
  H  H932  1  0.746400  0.176800  0.217800  1.0
  H  H933  1  0.246400  0.323200  0.782200  1.0
  H  H934  1  0.753600  0.176800  0.282200  1.0
  H  H935  1  0.746400  0.676800  0.717800  1.0
  H  H936  1  0.246400  0.823200  0.282200  1.0
  H  H937  1  0.746400  0.176800  0.782200  1.0
  H  H938  1  0.746400  0.676800  0.282200  1.0
  H  H939  1  0.246400  0.323200  0.217800  1.0
  H  H940  1  0.253600  0.823200  0.782200  1.0
  H  H941  1  0.753600  0.676800  0.217800  1.0
  H  H942  1  0.246400  0.823200  0.717800  1.0
  H  H943  1  0.253600  0.323200  0.282200  1.0
  H  H944  1  0.753600  0.176800  0.717800  1.0
  H  H945  1  0.178200  0.792200  0.188800  1.0
  H  H946  1  0.178200  0.292200  0.688800  1.0
  H  H947  1  0.678200  0.707800  0.811200  1.0
  H  H948  1  0.821800  0.207800  0.188800  1.0
  H  H949  1  0.321800  0.292200  0.811200  1.0
  H  H950  1  0.678200  0.207800  0.311200  1.0
  H  H951  1  0.821800  0.707800  0.688800  1.0
  H  H952  1  0.321800  0.792200  0.311200  1.0
  H  H953  1  0.821800  0.207800  0.811200  1.0
  H  H954  1  0.821800  0.707800  0.311200  1.0
  H  H955  1  0.321800  0.292200  0.188800  1.0
  H  H956  1  0.178200  0.792200  0.811200  1.0
  H  H957  1  0.678200  0.707800  0.188800  1.0
  H  H958  1  0.321800  0.792200  0.688800  1.0
  H  H959  1  0.178200  0.292200  0.311200  1.0
  H  H960  1  0.678200  0.207800  0.688800  1.0
  H  H961  1  0.227900  0.775000  0.194600  1.0
  H  H962  1  0.227900  0.275000  0.694600  1.0
  H  H963  1  0.727900  0.725000  0.805400  1.0
  H  H964  1  0.772100  0.225000  0.194600  1.0
  H  H965  1  0.272100  0.275000  0.805400  1.0
  H  H966  1  0.727900  0.225000  0.305400  1.0
  H  H967  1  0.772100  0.725000  0.694600  1.0
  H  H968  1  0.272100  0.775000  0.305400  1.0
  H  H969  1  0.772100  0.225000  0.805400  1.0
  H  H970  1  0.772100  0.725000  0.305400  1.0
  H  H971  1  0.272100  0.275000  0.194600  1.0
  H  H972  1  0.227900  0.775000  0.805400  1.0
  H  H973  1  0.727900  0.725000  0.194600  1.0
  H  H974  1  0.272100  0.775000  0.694600  1.0
  H  H975  1  0.227900  0.275000  0.305400  1.0
  H  H976  1  0.727900  0.225000  0.694600  1.0
  H  H977  1  0.479200  0.044400  0.358900  1.0
  H  H978  1  0.479200  0.544400  0.858900  1.0
  H  H979  1  0.979200  0.455600  0.641100  1.0
  H  H980  1  0.520800  0.955600  0.358900  1.0
  H  H981  1  0.020800  0.544400  0.641100  1.0
  H  H982  1  0.979200  0.955600  0.141100  1.0
  H  H983  1  0.520800  0.455600  0.858900  1.0
  H  H984  1  0.020800  0.044400  0.141100  1.0
  H  H985  1  0.520800  0.955600  0.641100  1.0
  H  H986  1  0.520800  0.455600  0.141100  1.0
  H  H987  1  0.020800  0.544400  0.358900  1.0
  H  H988  1  0.479200  0.044400  0.641100  1.0
  H  H989  1  0.979200  0.455600  0.358900  1.0
  H  H990  1  0.020800  0.044400  0.858900  1.0
  H  H991  1  0.479200  0.544400  0.141100  1.0
  H  H992  1  0.979200  0.955600  0.858900  1.0
  H  H993  1  0.436900  0.019800  0.359700  1.0
  H  H994  1  0.436900  0.519800  0.859700  1.0
  H  H995  1  0.936900  0.480200  0.640300  1.0
  H  H996  1  0.563100  0.980200  0.359700  1.0
  H  H997  1  0.063100  0.519800  0.640300  1.0
  H  H998  1  0.936900  0.980200  0.140300  1.0
  H  H999  1  0.563100  0.480200  0.859700  1.0
  H  H1000  1  0.063100  0.019800  0.140300  1.0
  H  H1001  1  0.563100  0.980200  0.640300  1.0
  H  H1002  1  0.563100  0.480200  0.140300  1.0
  H  H1003  1  0.063100  0.519800  0.359700  1.0
  H  H1004  1  0.436900  0.019800  0.640300  1.0
  H  H1005  1  0.936900  0.480200  0.359700  1.0
  H  H1006  1  0.063100  0.019800  0.859700  1.0
  H  H1007  1  0.436900  0.519800  0.140300  1.0
  H  H1008  1  0.936900  0.980200  0.859700  1.0
  H  H1009  1  0.404600  0.046300  0.313600  1.0
  H  H1010  1  0.404600  0.546300  0.813600  1.0
  H  H1011  1  0.904600  0.453700  0.686400  1.0
  H  H1012  1  0.595400  0.953700  0.313600  1.0
  H  H1013  1  0.095400  0.546300  0.686400  1.0
  H  H1014  1  0.904600  0.953700  0.186400  1.0
  H  H1015  1  0.595400  0.453700  0.813600  1.0
  H  H1016  1  0.095400  0.046300  0.186400  1.0
  H  H1017  1  0.595400  0.953700  0.686400  1.0
  H  H1018  1  0.595400  0.453700  0.186400  1.0
  H  H1019  1  0.095400  0.546300  0.313600  1.0
  H  H1020  1  0.404600  0.046300  0.686400  1.0
  H  H1021  1  0.904600  0.453700  0.313600  1.0
  H  H1022  1  0.095400  0.046300  0.813600  1.0
  H  H1023  1  0.404600  0.546300  0.186400  1.0
  H  H1024  1  0.904600  0.953700  0.813600  1.0
  H  H1025  1  0.485800  0.084000  0.314200  1.0
  H  H1026  1  0.485800  0.584000  0.814200  1.0
  H  H1027  1  0.985800  0.416000  0.685800  1.0
  H  H1028  1  0.514200  0.916000  0.314200  1.0
  H  H1029  1  0.014200  0.584000  0.685800  1.0
  H  H1030  1  0.985800  0.916000  0.185800  1.0
  H  H1031  1  0.514200  0.416000  0.814200  1.0
  H  H1032  1  0.014200  0.084000  0.185800  1.0
  H  H1033  1  0.514200  0.916000  0.685800  1.0
  H  H1034  1  0.514200  0.416000  0.185800  1.0
  H  H1035  1  0.014200  0.584000  0.314200  1.0
  H  H1036  1  0.485800  0.084000  0.685800  1.0
  H  H1037  1  0.985800  0.416000  0.314200  1.0
  H  H1038  1  0.014200  0.084000  0.814200  1.0
  H  H1039  1  0.485800  0.584000  0.185800  1.0
  H  H1040  1  0.985800  0.916000  0.814200  1.0
  H  H1041  1  0.449100  0.082600  0.284400  1.0
  H  H1042  1  0.449100  0.582600  0.784400  1.0
  H  H1043  1  0.949100  0.417400  0.715600  1.0
  H  H1044  1  0.550900  0.917400  0.284400  1.0
  H  H1045  1  0.050900  0.582600  0.715600  1.0
  H  H1046  1  0.949100  0.917400  0.215600  1.0
  H  H1047  1  0.550900  0.417400  0.784400  1.0
  H  H1048  1  0.050900  0.082600  0.215600  1.0
  H  H1049  1  0.550900  0.917400  0.715600  1.0
  H  H1050  1  0.550900  0.417400  0.215600  1.0
  H  H1051  1  0.050900  0.582600  0.284400  1.0
  H  H1052  1  0.449100  0.082600  0.715600  1.0
  H  H1053  1  0.949100  0.417400  0.284400  1.0
  H  H1054  1  0.050900  0.082600  0.784400  1.0
  H  H1055  1  0.449100  0.582600  0.215600  1.0
  H  H1056  1  0.949100  0.917400  0.784400  1.0
  H  H1057  1  0.306800  0.725800  0.480900  1.0
  H  H1058  1  0.306800  0.225800  0.980900  1.0
  H  H1059  1  0.806800  0.774200  0.519100  1.0
  H  H1060  1  0.693200  0.274200  0.480900  1.0
  H  H1061  1  0.193200  0.225800  0.519100  1.0
  H  H1062  1  0.806800  0.274200  0.019100  1.0
  H  H1063  1  0.693200  0.774200  0.980900  1.0
  H  H1064  1  0.193200  0.725800  0.019100  1.0
  H  H1065  1  0.693200  0.274200  0.519100  1.0
  H  H1066  1  0.693200  0.774200  0.019100  1.0
  H  H1067  1  0.193200  0.225800  0.480900  1.0
  H  H1068  1  0.306800  0.725800  0.519100  1.0
  H  H1069  1  0.806800  0.774200  0.480900  1.0
  H  H1070  1  0.193200  0.725800  0.980900  1.0
  H  H1071  1  0.306800  0.225800  0.019100  1.0
  H  H1072  1  0.806800  0.274200  0.980900  1.0
  H  H1073  1  0.884900  0.778400  0.249000  1.0
  H  H1074  1  0.884900  0.278400  0.749000  1.0
  H  H1075  1  0.384900  0.721600  0.751000  1.0
  H  H1076  1  0.115100  0.221600  0.249000  1.0
  H  H1077  1  0.615100  0.278400  0.751000  1.0
  H  H1078  1  0.384900  0.221600  0.251000  1.0
  H  H1079  1  0.115100  0.721600  0.749000  1.0
  H  H1080  1  0.615100  0.778400  0.251000  1.0
  H  H1081  1  0.115100  0.221600  0.751000  1.0
  H  H1082  1  0.115100  0.721600  0.251000  1.0
  H  H1083  1  0.615100  0.278400  0.249000  1.0
  H  H1084  1  0.884900  0.778400  0.751000  1.0
  H  H1085  1  0.384900  0.721600  0.249000  1.0
  H  H1086  1  0.615100  0.778400  0.749000  1.0
  H  H1087  1  0.884900  0.278400  0.251000  1.0
  H  H1088  1  0.384900  0.221600  0.749000  1.0
  H  H1089  1  0.892300  0.743400  0.266000  1.0
  H  H1090  1  0.892300  0.243400  0.766000  1.0
  H  H1091  1  0.392300  0.756600  0.734000  1.0
  H  H1092  1  0.107700  0.256600  0.266000  1.0
  H  H1093  1  0.607700  0.243400  0.734000  1.0
  H  H1094  1  0.392300  0.256600  0.234000  1.0
  H  H1095  1  0.107700  0.756600  0.766000  1.0
  H  H1096  1  0.607700  0.743400  0.234000  1.0
  H  H1097  1  0.107700  0.256600  0.734000  1.0
  H  H1098  1  0.107700  0.756600  0.234000  1.0
  H  H1099  1  0.607700  0.243400  0.266000  1.0
  H  H1100  1  0.892300  0.743400  0.734000  1.0
  H  H1101  1  0.392300  0.756600  0.266000  1.0
  H  H1102  1  0.607700  0.743400  0.766000  1.0
  H  H1103  1  0.892300  0.243400  0.234000  1.0
  H  H1104  1  0.392300  0.256600  0.766000  1.0
  H  H1105  1  0.919500  0.755300  0.204800  1.0
  H  H1106  1  0.919500  0.255300  0.704800  1.0
  H  H1107  1  0.419500  0.744700  0.795200  1.0
  H  H1108  1  0.080500  0.244700  0.204800  1.0
  H  H1109  1  0.580500  0.255300  0.795200  1.0
  H  H1110  1  0.419500  0.244700  0.295200  1.0
  H  H1111  1  0.080500  0.744700  0.704800  1.0
  H  H1112  1  0.580500  0.755300  0.295200  1.0
  H  H1113  1  0.080500  0.244700  0.795200  1.0
  H  H1114  1  0.080500  0.744700  0.295200  1.0
  H  H1115  1  0.580500  0.255300  0.204800  1.0
  H  H1116  1  0.919500  0.755300  0.795200  1.0
  H  H1117  1  0.419500  0.744700  0.204800  1.0
  H  H1118  1  0.580500  0.755300  0.704800  1.0
  H  H1119  1  0.919500  0.255300  0.295200  1.0
  H  H1120  1  0.419500  0.244700  0.704800  1.0
  H  H1121  1  0.939500  0.725600  0.225600  1.0
  H  H1122  1  0.939500  0.225600  0.725600  1.0
  H  H1123  1  0.439500  0.774400  0.774400  1.0
  H  H1124  1  0.060500  0.274400  0.225600  1.0
  H  H1125  1  0.560500  0.225600  0.774400  1.0
  H  H1126  1  0.439500  0.274400  0.274400  1.0
  H  H1127  1  0.060500  0.774400  0.725600  1.0
  H  H1128  1  0.560500  0.725600  0.274400  1.0
  H  H1129  1  0.060500  0.274400  0.774400  1.0
  H  H1130  1  0.060500  0.774400  0.274400  1.0
  H  H1131  1  0.560500  0.225600  0.225600  1.0
  H  H1132  1  0.939500  0.725600  0.774400  1.0
  H  H1133  1  0.439500  0.774400  0.225600  1.0
  H  H1134  1  0.560500  0.725600  0.725600  1.0
  H  H1135  1  0.939500  0.225600  0.274400  1.0
  H  H1136  1  0.439500  0.274400  0.725600  1.0
  H  H1137  1  0.965800  0.759900  0.224400  1.0
  H  H1138  1  0.965800  0.259900  0.724400  1.0
  H  H1139  1  0.465800  0.740100  0.775600  1.0
  H  H1140  1  0.034200  0.240100  0.224400  1.0
  H  H1141  1  0.534200  0.259900  0.775600  1.0
  H  H1142  1  0.465800  0.240100  0.275600  1.0
  H  H1143  1  0.034200  0.740100  0.724400  1.0
  H  H1144  1  0.534200  0.759900  0.275600  1.0
  H  H1145  1  0.034200  0.240100  0.775600  1.0
  H  H1146  1  0.034200  0.740100  0.275600  1.0
  H  H1147  1  0.534200  0.259900  0.224400  1.0
  H  H1148  1  0.965800  0.759900  0.775600  1.0
  H  H1149  1  0.465800  0.740100  0.224400  1.0
  H  H1150  1  0.534200  0.759900  0.724400  1.0
  H  H1151  1  0.965800  0.259900  0.275600  1.0
  H  H1152  1  0.465800  0.240100  0.724400  1.0
  C  C1153  1  0.102600  0.898500  0.406700  1
  C  C1154  1  0.102600  0.398500  0.906700  1
  C  C1155  1  0.602600  0.601500  0.593300  1
  C  C1156  1  0.897400  0.101500  0.406700  1
  C  C1157  1  0.397400  0.398500  0.593300  1
  C  C1158  1  0.602600  0.101500  0.093300  1
  C  C1159  1  0.897400  0.601500  0.906700  1
  C  C1160  1  0.397400  0.898500  0.093300  1
  C  C1161  1  0.897400  0.101500  0.593300  1
  C  C1162  1  0.897400  0.601500  0.093300  1
  C  C1163  1  0.397400  0.398500  0.406700  1
  C  C1164  1  0.102600  0.898500  0.593300  1
  C  C1165  1  0.602600  0.601500  0.406700  1
  C  C1166  1  0.397400  0.898500  0.906700  1
  C  C1167  1  0.102600  0.398500  0.093300  1
  C  C1168  1  0.602600  0.101500  0.906700  1
  C  C1169  1  0.067800  0.881900  0.429100  1
  C  C1170  1  0.067800  0.381900  0.929100  1
  C  C1171  1  0.567800  0.618100  0.570900  1
  C  C1172  1  0.932200  0.118100  0.429100  1
  C  C1173  1  0.432200  0.381900  0.570900  1
  C  C1174  1  0.567800  0.118100  0.070900  1
  C  C1175  1  0.932200  0.618100  0.929100  1
  C  C1176  1  0.432200  0.881900  0.070900  1
  C  C1177  1  0.932200  0.118100  0.570900  1
  C  C1178  1  0.932200  0.618100  0.070900  1
  C  C1179  1  0.432200  0.381900  0.429100  1
  C  C1180  1  0.067800  0.881900  0.570900  1
  C  C1181  1  0.567800  0.618100  0.429100  1
  C  C1182  1  0.432200  0.881900  0.929100  1
  C  C1183  1  0.067800  0.381900  0.070900  1
  C  C1184  1  0.567800  0.118100  0.929100  1
  C  C1185  1  0.994000  0.967900  0.317000  1
  C  C1186  1  0.994000  0.467900  0.817000  1
  C  C1187  1  0.494000  0.532100  0.683000  1
  C  C1188  1  0.006000  0.032100  0.317000  1
  C  C1189  1  0.506000  0.467900  0.683000  1
  C  C1190  1  0.494000  0.032100  0.183000  1
  C  C1191  1  0.006000  0.532100  0.817000  1
  C  C1192  1  0.506000  0.967900  0.183000  1
  C  C1193  1  0.006000  0.032100  0.683000  1
  C  C1194  1  0.006000  0.532100  0.183000  1
  C  C1195  1  0.506000  0.467900  0.317000  1
  C  C1196  1  0.994000  0.967900  0.683000  1
  C  C1197  1  0.494000  0.532100  0.317000  1
  C  C1198  1  0.506000  0.967900  0.817000  1
  C  C1199  1  0.994000  0.467900  0.183000  1
  C  C1200  1  0.494000  0.032100  0.817000  1
  C  C1201  1  0.036000  0.992000  0.320500  1
  C  C1202  1  0.036000  0.492000  0.820500  1
  C  C1203  1  0.536000  0.508000  0.679500  1
  C  C1204  1  0.964000  0.008000  0.320500  1
  C  C1205  1  0.464000  0.492000  0.679500  1
  C  C1206  1  0.536000  0.008000  0.179500  1
  C  C1207  1  0.964000  0.508000  0.820500  1
  C  C1208  1  0.464000  0.992000  0.179500  1
  C  C1209  1  0.964000  0.008000  0.679500  1
  C  C1210  1  0.964000  0.508000  0.179500  1
  C  C1211  1  0.464000  0.492000  0.320500  1
  C  C1212  1  0.036000  0.992000  0.679500  1
  C  C1213  1  0.536000  0.508000  0.320500  1
  C  C1214  1  0.464000  0.992000  0.820500  1
  C  C1215  1  0.036000  0.492000  0.179500  1
  C  C1216  1  0.536000  0.008000  0.820500  1
  C  C1217  1  0.848300  0.921500  0.403100  1
  C  C1218  1  0.848300  0.421500  0.903100  1
  C  C1219  1  0.348300  0.578500  0.596900  1
  C  C1220  1  0.151700  0.078500  0.403100  1
  C  C1221  1  0.651700  0.421500  0.596900  1
  C  C1222  1  0.348300  0.078500  0.096900  1
  C  C1223  1  0.151700  0.578500  0.903100  1
  C  C1224  1  0.651700  0.921500  0.096900  1
  C  C1225  1  0.151700  0.078500  0.596900  1
  C  C1226  1  0.151700  0.578500  0.096900  1
  C  C1227  1  0.651700  0.421500  0.403100  1
  C  C1228  1  0.848300  0.921500  0.596900  1
  C  C1229  1  0.348300  0.578500  0.403100  1
  C  C1230  1  0.651700  0.921500  0.903100  1
  C  C1231  1  0.848300  0.421500  0.096900  1
  C  C1232  1  0.348300  0.078500  0.903100  1
  C  C1233  1  0.890800  0.937800  0.388800  1
  C  C1234  1  0.890800  0.437800  0.888800  1
  C  C1235  1  0.390800  0.562200  0.611200  1
  C  C1236  1  0.109200  0.062200  0.388800  1
  C  C1237  1  0.609200  0.437800  0.611200  1
  C  C1238  1  0.390800  0.062200  0.111200  1
  C  C1239  1  0.109200  0.562200  0.888800  1
  C  C1240  1  0.609200  0.937800  0.111200  1
  C  C1241  1  0.109200  0.062200  0.611200  1
  C  C1242  1  0.109200  0.562200  0.111200  1
  C  C1243  1  0.609200  0.437800  0.388800  1
  C  C1244  1  0.890800  0.937800  0.611200  1
  C  C1245  1  0.390800  0.562200  0.388800  1
  C  C1246  1  0.609200  0.937800  0.888800  1
  C  C1247  1  0.890800  0.437800  0.111200  1
  C  C1248  1  0.390800  0.062200  0.888800  1
  C  C1249  1  0.648700  0.031100  0.279000  1
  C  C1250  1  0.648700  0.531100  0.779000  1
  C  C1251  1  0.148700  0.468900  0.721000  1
  C  C1252  1  0.351300  0.968900  0.279000  1
  C  C1253  1  0.851300  0.531100  0.721000  1
  C  C1254  1  0.148700  0.968900  0.221000  1
  C  C1255  1  0.351300  0.468900  0.779000  1
  C  C1256  1  0.851300  0.031100  0.221000  1
  C  C1257  1  0.351300  0.968900  0.721000  1
  C  C1258  1  0.351300  0.468900  0.221000  1
  C  C1259  1  0.851300  0.531100  0.279000  1
  C  C1260  1  0.648700  0.031100  0.721000  1
  C  C1261  1  0.148700  0.468900  0.279000  1
  C  C1262  1  0.851300  0.031100  0.779000  1
  C  C1263  1  0.648700  0.531100  0.221000  1
  C  C1264  1  0.148700  0.968900  0.779000  1
  C  C1265  1  0.624300  0.048900  0.305400  1
  C  C1266  1  0.624300  0.548900  0.805400  1
  C  C1267  1  0.124300  0.451100  0.694600  1
  C  C1268  1  0.375700  0.951100  0.305400  1
  C  C1269  1  0.875700  0.548900  0.694600  1
  C  C1270  1  0.124300  0.951100  0.194600  1
  C  C1271  1  0.375700  0.451100  0.805400  1
  C  C1272  1  0.875700  0.048900  0.194600  1
  C  C1273  1  0.375700  0.951100  0.694600  1
  C  C1274  1  0.375700  0.451100  0.194600  1
  C  C1275  1  0.875700  0.548900  0.305400  1
  C  C1276  1  0.624300  0.048900  0.694600  1
  C  C1277  1  0.124300  0.451100  0.305400  1
  C  C1278  1  0.875700  0.048900  0.805400  1
  C  C1279  1  0.624300  0.548900  0.194600  1
  C  C1280  1  0.124300  0.951100  0.805400  1
  C  C1281  1  0.595500  0.796900  0.500000  1
  C  C1282  1  0.595500  0.296900  0.000000  1
  C  C1283  1  0.095500  0.703100  0.500000  1
  C  C1284  1  0.404500  0.203100  0.500000  1
  C  C1285  1  0.904500  0.296900  0.500000  1
  C  C1286  1  0.095500  0.203100  0.000000  1
  C  C1287  1  0.404500  0.703100  0.000000  1
  C  C1288  1  0.904500  0.796900  0.000000  1
  C  C1289  1  0.546100  0.811600  0.500000  1
  C  C1290  1  0.546100  0.311600  0.000000  1
  C  C1291  1  0.046100  0.688400  0.500000  1
  C  C1292  1  0.453900  0.188400  0.500000  1
  C  C1293  1  0.953900  0.311600  0.500000  1
  C  C1294  1  0.046100  0.188400  0.000000  1
  C  C1295  1  0.453900  0.688400  0.000000  1
  C  C1296  1  0.953900  0.811600  0.000000  1
  C  C1297  1  0.769000  0.033000  0.524000  1
  C  C1298  1  0.769000  0.533000  0.024000  1
  C  C1299  1  0.269000  0.467000  0.476000  1
  C  C1300  1  0.231000  0.967000  0.524000  1
  C  C1301  1  0.731000  0.533000  0.476000  1
  C  C1302  1  0.269000  0.967000  0.976000  1
  C  C1303  1  0.231000  0.467000  0.024000  1
  C  C1304  1  0.731000  0.033000  0.976000  1
  C  C1305  1  0.231000  0.967000  0.476000  1
  C  C1306  1  0.231000  0.467000  0.976000  1
  C  C1307  1  0.731000  0.533000  0.524000  1
  C  C1308  1  0.769000  0.033000  0.476000  1
  C  C1309  1  0.269000  0.467000  0.524000  1
  C  C1310  1  0.731000  0.033000  0.024000  1
  C  C1311  1  0.769000  0.533000  0.976000  1
  C  C1312  1  0.269000  0.967000  0.024000  1
  C  C1313  1  0.769000  0.063000  0.500000  1
  C  C1314  1  0.769000  0.563000  0.000000  1
  C  C1315  1  0.269000  0.437000  0.500000  1
  C  C1316  1  0.231000  0.937000  0.500000  1
  C  C1317  1  0.731000  0.563000  0.500000  1
  C  C1318  1  0.269000  0.937000  0.000000  1
  C  C1319  1  0.231000  0.437000  0.000000  1
  C  C1320  1  0.731000  0.063000  0.000000  1
  C  C1321  1  0.391000  0.883000  0.500000  1
  C  C1322  1  0.391000  0.383000  0.000000  1
  C  C1323  1  0.891000  0.617000  0.500000  1
  C  C1324  1  0.609000  0.117000  0.500000  1
  C  C1325  1  0.109000  0.383000  0.500000  1
  C  C1326  1  0.891000  0.117000  0.000000  1
  C  C1327  1  0.609000  0.617000  0.000000  1
  C  C1328  1  0.109000  0.883000  0.000000  1
  C  C1329  1  0.377000  0.919000  0.500000  1
  C  C1330  1  0.377000  0.419000  0.000000  1
  C  C1331  1  0.877000  0.581000  0.500000  1
  C  C1332  1  0.623000  0.081000  0.500000  1
  C  C1333  1  0.123000  0.419000  0.500000  1
  C  C1334  1  0.877000  0.081000  0.000000  1
  C  C1335  1  0.623000  0.581000  0.000000  1
  C  C1336  1  0.123000  0.919000  0.000000  1
  C  C1337  1  0.561000  0.977800  0.500000  1
  C  C1338  1  0.561000  0.477800  0.000000  1
  C  C1339  1  0.061000  0.522200  0.500000  1
  C  C1340  1  0.439000  0.022200  0.500000  1
  C  C1341  1  0.939000  0.477800  0.500000  1
  C  C1342  1  0.061000  0.022200  0.000000  1
  C  C1343  1  0.439000  0.522200  0.000000  1
  C  C1344  1  0.939000  0.977800  0.000000  1
  C  C1345  1  0.607000  0.996000  0.500000  1
  C  C1346  1  0.607000  0.496000  0.000000  1
  C  C1347  1  0.107000  0.504000  0.500000  1
  C  C1348  1  0.393000  0.004000  0.500000  1
  C  C1349  1  0.893000  0.496000  0.500000  1
  C  C1350  1  0.107000  0.004000  0.000000  1
  C  C1351  1  0.393000  0.504000  0.000000  1
  C  C1352  1  0.893000  0.996000  0.000000  1
  C  C1353  1  0.750000  0.815000  0.250000  1
  C  C1354  1  0.750000  0.315000  0.750000  1
  C  C1355  1  0.250000  0.685000  0.750000  1
  C  C1356  1  0.250000  0.185000  0.250000  1
  C  C1357  1  0.250000  0.185000  0.750000  1
  C  C1358  1  0.250000  0.685000  0.250000  1
  C  C1359  1  0.750000  0.315000  0.250000  1
  C  C1360  1  0.750000  0.815000  0.750000  1
  C  C1361  1  0.795000  0.807900  0.268600  1
  C  C1362  1  0.795000  0.307900  0.768600  1
  C  C1363  1  0.295000  0.692100  0.731400  1
  C  C1364  1  0.205000  0.192100  0.268600  1
  C  C1365  1  0.705000  0.307900  0.731400  1
  C  C1366  1  0.295000  0.192100  0.231400  1
  C  C1367  1  0.205000  0.692100  0.768600  1
  C  C1368  1  0.705000  0.807900  0.231400  1
  C  C1369  1  0.205000  0.192100  0.731400  1
  C  C1370  1  0.205000  0.692100  0.231400  1
  C  C1371  1  0.705000  0.307900  0.268600  1
  C  C1372  1  0.795000  0.807900  0.731400  1
  C  C1373  1  0.295000  0.692100  0.268600  1
  C  C1374  1  0.705000  0.807900  0.768600  1
  C  C1375  1  0.795000  0.307900  0.231400  1
  C  C1376  1  0.295000  0.192100  0.768600  1
  C  C1377  1  0.949900  0.828800  0.477300  1
  C  C1378  1  0.949900  0.328800  0.977300  1
  C  C1379  1  0.449900  0.671200  0.522700  1
  C  C1380  1  0.050100  0.171200  0.477300  1
  C  C1381  1  0.550100  0.328800  0.522700  1
  C  C1382  1  0.449900  0.171200  0.022700  1
  C  C1383  1  0.050100  0.671200  0.977300  1
  C  C1384  1  0.550100  0.828800  0.022700  1
  C  C1385  1  0.050100  0.171200  0.522700  1
  C  C1386  1  0.050100  0.671200  0.022700  1
  C  C1387  1  0.550100  0.328800  0.477300  1
  C  C1388  1  0.949900  0.828800  0.522700  1
  C  C1389  1  0.449900  0.671200  0.477300  1
  C  C1390  1  0.550100  0.828800  0.977300  1
  C  C1391  1  0.949900  0.328800  0.022700  1
  C  C1392  1  0.449900  0.171200  0.977300  1
  C  C1393  1  0.992000  0.823900  0.500000  1
  C  C1394  1  0.992000  0.323900  0.000000  1
  C  C1395  1  0.492000  0.676100  0.500000  1
  C  C1396  1  0.008000  0.176100  0.500000  1
  C  C1397  1  0.508000  0.323900  0.500000  1
  C  C1398  1  0.492000  0.176100  0.000000  1
  C  C1399  1  0.008000  0.676100  0.000000  1
  C  C1400  1  0.508000  0.823900  0.000000  1
  C  C1401  1  0.298100  0.739000  0.500000  1.0
  C  C1402  1  0.298100  0.239000  0.000000  1.0
  C  C1403  1  0.798100  0.761000  0.500000  1.0
  C  C1404  1  0.701900  0.261000  0.500000  1.0
  C  C1405  1  0.201900  0.239000  0.500000  1.0
  C  C1406  1  0.798100  0.261000  0.000000  1.0
  C  C1407  1  0.701900  0.761000  0.000000  1.0
  C  C1408  1  0.201900  0.739000  0.000000  1.0
  C  C1409  1  0.328100  0.766700  0.500000  1.0
  C  C1410  1  0.328100  0.266700  0.000000  1.0
  C  C1411  1  0.828100  0.733300  0.500000  1.0
  C  C1412  1  0.671900  0.233300  0.500000  1.0
  C  C1413  1  0.171900  0.266700  0.500000  1.0
  C  C1414  1  0.828100  0.233300  0.000000  1.0
  C  C1415  1  0.671900  0.733300  0.000000  1.0
  C  C1416  1  0.171900  0.766700  0.000000  1.0
  C  C1417  1  0.272600  0.010100  0.366400  1.0
  C  C1418  1  0.272600  0.510100  0.866400  1.0
  C  C1419  1  0.772600  0.489900  0.633600  1.0
  C  C1420  1  0.727400  0.989900  0.366400  1.0
  C  C1421  1  0.227400  0.510100  0.633600  1.0
  C  C1422  1  0.772600  0.989900  0.133600  1.0
  C  C1423  1  0.727400  0.489900  0.866400  1.0
  C  C1424  1  0.227400  0.010100  0.133600  1.0
  C  C1425  1  0.727400  0.989900  0.633600  1.0
  C  C1426  1  0.727400  0.489900  0.133600  1.0
  C  C1427  1  0.227400  0.510100  0.366400  1.0
  C  C1428  1  0.272600  0.010100  0.633600  1.0
  C  C1429  1  0.772600  0.489900  0.366400  1.0
  C  C1430  1  0.227400  0.010100  0.866400  1.0
  C  C1431  1  0.272600  0.510100  0.133600  1.0
  C  C1432  1  0.772600  0.989900  0.866400  1.0
  C  C1433  1  0.765500  0.833400  0.455100  1.0
  C  C1434  1  0.765500  0.333400  0.955100  1.0
  C  C1435  1  0.265500  0.666600  0.544900  1.0
  C  C1436  1  0.234500  0.166600  0.455100  1.0
  C  C1437  1  0.734500  0.333400  0.544900  1.0
  C  C1438  1  0.265500  0.166600  0.044900  1.0
  C  C1439  1  0.234500  0.666600  0.955100  1.0
  C  C1440  1  0.734500  0.833400  0.044900  1.0
  C  C1441  1  0.234500  0.166600  0.544900  1.0
  C  C1442  1  0.234500  0.666600  0.044900  1.0
  C  C1443  1  0.734500  0.333400  0.455100  1.0
  C  C1444  1  0.765500  0.833400  0.544900  1.0
  C  C1445  1  0.265500  0.666600  0.455100  1.0
  C  C1446  1  0.734500  0.833400  0.955100  1.0
  C  C1447  1  0.765500  0.333400  0.044900  1.0
  C  C1448  1  0.265500  0.166600  0.955100  1.0
  C  C1449  1  0.227300  0.834200  0.456000  1.0
  C  C1450  1  0.227300  0.334200  0.956000  1.0
  C  C1451  1  0.727300  0.665800  0.544000  1.0
  C  C1452  1  0.772700  0.165800  0.456000  1.0
  C  C1453  1  0.272700  0.334200  0.544000  1.0
  C  C1454  1  0.727300  0.165800  0.044000  1.0
  C  C1455  1  0.772700  0.665800  0.956000  1.0
  C  C1456  1  0.272700  0.834200  0.044000  1.0
  C  C1457  1  0.772700  0.165800  0.544000  1.0
  C  C1458  1  0.772700  0.665800  0.044000  1.0
  C  C1459  1  0.272700  0.334200  0.456000  1.0
  C  C1460  1  0.227300  0.834200  0.544000  1.0
  C  C1461  1  0.727300  0.665800  0.456000  1.0
  C  C1462  1  0.272700  0.834200  0.956000  1.0
  C  C1463  1  0.227300  0.334200  0.044000  1.0
  C  C1464  1  0.727300  0.165800  0.956000  1.0
  C  C1465  1  0.129500  0.780300  0.456800  1.0
  C  C1466  1  0.129500  0.280300  0.956800  1.0
  C  C1467  1  0.629500  0.719700  0.543200  1.0
  C  C1468  1  0.870500  0.219700  0.456800  1.0
  C  C1469  1  0.370500  0.280300  0.543200  1.0
  C  C1470  1  0.629500  0.219700  0.043200  1.0
  C  C1471  1  0.870500  0.719700  0.956800  1.0
  C  C1472  1  0.370500  0.780300  0.043200  1.0
  C  C1473  1  0.870500  0.219700  0.543200  1.0
  C  C1474  1  0.870500  0.719700  0.043200  1.0
  C  C1475  1  0.370500  0.280300  0.456800  1.0
  C  C1476  1  0.129500  0.780300  0.543200  1.0
  C  C1477  1  0.629500  0.719700  0.456800  1.0
  C  C1478  1  0.370500  0.780300  0.956800  1.0
  C  C1479  1  0.129500  0.280300  0.043200  1.0
  C  C1480  1  0.629500  0.219700  0.956800  1.0
  C  C1481  1  0.029800  0.854000  0.308200  1.0
  C  C1482  1  0.029800  0.354000  0.808200  1.0
  C  C1483  1  0.529800  0.646000  0.691800  1.0
  C  C1484  1  0.970200  0.146000  0.308200  1.0
  C  C1485  1  0.470200  0.354000  0.691800  1.0
  C  C1486  1  0.529800  0.146000  0.191800  1.0
  C  C1487  1  0.970200  0.646000  0.808200  1.0
  C  C1488  1  0.470200  0.854000  0.191800  1.0
  C  C1489  1  0.970200  0.146000  0.691800  1.0
  C  C1490  1  0.970200  0.646000  0.191800  1.0
  C  C1491  1  0.470200  0.354000  0.308200  1.0
  C  C1492  1  0.029800  0.854000  0.691800  1.0
  C  C1493  1  0.529800  0.646000  0.308200  1.0
  C  C1494  1  0.470200  0.854000  0.808200  1.0
  C  C1495  1  0.029800  0.354000  0.191800  1.0
  C  C1496  1  0.529800  0.146000  0.808200  1.0
  C  C1497  1  0.169900  0.929300  0.306200  1.0
  C  C1498  1  0.169900  0.429300  0.806200  1.0
  C  C1499  1  0.669900  0.570700  0.693800  1.0
  C  C1500  1  0.830100  0.070700  0.306200  1.0
  C  C1501  1  0.330100  0.429300  0.693800  1.0
  C  C1502  1  0.669900  0.070700  0.193800  1.0
  C  C1503  1  0.830100  0.570700  0.806200  1.0
  C  C1504  1  0.330100  0.929300  0.193800  1.0
  C  C1505  1  0.830100  0.070700  0.693800  1.0
  C  C1506  1  0.830100  0.570700  0.193800  1.0
  C  C1507  1  0.330100  0.429300  0.306200  1.0
  C  C1508  1  0.169900  0.929300  0.693800  1.0
  C  C1509  1  0.669900  0.570700  0.306200  1.0
  C  C1510  1  0.330100  0.929300  0.806200  1.0
  C  C1511  1  0.169900  0.429300  0.193800  1.0
  C  C1512  1  0.669900  0.070700  0.806200  1.0
  C  C1513  1  0.909100  0.877700  0.306900  1.0
  C  C1514  1  0.909100  0.377700  0.806900  1.0
  C  C1515  1  0.409100  0.622300  0.693100  1.0
  C  C1516  1  0.090900  0.122300  0.306900  1.0
  C  C1517  1  0.590900  0.377700  0.693100  1.0
  C  C1518  1  0.409100  0.122300  0.193100  1.0
  C  C1519  1  0.090900  0.622300  0.806900  1.0
  C  C1520  1  0.590900  0.877700  0.193100  1.0
  C  C1521  1  0.090900  0.122300  0.693100  1.0
  C  C1522  1  0.090900  0.622300  0.193100  1.0
  C  C1523  1  0.590900  0.377700  0.306900  1.0
  C  C1524  1  0.909100  0.877700  0.693100  1.0
  C  C1525  1  0.409100  0.622300  0.306900  1.0
  C  C1526  1  0.590900  0.877700  0.806900  1.0
  C  C1527  1  0.909100  0.377700  0.193100  1.0
  C  C1528  1  0.409100  0.122300  0.806900  1.0
  C  C1529  1  0.266900  0.891900  0.386100  1.0
  C  C1530  1  0.266900  0.391900  0.886100  1.0
  C  C1531  1  0.766900  0.608100  0.613900  1.0
  C  C1532  1  0.733100  0.108100  0.386100  1.0
  C  C1533  1  0.233100  0.391900  0.613900  1.0
  C  C1534  1  0.766900  0.108100  0.113900  1.0
  C  C1535  1  0.733100  0.608100  0.886100  1.0
  C  C1536  1  0.233100  0.891900  0.113900  1.0
  C  C1537  1  0.733100  0.108100  0.613900  1.0
  C  C1538  1  0.733100  0.608100  0.113900  1.0
  C  C1539  1  0.233100  0.391900  0.386100  1.0
  C  C1540  1  0.266900  0.891900  0.613900  1.0
  C  C1541  1  0.766900  0.608100  0.386100  1.0
  C  C1542  1  0.233100  0.891900  0.886100  1.0
  C  C1543  1  0.266900  0.391900  0.113900  1.0
  C  C1544  1  0.766900  0.108100  0.886100  1.0
  C  C1545  1  0.840600  0.806400  0.383000  1.0
  C  C1546  1  0.840600  0.306400  0.883000  1.0
  C  C1547  1  0.340600  0.693600  0.617000  1.0
  C  C1548  1  0.159400  0.193600  0.383000  1.0
  C  C1549  1  0.659400  0.306400  0.617000  1.0
  C  C1550  1  0.340600  0.193600  0.117000  1.0
  C  C1551  1  0.159400  0.693600  0.883000  1.0
  C  C1552  1  0.659400  0.806400  0.117000  1.0
  C  C1553  1  0.159400  0.193600  0.617000  1.0
  C  C1554  1  0.159400  0.693600  0.117000  1.0
  C  C1555  1  0.659400  0.306400  0.383000  1.0
  C  C1556  1  0.840600  0.806400  0.617000  1.0
  C  C1557  1  0.340600  0.693600  0.383000  1.0
  C  C1558  1  0.659400  0.806400  0.883000  1.0
  C  C1559  1  0.840600  0.306400  0.117000  1.0
  C  C1560  1  0.340600  0.193600  0.883000  1.0
  C  C1561  1  0.100600  0.891000  0.304600  1.0
  C  C1562  1  0.100600  0.391000  0.804600  1.0
  C  C1563  1  0.600600  0.609000  0.695400  1.0
  C  C1564  1  0.899400  0.109000  0.304600  1.0
  C  C1565  1  0.399400  0.391000  0.695400  1.0
  C  C1566  1  0.600600  0.109000  0.195400  1.0
  C  C1567  1  0.899400  0.609000  0.804600  1.0
  C  C1568  1  0.399400  0.891000  0.195400  1.0
  C  C1569  1  0.899400  0.109000  0.695400  1.0
  C  C1570  1  0.899400  0.609000  0.195400  1.0
  C  C1571  1  0.399400  0.391000  0.304600  1.0
  C  C1572  1  0.100600  0.891000  0.695400  1.0
  C  C1573  1  0.600600  0.609000  0.304600  1.0
  C  C1574  1  0.399400  0.891000  0.804600  1.0
  C  C1575  1  0.100600  0.391000  0.195400  1.0
  C  C1576  1  0.600600  0.109000  0.804600  1.0
  C  C1577  1  0.782500  0.814000  0.426000  1.0
  C  C1578  1  0.782500  0.314000  0.926000  1.0
  C  C1579  1  0.282500  0.686000  0.574000  1.0
  C  C1580  1  0.217500  0.186000  0.426000  1.0
  C  C1581  1  0.717500  0.314000  0.574000  1.0
  C  C1582  1  0.282500  0.186000  0.074000  1.0
  C  C1583  1  0.217500  0.686000  0.926000  1.0
  C  C1584  1  0.717500  0.814000  0.074000  1.0
  C  C1585  1  0.217500  0.186000  0.574000  1.0
  C  C1586  1  0.217500  0.686000  0.074000  1.0
  C  C1587  1  0.717500  0.314000  0.426000  1.0
  C  C1588  1  0.782500  0.814000  0.574000  1.0
  C  C1589  1  0.282500  0.686000  0.426000  1.0
  C  C1590  1  0.717500  0.814000  0.926000  1.0
  C  C1591  1  0.782500  0.314000  0.074000  1.0
  C  C1592  1  0.282500  0.186000  0.926000  1.0
  C  C1593  1  0.884500  0.816500  0.366700  1.0
  C  C1594  1  0.884500  0.316500  0.866700  1.0
  C  C1595  1  0.384500  0.683500  0.633300  1.0
  C  C1596  1  0.115500  0.183500  0.366700  1.0
  C  C1597  1  0.615500  0.316500  0.633300  1.0
  C  C1598  1  0.384500  0.183500  0.133300  1.0
  C  C1599  1  0.115500  0.683500  0.866700  1.0
  C  C1600  1  0.615500  0.816500  0.133300  1.0
  C  C1601  1  0.115500  0.183500  0.633300  1.0
  C  C1602  1  0.115500  0.683500  0.133300  1.0
  C  C1603  1  0.615500  0.316500  0.366700  1.0
  C  C1604  1  0.884500  0.816500  0.633300  1.0
  C  C1605  1  0.384500  0.683500  0.366700  1.0
  C  C1606  1  0.615500  0.816500  0.866700  1.0
  C  C1607  1  0.884500  0.316500  0.133300  1.0
  C  C1608  1  0.384500  0.183500  0.866700  1.0
  C  C1609  1  0.251100  0.922200  0.367900  1.0
  C  C1610  1  0.251100  0.422200  0.867900  1.0
  C  C1611  1  0.751100  0.577800  0.632100  1.0
  C  C1612  1  0.748900  0.077800  0.367900  1.0
  C  C1613  1  0.248900  0.422200  0.632100  1.0
  C  C1614  1  0.751100  0.077800  0.132100  1.0
  C  C1615  1  0.748900  0.577800  0.867900  1.0
  C  C1616  1  0.248900  0.922200  0.132100  1.0
  C  C1617  1  0.748900  0.077800  0.632100  1.0
  C  C1618  1  0.748900  0.577800  0.132100  1.0
  C  C1619  1  0.248900  0.422200  0.367900  1.0
  C  C1620  1  0.251100  0.922200  0.632100  1.0
  C  C1621  1  0.751100  0.577800  0.367900  1.0
  C  C1622  1  0.248900  0.922200  0.867900  1.0
  C  C1623  1  0.251100  0.422200  0.132100  1.0
  C  C1624  1  0.751100  0.077800  0.867900  1.0
  C  C1625  1  0.007800  0.795800  0.370500  1.0
  C  C1626  1  0.007800  0.295800  0.870500  1.0
  C  C1627  1  0.507800  0.704200  0.629500  1.0
  C  C1628  1  0.992200  0.204200  0.370500  1.0
  C  C1629  1  0.492200  0.295800  0.629500  1.0
  C  C1630  1  0.507800  0.204200  0.129500  1.0
  C  C1631  1  0.992200  0.704200  0.870500  1.0
  C  C1632  1  0.492200  0.795800  0.129500  1.0
  C  C1633  1  0.992200  0.204200  0.629500  1.0
  C  C1634  1  0.992200  0.704200  0.129500  1.0
  C  C1635  1  0.492200  0.295800  0.370500  1.0
  C  C1636  1  0.007800  0.795800  0.629500  1.0
  C  C1637  1  0.507800  0.704200  0.370500  1.0
  C  C1638  1  0.492200  0.795800  0.870500  1.0
  C  C1639  1  0.007800  0.295800  0.129500  1.0
  C  C1640  1  0.507800  0.204200  0.870500  1.0
  C  C1641  1  0.039200  0.773100  0.388500  1.0
  C  C1642  1  0.039200  0.273100  0.888500  1.0
  C  C1643  1  0.539200  0.726900  0.611500  1.0
  C  C1644  1  0.960800  0.226900  0.388500  1.0
  C  C1645  1  0.460800  0.273100  0.611500  1.0
  C  C1646  1  0.539200  0.226900  0.111500  1.0
  C  C1647  1  0.960800  0.726900  0.888500  1.0
  C  C1648  1  0.460800  0.773100  0.111500  1.0
  C  C1649  1  0.960800  0.226900  0.611500  1.0
  C  C1650  1  0.960800  0.726900  0.111500  1.0
  C  C1651  1  0.460800  0.273100  0.388500  1.0
  C  C1652  1  0.039200  0.773100  0.611500  1.0
  C  C1653  1  0.539200  0.726900  0.388500  1.0
  C  C1654  1  0.460800  0.773100  0.888500  1.0
  C  C1655  1  0.039200  0.273100  0.111500  1.0
  C  C1656  1  0.539200  0.226900  0.888500  1.0
  C  C1657  1  0.066100  0.785000  0.414400  1.0
  C  C1658  1  0.066100  0.285000  0.914400  1.0
  C  C1659  1  0.566100  0.715000  0.585600  1.0
  C  C1660  1  0.933900  0.215000  0.414400  1.0
  C  C1661  1  0.433900  0.285000  0.585600  1.0
  C  C1662  1  0.566100  0.215000  0.085600  1.0
  C  C1663  1  0.933900  0.715000  0.914400  1.0
  C  C1664  1  0.433900  0.785000  0.085600  1.0
  C  C1665  1  0.933900  0.215000  0.585600  1.0
  C  C1666  1  0.933900  0.715000  0.085600  1.0
  C  C1667  1  0.433900  0.285000  0.414400  1.0
  C  C1668  1  0.066100  0.785000  0.585600  1.0
  C  C1669  1  0.566100  0.715000  0.414400  1.0
  C  C1670  1  0.433900  0.785000  0.914400  1.0
  C  C1671  1  0.066100  0.285000  0.085600  1.0
  C  C1672  1  0.566100  0.215000  0.914400  1.0
  C  C1673  1  0.773300  0.769700  0.385700  1.0
  C  C1674  1  0.773300  0.269700  0.885700  1.0
  C  C1675  1  0.273300  0.730300  0.614300  1.0
  C  C1676  1  0.226700  0.230300  0.385700  1.0
  C  C1677  1  0.726700  0.269700  0.614300  1.0
  C  C1678  1  0.273300  0.230300  0.114300  1.0
  C  C1679  1  0.226700  0.730300  0.885700  1.0
  C  C1680  1  0.726700  0.769700  0.114300  1.0
  C  C1681  1  0.226700  0.230300  0.614300  1.0
  C  C1682  1  0.226700  0.730300  0.114300  1.0
  C  C1683  1  0.726700  0.269700  0.385700  1.0
  C  C1684  1  0.773300  0.769700  0.614300  1.0
  C  C1685  1  0.273300  0.730300  0.385700  1.0
  C  C1686  1  0.726700  0.769700  0.885700  1.0
  C  C1687  1  0.773300  0.269700  0.114300  1.0
  C  C1688  1  0.273300  0.230300  0.885700  1.0
  C  C1689  1  0.242600  0.879500  0.411700  1.0
  C  C1690  1  0.242600  0.379500  0.911700  1.0
  C  C1691  1  0.742600  0.620500  0.588300  1.0
  C  C1692  1  0.757400  0.120500  0.411700  1.0
  C  C1693  1  0.257400  0.379500  0.588300  1.0
  C  C1694  1  0.742600  0.120500  0.088300  1.0
  C  C1695  1  0.757400  0.620500  0.911700  1.0
  C  C1696  1  0.257400  0.879500  0.088300  1.0
  C  C1697  1  0.757400  0.120500  0.588300  1.0
  C  C1698  1  0.757400  0.620500  0.088300  1.0
  C  C1699  1  0.257400  0.379500  0.411700  1.0
  C  C1700  1  0.242600  0.879500  0.588300  1.0
  C  C1701  1  0.742600  0.620500  0.411700  1.0
  C  C1702  1  0.257400  0.879500  0.911700  1.0
  C  C1703  1  0.242600  0.379500  0.088300  1.0
  C  C1704  1  0.742600  0.120500  0.911700  1.0
  C  C1705  1  0.073400  0.864200  0.292800  1.0
  C  C1706  1  0.073400  0.364200  0.792800  1.0
  C  C1707  1  0.573400  0.635800  0.707200  1.0
  C  C1708  1  0.926600  0.135800  0.292800  1.0
  C  C1709  1  0.426600  0.364200  0.707200  1.0
  C  C1710  1  0.573400  0.135800  0.207200  1.0
  C  C1711  1  0.926600  0.635800  0.792800  1.0
  C  C1712  1  0.426600  0.864200  0.207200  1.0
  C  C1713  1  0.926600  0.135800  0.707200  1.0
  C  C1714  1  0.926600  0.635800  0.207200  1.0
  C  C1715  1  0.426600  0.364200  0.292800  1.0
  C  C1716  1  0.073400  0.864200  0.707200  1.0
  C  C1717  1  0.573400  0.635800  0.292800  1.0
  C  C1718  1  0.426600  0.864200  0.792800  1.0
  C  C1719  1  0.073400  0.364200  0.207200  1.0
  C  C1720  1  0.573400  0.135800  0.792800  1.0
  C  C1721  1  0.824100  0.823200  0.410700  1.0
  C  C1722  1  0.824100  0.323200  0.910700  1.0
  C  C1723  1  0.324100  0.676800  0.589300  1.0
  C  C1724  1  0.175900  0.176800  0.410700  1.0
  C  C1725  1  0.675900  0.323200  0.589300  1.0
  C  C1726  1  0.324100  0.176800  0.089300  1.0
  C  C1727  1  0.175900  0.676800  0.910700  1.0
  C  C1728  1  0.675900  0.823200  0.089300  1.0
  C  C1729  1  0.175900  0.176800  0.589300  1.0
  C  C1730  1  0.175900  0.676800  0.089300  1.0
  C  C1731  1  0.675900  0.323200  0.410700  1.0
  C  C1732  1  0.824100  0.823200  0.589300  1.0
  C  C1733  1  0.324100  0.676800  0.410700  1.0
  C  C1734  1  0.675900  0.823200  0.910700  1.0
  C  C1735  1  0.824100  0.323200  0.089300  1.0
  C  C1736  1  0.324100  0.176800  0.910700  1.0
  C  C1737  1  0.757200  0.786500  0.413800  1.0
  C  C1738  1  0.757200  0.286500  0.913800  1.0
  C  C1739  1  0.257200  0.713500  0.586200  1.0
  C  C1740  1  0.242800  0.213500  0.413800  1.0
  C  C1741  1  0.742800  0.286500  0.586200  1.0
  C  C1742  1  0.257200  0.213500  0.086200  1.0
  C  C1743  1  0.242800  0.713500  0.913800  1.0
  C  C1744  1  0.742800  0.786500  0.086200  1.0
  C  C1745  1  0.242800  0.213500  0.586200  1.0
  C  C1746  1  0.242800  0.713500  0.086200  1.0
  C  C1747  1  0.742800  0.286500  0.413800  1.0
  C  C1748  1  0.757200  0.786500  0.586200  1.0
  C  C1749  1  0.257200  0.713500  0.413800  1.0
  C  C1750  1  0.742800  0.786500  0.913800  1.0
  C  C1751  1  0.757200  0.286500  0.086200  1.0
  C  C1752  1  0.257200  0.213500  0.913800  1.0
  C  C1753  1  0.814400  0.780000  0.370400  1.0
  C  C1754  1  0.814400  0.280000  0.870400  1.0
  C  C1755  1  0.314400  0.720000  0.629600  1.0
  C  C1756  1  0.185600  0.220000  0.370400  1.0
  C  C1757  1  0.685600  0.280000  0.629600  1.0
  C  C1758  1  0.314400  0.220000  0.129600  1.0
  C  C1759  1  0.185600  0.720000  0.870400  1.0
  C  C1760  1  0.685600  0.780000  0.129600  1.0
  C  C1761  1  0.185600  0.220000  0.629600  1.0
  C  C1762  1  0.185600  0.720000  0.129600  1.0
  C  C1763  1  0.685600  0.280000  0.370400  1.0
  C  C1764  1  0.814400  0.780000  0.629600  1.0
  C  C1765  1  0.314400  0.720000  0.370400  1.0
  C  C1766  1  0.685600  0.780000  0.870400  1.0
  C  C1767  1  0.814400  0.280000  0.129600  1.0
  C  C1768  1  0.314400  0.220000  0.870400  1.0
  C  C1769  1  0.303400  0.032000  0.384600  1.0
  C  C1770  1  0.303400  0.532000  0.884600  1.0
  C  C1771  1  0.803400  0.468000  0.615400  1.0
  C  C1772  1  0.696600  0.968000  0.384600  1.0
  C  C1773  1  0.196600  0.532000  0.615400  1.0
  C  C1774  1  0.803400  0.968000  0.115400  1.0
  C  C1775  1  0.696600  0.468000  0.884600  1.0
  C  C1776  1  0.196600  0.032000  0.115400  1.0
  C  C1777  1  0.696600  0.968000  0.615400  1.0
  C  C1778  1  0.696600  0.468000  0.115400  1.0
  C  C1779  1  0.196600  0.532000  0.384600  1.0
  C  C1780  1  0.303400  0.032000  0.615400  1.0
  C  C1781  1  0.803400  0.468000  0.384600  1.0
  C  C1782  1  0.196600  0.032000  0.884600  1.0
  C  C1783  1  0.303400  0.532000  0.115400  1.0
  C  C1784  1  0.803400  0.968000  0.884600  1.0
  C  C1785  1  0.815400  0.942500  0.254300  1.0
  C  C1786  1  0.815400  0.442500  0.754300  1.0
  C  C1787  1  0.315400  0.557500  0.745700  1.0
  C  C1788  1  0.184600  0.057500  0.254300  1.0
  C  C1789  1  0.684600  0.442500  0.745700  1.0
  C  C1790  1  0.315400  0.057500  0.245700  1.0
  C  C1791  1  0.184600  0.557500  0.754300  1.0
  C  C1792  1  0.684600  0.942500  0.245700  1.0
  C  C1793  1  0.184600  0.057500  0.745700  1.0
  C  C1794  1  0.184600  0.557500  0.245700  1.0
  C  C1795  1  0.684600  0.442500  0.254300  1.0
  C  C1796  1  0.815400  0.942500  0.745700  1.0
  C  C1797  1  0.315400  0.557500  0.254300  1.0
  C  C1798  1  0.684600  0.942500  0.754300  1.0
  C  C1799  1  0.815400  0.442500  0.245700  1.0
  C  C1800  1  0.315400  0.057500  0.754300  1.0
  C  C1801  1  0.831600  0.913300  0.240300  1.0
  C  C1802  1  0.831600  0.413300  0.740300  1.0
  C  C1803  1  0.331600  0.586700  0.759700  1.0
  C  C1804  1  0.168400  0.086700  0.240300  1.0
  C  C1805  1  0.668400  0.413300  0.759700  1.0
  C  C1806  1  0.331600  0.086700  0.259700  1.0
  C  C1807  1  0.168400  0.586700  0.740300  1.0
  C  C1808  1  0.668400  0.913300  0.259700  1.0
  C  C1809  1  0.168400  0.086700  0.759700  1.0
  C  C1810  1  0.168400  0.586700  0.259700  1.0
  C  C1811  1  0.668400  0.413300  0.240300  1.0
  C  C1812  1  0.831600  0.913300  0.759700  1.0
  C  C1813  1  0.331600  0.586700  0.240300  1.0
  C  C1814  1  0.668400  0.913300  0.740300  1.0
  C  C1815  1  0.831600  0.413300  0.259700  1.0
  C  C1816  1  0.331600  0.086700  0.740300  1.0
  C  C1817  1  0.255400  0.848900  0.428200  1.0
  C  C1818  1  0.255400  0.348900  0.928200  1.0
  C  C1819  1  0.755400  0.651100  0.571800  1.0
  C  C1820  1  0.744600  0.151100  0.428200  1.0
  C  C1821  1  0.244600  0.348900  0.571800  1.0
  C  C1822  1  0.755400  0.151100  0.071800  1.0
  C  C1823  1  0.744600  0.651100  0.928200  1.0
  C  C1824  1  0.244600  0.848900  0.071800  1.0
  C  C1825  1  0.744600  0.151100  0.571800  1.0
  C  C1826  1  0.744600  0.651100  0.071800  1.0
  C  C1827  1  0.244600  0.348900  0.428200  1.0
  C  C1828  1  0.255400  0.848900  0.571800  1.0
  C  C1829  1  0.755400  0.651100  0.428200  1.0
  C  C1830  1  0.244600  0.848900  0.928200  1.0
  C  C1831  1  0.255400  0.348900  0.071800  1.0
  C  C1832  1  0.755400  0.151100  0.928200  1.0
  C  C1833  1  0.861600  0.892100  0.256700  1.0
  C  C1834  1  0.861600  0.392100  0.756700  1.0
  C  C1835  1  0.361600  0.607900  0.743300  1.0
  C  C1836  1  0.138400  0.107900  0.256700  1.0
  C  C1837  1  0.638400  0.392100  0.743300  1.0
  C  C1838  1  0.361600  0.107900  0.243300  1.0
  C  C1839  1  0.138400  0.607900  0.756700  1.0
  C  C1840  1  0.638400  0.892100  0.243300  1.0
  C  C1841  1  0.138400  0.107900  0.743300  1.0
  C  C1842  1  0.138400  0.607900  0.243300  1.0
  C  C1843  1  0.638400  0.392100  0.256700  1.0
  C  C1844  1  0.861600  0.892100  0.743300  1.0
  C  C1845  1  0.361600  0.607900  0.256700  1.0
  C  C1846  1  0.638400  0.892100  0.756700  1.0
  C  C1847  1  0.861600  0.392100  0.243300  1.0
  C  C1848  1  0.361600  0.107900  0.756700  1.0
  C  C1849  1  0.187900  0.019700  0.302000  1.0
  C  C1850  1  0.187900  0.519700  0.802000  1.0
  C  C1851  1  0.687900  0.480300  0.698000  1.0
  C  C1852  1  0.812100  0.980300  0.302000  1.0
  C  C1853  1  0.312100  0.519700  0.698000  1.0
  C  C1854  1  0.687900  0.980300  0.198000  1.0
  C  C1855  1  0.812100  0.480300  0.802000  1.0
  C  C1856  1  0.312100  0.019700  0.198000  1.0
  C  C1857  1  0.812100  0.980300  0.698000  1.0
  C  C1858  1  0.812100  0.480300  0.198000  1.0
  C  C1859  1  0.312100  0.519700  0.302000  1.0
  C  C1860  1  0.187900  0.019700  0.698000  1.0
  C  C1861  1  0.687900  0.480300  0.302000  1.0
  C  C1862  1  0.312100  0.019700  0.802000  1.0
  C  C1863  1  0.187900  0.519700  0.198000  1.0
  C  C1864  1  0.687900  0.980300  0.802000  1.0
  C  C1865  1  0.102300  0.732900  0.421300  1.0
  C  C1866  1  0.102300  0.232900  0.921300  1.0
  C  C1867  1  0.602300  0.767100  0.578700  1.0
  C  C1868  1  0.897700  0.267100  0.421300  1.0
  C  C1869  1  0.397700  0.232900  0.578700  1.0
  C  C1870  1  0.602300  0.267100  0.078700  1.0
  C  C1871  1  0.897700  0.767100  0.921300  1.0
  C  C1872  1  0.397700  0.732900  0.078700  1.0
  C  C1873  1  0.897700  0.267100  0.578700  1.0
  C  C1874  1  0.897700  0.767100  0.078700  1.0
  C  C1875  1  0.397700  0.232900  0.421300  1.0
  C  C1876  1  0.102300  0.732900  0.578700  1.0
  C  C1877  1  0.602300  0.767100  0.421300  1.0
  C  C1878  1  0.397700  0.732900  0.921300  1.0
  C  C1879  1  0.102300  0.232900  0.078700  1.0
  C  C1880  1  0.602300  0.267100  0.921300  1.0
  C  C1881  1  0.877700  0.900600  0.286800  1.0
  C  C1882  1  0.877700  0.400600  0.786800  1.0
  C  C1883  1  0.377700  0.599400  0.713200  1.0
  C  C1884  1  0.122300  0.099400  0.286800  1.0
  C  C1885  1  0.622300  0.400600  0.713200  1.0
  C  C1886  1  0.377700  0.099400  0.213200  1.0
  C  C1887  1  0.122300  0.599400  0.786800  1.0
  C  C1888  1  0.622300  0.900600  0.213200  1.0
  C  C1889  1  0.122300  0.099400  0.713200  1.0
  C  C1890  1  0.122300  0.599400  0.213200  1.0
  C  C1891  1  0.622300  0.400600  0.286800  1.0
  C  C1892  1  0.877700  0.900600  0.713200  1.0
  C  C1893  1  0.377700  0.599400  0.286800  1.0
  C  C1894  1  0.622300  0.900600  0.786800  1.0
  C  C1895  1  0.877700  0.400600  0.213200  1.0
  C  C1896  1  0.377700  0.099400  0.786800  1.0
  C  C1897  1  0.098600  0.766400  0.431200  1.0
  C  C1898  1  0.098600  0.266400  0.931200  1.0
  C  C1899  1  0.598600  0.733600  0.568800  1.0
  C  C1900  1  0.901400  0.233600  0.431200  1.0
  C  C1901  1  0.401400  0.266400  0.568800  1.0
  C  C1902  1  0.598600  0.233600  0.068800  1.0
  C  C1903  1  0.901400  0.733600  0.931200  1.0
  C  C1904  1  0.401400  0.766400  0.068800  1.0
  C  C1905  1  0.901400  0.233600  0.568800  1.0
  C  C1906  1  0.901400  0.733600  0.068800  1.0
  C  C1907  1  0.401400  0.266400  0.431200  1.0
  C  C1908  1  0.098600  0.766400  0.568800  1.0
  C  C1909  1  0.598600  0.733600  0.431200  1.0
  C  C1910  1  0.401400  0.766400  0.931200  1.0
  C  C1911  1  0.098600  0.266400  0.068800  1.0
  C  C1912  1  0.598600  0.233600  0.931200  1.0
  C  C1913  1  0.348700  0.036600  0.374000  1.0
  C  C1914  1  0.348700  0.536600  0.874000  1.0
  C  C1915  1  0.848700  0.463400  0.626000  1.0
  C  C1916  1  0.651300  0.963400  0.374000  1.0
  C  C1917  1  0.151300  0.536600  0.626000  1.0
  C  C1918  1  0.848700  0.963400  0.126000  1.0
  C  C1919  1  0.651300  0.463400  0.874000  1.0
  C  C1920  1  0.151300  0.036600  0.126000  1.0
  C  C1921  1  0.651300  0.963400  0.626000  1.0
  C  C1922  1  0.651300  0.463400  0.126000  1.0
  C  C1923  1  0.151300  0.536600  0.374000  1.0
  C  C1924  1  0.348700  0.036600  0.626000  1.0
  C  C1925  1  0.848700  0.463400  0.374000  1.0
  C  C1926  1  0.151300  0.036600  0.874000  1.0
  C  C1927  1  0.348700  0.536600  0.126000  1.0
  C  C1928  1  0.848700  0.963400  0.874000  1.0
  C  C1929  1  0.377000  0.059000  0.388800  1.0
  C  C1930  1  0.377000  0.559000  0.888800  1.0
  C  C1931  1  0.877000  0.441000  0.611200  1.0
  C  C1932  1  0.623000  0.941000  0.388800  1.0
  C  C1933  1  0.123000  0.559000  0.611200  1.0
  C  C1934  1  0.877000  0.941000  0.111200  1.0
  C  C1935  1  0.623000  0.441000  0.888800  1.0
  C  C1936  1  0.123000  0.059000  0.111200  1.0
  C  C1937  1  0.623000  0.941000  0.611200  1.0
  C  C1938  1  0.623000  0.441000  0.111200  1.0
  C  C1939  1  0.123000  0.559000  0.388800  1.0
  C  C1940  1  0.377000  0.059000  0.611200  1.0
  C  C1941  1  0.877000  0.441000  0.388800  1.0
  C  C1942  1  0.123000  0.059000  0.888800  1.0
  C  C1943  1  0.377000  0.559000  0.111200  1.0
  C  C1944  1  0.877000  0.941000  0.888800  1.0
  C  C1945  1  0.317300  0.073000  0.427600  1.0
  C  C1946  1  0.317300  0.573000  0.927600  1.0
  C  C1947  1  0.817300  0.427000  0.572400  1.0
  C  C1948  1  0.682700  0.927000  0.427600  1.0
  C  C1949  1  0.182700  0.573000  0.572400  1.0
  C  C1950  1  0.817300  0.927000  0.072400  1.0
  C  C1951  1  0.682700  0.427000  0.927600  1.0
  C  C1952  1  0.182700  0.073000  0.072400  1.0
  C  C1953  1  0.682700  0.927000  0.572400  1.0
  C  C1954  1  0.682700  0.427000  0.072400  1.0
  C  C1955  1  0.182700  0.573000  0.427600  1.0
  C  C1956  1  0.317300  0.073000  0.572400  1.0
  C  C1957  1  0.817300  0.427000  0.427600  1.0
  C  C1958  1  0.182700  0.073000  0.927600  1.0
  C  C1959  1  0.317300  0.573000  0.072400  1.0
  C  C1960  1  0.817300  0.927000  0.927600  1.0
  C  C1961  1  0.289000  0.050100  0.411300  1.0
  C  C1962  1  0.289000  0.550100  0.911300  1.0
  C  C1963  1  0.789000  0.449900  0.588700  1.0
  C  C1964  1  0.711000  0.949900  0.411300  1.0
  C  C1965  1  0.211000  0.550100  0.588700  1.0
  C  C1966  1  0.789000  0.949900  0.088700  1.0
  C  C1967  1  0.711000  0.449900  0.911300  1.0
  C  C1968  1  0.211000  0.050100  0.088700  1.0
  C  C1969  1  0.711000  0.949900  0.588700  1.0
  C  C1970  1  0.711000  0.449900  0.088700  1.0
  C  C1971  1  0.211000  0.550100  0.411300  1.0
  C  C1972  1  0.289000  0.050100  0.588700  1.0
  C  C1973  1  0.789000  0.449900  0.411300  1.0
  C  C1974  1  0.211000  0.050100  0.911300  1.0
  C  C1975  1  0.289000  0.550100  0.088700  1.0
  C  C1976  1  0.789000  0.949900  0.911300  1.0
  C  C1977  1  0.830400  0.949900  0.284800  1.0
  C  C1978  1  0.830400  0.449900  0.784800  1.0
  C  C1979  1  0.330400  0.550100  0.715200  1.0
  C  C1980  1  0.169600  0.050100  0.284800  1.0
  C  C1981  1  0.669600  0.449900  0.715200  1.0
  C  C1982  1  0.330400  0.050100  0.215200  1.0
  C  C1983  1  0.169600  0.550100  0.784800  1.0
  C  C1984  1  0.669600  0.949900  0.215200  1.0
  C  C1985  1  0.169600  0.050100  0.715200  1.0
  C  C1986  1  0.169600  0.550100  0.215200  1.0
  C  C1987  1  0.669600  0.449900  0.284800  1.0
  C  C1988  1  0.830400  0.949900  0.715200  1.0
  C  C1989  1  0.330400  0.550100  0.284800  1.0
  C  C1990  1  0.669600  0.949900  0.784800  1.0
  C  C1991  1  0.830400  0.449900  0.215200  1.0
  C  C1992  1  0.330400  0.050100  0.784800  1.0
  C  C1993  1  0.143000  0.900600  0.290600  1.0
  C  C1994  1  0.143000  0.400600  0.790600  1.0
  C  C1995  1  0.643000  0.599400  0.709400  1.0
  C  C1996  1  0.857000  0.099400  0.290600  1.0
  C  C1997  1  0.357000  0.400600  0.709400  1.0
  C  C1998  1  0.643000  0.099400  0.209400  1.0
  C  C1999  1  0.857000  0.599400  0.790600  1.0
  C  C2000  1  0.357000  0.900600  0.209400  1.0
  C  C2001  1  0.857000  0.099400  0.709400  1.0
  C  C2002  1  0.857000  0.599400  0.209400  1.0
  C  C2003  1  0.357000  0.400600  0.290600  1.0
  C  C2004  1  0.143000  0.900600  0.709400  1.0
  C  C2005  1  0.643000  0.599400  0.290600  1.0
  C  C2006  1  0.357000  0.900600  0.790600  1.0
  C  C2007  1  0.143000  0.400600  0.209400  1.0
  C  C2008  1  0.643000  0.099400  0.790600  1.0
  C  C2009  1  0.862000  0.929900  0.301500  1.0
  C  C2010  1  0.862000  0.429900  0.801500  1.0
  C  C2011  1  0.362000  0.570100  0.698500  1.0
  C  C2012  1  0.138000  0.070100  0.301500  1.0
  C  C2013  1  0.638000  0.429900  0.698500  1.0
  C  C2014  1  0.362000  0.070100  0.198500  1.0
  C  C2015  1  0.138000  0.570100  0.801500  1.0
  C  C2016  1  0.638000  0.929900  0.198500  1.0
  C  C2017  1  0.138000  0.070100  0.698500  1.0
  C  C2018  1  0.138000  0.570100  0.198500  1.0
  C  C2019  1  0.638000  0.429900  0.301500  1.0
  C  C2020  1  0.862000  0.929900  0.698500  1.0
  C  C2021  1  0.362000  0.570100  0.301500  1.0
  C  C2022  1  0.638000  0.929900  0.801500  1.0
  C  C2023  1  0.862000  0.429900  0.198500  1.0
  C  C2024  1  0.362000  0.070100  0.801500  1.0
  C  C2025  1  0.305300  0.874800  0.376000  1.0
  C  C2026  1  0.305300  0.374800  0.876000  1.0
  C  C2027  1  0.805300  0.625200  0.624000  1.0
  C  C2028  1  0.694700  0.125200  0.376000  1.0
  C  C2029  1  0.194700  0.374800  0.624000  1.0
  C  C2030  1  0.805300  0.125200  0.124000  1.0
  C  C2031  1  0.694700  0.625200  0.876000  1.0
  C  C2032  1  0.194700  0.874800  0.124000  1.0
  C  C2033  1  0.694700  0.125200  0.624000  1.0
  C  C2034  1  0.694700  0.625200  0.124000  1.0
  C  C2035  1  0.194700  0.374800  0.376000  1.0
  C  C2036  1  0.305300  0.874800  0.624000  1.0
  C  C2037  1  0.805300  0.625200  0.376000  1.0
  C  C2038  1  0.194700  0.874800  0.876000  1.0
  C  C2039  1  0.305300  0.374800  0.124000  1.0
  C  C2040  1  0.805300  0.125200  0.876000  1.0
  C  C2041  1  0.043800  0.740700  0.380200  1.0
  C  C2042  1  0.043800  0.240700  0.880200  1.0
  C  C2043  1  0.543800  0.759300  0.619800  1.0
  C  C2044  1  0.956200  0.259300  0.380200  1.0
  C  C2045  1  0.456200  0.240700  0.619800  1.0
  C  C2046  1  0.543800  0.259300  0.119800  1.0
  C  C2047  1  0.956200  0.759300  0.880200  1.0
  C  C2048  1  0.456200  0.740700  0.119800  1.0
  C  C2049  1  0.956200  0.259300  0.619800  1.0
  C  C2050  1  0.956200  0.759300  0.119800  1.0
  C  C2051  1  0.456200  0.240700  0.380200  1.0
  C  C2052  1  0.043800  0.740700  0.619800  1.0
  C  C2053  1  0.543800  0.759300  0.380200  1.0
  C  C2054  1  0.456200  0.740700  0.880200  1.0
  C  C2055  1  0.043800  0.240700  0.119800  1.0
  C  C2056  1  0.543800  0.259300  0.880200  1.0
  C  C2057  1  0.700400  0.905100  0.544000  1.0
  C  C2058  1  0.700400  0.405100  0.044000  1.0
  C  C2059  1  0.200400  0.594900  0.456000  1.0
  C  C2060  1  0.299600  0.094900  0.544000  1.0
  C  C2061  1  0.799600  0.405100  0.456000  1.0
  C  C2062  1  0.200400  0.094900  0.956000  1.0
  C  C2063  1  0.299600  0.594900  0.044000  1.0
  C  C2064  1  0.799600  0.905100  0.956000  1.0
  C  C2065  1  0.299600  0.094900  0.456000  1.0
  C  C2066  1  0.299600  0.594900  0.956000  1.0
  C  C2067  1  0.799600  0.405100  0.544000  1.0
  C  C2068  1  0.700400  0.905100  0.456000  1.0
  C  C2069  1  0.200400  0.594900  0.544000  1.0
  C  C2070  1  0.799600  0.905100  0.044000  1.0
  C  C2071  1  0.700400  0.405100  0.956000  1.0
  C  C2072  1  0.200400  0.094900  0.044000  1.0
  C  C2073  1  0.295000  0.832900  0.417200  1.0
  C  C2074  1  0.295000  0.332900  0.917200  1.0
  C  C2075  1  0.795000  0.667100  0.582800  1.0
  C  C2076  1  0.705000  0.167100  0.417200  1.0
  C  C2077  1  0.205000  0.332900  0.582800  1.0
  C  C2078  1  0.795000  0.167100  0.082800  1.0
  C  C2079  1  0.705000  0.667100  0.917200  1.0
  C  C2080  1  0.205000  0.832900  0.082800  1.0
  C  C2081  1  0.705000  0.167100  0.582800  1.0
  C  C2082  1  0.705000  0.667100  0.082800  1.0
  C  C2083  1  0.205000  0.332900  0.417200  1.0
  C  C2084  1  0.295000  0.832900  0.582800  1.0
  C  C2085  1  0.795000  0.667100  0.417200  1.0
  C  C2086  1  0.205000  0.832900  0.917200  1.0
  C  C2087  1  0.295000  0.332900  0.082800  1.0
  C  C2088  1  0.795000  0.167100  0.917200  1.0
  C  C2089  1  0.136200  0.856300  0.253900  1.0
  C  C2090  1  0.136200  0.356300  0.753900  1.0
  C  C2091  1  0.636200  0.643700  0.746100  1.0
  C  C2092  1  0.863800  0.143700  0.253900  1.0
  C  C2093  1  0.363800  0.356300  0.746100  1.0
  C  C2094  1  0.636200  0.143700  0.246100  1.0
  C  C2095  1  0.863800  0.643700  0.753900  1.0
  C  C2096  1  0.363800  0.856300  0.246100  1.0
  C  C2097  1  0.863800  0.143700  0.746100  1.0
  C  C2098  1  0.863800  0.643700  0.246100  1.0
  C  C2099  1  0.363800  0.356300  0.253900  1.0
  C  C2100  1  0.136200  0.856300  0.746100  1.0
  C  C2101  1  0.636200  0.643700  0.253900  1.0
  C  C2102  1  0.363800  0.856300  0.753900  1.0
  C  C2103  1  0.136200  0.356300  0.246100  1.0
  C  C2104  1  0.636200  0.143700  0.753900  1.0
  C  C2105  1  0.093100  0.847300  0.266200  1.0
  C  C2106  1  0.093100  0.347300  0.766200  1.0
  C  C2107  1  0.593100  0.652700  0.733800  1.0
  C  C2108  1  0.906900  0.152700  0.266200  1.0
  C  C2109  1  0.406900  0.347300  0.733800  1.0
  C  C2110  1  0.593100  0.152700  0.233800  1.0
  C  C2111  1  0.906900  0.652700  0.766200  1.0
  C  C2112  1  0.406900  0.847300  0.233800  1.0
  C  C2113  1  0.906900  0.152700  0.733800  1.0
  C  C2114  1  0.906900  0.652700  0.233800  1.0
  C  C2115  1  0.406900  0.347300  0.266200  1.0
  C  C2116  1  0.093100  0.847300  0.733800  1.0
  C  C2117  1  0.593100  0.652700  0.266200  1.0
  C  C2118  1  0.406900  0.847300  0.766200  1.0
  C  C2119  1  0.093100  0.347300  0.233800  1.0
  C  C2120  1  0.593100  0.152700  0.766200  1.0
  C  C2121  1  0.073100  0.720800  0.397100  1.0
  C  C2122  1  0.073100  0.220800  0.897100  1.0
  C  C2123  1  0.573100  0.779200  0.602900  1.0
  C  C2124  1  0.926900  0.279200  0.397100  1.0
  C  C2125  1  0.426900  0.220800  0.602900  1.0
  C  C2126  1  0.573100  0.279200  0.102900  1.0
  C  C2127  1  0.926900  0.779200  0.897100  1.0
  C  C2128  1  0.426900  0.720800  0.102900  1.0
  C  C2129  1  0.926900  0.279200  0.602900  1.0
  C  C2130  1  0.926900  0.779200  0.102900  1.0
  C  C2131  1  0.426900  0.220800  0.397100  1.0
  C  C2132  1  0.073100  0.720800  0.602900  1.0
  C  C2133  1  0.573100  0.779200  0.397100  1.0
  C  C2134  1  0.426900  0.720800  0.897100  1.0
  C  C2135  1  0.073100  0.220800  0.102900  1.0
  C  C2136  1  0.573100  0.279200  0.897100  1.0
  C  C2137  1  0.318600  0.846100  0.392200  1.0
  C  C2138  1  0.318600  0.346100  0.892200  1.0
  C  C2139  1  0.818600  0.653900  0.607800  1.0
  C  C2140  1  0.681400  0.153900  0.392200  1.0
  C  C2141  1  0.181400  0.346100  0.607800  1.0
  C  C2142  1  0.818600  0.153900  0.107800  1.0
  C  C2143  1  0.681400  0.653900  0.892200  1.0
  C  C2144  1  0.181400  0.846100  0.107800  1.0
  C  C2145  1  0.681400  0.153900  0.607800  1.0
  C  C2146  1  0.681400  0.653900  0.107800  1.0
  C  C2147  1  0.181400  0.346100  0.392200  1.0
  C  C2148  1  0.318600  0.846100  0.607800  1.0
  C  C2149  1  0.818600  0.653900  0.392200  1.0
  C  C2150  1  0.181400  0.846100  0.892200  1.0
  C  C2151  1  0.318600  0.346100  0.107800  1.0
  C  C2152  1  0.818600  0.153900  0.892200  1.0
  C  C2153  1  0.362600  0.076700  0.416100  1.0
  C  C2154  1  0.362600  0.576700  0.916100  1.0
  C  C2155  1  0.862600  0.423300  0.583900  1.0
  C  C2156  1  0.637400  0.923300  0.416100  1.0
  C  C2157  1  0.137400  0.576700  0.583900  1.0
  C  C2158  1  0.862600  0.923300  0.083900  1.0
  C  C2159  1  0.637400  0.423300  0.916100  1.0
  C  C2160  1  0.137400  0.076700  0.083900  1.0
  C  C2161  1  0.637400  0.923300  0.583900  1.0
  C  C2162  1  0.637400  0.423300  0.083900  1.0
  C  C2163  1  0.137400  0.576700  0.416100  1.0
  C  C2164  1  0.362600  0.076700  0.583900  1.0
  C  C2165  1  0.862600  0.423300  0.416100  1.0
  C  C2166  1  0.137400  0.076700  0.916100  1.0
  C  C2167  1  0.362600  0.576700  0.083900  1.0
  C  C2168  1  0.862600  0.923300  0.916100  1.0
  C  C2169  1  0.159400  0.883200  0.264600  1.0
  C  C2170  1  0.159400  0.383200  0.764600  1.0
  C  C2171  1  0.659400  0.616800  0.735400  1.0
  C  C2172  1  0.840600  0.116800  0.264600  1.0
  C  C2173  1  0.340600  0.383200  0.735400  1.0
  C  C2174  1  0.659400  0.116800  0.235400  1.0
  C  C2175  1  0.840600  0.616800  0.764600  1.0
  C  C2176  1  0.340600  0.883200  0.235400  1.0
  C  C2177  1  0.840600  0.116800  0.735400  1.0
  C  C2178  1  0.840600  0.616800  0.235400  1.0
  C  C2179  1  0.340600  0.383200  0.264600  1.0
  C  C2180  1  0.159400  0.883200  0.735400  1.0
  C  C2181  1  0.659400  0.616800  0.264600  1.0
  C  C2182  1  0.340600  0.883200  0.764600  1.0
  C  C2183  1  0.159400  0.383200  0.235400  1.0
  C  C2184  1  0.659400  0.116800  0.764600  1.0
  C  C2185  1  0.373200  0.800300  0.396100  1.0
  C  C2186  1  0.373200  0.300300  0.896100  1.0
  C  C2187  1  0.873200  0.699700  0.603900  1.0
  C  C2188  1  0.626800  0.199700  0.396100  1.0
  C  C2189  1  0.126800  0.300300  0.603900  1.0
  C  C2190  1  0.873200  0.199700  0.103900  1.0
  C  C2191  1  0.626800  0.699700  0.896100  1.0
  C  C2192  1  0.126800  0.800300  0.103900  1.0
  C  C2193  1  0.626800  0.199700  0.603900  1.0
  C  C2194  1  0.626800  0.699700  0.103900  1.0
  C  C2195  1  0.126800  0.300300  0.396100  1.0
  C  C2196  1  0.373200  0.800300  0.603900  1.0
  C  C2197  1  0.873200  0.699700  0.396100  1.0
  C  C2198  1  0.126800  0.800300  0.896100  1.0
  C  C2199  1  0.373200  0.300300  0.103900  1.0
  C  C2200  1  0.873200  0.199700  0.896100  1.0
  C  C2201  1  0.408900  0.784000  0.374000  1.0
  C  C2202  1  0.408900  0.284000  0.874000  1.0
  C  C2203  1  0.908900  0.716000  0.626000  1.0
  C  C2204  1  0.591100  0.216000  0.374000  1.0
  C  C2205  1  0.091100  0.284000  0.626000  1.0
  C  C2206  1  0.908900  0.216000  0.126000  1.0
  C  C2207  1  0.591100  0.716000  0.874000  1.0
  C  C2208  1  0.091100  0.784000  0.126000  1.0
  C  C2209  1  0.591100  0.216000  0.626000  1.0
  C  C2210  1  0.591100  0.716000  0.126000  1.0
  C  C2211  1  0.091100  0.284000  0.374000  1.0
  C  C2212  1  0.408900  0.784000  0.626000  1.0
  C  C2213  1  0.908900  0.716000  0.374000  1.0
  C  C2214  1  0.091100  0.784000  0.874000  1.0
  C  C2215  1  0.408900  0.284000  0.126000  1.0
  C  C2216  1  0.908900  0.216000  0.874000  1.0
  C  C2217  1  0.415800  0.797000  0.342900  1.0
  C  C2218  1  0.415800  0.297000  0.842900  1.0
  C  C2219  1  0.915800  0.703000  0.657100  1.0
  C  C2220  1  0.584200  0.203000  0.342900  1.0
  C  C2221  1  0.084200  0.297000  0.657100  1.0
  C  C2222  1  0.915800  0.203000  0.157100  1.0
  C  C2223  1  0.584200  0.703000  0.842900  1.0
  C  C2224  1  0.084200  0.797000  0.157100  1.0
  C  C2225  1  0.584200  0.203000  0.657100  1.0
  C  C2226  1  0.584200  0.703000  0.157100  1.0
  C  C2227  1  0.084200  0.297000  0.342900  1.0
  C  C2228  1  0.415800  0.797000  0.657100  1.0
  C  C2229  1  0.915800  0.703000  0.342900  1.0
  C  C2230  1  0.084200  0.797000  0.842900  1.0
  C  C2231  1  0.415800  0.297000  0.157100  1.0
  C  C2232  1  0.915800  0.203000  0.842900  1.0
  C  C2233  1  0.108800  0.665200  0.401500  1.0
  C  C2234  1  0.108800  0.165200  0.901500  1.0
  C  C2235  1  0.608800  0.834800  0.598500  1.0
  C  C2236  1  0.891200  0.334800  0.401500  1.0
  C  C2237  1  0.391200  0.165200  0.598500  1.0
  C  C2238  1  0.608800  0.334800  0.098500  1.0
  C  C2239  1  0.891200  0.834800  0.901500  1.0
  C  C2240  1  0.391200  0.665200  0.098500  1.0
  C  C2241  1  0.891200  0.334800  0.598500  1.0
  C  C2242  1  0.891200  0.834800  0.098500  1.0
  C  C2243  1  0.391200  0.165200  0.401500  1.0
  C  C2244  1  0.108800  0.665200  0.598500  1.0
  C  C2245  1  0.608800  0.834800  0.401500  1.0
  C  C2246  1  0.391200  0.665200  0.901500  1.0
  C  C2247  1  0.108800  0.165200  0.098500  1.0
  C  C2248  1  0.608800  0.334800  0.901500  1.0
  C  C2249  1  0.154400  0.668400  0.383500  1.0
  C  C2250  1  0.154400  0.168400  0.883500  1.0
  C  C2251  1  0.654400  0.831600  0.616500  1.0
  C  C2252  1  0.845600  0.331600  0.383500  1.0
  C  C2253  1  0.345600  0.168400  0.616500  1.0
  C  C2254  1  0.654400  0.331600  0.116500  1.0
  C  C2255  1  0.845600  0.831600  0.883500  1.0
  C  C2256  1  0.345600  0.668400  0.116500  1.0
  C  C2257  1  0.845600  0.331600  0.616500  1.0
  C  C2258  1  0.845600  0.831600  0.116500  1.0
  C  C2259  1  0.345600  0.168400  0.383500  1.0
  C  C2260  1  0.154400  0.668400  0.616500  1.0
  C  C2261  1  0.654400  0.831600  0.383500  1.0
  C  C2262  1  0.345600  0.668400  0.883500  1.0
  C  C2263  1  0.154400  0.168400  0.116500  1.0
  C  C2264  1  0.654400  0.331600  0.883500  1.0
  C  C2265  1  0.162100  0.691000  0.359800  1.0
  C  C2266  1  0.162100  0.191000  0.859800  1.0
  C  C2267  1  0.662100  0.809000  0.640200  1.0
  C  C2268  1  0.837900  0.309000  0.359800  1.0
  C  C2269  1  0.337900  0.191000  0.640200  1.0
  C  C2270  1  0.662100  0.309000  0.140200  1.0
  C  C2271  1  0.837900  0.809000  0.859800  1.0
  C  C2272  1  0.337900  0.691000  0.140200  1.0
  C  C2273  1  0.837900  0.309000  0.640200  1.0
  C  C2274  1  0.837900  0.809000  0.140200  1.0
  C  C2275  1  0.337900  0.191000  0.359800  1.0
  C  C2276  1  0.162100  0.691000  0.640200  1.0
  C  C2277  1  0.662100  0.809000  0.359800  1.0
  C  C2278  1  0.337900  0.691000  0.859800  1.0
  C  C2279  1  0.162100  0.191000  0.140200  1.0
  C  C2280  1  0.662100  0.309000  0.859800  1.0
  C  C2281  1  0.709200  0.732300  0.384800  1.0
  C  C2282  1  0.709200  0.232300  0.884800  1.0
  C  C2283  1  0.209200  0.767700  0.615200  1.0
  C  C2284  1  0.290800  0.267700  0.384800  1.0
  C  C2285  1  0.790800  0.232300  0.615200  1.0
  C  C2286  1  0.209200  0.267700  0.115200  1.0
  C  C2287  1  0.290800  0.767700  0.884800  1.0
  C  C2288  1  0.790800  0.732300  0.115200  1.0
  C  C2289  1  0.290800  0.267700  0.615200  1.0
  C  C2290  1  0.290800  0.767700  0.115200  1.0
  C  C2291  1  0.790800  0.232300  0.384800  1.0
  C  C2292  1  0.709200  0.732300  0.615200  1.0
  C  C2293  1  0.209200  0.767700  0.384800  1.0
  C  C2294  1  0.790800  0.732300  0.884800  1.0
  C  C2295  1  0.709200  0.232300  0.115200  1.0
  C  C2296  1  0.209200  0.267700  0.884800  1.0
  C  C2297  1  0.692400  0.704400  0.363000  1.0
  C  C2298  1  0.692400  0.204400  0.863000  1.0
  C  C2299  1  0.192400  0.795600  0.637000  1.0
  C  C2300  1  0.307600  0.295600  0.363000  1.0
  C  C2301  1  0.807600  0.204400  0.637000  1.0
  C  C2302  1  0.192400  0.295600  0.137000  1.0
  C  C2303  1  0.307600  0.795600  0.863000  1.0
  C  C2304  1  0.807600  0.704400  0.137000  1.0
  C  C2305  1  0.307600  0.295600  0.637000  1.0
  C  C2306  1  0.307600  0.795600  0.137000  1.0
  C  C2307  1  0.807600  0.204400  0.363000  1.0
  C  C2308  1  0.692400  0.704400  0.637000  1.0
  C  C2309  1  0.192400  0.795600  0.363000  1.0
  C  C2310  1  0.807600  0.704400  0.863000  1.0
  C  C2311  1  0.692400  0.204400  0.137000  1.0
  C  C2312  1  0.192400  0.295600  0.863000  1.0
  C  C2313  1  0.652400  0.704300  0.347300  1.0
  C  C2314  1  0.652400  0.204300  0.847300  1.0
  C  C2315  1  0.152400  0.795700  0.652700  1.0
  C  C2316  1  0.347600  0.295700  0.347300  1.0
  C  C2317  1  0.847600  0.204300  0.652700  1.0
  C  C2318  1  0.152400  0.295700  0.152700  1.0
  C  C2319  1  0.347600  0.795700  0.847300  1.0
  C  C2320  1  0.847600  0.704300  0.152700  1.0
  C  C2321  1  0.347600  0.295700  0.652700  1.0
  C  C2322  1  0.347600  0.795700  0.152700  1.0
  C  C2323  1  0.847600  0.204300  0.347300  1.0
  C  C2324  1  0.652400  0.704300  0.652700  1.0
  C  C2325  1  0.152400  0.795700  0.347300  1.0
  C  C2326  1  0.847600  0.704300  0.847300  1.0
  C  C2327  1  0.652400  0.204300  0.152700  1.0
  C  C2328  1  0.152400  0.295700  0.847300  1.0
  C  C2329  1  0.783100  0.917000  0.192100  1.0
  C  C2330  1  0.783100  0.417000  0.692100  1.0
  C  C2331  1  0.283100  0.583000  0.807900  1.0
  C  C2332  1  0.216900  0.083000  0.192100  1.0
  C  C2333  1  0.716900  0.417000  0.807900  1.0
  C  C2334  1  0.283100  0.083000  0.307900  1.0
  C  C2335  1  0.216900  0.583000  0.692100  1.0
  C  C2336  1  0.716900  0.917000  0.307900  1.0
  C  C2337  1  0.216900  0.083000  0.807900  1.0
  C  C2338  1  0.216900  0.583000  0.307900  1.0
  C  C2339  1  0.716900  0.417000  0.192100  1.0
  C  C2340  1  0.783100  0.917000  0.807900  1.0
  C  C2341  1  0.283100  0.583000  0.192100  1.0
  C  C2342  1  0.716900  0.917000  0.692100  1.0
  C  C2343  1  0.783100  0.417000  0.307900  1.0
  C  C2344  1  0.283100  0.083000  0.692100  1.0
  C  C2345  1  0.776100  0.898000  0.160500  1.0
  C  C2346  1  0.776100  0.398000  0.660500  1.0
  C  C2347  1  0.276100  0.602000  0.839500  1.0
  C  C2348  1  0.223900  0.102000  0.160500  1.0
  C  C2349  1  0.723900  0.398000  0.839500  1.0
  C  C2350  1  0.276100  0.102000  0.339500  1.0
  C  C2351  1  0.223900  0.602000  0.660500  1.0
  C  C2352  1  0.723900  0.898000  0.339500  1.0
  C  C2353  1  0.223900  0.102000  0.839500  1.0
  C  C2354  1  0.223900  0.602000  0.339500  1.0
  C  C2355  1  0.723900  0.398000  0.160500  1.0
  C  C2356  1  0.776100  0.898000  0.839500  1.0
  C  C2357  1  0.276100  0.602000  0.160500  1.0
  C  C2358  1  0.723900  0.898000  0.660500  1.0
  C  C2359  1  0.776100  0.398000  0.339500  1.0
  C  C2360  1  0.276100  0.102000  0.660500  1.0
  C  C2361  1  0.735300  0.886400  0.153000  1.0
  C  C2362  1  0.735300  0.386400  0.653000  1.0
  C  C2363  1  0.235300  0.613600  0.847000  1.0
  C  C2364  1  0.264700  0.113600  0.153000  1.0
  C  C2365  1  0.764700  0.386400  0.847000  1.0
  C  C2366  1  0.235300  0.113600  0.347000  1.0
  C  C2367  1  0.264700  0.613600  0.653000  1.0
  C  C2368  1  0.764700  0.886400  0.347000  1.0
  C  C2369  1  0.264700  0.113600  0.847000  1.0
  C  C2370  1  0.264700  0.613600  0.347000  1.0
  C  C2371  1  0.764700  0.386400  0.153000  1.0
  C  C2372  1  0.735300  0.886400  0.847000  1.0
  C  C2373  1  0.235300  0.613600  0.153000  1.0
  C  C2374  1  0.764700  0.886400  0.653000  1.0
  C  C2375  1  0.735300  0.386400  0.347000  1.0
  C  C2376  1  0.235300  0.113600  0.653000  1.0
  C  C2377  1  0.189200  0.848600  0.211400  1.0
  C  C2378  1  0.189200  0.348600  0.711400  1.0
  C  C2379  1  0.689200  0.651400  0.788600  1.0
  C  C2380  1  0.810800  0.151400  0.211400  1.0
  C  C2381  1  0.310800  0.348600  0.788600  1.0
  C  C2382  1  0.689200  0.151400  0.288600  1.0
  C  C2383  1  0.810800  0.651400  0.711400  1.0
  C  C2384  1  0.310800  0.848600  0.288600  1.0
  C  C2385  1  0.810800  0.151400  0.788600  1.0
  C  C2386  1  0.810800  0.651400  0.288600  1.0
  C  C2387  1  0.310800  0.348600  0.211400  1.0
  C  C2388  1  0.189200  0.848600  0.788600  1.0
  C  C2389  1  0.689200  0.651400  0.211400  1.0
  C  C2390  1  0.310800  0.848600  0.711400  1.0
  C  C2391  1  0.189200  0.348600  0.288600  1.0
  C  C2392  1  0.689200  0.151400  0.711400  1.0
  C  C2393  1  0.223600  0.821000  0.209900  1.0
  C  C2394  1  0.223600  0.321000  0.709900  1.0
  C  C2395  1  0.723600  0.679000  0.790100  1.0
  C  C2396  1  0.776400  0.179000  0.209900  1.0
  C  C2397  1  0.276400  0.321000  0.790100  1.0
  C  C2398  1  0.723600  0.179000  0.290100  1.0
  C  C2399  1  0.776400  0.679000  0.709900  1.0
  C  C2400  1  0.276400  0.821000  0.290100  1.0
  C  C2401  1  0.776400  0.179000  0.790100  1.0
  C  C2402  1  0.776400  0.679000  0.290100  1.0
  C  C2403  1  0.276400  0.321000  0.209900  1.0
  C  C2404  1  0.223600  0.821000  0.790100  1.0
  C  C2405  1  0.723600  0.679000  0.209900  1.0
  C  C2406  1  0.276400  0.821000  0.709900  1.0
  C  C2407  1  0.223600  0.321000  0.290100  1.0
  C  C2408  1  0.723600  0.179000  0.709900  1.0
  C  C2409  1  0.208500  0.793400  0.196500  1.0
  C  C2410  1  0.208500  0.293400  0.696500  1.0
  C  C2411  1  0.708500  0.706600  0.803500  1.0
  C  C2412  1  0.791500  0.206600  0.196500  1.0
  C  C2413  1  0.291500  0.293400  0.803500  1.0
  C  C2414  1  0.708500  0.206600  0.303500  1.0
  C  C2415  1  0.791500  0.706600  0.696500  1.0
  C  C2416  1  0.291500  0.793400  0.303500  1.0
  C  C2417  1  0.791500  0.206600  0.803500  1.0
  C  C2418  1  0.791500  0.706600  0.303500  1.0
  C  C2419  1  0.291500  0.293400  0.196500  1.0
  C  C2420  1  0.208500  0.793400  0.803500  1.0
  C  C2421  1  0.708500  0.706600  0.196500  1.0
  C  C2422  1  0.291500  0.793400  0.696500  1.0
  C  C2423  1  0.208500  0.293400  0.303500  1.0
  C  C2424  1  0.708500  0.206600  0.696500  1.0
  C  C2425  1  0.445900  0.043000  0.356600  1.0
  C  C2426  1  0.445900  0.543000  0.856600  1.0
  C  C2427  1  0.945900  0.457000  0.643400  1.0
  C  C2428  1  0.554100  0.957000  0.356600  1.0
  C  C2429  1  0.054100  0.543000  0.643400  1.0
  C  C2430  1  0.945900  0.957000  0.143400  1.0
  C  C2431  1  0.554100  0.457000  0.856600  1.0
  C  C2432  1  0.054100  0.043000  0.143400  1.0
  C  C2433  1  0.554100  0.957000  0.643400  1.0
  C  C2434  1  0.554100  0.457000  0.143400  1.0
  C  C2435  1  0.054100  0.543000  0.356600  1.0
  C  C2436  1  0.445900  0.043000  0.643400  1.0
  C  C2437  1  0.945900  0.457000  0.356600  1.0
  C  C2438  1  0.054100  0.043000  0.856600  1.0
  C  C2439  1  0.445900  0.543000  0.143400  1.0
  C  C2440  1  0.945900  0.957000  0.856600  1.0
  C  C2441  1  0.431900  0.054300  0.322700  1.0
  C  C2442  1  0.431900  0.554300  0.822700  1.0
  C  C2443  1  0.931900  0.445700  0.677300  1.0
  C  C2444  1  0.568100  0.945700  0.322700  1.0
  C  C2445  1  0.068100  0.554300  0.677300  1.0
  C  C2446  1  0.931900  0.945700  0.177300  1.0
  C  C2447  1  0.568100  0.445700  0.822700  1.0
  C  C2448  1  0.068100  0.054300  0.177300  1.0
  C  C2449  1  0.568100  0.945700  0.677300  1.0
  C  C2450  1  0.568100  0.445700  0.177300  1.0
  C  C2451  1  0.068100  0.554300  0.322700  1.0
  C  C2452  1  0.431900  0.054300  0.677300  1.0
  C  C2453  1  0.931900  0.445700  0.322700  1.0
  C  C2454  1  0.068100  0.054300  0.822700  1.0
  C  C2455  1  0.431900  0.554300  0.177300  1.0
  C  C2456  1  0.931900  0.945700  0.822700  1.0
  C  C2457  1  0.458000  0.075900  0.305300  1.0
  C  C2458  1  0.458000  0.575900  0.805300  1.0
  C  C2459  1  0.958000  0.424100  0.694700  1.0
  C  C2460  1  0.542000  0.924100  0.305300  1.0
  C  C2461  1  0.042000  0.575900  0.694700  1.0
  C  C2462  1  0.958000  0.924100  0.194700  1.0
  C  C2463  1  0.542000  0.424100  0.805300  1.0
  C  C2464  1  0.042000  0.075900  0.194700  1.0
  C  C2465  1  0.542000  0.924100  0.694700  1.0
  C  C2466  1  0.542000  0.424100  0.194700  1.0
  C  C2467  1  0.042000  0.575900  0.305300  1.0
  C  C2468  1  0.458000  0.075900  0.694700  1.0
  C  C2469  1  0.958000  0.424100  0.305300  1.0
  C  C2470  1  0.042000  0.075900  0.805300  1.0
  C  C2471  1  0.458000  0.575900  0.194700  1.0
  C  C2472  1  0.958000  0.924100  0.805300  1.0
  C  C2473  1  0.907800  0.761900  0.255400  1.0
  C  C2474  1  0.907800  0.261900  0.755400  1.0
  C  C2475  1  0.407800  0.738100  0.744600  1.0
  C  C2476  1  0.092200  0.238100  0.255400  1.0
  C  C2477  1  0.592200  0.261900  0.744600  1.0
  C  C2478  1  0.407800  0.238100  0.244600  1.0
  C  C2479  1  0.092200  0.738100  0.755400  1.0
  C  C2480  1  0.592200  0.761900  0.244600  1.0
  C  C2481  1  0.092200  0.238100  0.744600  1.0
  C  C2482  1  0.092200  0.738100  0.244600  1.0
  C  C2483  1  0.592200  0.261900  0.255400  1.0
  C  C2484  1  0.907800  0.761900  0.744600  1.0
  C  C2485  1  0.407800  0.738100  0.255400  1.0
  C  C2486  1  0.592200  0.761900  0.755400  1.0
  C  C2487  1  0.907800  0.261900  0.244600  1.0
  C  C2488  1  0.407800  0.238100  0.755400  1.0
  C  C2489  1  0.935900  0.749400  0.224500  1.0
  C  C2490  1  0.935900  0.249400  0.724500  1.0
  C  C2491  1  0.435900  0.750600  0.775500  1.0
  C  C2492  1  0.064100  0.250600  0.224500  1.0
  C  C2493  1  0.564100  0.249400  0.775500  1.0
  C  C2494  1  0.435900  0.250600  0.275500  1.0
  C  C2495  1  0.064100  0.750600  0.724500  1.0
  C  C2496  1  0.564100  0.749400  0.275500  1.0
  C  C2497  1  0.064100  0.250600  0.775500  1.0
  C  C2498  1  0.064100  0.750600  0.275500  1.0
  C  C2499  1  0.564100  0.249400  0.224500  1.0
  C  C2500  1  0.935900  0.749400  0.775500  1.0
  C  C2501  1  0.435900  0.750600  0.224500  1.0
  C  C2502  1  0.564100  0.749400  0.724500  1.0
  C  C2503  1  0.935900  0.249400  0.275500  1.0
  C  C2504  1  0.435900  0.250600  0.724500  1.0
  O  O2505  1  0.118900  0.870900  0.390800  1
  O  O2506  1  0.118900  0.370900  0.890800  1
  O  O2507  1  0.618900  0.629100  0.609200  1
  O  O2508  1  0.881100  0.129100  0.390800  1
  O  O2509  1  0.381100  0.370900  0.609200  1
  O  O2510  1  0.618900  0.129100  0.109200  1
  O  O2511  1  0.881100  0.629100  0.890800  1
  O  O2512  1  0.381100  0.870900  0.109200  1
  O  O2513  1  0.881100  0.129100  0.609200  1
  O  O2514  1  0.881100  0.629100  0.109200  1
  O  O2515  1  0.381100  0.370900  0.390800  1
  O  O2516  1  0.118900  0.870900  0.609200  1
  O  O2517  1  0.618900  0.629100  0.390800  1
  O  O2518  1  0.381100  0.870900  0.890800  1
  O  O2519  1  0.118900  0.370900  0.109200  1
  O  O2520  1  0.618900  0.129100  0.890800  1
  O  O2521  1  0.990200  0.963300  0.282600  1
  O  O2522  1  0.990200  0.463300  0.782600  1
  O  O2523  1  0.490200  0.536700  0.717400  1
  O  O2524  1  0.009800  0.036700  0.282600  1
  O  O2525  1  0.509800  0.463300  0.717400  1
  O  O2526  1  0.490200  0.036700  0.217400  1
  O  O2527  1  0.009800  0.536700  0.782600  1
  O  O2528  1  0.509800  0.963300  0.217400  1
  O  O2529  1  0.009800  0.036700  0.717400  1
  O  O2530  1  0.009800  0.536700  0.217400  1
  O  O2531  1  0.509800  0.463300  0.282600  1
  O  O2532  1  0.990200  0.963300  0.717400  1
  O  O2533  1  0.490200  0.536700  0.282600  1
  O  O2534  1  0.509800  0.963300  0.782600  1
  O  O2535  1  0.990200  0.463300  0.217400  1
  O  O2536  1  0.490200  0.036700  0.782600  1
  O  O2537  1  0.848200  0.932300  0.435900  1
  O  O2538  1  0.848200  0.432300  0.935900  1
  O  O2539  1  0.348200  0.567700  0.564100  1
  O  O2540  1  0.151800  0.067700  0.435900  1
  O  O2541  1  0.651800  0.432300  0.564100  1
  O  O2542  1  0.348200  0.067700  0.064100  1
  O  O2543  1  0.151800  0.567700  0.935900  1
  O  O2544  1  0.651800  0.932300  0.064100  1
  O  O2545  1  0.151800  0.067700  0.564100  1
  O  O2546  1  0.151800  0.567700  0.064100  1
  O  O2547  1  0.651800  0.432300  0.435900  1
  O  O2548  1  0.848200  0.932300  0.564100  1
  O  O2549  1  0.348200  0.567700  0.435900  1
  O  O2550  1  0.651800  0.932300  0.935900  1
  O  O2551  1  0.848200  0.432300  0.064100  1
  O  O2552  1  0.348200  0.067700  0.935900  1
  O  O2553  1  0.621800  0.050600  0.418400  1
  O  O2554  1  0.621800  0.550600  0.918400  1
  O  O2555  1  0.121800  0.449400  0.581600  1
  O  O2556  1  0.378200  0.949400  0.418400  1
  O  O2557  1  0.878200  0.550600  0.581600  1
  O  O2558  1  0.121800  0.949400  0.081600  1
  O  O2559  1  0.378200  0.449400  0.918400  1
  O  O2560  1  0.878200  0.050600  0.081600  1
  O  O2561  1  0.378200  0.949400  0.581600  1
  O  O2562  1  0.378200  0.449400  0.081600  1
  O  O2563  1  0.878200  0.550600  0.418400  1
  O  O2564  1  0.621800  0.050600  0.581600  1
  O  O2565  1  0.121800  0.449400  0.418400  1
  O  O2566  1  0.878200  0.050600  0.918400  1
  O  O2567  1  0.621800  0.550600  0.081600  1
  O  O2568  1  0.121800  0.949400  0.918400  1
  O  O2569  1  0.527000  0.846700  0.300300  1
  O  O2570  1  0.527000  0.346700  0.800300  1
  O  O2571  1  0.027000  0.653300  0.699700  1
  O  O2572  1  0.473000  0.153300  0.300300  1
  O  O2573  1  0.973000  0.346700  0.699700  1
  O  O2574  1  0.027000  0.153300  0.199700  1
  O  O2575  1  0.473000  0.653300  0.800300  1
  O  O2576  1  0.973000  0.846700  0.199700  1
  O  O2577  1  0.473000  0.153300  0.699700  1
  O  O2578  1  0.473000  0.653300  0.199700  1
  O  O2579  1  0.973000  0.346700  0.300300  1
  O  O2580  1  0.527000  0.846700  0.699700  1
  O  O2581  1  0.027000  0.653300  0.300300  1
  O  O2582  1  0.973000  0.846700  0.800300  1
  O  O2583  1  0.527000  0.346700  0.199700  1
  O  O2584  1  0.027000  0.153300  0.800300  1
  O  O2585  1  0.010000  0.791200  0.216100  1
  O  O2586  1  0.010000  0.291200  0.716100  1
  O  O2587  1  0.510000  0.708800  0.783900  1
  O  O2588  1  0.990000  0.208800  0.216100  1
  O  O2589  1  0.490000  0.291200  0.783900  1
  O  O2590  1  0.510000  0.208800  0.283900  1
  O  O2591  1  0.990000  0.708800  0.716100  1
  O  O2592  1  0.490000  0.791200  0.283900  1
  O  O2593  1  0.990000  0.208800  0.783900  1
  O  O2594  1  0.990000  0.708800  0.283900  1
  O  O2595  1  0.490000  0.291200  0.216100  1
  O  O2596  1  0.010000  0.791200  0.783900  1
  O  O2597  1  0.510000  0.708800  0.216100  1
  O  O2598  1  0.490000  0.791200  0.716100  1
  O  O2599  1  0.010000  0.291200  0.283900  1
  O  O2600  1  0.510000  0.208800  0.716100  1
  O  O2601  1  0.774000  0.006000  0.500000  1
  O  O2602  1  0.774000  0.506000  0.000000  1
  O  O2603  1  0.274000  0.494000  0.500000  1
  O  O2604  1  0.226000  0.994000  0.500000  1
  O  O2605  1  0.726000  0.506000  0.500000  1
  O  O2606  1  0.274000  0.994000  0.000000  1
  O  O2607  1  0.226000  0.494000  0.000000  1
  O  O2608  1  0.726000  0.006000  0.000000  1
  O  O2609  1  0.353000  0.861600  0.500000  1
  O  O2610  1  0.353000  0.361600  0.000000  1
  O  O2611  1  0.853000  0.638400  0.500000  1
  O  O2612  1  0.647000  0.138400  0.500000  1
  O  O2613  1  0.147000  0.361600  0.500000  1
  O  O2614  1  0.853000  0.138400  0.000000  1
  O  O2615  1  0.647000  0.638400  0.000000  1
  O  O2616  1  0.147000  0.861600  0.000000  1
  O  O2617  1  0.567000  0.942900  0.500000  1
  O  O2618  1  0.567000  0.442900  0.000000  1
  O  O2619  1  0.067000  0.557100  0.500000  1
  O  O2620  1  0.433000  0.057100  0.500000  1
  O  O2621  1  0.933000  0.442900  0.500000  1
  O  O2622  1  0.067000  0.057100  0.000000  1
  O  O2623  1  0.433000  0.557100  0.000000  1
  O  O2624  1  0.933000  0.942900  0.000000  1
  O  O2625  1  0.756000  0.815200  0.215900  1
  O  O2626  1  0.756000  0.315200  0.715900  1
  O  O2627  1  0.256000  0.684800  0.784100  1
  O  O2628  1  0.244000  0.184800  0.215900  1
  O  O2629  1  0.744000  0.315200  0.784100  1
  O  O2630  1  0.256000  0.184800  0.284100  1
  O  O2631  1  0.244000  0.684800  0.715900  1
  O  O2632  1  0.744000  0.815200  0.284100  1
  O  O2633  1  0.244000  0.184800  0.784100  1
  O  O2634  1  0.244000  0.684800  0.284100  1
  O  O2635  1  0.744000  0.315200  0.215900  1
  O  O2636  1  0.756000  0.815200  0.784100  1
  O  O2637  1  0.256000  0.684800  0.215900  1
  O  O2638  1  0.744000  0.815200  0.715900  1
  O  O2639  1  0.756000  0.315200  0.284100  1
  O  O2640  1  0.256000  0.184800  0.715900  1
  O  O2641  1  0.942700  0.799000  0.459700  1
  O  O2642  1  0.942700  0.299000  0.959700  1
  O  O2643  1  0.442700  0.701000  0.540300  1
  O  O2644  1  0.057300  0.201000  0.459700  1
  O  O2645  1  0.557300  0.299000  0.540300  1
  O  O2646  1  0.442700  0.201000  0.040300  1
  O  O2647  1  0.057300  0.701000  0.959700  1
  O  O2648  1  0.557300  0.799000  0.040300  1
  O  O2649  1  0.057300  0.201000  0.540300  1
  O  O2650  1  0.057300  0.701000  0.040300  1
  O  O2651  1  0.557300  0.299000  0.459700  1
  O  O2652  1  0.942700  0.799000  0.540300  1
  O  O2653  1  0.442700  0.701000  0.459700  1
  O  O2654  1  0.557300  0.799000  0.959700  1
  O  O2655  1  0.942700  0.299000  0.040300  1
  O  O2656  1  0.442700  0.201000  0.959700  1
  O  O2657  1  0.251100  0.739700  0.500000  1.0
  O  O2658  1  0.251100  0.239700  0.000000  1.0
  O  O2659  1  0.751100  0.760300  0.500000  1.0
  O  O2660  1  0.748900  0.260300  0.500000  1.0
  O  O2661  1  0.248900  0.239700  0.500000  1.0
  O  O2662  1  0.751100  0.260300  0.000000  1.0
  O  O2663  1  0.748900  0.760300  0.000000  1.0
  O  O2664  1  0.248900  0.739700  0.000000  1.0
  O  O2665  1  0.633600  0.818600  0.500000  1.0
  O  O2666  1  0.633600  0.318600  0.000000  1.0
  O  O2667  1  0.133600  0.681400  0.500000  1.0
  O  O2668  1  0.366400  0.181400  0.500000  1.0
  O  O2669  1  0.866400  0.318600  0.500000  1.0
  O  O2670  1  0.133600  0.181400  0.000000  1.0
  O  O2671  1  0.366400  0.681400  0.000000  1.0
  O  O2672  1  0.866400  0.818600  0.000000  1.0
  O  O2673  1  0.103800  0.875700  0.500000  1.0
  O  O2674  1  0.103800  0.375700  0.000000  1.0
  O  O2675  1  0.603800  0.624300  0.500000  1.0
  O  O2676  1  0.896200  0.124300  0.500000  1.0
  O  O2677  1  0.396200  0.375700  0.500000  1.0
  O  O2678  1  0.603800  0.124300  0.000000  1.0
  O  O2679  1  0.896200  0.624300  0.000000  1.0
  O  O2680  1  0.396200  0.875700  0.000000  1.0
  O  O2681  1  0.834500  0.915600  0.500000  1.0
  O  O2682  1  0.834500  0.415600  0.000000  1.0
  O  O2683  1  0.334500  0.584400  0.500000  1.0
  O  O2684  1  0.165500  0.084400  0.500000  1.0
  O  O2685  1  0.665500  0.415600  0.500000  1.0
  O  O2686  1  0.334500  0.084400  0.000000  1.0
  O  O2687  1  0.165500  0.584400  0.000000  1.0
  O  O2688  1  0.665500  0.915600  0.000000  1.0
  O  O2689  1  0.221100  0.004700  0.290100  1.0
  O  O2690  1  0.221100  0.504700  0.790100  1.0
  O  O2691  1  0.721100  0.495300  0.709900  1.0
  O  O2692  1  0.778900  0.995300  0.290100  1.0
  O  O2693  1  0.278900  0.504700  0.709900  1.0
  O  O2694  1  0.721100  0.995300  0.209900  1.0
  O  O2695  1  0.778900  0.495300  0.790100  1.0
  O  O2696  1  0.278900  0.004700  0.209900  1.0
  O  O2697  1  0.778900  0.995300  0.709900  1.0
  O  O2698  1  0.778900  0.495300  0.209900  1.0
  O  O2699  1  0.278900  0.504700  0.290100  1.0
  O  O2700  1  0.221100  0.004700  0.709900  1.0
  O  O2701  1  0.721100  0.495300  0.290100  1.0
  O  O2702  1  0.278900  0.004700  0.790100  1.0
  O  O2703  1  0.221100  0.504700  0.209900  1.0
  O  O2704  1  0.721100  0.995300  0.790100  1.0
  O  O2705  1  0.207800  0.936600  0.291600  1.0
  O  O2706  1  0.207800  0.436600  0.791600  1.0
  O  O2707  1  0.707800  0.563400  0.708400  1.0
  O  O2708  1  0.792200  0.063400  0.291600  1.0
  O  O2709  1  0.292200  0.436600  0.708400  1.0
  O  O2710  1  0.707800  0.063400  0.208400  1.0
  O  O2711  1  0.792200  0.563400  0.791600  1.0
  O  O2712  1  0.292200  0.936600  0.208400  1.0
  O  O2713  1  0.792200  0.063400  0.708400  1.0
  O  O2714  1  0.792200  0.563400  0.208400  1.0
  O  O2715  1  0.292200  0.436600  0.291600  1.0
  O  O2716  1  0.207800  0.936600  0.708400  1.0
  O  O2717  1  0.707800  0.563400  0.291600  1.0
  O  O2718  1  0.292200  0.936600  0.791600  1.0
  O  O2719  1  0.207800  0.436600  0.208400  1.0
  O  O2720  1  0.707800  0.063400  0.791600  1.0
  O  O2721  1  0.790000  0.856100  0.465900  1.0
  O  O2722  1  0.790000  0.356100  0.965900  1.0
  O  O2723  1  0.290000  0.643900  0.534100  1.0
  O  O2724  1  0.210000  0.143900  0.465900  1.0
  O  O2725  1  0.710000  0.356100  0.534100  1.0
  O  O2726  1  0.290000  0.143900  0.034100  1.0
  O  O2727  1  0.210000  0.643900  0.965900  1.0
  O  O2728  1  0.710000  0.856100  0.034100  1.0
  O  O2729  1  0.210000  0.143900  0.534100  1.0
  O  O2730  1  0.210000  0.643900  0.034100  1.0
  O  O2731  1  0.710000  0.356100  0.465900  1.0
  O  O2732  1  0.790000  0.856100  0.534100  1.0
  O  O2733  1  0.290000  0.643900  0.465900  1.0
  O  O2734  1  0.710000  0.856100  0.965900  1.0
  O  O2735  1  0.790000  0.356100  0.034100  1.0
  O  O2736  1  0.290000  0.143900  0.965900  1.0
  O  O2737  1  0.287800  0.997400  0.339500  1.0
  O  O2738  1  0.287800  0.497400  0.839500  1.0
  O  O2739  1  0.787800  0.502600  0.660500  1.0
  O  O2740  1  0.712200  0.002600  0.339500  1.0
  O  O2741  1  0.212200  0.497400  0.660500  1.0
  O  O2742  1  0.787800  0.002600  0.160500  1.0
  O  O2743  1  0.712200  0.502600  0.839500  1.0
  O  O2744  1  0.212200  0.997400  0.160500  1.0
  O  O2745  1  0.712200  0.002600  0.660500  1.0
  O  O2746  1  0.712200  0.502600  0.160500  1.0
  O  O2747  1  0.212200  0.497400  0.339500  1.0
  O  O2748  1  0.287800  0.997400  0.660500  1.0
  O  O2749  1  0.787800  0.502600  0.339500  1.0
  O  O2750  1  0.212200  0.997400  0.839500  1.0
  O  O2751  1  0.287800  0.497400  0.160500  1.0
  O  O2752  1  0.787800  0.002600  0.839500  1.0
  O  O2753  1  0.271700  0.929700  0.342000  1.0
  O  O2754  1  0.271700  0.429700  0.842000  1.0
  O  O2755  1  0.771700  0.570300  0.658000  1.0
  O  O2756  1  0.728300  0.070300  0.342000  1.0
  O  O2757  1  0.228300  0.429700  0.658000  1.0
  O  O2758  1  0.771700  0.070300  0.158000  1.0
  O  O2759  1  0.728300  0.570300  0.842000  1.0
  O  O2760  1  0.228300  0.929700  0.158000  1.0
  O  O2761  1  0.728300  0.070300  0.658000  1.0
  O  O2762  1  0.728300  0.570300  0.158000  1.0
  O  O2763  1  0.228300  0.429700  0.342000  1.0
  O  O2764  1  0.271700  0.929700  0.658000  1.0
  O  O2765  1  0.771700  0.570300  0.342000  1.0
  O  O2766  1  0.228300  0.929700  0.842000  1.0
  O  O2767  1  0.271700  0.429700  0.158000  1.0
  O  O2768  1  0.771700  0.070300  0.842000  1.0
  O  O2769  1  0.233000  0.005500  0.378600  1.0
  O  O2770  1  0.233000  0.505500  0.878600  1.0
  O  O2771  1  0.733000  0.494500  0.621400  1.0
  O  O2772  1  0.767000  0.994500  0.378600  1.0
  O  O2773  1  0.267000  0.505500  0.621400  1.0
  O  O2774  1  0.733000  0.994500  0.121400  1.0
  O  O2775  1  0.767000  0.494500  0.878600  1.0
  O  O2776  1  0.267000  0.005500  0.121400  1.0
  O  O2777  1  0.767000  0.994500  0.621400  1.0
  O  O2778  1  0.767000  0.494500  0.121400  1.0
  O  O2779  1  0.267000  0.505500  0.378600  1.0
  O  O2780  1  0.233000  0.005500  0.621400  1.0
  O  O2781  1  0.733000  0.494500  0.378600  1.0
  O  O2782  1  0.267000  0.005500  0.878600  1.0
  O  O2783  1  0.233000  0.505500  0.121400  1.0
  O  O2784  1  0.733000  0.994500  0.878600  1.0
  O  O2785  1  0.217700  0.937400  0.380700  1.0
  O  O2786  1  0.217700  0.437400  0.880700  1.0
  O  O2787  1  0.717700  0.562600  0.619300  1.0
  O  O2788  1  0.782300  0.062600  0.380700  1.0
  O  O2789  1  0.282300  0.437400  0.619300  1.0
  O  O2790  1  0.717700  0.062600  0.119300  1.0
  O  O2791  1  0.782300  0.562600  0.880700  1.0
  O  O2792  1  0.282300  0.937400  0.119300  1.0
  O  O2793  1  0.782300  0.062600  0.619300  1.0
  O  O2794  1  0.782300  0.562600  0.119300  1.0
  O  O2795  1  0.282300  0.437400  0.380700  1.0
  O  O2796  1  0.217700  0.937400  0.619300  1.0
  O  O2797  1  0.717700  0.562600  0.380700  1.0
  O  O2798  1  0.282300  0.937400  0.880700  1.0
  O  O2799  1  0.217700  0.437400  0.119300  1.0
  O  O2800  1  0.717700  0.062600  0.880700  1.0
  O  O2801  1  0.153200  0.942700  0.331600  1.0
  O  O2802  1  0.153200  0.442700  0.831600  1.0
  O  O2803  1  0.653200  0.557300  0.668400  1.0
  O  O2804  1  0.846800  0.057300  0.331600  1.0
  O  O2805  1  0.346800  0.442700  0.668400  1.0
  O  O2806  1  0.653200  0.057300  0.168400  1.0
  O  O2807  1  0.846800  0.557300  0.831600  1.0
  O  O2808  1  0.346800  0.942700  0.168400  1.0
  O  O2809  1  0.846800  0.057300  0.668400  1.0
  O  O2810  1  0.846800  0.557300  0.168400  1.0
  O  O2811  1  0.346800  0.442700  0.331600  1.0
  O  O2812  1  0.153200  0.942700  0.668400  1.0
  O  O2813  1  0.653200  0.557300  0.331600  1.0
  O  O2814  1  0.346800  0.942700  0.831600  1.0
  O  O2815  1  0.153200  0.442700  0.168400  1.0
  O  O2816  1  0.653200  0.057300  0.831600  1.0
  O  O2817  1  0.168000  0.011210  0.328800  1.0
  O  O2818  1  0.168000  0.511210  0.828800  1.0
  O  O2819  1  0.668000  0.488790  0.671200  1.0
  O  O2820  1  0.832000  0.988790  0.328800  1.0
  O  O2821  1  0.332000  0.511210  0.671200  1.0
  O  O2822  1  0.668000  0.988790  0.171200  1.0
  O  O2823  1  0.832000  0.488790  0.828800  1.0
  O  O2824  1  0.332000  0.011210  0.171200  1.0
  O  O2825  1  0.832000  0.988790  0.671200  1.0
  O  O2826  1  0.832000  0.488790  0.171200  1.0
  O  O2827  1  0.332000  0.511210  0.328800  1.0
  O  O2828  1  0.168000  0.011210  0.671200  1.0
  O  O2829  1  0.668000  0.488790  0.328800  1.0
  O  O2830  1  0.332000  0.011210  0.828800  1.0
  O  O2831  1  0.168000  0.511210  0.171200  1.0
  O  O2832  1  0.668000  0.988790  0.828800  1.0
  O  O2833  1  0.010000  0.829300  0.296400  1.0
  O  O2834  1  0.010000  0.329300  0.796400  1.0
  O  O2835  1  0.510000  0.670700  0.703600  1.0
  O  O2836  1  0.990000  0.170700  0.296400  1.0
  O  O2837  1  0.490000  0.329300  0.703600  1.0
  O  O2838  1  0.510000  0.170700  0.203600  1.0
  O  O2839  1  0.990000  0.670700  0.796400  1.0
  O  O2840  1  0.490000  0.829300  0.203600  1.0
  O  O2841  1  0.990000  0.170700  0.703600  1.0
  O  O2842  1  0.990000  0.670700  0.203600  1.0
  O  O2843  1  0.490000  0.329300  0.296400  1.0
  O  O2844  1  0.010000  0.829300  0.703600  1.0
  O  O2845  1  0.510000  0.670700  0.296400  1.0
  O  O2846  1  0.490000  0.829300  0.796400  1.0
  O  O2847  1  0.010000  0.329300  0.203600  1.0
  O  O2848  1  0.510000  0.170700  0.796400  1.0
  O  O2849  1  0.016600  0.871200  0.332800  1.0
  O  O2850  1  0.016600  0.371200  0.832800  1.0
  O  O2851  1  0.516600  0.628800  0.667200  1.0
  O  O2852  1  0.983400  0.128800  0.332800  1.0
  O  O2853  1  0.483400  0.371200  0.667200  1.0
  O  O2854  1  0.516600  0.128800  0.167200  1.0
  O  O2855  1  0.983400  0.628800  0.832800  1.0
  O  O2856  1  0.483400  0.871200  0.167200  1.0
  O  O2857  1  0.983400  0.128800  0.667200  1.0
  O  O2858  1  0.983400  0.628800  0.167200  1.0
  O  O2859  1  0.483400  0.371200  0.332800  1.0
  O  O2860  1  0.016600  0.871200  0.667200  1.0
  O  O2861  1  0.516600  0.628800  0.332800  1.0
  O  O2862  1  0.483400  0.871200  0.832800  1.0
  O  O2863  1  0.016600  0.371200  0.167200  1.0
  O  O2864  1  0.516600  0.128800  0.832800  1.0
  O  O2865  1  0.917300  0.849000  0.292400  1.0
  O  O2866  1  0.917300  0.349000  0.792400  1.0
  O  O2867  1  0.417300  0.651000  0.707600  1.0
  O  O2868  1  0.082700  0.151000  0.292400  1.0
  O  O2869  1  0.582700  0.349000  0.707600  1.0
  O  O2870  1  0.417300  0.151000  0.207600  1.0
  O  O2871  1  0.082700  0.651000  0.792400  1.0
  O  O2872  1  0.582700  0.849000  0.207600  1.0
  O  O2873  1  0.082700  0.151000  0.707600  1.0
  O  O2874  1  0.082700  0.651000  0.207600  1.0
  O  O2875  1  0.582700  0.349000  0.292400  1.0
  O  O2876  1  0.917300  0.849000  0.707600  1.0
  O  O2877  1  0.417300  0.651000  0.292400  1.0
  O  O2878  1  0.582700  0.849000  0.792400  1.0
  O  O2879  1  0.917300  0.349000  0.207600  1.0
  O  O2880  1  0.417300  0.151000  0.792400  1.0
  O  O2881  1  0.725600  0.824500  0.466300  1.0
  O  O2882  1  0.725600  0.324500  0.966300  1.0
  O  O2883  1  0.225600  0.675500  0.533700  1.0
  O  O2884  1  0.274400  0.175500  0.466300  1.0
  O  O2885  1  0.774400  0.324500  0.533700  1.0
  O  O2886  1  0.225600  0.175500  0.033700  1.0
  O  O2887  1  0.274400  0.675500  0.966300  1.0
  O  O2888  1  0.774400  0.824500  0.033700  1.0
  O  O2889  1  0.274400  0.175500  0.533700  1.0
  O  O2890  1  0.274400  0.675500  0.033700  1.0
  O  O2891  1  0.774400  0.324500  0.466300  1.0
  O  O2892  1  0.725600  0.824500  0.533700  1.0
  O  O2893  1  0.225600  0.675500  0.466300  1.0
  O  O2894  1  0.774400  0.824500  0.966300  1.0
  O  O2895  1  0.725600  0.324500  0.033700  1.0
  O  O2896  1  0.225600  0.175500  0.966300  1.0
  O  O2897  1  0.923800  0.887000  0.333500  1.0
  O  O2898  1  0.923800  0.387000  0.833500  1.0
  O  O2899  1  0.423800  0.613000  0.666500  1.0
  O  O2900  1  0.076200  0.113000  0.333500  1.0
  O  O2901  1  0.576200  0.387000  0.666500  1.0
  O  O2902  1  0.423800  0.113000  0.166500  1.0
  O  O2903  1  0.076200  0.613000  0.833500  1.0
  O  O2904  1  0.576200  0.887000  0.166500  1.0
  O  O2905  1  0.076200  0.113000  0.666500  1.0
  O  O2906  1  0.076200  0.613000  0.166500  1.0
  O  O2907  1  0.576200  0.387000  0.333500  1.0
  O  O2908  1  0.923800  0.887000  0.666500  1.0
  O  O2909  1  0.423800  0.613000  0.333500  1.0
  O  O2910  1  0.576200  0.887000  0.833500  1.0
  O  O2911  1  0.923800  0.387000  0.166500  1.0
  O  O2912  1  0.423800  0.113000  0.833500  1.0
  O  O2913  1  0.895200  0.801900  0.340700  1.0
  O  O2914  1  0.895200  0.301900  0.840700  1.0
  O  O2915  1  0.395200  0.698100  0.659300  1.0
  O  O2916  1  0.104800  0.198100  0.340700  1.0
  O  O2917  1  0.604800  0.301900  0.659300  1.0
  O  O2918  1  0.395200  0.198100  0.159300  1.0
  O  O2919  1  0.104800  0.698100  0.840700  1.0
  O  O2920  1  0.604800  0.801900  0.159300  1.0
  O  O2921  1  0.104800  0.198100  0.659300  1.0
  O  O2922  1  0.104800  0.698100  0.159300  1.0
  O  O2923  1  0.604800  0.301900  0.340700  1.0
  O  O2924  1  0.895200  0.801900  0.659300  1.0
  O  O2925  1  0.395200  0.698100  0.340700  1.0
  O  O2926  1  0.604800  0.801900  0.840700  1.0
  O  O2927  1  0.895200  0.301900  0.159300  1.0
  O  O2928  1  0.395200  0.198100  0.840700  1.0
  O  O2929  1  0.907600  0.839300  0.380600  1.0
  O  O2930  1  0.907600  0.339300  0.880600  1.0
  O  O2931  1  0.407600  0.660700  0.619400  1.0
  O  O2932  1  0.092400  0.160700  0.380600  1.0
  O  O2933  1  0.592400  0.339300  0.619400  1.0
  O  O2934  1  0.407600  0.160700  0.119400  1.0
  O  O2935  1  0.092400  0.660700  0.880600  1.0
  O  O2936  1  0.592400  0.839300  0.119400  1.0
  O  O2937  1  0.092400  0.160700  0.619400  1.0
  O  O2938  1  0.092400  0.660700  0.119400  1.0
  O  O2939  1  0.592400  0.339300  0.380600  1.0
  O  O2940  1  0.907600  0.839300  0.619400  1.0
  O  O2941  1  0.407600  0.660700  0.380600  1.0
  O  O2942  1  0.592400  0.839300  0.880600  1.0
  O  O2943  1  0.907600  0.339300  0.119400  1.0
  O  O2944  1  0.407600  0.160700  0.880600  1.0
  O  O2945  1  0.002100  0.824200  0.381600  1.0
  O  O2946  1  0.002100  0.324200  0.881600  1.0
  O  O2947  1  0.502100  0.675800  0.618400  1.0
  O  O2948  1  0.997900  0.175800  0.381600  1.0
  O  O2949  1  0.497900  0.324200  0.618400  1.0
  O  O2950  1  0.502100  0.175800  0.118400  1.0
  O  O2951  1  0.997900  0.675800  0.881600  1.0
  O  O2952  1  0.497900  0.824200  0.118400  1.0
  O  O2953  1  0.997900  0.175800  0.618400  1.0
  O  O2954  1  0.997900  0.675800  0.118400  1.0
  O  O2955  1  0.497900  0.324200  0.381600  1.0
  O  O2956  1  0.002100  0.824200  0.618400  1.0
  O  O2957  1  0.502100  0.675800  0.381600  1.0
  O  O2958  1  0.497900  0.824200  0.881600  1.0
  O  O2959  1  0.002100  0.324200  0.118400  1.0
  O  O2960  1  0.502100  0.175800  0.881600  1.0
  O  O2961  1  0.988200  0.784200  0.345200  1.0
  O  O2962  1  0.988200  0.284200  0.845200  1.0
  O  O2963  1  0.488200  0.715800  0.654800  1.0
  O  O2964  1  0.011800  0.215800  0.345200  1.0
  O  O2965  1  0.511800  0.284200  0.654800  1.0
  O  O2966  1  0.488200  0.215800  0.154800  1.0
  O  O2967  1  0.011800  0.715800  0.845200  1.0
  O  O2968  1  0.511800  0.784200  0.154800  1.0
  O  O2969  1  0.011800  0.215800  0.654800  1.0
  O  O2970  1  0.011800  0.715800  0.154800  1.0
  O  O2971  1  0.511800  0.284200  0.345200  1.0
  O  O2972  1  0.988200  0.784200  0.654800  1.0
  O  O2973  1  0.488200  0.715800  0.345200  1.0
  O  O2974  1  0.511800  0.784200  0.845200  1.0
  O  O2975  1  0.988200  0.284200  0.154800  1.0
  O  O2976  1  0.488200  0.215800  0.845200  1.0
  O  O2977  1  0.194200  0.851700  0.466500  1.0
  O  O2978  1  0.194200  0.351700  0.966500  1.0
  O  O2979  1  0.694200  0.648300  0.533500  1.0
  O  O2980  1  0.805800  0.148300  0.466500  1.0
  O  O2981  1  0.305800  0.351700  0.533500  1.0
  O  O2982  1  0.694200  0.148300  0.033500  1.0
  O  O2983  1  0.805800  0.648300  0.966500  1.0
  O  O2984  1  0.305800  0.851700  0.033500  1.0
  O  O2985  1  0.805800  0.148300  0.533500  1.0
  O  O2986  1  0.805800  0.648300  0.033500  1.0
  O  O2987  1  0.305800  0.351700  0.466500  1.0
  O  O2988  1  0.194200  0.851700  0.533500  1.0
  O  O2989  1  0.694200  0.648300  0.466500  1.0
  O  O2990  1  0.305800  0.851700  0.966500  1.0
  O  O2991  1  0.194200  0.351700  0.033500  1.0
  O  O2992  1  0.694200  0.148300  0.966500  1.0
  O  O2993  1  0.162400  0.763200  0.466700  1.0
  O  O2994  1  0.162400  0.263200  0.966700  1.0
  O  O2995  1  0.662400  0.736800  0.533300  1.0
  O  O2996  1  0.837600  0.236800  0.466700  1.0
  O  O2997  1  0.337600  0.263200  0.533300  1.0
  O  O2998  1  0.662400  0.236800  0.033300  1.0
  O  O2999  1  0.837600  0.736800  0.966700  1.0
  O  O3000  1  0.337600  0.763200  0.033300  1.0
  O  O3001  1  0.837600  0.236800  0.533300  1.0
  O  O3002  1  0.837600  0.736800  0.033300  1.0
  O  O3003  1  0.337600  0.263200  0.466700  1.0
  O  O3004  1  0.162400  0.763200  0.533300  1.0
  O  O3005  1  0.662400  0.736800  0.466700  1.0
  O  O3006  1  0.337600  0.763200  0.966700  1.0
  O  O3007  1  0.162400  0.263200  0.033300  1.0
  O  O3008  1  0.662400  0.236800  0.966700  1.0
  O  O3009  1  0.118200  0.808900  0.466200  1.0
  O  O3010  1  0.118200  0.308900  0.966200  1.0
  O  O3011  1  0.618200  0.691100  0.533800  1.0
  O  O3012  1  0.881800  0.191100  0.466200  1.0
  O  O3013  1  0.381800  0.308900  0.533800  1.0
  O  O3014  1  0.618200  0.191100  0.033800  1.0
  O  O3015  1  0.881800  0.691100  0.966200  1.0
  O  O3016  1  0.381800  0.808900  0.033800  1.0
  O  O3017  1  0.881800  0.191100  0.533800  1.0
  O  O3018  1  0.881800  0.691100  0.033800  1.0
  O  O3019  1  0.381800  0.308900  0.466200  1.0
  O  O3020  1  0.118200  0.808900  0.533800  1.0
  O  O3021  1  0.618200  0.691100  0.466200  1.0
  O  O3022  1  0.381800  0.808900  0.966200  1.0
  O  O3023  1  0.118200  0.308900  0.033800  1.0
  O  O3024  1  0.618200  0.191100  0.966200  1.0
  O  O3025  1  0.674100  0.882400  0.533900  1.0
  O  O3026  1  0.674100  0.382400  0.033900  1.0
  O  O3027  1  0.174100  0.617600  0.466100  1.0
  O  O3028  1  0.325900  0.117600  0.533900  1.0
  O  O3029  1  0.825900  0.382400  0.466100  1.0
  O  O3030  1  0.174100  0.117600  0.966100  1.0
  O  O3031  1  0.325900  0.617600  0.033900  1.0
  O  O3032  1  0.825900  0.882400  0.966100  1.0
  O  O3033  1  0.325900  0.117600  0.466100  1.0
  O  O3034  1  0.325900  0.617600  0.966100  1.0
  O  O3035  1  0.825900  0.382400  0.533900  1.0
  O  O3036  1  0.674100  0.882400  0.466100  1.0
  O  O3037  1  0.174100  0.617600  0.533900  1.0
  O  O3038  1  0.825900  0.882400  0.033900  1.0
  O  O3039  1  0.674100  0.382400  0.966100  1.0
  O  O3040  1  0.174100  0.117600  0.033900  1.0
  O  O3041  1  0.738800  0.912100  0.533700  1.0
  O  O3042  1  0.738800  0.412100  0.033700  1.0
  O  O3043  1  0.238800  0.587900  0.466300  1.0
  O  O3044  1  0.261200  0.087900  0.533700  1.0
  O  O3045  1  0.761200  0.412100  0.466300  1.0
  O  O3046  1  0.238800  0.087900  0.966300  1.0
  O  O3047  1  0.261200  0.587900  0.033700  1.0
  O  O3048  1  0.761200  0.912100  0.966300  1.0
  O  O3049  1  0.261200  0.087900  0.466300  1.0
  O  O3050  1  0.261200  0.587900  0.966300  1.0
  O  O3051  1  0.761200  0.412100  0.533700  1.0
  O  O3052  1  0.738800  0.912100  0.466300  1.0
  O  O3053  1  0.238800  0.587900  0.533700  1.0
  O  O3054  1  0.761200  0.912100  0.033700  1.0
  O  O3055  1  0.738800  0.412100  0.966300  1.0
  O  O3056  1  0.238800  0.087900  0.033700  1.0
  O  O3057  1  0.237600  0.806700  0.465900  1.0
  O  O3058  1  0.237600  0.306700  0.965900  1.0
  O  O3059  1  0.737600  0.693300  0.534100  1.0
  O  O3060  1  0.762400  0.193300  0.465900  1.0
  O  O3061  1  0.262400  0.306700  0.534100  1.0
  O  O3062  1  0.737600  0.193300  0.034100  1.0
  O  O3063  1  0.762400  0.693300  0.965900  1.0
  O  O3064  1  0.262400  0.806700  0.034100  1.0
  O  O3065  1  0.762400  0.193300  0.534100  1.0
  O  O3066  1  0.762400  0.693300  0.034100  1.0
  O  O3067  1  0.262400  0.306700  0.465900  1.0
  O  O3068  1  0.237600  0.806700  0.534100  1.0
  O  O3069  1  0.737600  0.693300  0.465900  1.0
  O  O3070  1  0.262400  0.806700  0.965900  1.0
  O  O3071  1  0.237600  0.306700  0.034100  1.0
  O  O3072  1  0.737600  0.193300  0.965900  1.0
  O  O3073  1  0.358600  0.831200  0.379700  1.0
  O  O3074  1  0.358600  0.331200  0.879700  1.0
  O  O3075  1  0.858600  0.668800  0.620300  1.0
  O  O3076  1  0.641400  0.168800  0.379700  1.0
  O  O3077  1  0.141400  0.331200  0.620300  1.0
  O  O3078  1  0.858600  0.168800  0.120300  1.0
  O  O3079  1  0.641400  0.668800  0.879700  1.0
  O  O3080  1  0.141400  0.831200  0.120300  1.0
  O  O3081  1  0.641400  0.168800  0.620300  1.0
  O  O3082  1  0.641400  0.668800  0.120300  1.0
  O  O3083  1  0.141400  0.331200  0.379700  1.0
  O  O3084  1  0.358600  0.831200  0.620300  1.0
  O  O3085  1  0.858600  0.668800  0.379700  1.0
  O  O3086  1  0.141400  0.831200  0.879700  1.0
  O  O3087  1  0.358600  0.331200  0.120300  1.0
  O  O3088  1  0.858600  0.168800  0.879700  1.0
  O  O3089  1  0.074300  0.686600  0.388400  1.0
  O  O3090  1  0.074300  0.186600  0.888400  1.0
  O  O3091  1  0.574300  0.813400  0.611600  1.0
  O  O3092  1  0.925700  0.313400  0.388400  1.0
  O  O3093  1  0.425700  0.186600  0.611600  1.0
  O  O3094  1  0.574300  0.313400  0.111600  1.0
  O  O3095  1  0.925700  0.813400  0.888400  1.0
  O  O3096  1  0.425700  0.686600  0.111600  1.0
  O  O3097  1  0.925700  0.313400  0.611600  1.0
  O  O3098  1  0.925700  0.813400  0.111600  1.0
  O  O3099  1  0.425700  0.186600  0.388400  1.0
  O  O3100  1  0.074300  0.686600  0.611600  1.0
  O  O3101  1  0.574300  0.813400  0.388400  1.0
  O  O3102  1  0.425700  0.686600  0.888400  1.0
  O  O3103  1  0.074300  0.186600  0.111600  1.0
  O  O3104  1  0.574300  0.313400  0.888400  1.0
  O  O3105  1  0.752200  0.742900  0.371300  1.0
  O  O3106  1  0.752200  0.242900  0.871300  1.0
  O  O3107  1  0.252200  0.757100  0.628700  1.0
  O  O3108  1  0.247800  0.257100  0.371300  1.0
  O  O3109  1  0.747800  0.242900  0.628700  1.0
  O  O3110  1  0.252200  0.257100  0.128700  1.0
  O  O3111  1  0.247800  0.757100  0.871300  1.0
  O  O3112  1  0.747800  0.742900  0.128700  1.0
  O  O3113  1  0.247800  0.257100  0.628700  1.0
  O  O3114  1  0.247800  0.757100  0.128700  1.0
  O  O3115  1  0.747800  0.242900  0.371300  1.0
  O  O3116  1  0.752200  0.742900  0.628700  1.0
  O  O3117  1  0.252200  0.757100  0.371300  1.0
  O  O3118  1  0.747800  0.742900  0.871300  1.0
  O  O3119  1  0.752200  0.242900  0.128700  1.0
  O  O3120  1  0.252200  0.257100  0.871300  1.0
  O  O3121  1  0.818800  0.901300  0.209200  1.0
  O  O3122  1  0.818800  0.401300  0.709200  1.0
  O  O3123  1  0.318800  0.598700  0.790800  1.0
  O  O3124  1  0.181200  0.098700  0.209200  1.0
  O  O3125  1  0.681200  0.401300  0.790800  1.0
  O  O3126  1  0.318800  0.098700  0.290800  1.0
  O  O3127  1  0.181200  0.598700  0.709200  1.0
  O  O3128  1  0.681200  0.901300  0.290800  1.0
  O  O3129  1  0.181200  0.098700  0.790800  1.0
  O  O3130  1  0.181200  0.598700  0.290800  1.0
  O  O3131  1  0.681200  0.401300  0.209200  1.0
  O  O3132  1  0.818800  0.901300  0.790800  1.0
  O  O3133  1  0.318800  0.598700  0.209200  1.0
  O  O3134  1  0.681200  0.901300  0.709200  1.0
  O  O3135  1  0.818800  0.401300  0.290800  1.0
  O  O3136  1  0.318800  0.098700  0.709200  1.0
  O  O3137  1  0.148600  0.837400  0.226900  1.0
  O  O3138  1  0.148600  0.337400  0.726900  1.0
  O  O3139  1  0.648600  0.662600  0.773100  1.0
  O  O3140  1  0.851400  0.162600  0.226900  1.0
  O  O3141  1  0.351400  0.337400  0.773100  1.0
  O  O3142  1  0.648600  0.162600  0.273100  1.0
  O  O3143  1  0.851400  0.662600  0.726900  1.0
  O  O3144  1  0.351400  0.837400  0.273100  1.0
  O  O3145  1  0.851400  0.162600  0.773100  1.0
  O  O3146  1  0.851400  0.662600  0.273100  1.0
  O  O3147  1  0.351400  0.337400  0.226900  1.0
  O  O3148  1  0.148600  0.837400  0.773100  1.0
  O  O3149  1  0.648600  0.662600  0.226900  1.0
  O  O3150  1  0.351400  0.837400  0.726900  1.0
  O  O3151  1  0.148600  0.337400  0.273100  1.0
  O  O3152  1  0.648600  0.162600  0.726900  1.0
  O  O3153  1  0.423900  0.063600  0.381100  1.0
  O  O3154  1  0.423900  0.563600  0.881100  1.0
  O  O3155  1  0.923900  0.436400  0.618900  1.0
  O  O3156  1  0.576100  0.936400  0.381100  1.0
  O  O3157  1  0.076100  0.563600  0.618900  1.0
  O  O3158  1  0.923900  0.936400  0.118900  1.0
  O  O3159  1  0.576100  0.436400  0.881100  1.0
  O  O3160  1  0.076100  0.063600  0.118900  1.0
  O  O3161  1  0.576100  0.936400  0.618900  1.0
  O  O3162  1  0.576100  0.436400  0.118900  1.0
  O  O3163  1  0.076100  0.563600  0.381100  1.0
  O  O3164  1  0.423900  0.063600  0.618900  1.0
  O  O3165  1  0.923900  0.436400  0.381100  1.0
  O  O3166  1  0.076100  0.063600  0.881100  1.0
  O  O3167  1  0.423900  0.563600  0.118900  1.0
  O  O3168  1  0.923900  0.936400  0.881100  1.0
  O  O3169  1  0.303800  0.960700  0.275700  1.0
  O  O3170  1  0.303800  0.460700  0.775700  1.0
  O  O3171  1  0.803800  0.539300  0.724300  1.0
  O  O3172  1  0.696200  0.039300  0.275700  1.0
  O  O3173  1  0.196200  0.460700  0.724300  1.0
  O  O3174  1  0.803800  0.039300  0.224300  1.0
  O  O3175  1  0.696200  0.539300  0.775700  1.0
  O  O3176  1  0.196200  0.960700  0.224300  1.0
  O  O3177  1  0.696200  0.039300  0.724300  1.0
  O  O3178  1  0.696200  0.539300  0.224300  1.0
  O  O3179  1  0.196200  0.460700  0.275700  1.0
  O  O3180  1  0.303800  0.960700  0.724300  1.0
  O  O3181  1  0.803800  0.539300  0.275700  1.0
  O  O3182  1  0.196200  0.960700  0.775700  1.0
  O  O3183  1  0.303800  0.460700  0.224300  1.0
  O  O3184  1  0.803800  0.039300  0.775700  1.0
  O  O3185  1  0.940400  0.776300  0.276600  1.0
  O  O3186  1  0.940400  0.276300  0.776600  1.0
  O  O3187  1  0.440400  0.723700  0.723400  1.0
  O  O3188  1  0.059600  0.223700  0.276600  1.0
  O  O3189  1  0.559600  0.276300  0.723400  1.0
  O  O3190  1  0.440400  0.223700  0.223400  1.0
  O  O3191  1  0.059600  0.723700  0.776600  1.0
  O  O3192  1  0.559600  0.776300  0.223400  1.0
  O  O3193  1  0.059600  0.223700  0.723400  1.0
  O  O3194  1  0.059600  0.723700  0.223400  1.0
  O  O3195  1  0.559600  0.276300  0.276600  1.0
  O  O3196  1  0.940400  0.776300  0.723400  1.0
  O  O3197  1  0.440400  0.723700  0.276600  1.0
  O  O3198  1  0.559600  0.776300  0.776600  1.0
  O  O3199  1  0.940400  0.276300  0.223400  1.0
  O  O3200  1  0.440400  0.223700  0.776600  1.0
  O  O3201  1  0.975500  0.896600  0.398600  1.0
  O  O3202  1  0.975500  0.396600  0.898600  1.0
  O  O3203  1  0.475500  0.603400  0.601400  1.0
  O  O3204  1  0.024500  0.103400  0.398600  1.0
  O  O3205  1  0.524500  0.396600  0.601400  1.0
  O  O3206  1  0.475500  0.103400  0.101400  1.0
  O  O3207  1  0.024500  0.603400  0.898600  1.0
  O  O3208  1  0.524500  0.896600  0.101400  1.0
  O  O3209  1  0.024500  0.103400  0.601400  1.0
  O  O3210  1  0.024500  0.603400  0.101400  1.0
  O  O3211  1  0.524500  0.396600  0.398600  1.0
  O  O3212  1  0.975500  0.896600  0.601400  1.0
  O  O3213  1  0.475500  0.603400  0.398600  1.0
  O  O3214  1  0.524500  0.896600  0.898600  1.0
  O  O3215  1  0.975500  0.396600  0.101400  1.0
  O  O3216  1  0.475500  0.103400  0.898600  1.0
  O  O3217  1  0.130500  0.982500  0.392700  1.0
  O  O3218  1  0.130500  0.482500  0.892700  1.0
  O  O3219  1  0.630500  0.517500  0.607300  1.0
  O  O3220  1  0.869500  0.017500  0.392700  1.0
  O  O3221  1  0.369500  0.482500  0.607300  1.0
  O  O3222  1  0.630500  0.017500  0.107300  1.0
  O  O3223  1  0.869500  0.517500  0.892700  1.0
  O  O3224  1  0.369500  0.982500  0.107300  1.0
  O  O3225  1  0.869500  0.017500  0.607300  1.0
  O  O3226  1  0.869500  0.517500  0.107300  1.0
  O  O3227  1  0.369500  0.482500  0.392700  1.0
  O  O3228  1  0.130500  0.982500  0.607300  1.0
  O  O3229  1  0.630500  0.517500  0.392700  1.0
  O  O3230  1  0.369500  0.982500  0.892700  1.0
  O  O3231  1  0.130500  0.482500  0.107300  1.0
  O  O3232  1  0.630500  0.017500  0.892700  1.0
