
#######################################################################
#
#                 Cambridge Crystallographic Data Centre
#                                CCDC 
#
#######################################################################
#
# If this CIF has been generated from an entry in the Cambridge 
# Structural Database, then it will include bibliographic, chemical, 
# crystal, experimental, refinement or atomic coordinate data resulting 
# from the CCDC's data processing and validation procedures.
#
#######################################################################

data_KOJXAJ
_chemical_name_common            MOP-15
_chemical_formula_moiety         
'C228 H228 Cu24 N36 O120,32(C3 H7 N1 O1),6(C2 H6 O1),12(H2 O1)'
_chemical_name_systematic        
'tetracosakis(\m~4~-5-Aminobenzene-1,3-dicarboxylato)-dodecaaqua-dodecakis(N,N-dimethylformamide)-tetracosa-copper N,N-dimethylformamide ethanol solvate dodecahydrate'
_symmetry_cell_setting           tetragonal
_symmetry_space_group_name_H-M   'I 4/m'
_symmetry_Int_Tables_number      87
_space_group_name_Hall           '-I 4'
loop_
_symmetry_equiv_pos_site_id
_symmetry_equiv_pos_as_xyz
1 x,y,z
2 -y,x,z
3 y,-x,z
4 1/2+x,1/2+y,1/2+z
5 1/2-y,1/2+x,1/2+z
6 1/2+y,1/2-x,1/2+z
7 -x,-y,z
8 1/2-x,1/2-y,1/2+z
9 -x,-y,-z
10 y,-x,-z
11 -y,x,-z
12 1/2-x,1/2-y,1/2-z
13 1/2+y,1/2-x,1/2-z
14 1/2-y,1/2+x,1/2-z
15 x,y,-z
16 1/2+x,1/2+y,1/2-z
_cell_length_a                   31.2356(14)
_cell_length_b                   31.2356(14)
_cell_length_c                   30.617(3)
_cell_angle_alpha                90
_cell_angle_beta                 90
_cell_angle_gamma                90
_cell_volume                     29871.9
_exptl_crystal_colour            green
_exptl_crystal_description       'truncated octahedron'
_cell_formula_units_Z            2
loop_
_atom_site_label
_atom_site_type_symbol
_atom_site_fract_x
_atom_site_fract_y
_atom_site_fract_z
O15 O 0.21174(17) 0.84897(19) 0.11195(18)
N6 N 0.27184(16) 0.82867(16) 0.15025(18)
C31 C 0.2506(2) 0.8400(2) 0.1140(2)
H30 H 0.2666 0.8414 0.0877
C32 C 0.2501(2) 0.8250(2) 0.1918(2)
H31 H 0.2204 0.8348 0.1887
H32 H 0.2648 0.8426 0.2136
H33 H 0.2503 0.7950 0.2013
C33 C 0.3155(2) 0.8149(3) 0.1470(3)
H34 H 0.3254 0.8185 0.1169
H35 H 0.3176 0.7847 0.1554
H36 H 0.3333 0.8322 0.1666
O16 O 0.12598(17) 0.71806(16) 0.24159(17)
N7 N 0.13876(16) 0.77183(17) 0.28961(17)
C34 C 0.1144(2) 0.7426(2) 0.2712(2)
H37 H 0.0857 0.7400 0.2813
C35 C 0.1820(2) 0.7802(2) 0.2753(2)
H38 H 0.1893 0.7608 0.2513
H39 H 0.2018 0.7757 0.2997
H40 H 0.1842 0.8099 0.2652
C36 C 0.1226(2) 0.7981(2) 0.3257(2)
H41 H 0.0933 0.7893 0.3327
H42 H 0.1228 0.8283 0.3170
H43 H 0.1409 0.7941 0.3513
O17 O 0.4249(2) 0.9752(2) 0.3001(3)
N8 N 0.3815(3) 0.9166(3) 0.2849(4)
C37 C 0.4126(3) 0.9482(3) 0.2765(4)
H44 H 0.4251 0.9476 0.2483
C38 C 0.3632(3) 0.9116(4) 0.3297(4)
H45 H 0.3769 0.9321 0.3496
H46 H 0.3684 0.8824 0.3402
H47 H 0.3323 0.9170 0.3289
C39 C 0.3689(4) 0.8891(3) 0.2461(4)
H48 H 0.3866 0.8967 0.2208
H49 H 0.3387 0.8939 0.2391
H50 H 0.3734 0.8588 0.2533
O21 O -0.1227(5) 0.9226(5) 0.5920(7)
O22 O 0.0457(8) 0.6462(12) 0.8927(5)
N11 N 0.0336(3) 0.6591(3) 0.8237(3)
C46 C 0.0343(6) 0.6284(5) 0.8554(7)
H51 H 0.0276 0.5990 0.8512
C47 C 0.0446(4) 0.7013(5) 0.8400(7)
H52 H 0.0488 0.7000 0.8717
H53 H 0.0214 0.7213 0.8333
H54 H 0.0711 0.7111 0.8260
C48 C 0.0260(3) 0.6559(4) 0.7772(4)
H55 H 0.0196 0.6261 0.7695
H56 H 0.0515 0.6654 0.7613
H57 H 0.0017 0.6741 0.7692
Cu1 Cu -0.053955(18) 0.765242(19) 0.74305(2)
Cu2 Cu -0.040908(18) 0.822524(19) 0.68187(2)
Cu3 Cu -0.29148(3) 0.81907(3) 0.5000
Cu4 Cu -0.21961(3) 0.86286(3) 0.5000
O1 O -0.10578(11) 0.75041(11) 0.70985(11)
O2 O -0.09186(11) 0.79610(12) 0.65521(12)
O3 O -0.26233(11) 0.78504(11) 0.54553(11)
O4 O -0.20113(11) 0.82285(11) 0.54526(11)
O5 O -0.08552(11) 0.81279(11) 0.77062(11)
O6 O -0.07922(11) 0.85935(11) 0.71583(12)
O7 O -0.00073(11) 0.78747(11) 0.76937(12)
O8 O 0.00724(11) 0.83894(11) 0.71926(13)
O9 O -0.02000(11) 0.72767(11) 0.70518(12)
O10 O -0.00470(12) 0.77814(12) 0.65649(13)
O11 O -0.30997(11) 0.86047(11) 0.54483(11)
O12 O -0.24837(11) 0.89649(12) 0.54515(12)
N1 N -0.23709(18) 0.67083(17) 0.65983(19)
H1 H -0.2273 0.6557 0.6819
H2 H -0.2609 0.6632 0.6467
N2 N -0.18402(15) 0.88173(16) 0.87838(15)
H3 H -0.2029 0.8981 0.8916
H4 H -0.1751 0.8580 0.8910
N3 N 0.0566(2) 0.59561(16) 0.6507(2)
H5 H 0.0404 0.5866 0.6723
H6 H 0.0736 0.5775 0.6370
C1 C -0.15454(16) 0.75464(17) 0.65118(17)
C2 C -0.16927(15) 0.77795(16) 0.61581(17)
H7 H -0.1533 0.8016 0.6051
C3 C -0.20745(16) 0.76645(16) 0.59613(16)
C4 C -0.23022(16) 0.73072(16) 0.61042(18)
H8 H -0.2560 0.7227 0.5961
C5 C -0.21509(17) 0.70662(18) 0.64589(18)
C6 C -0.17745(17) 0.71933(17) 0.66609(18)
H9 H -0.1671 0.7037 0.6905
C7 C -0.11443(16) 0.76790(17) 0.67389(18)
C8 C -0.22494(17) 0.79369(17) 0.55946(17)
C9 C -0.12342(16) 0.87781(15) 0.77555(17)
C10 C -0.13598(16) 0.91557(16) 0.75545(17)
H10 H -0.1245 0.9233 0.7278
C11 C -0.16541(15) 0.94201(16) 0.77599(17)
C12 C -0.18167(17) 0.93057(16) 0.81681(18)
H11 H -0.2022 0.9484 0.8307
C13 C -0.16812(16) 0.89333(17) 0.83735(17)
C14 C -0.13926(15) 0.86675(17) 0.81589(17)
H12 H -0.1304 0.8407 0.8292
C15 C -0.09366(15) 0.84759(16) 0.75197(17)
C16 C 0.01868(16) 0.81902(15) 0.75340(18)
C17 C 0.02678(16) 0.71053(17) 0.64716(18)
C18 C 0.05317(16) 0.72525(17) 0.61411(18)
H13 H 0.0525 0.7546 0.6059
C19 C 0.08072(15) 0.69714(16) 0.59294(17)
C20 C 0.08151(18) 0.65473(19) 0.6040(2)
H14 H 0.0999 0.6358 0.5886
C21 C 0.0555(2) 0.63865(19) 0.6380(2)
C22 C 0.02847(19) 0.66797(18) 0.6596(2)
H15 H 0.0111 0.6583 0.6832
C23 C -0.00121(16) 0.74135(18) 0.67108(18)
C24 C -0.28587(17) 0.88971(18) 0.55868(17)
O13 O -0.06519(12) 0.72216(12) 0.79625(13)
N4 N -0.0605(2) 0.7164(3) 0.8708(2)
C25 C -0.0587(3) 0.7383(3) 0.8339(3)
H16 H -0.0522 0.7679 0.8355
C26 C -0.0722(3) 0.6690(3) 0.8692(4)
H17 H -0.0774 0.6605 0.8388
H18 H -0.0982 0.6641 0.8864
H19 H -0.0487 0.6520 0.8812
C27 C -0.0509(6) 0.7369(6) 0.9129(4)
H20 H -0.0437 0.7671 0.9081
H21 H -0.0267 0.7223 0.9267
H22 H -0.0761 0.7349 0.9319
O14 O -0.3480(2) 0.7788(3) 0.5000
N5 N -0.3592(5) 0.6997(4) 0.5000
C28 C -0.3301(5) 0.7304(5) 0.5000
H23 H -0.3003 0.7243 0.5000
C29 C -0.4060(7) 0.7075(12) 0.5000
H24 H -0.4114 0.7384 0.5000
H25 H -0.4187 0.6947 0.5261
H26 H -0.4187 0.6947 0.4739
C30 C -0.3404(6) 0.6582(4) 0.5000
H27 H -0.3091 0.6609 0.5000
H28 H -0.3495 0.6426 0.4739
H29 H -0.3495 0.6426 0.5261
O19 O -0.0290(2) 0.86875(16) 0.63219(17)
O20 O -0.16213(19) 0.8996(2) 0.5000
Cu1N Cu -0.053955(18) 0.765242(19) 0.25695(2)
Cu1J Cu 0.234758(19) 0.946045(18) 0.25695(2)
Cu1A Cu 0.234758(19) 0.946045(18) 0.74305(2)
Cu1F Cu 0.053955(18) 1.234758(19) 0.74305(2)
Cu1H Cu 0.053955(18) 1.234758(19) 0.25695(2)
Cu1I Cu -0.234758(19) 1.053955(18) 0.25695(2)
Cu1B Cu -0.234758(19) 1.053955(18) 0.74305(2)
Cu2N Cu -0.040908(18) 0.822524(19) 0.31813(2)
Cu2J Cu 0.177476(19) 0.959092(18) 0.31813(2)
Cu2A Cu 0.177476(19) 0.959092(18) 0.68187(2)
Cu2F Cu 0.040908(18) 1.177476(19) 0.68187(2)
Cu2H Cu 0.040908(18) 1.177476(19) 0.31813(2)
Cu2I Cu -0.177476(19) 1.040908(18) 0.31813(2)
Cu2B Cu -0.177476(19) 1.040908(18) 0.68187(2)
Cu3A Cu 0.18093(3) 0.70852(3) 0.5000
Cu3H Cu 0.29148(3) 1.18093(3) 0.5000
Cu3B Cu -0.18093(3) 1.29148(3) 0.5000
Cu4A Cu 0.13714(3) 0.78039(3) 0.5000
Cu4H Cu 0.21961(3) 1.13714(3) 0.5000
Cu4B Cu -0.13714(3) 1.21961(3) 0.5000
O1N O -0.10578(11) 0.75041(11) 0.29015(11)
O1J O 0.24959(11) 0.89422(11) 0.29015(11)
O1A O 0.24959(11) 0.89422(11) 0.70985(11)
O1F O 0.10578(11) 1.24959(11) 0.70985(11)
O1H O 0.10578(11) 1.24959(11) 0.29015(11)
O1I O -0.24959(11) 1.10578(11) 0.29015(11)
O1B O -0.24959(11) 1.10578(11) 0.70985(11)
O2N O -0.09186(11) 0.79610(12) 0.34479(12)
O2J O 0.20390(12) 0.90814(11) 0.34479(12)
O2A O 0.20390(12) 0.90814(11) 0.65521(12)
O2F O 0.09186(11) 1.20390(12) 0.65521(12)
O2H O 0.09186(11) 1.20390(12) 0.34479(12)
O2I O -0.20390(12) 1.09186(11) 0.34479(12)
O2B O -0.20390(12) 1.09186(11) 0.65521(12)
O3A O 0.21496(11) 0.73767(11) 0.54553(11)
O3J O 0.21496(11) 0.73767(11) 0.45447(11)
O3H O 0.26233(11) 1.21496(11) 0.45447(11)
O3F O 0.26233(11) 1.21496(11) 0.54553(11)
O3B O -0.21496(11) 1.26233(11) 0.54553(11)
O3I O -0.21496(11) 1.26233(11) 0.45447(11)
O3N O -0.26233(11) 0.78504(11) 0.45447(11)
O4A O 0.17715(11) 0.79887(11) 0.54526(11)
O4J O 0.17715(11) 0.79887(11) 0.45474(11)
O4H O 0.20113(11) 1.17715(11) 0.45474(11)
O4F O 0.20113(11) 1.17715(11) 0.54526(11)
O4B O -0.17715(11) 1.20113(11) 0.54526(11)
O4I O -0.17715(11) 1.20113(11) 0.45474(11)
O4N O -0.20113(11) 0.82285(11) 0.45474(11)
O5N O -0.08552(11) 0.81279(11) 0.22938(11)
O5J O 0.18721(11) 0.91448(11) 0.22938(11)
O5A O 0.18721(11) 0.91448(11) 0.77062(11)
O5F O 0.08552(11) 1.18721(11) 0.77062(11)
O5H O 0.08552(11) 1.18721(11) 0.22938(11)
O5I O -0.18721(11) 1.08552(11) 0.22938(11)
O5B O -0.18721(11) 1.08552(11) 0.77062(11)
O6N O -0.07922(11) 0.85935(11) 0.28417(12)
O6J O 0.14065(11) 0.92078(11) 0.28417(12)
O6A O 0.14065(11) 0.92078(11) 0.71583(12)
O6F O 0.07922(11) 1.14065(11) 0.71583(12)
O6H O 0.07922(11) 1.14065(11) 0.28417(12)
O6I O -0.14065(11) 1.07922(11) 0.28417(12)
O6B O -0.14065(11) 1.07922(11) 0.71583(12)
O7N O -0.00073(11) 0.78747(11) 0.23063(12)
O7J O 0.21253(11) 0.99927(11) 0.23063(12)
O7A O 0.21253(11) 0.99927(11) 0.76937(12)
O7F O 0.00073(11) 1.21253(11) 0.76937(12)
O7H O 0.00073(11) 1.21253(11) 0.23063(12)
O7I O -0.21253(11) 1.00073(11) 0.23063(12)
O7B O -0.21253(11) 1.00073(11) 0.76937(12)
O8N O 0.00724(11) 0.83894(11) 0.28074(13)
O8J O 0.16106(11) 1.00724(11) 0.28074(13)
O8A O 0.16106(11) 1.00724(11) 0.71926(13)
O8F O -0.00724(11) 1.16106(11) 0.71926(13)
O8H O -0.00724(11) 1.16106(11) 0.28074(13)
O8I O -0.16106(11) 0.99276(11) 0.28074(13)
O8B O -0.16106(11) 0.99276(11) 0.71926(13)
O9N O -0.02000(11) 0.72767(11) 0.29482(12)
O9J O 0.27233(11) 0.98000(11) 0.29482(12)
O9A O 0.27233(11) 0.98000(11) 0.70518(12)
O9F O 0.02000(11) 1.27233(11) 0.70518(12)
O9H O 0.02000(11) 1.27233(11) 0.29482(12)
O9I O -0.27233(11) 1.02000(11) 0.29482(12)
O9B O -0.27233(11) 1.02000(11) 0.70518(12)
O10N O -0.00470(12) 0.77814(12) 0.34351(13)
O10J O 0.22186(12) 0.99530(12) 0.34351(13)
O10A O 0.22186(12) 0.99530(12) 0.65649(13)
O10F O 0.00470(12) 1.22186(12) 0.65649(13)
O10H O 0.00470(12) 1.22186(12) 0.34351(13)
O10I O -0.22186(12) 1.00470(12) 0.34351(13)
O10B O -0.22186(12) 1.00470(12) 0.65649(13)
O11A O 0.13953(11) 0.69003(11) 0.54483(11)
O11J O 0.13953(11) 0.69003(11) 0.45517(11)
O11H O 0.30997(11) 1.13953(11) 0.45517(11)
O11F O 0.30997(11) 1.13953(11) 0.54483(11)
O11B O -0.13953(11) 1.30997(11) 0.54483(11)
O11I O -0.13953(11) 1.30997(11) 0.45517(11)
O11N O -0.30997(11) 0.86047(11) 0.45517(11)
O12J O 0.10351(12) 0.75163(11) 0.45485(12)
O12A O 0.10351(12) 0.75163(11) 0.54515(12)
O12F O 0.24837(11) 1.10351(12) 0.54515(12)
O12H O 0.24837(11) 1.10351(12) 0.45485(12)
O12I O -0.10351(12) 1.24837(11) 0.45485(12)
O12B O -0.10351(12) 1.24837(11) 0.54515(12)
O12N O -0.24837(11) 0.89649(12) 0.45485(12)
N1B N -0.32917(17) 1.23709(18) 0.65983(19)
N1N N -0.23709(18) 0.67083(17) 0.34017(19)
N1I N -0.32917(17) 1.23709(18) 0.34017(19)
N1H N 0.23709(18) 1.32917(17) 0.34017(19)
N1F N 0.23709(18) 1.32917(17) 0.65983(19)
N1A N 0.32917(17) 0.76291(18) 0.65983(19)
N1J N 0.32917(17) 0.76291(18) 0.34017(19)
H1B H -0.3443 1.2273 0.6819
H1N H -0.2273 0.6557 0.3181
H1I H -0.3443 1.2273 0.3181
H1H H 0.2273 1.3443 0.3181
H1F H 0.2273 1.3443 0.6819
H1A H 0.3443 0.7727 0.6819
H1J H 0.3443 0.7727 0.3181
H2B H -0.3368 1.2609 0.6467
H2N H -0.2609 0.6632 0.3533
H2I H -0.3368 1.2609 0.3533
H2H H 0.2609 1.3368 0.3533
H2F H 0.2609 1.3368 0.6467
H2A H 0.3368 0.7391 0.6467
H2J H 0.3368 0.7391 0.3533
N2J N 0.11827(16) 0.81598(15) 0.12162(15)
N2F N 0.18402(15) 1.11827(16) 0.87838(15)
N2I N -0.11827(16) 1.18402(15) 0.12162(15)
N2B N -0.11827(16) 1.18402(15) 0.87838(15)
N2N N -0.18402(15) 0.88173(16) 0.12162(15)
N2H N 0.18402(15) 1.11827(16) 0.12162(15)
N2A N 0.11827(16) 0.81598(15) 0.87838(15)
H3J H 0.1019 0.7971 0.1084
H3F H 0.2029 1.1019 0.8916
H3I H -0.1019 1.2029 0.1084
H3B H -0.1019 1.2029 0.8916
H3N H -0.2029 0.8981 0.1084
H3H H 0.2029 1.1019 0.1084
H3A H 0.1019 0.7971 0.8916
H4J H 0.1420 0.8249 0.1090
H4F H 0.1751 1.1420 0.8910
H4I H -0.1420 1.1751 0.1090
H4B H -0.1420 1.1751 0.8910
H4N H -0.1751 0.8580 0.1090
H4H H 0.1751 1.1420 0.1090
H4A H 0.1420 0.8249 0.8910
N3N N 0.0566(2) 0.59561(16) 0.3493(2)
N3J N 0.40439(16) 1.0566(2) 0.3493(2)
N3A N 0.40439(16) 1.0566(2) 0.6507(2)
N3F N -0.0566(2) 1.40439(16) 0.6507(2)
N3H N -0.0566(2) 1.40439(16) 0.3493(2)
N3I N -0.40439(16) 0.9434(2) 0.3493(2)
N3B N -0.40439(16) 0.9434(2) 0.6507(2)
H5N H 0.0404 0.5866 0.3277
H5J H 0.4134 1.0404 0.3277
H5A H 0.4134 1.0404 0.6723
H5F H -0.0404 1.4134 0.6723
H5H H -0.0404 1.4134 0.3277
H5I H -0.4134 0.9596 0.3277
H5B H -0.4134 0.9596 0.6723
H6N H 0.0736 0.5775 0.3630
H6J H 0.4225 1.0736 0.3630
H6A H 0.4225 1.0736 0.6370
H6F H -0.0736 1.4225 0.6370
H6H H -0.0736 1.4225 0.3630
H6I H -0.4225 0.9264 0.3630
H6B H -0.4225 0.9264 0.6370
C1B C -0.24536(17) 1.15454(16) 0.65118(17)
C1N C -0.15454(16) 0.75464(17) 0.34882(17)
C1I C -0.24536(17) 1.15454(16) 0.34882(17)
C1H C 0.15454(16) 1.24536(17) 0.34882(17)
C1F C 0.15454(16) 1.24536(17) 0.65118(17)
C1A C 0.24536(17) 0.84546(16) 0.65118(17)
C1J C 0.24536(17) 0.84546(16) 0.34882(17)
C2B C -0.22205(16) 1.16927(15) 0.61581(17)
C2N C -0.16927(15) 0.77795(16) 0.38419(17)
C2I C -0.22205(16) 1.16927(15) 0.38419(17)
C2H C 0.16927(15) 1.22205(16) 0.38419(17)
C2F C 0.16927(15) 1.22205(16) 0.61581(17)
C2A C 0.22205(16) 0.83073(15) 0.61581(17)
C2J C 0.22205(16) 0.83073(15) 0.38419(17)
H7B H -0.1984 1.1533 0.6051
H7N H -0.1533 0.8016 0.3949
H7I H -0.1984 1.1533 0.3949
H7H H 0.1533 1.1984 0.3949
H7F H 0.1533 1.1984 0.6051
H7A H 0.1984 0.8467 0.6051
H7J H 0.1984 0.8467 0.3949
C3B C -0.23355(16) 1.20745(16) 0.59613(16)
C3N C -0.20745(16) 0.76645(16) 0.40387(16)
C3I C -0.23355(16) 1.20745(16) 0.40387(16)
C3H C 0.20745(16) 1.23355(16) 0.40387(16)
C3F C 0.20745(16) 1.23355(16) 0.59613(16)
C3A C 0.23355(16) 0.79255(16) 0.59613(16)
C3J C 0.23355(16) 0.79255(16) 0.40387(16)
C4B C -0.26928(16) 1.23022(16) 0.61042(18)
C4N C -0.23022(16) 0.73072(16) 0.38958(18)
C4I C -0.26928(16) 1.23022(16) 0.38958(18)
C4H C 0.23022(16) 1.26928(16) 0.38958(18)
C4F C 0.23022(16) 1.26928(16) 0.61042(18)
C4A C 0.26928(16) 0.76978(16) 0.61042(18)
C4J C 0.26928(16) 0.76978(16) 0.38958(18)
H8B H -0.2773 1.2560 0.5961
H8N H -0.2560 0.7227 0.4039
H8I H -0.2773 1.2560 0.4039
H8H H 0.2560 1.2773 0.4039
H8F H 0.2560 1.2773 0.5961
H8A H 0.2773 0.7440 0.5961
H8J H 0.2773 0.7440 0.4039
C5B C -0.29338(18) 1.21509(17) 0.64589(18)
C5N C -0.21509(17) 0.70662(18) 0.35411(18)
C5I C -0.29338(18) 1.21509(17) 0.35411(18)
C5H C 0.21509(17) 1.29338(18) 0.35411(18)
C5F C 0.21509(17) 1.29338(18) 0.64589(18)
C5A C 0.29338(18) 0.78491(17) 0.64589(18)
C5J C 0.29338(18) 0.78491(17) 0.35411(18)
C6B C -0.28067(17) 1.17745(17) 0.66609(18)
C6N C -0.17745(17) 0.71933(17) 0.33391(18)
C6I C -0.28067(17) 1.17745(17) 0.33391(18)
C6H C 0.17745(17) 1.28067(17) 0.33391(18)
C6F C 0.17745(17) 1.28067(17) 0.66609(18)
C6A C 0.28067(17) 0.82255(17) 0.66609(18)
C6J C 0.28067(17) 0.82255(17) 0.33391(18)
H9B H -0.2963 1.1671 0.6905
H9N H -0.1671 0.7037 0.3095
H9I H -0.2963 1.1671 0.3095
H9H H 0.1671 1.2963 0.3095
H9F H 0.1671 1.2963 0.6905
H9A H 0.2963 0.8329 0.6905
H9J H 0.2963 0.8329 0.3095
C7N C -0.11443(16) 0.76790(17) 0.32611(18)
C7J C 0.23210(17) 0.88557(16) 0.32611(18)
C7A C 0.23210(17) 0.88557(16) 0.67389(18)
C7F C 0.11443(16) 1.23210(17) 0.67389(18)
C7H C 0.11443(16) 1.23210(17) 0.32611(18)
C7I C -0.23210(17) 1.11443(16) 0.32611(18)
C7B C -0.23210(17) 1.11443(16) 0.67389(18)
C8A C 0.20631(17) 0.77506(17) 0.55946(17)
C8J C 0.20631(17) 0.77506(17) 0.44054(17)
C8H C 0.22494(17) 1.20631(17) 0.44054(17)
C8F C 0.22494(17) 1.20631(17) 0.55946(17)
C8B C -0.20631(17) 1.22494(17) 0.55946(17)
C8I C -0.20631(17) 1.22494(17) 0.44054(17)
C8N C -0.22494(17) 0.79369(17) 0.44054(17)
C9J C 0.12219(15) 0.87658(16) 0.22445(17)
C9F C 0.12342(16) 1.12219(15) 0.77555(17)
C9I C -0.12219(15) 1.12342(16) 0.22445(17)
C9B C -0.12219(15) 1.12342(16) 0.77555(17)
C9N C -0.12342(16) 0.87781(15) 0.22445(17)
C9H C 0.12342(16) 1.12219(15) 0.22445(17)
C9A C 0.12219(15) 0.87658(16) 0.77555(17)
C10J C 0.08443(16) 0.86402(16) 0.24455(17)
C10F C 0.13598(16) 1.08443(16) 0.75545(17)
C10I C -0.08443(16) 1.13598(16) 0.24455(17)
C10B C -0.08443(16) 1.13598(16) 0.75545(17)
C10N C -0.13598(16) 0.91557(16) 0.24455(17)
C10H C 0.13598(16) 1.08443(16) 0.24455(17)
C10A C 0.08443(16) 0.86402(16) 0.75545(17)
H10B H -0.0767 1.1245 0.7278
H10N H -0.1245 0.9233 0.2722
H10I H -0.0767 1.1245 0.2722
H10H H 0.1245 1.0767 0.2722
H10F H 0.1245 1.0767 0.7278
H10A H 0.0767 0.8755 0.7278
H10J H 0.0767 0.8755 0.2722
C11J C 0.05799(16) 0.83459(15) 0.22401(17)
C11F C 0.16541(15) 1.05799(16) 0.77599(17)
C11I C -0.05799(16) 1.16541(15) 0.22401(17)
C11B C -0.05799(16) 1.16541(15) 0.77599(17)
C11N C -0.16541(15) 0.94201(16) 0.22401(17)
C11H C 0.16541(15) 1.05799(16) 0.22401(17)
C11A C 0.05799(16) 0.83459(15) 0.77599(17)
C12J C 0.06943(16) 0.81833(17) 0.18319(18)
C12F C 0.18167(17) 1.06943(16) 0.81681(18)
C12I C -0.06943(16) 1.18167(17) 0.18319(18)
C12B C -0.06943(16) 1.18167(17) 0.81681(18)
C12N C -0.18167(17) 0.93057(16) 0.18319(18)
C12H C 0.18167(17) 1.06943(16) 0.18319(18)
C12A C 0.06943(16) 0.81833(17) 0.81681(18)
H11J H 0.0516 0.7978 0.1693
H11F H 0.2022 1.0516 0.8307
H11I H -0.0516 1.2022 0.1693
H11B H -0.0516 1.2022 0.8307
H11N H -0.2022 0.9484 0.1693
H11H H 0.2022 1.0516 0.1693
H11A H 0.0516 0.7978 0.8307
C13J C 0.10667(17) 0.83188(16) 0.16265(17)
C13F C 0.16812(16) 1.10667(17) 0.83735(17)
C13I C -0.10667(17) 1.16812(16) 0.16265(17)
C13B C -0.10667(17) 1.16812(16) 0.83735(17)
C13N C -0.16812(16) 0.89333(17) 0.16265(17)
C13H C 0.16812(16) 1.10667(17) 0.16265(17)
C13A C 0.10667(17) 0.83188(16) 0.83735(17)
C14J C 0.13325(17) 0.86074(15) 0.18411(17)
C14F C 0.13926(15) 1.13325(17) 0.81589(17)
C14I C -0.13325(17) 1.13926(15) 0.18411(17)
C14B C -0.13325(17) 1.13926(15) 0.81589(17)
C14N C -0.13926(15) 0.86675(17) 0.18411(17)
C14H C 0.13926(15) 1.13325(17) 0.18411(17)
C14A C 0.13325(17) 0.86074(15) 0.81589(17)
H12J H 0.1593 0.8696 0.1708
H12F H 0.1304 1.1593 0.8292
H12I H -0.1593 1.1304 0.1708
H12B H -0.1593 1.1304 0.8292
H12N H -0.1304 0.8407 0.1708
H12H H 0.1304 1.1593 0.1708
H12A H 0.1593 0.8696 0.8292
C15N C -0.09366(15) 0.84759(16) 0.24803(17)
C15J C 0.15241(16) 0.90634(15) 0.24803(17)
C15A C 0.15241(16) 0.90634(15) 0.75197(17)
C15F C 0.09366(15) 1.15241(16) 0.75197(17)
C15H C 0.09366(15) 1.15241(16) 0.24803(17)
C15I C -0.15241(16) 1.09366(15) 0.24803(17)
C15B C -0.15241(16) 1.09366(15) 0.75197(17)
C16N C 0.01868(16) 0.81902(15) 0.24660(18)
C16J C 0.18098(15) 1.01868(16) 0.24660(18)
C16A C 0.18098(15) 1.01868(16) 0.75340(18)
C16F C -0.01868(16) 1.18098(15) 0.75340(18)
C16H C -0.01868(16) 1.18098(15) 0.24660(18)
C16I C -0.18098(15) 0.98132(16) 0.24660(18)
C16B C -0.18098(15) 0.98132(16) 0.75340(18)
C17N C 0.02678(16) 0.71053(17) 0.35284(18)
C17J C 0.28947(17) 1.02678(16) 0.35284(18)
C17A C 0.28947(17) 1.02678(16) 0.64716(18)
C17F C -0.02678(16) 1.28947(17) 0.64716(18)
C17H C -0.02678(16) 1.28947(17) 0.35284(18)
C17I C -0.28947(17) 0.97322(16) 0.35284(18)
C17B C -0.28947(17) 0.97322(16) 0.64716(18)
C18N C 0.05317(16) 0.72525(17) 0.38589(18)
C18J C 0.27475(17) 1.05317(16) 0.38589(18)
C18A C 0.27475(17) 1.05317(16) 0.61411(18)
C18F C -0.05317(16) 1.27475(17) 0.61411(18)
C18H C -0.05317(16) 1.27475(17) 0.38589(18)
C18I C -0.27475(17) 0.94683(16) 0.38589(18)
C18B C -0.27475(17) 0.94683(16) 0.61411(18)
H13J H 0.2454 1.0525 0.3941
H13F H -0.0525 1.2454 0.6059
H13I H -0.2454 0.9475 0.3941
H13B H -0.2454 0.9475 0.6059
H13H H -0.0525 1.2454 0.3941
H13A H 0.2454 1.0525 0.6059
H13N H 0.0525 0.7546 0.3941
C19N C 0.08072(15) 0.69714(16) 0.40706(17)
C19J C 0.30286(16) 1.08072(15) 0.40706(17)
C19A C 0.30286(16) 1.08072(15) 0.59294(17)
C19F C -0.08072(15) 1.30286(16) 0.59294(17)
C19H C -0.08072(15) 1.30286(16) 0.40706(17)
C19I C -0.30286(16) 0.91928(15) 0.40706(17)
C19B C -0.30286(16) 0.91928(15) 0.59294(17)
C20N C 0.08151(18) 0.65473(19) 0.3960(2)
C20J C 0.34527(19) 1.08151(18) 0.3960(2)
C20A C 0.34527(19) 1.08151(18) 0.6040(2)
C20F C -0.08151(18) 1.34527(19) 0.6040(2)
C20H C -0.08151(18) 1.34527(19) 0.3960(2)
C20I C -0.34527(19) 0.91849(18) 0.3960(2)
C20B C -0.34527(19) 0.91849(18) 0.6040(2)
H14N H 0.0999 0.6358 0.4114
H14J H 0.3642 1.0999 0.4114
H14A H 0.3642 1.0999 0.5886
H14F H -0.0999 1.3642 0.5886
H14H H -0.0999 1.3642 0.4114
H14I H -0.3642 0.9001 0.4114
H14B H -0.3642 0.9001 0.5886
C21N C 0.0555(2) 0.63865(19) 0.3620(2)
C21J C 0.36135(19) 1.0555(2) 0.3620(2)
C21A C 0.36135(19) 1.0555(2) 0.6380(2)
C21F C -0.0555(2) 1.36135(19) 0.6380(2)
C21H C -0.0555(2) 1.36135(19) 0.3620(2)
C21I C -0.36135(19) 0.9445(2) 0.3620(2)
C21B C -0.36135(19) 0.9445(2) 0.6380(2)
C22N C 0.02847(19) 0.66797(18) 0.3404(2)
C22J C 0.33203(18) 1.02847(19) 0.3404(2)
C22A C 0.33203(18) 1.02847(19) 0.6596(2)
C22F C -0.02847(19) 1.33203(18) 0.6596(2)
C22H C -0.02847(19) 1.33203(18) 0.3404(2)
C22I C -0.33203(18) 0.97153(19) 0.3404(2)
C22B C -0.33203(18) 0.97153(19) 0.6596(2)
H15N H 0.0111 0.6583 0.3168
H15J H 0.3417 1.0111 0.3168
H15A H 0.3417 1.0111 0.6832
H15F H -0.0111 1.3417 0.6832
H15H H -0.0111 1.3417 0.3168
H15I H -0.3417 0.9889 0.3168
H15B H -0.3417 0.9889 0.6832
C23N C -0.00121(16) 0.74135(18) 0.32892(18)
C23J C 0.25865(18) 0.99879(16) 0.32892(18)
C23A C 0.25865(18) 0.99879(16) 0.67108(18)
C23F C 0.00121(16) 1.25865(18) 0.67108(18)
C23H C 0.00121(16) 1.25865(18) 0.32892(18)
C23I C -0.25865(18) 1.00121(16) 0.32892(18)
C23B C -0.25865(18) 1.00121(16) 0.67108(18)
C24A C 0.11029(18) 0.71413(17) 0.55868(17)
C24J C 0.11029(18) 0.71413(17) 0.44132(17)
C24H C 0.28587(17) 1.11029(18) 0.44132(17)
C24F C 0.28587(17) 1.11029(18) 0.55868(17)
C24B C -0.11029(18) 1.28587(17) 0.55868(17)
C24I C -0.11029(18) 1.28587(17) 0.44132(17)
C24N C -0.28587(17) 0.88971(18) 0.44132(17)
O13B O -0.27784(12) 1.06519(12) 0.79625(13)
O13I O -0.27784(12) 1.06519(12) 0.20375(13)
O13H O 0.06519(12) 1.27784(12) 0.20375(13)
O13F O 0.06519(12) 1.27784(12) 0.79625(13)
O13A O 0.27784(12) 0.93481(12) 0.79625(13)
O13J O 0.27784(12) 0.93481(12) 0.20375(13)
O13N O -0.06519(12) 0.72216(12) 0.20375(13)
N4B N -0.2836(3) 1.0605(2) 0.8708(2)
N4I N -0.2836(3) 1.0605(2) 0.1292(2)
N4H N 0.0605(2) 1.2836(3) 0.1292(2)
N4F N 0.0605(2) 1.2836(3) 0.8708(2)
N4A N 0.2836(3) 0.9395(2) 0.8708(2)
N4J N 0.2836(3) 0.9395(2) 0.1292(2)
N4N N -0.0605(2) 0.7164(3) 0.1292(2)
C25B C -0.2617(3) 1.0587(3) 0.8339(3)
C25I C -0.2617(3) 1.0587(3) 0.1661(3)
C25H C 0.0587(3) 1.2617(3) 0.1661(3)
C25F C 0.0587(3) 1.2617(3) 0.8339(3)
C25A C 0.2617(3) 0.9413(3) 0.8339(3)
C25J C 0.2617(3) 0.9413(3) 0.1661(3)
C25N C -0.0587(3) 0.7383(3) 0.1661(3)
H16B H -0.2321 1.0522 0.8355
H16I H -0.2321 1.0522 0.1645
H16H H 0.0522 1.2321 0.1645
H16F H 0.0522 1.2321 0.8355
H16A H 0.2321 0.9478 0.8355
H16J H 0.2321 0.9478 0.1645
H16N H -0.0522 0.7679 0.1645
C26B C -0.3310(3) 1.0722(3) 0.8692(4)
C26I C -0.3310(3) 1.0722(3) 0.1308(4)
C26H C 0.0722(3) 1.3310(3) 0.1308(4)
C26F C 0.0722(3) 1.3310(3) 0.8692(4)
C26A C 0.3310(3) 0.9278(3) 0.8692(4)
C26J C 0.3310(3) 0.9278(3) 0.1308(4)
C26N C -0.0722(3) 0.6690(3) 0.1308(4)
H17B H -0.3395 1.0774 0.8388
H17I H -0.3395 1.0774 0.1612
H17H H 0.0774 1.3395 0.1612
H17F H 0.0774 1.3395 0.8388
H17A H 0.3395 0.9226 0.8388
H17J H 0.3395 0.9226 0.1612
H17N H -0.0774 0.6605 0.1612
H18B H -0.3359 1.0982 0.8864
H18I H -0.3359 1.0982 0.1136
H18H H 0.0982 1.3359 0.1136
H18F H 0.0982 1.3359 0.8864
H18A H 0.3359 0.9018 0.8864
H18J H 0.3359 0.9018 0.1136
H18N H -0.0982 0.6641 0.1136
H19B H -0.3480 1.0487 0.8812
H19I H -0.3480 1.0487 0.1188
H19H H 0.0487 1.3480 0.1188
H19F H 0.0487 1.3480 0.8812
H19A H 0.3480 0.9513 0.8812
H19J H 0.3480 0.9513 0.1188
H19N H -0.0487 0.6520 0.1188
C27B C -0.2631(6) 1.0509(6) 0.9129(4)
C27I C -0.2631(6) 1.0509(6) 0.0871(4)
C27H C 0.0509(6) 1.2631(6) 0.0871(4)
C27F C 0.0509(6) 1.2631(6) 0.9129(4)
C27A C 0.2631(6) 0.9491(6) 0.9129(4)
C27J C 0.2631(6) 0.9491(6) 0.0871(4)
C27N C -0.0509(6) 0.7369(6) 0.0871(4)
H20B H -0.2329 1.0437 0.9081
H20I H -0.2329 1.0437 0.0919
H20H H 0.0437 1.2329 0.0919
H20F H 0.0437 1.2329 0.9081
H20A H 0.2329 0.9563 0.9081
H20J H 0.2329 0.9563 0.0919
H20N H -0.0437 0.7671 0.0919
H21B H -0.2777 1.0267 0.9267
H21I H -0.2777 1.0267 0.0733
H21H H 0.0267 1.2777 0.0733
H21F H 0.0267 1.2777 0.9267
H21A H 0.2777 0.9733 0.9267
H21J H 0.2777 0.9733 0.0733
H21N H -0.0267 0.7223 0.0733
H22B H -0.2651 1.0761 0.9319
H22I H -0.2651 1.0761 0.0681
H22H H 0.0761 1.2651 0.0681
H22F H 0.0761 1.2651 0.9319
H22A H 0.2651 0.9239 0.9319
H22J H 0.2651 0.9239 0.0681
H22N H -0.0761 0.7349 0.0681
O14B O -0.2212(3) 1.3480(2) 0.5000
O14H O 0.3480(2) 1.2212(3) 0.5000
O14A O 0.2212(3) 0.6520(2) 0.5000
N5B N -0.3003(4) 1.3592(5) 0.5000
N5H N 0.3592(5) 1.3003(4) 0.5000
N5A N 0.3003(4) 0.6408(5) 0.5000
C28B C -0.2696(5) 1.3301(5) 0.5000
C28H C 0.3301(5) 1.2696(5) 0.5000
C28A C 0.2696(5) 0.6699(5) 0.5000
H23B H -0.2757 1.3003 0.5000
H23H H 0.3003 1.2757 0.5000
H23A H 0.2757 0.6997 0.5000
C29B C -0.2925(12) 1.4060(7) 0.5000
C29H C 0.4060(7) 1.2925(12) 0.5000
C29A C 0.2925(12) 0.5940(7) 0.5000
H24B H -0.2616 1.4114 0.5000
H24H H 0.4114 1.2616 0.5000
H24A H 0.2616 0.5886 0.5000
H25B H -0.3053 1.4187 0.5261
H25I H -0.3053 1.4187 0.4739
H25H H 0.4187 1.3053 0.4739
H25F H 0.4187 1.3053 0.5261
H25A H 0.3053 0.5813 0.5261
H25J H 0.3053 0.5813 0.4739
C30B C -0.3418(4) 1.3404(6) 0.5000
C30H C 0.3404(6) 1.3418(4) 0.5000
C30A C 0.3418(4) 0.6596(6) 0.5000
H27B H -0.3391 1.3091 0.5000
H27H H 0.3091 1.3391 0.5000
H27A H 0.3391 0.6909 0.5000
H28B H -0.3574 1.3495 0.4739
H28I H -0.3574 1.3495 0.5261
H28H H 0.3495 1.3574 0.5261
H28F H 0.3495 1.3574 0.4739
H28A H 0.3574 0.6505 0.4739
H28J H 0.3574 0.6505 0.5261
O19N O -0.0290(2) 0.86875(16) 0.36781(17)
O19J O 0.13125(16) 0.9710(2) 0.36781(17)
O19A O 0.13125(16) 0.9710(2) 0.63219(17)
O19F O 0.0290(2) 1.13125(16) 0.63219(17)
O19H O 0.0290(2) 1.13125(16) 0.36781(17)
O19I O -0.13125(16) 1.0290(2) 0.36781(17)
O19B O -0.13125(16) 1.0290(2) 0.63219(17)
O20A O 0.1004(2) 0.83787(19) 0.5000
O20H O 0.16213(19) 1.1004(2) 0.5000
O20B O -0.1004(2) 1.16213(19) 0.5000
loop_
_geom_bond_atom_site_label_1
_geom_bond_atom_site_label_2
_geom_bond_site_symmetry_1
_geom_bond_site_symmetry_2
Cu1 O1 1_555 1_555
Cu2 O2 1_555 1_555
Cu3 O3 1_555 1_555
Cu4 O4 1_555 1_555
O1 C7 1_555 1_555
O2 C7 1_555 1_555
O3 C8 1_555 1_555
O4 C8 1_555 1_555
O5 Cu1 1_555 1_555
O6 Cu2 1_555 1_555
O7 Cu1 1_555 1_555
O8 Cu2 1_555 1_555
O9 Cu1 1_555 1_555
O10 Cu2 1_555 1_555
O11 Cu3 1_555 1_555
O12 Cu4 1_555 1_555
N1 H1 1_555 1_555
H2 N1 1_555 1_555
N2 H3 1_555 1_555
H4 N2 1_555 1_555
N3 H5 1_555 1_555
H6 N3 1_555 1_555
C1 C2 1_555 1_555
C2 H7 1_555 1_555
C3 C2 1_555 1_555
C4 C3 1_555 1_555
H8 C4 1_555 1_555
C5 N1 1_555 1_555
C6 C1 1_555 1_555
H9 C6 1_555 1_555
C7 C1 1_555 1_555
C8 C3 1_555 1_555
C9 C10 1_555 1_555
C10 H10 1_555 1_555
C11 C10 1_555 1_555
C12 C11 1_555 1_555
H11 C12 1_555 1_555
C13 N2 1_555 1_555
C14 C9 1_555 1_555
H12 C14 1_555 1_555
C15 O5 1_555 1_555
C16 O7 1_555 1_555
C17 C18 1_555 1_555
C18 H13 1_555 1_555
C19 C18 1_555 1_555
C20 C19 1_555 1_555
H14 C20 1_555 1_555
C21 N3 1_555 1_555
C22 C17 1_555 1_555
H15 C22 1_555 1_555
C23 O9 1_555 1_555
C24 O11 1_555 1_555
O13 Cu1 1_555 1_555
N4 C25 1_555 1_555
C25 O13 1_555 1_555
H16 C25 1_555 1_555
C26 N4 1_555 1_555
H17 C26 1_555 1_555
H18 C26 1_555 1_555
H19 C26 1_555 1_555
C27 N4 1_555 1_555
H20 C27 1_555 1_555
H21 C27 1_555 1_555
H22 C27 1_555 1_555
O14 Cu3 1_555 1_555
N5 C28 1_555 1_555
C28 O14 1_555 1_555
H23 C28 1_555 1_555
C29 N5 1_555 1_555
H24 C29 1_555 1_555
H25 C29 1_555 1_555
H26 C29 1_555 1_555
C30 N5 1_555 1_555
H27 C30 1_555 1_555
H28 C30 1_555 1_555
H29 C30 1_555 1_555
O15 C31 1_555 1_555
N6 C31 1_555 1_555
C31 H30 1_555 1_555
C32 N6 1_555 1_555
H31 C32 1_555 1_555
H32 C32 1_555 1_555
H33 C32 1_555 1_555
C33 N6 1_555 1_555
H34 C33 1_555 1_555
H35 C33 1_555 1_555
H36 C33 1_555 1_555
O16 C34 1_555 1_555
N7 C34 1_555 1_555
C34 H37 1_555 1_555
C35 N7 1_555 1_555
H38 C35 1_555 1_555
H39 C35 1_555 1_555
H40 C35 1_555 1_555
C36 N7 1_555 1_555
H41 C36 1_555 1_555
H42 C36 1_555 1_555
H43 C36 1_555 1_555
O17 C37 1_555 1_555
N8 C37 1_555 1_555
C37 H44 1_555 1_555
C38 N8 1_555 1_555
H45 C38 1_555 1_555
H46 C38 1_555 1_555
H47 C38 1_555 1_555
C39 N8 1_555 1_555
H48 C39 1_555 1_555
H49 C39 1_555 1_555
H50 C39 1_555 1_555
O19 Cu2 1_555 1_555
O20 Cu4 1_555 1_555
O22 C46 1_555 1_555
N11 C46 1_555 1_555
C46 H51 1_555 1_555
C47 N11 1_555 1_555
H52 C47 1_555 1_555
H53 C47 1_555 1_555
H54 C47 1_555 1_555
C48 N11 1_555 1_555
H55 C48 1_555 1_555
H56 C48 1_555 1_555
H57 C48 1_555 1_555
Cu1N O1N 1_555 1_555
Cu1J O1J 1_555 1_555
Cu1A O1A 1_555 1_555
Cu1F O1F 1_555 1_555
Cu1H O1H 1_555 1_555
Cu1I O1I 1_555 1_555
Cu1B O1B 1_555 1_555
Cu2N O2N 1_555 1_555
Cu2J O2J 1_555 1_555
Cu2A O2A 1_555 1_555
Cu2F O2F 1_555 1_555
Cu2H O2H 1_555 1_555
Cu2I O2I 1_555 1_555
Cu2B O2B 1_555 1_555
Cu3A O3A 1_555 1_555
Cu3H O3H 1_555 1_555
Cu3B O3B 1_555 1_555
Cu4A O4A 1_555 1_555
Cu4H O4H 1_555 1_555
Cu4B O4B 1_555 1_555
O1N C7N 1_555 1_555
O1J C7J 1_555 1_555
O1A C7A 1_555 1_555
O1F C7F 1_555 1_555
O1H C7H 1_555 1_555
O1I C7I 1_555 1_555
O1B C7B 1_555 1_555
O2N C7N 1_555 1_555
O2J C7J 1_555 1_555
O2A C7A 1_555 1_555
O2F C7F 1_555 1_555
O2H C7H 1_555 1_555
O2I C7I 1_555 1_555
O2B C7B 1_555 1_555
O3A C8A 1_555 1_555
O3J Cu3A 1_555 1_555
O3H C8H 1_555 1_555
O3F Cu3H 1_555 1_555
O3B C8B 1_555 1_555
O3I Cu3B 1_555 1_555
O3N Cu3 1_555 1_555
O4A C8A 1_555 1_555
O4J Cu4A 1_555 1_555
O4H C8H 1_555 1_555
O4F Cu4H 1_555 1_555
O4B C8B 1_555 1_555
O4I Cu4B 1_555 1_555
O4N Cu4 1_555 1_555
O5N Cu1N 1_555 1_555
O5J Cu1J 1_555 1_555
O5A Cu1A 1_555 1_555
O5F Cu1F 1_555 1_555
O5H Cu1H 1_555 1_555
O5I Cu1I 1_555 1_555
O5B Cu1B 1_555 1_555
O6N Cu2N 1_555 1_555
O6J Cu2J 1_555 1_555
O6A Cu2A 1_555 1_555
O6F Cu2F 1_555 1_555
O6H Cu2H 1_555 1_555
O6I Cu2I 1_555 1_555
O6B Cu2B 1_555 1_555
O7N Cu1N 1_555 1_555
O7J Cu1J 1_555 1_555
O7A Cu1A 1_555 1_555
O7F Cu1F 1_555 1_555
O7H Cu1H 1_555 1_555
O7I Cu1I 1_555 1_555
O7B Cu1B 1_555 1_555
O8N Cu2N 1_555 1_555
O8J Cu2J 1_555 1_555
O8A Cu2A 1_555 1_555
O8F Cu2F 1_555 1_555
O8H Cu2H 1_555 1_555
O8I Cu2I 1_555 1_555
O8B Cu2B 1_555 1_555
O9N Cu1N 1_555 1_555
O9J Cu1J 1_555 1_555
O9A Cu1A 1_555 1_555
O9F Cu1F 1_555 1_555
O9H Cu1H 1_555 1_555
O9I Cu1I 1_555 1_555
O9B Cu1B 1_555 1_555
O10N Cu2N 1_555 1_555
O10J Cu2J 1_555 1_555
O10A Cu2A 1_555 1_555
O10F Cu2F 1_555 1_555
O10H Cu2H 1_555 1_555
O10I Cu2I 1_555 1_555
O10B Cu2B 1_555 1_555
O11A Cu3A 1_555 1_555
O11J Cu3A 1_555 1_555
O11H Cu3H 1_555 1_555
O11F Cu3H 1_555 1_555
O11B Cu3B 1_555 1_555
O11I Cu3B 1_555 1_555
O11N Cu3 1_555 1_555
O12J Cu4A 1_555 1_555
O12A Cu4A 1_555 1_555
O12F Cu4H 1_555 1_555
O12H Cu4H 1_555 1_555
O12I Cu4B 1_555 1_555
O12B Cu4B 1_555 1_555
O12N Cu4 1_555 1_555
N1B H1B 1_555 1_555
N1N H1N 1_555 1_555
N1I H1I 1_555 1_555
N1H H1H 1_555 1_555
N1F H1F 1_555 1_555
N1A H1A 1_555 1_555
N1J H1J 1_555 1_555
H2B N1B 1_555 1_555
H2N N1N 1_555 1_555
H2I N1I 1_555 1_555
H2H N1H 1_555 1_555
H2F N1F 1_555 1_555
H2A N1A 1_555 1_555
H2J N1J 1_555 1_555
N2J H3J 1_555 1_555
N2F H3F 1_555 1_555
N2I H3I 1_555 1_555
N2B H3B 1_555 1_555
N2N H3N 1_555 1_555
N2H H3H 1_555 1_555
N2A H3A 1_555 1_555
H4J N2J 1_555 1_555
H4F N2F 1_555 1_555
H4I N2I 1_555 1_555
H4B N2B 1_555 1_555
H4N N2N 1_555 1_555
H4H N2H 1_555 1_555
H4A N2A 1_555 1_555
N3N H5N 1_555 1_555
N3J H5J 1_555 1_555
N3A H5A 1_555 1_555
N3F H5F 1_555 1_555
N3H H5H 1_555 1_555
N3I H5I 1_555 1_555
N3B H5B 1_555 1_555
H6N N3N 1_555 1_555
H6J N3J 1_555 1_555
H6A N3A 1_555 1_555
H6F N3F 1_555 1_555
H6H N3H 1_555 1_555
H6I N3I 1_555 1_555
H6B N3B 1_555 1_555
C1B C2B 1_555 1_555
C1N C2N 1_555 1_555
C1I C2I 1_555 1_555
C1H C2H 1_555 1_555
C1F C2F 1_555 1_555
C1A C2A 1_555 1_555
C1J C2J 1_555 1_555
C2B H7B 1_555 1_555
C2N H7N 1_555 1_555
C2I H7I 1_555 1_555
C2H H7H 1_555 1_555
C2F H7F 1_555 1_555
C2A H7A 1_555 1_555
C2J H7J 1_555 1_555
C3B C2B 1_555 1_555
C3N C2N 1_555 1_555
C3I C2I 1_555 1_555
C3H C2H 1_555 1_555
C3F C2F 1_555 1_555
C3A C2A 1_555 1_555
C3J C2J 1_555 1_555
C4B C3B 1_555 1_555
C4N C3N 1_555 1_555
C4I C3I 1_555 1_555
C4H C3H 1_555 1_555
C4F C3F 1_555 1_555
C4A C3A 1_555 1_555
C4J C3J 1_555 1_555
H8B C4B 1_555 1_555
H8N C4N 1_555 1_555
H8I C4I 1_555 1_555
H8H C4H 1_555 1_555
H8F C4F 1_555 1_555
H8A C4A 1_555 1_555
H8J C4J 1_555 1_555
C5B N1B 1_555 1_555
C5N N1N 1_555 1_555
C5I N1I 1_555 1_555
C5H N1H 1_555 1_555
C5F N1F 1_555 1_555
C5A N1A 1_555 1_555
C5J N1J 1_555 1_555
C6B C1B 1_555 1_555
C6N C1N 1_555 1_555
C6I C1I 1_555 1_555
C6H C1H 1_555 1_555
C6F C1F 1_555 1_555
C6A C1A 1_555 1_555
C6J C1J 1_555 1_555
H9B C6B 1_555 1_555
H9N C6N 1_555 1_555
H9I C6I 1_555 1_555
H9H C6H 1_555 1_555
H9F C6F 1_555 1_555
H9A C6A 1_555 1_555
H9J C6J 1_555 1_555
C7N C1N 1_555 1_555
C7J C1J 1_555 1_555
C7A C1A 1_555 1_555
C7F C1F 1_555 1_555
C7H C1H 1_555 1_555
C7I C1I 1_555 1_555
C7B C1B 1_555 1_555
C8A C3A 1_555 1_555
C8J O3J 1_555 1_555
C8H C3H 1_555 1_555
C8F O3F 1_555 1_555
C8B C3B 1_555 1_555
C8I O3I 1_555 1_555
C8N O3N 1_555 1_555
C9J C10J 1_555 1_555
C9F C10F 1_555 1_555
C9I C10I 1_555 1_555
C9B C10B 1_555 1_555
C9N C10N 1_555 1_555
C9H C10H 1_555 1_555
C9A C10A 1_555 1_555
C10J H10J 1_555 1_555
C10F H10F 1_555 1_555
C10I H10I 1_555 1_555
C10B H10B 1_555 1_555
C10N H10N 1_555 1_555
C10H H10H 1_555 1_555
C10A H10A 1_555 1_555
C11J C10J 1_555 1_555
C11F C10F 1_555 1_555
C11I C10I 1_555 1_555
C11B C10B 1_555 1_555
C11N C10N 1_555 1_555
C11H C10H 1_555 1_555
C11A C16 1_555 1_555
C12J C11J 1_555 1_555
C12F C11F 1_555 1_555
C12I C11I 1_555 1_555
C12B C11B 1_555 1_555
C12N C11N 1_555 1_555
C12H C11H 1_555 1_555
C12A C11A 1_555 1_555
H11J C12J 1_555 1_555
H11F C12F 1_555 1_555
H11I C12I 1_555 1_555
H11B C12B 1_555 1_555
H11N C12N 1_555 1_555
H11H C12H 1_555 1_555
H11A C12A 1_555 1_555
C13J N2J 1_555 1_555
C13F N2F 1_555 1_555
C13I N2I 1_555 1_555
C13B N2B 1_555 1_555
C13N N2N 1_555 1_555
C13H N2H 1_555 1_555
C13A N2A 1_555 1_555
C14J C9J 1_555 1_555
C14F C9F 1_555 1_555
C14I C9I 1_555 1_555
C14B C9B 1_555 1_555
C14N C9N 1_555 1_555
C14H C9H 1_555 1_555
C14A C9A 1_555 1_555
H12J C14J 1_555 1_555
H12F C14F 1_555 1_555
H12I C14I 1_555 1_555
H12B C14B 1_555 1_555
H12N C14N 1_555 1_555
H12H C14H 1_555 1_555
H12A C14A 1_555 1_555
C15N O5N 1_555 1_555
C15J O5J 1_555 1_555
C15A O5A 1_555 1_555
C15F O5F 1_555 1_555
C15H O5H 1_555 1_555
C15I O5I 1_555 1_555
C15B O5B 1_555 1_555
C16N O7N 1_555 1_555
C16J O7J 1_555 1_555
C16A O7A 1_555 1_555
C16F O7F 1_555 1_555
C16H O7H 1_555 1_555
C16I O7I 1_555 1_555
C16B C11 1_555 1_555
C17N C18N 1_555 1_555
C17J C18J 1_555 1_555
C17A C18A 1_555 1_555
C17F C18F 1_555 1_555
C17H C18H 1_555 1_555
C17I C18I 1_555 1_555
C17B C18B 1_555 1_555
C18N H13N 1_555 1_555
C18J H13J 1_555 1_555
C18A H13A 1_555 1_555
C18F H13F 1_555 1_555
C18H H13H 1_555 1_555
C18I H13I 1_555 1_555
C18B H13B 1_555 1_555
C19N C18N 1_555 1_555
C19J C18J 1_555 1_555
C19A C18A 1_555 1_555
C19F C18F 1_555 1_555
C19H C18H 1_555 1_555
C19I C18I 1_555 1_555
C19B C24 1_555 1_555
C20N C19N 1_555 1_555
C20J C19J 1_555 1_555
C20A C19A 1_555 1_555
C20F C19F 1_555 1_555
C20H C19H 1_555 1_555
C20I C19I 1_555 1_555
C20B C19B 1_555 1_555
H14N C20N 1_555 1_555
H14J C20J 1_555 1_555
H14A C20A 1_555 1_555
H14F C20F 1_555 1_555
H14H C20H 1_555 1_555
H14I C20I 1_555 1_555
H14B C20B 1_555 1_555
C21N N3N 1_555 1_555
C21J N3J 1_555 1_555
C21A N3A 1_555 1_555
C21F N3F 1_555 1_555
C21H N3H 1_555 1_555
C21I N3I 1_555 1_555
C21B N3B 1_555 1_555
C22N C17N 1_555 1_555
C22J C17J 1_555 1_555
C22A C17A 1_555 1_555
C22F C17F 1_555 1_555
C22H C17H 1_555 1_555
C22I C17I 1_555 1_555
C22B C17B 1_555 1_555
H15N C22N 1_555 1_555
H15J C22J 1_555 1_555
H15A C22A 1_555 1_555
H15F C22F 1_555 1_555
H15H C22H 1_555 1_555
H15I C22I 1_555 1_555
H15B C22B 1_555 1_555
C23N O9N 1_555 1_555
C23J O9J 1_555 1_555
C23A O9A 1_555 1_555
C23F O9F 1_555 1_555
C23H O9H 1_555 1_555
C23I O9I 1_555 1_555
C23B O9B 1_555 1_555
C24A C19 1_555 1_555
C24J O11J 1_555 1_555
C24H O11H 1_555 1_555
C24F O11F 1_555 1_555
C24B O11B 1_555 1_555
C24I O11I 1_555 1_555
C24N O11N 1_555 1_555
O13B Cu1B 1_555 1_555
O13I Cu1I 1_555 1_555
O13H Cu1H 1_555 1_555
O13F Cu1F 1_555 1_555
O13A Cu1A 1_555 1_555
O13J Cu1J 1_555 1_555
O13N Cu1N 1_555 1_555
N4B C25B 1_555 1_555
N4I C25I 1_555 1_555
N4H C25H 1_555 1_555
N4F C25F 1_555 1_555
N4A C25A 1_555 1_555
N4J C25J 1_555 1_555
N4N C25N 1_555 1_555
C25B O13B 1_555 1_555
C25I O13I 1_555 1_555
C25H O13H 1_555 1_555
C25F O13F 1_555 1_555
C25A O13A 1_555 1_555
C25J O13J 1_555 1_555
C25N O13N 1_555 1_555
H16B C25B 1_555 1_555
H16I C25I 1_555 1_555
H16H C25H 1_555 1_555
H16F C25F 1_555 1_555
H16A C25A 1_555 1_555
H16J C25J 1_555 1_555
H16N C25N 1_555 1_555
C26B N4B 1_555 1_555
C26I N4I 1_555 1_555
C26H N4H 1_555 1_555
C26F N4F 1_555 1_555
C26A N4A 1_555 1_555
C26J N4J 1_555 1_555
C26N N4N 1_555 1_555
H17B C26B 1_555 1_555
H17I C26I 1_555 1_555
H17H C26H 1_555 1_555
H17F C26F 1_555 1_555
H17A C26A 1_555 1_555
H17J C26J 1_555 1_555
H17N C26N 1_555 1_555
H18B C26B 1_555 1_555
H18I C26I 1_555 1_555
H18H C26H 1_555 1_555
H18F C26F 1_555 1_555
H18A C26A 1_555 1_555
H18J C26J 1_555 1_555
H18N C26N 1_555 1_555
H19B C26B 1_555 1_555
H19I C26I 1_555 1_555
H19H C26H 1_555 1_555
H19F C26F 1_555 1_555
H19A C26A 1_555 1_555
H19J C26J 1_555 1_555
H19N C26N 1_555 1_555
C27B N4B 1_555 1_555
C27I N4I 1_555 1_555
C27H N4H 1_555 1_555
C27F N4F 1_555 1_555
C27A N4A 1_555 1_555
C27J N4J 1_555 1_555
C27N N4N 1_555 1_555
H20B C27B 1_555 1_555
H20I C27I 1_555 1_555
H20H C27H 1_555 1_555
H20F C27F 1_555 1_555
H20A C27A 1_555 1_555
H20J C27J 1_555 1_555
H20N C27N 1_555 1_555
H21B C27B 1_555 1_555
H21I C27I 1_555 1_555
H21H C27H 1_555 1_555
H21F C27F 1_555 1_555
H21A C27A 1_555 1_555
H21J C27J 1_555 1_555
H21N C27N 1_555 1_555
H22B C27B 1_555 1_555
H22I C27I 1_555 1_555
H22H C27H 1_555 1_555
H22F C27F 1_555 1_555
H22A C27A 1_555 1_555
H22J C27J 1_555 1_555
H22N C27N 1_555 1_555
O14B Cu3B 1_555 1_555
O14H Cu3H 1_555 1_555
O14A Cu3A 1_555 1_555
N5B C28B 1_555 1_555
N5H C28H 1_555 1_555
N5A C28A 1_555 1_555
C28B O14B 1_555 1_555
C28H O14H 1_555 1_555
C28A O14A 1_555 1_555
H23B C28B 1_555 1_555
H23H C28H 1_555 1_555
H23A C28A 1_555 1_555
C29B N5B 1_555 1_555
C29H N5H 1_555 1_555
C29A N5A 1_555 1_555
H24B C29B 1_555 1_555
H24H C29H 1_555 1_555
H24A C29A 1_555 1_555
H25B C29B 1_555 1_555
H25I C29B 1_555 1_555
H25H C29H 1_555 1_555
H25F C29H 1_555 1_555
H25A C29A 1_555 1_555
H25J C29A 1_555 1_555
C30B N5B 1_555 1_555
C30H N5H 1_555 1_555
C30A N5A 1_555 1_555
H27B C30B 1_555 1_555
H27H C30H 1_555 1_555
H27A C30A 1_555 1_555
H28B C30B 1_555 1_555
H28I C30B 1_555 1_555
H28H C30H 1_555 1_555
H28F C30H 1_555 1_555
H28A C30A 1_555 1_555
H28J C30A 1_555 1_555
O19N Cu2N 1_555 1_555
O19J Cu2J 1_555 1_555
O19A Cu2A 1_555 1_555
O19F Cu2F 1_555 1_555
O19H Cu2H 1_555 1_555
O19I Cu2I 1_555 1_555
O19B Cu2B 1_555 1_555
O20A Cu4A 1_555 1_555
O20H Cu4H 1_555 1_555
O20B Cu4B 1_555 1_555
O6 C15 1_555 1_555
O8 C16 1_555 1_555
O10 C23 1_555 1_555
O12 C24 1_555 1_555
C4 C5 1_555 1_555
C5 C6 1_555 1_555
C9 C15 1_555 1_555
C12 C13 1_555 1_555
C13 C14 1_555 1_555
C17 C23 1_555 1_555
C20 C21 1_555 1_555
C21 C22 1_555 1_555
O4J C8J 1_555 1_555
O4F C8F 1_555 1_555
O4I C8I 1_555 1_555
O4N C8N 1_555 1_555
O6N C15N 1_555 1_555
O6J C15J 1_555 1_555
O6A C15A 1_555 1_555
O6F C15F 1_555 1_555
O6H C15H 1_555 1_555
O6I C15I 1_555 1_555
O6B C15B 1_555 1_555
O7B C16B 1_555 1_555
O8N C16N 1_555 1_555
O8J C16J 1_555 1_555
O8A C16A 1_555 1_555
O8F C16F 1_555 1_555
O8H C16H 1_555 1_555
O8I C16I 1_555 1_555
O8B C16B 1_555 1_555
O10N C23N 1_555 1_555
O10J C23J 1_555 1_555
O10A C23A 1_555 1_555
O10F C23F 1_555 1_555
O10H C23H 1_555 1_555
O10I C23I 1_555 1_555
O10B C23B 1_555 1_555
O11A C24A 1_555 1_555
O12J C24J 1_555 1_555
O12A C24A 1_555 1_555
O12F C24F 1_555 1_555
O12H C24H 1_555 1_555
O12I C24I 1_555 1_555
O12B C24B 1_555 1_555
O12N C24N 1_555 1_555
C3N C8N 1_555 1_555
C3I C8I 1_555 1_555
C3F C8F 1_555 1_555
C3J C8J 1_555 1_555
C4B C5B 1_555 1_555
C4N C5N 1_555 1_555
C4I C5I 1_555 1_555
C4H C5H 1_555 1_555
C4F C5F 1_555 1_555
C4A C5A 1_555 1_555
C4J C5J 1_555 1_555
C5B C6B 1_555 1_555
C5N C6N 1_555 1_555
C5I C6I 1_555 1_555
C5H C6H 1_555 1_555
C5F C6F 1_555 1_555
C5A C6A 1_555 1_555
C5J C6J 1_555 1_555
C9J C15J 1_555 1_555
C9F C15F 1_555 1_555
C9I C15I 1_555 1_555
C9B C15B 1_555 1_555
C9N C15N 1_555 1_555
C9H C15H 1_555 1_555
C9A C15A 1_555 1_555
C10A C11A 1_555 1_555
C11J C16N 1_555 1_555
C11F C16A 1_555 1_555
C11I C16H 1_555 1_555
C11B C16F 1_555 1_555
C11N C16I 1_555 1_555
C11H C16J 1_555 1_555
C12J C13J 1_555 1_555
C12F C13F 1_555 1_555
C12I C13I 1_555 1_555
C12B C13B 1_555 1_555
C12N C13N 1_555 1_555
C12H C13H 1_555 1_555
C12A C13A 1_555 1_555
C13J C14J 1_555 1_555
C13F C14F 1_555 1_555
C13I C14I 1_555 1_555
C13B C14B 1_555 1_555
C13N C14N 1_555 1_555
C13H C14H 1_555 1_555
C13A C14A 1_555 1_555
C17N C23N 1_555 1_555
C17J C23J 1_555 1_555
C17A C23A 1_555 1_555
C17F C23F 1_555 1_555
C17H C23H 1_555 1_555
C17I C23I 1_555 1_555
C17B C23B 1_555 1_555
C18B C19B 1_555 1_555
C19N C24J 1_555 1_555
C19J C24H 1_555 1_555
C19A C24F 1_555 1_555
C19F C24B 1_555 1_555
C19H C24I 1_555 1_555
C19I C24N 1_555 1_555
C20N C21N 1_555 1_555
C20J C21J 1_555 1_555
C20A C21A 1_555 1_555
C20F C21F 1_555 1_555
C20H C21H 1_555 1_555
C20I C21I 1_555 1_555
C20B C21B 1_555 1_555
C21N C22N 1_555 1_555
C21J C22J 1_555 1_555
C21A C22A 1_555 1_555
C21F C22F 1_555 1_555
C21H C22H 1_555 1_555
C21I C22I 1_555 1_555
C21B C22B 1_555 1_555

#END
