# generated using pymatgen
data_Cu8P9H177C198N41(O8F27)2
_symmetry_space_group_name_H-M   'P 1'
_cell_length_a   18.06700000
_cell_length_b   22.49700000
_cell_length_c   32.86600000
_cell_angle_alpha   78.64000000
_cell_angle_beta   80.51000000
_cell_angle_gamma   82.79000000
_symmetry_Int_Tables_number   1
_chemical_formula_structural   Cu8P9H177C198N41(O8F27)2
_chemical_formula_sum   'Cu16 P18 H354 C396 N82 O32 F108'
_cell_volume   12857.63062849
_cell_formula_units_Z   2
loop_
 _symmetry_equiv_pos_site_id
 _symmetry_equiv_pos_as_xyz
  1  'x, y, z'
loop_
 _atom_site_type_symbol
 _atom_site_label
 _atom_site_symmetry_multiplicity
 _atom_site_fract_x
 _atom_site_fract_y
 _atom_site_fract_z
 _atom_site_occupancy
  Cu  Cu1  1  0.378270  0.648430  0.424695  1
  Cu  Cu2  1  0.621730  0.351570  0.575305  1
  Cu  Cu3  1  0.186780  0.665290  0.231190  1
  Cu  Cu4  1  0.813220  0.334710  0.768810  1
  Cu  Cu5  1  0.510950  0.827960  0.098080  1
  Cu  Cu6  1  0.489050  0.172040  0.901920  1
  Cu  Cu7  1  0.702230  0.812360  0.288920  1
  Cu  Cu8  1  0.297770  0.187640  0.711080  1
  Cu  Cu9  1  0.570880  0.131260  0.313130  1
  Cu  Cu10  1  0.429120  0.868740  0.686870  1
  Cu  Cu11  1  0.635030  0.247040  0.078060  1
  Cu  Cu12  1  0.364970  0.752960  0.921940  1
  Cu  Cu13  1  0.004540  0.369550  0.095330  1
  Cu  Cu14  1  0.995460  0.630450  0.904670  1
  Cu  Cu15  1  0.942900  0.246960  0.331540  1
  Cu  Cu16  1  0.057100  0.753040  0.668460  1
  P  P17  1  0.305430  0.419080  0.139010  1
  P  P18  1  0.694570  0.580920  0.860990  1
  P  P19  1  0.262680  0.854180  0.076510  1
  P  P20  1  0.737320  0.145820  0.923490  1
  P  P21  1  0.269270  0.999740  0.290750  1
  P  P22  1  0.730730  0.000260  0.709250  1
  P  P23  1  0.422640  0.337210  0.434260  1
  P  P24  1  0.577360  0.662790  0.565740  1
  P  P25  1  0.907640  0.539030  0.361700  1
  P  P26  1  0.092360  0.460970  0.638300  1
  P  P27  1  0.956480  0.993150  0.169910  1
  P  P28  1  0.043520  0.006850  0.830090  1
  P  P29  1  0.216540  0.364140  0.974700  1
  P  P30  1  0.783460  0.635860  0.025300  1
  P  P31  1  0.048700  0.907400  0.481000  1
  P  P32  1  0.951300  0.092600  0.519000  1
  P  P33  1  0.602800  0.998700  0.453400  1
  P  P34  1  0.397200  0.001300  0.546600  1
  H  H35  1  0.427200  0.635300  0.513200  1
  H  H36  1  0.572800  0.364700  0.486800  1
  H  H37  1  0.435400  0.557300  0.570500  1
  H  H38  1  0.564600  0.442700  0.429500  1
  H  H39  1  0.404700  0.461900  0.567300  1
  H  H40  1  0.595300  0.538100  0.432700  1
  H  H41  1  0.370800  0.444900  0.505400  1
  H  H42  1  0.629200  0.555100  0.494600  1
  H  H43  1  0.344100  0.487200  0.430100  1
  H  H44  1  0.655900  0.512800  0.569900  1
  H  H45  1  0.279100  0.652100  0.356300  1
  H  H46  1  0.720900  0.347900  0.643700  1
  H  H47  1  0.314100  0.569500  0.255100  1
  H  H48  1  0.685900  0.430500  0.744900  1
  H  H49  1  0.395300  0.485400  0.361900  1
  H  H50  1  0.604700  0.514600  0.638100  1
  H  H51  1  0.273000  0.729800  0.306200  1
  H  H52  1  0.727000  0.270200  0.693800  1
  H  H53  1  0.106900  0.789400  0.187000  1
  H  H54  1  0.893100  0.210600  0.813000  1
  H  H55  1  0.103200  0.892400  0.192300  1
  H  H56  1  0.896800  0.107600  0.807700  1
  H  H57  1  0.158700  0.917000  0.242300  1
  H  H58  1  0.841300  0.083000  0.757700  1
  H  H59  1  0.228700  0.840400  0.285900  1
  H  H60  1  0.771300  0.159600  0.714100  1
  H  H61  1  0.439300  0.518100  0.228000  1
  H  H62  1  0.560700  0.481900  0.772000  1
  H  H63  1  0.497300  0.437800  0.195900  1
  H  H64  1  0.502700  0.562200  0.804100  1
  H  H65  1  0.426700  0.319700  0.300900  1
  H  H66  1  0.573300  0.680300  0.699100  1
  H  H67  1  0.371700  0.400500  0.332200  1
  H  H68  1  0.628300  0.599500  0.667800  1
  H  H69  1  0.481800  0.357200  0.165000  1
  H  H70  1  0.518200  0.642800  0.835000  1
  H  H71  1  0.597300  0.190400  0.170000  1
  H  H72  1  0.402700  0.809600  0.830000  1
  H  H73  1  0.532900  0.261500  0.275400  1
  H  H74  1  0.467100  0.738500  0.724600  1
  H  H75  1  0.690700  0.153100  0.208500  1
  H  H76  1  0.309300  0.846900  0.791500  1
  H  H77  1  0.665800  0.014700  0.356100  1
  H  H78  1  0.334200  0.985300  0.643900  1
  H  H79  1  0.781200  0.962000  0.338600  1
  H  H80  1  0.218800  0.038000  0.661400  1
  H  H81  1  0.846600  0.987300  0.269400  1
  H  H82  1  0.153400  0.012700  0.730600  1
  H  H83  1  0.794200  0.066700  0.222700  1
  H  H84  1  0.205800  0.933300  0.777300  1
  H  H85  1  0.442500  0.318600  0.111300  1
  H  H86  1  0.557500  0.681400  0.888700  1
  H  H87  1  0.626700  0.262600  0.981900  1
  H  H88  1  0.373300  0.737400  0.018100  1
  H  H89  1  0.536200  0.308000  0.938900  1
  H  H90  1  0.463800  0.692000  0.061100  1
  H  H91  1  0.419300  0.347900  0.967900  1
  H  H92  1  0.580700  0.652100  0.032100  1
  H  H93  1  0.397700  0.347900  0.039900  1
  H  H94  1  0.602300  0.652100  0.960100  1
  H  H95  1  0.222400  0.718700  0.453300  1
  H  H96  1  0.777600  0.281300  0.546700  1
  H  H97  1  0.157200  0.810600  0.428900  1
  H  H98  1  0.842800  0.189400  0.571100  1
  H  H99  1  0.218700  0.880600  0.374200  1
  H  H100  1  0.781300  0.119400  0.625800  1
  H  H101  1  0.340900  0.849100  0.342500  1
  H  H102  1  0.659100  0.150900  0.657500  1
  H  H103  1  0.456000  0.772600  0.343500  1
  H  H104  1  0.544000  0.227400  0.656500  1
  H  H105  1  0.579400  0.752200  0.354400  1
  H  H106  1  0.420600  0.247800  0.645600  1
  H  H107  1  0.724200  0.608500  0.326200  1
  H  H108  1  0.275800  0.391500  0.673800  1
  H  H109  1  0.505300  0.584100  0.368000  1
  H  H110  1  0.494700  0.415900  0.632000  1
  H  H111  1  0.799800  0.674200  0.347400  1
  H  H112  1  0.200200  0.325800  0.652600  1
  H  H113  1  0.844100  0.884000  0.251500  1
  H  H114  1  0.155900  0.116000  0.748500  1
  H  H115  1  0.969600  0.867800  0.258600  1
  H  H116  1  0.030400  0.132200  0.741400  1
  H  H117  1  0.015900  0.781400  0.302800  1
  H  H118  1  0.984100  0.218600  0.697200  1
  H  H119  1  0.932500  0.707900  0.333500  1
  H  H120  1  0.067500  0.292100  0.666500  1
  H  H121  1  0.538100  0.510900  0.320500  1
  H  H122  1  0.461900  0.489100  0.679500  1
  H  H123  1  0.563800  0.408100  0.318400  1
  H  H124  1  0.436200  0.591900  0.681600  1
  H  H125  1  0.761000  0.406800  0.361100  1
  H  H126  1  0.239000  0.593200  0.638900  1
  H  H127  1  0.733700  0.510400  0.364600  1
  H  H128  1  0.266300  0.489600  0.635400  1
  H  H129  1  0.572800  0.308300  0.353500  1
  H  H130  1  0.427200  0.691700  0.646500  1
  H  H131  1  0.722400  0.163800  0.334100  1
  H  H132  1  0.277600  0.836200  0.665900  1
  H  H133  1  0.797100  0.329100  0.324700  1
  H  H134  1  0.202900  0.670900  0.675300  1
  H  H135  1  0.522300  0.218900  0.399900  1
  H  H136  1  0.477700  0.781100  0.600100  1
  H  H137  1  0.824500  0.164800  0.284000  1
  H  H138  1  0.175500  0.835200  0.716000  1
  H  H139  1  0.102100  0.181300  0.298500  1
  H  H140  1  0.897900  0.818700  0.701500  1
  H  H141  1  0.419300  0.073200  0.322100  1
  H  H142  1  0.580700  0.926800  0.677900  1
  H  H143  1  0.142400  0.110600  0.254600  1
  H  H144  1  0.857600  0.889400  0.745400  1
  H  H145  1  0.308800  0.070800  0.370500  1
  H  H146  1  0.691200  0.929200  0.629500  1
  H  H147  1  0.294400  0.123500  0.425800  1
  H  H148  1  0.705600  0.876500  0.574200  1
  H  H149  1  0.054100  0.068700  0.226200  1
  H  H150  1  0.945900  0.931300  0.773800  1
  H  H151  1  0.393500  0.180400  0.430500  1
  H  H152  1  0.606500  0.819600  0.569500  1
  H  H153  1  0.923100  0.097600  0.246900  1
  H  H154  1  0.076900  0.902400  0.753100  1
  H  H155  1  0.031800  0.609100  0.267500  1
  H  H156  1  0.968200  0.390900  0.732500  1
  H  H157  1  0.966800  0.537200  0.250900  1
  H  H158  1  0.033200  0.462800  0.749100  1
  H  H159  1  0.017600  0.486500  0.196300  1
  H  H160  1  0.982400  0.513500  0.803700  1
  H  H161  1  0.140100  0.509800  0.157700  1
  H  H162  1  0.859900  0.490200  0.842300  1
  H  H163  1  0.252600  0.570100  0.148900  1
  H  H164  1  0.747400  0.429900  0.851100  1
  H  H165  1  0.303300  0.737600  0.169500  1
  H  H166  1  0.696700  0.262400  0.830500  1
  H  H167  1  0.524900  0.689000  0.131200  1
  H  H168  1  0.475100  0.311000  0.868800  1
  H  H169  1  0.376200  0.561700  0.158800  1
  H  H170  1  0.623800  0.438300  0.841200  1
  H  H171  1  0.362400  0.806100  0.190000  1
  H  H172  1  0.637600  0.193900  0.810000  1
  H  H173  1  0.520400  0.967800  0.094000  1
  H  H174  1  0.479600  0.032200  0.906000  1
  H  H175  1  0.462300  0.041000  0.133400  1
  H  H176  1  0.537700  0.959000  0.866600  1
  H  H177  1  0.372800  0.013100  0.191300  1
  H  H178  1  0.627200  0.986900  0.808700  1
  H  H179  1  0.340500  0.912000  0.207400  1
  H  H180  1  0.659500  0.088000  0.792600  1
  H  H181  1  0.463100  0.524000  0.106700  1
  H  H182  1  0.536900  0.476000  0.893300  1
  H  H183  1  0.558400  0.449700  0.091100  1
  H  H184  1  0.441600  0.550300  0.908900  1
  H  H185  1  0.696700  0.524400  0.148000  1
  H  H186  1  0.303300  0.475600  0.852000  1
  H  H187  1  0.600800  0.599000  0.162900  1
  H  H188  1  0.399200  0.401000  0.837100  1
  H  H189  1  0.640200  0.363000  0.109300  1
  H  H190  1  0.359800  0.637000  0.890700  1
  H  H191  1  0.863900  0.321200  0.076300  1
  H  H192  1  0.136100  0.678800  0.923700  1
  H  H193  1  0.783700  0.491200  0.097800  1
  H  H194  1  0.216300  0.508800  0.902200  1
  H  H195  1  0.822700  0.230400  0.112900  1
  H  H196  1  0.177300  0.769600  0.887100  1
  H  H197  1  0.631600  0.112200  0.067100  1
  H  H198  1  0.368400  0.887800  0.932900  1
  H  H199  1  0.707500  0.024200  0.077900  1
  H  H200  1  0.292500  0.975800  0.922100  1
  H  H201  1  0.826700  0.025900  0.099200  1
  H  H202  1  0.173300  0.974100  0.900800  1
  H  H203  1  0.861800  0.118700  0.108400  1
  H  H204  1  0.138200  0.881300  0.891600  1
  H  H205  1  0.888000  0.508300  0.049800  1
  H  H206  1  0.112000  0.491700  0.950200  1
  H  H207  1  0.158800  0.427700  0.081900  1
  H  H208  1  0.841200  0.572300  0.918100  1
  H  H209  1  0.199700  0.521600  0.052400  1
  H  H210  1  0.800300  0.478400  0.947600  1
  H  H211  1  0.117300  0.599300  0.023400  1
  H  H212  1  0.882700  0.400700  0.976600  1
  H  H213  1  0.989000  0.580400  0.026500  1
  H  H214  1  0.011000  0.419600  0.973500  1
  H  H215  1  0.454500  0.859500  0.009700  1
  H  H216  1  0.545500  0.140500  0.990300  1
  H  H217  1  0.509900  0.856400  0.941400  1
  H  H218  1  0.490100  0.143600  0.058600  1
  H  H219  1  0.637800  0.822300  0.927500  1
  H  H220  1  0.362200  0.177700  0.072500  1
  H  H221  1  0.706400  0.788100  0.984600  1
  H  H222  1  0.293600  0.211900  0.015400  1
  H  H223  1  0.706700  0.767400  0.063300  1
  H  H224  1  0.293300  0.232600  0.936700  1
  H  H225  1  0.599100  0.837600  0.167800  1
  H  H226  1  0.400900  0.162400  0.832200  1
  H  H227  1  0.708600  0.704000  0.244200  1
  H  H228  1  0.291400  0.296000  0.755800  1
  H  H229  1  0.702400  0.685300  0.124700  1
  H  H230  1  0.297600  0.314700  0.875300  1
  H  H231  1  0.536600  0.844500  0.231000  1
  H  H232  1  0.463400  0.155500  0.769000  1
  H  H233  1  0.642500  0.894100  0.357200  1
  H  H234  1  0.357500  0.105900  0.642800  1
  H  H235  1  0.530900  0.953600  0.375800  1
  H  H236  1  0.469100  0.046400  0.624200  1
  H  H237  1  0.430600  0.955900  0.338300  1
  H  H238  1  0.569400  0.044100  0.661700  1
  H  H239  1  0.449300  0.909800  0.277700  1
  H  H240  1  0.550700  0.090200  0.722300  1
  H  H241  1  0.823500  0.631200  0.138000  1
  H  H242  1  0.176500  0.368800  0.862000  1
  H  H243  1  0.888300  0.534400  0.151000  1
  H  H244  1  0.111700  0.465600  0.849000  1
  H  H245  1  0.761500  0.499000  0.264300  1
  H  H246  1  0.238500  0.501000  0.735700  1
  H  H247  1  0.698800  0.594900  0.252500  1
  H  H248  1  0.301200  0.405100  0.747500  1
  H  H249  1  0.894900  0.431600  0.157800  1
  H  H250  1  0.105100  0.568400  0.842200  1
  H  H251  1  0.991600  0.296000  0.236400  1
  H  H252  1  0.008400  0.704000  0.763600  1
  H  H253  1  0.874900  0.443200  0.281300  1
  H  H254  1  0.125100  0.556800  0.718700  1
  H  H255  1  0.960700  0.247900  0.187600  1
  H  H256  1  0.039300  0.752100  0.812400  1
  H  H257  1  0.072500  0.283900  0.029800  1
  H  H258  1  0.927500  0.716100  0.970200  1
  H  H259  1  0.086200  0.179300  0.031700  1
  H  H260  1  0.913800  0.820700  0.968300  1
  H  H261  1  0.046700  0.114400  0.092000  1
  H  H262  1  0.953300  0.885600  0.908000  1
  H  H263  1  0.996900  0.153900  0.152800  1
  H  H264  1  0.003100  0.846100  0.847200  1
  H  H265  1  0.982100  0.407200  0.322500  1
  H  H266  1  0.017900  0.592800  0.677500  1
  H  H267  1  0.961900  0.201600  0.425700  1
  H  H268  1  0.038100  0.798400  0.574300  1
  H  H269  1  0.006400  0.242300  0.476300  1
  H  H270  1  0.993600  0.757700  0.523700  1
  H  H271  1  0.032300  0.344700  0.461200  1
  H  H272  1  0.967700  0.655300  0.538800  1
  H  H273  1  0.021200  0.400900  0.393600  1
  H  H274  1  0.978800  0.599100  0.606400  1
  H  H275  1  0.476600  0.633600  0.232100  1
  H  H276  1  0.523400  0.366400  0.767900  1
  H  H277  1  0.498500  0.622200  0.278500  1
  H  H278  1  0.501500  0.377800  0.721500  1
  H  H279  1  0.552600  0.656600  0.239800  1
  H  H280  1  0.447400  0.343400  0.760200  1
  H  H281  1  0.657800  0.350000  0.214700  1
  H  H282  1  0.342200  0.650000  0.785300  1
  H  H283  1  0.731000  0.386400  0.199300  1
  H  H284  1  0.269000  0.613600  0.800700  1
  H  H285  1  0.711600  0.355700  0.247500  1
  H  H286  1  0.288400  0.644300  0.752500  1
  H  H287  1  0.194700  0.304300  0.101700  1
  H  H288  1  0.805300  0.695700  0.898300  1
  H  H289  1  0.211700  0.232200  0.104800  1
  H  H290  1  0.788300  0.767800  0.895200  1
  H  H291  1  0.268100  0.269600  0.120300  1
  H  H292  1  0.731900  0.730400  0.879700  1
  H  H293  1  0.387200  0.169400  0.239500  1
  H  H294  1  0.612800  0.830600  0.760500  1
  H  H295  1  0.305800  0.184400  0.224800  1
  H  H296  1  0.694200  0.815600  0.775200  1
  H  H297  1  0.363100  0.235900  0.214800  1
  H  H298  1  0.636900  0.764100  0.785200  1
  H  H299  1  0.154700  0.617100  0.564300  1
  H  H300  1  0.845300  0.382900  0.435700  1
  H  H301  1  0.240100  0.588000  0.554700  1
  H  H302  1  0.759900  0.412000  0.445300  1
  H  H303  1  0.129000  0.609400  0.500900  1
  H  H304  1  0.871000  0.390600  0.499100  1
  H  H305  1  0.178600  0.546700  0.514600  1
  H  H306  1  0.821400  0.453300  0.485400  1
  H  H307  1  0.216400  0.601000  0.482000  1
  H  H308  1  0.783600  0.399000  0.518000  1
  H  H309  1  0.283100  0.673600  0.571600  1
  H  H310  1  0.716900  0.326400  0.428400  1
  H  H311  1  0.200400  0.707800  0.578800  1
  H  H312  1  0.799600  0.292200  0.421200  1
  H  H313  1  0.309300  0.754900  0.514800  1
  H  H314  1  0.690700  0.245100  0.485200  1
  H  H315  1  0.300700  0.769700  0.561100  1
  H  H316  1  0.699300  0.230300  0.438900  1
  H  H317  1  0.232800  0.789700  0.534100  1
  H  H318  1  0.767200  0.210300  0.465900  1
  H  H319  1  0.204800  0.635100  0.077300  1
  H  H320  1  0.795200  0.364900  0.922700  1
  H  H321  1  0.215000  0.704000  0.054600  1
  H  H322  1  0.785000  0.296000  0.945400  1
  H  H323  1  0.283600  0.662500  0.074200  1
  H  H324  1  0.716400  0.337500  0.925800  1
  H  H325  1  0.224900  0.629600  0.007600  1
  H  H326  1  0.775100  0.370400  0.992400  1
  H  H327  1  0.293600  0.672600  0.998400  1
  H  H328  1  0.706400  0.327400  0.001600  1
  H  H329  1  0.371600  0.594700  0.974800  1
  H  H330  1  0.628400  0.405300  0.025200  1
  H  H331  1  0.301400  0.553700  0.984700  1
  H  H332  1  0.698600  0.446300  0.015300  1
  H  H333  1  0.408200  0.482700  0.991400  1
  H  H334  1  0.591800  0.517300  0.008600  1
  H  H335  1  0.368200  0.487000  0.038000  1
  H  H336  1  0.631800  0.513000  0.962000  1
  H  H337  1  0.442000  0.521200  0.018800  1
  H  H338  1  0.558000  0.478800  0.981200  1
  H  H339  1  0.146900  0.409200  0.254000  1
  H  H340  1  0.853100  0.590800  0.746000  1
  H  H341  1  0.236000  0.396200  0.257200  1
  H  H342  1  0.764000  0.603800  0.742800  1
  H  H343  1  0.185700  0.322000  0.251400  1
  H  H344  1  0.814300  0.678000  0.748600  1
  H  H345  1  0.122500  0.287700  0.285400  1
  H  H346  1  0.877500  0.712300  0.714600  1
  H  H347  1  0.127400  0.474200  0.298900  1
  H  H348  1  0.872600  0.525800  0.701100  1
  H  H349  1  0.214200  0.484700  0.283100  1
  H  H350  1  0.785800  0.515300  0.716900  1
  H  H351  1  0.190600  0.440000  0.326400  1
  H  H352  1  0.809400  0.560000  0.673600  1
  H  H353  1  0.270300  0.246800  0.274200  1
  H  H354  1  0.729700  0.753200  0.725800  1
  H  H355  1  0.210100  0.219800  0.312700  1
  H  H356  1  0.789900  0.780200  0.687300  1
  H  H357  1  0.258600  0.272500  0.317200  1
  H  H358  1  0.741400  0.727500  0.682800  1
  H  H359  1  0.238100  0.979900  0.129000  1
  H  H360  1  0.761900  0.020100  0.871000  1
  H  H361  1  0.153700  0.007000  0.143200  1
  H  H362  1  0.846300  0.993000  0.856800  1
  H  H363  1  0.217000  0.003700  0.172600  1
  H  H364  1  0.783000  0.996300  0.827400  1
  H  H365  1  0.145700  0.588200  0.411200  1
  H  H366  1  0.854300  0.411800  0.588800  1
  H  H367  1  0.101400  0.559000  0.382900  1
  H  H368  1  0.898600  0.441000  0.617100  1
  H  H369  1  0.055500  0.594500  0.418200  1
  H  H370  1  0.944500  0.405500  0.581800  1
  H  H371  1  0.668500  0.941500  0.968900  1
  H  H372  1  0.331500  0.058500  0.031100  1
  H  H373  1  0.656000  0.010800  0.945700  1
  H  H374  1  0.344000  0.989200  0.054300  1
  H  H375  1  0.586500  0.970000  0.958600  1
  H  H376  1  0.413500  0.030000  0.041400  1
  H  H377  1  0.406900  0.801700  0.495200  1
  H  H378  1  0.593100  0.198300  0.504800  1
  H  H379  1  0.444900  0.864300  0.487600  1
  H  H380  1  0.555100  0.135700  0.512400  1
  H  H381  1  0.487100  0.802400  0.509600  1
  H  H382  1  0.512900  0.197600  0.490400  1
  H  H383  1  0.947500  0.143300  0.980200  1
  H  H384  1  0.052500  0.856700  0.019800  1
  H  H385  1  0.862500  0.133700  0.001400  1
  H  H386  1  0.137500  0.866300  0.998600  1
  H  H387  1  0.928300  0.123300  0.030000  1
  H  H388  1  0.071700  0.876700  0.970000  1
  C  C389  1  0.376800  0.531700  0.474340  1
  C  C390  1  0.623200  0.468300  0.525660  1
  C  C391  1  0.414800  0.596100  0.511580  1
  C  C392  1  0.585200  0.403900  0.488420  1
  C  C393  1  0.419900  0.549900  0.545900  1
  C  C394  1  0.580100  0.450100  0.454100  1
  C  C395  1  0.402600  0.494100  0.543870  1
  C  C396  1  0.597400  0.505900  0.456130  1
  C  C397  1  0.381700  0.484300  0.507550  1
  C  C398  1  0.618300  0.515700  0.492450  1
  C  C399  1  0.355100  0.525500  0.434490  1
  C  C400  1  0.644900  0.474500  0.565510  1
  C  C401  1  0.339300  0.568800  0.365080  1
  C  C402  1  0.660700  0.431200  0.634920  1
  C  C403  1  0.299700  0.618400  0.343250  1
  C  C404  1  0.700300  0.381600  0.656750  1
  C  C405  1  0.290400  0.618300  0.302110  1
  C  C406  1  0.709600  0.381700  0.697890  1
  C  C407  1  0.321300  0.569200  0.283090  1
  C  C408  1  0.678700  0.430800  0.716910  1
  C  C409  1  0.362600  0.519400  0.304100  1
  C  C410  1  0.637400  0.480600  0.695900  1
  C  C411  1  0.369600  0.519500  0.346300  1
  C  C412  1  0.630400  0.480500  0.653700  1
  C  C413  1  0.247000  0.721900  0.285260  1
  C  C414  1  0.753000  0.278100  0.714740  1
  C  C415  1  0.205000  0.771700  0.259930  1
  C  C416  1  0.795000  0.228300  0.740070  1
  C  C417  1  0.132400  0.799900  0.207240  1
  C  C418  1  0.867600  0.200100  0.792760  1
  C  C419  1  0.129100  0.861700  0.210500  1
  C  C420  1  0.870900  0.138300  0.789500  1
  C  C421  1  0.162100  0.875700  0.239000  1
  C  C422  1  0.837900  0.124300  0.761000  1
  C  C423  1  0.203400  0.830200  0.265360  1
  C  C424  1  0.796600  0.169800  0.734640  1
  C  C425  1  0.398400  0.468200  0.283530  1
  C  C426  1  0.601600  0.531800  0.716470  1
  C  C427  1  0.436600  0.477600  0.242940  1
  C  C428  1  0.563400  0.522400  0.757060  1
  C  C429  1  0.470700  0.429800  0.223560  1
  C  C430  1  0.529300  0.570200  0.776440  1
  C  C431  1  0.466200  0.370500  0.244450  1
  C  C432  1  0.533800  0.629500  0.755550  1
  C  C433  1  0.429200  0.360200  0.285680  1
  C  C434  1  0.570800  0.639800  0.714320  1
  C  C435  1  0.396500  0.408400  0.304180  1
  C  C436  1  0.603500  0.591600  0.695820  1
  C  C437  1  0.503700  0.318300  0.223040  1
  C  C438  1  0.496300  0.681700  0.776960  1
  C  C439  1  0.504700  0.321800  0.180900  1
  C  C440  1  0.495300  0.678200  0.819100  1
  C  C441  1  0.538800  0.274400  0.161140  1
  C  C442  1  0.461200  0.725600  0.838860  1
  C  C443  1  0.573200  0.222600  0.183690  1
  C  C444  1  0.426800  0.777400  0.816310  1
  C  C445  1  0.572000  0.218500  0.226150  1
  C  C446  1  0.428000  0.781500  0.773850  1
  C  C447  1  0.535800  0.265500  0.245880  1
  C  C448  1  0.464200  0.734500  0.754120  1
  C  C449  1  0.667300  0.139800  0.236380  1
  C  C450  1  0.332700  0.860200  0.763620  1
  C  C451  1  0.701500  0.087500  0.263550  1
  C  C452  1  0.298500  0.912500  0.736450  1
  C  C453  1  0.693000  0.025800  0.328900  1
  C  C454  1  0.307000  0.974200  0.671100  1
  C  C455  1  0.760900  0.993700  0.318600  1
  C  C456  1  0.239100  0.006300  0.681400  1
  C  C457  1  0.799800  0.009100  0.277800  1
  C  C458  1  0.200200  0.990900  0.722200  1
  C  C459  1  0.769200  0.055900  0.250500  1
  C  C460  1  0.230800  0.944100  0.749500  1
  C  C461  1  0.488200  0.302100  0.097090  1
  C  C462  1  0.511800  0.697900  0.902910  1
  C  C463  1  0.500000  0.305200  0.051810  1
  C  C464  1  0.500000  0.694800  0.948190  1
  C  C465  1  0.580100  0.281000  0.993980  1
  C  C466  1  0.419900  0.719000  0.006020  1
  C  C467  1  0.525300  0.307200  0.968200  1
  C  C468  1  0.474700  0.692800  0.031800  1
  C  C469  1  0.457100  0.331300  0.985000  1
  C  C470  1  0.542900  0.668700  0.015000  1
  C  C471  1  0.444500  0.330700  0.027300  1
  C  C472  1  0.555500  0.669300  0.972700  1
  C  C473  1  0.351400  0.768700  0.381950  1
  C  C474  1  0.648600  0.231300  0.618050  1
  C  C475  1  0.246300  0.745600  0.430300  1
  C  C476  1  0.753700  0.254400  0.569700  1
  C  C477  1  0.207400  0.800700  0.416400  1
  C  C478  1  0.792600  0.199300  0.583600  1
  C  C479  1  0.243100  0.841700  0.383800  1
  C  C480  1  0.756900  0.158300  0.616200  1
  C  C481  1  0.316000  0.823400  0.365900  1
  C  C482  1  0.684000  0.176600  0.634100  1
  C  C483  1  0.427000  0.746900  0.365090  1
  C  C484  1  0.573000  0.253100  0.634910  1
  C  C485  1  0.528400  0.672300  0.363780  1
  C  C486  1  0.471600  0.327700  0.636220  1
  C  C487  1  0.588600  0.710200  0.352510  1
  C  C488  1  0.411400  0.289800  0.647490  1
  C  C489  1  0.661200  0.685700  0.338680  1
  C  C490  1  0.338800  0.314300  0.661320  1
  C  C491  1  0.674600  0.624600  0.335690  1
  C  C492  1  0.325400  0.375400  0.664310  1
  C  C493  1  0.617700  0.587100  0.346150  1
  C  C494  1  0.382300  0.412900  0.653850  1
  C  C495  1  0.544600  0.610400  0.360430  1
  C  C496  1  0.455400  0.389600  0.639570  1
  C  C497  1  0.785000  0.712400  0.331130  1
  C  C498  1  0.215000  0.287600  0.668870  1
  C  C499  1  0.840700  0.756000  0.312080  1
  C  C500  1  0.159300  0.244000  0.687920  1
  C  C501  1  0.861900  0.847600  0.268650  1
  C  C502  1  0.138100  0.152400  0.731350  1
  C  C503  1  0.936600  0.838400  0.273100  1
  C  C504  1  0.063400  0.161600  0.726900  1
  C  C505  1  0.964700  0.787300  0.298400  1
  C  C506  1  0.035300  0.212700  0.701600  1
  C  C507  1  0.915000  0.745100  0.317000  1
  C  C508  1  0.085000  0.254900  0.683000  1
  C  C509  1  0.633300  0.520900  0.343310  1
  C  C510  1  0.366700  0.479100  0.656690  1
  C  C511  1  0.583400  0.489700  0.329210  1
  C  C512  1  0.416600  0.510300  0.670790  1
  C  C513  1  0.599000  0.428500  0.327710  1
  C  C514  1  0.401000  0.571500  0.672290  1
  C  C515  1  0.664200  0.396600  0.339290  1
  C  C516  1  0.335800  0.603400  0.660710  1
  C  C517  1  0.715200  0.427800  0.353050  1
  C  C518  1  0.284800  0.572200  0.646950  1
  C  C519  1  0.699000  0.489800  0.355060  1
  C  C520  1  0.301000  0.510200  0.644940  1
  C  C521  1  0.681100  0.330200  0.338800  1
  C  C522  1  0.318900  0.669800  0.661200  1
  C  C523  1  0.623400  0.291900  0.346950  1
  C  C524  1  0.376600  0.708100  0.653050  1
  C  C525  1  0.638700  0.230500  0.345670  1
  C  C526  1  0.361300  0.769500  0.654330  1
  C  C527  1  0.712200  0.205900  0.335610  1
  C  C528  1  0.287800  0.794100  0.664390  1
  C  C529  1  0.770900  0.242700  0.327750  1
  C  C530  1  0.229100  0.757300  0.672250  1
  C  C531  1  0.756600  0.304300  0.329580  1
  C  C532  1  0.243400  0.695700  0.670420  1
  C  C533  1  0.524000  0.194500  0.379170  1
  C  C534  1  0.476000  0.805500  0.620830  1
  C  C535  1  0.863500  0.179900  0.294150  1
  C  C536  1  0.136500  0.820100  0.705850  1
  C  C537  1  0.460900  0.158500  0.378800  1
  C  C538  1  0.539100  0.841500  0.621200  1
  C  C539  1  0.941100  0.157300  0.282870  1
  C  C540  1  0.058900  0.842700  0.717130  1
  C  C541  1  0.065500  0.164400  0.287700  1
  C  C542  1  0.934500  0.835600  0.712300  1
  C  C543  1  0.414300  0.095300  0.344300  1
  C  C544  1  0.585700  0.904700  0.655700  1
  C  C545  1  0.090000  0.122100  0.261200  1
  C  C546  1  0.910000  0.877900  0.738800  1
  C  C547  1  0.347700  0.093700  0.373500  1
  C  C548  1  0.652300  0.906300  0.626500  1
  C  C549  1  0.338800  0.124600  0.405700  1
  C  C550  1  0.661200  0.875400  0.594300  1
  C  C551  1  0.038400  0.096800  0.244800  1
  C  C552  1  0.961600  0.903200  0.755200  1
  C  C553  1  0.397500  0.158100  0.408400  1
  C  C554  1  0.602500  0.841900  0.591600  1
  C  C555  1  0.960800  0.114600  0.256700  1
  C  C556  1  0.039200  0.885400  0.743300  1
  C  C557  1  0.150800  0.573700  0.192010  1
  C  C558  1  0.849200  0.426300  0.807990  1
  C  C559  1  0.053500  0.589200  0.244760  1
  C  C560  1  0.946500  0.410800  0.755240  1
  C  C561  1  0.014400  0.546000  0.235200  1
  C  C562  1  0.985600  0.454000  0.764800  1
  C  C563  1  0.044200  0.516000  0.203200  1
  C  C564  1  0.955800  0.484000  0.796800  1
  C  C565  1  0.116900  0.530000  0.180100  1
  C  C566  1  0.883100  0.470000  0.819900  1
  C  C567  1  0.226100  0.589900  0.170690  1
  C  C568  1  0.773900  0.410100  0.829310  1
  C  C569  1  0.328600  0.646200  0.166030  1
  C  C570  1  0.671400  0.353800  0.833970  1
  C  C571  1  0.343000  0.707600  0.162800  1
  C  C572  1  0.657000  0.292400  0.837200  1
  C  C573  1  0.415300  0.722800  0.149790  1
  C  C574  1  0.584700  0.277200  0.850210  1
  C  C575  1  0.475200  0.677700  0.140500  1
  C  C576  1  0.524800  0.322300  0.859500  1
  C  C577  1  0.461200  0.617400  0.145030  1
  C  C578  1  0.538800  0.382600  0.854970  1
  C  C579  1  0.386900  0.602600  0.156950  1
  C  C580  1  0.613100  0.397400  0.843050  1
  C  C581  1  0.398900  0.820500  0.167010  1
  C  C582  1  0.601100  0.179500  0.832990  1
  C  C583  1  0.415100  0.882100  0.159260  1
  C  C584  1  0.584900  0.117900  0.840740  1
  C  C585  1  0.483700  0.955900  0.117500  1
  C  C586  1  0.516300  0.044100  0.882500  1
  C  C587  1  0.449100  0.000300  0.141000  1
  C  C588  1  0.550900  0.999700  0.859000  1
  C  C589  1  0.396500  0.984100  0.174600  1
  C  C590  1  0.603500  0.015900  0.825400  1
  C  C591  1  0.377800  0.924300  0.184300  1
  C  C592  1  0.622200  0.075700  0.815700  1
  C  C593  1  0.522300  0.569900  0.135560  1
  C  C594  1  0.477700  0.430100  0.864440  1
  C  C595  1  0.511100  0.524500  0.114800  1
  C  C596  1  0.488900  0.475500  0.885200  1
  C  C597  1  0.567800  0.480100  0.105530  1
  C  C598  1  0.432200  0.519900  0.894470  1
  C  C599  1  0.639600  0.479300  0.117350  1
  C  C600  1  0.360400  0.520700  0.882650  1
  C  C601  1  0.649400  0.524200  0.139060  1
  C  C602  1  0.350600  0.475800  0.860940  1
  C  C603  1  0.592100  0.568900  0.148090  1
  C  C604  1  0.407900  0.431100  0.851910  1
  C  C605  1  0.702300  0.433900  0.105930  1
  C  C606  1  0.297700  0.566100  0.894070  1
  C  C607  1  0.690200  0.374600  0.103560  1
  C  C608  1  0.309800  0.625400  0.896440  1
  C  C609  1  0.748500  0.333200  0.093210  1
  C  C610  1  0.251500  0.666800  0.906790  1
  C  C611  1  0.823000  0.349800  0.083520  1
  C  C612  1  0.177000  0.650200  0.916480  1
  C  C613  1  0.834800  0.408600  0.084790  1
  C  C614  1  0.165200  0.591400  0.915210  1
  C  C615  1  0.774500  0.451000  0.096490  1
  C  C616  1  0.225500  0.549000  0.903510  1
  C  C617  1  0.778900  0.226300  0.101600  1
  C  C618  1  0.221100  0.773700  0.898400  1
  C  C619  1  0.761700  0.168000  0.095600  1
  C  C620  1  0.238300  0.832000  0.904400  1
  C  C621  1  0.678300  0.112900  0.076700  1
  C  C622  1  0.321700  0.887100  0.923300  1
  C  C623  1  0.722900  0.061000  0.082300  1
  C  C624  1  0.277100  0.939000  0.917700  1
  C  C625  1  0.793600  0.062100  0.094900  1
  C  C626  1  0.206400  0.937900  0.905100  1
  C  C627  1  0.813900  0.116300  0.100900  1
  C  C628  1  0.186100  0.883700  0.899100  1
  C  C629  1  0.926200  0.478400  0.059470  1
  C  C630  1  0.073800  0.521600  0.940530  1
  C  C631  1  0.003900  0.493100  0.055830  1
  C  C632  1  0.996100  0.506900  0.944170  1
  C  C633  1  0.123900  0.459300  0.070470  1
  C  C634  1  0.876100  0.540700  0.929530  1
  C  C635  1  0.148600  0.515000  0.052850  1
  C  C636  1  0.851400  0.485000  0.947150  1
  C  C637  1  0.100600  0.560600  0.036070  1
  C  C638  1  0.899400  0.439400  0.963930  1
  C  C639  1  0.024600  0.549300  0.037770  1
  C  C640  1  0.975400  0.450700  0.962230  1
  C  C641  1  0.618700  0.805900  0.029520  1
  C  C642  1  0.381300  0.194100  0.970480  1
  C  C643  1  0.506300  0.845200  0.004410  1
  C  C644  1  0.493700  0.154800  0.995590  1
  C  C645  1  0.539000  0.843500  0.963660  1
  C  C646  1  0.461000  0.156500  0.036340  1
  C  C647  1  0.614100  0.823000  0.955420  1
  C  C648  1  0.385900  0.177000  0.044580  1
  C  C649  1  0.654700  0.803200  0.989290  1
  C  C650  1  0.345300  0.196800  0.010710  1
  C  C651  1  0.655600  0.784400  0.065930  1
  C  C652  1  0.344400  0.215600  0.934070  1
  C  C653  1  0.648400  0.764600  0.139890  1
  C  C654  1  0.351600  0.235400  0.860110  1
  C  C655  1  0.628100  0.799200  0.172280  1
  C  C656  1  0.371900  0.200800  0.827720  1
  C  C657  1  0.651600  0.775700  0.210510  1
  C  C658  1  0.348400  0.224300  0.789490  1
  C  C659  1  0.693000  0.719300  0.217520  1
  C  C660  1  0.307000  0.280700  0.782480  1
  C  C661  1  0.712000  0.684900  0.185590  1
  C  C662  1  0.288000  0.315100  0.814410  1
  C  C663  1  0.689600  0.708100  0.146750  1
  C  C664  1  0.310400  0.291900  0.853250  1
  C  C665  1  0.572600  0.841600  0.249530  1
  C  C666  1  0.427400  0.158400  0.750470  1
  C  C667  1  0.556900  0.875100  0.285380  1
  C  C668  1  0.443100  0.124900  0.714620  1
  C  C669  1  0.602900  0.898000  0.340860  1
  C  C670  1  0.397100  0.102000  0.659140  1
  C  C671  1  0.536100  0.932600  0.352900  1
  C  C672  1  0.463900  0.067400  0.647100  1
  C  C673  1  0.478000  0.935000  0.330000  1
  C  C674  1  0.522000  0.065000  0.670000  1
  C  C675  1  0.488100  0.906900  0.294500  1
  C  C676  1  0.511900  0.093100  0.705500  1
  C  C677  1  0.753200  0.623800  0.193780  1
  C  C678  1  0.246800  0.376200  0.806220  1
  C  C679  1  0.810800  0.604800  0.163910  1
  C  C680  1  0.189200  0.395200  0.836090  1
  C  C681  1  0.849900  0.547000  0.171860  1
  C  C682  1  0.150100  0.453000  0.828140  1
  C  C683  1  0.833500  0.507600  0.209770  1
  C  C684  1  0.166500  0.492400  0.790230  1
  C  C685  1  0.775300  0.526100  0.238820  1
  C  C686  1  0.224700  0.473900  0.761180  1
  C  C687  1  0.737200  0.582900  0.231400  1
  C  C688  1  0.262800  0.417100  0.768600  1
  C  C689  1  0.877100  0.447100  0.217990  1
  C  C690  1  0.122900  0.552900  0.782010  1
  C  C691  1  0.905000  0.414700  0.185370  1
  C  C692  1  0.095000  0.585300  0.814630  1
  C  C693  1  0.947300  0.358300  0.192580  1
  C  C694  1  0.052700  0.641700  0.807420  1
  C  C695  1  0.963300  0.334600  0.231550  1
  C  C696  1  0.036700  0.665400  0.768450  1
  C  C697  1  0.938600  0.366100  0.265060  1
  C  C698  1  0.061400  0.633900  0.734940  1
  C  C699  1  0.893600  0.422400  0.258600  1
  C  C700  1  0.106400  0.577600  0.741400  1
  C  C701  1  0.976900  0.272200  0.161280  1
  C  C702  1  0.023100  0.727800  0.838720  1
  C  C703  1  0.005800  0.244100  0.124950  1
  C  C704  1  0.994200  0.755900  0.875050  1
  C  C705  1  0.056500  0.257600  0.055290  1
  C  C706  1  0.943500  0.742400  0.944710  1
  C  C707  1  0.064600  0.195100  0.056200  1
  C  C708  1  0.935400  0.804900  0.943800  1
  C  C709  1  0.042200  0.157100  0.091500  1
  C  C710  1  0.957800  0.842900  0.908500  1
  C  C711  1  0.012500  0.180200  0.127300  1
  C  C712  1  0.987500  0.819800  0.872700  1
  C  C713  1  0.974300  0.365300  0.330620  1
  C  C714  1  0.025700  0.634700  0.669380  1
  C  C715  1  0.985500  0.332100  0.372640  1
  C  C716  1  0.014500  0.667900  0.627360  1
  C  C717  1  0.975300  0.242300  0.419200  1
  C  C718  1  0.024700  0.757700  0.580800  1
  C  C719  1  0.000500  0.266600  0.449700  1
  C  C720  1  0.999500  0.733400  0.550300  1
  C  C721  1  0.016600  0.326500  0.440600  1
  C  C722  1  0.983400  0.673500  0.559400  1
  C  C723  1  0.009600  0.359800  0.400980  1
  C  C724  1  0.990400  0.640200  0.599020  1
  C  C725  1  0.463100  0.703000  0.257500  1
  C  C726  1  0.536900  0.297000  0.742500  1
  C  C727  1  0.500000  0.650500  0.251600  1
  C  C728  1  0.500000  0.349500  0.748400  1
  C  C729  1  0.755200  0.294800  0.210000  1
  C  C730  1  0.244800  0.705200  0.790000  1
  C  C731  1  0.710100  0.351500  0.218600  1
  C  C732  1  0.289900  0.648500  0.781400  1
  C  C733  1  0.170600  0.257100  0.161800  1
  C  C734  1  0.829400  0.742900  0.838200  1
  C  C735  1  0.215200  0.266600  0.118300  1
  C  C736  1  0.784800  0.733400  0.881700  1
  C  C737  1  0.388400  0.173700  0.179300  1
  C  C738  1  0.611600  0.826300  0.820700  1
  C  C739  1  0.358900  0.192200  0.217500  1
  C  C740  1  0.641100  0.807800  0.782500  1
  C  C741  1  0.199000  0.615200  0.542300  1
  C  C742  1  0.801000  0.384800  0.457700  1
  C  C743  1  0.179100  0.591000  0.506900  1
  C  C744  1  0.820900  0.409000  0.493100  1
  C  C745  1  0.244400  0.701300  0.557300  1
  C  C746  1  0.755600  0.298700  0.442700  1
  C  C747  1  0.274100  0.758400  0.540500  1
  C  C748  1  0.725900  0.241600  0.459500  1
  C  C749  1  0.240200  0.662600  0.059800  1
  C  C750  1  0.759800  0.337400  0.940200  1
  C  C751  1  0.266500  0.641800  0.019400  1
  C  C752  1  0.733500  0.358200  0.980600  1
  C  C753  1  0.343400  0.565400  0.996400  1
  C  C754  1  0.656600  0.434600  0.003600  1
  C  C755  1  0.395600  0.509100  0.012400  1
  C  C756  1  0.604400  0.490900  0.987600  1
  C  C757  1  0.185100  0.402400  0.273300  1
  C  C758  1  0.814900  0.597600  0.726700  1
  C  C759  1  0.171600  0.304800  0.281400  1
  C  C760  1  0.828400  0.695200  0.718600  1
  C  C761  1  0.179200  0.454900  0.297800  1
  C  C762  1  0.820800  0.545100  0.702200  1
  C  C763  1  0.233300  0.256700  0.297900  1
  C  C764  1  0.766700  0.743300  0.702100  1
  C  C765  1  0.224500  0.066800  0.123900  1
  C  C766  1  0.775500  0.933200  0.876100  1
  C  C767  1  0.207100  0.010500  0.143500  1
  C  C768  1  0.792900  0.989500  0.856500  1
  C  C769  1  0.100300  0.661600  0.360600  1
  C  C770  1  0.899700  0.338400  0.639400  1
  C  C771  1  0.100700  0.593300  0.397300  1
  C  C772  1  0.899300  0.406700  0.602700  1
  C  C773  1  0.617300  0.997300  0.005400  1
  C  C774  1  0.382700  0.002700  0.994600  1
  C  C775  1  0.633300  0.978500  0.966800  1
  C  C776  1  0.366700  0.021500  0.033200  1
  C  C777  1  0.492600  0.809800  0.449900  1
  C  C778  1  0.507400  0.190200  0.550100  1
  C  C779  1  0.455000  0.820300  0.488300  1
  C  C780  1  0.545000  0.179700  0.511700  1
  C  C781  1  0.896900  0.213000  0.009400  1
  C  C782  1  0.103100  0.787000  0.990600  1
  C  C783  1  0.909900  0.147700  0.004900  1
  C  C784  1  0.090100  0.852300  0.995100  1
  N  N785  1  0.393200  0.588200  0.476200  1
  N  N786  1  0.606800  0.411800  0.523800  1
  N  N787  1  0.351300  0.572450  0.405880  1
  N  N788  1  0.648700  0.427550  0.594120  1
  N  N789  1  0.248000  0.667400  0.278620  1
  N  N790  1  0.752000  0.332600  0.721380  1
  N  N791  1  0.170500  0.755020  0.231770  1
  N  N792  1  0.829500  0.244980  0.768230  1
  N  N793  1  0.606200  0.166690  0.250940  1
  N  N794  1  0.393800  0.833310  0.749060  1
  N  N795  1  0.662700  0.072470  0.302220  1
  N  N796  1  0.337300  0.927530  0.697780  1
  N  N797  1  0.542400  0.276130  0.116540  1
  N  N798  1  0.457600  0.723870  0.883460  1
  N  N799  1  0.567600  0.281500  0.035350  1
  N  N800  1  0.432400  0.718500  0.964650  1
  N  N801  1  0.315900  0.728000  0.412950  1
  N  N802  1  0.684100  0.272000  0.587050  1
  N  N803  1  0.454500  0.693080  0.379240  1
  N  N804  1  0.545500  0.306920  0.620760  1
  N  N805  1  0.716000  0.727080  0.325220  1
  N  N806  1  0.284000  0.272920  0.674780  1
  N  N807  1  0.813200  0.807510  0.287370  1
  N  N808  1  0.186800  0.192490  0.712630  1
  N  N809  1  0.579900  0.191730  0.351100  1
  N  N810  1  0.420100  0.808270  0.648900  1
  N  N811  1  0.470300  0.126600  0.346880  1
  N  N812  1  0.529700  0.873400  0.653120  1
  N  N813  1  0.847100  0.219480  0.317320  1
  N  N814  1  0.152900  0.780520  0.682680  1
  N  N815  1  0.992000  0.182300  0.298320  1
  N  N816  1  0.008000  0.817700  0.701680  1
  N  N817  1  0.120900  0.604600  0.223480  1
  N  N818  1  0.879100  0.395400  0.776520  1
  N  N819  1  0.254200  0.632190  0.182950  1
  N  N820  1  0.745800  0.367810  0.817050  1
  N  N821  1  0.433000  0.784620  0.143300  1
  N  N822  1  0.567000  0.215380  0.856700  1
  N  N823  1  0.468100  0.898100  0.126220  1
  N  N824  1  0.531900  0.101900  0.873780  1
  N  N825  1  0.731900  0.272900  0.090810  1
  N  N826  1  0.268100  0.727100  0.909190  1
  N  N827  1  0.694900  0.165700  0.083760  1
  N  N828  1  0.305100  0.834300  0.916240  1
  N  N829  1  0.911300  0.424000  0.076110  1
  N  N830  1  0.088700  0.576000  0.923890  1
  N  N831  1  0.052600  0.447440  0.072220  1
  N  N832  1  0.947400  0.552560  0.927780  1
  N  N833  1  0.618200  0.788510  0.101890  1
  N  N834  1  0.381800  0.211490  0.898110  1
  N  N835  1  0.546100  0.826960  0.037530  1
  N  N836  1  0.453900  0.173040  0.962470  1
  N  N837  1  0.635500  0.808850  0.244190  1
  N  N838  1  0.364500  0.191150  0.755810  1
  N  N839  1  0.614700  0.869710  0.307430  1
  N  N840  1  0.385300  0.130290  0.692570  1
  N  N841  1  0.973500  0.330300  0.157310  1
  N  N842  1  0.026500  0.669700  0.842690  1
  N  N843  1  0.026400  0.282000  0.089600  1
  N  N844  1  0.973600  0.718000  0.910400  1
  N  N845  1  0.954000  0.336960  0.305530  1
  N  N846  1  0.046000  0.663040  0.694470  1
  N  N847  1  0.969400  0.274900  0.380590  1
  N  N848  1  0.030600  0.725100  0.619410  1
  N  N849  1  0.431700  0.751000  0.263030  1
  N  N850  1  0.568300  0.249000  0.736970  1
  N  N851  1  0.790400  0.249200  0.204800  1
  N  N852  1  0.209600  0.750800  0.795200  1
  N  N853  1  0.138400  0.250100  0.193800  1
  N  N854  1  0.861600  0.749900  0.806200  1
  N  N855  1  0.417900  0.160400  0.149200  1
  N  N856  1  0.582100  0.839600  0.850800  1
  N  N857  1  0.237100  0.112000  0.107300  1
  N  N858  1  0.762900  0.888000  0.892700  1
  N  N859  1  0.105500  0.709700  0.357200  1
  N  N860  1  0.894500  0.290300  0.642800  1
  N  N861  1  0.588400  0.020500  0.032500  1
  N  N862  1  0.411600  0.979500  0.967500  1
  N  N863  1  0.505800  0.806100  0.422100  1
  N  N864  1  0.494200  0.193900  0.577900  1
  N  N865  1  0.898200  0.258400  0.011200  1
  N  N866  1  0.101800  0.741600  0.988800  1
  O  O867  1  0.221700  0.672000  0.527400  1
  O  O868  1  0.778300  0.328000  0.472600  1
  O  O869  1  0.315600  0.591100  0.034900  1
  O  O870  1  0.684400  0.408900  0.965100  1
  O  O871  1  0.169800  0.350900  0.308200  1
  O  O872  1  0.830200  0.649100  0.691800  1
  O  O873  1  0.773300  0.839300  0.390800  1
  O  O874  1  0.226700  0.160700  0.609200  1
  O  O875  1  0.100900  0.071700  0.396400  1
  O  O876  1  0.899100  0.928300  0.603600  1
  O  O877  1  0.863800  0.078400  0.400300  1
  O  O878  1  0.136200  0.921600  0.599700  1
  O  O879  1  0.932400  0.007000  0.370400  1
  O  O880  1  0.067600  0.993000  0.629600  1
  O  O881  1  0.989500  0.945200  0.343100  1
  O  O882  1  0.010500  0.054800  0.656900  1
  O  O883  1  0.169800  0.399800  0.300600  1
  O  O884  1  0.830200  0.600200  0.699400  1
  O  O885  1  0.962900  0.716100  0.151700  1
  O  O886  1  0.037100  0.283900  0.848300  1
  O  O887  1  0.914500  0.720400  0.208400  1
  O  O888  1  0.085500  0.279600  0.791600  1
  O  O889  1  0.684700  0.956900  0.188400  1
  O  O890  1  0.315300  0.043100  0.811600  1
  O  O891  1  0.597100  0.012700  0.204500  1
  O  O892  1  0.402900  0.987300  0.795500  1
  O  O893  1  0.729000  0.800700  0.414300  1
  O  O894  1  0.271000  0.199300  0.585700  1
  O  O895  1  0.130400  0.128000  0.392200  1
  O  O896  1  0.869600  0.872000  0.607800  1
  O  O897  1  0.042000  0.237300  0.568300  1
  O  O898  1  0.958000  0.762700  0.431700  1
  F  F899  1  0.304200  0.391400  0.097960  1
  F  F900  1  0.695800  0.608600  0.902040  1
  F  F901  1  0.305800  0.450000  0.178470  1
  F  F902  1  0.694200  0.550000  0.821530  1
  F  F903  1  0.392600  0.428770  0.123280  1
  F  F904  1  0.607400  0.571230  0.876720  1
  F  F905  1  0.329500  0.354050  0.164270  1
  F  F906  1  0.670500  0.645950  0.835730  1
  F  F907  1  0.219600  0.409100  0.153510  1
  F  F908  1  0.780400  0.590900  0.846490  1
  F  F909  1  0.283000  0.484640  0.112700  1
  F  F910  1  0.717000  0.515360  0.887300  1
  F  F911  1  0.314400  0.793600  0.079560  1
  F  F912  1  0.685600  0.206400  0.920440  1
  F  F913  1  0.216200  0.915200  0.073700  1
  F  F914  1  0.783800  0.084800  0.926300  1
  F  F915  1  0.185800  0.829000  0.089800  1
  F  F916  1  0.814200  0.171000  0.910200  1
  F  F917  1  0.263400  0.854800  0.030400  1
  F  F918  1  0.736600  0.145200  0.969600  1
  F  F919  1  0.265600  0.850400  0.125420  1
  F  F920  1  0.734400  0.149600  0.874580  1
  F  F921  1  0.339700  0.882400  0.070400  1
  F  F922  1  0.660300  0.117600  0.929600  1
  F  F923  1  0.302700  0.933800  0.280790  1
  F  F924  1  0.697300  0.066200  0.719210  1
  F  F925  1  0.247400  0.018010  0.245200  1
  F  F926  1  0.752600  0.981990  0.754800  1
  F  F927  1  0.190500  0.976000  0.307160  1
  F  F928  1  0.809500  0.024000  0.692840  1
  F  F929  1  0.238800  0.065770  0.299530  1
  F  F930  1  0.761200  0.934230  0.700470  1
  F  F931  1  0.293000  0.980030  0.336570  1
  F  F932  1  0.707000  0.019970  0.663430  1
  F  F933  1  0.350700  0.022850  0.274090  1
  F  F934  1  0.649300  0.977150  0.725910  1
  F  F935  1  0.503400  0.305400  0.438270  1
  F  F936  1  0.496600  0.694600  0.561730  1
  F  F937  1  0.342800  0.372800  0.428100  1
  F  F938  1  0.657200  0.627200  0.571900  1
  F  F939  1  0.420500  0.357100  0.477240  1
  F  F940  1  0.579500  0.642900  0.522760  1
  F  F941  1  0.385800  0.278000  0.456630  1
  F  F942  1  0.614200  0.722000  0.543370  1
  F  F943  1  0.456800  0.397800  0.410350  1
  F  F944  1  0.543200  0.602200  0.589650  1
  F  F945  1  0.424600  0.316300  0.390260  1
  F  F946  1  0.575400  0.683700  0.609740  1
  F  F947  1  0.984490  0.513060  0.335600  1
  F  F948  1  0.015510  0.486940  0.664400  1
  F  F949  1  0.830000  0.563020  0.386200  1
  F  F950  1  0.170000  0.436980  0.613800  1
  F  F951  1  0.875600  0.475580  0.363560  1
  F  F952  1  0.124400  0.524420  0.636440  1
  F  F953  1  0.874200  0.565400  0.319140  1
  F  F954  1  0.125800  0.434600  0.680860  1
  F  F955  1  0.940100  0.512300  0.403420  1
  F  F956  1  0.059900  0.487700  0.596580  1
  F  F957  1  0.938400  0.602070  0.358400  1
  F  F958  1  0.061600  0.397930  0.641600  1
  F  F959  1  0.986800  0.926800  0.165700  1
  F  F960  1  0.013200  0.073200  0.834300  1
  F  F961  1  0.922900  0.060070  0.178590  1
  F  F962  1  0.077100  0.939930  0.821410  1
  F  F963  1  0.876000  0.970300  0.184500  1
  F  F964  1  0.124000  0.029700  0.815500  1
  F  F965  1  0.945200  0.012000  0.122090  1
  F  F966  1  0.054800  0.988000  0.877910  1
  F  F967  1  0.970100  0.977200  0.219180  1
  F  F968  1  0.029900  0.022800  0.780820  1
  F  F969  1  0.036300  0.013900  0.158700  1
  F  F970  1  0.963700  0.986100  0.841300  1
  F  F971  1  0.182200  0.392740  0.932370  1
  F  F972  1  0.817800  0.607260  0.067630  1
  F  F973  1  0.251500  0.337800  0.015700  1
  F  F974  1  0.748500  0.662200  0.984300  1
  F  F975  1  0.194400  0.298930  0.972870  1
  F  F976  1  0.805600  0.701070  0.027130  1
  F  F977  1  0.136800  0.380060  0.000870  1
  F  F978  1  0.863200  0.619940  0.999130  1
  F  F979  1  0.239100  0.429210  0.976200  1
  F  F980  1  0.760900  0.570790  0.023800  1
  F  F981  1  0.296100  0.348530  0.947120  1
  F  F982  1  0.703900  0.651470  0.052880  1
  F  F983  1  0.995100  0.958400  0.463500  1
  F  F984  1  0.004900  0.041600  0.536500  1
  F  F985  1  0.101500  0.857000  0.498300  1
  F  F986  1  0.898500  0.143000  0.501700  1
  F  F987  1  0.072800  0.961400  0.493500  1
  F  F988  1  0.927200  0.038600  0.506500  1
  F  F989  1  0.025900  0.853100  0.469200  1
  F  F990  1  0.974100  0.146900  0.530800  1
  F  F991  1  0.101700  0.918500  0.441000  1
  F  F992  1  0.898300  0.081500  0.559000  1
  F  F993  1  0.995700  0.897600  0.520100  1
  F  F994  1  0.004300  0.102400  0.479900  1
  F  F995  1  0.646200  0.957900  0.420800  1
  F  F996  1  0.353800  0.042100  0.579200  1
  F  F997  1  0.531000  0.010200  0.428600  1
  F  F998  1  0.469000  0.989800  0.571400  1
  F  F999  1  0.634900  0.058000  0.424400  1
  F  F1000  1  0.365100  0.942000  0.575600  1
  F  F1001  1  0.568400  0.939400  0.482000  1
  F  F1002  1  0.431600  0.060600  0.518000  1
  F  F1003  1  0.673500  0.986800  0.477700  1
  F  F1004  1  0.326500  0.013200  0.522300  1
  F  F1005  1  0.557800  0.039900  0.485500  1
  F  F1006  1  0.442200  0.960100  0.514500  1
