
#######################################################################
#
#                 Cambridge Crystallographic Data Centre
#                                CCDC 
#
#######################################################################
#
# If this CIF has been generated from an entry in the Cambridge 
# Structural Database, then it will include bibliographic, chemical, 
# crystal, experimental, refinement or atomic coordinate data resulting 
# from the CCDC's data processing and validation procedures.
#
#######################################################################

data_KOVZUS
_chemical_formula_moiety         
'C168 H120 Cu8 N32 8+,2.25(C4 H10 O1),7.5(C2 H3 N1),6(H2 O1),8(F6 P1 1-)'
_chemical_name_systematic        
"tetrakis(\m~4~-N,N',N'',N'''-1,1':4',1''-terphenyl-3,3'',5,5''-tetrayltetrakis(1-(pyridin-2-yl)methanimine))-octa-copper octakis(hexafluorophosphate) acetonitrile diethyl ether solvate hexahydrate"
_symmetry_cell_setting           triclinic
_symmetry_space_group_name_H-M   'P -1'
_symmetry_Int_Tables_number      2
_space_group_name_Hall           '-P 1'
loop_
_symmetry_equiv_pos_site_id
_symmetry_equiv_pos_as_xyz
1 x,y,z
2 -x,-y,-z
_cell_length_a                   18.067(4)
_cell_length_b                   22.497(5)
_cell_length_c                   32.866(7)
_cell_angle_alpha                78.64(3)
_cell_angle_beta                 80.51(3)
_cell_angle_gamma                82.79(3)
_cell_volume                     12857.6
_exptl_crystal_colour            black
_exptl_crystal_description       plate
_cell_formula_units_Z            2
loop_
_atom_site_label
_atom_site_type_symbol
_atom_site_fract_x
_atom_site_fract_y
_atom_site_fract_z
C1 C 0.3768(3) 0.5317(3) 0.47434(15)
C2 C 0.4148(3) 0.5961(3) 0.51158(17)
H1 H 0.4272 0.6353 0.5132
C3 C 0.4199(4) 0.5499(4) 0.54590(18)
H2 H 0.4354 0.5573 0.5705
C4 C 0.4026(4) 0.4941(3) 0.54387(19)
H3 H 0.4047 0.4619 0.5673
C5 C 0.3817(4) 0.4843(3) 0.50755(17)
H4 H 0.3708 0.4449 0.5054
C6 C 0.3551(3) 0.5255(2) 0.43449(15)
H5 H 0.3441 0.4872 0.4301
C7 C 0.3393(3) 0.5688(2) 0.36508(14)
C8 C 0.2997(3) 0.6184(2) 0.34325(15)
H6 H 0.2791 0.6521 0.3563
C9 C 0.2904(3) 0.6183(2) 0.30211(15)
C10 C 0.3213(3) 0.5692(2) 0.28309(15)
H7 H 0.3141 0.5695 0.2551
C11 C 0.3626(3) 0.5194(2) 0.30410(14)
C12 C 0.3696(3) 0.5195(2) 0.34630(15)
H8 H 0.3953 0.4854 0.3619
C13 C 0.2470(3) 0.7219(2) 0.28526(16)
H9 H 0.2730 0.7298 0.3062
C14 C 0.2050(3) 0.7717(2) 0.25993(16)
C15 C 0.1324(3) 0.7999(3) 0.20724(19)
H10 H 0.1069 0.7894 0.1870
C16 C 0.1291(4) 0.8617(3) 0.2105(2)
H11 H 0.1032 0.8924 0.1923
C17 C 0.1621(4) 0.8757(3) 0.2390(2)
H12 H 0.1587 0.9170 0.2423
C18 C 0.2034(4) 0.8302(3) 0.26536(19)
H13 H 0.2287 0.8404 0.2859
C19 C 0.3984(3) 0.4682(2) 0.28353(15)
C20 C 0.4366(3) 0.4776(2) 0.24294(15)
H14 H 0.4393 0.5181 0.2280
C21 C 0.4707(3) 0.4298(2) 0.22356(16)
H15 H 0.4973 0.4378 0.1959
C22 C 0.4662(3) 0.3705(2) 0.24445(15)
C23 C 0.4292(3) 0.3602(2) 0.28568(15)
H16 H 0.4267 0.3197 0.3009
C24 C 0.3965(3) 0.4084(2) 0.30418(16)
H17 H 0.3717 0.4005 0.3322
C25 C 0.5037(3) 0.3183(2) 0.22304(16)
C26 C 0.5047(3) 0.3218(2) 0.18090(15)
H18 H 0.4818 0.3572 0.1650
C27 C 0.5388(3) 0.2744(2) 0.16114(16)
C28 C 0.5732(3) 0.2226(2) 0.18369(17)
H19 H 0.5973 0.1904 0.1700
C29 C 0.5720(3) 0.2185(2) 0.22615(15)
C30 C 0.5358(3) 0.2655(2) 0.24588(15)
H20 H 0.5329 0.2615 0.2754
C31 C 0.6673(3) 0.1398(3) 0.23638(19)
H21 H 0.6907 0.1531 0.2085
C32 C 0.7015(3) 0.0875(2) 0.26355(19)
C33 C 0.6930(4) 0.0258(3) 0.3289(2)
H22 H 0.6658 0.0147 0.3561
C34 C 0.7609(4) -0.0063(3) 0.3186(3)
H23 H 0.7812 -0.0380 0.3386
C35 C 0.7998(4) 0.0091(3) 0.2778(3)
H24 H 0.8466 -0.0127 0.2694
C36 C 0.7692(4) 0.0559(3) 0.2505(2)
H25 H 0.7942 0.0667 0.2227
C37 C 0.4882(3) 0.3021(2) 0.09709(16)
H26 H 0.4425 0.3186 0.1113
C38 C 0.5000(4) 0.3052(3) 0.05181(17)
C39 C 0.5801(4) 0.2810(3) -0.00602(19)
H27 H 0.6267 0.2626 -0.0181
C40 C 0.5253(5) 0.3072(4) -0.0318(2)
H28 H 0.5362 0.3080 -0.0611
C41 C 0.4571(4) 0.3313(3) -0.0150(2)
H29 H 0.4193 0.3479 -0.0321
C42 C 0.4445(4) 0.3307(3) 0.0273(2)
H30 H 0.3977 0.3479 0.0399
C43 C 0.3514(3) 0.7687(2) 0.38195(16)
C44 C 0.2463(4) 0.7456(3) 0.4303(2)
H31 H 0.2224 0.7187 0.4533
C45 C 0.2074(4) 0.8007(3) 0.4164(2)
H32 H 0.1572 0.8106 0.4289
C46 C 0.2431(4) 0.8417(3) 0.3838(2)
H33 H 0.2187 0.8806 0.3742
C47 C 0.3160(4) 0.8234(3) 0.3659(2)
H34 H 0.3409 0.8491 0.3425
C48 C 0.4270(3) 0.7469(3) 0.36509(16)
H35 H 0.4560 0.7726 0.3435
C49 C 0.5284(3) 0.6723(2) 0.36378(15)
C50 C 0.5886(3) 0.7102(2) 0.35251(15)
H36 H 0.5794 0.7522 0.3544
C51 C 0.6612(3) 0.6857(2) 0.33868(14)
C52 C 0.6746(3) 0.6246(2) 0.33569(14)
H37 H 0.7242 0.6085 0.3262
C53 C 0.6177(3) 0.5871(2) 0.34615(14)
C54 C 0.5446(3) 0.6104(2) 0.36043(14)
H38 H 0.5053 0.5841 0.3680
C55 C 0.7850(3) 0.7124(2) 0.33113(16)
H39 H 0.7998 0.6742 0.3474
C56 C 0.8407(3) 0.7560(2) 0.31208(17)
C57 C 0.8619(3) 0.8476(2) 0.26865(18)
H40 H 0.8441 0.8840 0.2515
C58 C 0.9366(4) 0.8384(3) 0.2731(2)
H41 H 0.9696 0.8678 0.2586
C59 C 0.9647(4) 0.7873(3) 0.2984(2)
H42 H 1.0159 0.7814 0.3028
C60 C 0.9150(3) 0.7451(3) 0.3170(2)
H43 H 0.9325 0.7079 0.3335
C61 C 0.6333(3) 0.5209(2) 0.34331(14)
C62 C 0.5834(3) 0.4897(2) 0.32921(15)
H44 H 0.5381 0.5109 0.3205
C63 C 0.5990(3) 0.4285(2) 0.32771(16)
H45 H 0.5638 0.4081 0.3184
C64 C 0.6642(3) 0.3966(2) 0.33929(14)
C65 C 0.7152(3) 0.4278(2) 0.35305(15)
H46 H 0.7610 0.4068 0.3611
C66 C 0.6990(3) 0.4898(2) 0.35506(15)
H47 H 0.7337 0.5104 0.3646
C67 C 0.6811(3) 0.3302(2) 0.33880(15)
C68 C 0.6234(3) 0.2919(2) 0.34695(15)
H48 H 0.5728 0.3083 0.3535
C69 C 0.6387(3) 0.2305(2) 0.34567(15)
C70 C 0.7122(3) 0.2059(2) 0.33561(16)
H49 H 0.7224 0.1638 0.3341
C71 C 0.7709(3) 0.2427(2) 0.32775(16)
C72 C 0.7566(3) 0.3043(2) 0.32958(15)
H50 H 0.7971 0.3291 0.3247
C73 C 0.5240(3) 0.1945(2) 0.37917(19)
H51 H 0.5223 0.2189 0.3999
C74 C 0.8635(3) 0.1799(2) 0.29415(18)
H52 H 0.8245 0.1648 0.2840
C75 C 0.4609(4) 0.1585(3) 0.3788(2)
C76 C 0.9411(3) 0.1573(2) 0.28287(19)
C77 C 1.0655(4) 0.1644(3) 0.2877(2)
H53 H 1.1021 0.1813 0.2985
C78 C 0.4143(4) 0.0953(3) 0.3443(2)
H54 H 0.4193 0.0732 0.3221
C79 C 1.0900(5) 0.1221(4) 0.2612(2)
H55 H 1.1424 0.1106 0.2546
C80 C 0.3477(5) 0.0937(4) 0.3735(3)
H56 H 0.3088 0.0708 0.3705
C81 C 0.3388(5) 0.1246(4) 0.4057(3)
H57 H 0.2944 0.1235 0.4258
C82 C 1.0384(4) 0.0968(3) 0.2448(3)
H58 H 1.0541 0.0687 0.2262
C83 C 0.3975(4) 0.1581(4) 0.4084(3)
H59 H 0.3935 0.1804 0.4305
C84 C 0.9608(4) 0.1146(3) 0.2567(2)
H60 H 0.9231 0.0976 0.2469
C85 C 0.1508(3) 0.5737(3) 0.19201(17)
C86 C 0.0535(3) 0.5892(3) 0.24476(19)
H61 H 0.0318 0.6091 0.2675
C87 C 0.0144(3) 0.5460(3) 0.2352(2)
H62 H -0.0332 0.5372 0.2509
C88 C 0.0442(3) 0.5160(3) 0.2032(2)
H63 H 0.0176 0.4865 0.1963
C89 C 0.1169(3) 0.5300(3) 0.1801(2)
H64 H 0.1401 0.5098 0.1577
C90 C 0.2261(3) 0.5899(3) 0.17069(17)
H65 H 0.2526 0.5701 0.1489
C91 C 0.3286(3) 0.6462(2) 0.16603(14)
C92 C 0.3430(3) 0.7076(2) 0.16280(15)
H66 H 0.3033 0.7376 0.1695
C93 C 0.4153(3) 0.7228(2) 0.14979(14)
C94 C 0.4752(3) 0.6777(2) 0.14050(14)
H67 H 0.5249 0.6890 0.1312
C95 C 0.4612(3) 0.6174(2) 0.14503(14)
C96 C 0.3869(3) 0.6026(2) 0.15695(14)
H68 H 0.3762 0.5617 0.1588
C97 C 0.3989(3) 0.8205(2) 0.16701(16)
H69 H 0.3624 0.8061 0.1900
C98 C 0.4151(3) 0.8821(2) 0.15926(17)
C99 C 0.4837(4) 0.9559(3) 0.1175(2)
H70 H 0.5204 0.9678 0.0940
C100 C 0.4491(5) 1.0003(3) 0.1410(3)
H71 H 0.4623 1.0410 0.1334
C101 C 0.3965(5) 0.9841(4) 0.1746(3)
H72 H 0.3728 1.0131 0.1913
C102 C 0.3778(4) 0.9243(3) 0.1843(2)
H73 H 0.3405 0.9120 0.2074
C103 C 0.5223(3) 0.5699(2) 0.13556(15)
C104 C 0.5111(3) 0.5245(2) 0.11480(15)
H74 H 0.4631 0.5240 0.1067
C105 C 0.5678(3) 0.4801(2) 0.10553(15)
H75 H 0.5584 0.4497 0.0911
C106 C 0.6396(3) 0.4793(2) 0.11735(15)
C107 C 0.6494(3) 0.5242(2) 0.13906(16)
H76 H 0.6967 0.5244 0.1480
C108 C 0.5921(3) 0.5689(2) 0.14809(16)
H77 H 0.6008 0.5990 0.1629
C109 C 0.7023(3) 0.4339(2) 0.10593(15)
C110 C 0.6902(3) 0.3746(2) 0.10356(15)
H78 H 0.6402 0.3630 0.1093
C111 C 0.7485(3) 0.3332(2) 0.09321(16)
C112 C 0.8230(3) 0.3498(2) 0.08352(15)
H79 H 0.8639 0.3212 0.0763
C113 C 0.8348(3) 0.4086(2) 0.08479(15)
C114 C 0.7745(3) 0.4510(2) 0.09649(15)
H80 H 0.7837 0.4912 0.0978
C115 C 0.7789(4) 0.2263(3) 0.1016(2)
H81 H 0.8227 0.2304 0.1129
C116 C 0.7617(4) 0.1680(3) 0.0956(3)
C117 C 0.6783(5) 0.1129(3) 0.0767(3)
H82 H 0.6316 0.1122 0.0671
C118 C 0.7229(7) 0.0610(4) 0.0823(4)
H83 H 0.7075 0.0242 0.0779
C119 C 0.7936(8) 0.0621(4) 0.0949(5)
H84 H 0.8267 0.0259 0.0992
C120 C 0.8139(5) 0.1163(4) 0.1009(4)
H85 H 0.8618 0.1187 0.1084
C121 C 0.9262(3) 0.4784(2) 0.05947(15)
H86 H 0.8880 0.5083 0.0498
C122 C 1.0039(3) 0.4931(2) 0.05583(15)
C123 C 1.1239(3) 0.4593(3) 0.07047(17)
H87 H 1.1588 0.4277 0.0819
C124 C 1.1486(3) 0.5150(3) 0.05285(18)
H88 H 1.1997 0.5216 0.0524
C125 C 1.1006(4) 0.5606(3) 0.03607(19)
H89 H 1.1173 0.5993 0.0234
C126 C 1.0246(3) 0.5493(2) 0.03777(16)
H90 H 0.9890 0.5804 0.0265
C127 C 0.6187(3) 0.8059(2) 0.02952(16)
C128 C 0.5063(4) 0.8452(3) 0.00441(18)
H91 H 0.4545 0.8595 0.0097
C129 C 0.5390(4) 0.8435(3) -0.03634(19)
H92 H 0.5099 0.8564 -0.0586
C130 C 0.6141(4) 0.8230(3) -0.04458(18)
H93 H 0.6378 0.8223 -0.0725
C131 C 0.6547(4) 0.8032(3) -0.01071(17)
H94 H 0.7064 0.7881 -0.0154
C132 C 0.6556(3) 0.7844(2) 0.06593(16)
H95 H 0.7067 0.7674 0.0633
C133 C 0.6484(3) 0.7646(2) 0.13989(15)
C134 C 0.6281(3) 0.7992(2) 0.17228(16)
H96 H 0.5991 0.8376 0.1678
C135 C 0.6516(3) 0.7757(2) 0.21051(15)
C136 C 0.6930(3) 0.7193(2) 0.21752(16)
H97 H 0.7086 0.7040 0.2442
C137 C 0.7120(3) 0.6849(2) 0.18559(15)
C138 C 0.6896(3) 0.7081(2) 0.14675(15)
H98 H 0.7024 0.6853 0.1247
C139 C 0.5726(3) 0.8416(2) 0.24953(17)
H99 H 0.5366 0.8445 0.2310
C140 C 0.5569(3) 0.8751(2) 0.28538(16)
C141 C 0.6029(3) 0.8980(3) 0.34086(18)
H100 H 0.6425 0.8941 0.3572
C142 C 0.5361(4) 0.9326(3) 0.3529(2)
H101 H 0.5309 0.9536 0.3758
C143 C 0.4780(4) 0.9350(3) 0.3300(2)
H102 H 0.4306 0.9559 0.3383
C144 C 0.4881(4) 0.9069(2) 0.29450(19)
H103 H 0.4493 0.9098 0.2777
C145 C 0.7532(3) 0.6238(2) 0.19378(15)
C146 C 0.8108(3) 0.6048(2) 0.16391(15)
H104 H 0.8235 0.6312 0.1380
C147 C 0.8499(3) 0.5470(2) 0.17186(15)
H105 H 0.8883 0.5344 0.1510
C148 C 0.8335(3) 0.5076(2) 0.20977(15)
C149 C 0.7753(3) 0.5261(2) 0.23882(15)
H106 H 0.7615 0.4990 0.2643
C150 C 0.7372(3) 0.5829(2) 0.23140(15)
H107 H 0.6988 0.5949 0.2525
C151 C 0.8771(3) 0.4471(2) 0.21799(15)
C152 C 0.9050(3) 0.4147(2) 0.18537(15)
H108 H 0.8949 0.4316 0.1578
C153 C 0.9473(3) 0.3583(2) 0.19258(15)
C154 C 0.9633(3) 0.3346(2) 0.23155(16)
H109 H 0.9916 0.2960 0.2364
C155 C 0.9386(3) 0.3661(2) 0.26506(16)
C156 C 0.8936(3) 0.4224(2) 0.25860(15)
H110 H 0.8749 0.4432 0.2813
C157 C 0.9769(3) 0.2722(3) 0.16128(17)
H111 H 0.9607 0.2479 0.1876
C158 C 1.0058(3) 0.2441(3) 0.12495(17)
C159 C 1.0565(3) 0.2576(3) 0.05529(19)
H112 H 1.0725 0.2839 0.0298
C160 C 1.0646(4) 0.1951(3) 0.0562(2)
H113 H 1.0862 0.1793 0.0317
C161 C 1.0422(4) 0.1571(3) 0.0915(2)
H114 H 1.0467 0.1144 0.0920
C162 C 1.0125(4) 0.1802(3) 0.1273(2)
H115 H 0.9969 0.1539 0.1528
C163 C 0.9743(3) 0.3653(3) 0.33062(16)
H116 H 0.9821 0.4072 0.3225
C164 C 0.9855(3) 0.3321(3) 0.37264(16)
C165 C 0.9753(4) 0.2423(3) 0.4192(2)
H117 H 0.9619 0.2016 0.4257
C166 C 1.0005(5) 0.2666(4) 0.4497(2)
H118 H 1.0064 0.2423 0.4763
C167 C 1.0166(5) 0.3265(4) 0.4406(2)
H119 H 1.0323 0.3447 0.4612
C168 C 1.0096(4) 0.3598(3) 0.40098(19)
H120 H 1.0212 0.4009 0.3936
N1 N 0.3932(2) 0.5882(2) 0.47620(12)
N2 N 0.3513(2) 0.57245(19) 0.40588(12)
N3 N 0.2480(2) 0.6674(2) 0.27862(12)
N4 N 0.1705(2) 0.75502(19) 0.23177(13)
N5 N 0.6062(3) 0.16669(19) 0.25094(14)
N6 N 0.6627(3) 0.07247(19) 0.30222(16)
N7 N 0.5424(2) 0.27613(19) 0.11654(12)
N8 N 0.5676(3) 0.2815(2) 0.03535(13)
N9 N 0.3159(3) 0.7280(2) 0.41295(13)
N10 N 0.4545(2) 0.69308(18) 0.37924(12)
N11 N 0.7160(2) 0.72708(17) 0.32522(12)
N12 N 0.8132(2) 0.80751(19) 0.28737(13)
N13 N 0.5799(3) 0.19173(18) 0.35110(14)
N14 N 0.4703(3) 0.1266(2) 0.34688(15)
N15 N 0.8471(2) 0.21948(19) 0.31732(14)
N16 N 0.9920(3) 0.1823(2) 0.29832(15)
N17 N 0.1209(2) 0.6046(2) 0.22348(13)
N18 N 0.2542(2) 0.63219(18) 0.18295(12)
N19 N 0.4330(2) 0.78462(19) 0.14330(13)
N20 N 0.4681(3) 0.8981(2) 0.12622(14)
N21 N 0.7319(2) 0.2729(2) 0.09081(14)
N22 N 0.6949(3) 0.1657(2) 0.08376(17)
N23 N 0.9113(2) 0.42400(19) 0.07611(12)
N24 N 1.0526(2) 0.44744(19) 0.07222(12)
N25 N 0.6182(2) 0.78851(18) 0.10189(13)
N26 N 0.5461(3) 0.82696(19) 0.03753(13)
N27 N 0.6355(2) 0.80885(18) 0.24419(12)
N28 N 0.6147(2) 0.86971(18) 0.30743(13)
N29 N 0.9735(2) 0.3303(2) 0.15731(12)
N30 N 1.0264(2) 0.2820(2) 0.08960(14)
N31 N 0.9540(2) 0.33696(19) 0.30553(13)
N32 N 0.9694(3) 0.2749(2) 0.38059(14)
Cu1 Cu 0.37827(4) 0.64843(3) 0.424695(19)
Cu2 Cu 0.18678(4) 0.66529(3) 0.23119(2)
Cu3 Cu 0.51095(4) 0.82796(3) 0.09808(2)
Cu4 Cu 0.70223(4) 0.81236(3) 0.28892(2)
Cu5 Cu 0.57088(4) 0.13126(3) 0.31313(2)
Cu6 Cu 0.63503(4) 0.24704(3) 0.07806(2)
Cu7 Cu 1.00454(4) 0.36955(3) 0.09533(2)
Cu8 Cu 0.94290(4) 0.24696(3) 0.33154(2)
C169 C 0.4631(4) 0.7030(4) 0.2575(2)
C170 C 0.5000(5) 0.6505(4) 0.2516(2)
H121 H 0.4766 0.6336 0.2321
H122 H 0.4985 0.6222 0.2785
H123 H 0.5526 0.6566 0.2398
N33 N 0.4317(4) 0.7510(4) 0.26303(19)
C171 C 0.7552(5) 0.2948(5) 0.2100(2)
C172 C 0.7101(6) 0.3515(5) 0.2186(3)
H124 H 0.6578 0.3500 0.2147
H125 H 0.7310 0.3864 0.1993
H126 H 0.7116 0.3557 0.2475
N34 N 0.7904(5) 0.2492(4) 0.2048(3)
C173 C 0.1706(6) 0.2571(5) 0.1618(4)
C174 C 0.2152(5) 0.2666(4) 0.1183(3)
H127 H 0.1947 0.3043 0.1017
H128 H 0.2117 0.2322 0.1048
H129 H 0.2681 0.2696 0.1203
N35 N 0.1384(6) 0.2501(6) 0.1938(3)
C175 C 0.3884(10) 1.1737(6) 0.1793(5)
C176 C 0.3589(9) 1.1922(8) 0.2175(5)
H130 H 0.3872 1.1694 0.2395
H131 H 0.3058 1.1844 0.2248
H132 H 0.3631 1.2359 0.2148
N36 N 0.4179(9) 1.1604(5) 0.1492(4)
C177 C 0.1990(6) 0.6152(5) 0.5423(3)
H133 H 0.1547 0.6171 0.5643
H134 H 0.2401 0.5880 0.5547
C178 C 0.1791(6) 0.5910(6) 0.5069(4)
H135 H 0.1290 0.6094 0.5009
H136 H 0.1786 0.5467 0.5146
H137 H 0.2164 0.6010 0.4820
C179 C 0.2444(8) 0.7013(6) 0.5573(4)
H138 H 0.2831 0.6736 0.5716
H139 H 0.2004 0.7078 0.5788
C180 C 0.2741(9) 0.7584(6) 0.5405(4)
H140 H 0.3093 0.7549 0.5148
H141 H 0.3007 0.7697 0.5611
H142 H 0.2328 0.7897 0.5341
O1 O 0.2217(4) 0.6720(4) 0.5274(2)
C181 C 1.2402(8) 0.6626(7) 0.0598(4)
H143 H 1.2048 0.6351 0.0773
H144 H 1.2150 0.7040 0.0546
H145 H 1.2836 0.6625 0.0742
C182 C 1.2665(10) 0.6418(8) 0.0194(4)
H146 H 1.2249 0.6296 0.0076
H147 H 1.2936 0.6726 -0.0016
C183 C 1.3434(10) 0.5654(8) -0.0036(3)
H148 H 1.3716 0.5947 -0.0252
H149 H 1.3014 0.5537 -0.0153
C184 C 1.3956(12) 0.5091(9) 0.0124(5)
H150 H 1.4082 0.4827 -0.0086
H151 H 1.3682 0.4870 0.0380
H152 H 1.4420 0.5212 0.0188
O2 O 1.3156(7) 0.5911(5) 0.0349(4)
C185 C 1.1851(16) 0.4024(6) 0.2733(4)
H153 H 1.1469 0.4092 0.2540
H154 H 1.2360 0.3962 0.2572
O3 O 1.1698(9) 0.3509(5) 0.3082(4)
C186 C 1.1716(11) 0.3048(6) 0.2814(6)
H155 H 1.1857 0.3220 0.2514
H156 H 1.1225 0.2877 0.2854
C187 C 1.1792(8) 0.4549(5) 0.2978(4)
H157 H 1.1274 0.4742 0.2989
H158 H 1.2142 0.4847 0.2831
H159 H 1.1906 0.4400 0.3264
C188 C 1.2333(14) 0.2567(9) 0.2979(9)
H160 H 1.2703 0.2468 0.2742
H161 H 1.2101 0.2198 0.3127
H162 H 1.2586 0.2725 0.3172
C189 C 1.2245(6) 0.0668(7) 0.1239(5)
C190 C 1.2071(7) 0.0105(7) 0.1435(4)
H163 H 1.2381 -0.0201 0.1290
H164 H 1.1537 0.0070 0.1432
H165 H 1.2170 0.0037 0.1726
N37 N 1.2371(8) 0.1120(6) 0.1073(8)
C191 C 1.1003(12) 0.6616(10) 0.3606(6)
C192 C 1.1007(13) 0.5933(9) 0.3973(6)
H166 H 1.1457 0.5882 0.4112
H167 H 1.1014 0.5590 0.3829
H168 H 1.0555 0.5945 0.4182
N38 N 1.1055(9) 0.7097(7) 0.3572(5)
C193 C 0.6173(7) 0.9973(5) 0.0054(4)
C194 C 0.6333(13) 0.9785(6) -0.0332(5)
H169 H 0.6685 0.9415 -0.0311
H170 H 0.6560 1.0108 -0.0543
H171 H 0.5865 0.9700 -0.0414
N39 N 0.5884(7) 1.0205(5) 0.0325(3)
N40 N 0.5058(11) 0.8061(8) 0.4221(7)
C195 C 0.4926(13) 0.8098(10) 0.4499(9)
C196 C 0.455(2) 0.8203(17) 0.4883(12)
H172 H 0.4069 0.8017 0.4952
H173 H 0.4449 0.8643 0.4876
H174 H 0.4871 0.8024 0.5096
O10 O -0.2267(9) 0.8393(8) 0.3908(5)
O11 O 0.1009(12) 1.0717(10) 0.3964(6)
O14 O 0.8638(11) 0.0784(9) 0.4003(6)
O15 O 0.9324(11) 0.0070(8) 0.3704(6)
O16 O 0.9895(12) -0.0548(10) 0.3431(7)
C197 C 0.8969(10) 0.2130(9) 0.0094(5)
C198 C 0.9099(17) 0.1477(13) 0.0049(9)
H175 H 0.9475 0.1433 -0.0198
H176 H 0.8625 0.1337 0.0014
H177 H 0.9283 0.1233 0.0300
N41 N 0.8982(8) 0.2584(7) 0.0112(4)
P1 P 0.30543(10) 0.41908(9) 0.13901(7)
F1 F 0.3042(2) 0.3914(2) 0.09796(13)
F2 F 0.3058(3) 0.4500(2) 0.17847(14)
F3 F 0.3926(2) 0.42877(17) 0.12328(15)
F4 F 0.3295(2) 0.35405(18) 0.16427(15)
F5 F 0.2196(2) 0.4091(2) 0.15351(13)
F6 F 0.2830(2) 0.48464(19) 0.11270(13)
P2 P 0.26268(13) 0.85418(11) 0.07651(8)
F7 F 0.3144(4) 0.7936(3) 0.07956(19)
F8 F 0.2162(6) 0.9152(4) 0.0737(4)
F9 F 0.1858(4) 0.8290(5) 0.0898(3)
F10 F 0.2634(6) 0.8548(6) 0.0304(2)
F11 F 0.2656(3) 0.8504(3) 0.12542(18)
F12 F 0.3397(4) 0.8824(4) 0.0704(3)
P3 P 0.26927(11) 0.99974(8) 0.29075(6)
F13 F 0.3027(2) 0.93380(16) 0.28079(11)
F14 F 0.2474(2) 1.01801(18) 0.24520(12)
F15 F 0.1905(2) 0.9760(2) 0.30716(15)
F16 F 0.2388(3) 1.06577(18) 0.29953(14)
F17 F 0.2930(2) 0.98003(17) 0.33657(12)
F18 F 0.3507(2) 1.02285(19) 0.27409(14)
P4 P 0.42264(14) 0.33721(9) 0.43426(7)
F19 F 0.5034(3) 0.3054(2) 0.43827(14)
F20 F 0.3428(3) 0.3728(3) 0.4281(3)
F21 F 0.4205(4) 0.3571(3) 0.47724(18)
F22 F 0.3858(5) 0.2780(2) 0.45663(15)
F23 F 0.4568(3) 0.3978(2) 0.41035(18)
F24 F 0.4246(3) 0.3163(2) 0.39026(12)
P5 P 0.90764(9) 0.53903(8) 0.36170(6)
F25 F 0.98449(19) 0.51306(18) 0.33560(14)
F26 F 0.8300(2) 0.56302(18) 0.38620(11)
F27 F 0.8756(2) 0.47558(17) 0.36356(13)
F28 F 0.8742(2) 0.5654(2) 0.31914(12)
F29 F 0.9401(3) 0.5123(2) 0.40342(13)
F30 F 0.9384(3) 0.60207(18) 0.3584(2)
P6 P 0.95648(16) 0.99315(11) 0.16991(9)
F31 F 0.9868(4) 0.9268(3) 0.1657(2)
F32 F 0.9229(3) 1.06007(19) 0.17859(15)
F33 F 0.8760(3) 0.9703(3) 0.1845(2)
F34 F 0.9452(4) 1.0120(3) 0.12209(17)
F35 F 0.9701(3) 0.9772(2) 0.21918(16)
F36 F 1.0363(3) 1.0139(3) 0.1587(2)
P7 P 1.21654(9) 0.36414(8) -0.02530(5)
F37 F 1.1822(2) 0.39274(19) -0.06763(11)
F38 F 1.2515(3) 0.3378(2) 0.01570(12)
F39 F 1.1944(2) 0.29893(17) -0.02713(13)
F40 F 1.1368(2) 0.38006(19) 0.00087(12)
F41 F 1.2391(2) 0.42921(16) -0.02380(12)
F42 F 1.2961(2) 0.34853(18) -0.05288(12)
P8 P 0.0487(5) 0.9074(4) 0.4810(3)
F43 F -0.0049(8) 0.9584(7) 0.4635(4)
F44 F 0.1015(8) 0.8570(6) 0.4983(4)
F45 F 0.0728(9) 0.9614(6) 0.4935(4)
F46 F 0.0259(9) 0.8531(6) 0.4692(4)
F47 F 0.1017(7) 0.9185(5) 0.4410(4)
F48 F -0.0043(7) 0.8976(5) 0.5201(4)
P9 P 0.6028(6) -0.0013(7) 0.4534(4)
F49 F 0.6462(9) -0.0421(9) 0.4208(5)
F50 F 0.5310(9) 0.0102(11) 0.4286(6)
F51 F 0.6349(13) 0.0580(8) 0.4244(5)
F52 F 0.5684(13) -0.0606(9) 0.4820(5)
F53 F 0.6735(8) -0.0132(10) 0.4777(6)
F54 F 0.5578(9) 0.0399(10) 0.4855(5)
O4? O 1.1698(13) 0.3998(11) 0.3006(7)
O5? O 0.9629(15) 0.7161(12) 0.1517(8)
O6? O -0.0855(9) 0.7204(7) 0.2084(5)
O7? O 0.6847(13) 0.9569(10) 0.1884(7)
O8? O 0.5971(12) 1.0127(9) 0.2045(6)
O9? O -0.2710(18) 0.8007(14) 0.4143(10)
O12? O 0.1304(11) 1.1280(9) 0.3922(6)
O13? O 1.042(2) 0.2373(19) 0.5683(14)
loop_
_geom_bond_atom_site_label_1
_geom_bond_atom_site_label_2
_geom_bond_site_symmetry_1
_geom_bond_site_symmetry_2
C1 C5 1_555 1_555
C2 H1 1_555 1_555
C3 C2 1_555 1_555
H2 C3 1_555 1_555
C4 C3 1_555 1_555
H3 C4 1_555 1_555
C5 C4 1_555 1_555
H4 C5 1_555 1_555
C6 C1 1_555 1_555
H5 C6 1_555 1_555
C7 C8 1_555 1_555
C8 H6 1_555 1_555
C9 C8 1_555 1_555
C10 C9 1_555 1_555
H7 C10 1_555 1_555
C11 C10 1_555 1_555
C12 C7 1_555 1_555
H8 C12 1_555 1_555
C13 H9 1_555 1_555
C14 C13 1_555 1_555
C15 H10 1_555 1_555
C16 C15 1_555 1_555
H11 C16 1_555 1_555
C17 C16 1_555 1_555
H12 C17 1_555 1_555
C18 C14 1_555 1_555
H13 C18 1_555 1_555
C19 C11 1_555 1_555
C20 C19 1_555 1_555
H14 C20 1_555 1_555
C21 C20 1_555 1_555
H15 C21 1_555 1_555
C22 C21 1_555 1_555
C23 C22 1_555 1_555
H16 C23 1_555 1_555
C24 C19 1_555 1_555
H17 C24 1_555 1_555
C25 C22 1_555 1_555
C26 C25 1_555 1_555
H18 C26 1_555 1_555
C27 C26 1_555 1_555
C28 C27 1_555 1_555
H19 C28 1_555 1_555
C29 C28 1_555 1_555
C30 C25 1_555 1_555
H20 C30 1_555 1_555
C31 H21 1_555 1_555
C32 C31 1_555 1_555
C33 H22 1_555 1_555
C34 C33 1_555 1_555
H23 C34 1_555 1_555
C35 C34 1_555 1_555
H24 C35 1_555 1_555
C36 C32 1_555 1_555
H25 C36 1_555 1_555
C37 H26 1_555 1_555
C38 C37 1_555 1_555
C39 H27 1_555 1_555
C40 C39 1_555 1_555
H28 C40 1_555 1_555
C41 C40 1_555 1_555
H29 C41 1_555 1_555
C42 C38 1_555 1_555
H30 C42 1_555 1_555
C43 C47 1_555 1_555
C44 H31 1_555 1_555
C45 C44 1_555 1_555
H32 C45 1_555 1_555
C46 C45 1_555 1_555
H33 C46 1_555 1_555
C47 C46 1_555 1_555
H34 C47 1_555 1_555
C48 C43 1_555 1_555
H35 C48 1_555 1_555
C49 C50 1_555 1_555
C50 H36 1_555 1_555
C51 C50 1_555 1_555
C52 C51 1_555 1_555
H37 C52 1_555 1_555
C53 C52 1_555 1_555
C54 C49 1_555 1_555
H38 C54 1_555 1_555
C55 H39 1_555 1_555
C56 C55 1_555 1_555
C57 H40 1_555 1_555
C58 C57 1_555 1_555
H41 C58 1_555 1_555
C59 C58 1_555 1_555
H42 C59 1_555 1_555
C60 C56 1_555 1_555
H43 C60 1_555 1_555
C61 C53 1_555 1_555
C62 C61 1_555 1_555
H44 C62 1_555 1_555
C63 C62 1_555 1_555
H45 C63 1_555 1_555
C64 C63 1_555 1_555
C65 C64 1_555 1_555
H46 C65 1_555 1_555
C66 C61 1_555 1_555
H47 C66 1_555 1_555
C67 C64 1_555 1_555
C68 C67 1_555 1_555
H48 C68 1_555 1_555
C69 C68 1_555 1_555
C70 C69 1_555 1_555
H49 C70 1_555 1_555
C71 C70 1_555 1_555
C72 C67 1_555 1_555
H50 C72 1_555 1_555
C73 H51 1_555 1_555
C74 H52 1_555 1_555
C75 C73 1_555 1_555
C76 C74 1_555 1_555
C77 H53 1_555 1_555
C78 H54 1_555 1_555
C79 C77 1_555 1_555
H55 C79 1_555 1_555
C80 C78 1_555 1_555
H56 C80 1_555 1_555
C81 C80 1_555 1_555
H57 C81 1_555 1_555
C82 C79 1_555 1_555
H58 C82 1_555 1_555
C83 C75 1_555 1_555
H59 C83 1_555 1_555
C84 C76 1_555 1_555
H60 C84 1_555 1_555
C85 C89 1_555 1_555
C86 H61 1_555 1_555
C87 C86 1_555 1_555
H62 C87 1_555 1_555
C88 C87 1_555 1_555
H63 C88 1_555 1_555
C89 C88 1_555 1_555
H64 C89 1_555 1_555
C90 C85 1_555 1_555
H65 C90 1_555 1_555
C91 C92 1_555 1_555
C92 H66 1_555 1_555
C93 C92 1_555 1_555
C94 C93 1_555 1_555
H67 C94 1_555 1_555
C95 C94 1_555 1_555
C96 C91 1_555 1_555
H68 C96 1_555 1_555
C97 H69 1_555 1_555
C98 C97 1_555 1_555
C99 H70 1_555 1_555
C100 C99 1_555 1_555
H71 C100 1_555 1_555
C101 C100 1_555 1_555
H72 C101 1_555 1_555
C102 C98 1_555 1_555
H73 C102 1_555 1_555
C103 C95 1_555 1_555
C104 C103 1_555 1_555
H74 C104 1_555 1_555
C105 C104 1_555 1_555
H75 C105 1_555 1_555
C106 C105 1_555 1_555
C107 C106 1_555 1_555
H76 C107 1_555 1_555
C108 C103 1_555 1_555
H77 C108 1_555 1_555
C109 C106 1_555 1_555
C110 C109 1_555 1_555
H78 C110 1_555 1_555
C111 C110 1_555 1_555
C112 C111 1_555 1_555
H79 C112 1_555 1_555
C113 C112 1_555 1_555
C114 C109 1_555 1_555
H80 C114 1_555 1_555
C115 H81 1_555 1_555
C116 C115 1_555 1_555
C117 H82 1_555 1_555
C118 C117 1_555 1_555
H83 C118 1_555 1_555
C119 C118 1_555 1_555
H84 C119 1_555 1_555
C120 C116 1_555 1_555
H85 C120 1_555 1_555
C121 H86 1_555 1_555
C122 C121 1_555 1_555
C123 H87 1_555 1_555
C124 C123 1_555 1_555
H88 C124 1_555 1_555
C125 C124 1_555 1_555
H89 C125 1_555 1_555
C126 C122 1_555 1_555
H90 C126 1_555 1_555
C127 C131 1_555 1_555
C128 H91 1_555 1_555
C129 C128 1_555 1_555
H92 C129 1_555 1_555
C130 C129 1_555 1_555
H93 C130 1_555 1_555
C131 C130 1_555 1_555
H94 C131 1_555 1_555
C132 C127 1_555 1_555
H95 C132 1_555 1_555
C133 C134 1_555 1_555
C134 H96 1_555 1_555
C135 C134 1_555 1_555
C136 C135 1_555 1_555
H97 C136 1_555 1_555
C137 C136 1_555 1_555
C138 C133 1_555 1_555
H98 C138 1_555 1_555
C139 H99 1_555 1_555
C140 C139 1_555 1_555
C141 H100 1_555 1_555
C142 C141 1_555 1_555
H101 C142 1_555 1_555
C143 C142 1_555 1_555
H102 C143 1_555 1_555
C144 C140 1_555 1_555
H103 C144 1_555 1_555
C145 C137 1_555 1_555
C146 C145 1_555 1_555
H104 C146 1_555 1_555
C147 C146 1_555 1_555
H105 C147 1_555 1_555
C148 C147 1_555 1_555
C149 C148 1_555 1_555
H106 C149 1_555 1_555
C150 C145 1_555 1_555
H107 C150 1_555 1_555
C151 C148 1_555 1_555
C152 C151 1_555 1_555
H108 C152 1_555 1_555
C153 C152 1_555 1_555
C154 C153 1_555 1_555
H109 C154 1_555 1_555
C155 C154 1_555 1_555
C156 C151 1_555 1_555
H110 C156 1_555 1_555
C157 H111 1_555 1_555
C158 C157 1_555 1_555
C159 H112 1_555 1_555
C160 C159 1_555 1_555
H113 C160 1_555 1_555
C161 C160 1_555 1_555
H114 C161 1_555 1_555
C162 C158 1_555 1_555
H115 C162 1_555 1_555
C163 H116 1_555 1_555
C164 C163 1_555 1_555
C165 H117 1_555 1_555
C166 C165 1_555 1_555
H118 C166 1_555 1_555
C167 C166 1_555 1_555
H119 C167 1_555 1_555
C168 C164 1_555 1_555
H120 C168 1_555 1_555
N1 C1 1_555 1_555
N2 C6 1_555 1_555
N3 C9 1_555 1_555
N4 C14 1_555 1_555
N5 C29 1_555 1_555
N6 C32 1_555 1_555
N7 C27 1_555 1_555
N8 C38 1_555 1_555
N9 C43 1_555 1_555
N10 C48 1_555 1_555
N11 C51 1_555 1_555
N12 C56 1_555 1_555
N13 C69 1_555 1_555
N14 C75 1_555 1_555
N15 C71 1_555 1_555
N16 C76 1_555 1_555
N17 C85 1_555 1_555
N18 C90 1_555 1_555
N19 C93 1_555 1_555
N20 C98 1_555 1_555
N21 C111 1_555 1_555
N22 C116 1_555 1_555
N23 C113 1_555 1_555
N24 C122 1_555 1_555
N25 C132 1_555 1_555
N26 C127 1_555 1_555
N27 C135 1_555 1_555
N28 C140 1_555 1_555
N29 C153 1_555 1_555
N30 C158 1_555 1_555
N31 C155 1_555 1_555
N32 C164 1_555 1_555
Cu1 N1 1_555 1_555
Cu2 N3 1_555 1_555
Cu3 N19 1_555 1_555
Cu4 N11 1_555 1_555
Cu5 N5 1_555 1_555
Cu6 N7 1_555 1_555
Cu7 N23 1_555 1_555
Cu8 N15 1_555 1_555
C169 C170 1_555 1_555
C170 H121 1_555 1_555
H122 C170 1_555 1_555
H123 C170 1_555 1_555
N33 C169 1_555 1_555
C171 C172 1_555 1_555
C172 H124 1_555 1_555
H125 C172 1_555 1_555
H126 C172 1_555 1_555
N34 C171 1_555 1_555
C173 C174 1_555 1_555
C174 H127 1_555 1_555
H128 C174 1_555 1_555
H129 C174 1_555 1_555
N35 C173 1_555 1_555
C175 C176 1_555 1_555
C176 H130 1_555 1_555
H131 C176 1_555 1_555
H132 C176 1_555 1_555
N36 C175 1_555 1_555
C177 H133 1_555 1_555
H134 C177 1_555 1_555
C178 C177 1_555 1_555
H135 C178 1_555 1_555
H136 C178 1_555 1_555
H137 C178 1_555 1_555
C179 H138 1_555 1_555
H139 C179 1_555 1_555
C180 C179 1_555 1_555
H140 C180 1_555 1_555
H141 C180 1_555 1_555
H142 C180 1_555 1_555
O1 C177 1_555 1_555
C181 H143 1_555 1_555
H144 C181 1_555 1_555
H145 C181 1_555 1_555
C182 C181 1_555 1_555
H146 C182 1_555 1_555
H147 C182 1_555 1_555
C183 H148 1_555 1_555
H149 C183 1_555 1_555
C184 C183 1_555 1_555
H150 C184 1_555 1_555
H151 C184 1_555 1_555
H152 C184 1_555 1_555
O2 C182 1_555 1_555
C185 H153 1_555 1_555
H154 C185 1_555 1_555
O3 C185 1_555 1_555
C186 O3 1_555 1_555
H155 C186 1_555 1_555
H156 C186 1_555 1_555
C187 C185 1_555 1_555
H157 C187 1_555 1_555
H158 C187 1_555 1_555
H159 C187 1_555 1_555
C188 C186 1_555 1_555
H160 C188 1_555 1_555
H161 C188 1_555 1_555
H162 C188 1_555 1_555
C189 C190 1_555 1_555
C190 H163 1_555 1_555
H164 C190 1_555 1_555
H165 C190 1_555 1_555
N37 C189 1_555 1_555
C191 C192 1_555 1_555
C192 H166 1_555 1_555
H167 C192 1_555 1_555
H168 C192 1_555 1_555
N38 C191 1_555 1_555
C193 C194 1_555 1_555
C194 H169 1_555 1_555
H170 C194 1_555 1_555
H171 C194 1_555 1_555
N39 C193 1_555 1_555
N40 C195 1_555 1_555
C195 C196 1_555 1_555
C196 H172 1_555 1_555
H173 C196 1_555 1_555
H174 C196 1_555 1_555
C197 C198 1_555 1_555
C198 H175 1_555 1_555
H176 C198 1_555 1_555
H177 C198 1_555 1_555
N41 C197 1_555 1_555
P1 F1 1_555 1_555
F2 P1 1_555 1_555
F3 P1 1_555 1_555
F4 P1 1_555 1_555
F5 P1 1_555 1_555
F6 P1 1_555 1_555
P2 F7 1_555 1_555
F8 P2 1_555 1_555
F9 P2 1_555 1_555
F10 P2 1_555 1_555
F11 P2 1_555 1_555
F12 P2 1_555 1_555
P3 F13 1_555 1_555
F14 P3 1_555 1_555
F15 P3 1_555 1_555
F16 P3 1_555 1_555
F17 P3 1_555 1_555
F18 P3 1_555 1_555
P4 F19 1_555 1_555
F20 P4 1_555 1_555
F21 P4 1_555 1_555
F22 P4 1_555 1_555
F23 P4 1_555 1_555
F24 P4 1_555 1_555
P5 F25 1_555 1_555
F26 P5 1_555 1_555
F27 P5 1_555 1_555
F28 P5 1_555 1_555
F29 P5 1_555 1_555
F30 P5 1_555 1_555
P6 F31 1_555 1_555
F32 P6 1_555 1_555
F33 P6 1_555 1_555
F34 P6 1_555 1_555
F35 P6 1_555 1_555
F36 P6 1_555 1_555
P7 F37 1_555 1_555
F38 P7 1_555 1_555
F39 P7 1_555 1_555
F40 P7 1_555 1_555
F41 P7 1_555 1_555
F42 P7 1_555 1_555
P8 F43 1_555 1_555
F44 P8 1_555 1_555
F45 P8 1_555 1_555
F46 P8 1_555 1_555
F47 P8 1_555 1_555
F48 P8 1_555 1_555
P9 F49 1_555 1_555
F50 P9 1_555 1_555
F51 P9 1_555 1_555
F52 P9 1_555 1_555
F53 P9 1_555 1_555
F54 P9 1_555 1_555
C2 N1 1_555 1_555
C7 N2 1_555 1_555
C11 C12 1_555 1_555
C13 N3 1_555 1_555
C15 N4 1_555 1_555
C17 C18 1_555 1_555
C23 C24 1_555 1_555
C29 C30 1_555 1_555
C31 N5 1_555 1_555
C33 N6 1_555 1_555
C35 C36 1_555 1_555
C37 N7 1_555 1_555
C39 N8 1_555 1_555
C41 C42 1_555 1_555
C44 N9 1_555 1_555
C49 N10 1_555 1_555
C53 C54 1_555 1_555
C55 N11 1_555 1_555
C57 N12 1_555 1_555
C59 C60 1_555 1_555
C65 C66 1_555 1_555
C71 C72 1_555 1_555
C73 N13 1_555 1_555
C74 N15 1_555 1_555
C77 N16 1_555 1_555
C78 N14 1_555 1_555
C81 C83 1_555 1_555
C82 C84 1_555 1_555
C86 N17 1_555 1_555
C91 N18 1_555 1_555
C95 C96 1_555 1_555
C97 N19 1_555 1_555
C99 N20 1_555 1_555
C101 C102 1_555 1_555
C107 C108 1_555 1_555
C113 C114 1_555 1_555
C115 N21 1_555 1_555
C117 N22 1_555 1_555
C119 C120 1_555 1_555
C121 N23 1_555 1_555
C123 N24 1_555 1_555
C125 C126 1_555 1_555
C128 N26 1_555 1_555
C133 N25 1_555 1_555
C137 C138 1_555 1_555
C139 N27 1_555 1_555
C141 N28 1_555 1_555
C143 C144 1_555 1_555
C149 C150 1_555 1_555
C155 C156 1_555 1_555
C157 N29 1_555 1_555
C159 N30 1_555 1_555
C161 C162 1_555 1_555
C163 N31 1_555 1_555
C165 N32 1_555 1_555
C167 C168 1_555 1_555
N2 Cu1 1_555 1_555
N4 Cu2 1_555 1_555
N6 Cu5 1_555 1_555
N8 Cu6 1_555 1_555
N9 Cu1 1_555 1_555
N10 Cu1 1_555 1_555
N12 Cu4 1_555 1_555
N13 Cu5 1_555 1_555
N14 Cu5 1_555 1_555
N16 Cu8 1_555 1_555
N17 Cu2 1_555 1_555
N18 Cu2 1_555 1_555
N20 Cu3 1_555 1_555
N21 Cu6 1_555 1_555
N22 Cu6 1_555 1_555
N24 Cu7 1_555 1_555
N25 Cu3 1_555 1_555
N26 Cu3 1_555 1_555
N27 Cu4 1_555 1_555
N28 Cu4 1_555 1_555
N29 Cu7 1_555 1_555
N30 Cu7 1_555 1_555
N31 Cu8 1_555 1_555
N32 Cu8 1_555 1_555
C179 O1 1_555 1_555
C183 O2 1_555 1_555

#END
