
#######################################################################
#
#                 Cambridge Crystallographic Data Centre
#                                CCDC 
#
#######################################################################
#
# If this CIF has been generated from an entry in the Cambridge 
# Structural Database, then it will include bibliographic, chemical, 
# crystal, experimental, refinement or atomic coordinate data resulting 
# from the CCDC's data processing and validation procedures.
#
#######################################################################

data_KOWBAB
_chemical_formula_moiety         'C208 H168 Cu8 N32 8+,8(B1 F4 1-)'
_chemical_name_systematic        
"tetrakis(\m~4~-N,N',N'',N'''-1,1':4',1'':4'',1'''-quaterphenyl-3,3''',5,5'''-tetrayltetrakis(1-(6-methylpyridin-2-yl)methanimine))-octa-copper octakis(tetrafluoroborate) unknown solvate"
_symmetry_cell_setting           tetragonal
_symmetry_space_group_name_H-M   'P -4'
_symmetry_Int_Tables_number      81
_space_group_name_Hall           'P -4'
loop_
_symmetry_equiv_pos_site_id
_symmetry_equiv_pos_as_xyz
1 x,y,z
2 -x,-y,z
3 y,-x,-z
4 -y,x,-z
_cell_length_a                   35.492(9)
_cell_length_b                   35.492(9)
_cell_length_c                   20.593(5)
_cell_angle_alpha                90
_cell_angle_beta                 90
_cell_angle_gamma                90
_cell_volume                     25940.6
_exptl_crystal_colour            'dark red'
_exptl_crystal_description       Plate
_cell_formula_units_Z            4
loop_
_atom_site_label
_atom_site_type_symbol
_atom_site_fract_x
_atom_site_fract_y
_atom_site_fract_z
Cu1 Cu 0.37973(7) 0.60966(7) 0.96034(18)
Cu2 Cu 0.24065(7) 0.63208(7) 1.04483(16)
Cu3 Cu 0.35721(10) 0.75845(9) 1.32809(19)
Cu4 Cu 0.49721(9) 0.75393(10) 1.22561(18)
Cu5 Cu 0.16189(11) 1.03286(12) 0.6697(2)
Cu6 Cu 0.21875(11) 1.11620(11) 0.8627(2)
Cu7 Cu 0.37757(11) 0.99983(9) 0.49319(19)
Cu8 Cu 0.42967(10) 1.08993(9) 0.6698(2)
N1 N 0.3612(5) 0.6417(5) 0.8868(9)
N2 N 0.3899(4) 0.6261(4) 1.0515(9)
N3 N 0.2341(5) 0.6653(4) 0.9635(9)
N4 N 0.2814(4) 0.6354(4) 1.1125(9)
N5 N 0.3534(5) 0.7101(6) 1.2776(9)
N6 N 0.3577(5) 0.8083(6) 1.2858(10)
N7 N 0.4837(5) 0.8069(5) 1.2067(11)
N8 N 0.4663(6) 0.7101(6) 1.1978(10)
N9 N 0.1644(7) 0.9975(8) 0.7316(10)
N10 N 0.2119(7) 1.0571(7) 0.6303(13)
N11 N 0.2070(6) 1.0709(6) 0.9090(12)
N12 N 0.2494(6) 1.1182(6) 0.7772(14)
N13 N 0.4071(6) 0.9627(6) 0.5428(9)
N14 N 0.3320(4) 1.0326(5) 0.5212(9)
N15 N 0.3703(5) 1.1006(6) 0.6674(10)
N16 N 0.4464(5) 1.0429(5) 0.7156(10)
C1 C 0.4549(6) 0.5530(6) 0.9631(9)
H1 H 0.4410 0.5291 0.9625
H2 H 0.4442 0.5695 0.9964
H3 H 0.4814 0.5481 0.9728
N17 N 0.4213(4) 0.5960(4) 0.8919(8)
C2 C 0.4517(5) 0.5715(4) 0.8982(6)
C3 C 0.4750(4) 0.5646(4) 0.8453(8)
H4 H 0.4958 0.5479 0.8496
C4 C 0.4679(4) 0.5820(4) 0.7861(7)
H5 H 0.4838 0.5773 0.7500
C5 C 0.4375(5) 0.6064(4) 0.7799(7)
H6 H 0.4327 0.6184 0.7394
C6 C 0.4142(4) 0.6134(4) 0.8328(10)
C7 C 0.3801(6) 0.6380(6) 0.8346(12)
H7 H 0.3724 0.6510 0.7965
C8 C 0.2000(5) 0.6738(6) 0.9491(10)
H8 H 0.1939 0.6850 0.9085
N18 N 0.1836(3) 0.6476(4) 1.0525(8)
C9 C 0.1716(4) 0.6659(4) 0.9965(7)
C10 C 0.1339(5) 0.6757(4) 0.9893(6)
H9 H 0.1258 0.6882 0.9510
C11 C 0.1082(3) 0.6673(4) 1.0381(8)
H10 H 0.0825 0.6740 1.0332
C12 C 0.1202(4) 0.6490(4) 1.0941(7)
H11 H 0.1027 0.6432 1.1275
C13 C 0.1579(5) 0.6392(4) 1.1013(7)
C14 C 0.1742(8) 0.6191(8) 1.1613(12)
H12 H 0.1916 0.6361 1.1838
H13 H 0.1878 0.5964 1.1475
H14 H 0.1537 0.6121 1.1907
C15 C 0.2967(5) 0.6550(4) 0.9234(7)
H15 H 0.2975 0.6329 0.9495
C16 C 0.3274(4) 0.6646(4) 0.8850(8)
C17 C 0.3262(4) 0.6969(5) 0.8469(7)
H16 H 0.3472 0.7035 0.8207
C18 C 0.2942(5) 0.7195(4) 0.8471(7)
C19 C 0.2635(4) 0.7099(4) 0.8854(8)
H17 H 0.2416 0.7253 0.8856
C20 C 0.2647(4) 0.6776(5) 0.9236(7)
C21 C 0.2921(5) 0.7583(4) 0.8134(7)
C22 C 0.2576(4) 0.7748(4) 0.7991(6)
H18 H 0.2348 0.7616 0.8078
C23 C 0.2563(4) 0.8107(4) 0.7722(7)
H19 H 0.2327 0.8221 0.7625
C24 C 0.2895(6) 0.8301(4) 0.7595(8)
C25 C 0.3240(5) 0.8135(6) 0.7737(11)
H20 H 0.3468 0.8268 0.7650
C26 C 0.3253(4) 0.7776(6) 0.8007(10)
H21 H 0.3489 0.7663 0.8104
C27 C 0.2868(5) 0.8717(4) 0.7361(8)
C28 C 0.3187(4) 0.8944(4) 0.7349(7)
H22 H 0.3415 0.8858 0.7538
C29 C 0.3171(3) 0.9298(4) 0.7062(7)
H23 H 0.3389 0.9454 0.7054
C30 C 0.2837(3) 0.9425(4) 0.6787(7)
C31 C 0.2518(4) 0.9197(5) 0.6798(10)
H24 H 0.2290 0.9284 0.6610
C32 C 0.2534(5) 0.8843(5) 0.7085(11)
H25 H 0.2316 0.8688 0.7093
C33 C 0.2817(3) 0.9811(4) 0.6490(6)
C34 C 0.2491(4) 1.0024(4) 0.6563(7)
H26 H 0.2307 0.9951 0.6873
C35 C 0.2435(4) 1.0342(4) 0.6182(9)
C36 C 0.2705(5) 1.0448(4) 0.5728(8)
H27 H 0.2666 1.0665 0.5467
C37 C 0.3031(5) 1.0235(4) 0.5654(7)
C38 C 0.3087(3) 0.9917(5) 0.6035(7)
H28 H 0.3310 0.9771 0.5985
C39 C 0.3310(7) 1.0578(6) 0.4768(10)
H29 H 0.3083 1.0720 0.4754
N19 N 0.3903(7) 1.0462(4) 0.4329(9)
C40 C 0.3580(5) 1.0682(6) 0.4292(8)
C41 C 0.3546(5) 1.0955(5) 0.3812(11)
H30 H 0.3325 1.1105 0.3787
C42 C 0.3836(7) 1.1008(5) 0.3368(9)
H31 H 0.3813 1.1195 0.3039
C43 C 0.4160(6) 1.0789(7) 0.3404(10)
H32 H 0.4358 1.0825 0.3101
C44 C 0.4193(5) 1.0516(6) 0.3885(12)
C45 C 0.4479(9) 1.0206(9) 0.3958(19)
H33 H 0.4407 0.9992 0.3684
H34 H 0.4489 1.0125 0.4413
H35 H 0.4728 1.0298 0.3825
C46 C 0.2025(8) 1.0880(9) 0.5989(16)
H36 H 0.2199 1.0991 0.5695
N20 N 0.1426(9) 1.0873(6) 0.6547(12)
C47 C 0.1652(6) 1.1054(8) 0.6093(14)
C48 C 0.1525(8) 1.1378(8) 0.5786(11)
H37 H 0.1679 1.1502 0.5476
C49 C 0.1171(9) 1.1522(6) 0.5934(13)
H38 H 0.1083 1.1744 0.5724
C50 C 0.0944(6) 1.1341(8) 0.6388(14)
H39 H 0.0702 1.1440 0.6489
C51 C 0.1072(8) 1.1017(8) 0.6695(10)
C52 C 0.0831(11) 1.0749(10) 0.7134(17)
H40 H 0.0618 1.0652 0.6883
H41 H 0.0737 1.0890 0.7510
H42 H 0.0987 1.0539 0.7283
C53 C 0.5869(9) 0.7166(7) 1.2258(16)
H43 H 0.6105 0.7118 1.2489
H44 H 0.5859 0.7011 1.1865
H45 H 0.5655 0.7102 1.2540
N21 N 0.5500(4) 0.7759(5) 1.2047(8)
C54 C 0.5848(5) 0.7579(4) 1.2072(9)
C55 C 0.6178(4) 0.7786(6) 1.2002(10)
H46 H 0.6415 0.7663 1.2019
C56 C 0.6160(4) 0.8173(6) 1.1906(9)
H47 H 0.6386 0.8315 1.1858
C57 C 0.5813(6) 0.8354(4) 1.1881(8)
H48 H 0.5801 0.8618 1.1816
C58 C 0.5483(4) 0.8147(5) 1.1951(8)
C59 C 0.5124(7) 0.8284(7) 1.1944(11)
H49 H 0.5082 0.8543 1.1846
C60 C 0.3356(6) 0.8311(7) 1.3123(11)
H50 H 0.3385 0.8572 1.3030
N22 N 0.3105(4) 0.7831(5) 1.3771(9)
C61 C 0.3059(4) 0.8200(6) 1.3562(7)
C62 C 0.2772(5) 0.8421(4) 1.3819(9)
H51 H 0.2741 0.8674 1.3676
C63 C 0.2530(4) 0.8273(5) 1.4284(9)
H52 H 0.2334 0.8424 1.4460
C64 C 0.2576(5) 0.7903(6) 1.4493(8)
H53 H 0.2411 0.7801 1.4811
C65 C 0.2863(6) 0.7682(4) 1.4236(9)
C66 C 0.2942(10) 0.7251(7) 1.4324(17)
H54 H 0.3204 0.7197 1.4210
H55 H 0.2774 0.7106 1.4041
H56 H 0.2897 0.7179 1.4778
C67 C 0.4473(3) 0.8236(4) 1.2018(8)
C68 C 0.4200(5) 0.8105(4) 1.2447(7)
H57 H 0.4263 0.7917 1.2758
C69 C 0.3836(4) 0.8249(4) 1.2422(7)
C70 C 0.3745(3) 0.8524(4) 1.1967(7)
H58 H 0.3496 0.8622 1.1950
C71 C 0.4018(4) 0.8655(4) 1.1538(6)
C72 C 0.4382(4) 0.8511(4) 1.1564(7)
H59 H 0.4568 0.8600 1.1271
C73 C 0.3920(6) 0.8959(4) 1.1052(7)
C74 C 0.3543(5) 0.9012(6) 1.0892(10)
H60 H 0.3353 0.8879 1.1121
C75 C 0.3446(4) 0.9259(6) 1.0397(10)
H61 H 0.3188 0.9296 1.0287
C76 C 0.3724(6) 0.9454(5) 1.0061(8)
C77 C 0.4101(5) 0.9401(4) 1.0221(8)
H62 H 0.4292 0.9534 0.9992
C78 C 0.4199(4) 0.9154(5) 1.0717(8)
H63 H 0.4457 0.9117 1.0826
C79 C 0.3596(4) 0.9711(4) 0.9472(6)
C80 C 0.3851(3) 0.9977(4) 0.9247(6)
H64 H 0.4097 0.9989 0.9428
C81 C 0.3747(3) 1.0225(4) 0.8757(6)
H65 H 0.3922 1.0407 0.8603
C82 C 0.3388(3) 1.0208(3) 0.8492(6)
C83 C 0.3132(3) 0.9941(3) 0.8717(7)
H66 H 0.2886 0.9929 0.8536
C84 C 0.3236(4) 0.9693(4) 0.9207(7)
H67 H 0.3061 0.9511 0.9361
C85 C 0.3267(3) 1.0491(4) 0.8012(6)
C86 C 0.3519(3) 1.0611(4) 0.7539(6)
H68 H 0.3752 1.0483 0.7481
C87 C 0.3431(4) 1.0919(4) 0.7150(7)
C88 C 0.3090(5) 1.1106(4) 0.7234(8)
H69 H 0.3030 1.1317 0.6968
C89 C 0.2839(4) 1.0986(4) 0.7708(8)
C90 C 0.2927(3) 1.0678(4) 0.8096(8)
H70 H 0.2755 1.0596 0.8420
C91 C 0.3643(8) 1.1182(8) 0.6132(12)
H71 H 0.3395 1.1266 0.6034
N23 N 0.4290(7) 1.1088(5) 0.5798(8)
C92 C 0.3942(5) 1.1253(6) 0.5673(9)
C93 C 0.3880(5) 1.1436(6) 0.5086(11)
H72 H 0.3642 1.1549 0.5000
C94 C 0.4165(7) 1.1454(6) 0.4624(8)
H73 H 0.4122 1.1579 0.4223
C95 C 0.4513(6) 1.1288(6) 0.4749(10)
H74 H 0.4707 1.1300 0.4434
C96 C 0.4575(5) 1.1105(5) 0.5336(12)
C97 C 0.4945(8) 1.0897(9) 0.5569(16)
H75 H 0.5101 1.0834 0.5191
H76 H 0.4877 1.0665 0.5800
H77 H 0.5087 1.1062 0.5861
C98 C 0.2345(8) 1.1409(7) 0.7362(16)
H78 H 0.2466 1.1465 0.6962
N24 N 0.1816(7) 1.1478(5) 0.8124(13)
C99 C 0.1976(5) 1.1580(6) 0.7534(14)
C100 C 0.1791(8) 1.1832(7) 0.7128(10)
H79 H 0.1900 1.1901 0.6724
C101 C 0.1445(7) 1.1982(6) 0.7312(13)
H80 H 0.1318 1.2154 0.7034
C102 C 0.1285(5) 1.1880(7) 0.7902(14)
H81 H 0.1049 1.1983 0.8028
C103 C 0.1470(8) 1.1628(7) 0.8309(10)
C104 C 0.1303(9) 1.1545(9) 0.8974(13)
H82 H 0.1052 1.1660 0.9005
H83 H 0.1467 1.1649 0.9312
H84 H 0.1281 1.1272 0.9032
C105 C 0.4148(10) 0.7786(8) 1.4600(18)
H85 H 0.3920 0.7921 1.4732
H86 H 0.4247 0.7897 1.4198
H87 H 0.4339 0.7806 1.4943
N25 N 0.3876(7) 0.7278(8) 1.3904(13)
C106 C 0.4054(8) 0.7371(7) 1.4484(17)
C107 C 0.4104(8) 0.7098(11) 1.4960(11)
H88 H 0.4225 0.7162 1.5357
C108 C 0.3977(9) 0.6733(10) 1.4857(15)
H89 H 0.4011 0.6547 1.5183
C109 C 0.3799(8) 0.6640(6) 1.4277(18)
H90 H 0.3712 0.6390 1.4207
C110 C 0.3749(6) 0.6913(9) 1.3800(12)
C111 C 0.3567(7) 0.6824(9) 1.3169(13)
H91 H 0.3480 0.6579 1.3064
C112 C 0.2879(6) 0.6050(6) 1.1424(10)
H92 H 0.3049 0.6040 1.1780
N26 N 0.2497(4) 0.5767(3) 1.0605(7)
C113 C 0.2679(4) 0.5710(3) 1.1194(7)
C114 C 0.2696(4) 0.5351(4) 1.1462(5)
H93 H 0.2821 0.5312 1.1865
C115 C 0.2529(4) 0.5049(3) 1.1142(7)
H94 H 0.2541 0.4804 1.1326
C116 C 0.2347(4) 0.5106(3) 1.0553(7)
H95 H 0.2233 0.4899 1.0335
C117 C 0.2330(4) 0.5464(4) 1.0285(6)
C118 C 0.2136(6) 0.5529(7) 0.9646(10)
H96 H 0.2322 0.5600 0.9317
H97 H 0.1951 0.5732 0.9694
H98 H 0.2007 0.5298 0.9512
C119 C 0.3336(4) 0.7048(4) 1.2192(5)
C120 C 0.3309(4) 0.7361(3) 1.1788(6)
H99 H 0.3418 0.7593 1.1917
C121 C 0.3123(4) 0.7333(3) 1.1196(6)
C122 C 0.2964(4) 0.6992(3) 1.1008(5)
H100 H 0.2837 0.6973 1.0603
C123 C 0.2990(4) 0.6680(3) 1.1412(7)
C124 C 0.3176(4) 0.6707(3) 1.2004(6)
H101 H 0.3194 0.6494 1.2280
C125 C 0.3004(4) 0.7696(4) 1.0843(6)
C126 C 0.2874(5) 0.8003(5) 1.1197(8)
H102 H 0.2865 0.7991 1.1658
C127 C 0.2757(6) 0.8327(4) 1.0877(10)
H103 H 0.2668 0.8537 1.1119
C128 C 0.2770(5) 0.8345(5) 1.0203(10)
C129 C 0.2900(5) 0.8038(5) 0.9849(8)
H104 H 0.2909 0.8050 0.9389
C130 C 0.3017(5) 0.7713(4) 1.0169(6)
H105 H 0.3106 0.7504 0.9927
C131 C 0.2618(6) 0.8698(6) 0.9883(15)
C132 C 0.2442(7) 0.8988(8) 1.0219(9)
H106 H 0.2436 0.8986 1.0680
C133 C 0.2274(6) 0.9282(6) 0.9879(15)
H107 H 0.2153 0.9481 1.0109
C134 C 0.2282(7) 0.9286(7) 0.9205(15)
C135 C 0.2458(8) 0.8995(9) 0.8869(9)
H108 H 0.2464 0.8998 0.8408
C136 C 0.2626(7) 0.8701(7) 0.9208(15)
H109 H 0.2747 0.8503 0.8979
C137 C 0.2090(6) 0.9657(5) 0.8882(11)
C138 C 0.2140(5) 1.0002(7) 0.9188(8)
H110 H 0.2262 1.0014 0.9598
C139 C 0.2011(6) 1.0331(5) 0.8895(10)
C140 C 0.1832(6) 1.0314(5) 0.8295(11)
H111 H 0.1744 1.0538 0.8095
C141 C 0.1782(5) 0.9968(7) 0.7989(8)
C142 C 0.1911(6) 0.9640(5) 0.8282(11)
H112 H 0.1877 0.9404 0.8072
C143 C 0.2075(7) 1.0742(7) 0.9712(13)
H113 H 0.2044 1.0527 0.9979
N27 N 0.2246(4) 1.1367(6) 0.9535(7)
C144 C 0.2129(5) 1.1109(4) 1.0001(11)
C145 C 0.2063(5) 1.1228(6) 1.0634(9)
H114 H 0.1983 1.1052 1.0953
C146 C 0.2113(6) 1.1604(7) 1.0801(8)
H115 H 0.2068 1.1685 1.1234
C147 C 0.2230(6) 1.1861(4) 1.0334(12)
H116 H 0.2265 1.2119 1.0448
C148 C 0.2297(5) 1.1743(6) 0.9701(10)
C149 C 0.2479(9) 1.2013(9) 0.9193(14)
H117 H 0.2353 1.1983 0.8773
H118 H 0.2747 1.1952 0.9147
H119 H 0.2452 1.2274 0.9340
C150 C 0.1461(8) 0.9667(10) 0.7223(16)
H120 H 0.1460 0.9478 0.7550
N28 N 0.1300(8) 0.9941(8) 0.628(2)
C151 C 0.1259(9) 0.9607(12) 0.6630(13)
C152 C 0.1115(10) 0.9288(8) 0.632(2)
H121 H 0.1087 0.9060 0.6561
C153 C 0.1012(10) 0.9304(11) 0.567(2)
H122 H 0.0914 0.9086 0.5465
C154 C 0.1053(10) 0.9638(15) 0.5329(13)
H123 H 0.0982 0.9649 0.4884
C155 C 0.1197(10) 0.9956(10) 0.563(2)
C156 C 0.1254(14) 1.0277(12) 0.515(2)
H124 H 0.1353 1.0499 0.5375
H125 H 0.1012 1.0340 0.4945
H126 H 0.1433 1.0198 0.4812
C157 C 0.3320(7) 0.5327(7) 0.9131(10)
H127 H 0.3290 0.5592 0.9011
H128 H 0.3079 0.5196 0.9078
H129 H 0.3510 0.5210 0.8851
N29 N 0.3589(3) 0.5631(3) 1.0067(7)
C158 C 0.3441(4) 0.5301(4) 0.9809(6)
C159 C 0.3386(4) 0.4988(3) 1.0206(7)
H130 H 0.3284 0.4763 1.0029
C160 C 0.3480(4) 0.5006(3) 1.0860(7)
H131 H 0.3443 0.4793 1.1131
C161 C 0.3629(4) 0.5336(4) 1.1118(6)
H132 H 0.3694 0.5348 1.1565
C162 C 0.3684(3) 0.5648(3) 1.0721(8)
C163 C 0.3821(6) 0.6008(5) 1.0948(11)
H133 H 0.3853 0.6057 1.1398
C164 C 0.4622(9) 0.6873(9) 1.2451(14)
H134 H 0.4432 0.6685 1.2418
N30 N 0.5022(7) 0.7234(8) 1.3050(12)
C165 C 0.4847(8) 0.6884(9) 1.3030(14)
C166 C 0.4866(10) 0.6645(7) 1.356(2)
H135 H 0.4747 0.6406 1.3552
C167 C 0.5060(11) 0.6757(10) 1.4119(15)
H136 H 0.5073 0.6594 1.4484
C168 C 0.5235(9) 0.7108(11) 1.4138(12)
H137 H 0.5367 0.7184 1.4516
C169 C 0.5216(7) 0.7346(7) 1.3603(16)
C170 C 0.5325(8) 0.7764(7) 1.3688(14)
H138 H 0.5599 0.7786 1.3723
H139 H 0.5208 0.7863 1.4084
H140 H 0.5237 0.7908 1.3312
C171 C 0.4271(4) 0.6657(4) 1.1298(6)
H141 H 0.4313 0.6451 1.1583
C172 C 0.4063(4) 0.6606(3) 1.0733(7)
C173 C 0.4001(3) 0.6907(3) 1.0315(6)
H142 H 0.3859 0.6872 0.9929
C174 C 0.4148(3) 0.7260(3) 1.0463(6)
C175 C 0.4357(4) 0.7311(3) 1.1028(6)
H143 H 0.4457 0.7552 1.1128
C176 C 0.4418(4) 0.7010(4) 1.1445(5)
C177 C 0.4105(4) 0.7582(3) 0.9984(5)
C178 C 0.4091(4) 0.7507(3) 0.9322(5)
H144 H 0.4082 0.7254 0.9172
C179 C 0.4090(4) 0.7802(4) 0.8878(5)
H145 H 0.4080 0.7751 0.8426
C180 C 0.4104(4) 0.8172(3) 0.9097(7)
C181 C 0.4118(4) 0.8247(3) 0.9759(7)
H146 H 0.4127 0.8500 0.9908
C182 C 0.4119(4) 0.7952(3) 1.0202(6)
H147 H 0.4129 0.8004 1.0655
C183 C 0.4128(4) 0.8483(4) 0.8550(7)
C184 C 0.4257(4) 0.8412(3) 0.7925(8)
H148 H 0.4322 0.8162 0.7800
C185 C 0.4290(4) 0.8705(5) 0.7482(6)
H149 H 0.4378 0.8657 0.7054
C186 C 0.4195(4) 0.9070(4) 0.7665(7)
C187 C 0.4066(4) 0.9141(3) 0.8290(8)
H150 H 0.4001 0.9390 0.8415
C188 C 0.4033(4) 0.8847(5) 0.8733(6)
H151 H 0.3945 0.8896 0.9161
C189 C 0.4250(4) 0.9390(4) 0.7170(7)
C190 C 0.4359(4) 0.9742(5) 0.7397(6)
H152 H 0.4422 0.9775 0.7841
C191 C 0.4375(4) 1.0047(4) 0.6973(9)
C192 C 0.4282(4) 0.9999(4) 0.6322(8)
H153 H 0.4292 1.0206 0.6032
C193 C 0.4173(4) 0.9646(5) 0.6096(6)
C194 C 0.4157(4) 0.9342(3) 0.6520(8)
H154 H 0.4083 0.9101 0.6365
C195 C 0.4138(7) 0.9298(7) 0.5160(10)
H155 H 0.4270 0.9104 0.5381
N31 N 0.3755(6) 0.9530(5) 0.4295(11)
C196 C 0.4000(6) 0.9252(7) 0.4511(8)
C197 C 0.4124(6) 0.8974(6) 0.4086(13)
H156 H 0.4292 0.8784 0.4234
C198 C 0.4003(7) 0.8974(6) 0.3445(12)
H157 H 0.4087 0.8784 0.3154
C199 C 0.3757(7) 0.9252(7) 0.3228(8)
H158 H 0.3674 0.9253 0.2790
C200 C 0.3633(5) 0.9530(6) 0.3653(12)
C201 C 0.3393(9) 0.9859(8) 0.3387(16)
H159 H 0.3126 0.9788 0.3396
H160 H 0.3469 0.9914 0.2939
H161 H 0.3433 1.0083 0.3656
C202 C 0.4646(7) 1.0493(6) 0.7657(14)
H162 H 0.4744 1.0288 0.7902
N32 N 0.4608(4) 1.1148(5) 0.7421(6)
C203 C 0.4712(4) 1.0878(3) 0.7875(8)
C204 C 0.4875(4) 1.0988(4) 0.8460(7)
H163 H 0.4946 1.0803 0.8771
C205 C 0.4933(4) 1.1368(5) 0.8589(6)
H164 H 0.5044 1.1443 0.8988
C206 C 0.4829(4) 1.1638(3) 0.8134(8)
H165 H 0.4869 1.1898 0.8223
C207 C 0.4666(4) 1.1528(4) 0.7550(7)
C208 C 0.4500(9) 1.1781(9) 0.7020(13)
H166 H 0.4536 1.2046 0.7140
H167 H 0.4231 1.1728 0.6974
H168 H 0.4628 1.1730 0.6608
B1 B 0.4399(9) 0.7129(9) 0.7458(15)
F1 F 0.4591(6) 0.7477(6) 0.7447(10)
F2 F 0.4032(10) 0.7212(11) 0.761(2)
F3 F 0.4534(13) 0.6901(11) 0.7948(19)
F4 F 0.4392(6) 0.7002(6) 0.6821(11)
B2 B 0.7289(9) 0.8300(9) 0.5384(16)
F7 F 0.7677(6) 0.8302(6) 0.5284(10)
F8 F 0.7140(6) 0.8634(6) 0.5187(10)
F9 F 0.7221(6) 0.8261(6) 0.6027(11)
F10 F 0.7115(6) 0.8005(6) 0.5077(10)
B3 B 0.3842(4) 0.5797(3) 1.2829(7)
F11 F 0.3513(4) 0.5854(3) 1.2467(8)
F12 F 0.3768(5) 0.5863(4) 1.3488(7)
F13 F 0.4123(4) 0.6046(4) 1.2614(9)
F14 F 0.3966(5) 0.5425(3) 1.2747(7)
B4 B 0.0803(4) 1.2743(3) 0.7808(7)
F15 F 0.0728(5) 1.2538(3) 0.7240(7)
F16 F 0.1187(4) 1.2835(3) 0.7833(8)
F17 F 0.0708(4) 1.2524(4) 0.8351(7)
F18 F 0.0588(4) 1.3074(3) 0.7810(7)
loop_
_geom_bond_atom_site_label_1
_geom_bond_atom_site_label_2
_geom_bond_site_symmetry_1
_geom_bond_site_symmetry_2
Cu1 N1 1_555 1_555
Cu2 N3 1_555 1_555
Cu3 N5 1_555 1_555
Cu4 N7 1_555 1_555
Cu5 N9 1_555 1_555
Cu6 N11 1_555 1_555
Cu7 N13 1_555 1_555
Cu8 N15 1_555 1_555
N1 C7 1_555 1_555
N2 Cu1 1_555 1_555
N3 C8 1_555 1_555
N4 Cu2 1_555 1_555
N5 C111 1_555 1_555
N6 Cu3 1_555 1_555
N7 C59 1_555 1_555
N8 Cu4 1_555 1_555
N9 C141 1_555 1_555
N10 Cu5 1_555 1_555
N11 C139 1_555 1_555
N12 Cu6 1_555 1_555
N13 C193 1_555 1_555
N14 Cu7 1_555 1_555
N15 C87 1_555 1_555
N16 Cu8 1_555 1_555
C1 H1 1_555 1_555
H2 C1 1_555 1_555
H3 C1 1_555 1_555
N17 Cu1 1_555 1_555
C2 C1 1_555 1_555
C3 C2 1_555 1_555
H4 C3 1_555 1_555
C4 C3 1_555 1_555
H5 C4 1_555 1_555
C5 C4 1_555 1_555
H6 C5 1_555 1_555
C6 N17 1_555 1_555
C7 C6 1_555 1_555
H7 C7 1_555 1_555
C8 H8 1_555 1_555
N18 Cu2 1_555 1_555
C9 C8 1_555 1_555
C10 C9 1_555 1_555
H9 C10 1_555 1_555
C11 C10 1_555 1_555
H10 C11 1_555 1_555
C12 C11 1_555 1_555
H11 C12 1_555 1_555
C13 N18 1_555 1_555
C14 C13 1_555 1_555
H12 C14 1_555 1_555
H13 C14 1_555 1_555
H14 C14 1_555 1_555
C15 H15 1_555 1_555
C16 N1 1_555 1_555
C17 C16 1_555 1_555
H16 C17 1_555 1_555
C18 C17 1_555 1_555
C19 C18 1_555 1_555
H17 C19 1_555 1_555
C20 N3 1_555 1_555
C21 C18 1_555 1_555
C22 C21 1_555 1_555
H18 C22 1_555 1_555
C23 C22 1_555 1_555
H19 C23 1_555 1_555
C24 C23 1_555 1_555
C25 C24 1_555 1_555
H20 C25 1_555 1_555
C26 C21 1_555 1_555
H21 C26 1_555 1_555
C27 C24 1_555 1_555
C28 C27 1_555 1_555
H22 C28 1_555 1_555
C29 C28 1_555 1_555
H23 C29 1_555 1_555
C30 C29 1_555 1_555
C31 C30 1_555 1_555
H24 C31 1_555 1_555
C32 C27 1_555 1_555
H25 C32 1_555 1_555
C33 C30 1_555 1_555
C34 C33 1_555 1_555
H26 C34 1_555 1_555
C35 N10 1_555 1_555
C36 C35 1_555 1_555
H27 C36 1_555 1_555
C37 N14 1_555 1_555
C38 C33 1_555 1_555
H28 C38 1_555 1_555
C39 N14 1_555 1_555
H29 C39 1_555 1_555
N19 Cu7 1_555 1_555
C40 C39 1_555 1_555
C41 C40 1_555 1_555
H30 C41 1_555 1_555
C42 C41 1_555 1_555
H31 C42 1_555 1_555
C43 C42 1_555 1_555
H32 C43 1_555 1_555
C44 N19 1_555 1_555
C45 C44 1_555 1_555
H33 C45 1_555 1_555
H34 C45 1_555 1_555
H35 C45 1_555 1_555
C46 N10 1_555 1_555
H36 C46 1_555 1_555
N20 Cu5 1_555 1_555
C47 C46 1_555 1_555
C48 C47 1_555 1_555
H37 C48 1_555 1_555
C49 C48 1_555 1_555
H38 C49 1_555 1_555
C50 C49 1_555 1_555
H39 C50 1_555 1_555
C51 N20 1_555 1_555
C52 C51 1_555 1_555
H40 C52 1_555 1_555
H41 C52 1_555 1_555
H42 C52 1_555 1_555
C53 H43 1_555 1_555
H44 C53 1_555 1_555
H45 C53 1_555 1_555
N21 Cu4 1_555 1_555
C54 C53 1_555 1_555
C55 C54 1_555 1_555
H46 C55 1_555 1_555
C56 C55 1_555 1_555
H47 C56 1_555 1_555
C57 C56 1_555 1_555
H48 C57 1_555 1_555
C58 N21 1_555 1_555
C59 C58 1_555 1_555
H49 C59 1_555 1_555
C60 N6 1_555 1_555
H50 C60 1_555 1_555
N22 Cu3 1_555 1_555
C61 C60 1_555 1_555
C62 C61 1_555 1_555
H51 C62 1_555 1_555
C63 C62 1_555 1_555
H52 C63 1_555 1_555
C64 C63 1_555 1_555
H53 C64 1_555 1_555
C65 N22 1_555 1_555
C66 C65 1_555 1_555
H54 C66 1_555 1_555
H55 C66 1_555 1_555
H56 C66 1_555 1_555
C67 N7 1_555 1_555
C68 C67 1_555 1_555
H57 C68 1_555 1_555
C69 N6 1_555 1_555
C70 C69 1_555 1_555
H58 C70 1_555 1_555
C71 C70 1_555 1_555
C72 C67 1_555 1_555
H59 C72 1_555 1_555
C73 C71 1_555 1_555
C74 C73 1_555 1_555
H60 C74 1_555 1_555
C75 C74 1_555 1_555
H61 C75 1_555 1_555
C76 C75 1_555 1_555
C77 C76 1_555 1_555
H62 C77 1_555 1_555
C78 C73 1_555 1_555
H63 C78 1_555 1_555
C79 C76 1_555 1_555
C80 C79 1_555 1_555
H64 C80 1_555 1_555
C81 C80 1_555 1_555
H65 C81 1_555 1_555
C82 C81 1_555 1_555
C83 C82 1_555 1_555
H66 C83 1_555 1_555
C84 C79 1_555 1_555
H67 C84 1_555 1_555
C85 C82 1_555 1_555
C86 C85 1_555 1_555
H68 C86 1_555 1_555
C87 C86 1_555 1_555
C88 C87 1_555 1_555
H69 C88 1_555 1_555
C89 N12 1_555 1_555
C90 C85 1_555 1_555
H70 C90 1_555 1_555
C91 N15 1_555 1_555
H71 C91 1_555 1_555
N23 Cu8 1_555 1_555
C92 C91 1_555 1_555
C93 C92 1_555 1_555
H72 C93 1_555 1_555
C94 C93 1_555 1_555
H73 C94 1_555 1_555
C95 C94 1_555 1_555
H74 C95 1_555 1_555
C96 N23 1_555 1_555
C97 C96 1_555 1_555
H75 C97 1_555 1_555
H76 C97 1_555 1_555
H77 C97 1_555 1_555
C98 N12 1_555 1_555
H78 C98 1_555 1_555
N24 Cu6 1_555 1_555
C99 C98 1_555 1_555
C100 C99 1_555 1_555
H79 C100 1_555 1_555
C101 C100 1_555 1_555
H80 C101 1_555 1_555
C102 C101 1_555 1_555
H81 C102 1_555 1_555
C103 N24 1_555 1_555
C104 C103 1_555 1_555
H82 C104 1_555 1_555
H83 C104 1_555 1_555
H84 C104 1_555 1_555
C105 H85 1_555 1_555
H86 C105 1_555 1_555
H87 C105 1_555 1_555
N25 Cu3 1_555 1_555
C106 C105 1_555 1_555
C107 C106 1_555 1_555
H88 C107 1_555 1_555
C108 C107 1_555 1_555
H89 C108 1_555 1_555
C109 C108 1_555 1_555
H90 C109 1_555 1_555
C110 N25 1_555 1_555
C111 C110 1_555 1_555
H91 C111 1_555 1_555
C112 N4 1_555 1_555
H92 C112 1_555 1_555
N26 Cu2 1_555 1_555
C113 C112 1_555 1_555
C114 C113 1_555 1_555
H93 C114 1_555 1_555
C115 C114 1_555 1_555
H94 C115 1_555 1_555
C116 C115 1_555 1_555
H95 C116 1_555 1_555
C117 N26 1_555 1_555
C118 C117 1_555 1_555
H96 C118 1_555 1_555
H97 C118 1_555 1_555
H98 C118 1_555 1_555
C119 N5 1_555 1_555
C120 C119 1_555 1_555
H99 C120 1_555 1_555
C121 C120 1_555 1_555
C122 C121 1_555 1_555
H100 C122 1_555 1_555
C123 N4 1_555 1_555
C124 C119 1_555 1_555
H101 C124 1_555 1_555
C125 C121 1_555 1_555
C126 C125 1_555 1_555
H102 C126 1_555 1_555
C127 C126 1_555 1_555
H103 C127 1_555 1_555
C128 C127 1_555 1_555
C129 C128 1_555 1_555
H104 C129 1_555 1_555
C130 C125 1_555 1_555
H105 C130 1_555 1_555
C131 C128 1_555 1_555
C132 C131 1_555 1_555
H106 C132 1_555 1_555
C133 C132 1_555 1_555
H107 C133 1_555 1_555
C134 C133 1_555 1_555
C135 C134 1_555 1_555
H108 C135 1_555 1_555
C136 C131 1_555 1_555
H109 C136 1_555 1_555
C137 C134 1_555 1_555
C138 C137 1_555 1_555
H110 C138 1_555 1_555
C139 C138 1_555 1_555
C140 C139 1_555 1_555
H111 C140 1_555 1_555
C141 C140 1_555 1_555
C142 C137 1_555 1_555
H112 C142 1_555 1_555
C143 N11 1_555 1_555
H113 C143 1_555 1_555
N27 Cu6 1_555 1_555
C144 C143 1_555 1_555
C145 C144 1_555 1_555
H114 C145 1_555 1_555
C146 C145 1_555 1_555
H115 C146 1_555 1_555
C147 C146 1_555 1_555
H116 C147 1_555 1_555
C148 N27 1_555 1_555
C149 C148 1_555 1_555
H117 C149 1_555 1_555
H118 C149 1_555 1_555
H119 C149 1_555 1_555
C150 N9 1_555 1_555
H120 C150 1_555 1_555
N28 Cu5 1_555 1_555
C151 C150 1_555 1_555
C152 C151 1_555 1_555
H121 C152 1_555 1_555
C153 C152 1_555 1_555
H122 C153 1_555 1_555
C154 C153 1_555 1_555
H123 C154 1_555 1_555
C155 N28 1_555 1_555
C156 C155 1_555 1_555
H124 C156 1_555 1_555
H125 C156 1_555 1_555
H126 C156 1_555 1_555
C157 H127 1_555 1_555
H128 C157 1_555 1_555
H129 C157 1_555 1_555
N29 Cu1 1_555 1_555
C158 C157 1_555 1_555
C159 C158 1_555 1_555
H130 C159 1_555 1_555
C160 C159 1_555 1_555
H131 C160 1_555 1_555
C161 C160 1_555 1_555
H132 C161 1_555 1_555
C162 N29 1_555 1_555
C163 N2 1_555 1_555
H133 C163 1_555 1_555
C164 N8 1_555 1_555
H134 C164 1_555 1_555
N30 Cu4 1_555 1_555
C165 C164 1_555 1_555
C166 C165 1_555 1_555
H135 C166 1_555 1_555
C167 C166 1_555 1_555
H136 C167 1_555 1_555
C168 C167 1_555 1_555
H137 C168 1_555 1_555
C169 N30 1_555 1_555
C170 C169 1_555 1_555
H138 C170 1_555 1_555
H139 C170 1_555 1_555
H140 C170 1_555 1_555
C171 H141 1_555 1_555
C172 N2 1_555 1_555
C173 C172 1_555 1_555
H142 C173 1_555 1_555
C174 C173 1_555 1_555
C175 C174 1_555 1_555
H143 C175 1_555 1_555
C176 N8 1_555 1_555
C177 C174 1_555 1_555
C178 C177 1_555 1_555
H144 C178 1_555 1_555
C179 C178 1_555 1_555
H145 C179 1_555 1_555
C180 C179 1_555 1_555
C181 C180 1_555 1_555
H146 C181 1_555 1_555
C182 C177 1_555 1_555
H147 C182 1_555 1_555
C183 C180 1_555 1_555
C184 C183 1_555 1_555
H148 C184 1_555 1_555
C185 C184 1_555 1_555
H149 C185 1_555 1_555
C186 C185 1_555 1_555
C187 C186 1_555 1_555
H150 C187 1_555 1_555
C188 C183 1_555 1_555
H151 C188 1_555 1_555
C189 C186 1_555 1_555
C190 C189 1_555 1_555
H152 C190 1_555 1_555
C191 N16 1_555 1_555
C192 C191 1_555 1_555
H153 C192 1_555 1_555
C193 C192 1_555 1_555
C194 C189 1_555 1_555
H154 C194 1_555 1_555
C195 N13 1_555 1_555
H155 C195 1_555 1_555
N31 Cu7 1_555 1_555
C196 C195 1_555 1_555
C197 C196 1_555 1_555
H156 C197 1_555 1_555
C198 C197 1_555 1_555
H157 C198 1_555 1_555
C199 C198 1_555 1_555
H158 C199 1_555 1_555
C200 N31 1_555 1_555
C201 C200 1_555 1_555
H159 C201 1_555 1_555
H160 C201 1_555 1_555
H161 C201 1_555 1_555
C202 N16 1_555 1_555
H162 C202 1_555 1_555
N32 Cu8 1_555 1_555
C203 C202 1_555 1_555
C204 C203 1_555 1_555
H163 C204 1_555 1_555
C205 C204 1_555 1_555
H164 C205 1_555 1_555
C206 C205 1_555 1_555
H165 C206 1_555 1_555
C207 N32 1_555 1_555
C208 C207 1_555 1_555
H166 C208 1_555 1_555
H167 C208 1_555 1_555
H168 C208 1_555 1_555
B1 F1 1_555 1_555
F2 B1 1_555 1_555
F3 B1 1_555 1_555
F4 B1 1_555 1_555
B2 F7 1_555 1_555
F8 B2 1_555 1_555
F9 B2 1_555 1_555
F10 B2 1_555 1_555
B3 F11 1_555 1_555
F12 B3 1_555 1_555
F13 B3 1_555 1_555
F14 B3 1_555 1_555
B4 F15 1_555 1_555
F16 B4 1_555 1_555
F17 B4 1_555 1_555
F18 B4 1_555 1_555
N17 C2 1_555 1_555
C5 C6 1_555 1_555
N18 C9 1_555 1_555
C12 C13 1_555 1_555
C15 C16 1_555 1_555
C15 C20 1_555 1_555
C19 C20 1_555 1_555
C25 C26 1_555 1_555
C31 C32 1_555 1_555
C34 C35 1_555 1_555
C36 C37 1_555 1_555
C37 C38 1_555 1_555
N19 C40 1_555 1_555
C43 C44 1_555 1_555
N20 C47 1_555 1_555
C50 C51 1_555 1_555
N21 C54 1_555 1_555
C57 C58 1_555 1_555
N22 C61 1_555 1_555
C64 C65 1_555 1_555
C68 C69 1_555 1_555
C71 C72 1_555 1_555
C77 C78 1_555 1_555
C83 C84 1_555 1_555
C88 C89 1_555 1_555
C89 C90 1_555 1_555
N23 C92 1_555 1_555
C95 C96 1_555 1_555
N24 C99 1_555 1_555
C102 C103 1_555 1_555
N25 C106 1_555 1_555
C109 C110 1_555 1_555
N26 C113 1_555 1_555
C116 C117 1_555 1_555
C122 C123 1_555 1_555
C123 C124 1_555 1_555
C129 C130 1_555 1_555
C135 C136 1_555 1_555
C141 C142 1_555 1_555
N27 C144 1_555 1_555
C147 C148 1_555 1_555
N28 C151 1_555 1_555
C154 C155 1_555 1_555
N29 C158 1_555 1_555
C161 C162 1_555 1_555
C162 C163 1_555 1_555
N30 C165 1_555 1_555
C168 C169 1_555 1_555
C171 C172 1_555 1_555
C171 C176 1_555 1_555
C175 C176 1_555 1_555
C181 C182 1_555 1_555
C187 C188 1_555 1_555
C190 C191 1_555 1_555
C193 C194 1_555 1_555
N31 C196 1_555 1_555
C199 C200 1_555 1_555
N32 C203 1_555 1_555
C206 C207 1_555 1_555

#END
