# generated using pymatgen
data_Cu4B2H84C104N16F9
_symmetry_space_group_name_H-M   'P 1'
_cell_length_a   20.59300000
_cell_length_b   35.49200000
_cell_length_c   35.49200000
_cell_angle_alpha   90.00000000
_cell_angle_beta   90.00000000
_cell_angle_gamma   90.00000000
_symmetry_Int_Tables_number   1
_chemical_formula_structural   Cu4B2H84C104N16F9
_chemical_formula_sum   'Cu32 B16 H672 C832 N128 F72'
_cell_volume   25940.63274395
_cell_formula_units_Z   8
loop_
 _symmetry_equiv_pos_site_id
 _symmetry_equiv_pos_as_xyz
  1  'x, y, z'
loop_
 _atom_site_type_symbol
 _atom_site_label
 _atom_site_symmetry_multiplicity
 _atom_site_fract_x
 _atom_site_fract_y
 _atom_site_fract_z
 _atom_site_occupancy
  Cu  Cu1  1  0.960340  0.379730  0.609660  1
  Cu  Cu2  1  0.960340  0.620270  0.390340  1
  Cu  Cu3  1  0.039660  0.609660  0.620270  1
  Cu  Cu4  1  0.039660  0.390340  0.379730  1
  Cu  Cu5  1  0.044830  0.240650  0.632080  1
  Cu  Cu6  1  0.044830  0.759350  0.367920  1
  Cu  Cu7  1  0.955170  0.632080  0.759350  1
  Cu  Cu8  1  0.955170  0.367920  0.240650  1
  Cu  Cu9  1  0.328090  0.357210  0.758450  1
  Cu  Cu10  1  0.328090  0.642790  0.241550  1
  Cu  Cu11  1  0.671910  0.758450  0.642790  1
  Cu  Cu12  1  0.671910  0.241550  0.357210  1
  Cu  Cu13  1  0.225610  0.497210  0.753930  1
  Cu  Cu14  1  0.225610  0.502790  0.246070  1
  Cu  Cu15  1  0.774390  0.753930  0.502790  1
  Cu  Cu16  1  0.774390  0.246070  0.497210  1
  Cu  Cu17  1  0.669700  0.161890  0.032860  1
  Cu  Cu18  1  0.669700  0.838110  0.967140  1
  Cu  Cu19  1  0.330300  0.032860  0.838110  1
  Cu  Cu20  1  0.330300  0.967140  0.161890  1
  Cu  Cu21  1  0.862700  0.218750  0.116200  1
  Cu  Cu22  1  0.862700  0.781250  0.883800  1
  Cu  Cu23  1  0.137300  0.116200  0.781250  1
  Cu  Cu24  1  0.137300  0.883800  0.218750  1
  Cu  Cu25  1  0.493190  0.377570  0.999830  1
  Cu  Cu26  1  0.493190  0.622430  0.000170  1
  Cu  Cu27  1  0.506810  0.999830  0.622430  1
  Cu  Cu28  1  0.506810  0.000170  0.377570  1
  Cu  Cu29  1  0.669800  0.429670  0.089930  1
  Cu  Cu30  1  0.669800  0.570330  0.910070  1
  Cu  Cu31  1  0.330200  0.089930  0.570330  1
  Cu  Cu32  1  0.330200  0.910070  0.429670  1
  B  B33  1  0.745800  0.439900  0.712900  1
  B  B34  1  0.745800  0.560100  0.287100  1
  B  B35  1  0.254200  0.712900  0.560100  1
  B  B36  1  0.254200  0.287100  0.439900  1
  B  B37  1  0.538400  0.728900  0.830000  1
  B  B38  1  0.538400  0.271100  0.170000  1
  B  B39  1  0.461600  0.830000  0.271100  1
  B  B40  1  0.461600  0.170000  0.728900  1
  B  B41  1  0.282900  0.384200  0.579700  1
  B  B42  1  0.282900  0.615800  0.420300  1
  B  B43  1  0.717100  0.579700  0.615800  1
  B  B44  1  0.717100  0.420300  0.384200  1
  B  B45  1  0.780800  0.080300  0.274300  1
  B  B46  1  0.780800  0.919700  0.725700  1
  B  B47  1  0.219200  0.274300  0.919700  1
  B  B48  1  0.219200  0.725700  0.080300  1
  H  H49  1  0.962500  0.441000  0.529100  1
  H  H50  1  0.962500  0.559000  0.470900  1
  H  H51  1  0.037500  0.529100  0.559000  1
  H  H52  1  0.037500  0.470900  0.441000  1
  H  H53  1  0.996400  0.444200  0.569500  1
  H  H54  1  0.996400  0.555800  0.430500  1
  H  H55  1  0.003600  0.569500  0.555800  1
  H  H56  1  0.003600  0.430500  0.444200  1
  H  H57  1  0.972800  0.481400  0.548100  1
  H  H58  1  0.972800  0.518600  0.451900  1
  H  H59  1  0.027200  0.548100  0.518600  1
  H  H60  1  0.027200  0.451900  0.481400  1
  H  H61  1  0.849600  0.495800  0.547900  1
  H  H62  1  0.849600  0.504200  0.452100  1
  H  H63  1  0.150400  0.547900  0.504200  1
  H  H64  1  0.150400  0.452100  0.495800  1
  H  H65  1  0.750000  0.483800  0.577300  1
  H  H66  1  0.750000  0.516200  0.422700  1
  H  H67  1  0.250000  0.577300  0.516200  1
  H  H68  1  0.250000  0.422700  0.483800  1
  H  H69  1  0.739400  0.432700  0.618400  1
  H  H70  1  0.739400  0.567300  0.381600  1
  H  H71  1  0.260600  0.618400  0.567300  1
  H  H72  1  0.260600  0.381600  0.432700  1
  H  H73  1  0.796500  0.372400  0.651000  1
  H  H74  1  0.796500  0.627600  0.349000  1
  H  H75  1  0.203500  0.651000  0.627600  1
  H  H76  1  0.203500  0.349000  0.372400  1
  H  H77  1  0.908500  0.193900  0.685000  1
  H  H78  1  0.908500  0.806100  0.315000  1
  H  H79  1  0.091500  0.685000  0.806100  1
  H  H80  1  0.091500  0.315000  0.193900  1
  H  H81  1  0.951000  0.125800  0.688200  1
  H  H82  1  0.951000  0.874200  0.311800  1
  H  H83  1  0.049000  0.688200  0.874200  1
  H  H84  1  0.049000  0.311800  0.125800  1
  H  H85  1  0.033200  0.082500  0.674000  1
  H  H86  1  0.033200  0.917500  0.326000  1
  H  H87  1  0.966800  0.674000  0.917500  1
  H  H88  1  0.966800  0.326000  0.082500  1
  H  H89  1  0.127500  0.102700  0.643200  1
  H  H90  1  0.127500  0.897300  0.356800  1
  H  H91  1  0.872500  0.643200  0.897300  1
  H  H92  1  0.872500  0.356800  0.102700  1
  H  H93  1  0.183800  0.191600  0.636100  1
  H  H94  1  0.183800  0.808400  0.363900  1
  H  H95  1  0.816200  0.636100  0.808400  1
  H  H96  1  0.816200  0.363900  0.191600  1
  H  H97  1  0.147500  0.187800  0.596400  1
  H  H98  1  0.147500  0.812200  0.403600  1
  H  H99  1  0.852500  0.596400  0.812200  1
  H  H100  1  0.852500  0.403600  0.187800  1
  H  H101  1  0.190700  0.153700  0.612100  1
  H  H102  1  0.190700  0.846300  0.387900  1
  H  H103  1  0.809300  0.612100  0.846300  1
  H  H104  1  0.809300  0.387900  0.153700  1
  H  H105  1  0.949500  0.297500  0.632900  1
  H  H106  1  0.949500  0.702500  0.367100  1
  H  H107  1  0.050500  0.632900  0.702500  1
  H  H108  1  0.050500  0.367100  0.297500  1
  H  H109  1  0.820700  0.347200  0.703500  1
  H  H110  1  0.820700  0.652800  0.296500  1
  H  H111  1  0.179300  0.703500  0.652800  1
  H  H112  1  0.179300  0.296500  0.347200  1
  H  H113  1  0.885600  0.241600  0.725300  1
  H  H114  1  0.885600  0.758400  0.274700  1
  H  H115  1  0.114400  0.725300  0.758400  1
  H  H116  1  0.114400  0.274700  0.241600  1
  H  H117  1  0.807800  0.234800  0.761600  1
  H  H118  1  0.807800  0.765200  0.238400  1
  H  H119  1  0.192200  0.761600  0.765200  1
  H  H120  1  0.192200  0.238400  0.234800  1
  H  H121  1  0.762500  0.232700  0.822100  1
  H  H122  1  0.762500  0.767300  0.177900  1
  H  H123  1  0.237500  0.822100  0.767300  1
  H  H124  1  0.237500  0.177900  0.232700  1
  H  H125  1  0.765000  0.346800  0.826800  1
  H  H126  1  0.765000  0.653200  0.173200  1
  H  H127  1  0.235000  0.826800  0.653200  1
  H  H128  1  0.235000  0.173200  0.346800  1
  H  H129  1  0.810400  0.348900  0.766300  1
  H  H130  1  0.810400  0.651100  0.233700  1
  H  H131  1  0.189600  0.766300  0.651100  1
  H  H132  1  0.189600  0.233700  0.348900  1
  H  H133  1  0.753800  0.341500  0.885800  1
  H  H134  1  0.753800  0.658500  0.114200  1
  H  H135  1  0.246200  0.885800  0.658500  1
  H  H136  1  0.246200  0.114200  0.341500  1
  H  H137  1  0.705400  0.338900  0.945400  1
  H  H138  1  0.705400  0.661100  0.054600  1
  H  H139  1  0.294600  0.945400  0.661100  1
  H  H140  1  0.294600  0.054600  0.338900  1
  H  H141  1  0.661000  0.229000  0.928400  1
  H  H142  1  0.661000  0.771000  0.071600  1
  H  H143  1  0.339000  0.928400  0.771000  1
  H  H144  1  0.339000  0.071600  0.229000  1
  H  H145  1  0.709300  0.231600  0.868800  1
  H  H146  1  0.709300  0.768400  0.131200  1
  H  H147  1  0.290700  0.868800  0.768400  1
  H  H148  1  0.290700  0.131200  0.231600  1
  H  H149  1  0.687300  0.230700  0.995100  1
  H  H150  1  0.687300  0.769300  0.004900  1
  H  H151  1  0.312700  0.995100  0.769300  1
  H  H152  1  0.312700  0.004900  0.230700  1
  H  H153  1  0.546700  0.266600  0.066500  1
  H  H154  1  0.546700  0.733400  0.933500  1
  H  H155  1  0.453300  0.066500  0.733400  1
  H  H156  1  0.453300  0.933500  0.266600  1
  H  H157  1  0.598500  0.331000  0.977100  1
  H  H158  1  0.598500  0.669000  0.022900  1
  H  H159  1  0.401500  0.977100  0.669000  1
  H  H160  1  0.401500  0.022900  0.331000  1
  H  H161  1  0.475400  0.308300  0.072000  1
  H  H162  1  0.475400  0.691700  0.928000  1
  H  H163  1  0.524600  0.072000  0.691700  1
  H  H164  1  0.524600  0.928000  0.308300  1
  H  H165  1  0.378700  0.332500  0.110500  1
  H  H166  1  0.378700  0.667500  0.889500  1
  H  H167  1  0.621300  0.110500  0.667500  1
  H  H168  1  0.621300  0.889500  0.332500  1
  H  H169  1  0.303900  0.381300  0.119500  1
  H  H170  1  0.303900  0.618700  0.880500  1
  H  H171  1  0.696100  0.119500  0.618700  1
  H  H172  1  0.696100  0.880500  0.381300  1
  H  H173  1  0.310100  0.435800  0.082500  1
  H  H174  1  0.310100  0.564200  0.917500  1
  H  H175  1  0.689900  0.082500  0.564200  1
  H  H176  1  0.689900  0.917500  0.435800  1
  H  H177  1  0.368400  0.440700  0.999200  1
  H  H178  1  0.368400  0.559300  0.000800  1
  H  H179  1  0.631600  0.999200  0.559300  1
  H  H180  1  0.631600  0.000800  0.440700  1
  H  H181  1  0.441300  0.448900  0.012500  1
  H  H182  1  0.441300  0.551100  0.987500  1
  H  H183  1  0.558700  0.012500  0.551100  1
  H  H184  1  0.558700  0.987500  0.448900  1
  H  H185  1  0.382500  0.472800  0.029800  1
  H  H186  1  0.382500  0.527200  0.970200  1
  H  H187  1  0.617500  0.029800  0.527200  1
  H  H188  1  0.617500  0.970200  0.472800  1
  H  H189  1  0.569500  0.219900  0.099100  1
  H  H190  1  0.569500  0.780100  0.900900  1
  H  H191  1  0.430500  0.099100  0.780100  1
  H  H192  1  0.430500  0.900900  0.219900  1
  H  H193  1  0.547600  0.167900  0.150200  1
  H  H194  1  0.547600  0.832100  0.849800  1
  H  H195  1  0.452400  0.150200  0.832100  1
  H  H196  1  0.452400  0.849800  0.167900  1
  H  H197  1  0.572400  0.108300  0.174400  1
  H  H198  1  0.572400  0.891700  0.825600  1
  H  H199  1  0.427600  0.174400  0.891700  1
  H  H200  1  0.427600  0.825600  0.108300  1
  H  H201  1  0.648900  0.070200  0.144000  1
  H  H202  1  0.648900  0.929800  0.856000  1
  H  H203  1  0.351100  0.144000  0.929800  1
  H  H204  1  0.351100  0.856000  0.070200  1
  H  H205  1  0.688300  0.061800  0.065200  1
  H  H206  1  0.688300  0.938200  0.934800  1
  H  H207  1  0.311700  0.065200  0.938200  1
  H  H208  1  0.311700  0.934800  0.061800  1
  H  H209  1  0.751000  0.073700  0.089000  1
  H  H210  1  0.751000  0.926300  0.911000  1
  H  H211  1  0.249000  0.089000  0.926300  1
  H  H212  1  0.249000  0.911000  0.073700  1
  H  H213  1  0.728300  0.098700  0.053900  1
  H  H214  1  0.728300  0.901300  0.946100  1
  H  H215  1  0.271700  0.053900  0.901300  1
  H  H216  1  0.271700  0.946100  0.098700  1
  H  H217  1  0.248900  0.610500  0.711800  1
  H  H218  1  0.248900  0.389500  0.288200  1
  H  H219  1  0.751100  0.711800  0.389500  1
  H  H220  1  0.751100  0.288200  0.610500  1
  H  H221  1  0.186500  0.585900  0.701100  1
  H  H222  1  0.186500  0.414100  0.298900  1
  H  H223  1  0.813500  0.701100  0.414100  1
  H  H224  1  0.813500  0.298900  0.585900  1
  H  H225  1  0.254000  0.565500  0.710200  1
  H  H226  1  0.254000  0.434500  0.289800  1
  H  H227  1  0.746000  0.710200  0.434500  1
  H  H228  1  0.746000  0.289800  0.565500  1
  H  H229  1  0.201900  0.641500  0.766300  1
  H  H230  1  0.201900  0.358500  0.233700  1
  H  H231  1  0.798100  0.766300  0.358500  1
  H  H232  1  0.798100  0.233700  0.641500  1
  H  H233  1  0.185800  0.638600  0.831500  1
  H  H234  1  0.185800  0.361400  0.168500  1
  H  H235  1  0.814200  0.831500  0.361400  1
  H  H236  1  0.814200  0.168500  0.638600  1
  H  H237  1  0.181600  0.580100  0.861800  1
  H  H238  1  0.181600  0.419900  0.138200  1
  H  H239  1  0.818400  0.861800  0.419900  1
  H  H240  1  0.818400  0.138200  0.580100  1
  H  H241  1  0.184600  0.508200  0.854300  1
  H  H242  1  0.184600  0.491800  0.145700  1
  H  H243  1  0.815400  0.854300  0.491800  1
  H  H244  1  0.815400  0.145700  0.508200  1
  H  H245  1  0.303000  0.338500  0.857200  1
  H  H246  1  0.303000  0.661500  0.142800  1
  H  H247  1  0.697000  0.857200  0.661500  1
  H  H248  1  0.697000  0.142800  0.338500  1
  H  H249  1  0.367600  0.274100  0.867400  1
  H  H250  1  0.367600  0.725900  0.132600  1
  H  H251  1  0.632400  0.867400  0.725900  1
  H  H252  1  0.632400  0.132600  0.274100  1
  H  H253  1  0.446000  0.233400  0.842400  1
  H  H254  1  0.446000  0.766600  0.157600  1
  H  H255  1  0.554000  0.842400  0.766600  1
  H  H256  1  0.554000  0.157600  0.233400  1
  H  H257  1  0.481100  0.241100  0.780100  1
  H  H258  1  0.481100  0.758900  0.219900  1
  H  H259  1  0.518900  0.780100  0.758900  1
  H  H260  1  0.518900  0.219900  0.241100  1
  H  H261  1  0.421000  0.320400  0.719700  1
  H  H262  1  0.421000  0.679600  0.280300  1
  H  H263  1  0.579000  0.719700  0.679600  1
  H  H264  1  0.579000  0.280300  0.320400  1
  H  H265  1  0.404100  0.277400  0.710600  1
  H  H266  1  0.404100  0.722600  0.289400  1
  H  H267  1  0.595900  0.710600  0.722600  1
  H  H268  1  0.595900  0.289400  0.277400  1
  H  H269  1  0.477800  0.289700  0.717900  1
  H  H270  1  0.477800  0.710300  0.282100  1
  H  H271  1  0.522200  0.717900  0.710300  1
  H  H272  1  0.522200  0.282100  0.289700  1
  H  H273  1  0.275800  0.426300  0.791700  1
  H  H274  1  0.275800  0.573700  0.208300  1
  H  H275  1  0.724200  0.791700  0.573700  1
  H  H276  1  0.724200  0.208300  0.426300  1
  H  H277  1  0.195000  0.349600  0.862200  1
  H  H278  1  0.195000  0.650400  0.137800  1
  H  H279  1  0.805000  0.862200  0.650400  1
  H  H280  1  0.805000  0.137800  0.349600  1
  H  H281  1  0.127100  0.456800  0.860000  1
  H  H282  1  0.127100  0.543200  0.140000  1
  H  H283  1  0.872900  0.860000  0.543200  1
  H  H284  1  0.872900  0.140000  0.456800  1
  H  H285  1  0.112100  0.335300  0.887900  1
  H  H286  1  0.112100  0.664700  0.112100  1
  H  H287  1  0.887900  0.887900  0.664700  1
  H  H288  1  0.887900  0.112100  0.335300  1
  H  H289  1  0.028700  0.318800  0.929600  1
  H  H290  1  0.028700  0.681200  0.070400  1
  H  H291  1  0.971300  0.929600  0.681200  1
  H  H292  1  0.971300  0.070400  0.318800  1
  H  H293  1  0.999200  0.429200  0.953400  1
  H  H294  1  0.999200  0.570800  0.046600  1
  H  H295  1  0.000800  0.953400  0.570800  1
  H  H296  1  0.000800  0.046600  0.429200  1
  H  H297  1  0.082600  0.445700  0.911700  1
  H  H298  1  0.082600  0.554300  0.088300  1
  H  H299  1  0.917400  0.911700  0.554300  1
  H  H300  1  0.917400  0.088300  0.445700  1
  H  H301  1  0.942800  0.409700  0.998900  1
  H  H302  1  0.942800  0.590300  0.001100  1
  H  H303  1  0.057200  0.998900  0.590300  1
  H  H304  1  0.057200  0.001100  0.409700  1
  H  H305  1  0.860300  0.392200  0.040700  1
  H  H306  1  0.860300  0.607800  0.959300  1
  H  H307  1  0.139700  0.040700  0.607800  1
  H  H308  1  0.139700  0.959300  0.392200  1
  H  H309  1  0.853600  0.288600  0.992900  1
  H  H310  1  0.853600  0.711400  0.007100  1
  H  H311  1  0.146400  0.992900  0.711400  1
  H  H312  1  0.146400  0.007100  0.288600  1
  H  H313  1  0.936100  0.306100  0.951100  1
  H  H314  1  0.936100  0.693900  0.048900  1
  H  H315  1  0.063900  0.951100  0.693900  1
  H  H316  1  0.063900  0.048900  0.306100  1
  H  H317  1  0.748100  0.375200  0.048300  1
  H  H318  1  0.748100  0.624800  0.951700  1
  H  H319  1  0.251900  0.048300  0.624800  1
  H  H320  1  0.251900  0.951700  0.375200  1
  H  H321  1  0.696800  0.303000  0.131700  1
  H  H322  1  0.696800  0.697000  0.868300  1
  H  H323  1  0.303200  0.131700  0.697000  1
  H  H324  1  0.303200  0.868300  0.303000  1
  H  H325  1  0.842000  0.275500  0.059600  1
  H  H326  1  0.842000  0.724500  0.940400  1
  H  H327  1  0.158000  0.059600  0.724500  1
  H  H328  1  0.158000  0.940400  0.275500  1
  H  H329  1  0.603400  0.339500  0.126600  1
  H  H330  1  0.603400  0.660500  0.873400  1
  H  H331  1  0.396600  0.126600  0.660500  1
  H  H332  1  0.396600  0.873400  0.339500  1
  H  H333  1  0.500000  0.364200  0.154900  1
  H  H334  1  0.500000  0.635800  0.845100  1
  H  H335  1  0.500000  0.154900  0.635800  1
  H  H336  1  0.500000  0.845100  0.364200  1
  H  H337  1  0.422300  0.412200  0.157900  1
  H  H338  1  0.422300  0.587800  0.842100  1
  H  H339  1  0.577700  0.157900  0.587800  1
  H  H340  1  0.577700  0.842100  0.412200  1
  H  H341  1  0.443400  0.470700  0.130000  1
  H  H342  1  0.443400  0.529300  0.870000  1
  H  H343  1  0.556600  0.130000  0.529300  1
  H  H344  1  0.556600  0.870000  0.470700  1
  H  H345  1  0.519100  0.510100  0.083400  1
  H  H346  1  0.519100  0.489900  0.916600  1
  H  H347  1  0.480900  0.083400  0.489900  1
  H  H348  1  0.480900  0.916600  0.510100  1
  H  H349  1  0.580000  0.487700  0.066500  1
  H  H350  1  0.580000  0.512300  0.933500  1
  H  H351  1  0.420000  0.066500  0.512300  1
  H  H352  1  0.420000  0.933500  0.487700  1
  H  H353  1  0.586100  0.508700  0.106200  1
  H  H354  1  0.586100  0.491300  0.893800  1
  H  H355  1  0.413900  0.106200  0.491300  1
  H  H356  1  0.413900  0.893800  0.508700  1
  H  H357  1  0.696200  0.246600  0.146500  1
  H  H358  1  0.696200  0.753400  0.853500  1
  H  H359  1  0.303800  0.146500  0.753400  1
  H  H360  1  0.303800  0.853500  0.246600  1
  H  H361  1  0.672400  0.190000  0.190100  1
  H  H362  1  0.672400  0.810000  0.809900  1
  H  H363  1  0.327600  0.190100  0.810000  1
  H  H364  1  0.327600  0.809900  0.190000  1
  H  H365  1  0.703400  0.131800  0.215400  1
  H  H366  1  0.703400  0.868200  0.784600  1
  H  H367  1  0.296600  0.215400  0.868200  1
  H  H368  1  0.296600  0.784600  0.131800  1
  H  H369  1  0.802800  0.104900  0.198300  1
  H  H370  1  0.802800  0.895100  0.801700  1
  H  H371  1  0.197200  0.198300  0.895100  1
  H  H372  1  0.197200  0.801700  0.104900  1
  H  H373  1  0.900500  0.105200  0.166000  1
  H  H374  1  0.900500  0.894800  0.834000  1
  H  H375  1  0.099500  0.166000  0.894800  1
  H  H376  1  0.099500  0.834000  0.105200  1
  H  H377  1  0.931200  0.146700  0.164900  1
  H  H378  1  0.931200  0.853300  0.835100  1
  H  H379  1  0.068800  0.164900  0.853300  1
  H  H380  1  0.068800  0.835100  0.146700  1
  H  H381  1  0.903200  0.128100  0.127200  1
  H  H382  1  0.903200  0.871900  0.872800  1
  H  H383  1  0.096800  0.127200  0.871900  1
  H  H384  1  0.096800  0.872800  0.128100  1
  H  H385  1  0.473200  0.392000  0.792100  1
  H  H386  1  0.473200  0.608000  0.207900  1
  H  H387  1  0.526800  0.792100  0.608000  1
  H  H388  1  0.526800  0.207900  0.392000  1
  H  H389  1  0.419800  0.424700  0.789700  1
  H  H390  1  0.419800  0.575300  0.210300  1
  H  H391  1  0.580200  0.789700  0.575300  1
  H  H392  1  0.580200  0.210300  0.424700  1
  H  H393  1  0.494300  0.433900  0.780600  1
  H  H394  1  0.494300  0.566100  0.219400  1
  H  H395  1  0.505700  0.780600  0.566100  1
  H  H396  1  0.505700  0.219400  0.433900  1
  H  H397  1  0.535700  0.422500  0.716200  1
  H  H398  1  0.535700  0.577500  0.283800  1
  H  H399  1  0.464300  0.716200  0.577500  1
  H  H400  1  0.464300  0.283800  0.422500  1
  H  H401  1  0.518300  0.401100  0.654700  1
  H  H402  1  0.518300  0.598900  0.345300  1
  H  H403  1  0.481700  0.654700  0.598900  1
  H  H404  1  0.481700  0.345300  0.401100  1
  H  H405  1  0.420700  0.371200  0.639000  1
  H  H406  1  0.420700  0.628800  0.361000  1
  H  H407  1  0.579300  0.639000  0.628800  1
  H  H408  1  0.579300  0.361000  0.371200  1
  H  H409  1  0.306400  0.348000  0.657900  1
  H  H410  1  0.306400  0.652000  0.342100  1
  H  H411  1  0.693600  0.657900  0.652000  1
  H  H412  1  0.693600  0.342100  0.348000  1
  H  H413  1  0.178000  0.304900  0.604000  1
  H  H414  1  0.178000  0.695100  0.396000  1
  H  H415  1  0.822000  0.604000  0.695100  1
  H  H416  1  0.822000  0.396000  0.304900  1
  H  H417  1  0.186500  0.282100  0.531200  1
  H  H418  1  0.186500  0.717900  0.468800  1
  H  H419  1  0.813500  0.531200  0.717900  1
  H  H420  1  0.813500  0.468800  0.282100  1
  H  H421  1  0.132600  0.254100  0.480400  1
  H  H422  1  0.132600  0.745900  0.519600  1
  H  H423  1  0.867400  0.480400  0.745900  1
  H  H424  1  0.867400  0.519600  0.254100  1
  H  H425  1  0.033500  0.223300  0.489900  1
  H  H426  1  0.033500  0.776700  0.510100  1
  H  H427  1  0.966500  0.489900  0.776700  1
  H  H428  1  0.966500  0.510100  0.223300  1
  H  H429  1  0.931700  0.232200  0.560000  1
  H  H430  1  0.931700  0.767800  0.440000  1
  H  H431  1  0.068300  0.560000  0.767800  1
  H  H432  1  0.068300  0.440000  0.232200  1
  H  H433  1  0.969400  0.195100  0.573200  1
  H  H434  1  0.969400  0.804900  0.426800  1
  H  H435  1  0.030600  0.573200  0.804900  1
  H  H436  1  0.030600  0.426800  0.195100  1
  H  H437  1  0.951200  0.200700  0.529800  1
  H  H438  1  0.951200  0.799300  0.470200  1
  H  H439  1  0.048800  0.529800  0.799300  1
  H  H440  1  0.048800  0.470200  0.200700  1
  H  H441  1  0.191700  0.341800  0.759300  1
  H  H442  1  0.191700  0.658200  0.240700  1
  H  H443  1  0.808300  0.759300  0.658200  1
  H  H444  1  0.808300  0.240700  0.341800  1
  H  H445  1  0.060300  0.283700  0.697300  1
  H  H446  1  0.060300  0.716300  0.302700  1
  H  H447  1  0.939700  0.697300  0.716300  1
  H  H448  1  0.939700  0.302700  0.283700  1
  H  H449  1  0.228000  0.319400  0.649400  1
  H  H450  1  0.228000  0.680600  0.350600  1
  H  H451  1  0.772000  0.649400  0.680600  1
  H  H452  1  0.772000  0.350600  0.319400  1
  H  H453  1  0.165800  0.286500  0.799100  1
  H  H454  1  0.165800  0.713500  0.200900  1
  H  H455  1  0.834200  0.799100  0.713500  1
  H  H456  1  0.834200  0.200900  0.286500  1
  H  H457  1  0.111900  0.266800  0.853700  1
  H  H458  1  0.111900  0.733200  0.146300  1
  H  H459  1  0.888100  0.853700  0.733200  1
  H  H460  1  0.888100  0.146300  0.266800  1
  H  H461  1  0.938900  0.290900  0.805000  1
  H  H462  1  0.938900  0.709100  0.195000  1
  H  H463  1  0.061100  0.805000  0.709100  1
  H  H464  1  0.061100  0.195000  0.290900  1
  H  H465  1  0.992700  0.310600  0.750400  1
  H  H466  1  0.992700  0.689400  0.249600  1
  H  H467  1  0.007300  0.750400  0.689400  1
  H  H468  1  0.007300  0.249600  0.310600  1
  H  H469  1  0.068000  0.243600  0.898600  1
  H  H470  1  0.068000  0.756400  0.101400  1
  H  H471  1  0.932000  0.898600  0.756400  1
  H  H472  1  0.932000  0.101400  0.243600  1
  H  H473  1  0.010900  0.215300  0.948100  1
  H  H474  1  0.010900  0.784700  0.051900  1
  H  H475  1  0.989100  0.948100  0.784700  1
  H  H476  1  0.989100  0.051900  0.215300  1
  H  H477  1  0.840800  0.246400  0.899800  1
  H  H478  1  0.840800  0.753600  0.100200  1
  H  H479  1  0.159200  0.899800  0.753600  1
  H  H480  1  0.159200  0.100200  0.246400  1
  H  H481  1  0.897900  0.274700  0.850300  1
  H  H482  1  0.897900  0.725300  0.149700  1
  H  H483  1  0.102100  0.850300  0.725300  1
  H  H484  1  0.102100  0.149700  0.274700  1
  H  H485  1  0.959800  0.226200  0.001400  1
  H  H486  1  0.959800  0.773800  0.998600  1
  H  H487  1  0.040200  0.001400  0.773800  1
  H  H488  1  0.040200  0.998600  0.226200  1
  H  H489  1  0.809500  0.174400  0.053800  1
  H  H490  1  0.809500  0.825600  0.946200  1
  H  H491  1  0.190500  0.053800  0.825600  1
  H  H492  1  0.190500  0.946200  0.174400  1
  H  H493  1  0.807200  0.187700  0.940400  1
  H  H494  1  0.807200  0.812300  0.059600  1
  H  H495  1  0.192800  0.940400  0.812300  1
  H  H496  1  0.192800  0.059600  0.187700  1
  H  H497  1  0.997900  0.204400  0.052700  1
  H  H498  1  0.997900  0.795600  0.947300  1
  H  H499  1  0.002100  0.052700  0.795600  1
  H  H500  1  0.002100  0.947300  0.204400  1
  H  H501  1  0.095300  0.198300  0.105200  1
  H  H502  1  0.095300  0.801700  0.894800  1
  H  H503  1  0.904700  0.105200  0.801700  1
  H  H504  1  0.904700  0.894800  0.198300  1
  H  H505  1  0.123400  0.206800  0.168500  1
  H  H506  1  0.123400  0.793200  0.831500  1
  H  H507  1  0.876600  0.168500  0.793200  1
  H  H508  1  0.876600  0.831500  0.206800  1
  H  H509  1  0.044800  0.226500  0.211900  1
  H  H510  1  0.044800  0.773500  0.788100  1
  H  H511  1  0.955200  0.211900  0.773500  1
  H  H512  1  0.955200  0.788100  0.226500  1
  H  H513  1  0.877300  0.235300  0.198300  1
  H  H514  1  0.877300  0.764700  0.801700  1
  H  H515  1  0.122700  0.198300  0.764700  1
  H  H516  1  0.122700  0.801700  0.235300  1
  H  H517  1  0.914700  0.274700  0.195200  1
  H  H518  1  0.914700  0.725300  0.804800  1
  H  H519  1  0.085300  0.195200  0.725300  1
  H  H520  1  0.085300  0.804800  0.274700  1
  H  H521  1  0.934000  0.245200  0.227400  1
  H  H522  1  0.934000  0.754800  0.772600  1
  H  H523  1  0.066000  0.227400  0.754800  1
  H  H524  1  0.066000  0.772600  0.245200  1
  H  H525  1  0.755000  0.146000  0.947800  1
  H  H526  1  0.755000  0.854000  0.052200  1
  H  H527  1  0.245000  0.947800  0.854000  1
  H  H528  1  0.245000  0.052200  0.146000  1
  H  H529  1  0.656100  0.108700  0.906000  1
  H  H530  1  0.656100  0.891300  0.094000  1
  H  H531  1  0.343900  0.906000  0.891300  1
  H  H532  1  0.343900  0.094000  0.108700  1
  H  H533  1  0.546500  0.091400  0.908600  1
  H  H534  1  0.546500  0.908600  0.091400  1
  H  H535  1  0.453500  0.908600  0.908600  1
  H  H536  1  0.453500  0.091400  0.091400  1
  H  H537  1  0.488400  0.098200  0.964900  1
  H  H538  1  0.488400  0.901800  0.035100  1
  H  H539  1  0.511600  0.964900  0.901800  1
  H  H540  1  0.511600  0.035100  0.098200  1
  H  H541  1  0.537500  0.135300  0.049900  1
  H  H542  1  0.537500  0.864700  0.950100  1
  H  H543  1  0.462500  0.049900  0.864700  1
  H  H544  1  0.462500  0.950100  0.135300  1
  H  H545  1  0.494500  0.101200  0.034000  1
  H  H546  1  0.494500  0.898800  0.966000  1
  H  H547  1  0.505500  0.034000  0.898800  1
  H  H548  1  0.505500  0.966000  0.101200  1
  H  H549  1  0.481200  0.143300  0.019800  1
  H  H550  1  0.481200  0.856700  0.980200  1
  H  H551  1  0.518800  0.019800  0.856700  1
  H  H552  1  0.518800  0.980200  0.143300  1
  H  H553  1  0.901100  0.329000  0.559200  1
  H  H554  1  0.901100  0.671000  0.440800  1
  H  H555  1  0.098900  0.559200  0.671000  1
  H  H556  1  0.098900  0.440800  0.329000  1
  H  H557  1  0.907800  0.307900  0.519600  1
  H  H558  1  0.907800  0.692100  0.480400  1
  H  H559  1  0.092200  0.519600  0.692100  1
  H  H560  1  0.092200  0.480400  0.307900  1
  H  H561  1  0.885100  0.351000  0.521000  1
  H  H562  1  0.885100  0.649000  0.479000  1
  H  H563  1  0.114900  0.521000  0.649000  1
  H  H564  1  0.114900  0.479000  0.351000  1
  H  H565  1  0.002900  0.328400  0.476300  1
  H  H566  1  0.002900  0.671600  0.523700  1
  H  H567  1  0.997100  0.476300  0.671600  1
  H  H568  1  0.997100  0.523700  0.328400  1
  H  H569  1  0.113100  0.344300  0.479300  1
  H  H570  1  0.113100  0.655700  0.520700  1
  H  H571  1  0.886900  0.479300  0.655700  1
  H  H572  1  0.886900  0.520700  0.344300  1
  H  H573  1  0.156500  0.369400  0.534800  1
  H  H574  1  0.156500  0.630600  0.465200  1
  H  H575  1  0.843500  0.534800  0.630600  1
  H  H576  1  0.843500  0.465200  0.369400  1
  H  H577  1  0.139800  0.385300  0.605700  1
  H  H578  1  0.139800  0.614700  0.394300  1
  H  H579  1  0.860200  0.605700  0.614700  1
  H  H580  1  0.860200  0.394300  0.385300  1
  H  H581  1  0.241800  0.443200  0.668500  1
  H  H582  1  0.241800  0.556800  0.331500  1
  H  H583  1  0.758200  0.668500  0.556800  1
  H  H584  1  0.758200  0.331500  0.443200  1
  H  H585  1  0.355200  0.474700  0.640600  1
  H  H586  1  0.355200  0.525300  0.359400  1
  H  H587  1  0.644800  0.640600  0.525300  1
  H  H588  1  0.644800  0.359400  0.474700  1
  H  H589  1  0.448400  0.507300  0.659400  1
  H  H590  1  0.448400  0.492700  0.340600  1
  H  H591  1  0.551600  0.659400  0.492700  1
  H  H592  1  0.551600  0.340600  0.507300  1
  H  H593  1  0.451600  0.536700  0.718400  1
  H  H594  1  0.451600  0.463300  0.281600  1
  H  H595  1  0.548400  0.718400  0.463300  1
  H  H596  1  0.548400  0.281600  0.536700  1
  H  H597  1  0.372300  0.559900  0.778600  1
  H  H598  1  0.372300  0.440100  0.221400  1
  H  H599  1  0.627700  0.778600  0.440100  1
  H  H600  1  0.627700  0.221400  0.559900  1
  H  H601  1  0.408400  0.520800  0.786300  1
  H  H602  1  0.408400  0.479200  0.213700  1
  H  H603  1  0.591600  0.786300  0.479200  1
  H  H604  1  0.591600  0.213700  0.520800  1
  H  H605  1  0.331200  0.523700  0.790800  1
  H  H606  1  0.331200  0.476300  0.209200  1
  H  H607  1  0.668800  0.790800  0.476300  1
  H  H608  1  0.668800  0.209200  0.523700  1
  H  H609  1  0.158300  0.431300  0.645100  1
  H  H610  1  0.158300  0.568700  0.354900  1
  H  H611  1  0.841700  0.645100  0.568700  1
  H  H612  1  0.841700  0.354900  0.431300  1
  H  H613  1  0.992900  0.385900  0.687200  1
  H  H614  1  0.992900  0.614100  0.312800  1
  H  H615  1  0.007100  0.687200  0.614100  1
  H  H616  1  0.007100  0.312800  0.385900  1
  H  H617  1  0.112800  0.445700  0.755200  1
  H  H618  1  0.112800  0.554300  0.244800  1
  H  H619  1  0.887200  0.755200  0.554300  1
  H  H620  1  0.887200  0.244800  0.445700  1
  H  H621  1  0.917200  0.408200  0.725400  1
  H  H622  1  0.917200  0.591800  0.274600  1
  H  H623  1  0.082800  0.725400  0.591800  1
  H  H624  1  0.082800  0.274600  0.408200  1
  H  H625  1  0.842600  0.408000  0.775100  1
  H  H626  1  0.842600  0.592000  0.224900  1
  H  H627  1  0.157400  0.775100  0.592000  1
  H  H628  1  0.157400  0.224900  0.408000  1
  H  H629  1  0.990800  0.412700  0.850000  1
  H  H630  1  0.990800  0.587300  0.150000  1
  H  H631  1  0.009200  0.850000  0.587300  1
  H  H632  1  0.009200  0.150000  0.412700  1
  H  H633  1  0.065500  0.412900  0.800400  1
  H  H634  1  0.065500  0.587100  0.199600  1
  H  H635  1  0.934500  0.800400  0.587100  1
  H  H636  1  0.934500  0.199600  0.412900  1
  H  H637  1  0.780000  0.432200  0.816200  1
  H  H638  1  0.780000  0.567800  0.183800  1
  H  H639  1  0.220000  0.816200  0.567800  1
  H  H640  1  0.220000  0.183800  0.432200  1
  H  H641  1  0.705400  0.437800  0.865700  1
  H  H642  1  0.705400  0.562200  0.134300  1
  H  H643  1  0.294600  0.865700  0.562200  1
  H  H644  1  0.294600  0.134300  0.437800  1
  H  H645  1  0.841500  0.400100  0.939000  1
  H  H646  1  0.841500  0.599900  0.061000  1
  H  H647  1  0.158500  0.939000  0.599900  1
  H  H648  1  0.158500  0.061000  0.400100  1
  H  H649  1  0.916100  0.394500  0.889600  1
  H  H650  1  0.916100  0.605500  0.110400  1
  H  H651  1  0.083900  0.889600  0.605500  1
  H  H652  1  0.083900  0.110400  0.394500  1
  H  H653  1  0.784100  0.442200  0.977500  1
  H  H654  1  0.784100  0.557800  0.022500  1
  H  H655  1  0.215900  0.977500  0.557800  1
  H  H656  1  0.215900  0.022500  0.442200  1
  H  H657  1  0.603200  0.429200  0.020600  1
  H  H658  1  0.603200  0.570800  0.979400  1
  H  H659  1  0.396800  0.020600  0.570800  1
  H  H660  1  0.396800  0.979400  0.429200  1
  H  H661  1  0.636500  0.408300  0.910100  1
  H  H662  1  0.636500  0.591700  0.089900  1
  H  H663  1  0.363500  0.910100  0.591700  1
  H  H664  1  0.363500  0.089900  0.408300  1
  H  H665  1  0.538100  0.427000  0.910400  1
  H  H666  1  0.538100  0.573000  0.089600  1
  H  H667  1  0.461900  0.910400  0.573000  1
  H  H668  1  0.461900  0.089600  0.427000  1
  H  H669  1  0.423400  0.429200  0.878400  1
  H  H670  1  0.423400  0.570800  0.121600  1
  H  H671  1  0.576600  0.878400  0.570800  1
  H  H672  1  0.576600  0.121600  0.429200  1
  H  H673  1  0.315400  0.408700  0.878400  1
  H  H674  1  0.315400  0.591300  0.121600  1
  H  H675  1  0.684600  0.878400  0.591300  1
  H  H676  1  0.684600  0.121600  0.408700  1
  H  H677  1  0.279000  0.367400  0.925300  1
  H  H678  1  0.279000  0.632600  0.074700  1
  H  H679  1  0.721000  0.925300  0.632600  1
  H  H680  1  0.721000  0.074700  0.367400  1
  H  H681  1  0.339600  0.312600  0.978800  1
  H  H682  1  0.339600  0.687400  0.021200  1
  H  H683  1  0.660400  0.978800  0.687400  1
  H  H684  1  0.660400  0.021200  0.312600  1
  H  H685  1  0.293900  0.346900  0.991400  1
  H  H686  1  0.293900  0.653100  0.008600  1
  H  H687  1  0.706100  0.991400  0.653100  1
  H  H688  1  0.706100  0.008600  0.346900  1
  H  H689  1  0.365600  0.343300  0.008300  1
  H  H690  1  0.365600  0.656700  0.991700  1
  H  H691  1  0.634400  0.008300  0.656700  1
  H  H692  1  0.634400  0.991700  0.343300  1
  H  H693  1  0.790200  0.474400  0.028800  1
  H  H694  1  0.790200  0.525600  0.971200  1
  H  H695  1  0.209800  0.028800  0.525600  1
  H  H696  1  0.209800  0.971200  0.474400  1
  H  H697  1  0.877100  0.494600  0.080300  1
  H  H698  1  0.877100  0.505400  0.919700  1
  H  H699  1  0.122900  0.080300  0.505400  1
  H  H700  1  0.122900  0.919700  0.494600  1
  H  H701  1  0.898800  0.504400  0.144300  1
  H  H702  1  0.898800  0.495600  0.855700  1
  H  H703  1  0.101200  0.144300  0.495600  1
  H  H704  1  0.101200  0.855700  0.504400  1
  H  H705  1  0.822300  0.486900  0.189800  1
  H  H706  1  0.822300  0.513100  0.810200  1
  H  H707  1  0.177700  0.189800  0.513100  1
  H  H708  1  0.177700  0.810200  0.486900  1
  H  H709  1  0.714000  0.453600  0.204600  1
  H  H710  1  0.714000  0.546400  0.795400  1
  H  H711  1  0.286000  0.204600  0.546400  1
  H  H712  1  0.286000  0.795400  0.453600  1
  H  H713  1  0.697400  0.423100  0.172800  1
  H  H714  1  0.697400  0.576900  0.827200  1
  H  H715  1  0.302600  0.172800  0.576900  1
  H  H716  1  0.302600  0.827200  0.423100  1
  H  H717  1  0.660800  0.462800  0.173000  1
  H  H718  1  0.660800  0.537200  0.827000  1
  H  H719  1  0.339200  0.173000  0.537200  1
  H  H720  1  0.339200  0.827000  0.462800  1
  C  C721  1  0.963100  0.454900  0.553000  1
  C  C722  1  0.963100  0.545100  0.447000  1
  C  C723  1  0.036900  0.553000  0.545100  1
  C  C724  1  0.036900  0.447000  0.454900  1
  C  C725  1  0.898200  0.451700  0.571500  1
  C  C726  1  0.898200  0.548300  0.428500  1
  C  C727  1  0.101800  0.571500  0.548300  1
  C  C728  1  0.101800  0.428500  0.451700  1
  C  C729  1  0.845300  0.475000  0.564600  1
  C  C730  1  0.845300  0.525000  0.435400  1
  C  C731  1  0.154700  0.564600  0.525000  1
  C  C732  1  0.154700  0.435400  0.475000  1
  C  C733  1  0.786100  0.467900  0.582000  1
  C  C734  1  0.786100  0.532100  0.418000  1
  C  C735  1  0.213900  0.582000  0.532100  1
  C  C736  1  0.213900  0.418000  0.467900  1
  C  C737  1  0.779900  0.437500  0.606400  1
  C  C738  1  0.779900  0.562500  0.393600  1
  C  C739  1  0.220100  0.606400  0.562500  1
  C  C740  1  0.220100  0.393600  0.437500  1
  C  C741  1  0.832800  0.414200  0.613400  1
  C  C742  1  0.832800  0.585800  0.386600  1
  C  C743  1  0.167200  0.613400  0.585800  1
  C  C744  1  0.167200  0.386600  0.414200  1
  C  C745  1  0.834600  0.380100  0.638000  1
  C  C746  1  0.834600  0.619900  0.362000  1
  C  C747  1  0.165400  0.638000  0.619900  1
  C  C748  1  0.165400  0.362000  0.380100  1
  C  C749  1  0.949100  0.200000  0.673800  1
  C  C750  1  0.949100  0.800000  0.326200  1
  C  C751  1  0.050900  0.673800  0.800000  1
  C  C752  1  0.050900  0.326200  0.200000  1
  C  C753  1  0.996500  0.171600  0.665900  1
  C  C754  1  0.996500  0.828400  0.334100  1
  C  C755  1  0.003500  0.665900  0.828400  1
  C  C756  1  0.003500  0.334100  0.171600  1
  C  C757  1  0.989300  0.133900  0.675700  1
  C  C758  1  0.989300  0.866100  0.324300  1
  C  C759  1  0.010700  0.675700  0.866100  1
  C  C760  1  0.010700  0.324300  0.133900  1
  C  C761  1  0.038100  0.108200  0.667300  1
  C  C762  1  0.038100  0.891800  0.332700  1
  C  C763  1  0.961900  0.667300  0.891800  1
  C  C764  1  0.961900  0.332700  0.108200  1
  C  C765  1  0.094100  0.120200  0.649000  1
  C  C766  1  0.094100  0.879800  0.351000  1
  C  C767  1  0.905900  0.649000  0.879800  1
  C  C768  1  0.905900  0.351000  0.120200  1
  C  C769  1  0.101300  0.157900  0.639200  1
  C  C770  1  0.101300  0.842100  0.360800  1
  C  C771  1  0.898700  0.639200  0.842100  1
  C  C772  1  0.898700  0.360800  0.157900  1
  C  C773  1  0.161300  0.174200  0.619100  1
  C  C774  1  0.161300  0.825800  0.380900  1
  C  C775  1  0.838700  0.619100  0.825800  1
  C  C776  1  0.838700  0.380900  0.174200  1
  C  C777  1  0.923400  0.296700  0.655000  1
  C  C778  1  0.923400  0.703300  0.345000  1
  C  C779  1  0.076600  0.655000  0.703300  1
  C  C780  1  0.076600  0.345000  0.296700  1
  C  C781  1  0.885000  0.327400  0.664600  1
  C  C782  1  0.885000  0.672600  0.335400  1
  C  C783  1  0.115000  0.664600  0.672600  1
  C  C784  1  0.115000  0.335400  0.327400  1
  C  C785  1  0.846900  0.326200  0.696900  1
  C  C786  1  0.846900  0.673800  0.303100  1
  C  C787  1  0.153100  0.696900  0.673800  1
  C  C788  1  0.153100  0.303100  0.326200  1
  C  C789  1  0.847100  0.294200  0.719500  1
  C  C790  1  0.847100  0.705800  0.280500  1
  C  C791  1  0.152900  0.719500  0.705800  1
  C  C792  1  0.152900  0.280500  0.294200  1
  C  C793  1  0.885400  0.263500  0.709900  1
  C  C794  1  0.885400  0.736500  0.290100  1
  C  C795  1  0.114600  0.709900  0.736500  1
  C  C796  1  0.114600  0.290100  0.263500  1
  C  C797  1  0.923600  0.264700  0.677600  1
  C  C798  1  0.923600  0.735300  0.322400  1
  C  C799  1  0.076400  0.677600  0.735300  1
  C  C800  1  0.076400  0.322400  0.264700  1
  C  C801  1  0.813400  0.292100  0.758300  1
  C  C802  1  0.813400  0.707900  0.241700  1
  C  C803  1  0.186600  0.758300  0.707900  1
  C  C804  1  0.186600  0.241700  0.292100  1
  C  C805  1  0.799100  0.257600  0.774800  1
  C  C806  1  0.799100  0.742400  0.225200  1
  C  C807  1  0.200900  0.774800  0.742400  1
  C  C808  1  0.200900  0.225200  0.257600  1
  C  C809  1  0.772200  0.256300  0.810700  1
  C  C810  1  0.772200  0.743700  0.189300  1
  C  C811  1  0.227800  0.810700  0.743700  1
  C  C812  1  0.227800  0.189300  0.256300  1
  C  C813  1  0.759500  0.289500  0.830100  1
  C  C814  1  0.759500  0.710500  0.169900  1
  C  C815  1  0.240500  0.830100  0.710500  1
  C  C816  1  0.240500  0.169900  0.289500  1
  C  C817  1  0.773700  0.324000  0.813500  1
  C  C818  1  0.773700  0.676000  0.186500  1
  C  C819  1  0.226300  0.813500  0.676000  1
  C  C820  1  0.226300  0.186500  0.324000  1
  C  C821  1  0.800700  0.325300  0.777600  1
  C  C822  1  0.800700  0.674700  0.222400  1
  C  C823  1  0.199300  0.777600  0.674700  1
  C  C824  1  0.199300  0.222400  0.325300  1
  C  C825  1  0.736100  0.286800  0.871700  1
  C  C826  1  0.736100  0.713200  0.128300  1
  C  C827  1  0.263900  0.871700  0.713200  1
  C  C828  1  0.263900  0.128300  0.286800  1
  C  C829  1  0.734900  0.318700  0.894400  1
  C  C830  1  0.734900  0.681300  0.105600  1
  C  C831  1  0.265100  0.894400  0.681300  1
  C  C832  1  0.265100  0.105600  0.318700  1
  C  C833  1  0.706200  0.317100  0.929800  1
  C  C834  1  0.706200  0.682900  0.070200  1
  C  C835  1  0.293800  0.929800  0.682900  1
  C  C836  1  0.293800  0.070200  0.317100  1
  C  C837  1  0.678700  0.283700  0.942500  1
  C  C838  1  0.678700  0.716300  0.057500  1
  C  C839  1  0.321300  0.942500  0.716300  1
  C  C840  1  0.321300  0.057500  0.283700  1
  C  C841  1  0.679800  0.251800  0.919700  1
  C  C842  1  0.679800  0.748200  0.080300  1
  C  C843  1  0.320200  0.919700  0.748200  1
  C  C844  1  0.320200  0.080300  0.251800  1
  C  C845  1  0.708500  0.253400  0.884300  1
  C  C846  1  0.708500  0.746600  0.115700  1
  C  C847  1  0.291500  0.884300  0.746600  1
  C  C848  1  0.291500  0.115700  0.253400  1
  C  C849  1  0.649000  0.281700  0.981100  1
  C  C850  1  0.649000  0.718300  0.018900  1
  C  C851  1  0.351000  0.981100  0.718300  1
  C  C852  1  0.351000  0.018900  0.281700  1
  C  C853  1  0.656300  0.249100  0.002400  1
  C  C854  1  0.656300  0.750900  0.997600  1
  C  C855  1  0.343700  0.002400  0.750900  1
  C  C856  1  0.343700  0.997600  0.249100  1
  C  C857  1  0.618200  0.243500  0.034200  1
  C  C858  1  0.618200  0.756500  0.965800  1
  C  C859  1  0.381800  0.034200  0.756500  1
  C  C860  1  0.381800  0.965800  0.243500  1
  C  C861  1  0.572800  0.270500  0.044800  1
  C  C862  1  0.572800  0.729500  0.955200  1
  C  C863  1  0.427200  0.044800  0.729500  1
  C  C864  1  0.427200  0.955200  0.270500  1
  C  C865  1  0.565400  0.303100  0.023500  1
  C  C866  1  0.565400  0.696900  0.976500  1
  C  C867  1  0.434600  0.023500  0.696900  1
  C  C868  1  0.434600  0.976500  0.303100  1
  C  C869  1  0.603500  0.308700  0.991700  1
  C  C870  1  0.603500  0.691300  0.008300  1
  C  C871  1  0.396500  0.991700  0.691300  1
  C  C872  1  0.396500  0.008300  0.308700  1
  C  C873  1  0.476800  0.331000  0.057800  1
  C  C874  1  0.476800  0.669000  0.942200  1
  C  C875  1  0.523200  0.057800  0.669000  1
  C  C876  1  0.523200  0.942200  0.331000  1
  C  C877  1  0.429200  0.358000  0.068200  1
  C  C878  1  0.429200  0.642000  0.931800  1
  C  C879  1  0.570800  0.068200  0.642000  1
  C  C880  1  0.570800  0.931800  0.358000  1
  C  C881  1  0.381200  0.354600  0.095500  1
  C  C882  1  0.381200  0.645400  0.904500  1
  C  C883  1  0.618800  0.095500  0.645400  1
  C  C884  1  0.618800  0.904500  0.354600  1
  C  C885  1  0.336800  0.383600  0.100800  1
  C  C886  1  0.336800  0.616400  0.899200  1
  C  C887  1  0.663200  0.100800  0.616400  1
  C  C888  1  0.663200  0.899200  0.383600  1
  C  C889  1  0.340400  0.416000  0.078900  1
  C  C890  1  0.340400  0.584000  0.921100  1
  C  C891  1  0.659600  0.078900  0.584000  1
  C  C892  1  0.659600  0.921100  0.416000  1
  C  C893  1  0.388500  0.419300  0.051600  1
  C  C894  1  0.388500  0.580700  0.948400  1
  C  C895  1  0.611500  0.051600  0.580700  1
  C  C896  1  0.611500  0.948400  0.419300  1
  C  C897  1  0.395800  0.447900  0.020600  1
  C  C898  1  0.395800  0.552100  0.979400  1
  C  C899  1  0.604200  0.020600  0.552100  1
  C  C900  1  0.604200  0.979400  0.447900  1
  C  C901  1  0.598900  0.202500  0.088000  1
  C  C902  1  0.598900  0.797500  0.912000  1
  C  C903  1  0.401100  0.088000  0.797500  1
  C  C904  1  0.401100  0.912000  0.202500  1
  C  C905  1  0.609300  0.165200  0.105400  1
  C  C906  1  0.609300  0.834800  0.894600  1
  C  C907  1  0.390700  0.105400  0.834800  1
  C  C908  1  0.390700  0.894600  0.165200  1
  C  C909  1  0.578600  0.152500  0.137800  1
  C  C910  1  0.578600  0.847500  0.862200  1
  C  C911  1  0.421400  0.137800  0.847500  1
  C  C912  1  0.421400  0.862200  0.152500  1
  C  C913  1  0.593400  0.117100  0.152200  1
  C  C914  1  0.593400  0.882900  0.847800  1
  C  C915  1  0.406600  0.152200  0.882900  1
  C  C916  1  0.406600  0.847800  0.117100  1
  C  C917  1  0.638800  0.094400  0.134100  1
  C  C918  1  0.638800  0.905600  0.865900  1
  C  C919  1  0.361200  0.134100  0.905600  1
  C  C920  1  0.361200  0.865900  0.094400  1
  C  C921  1  0.669500  0.107200  0.101700  1
  C  C922  1  0.669500  0.892800  0.898300  1
  C  C923  1  0.330500  0.101700  0.892800  1
  C  C924  1  0.330500  0.898300  0.107200  1
  C  C925  1  0.713400  0.083100  0.074900  1
  C  C926  1  0.713400  0.916900  0.925100  1
  C  C927  1  0.286600  0.074900  0.916900  1
  C  C928  1  0.286600  0.925100  0.083100  1
  C  C929  1  0.225800  0.586900  0.716600  1
  C  C930  1  0.225800  0.413100  0.283400  1
  C  C931  1  0.774200  0.716600  0.413100  1
  C  C932  1  0.774200  0.283400  0.586900  1
  C  C933  1  0.207200  0.584800  0.757900  1
  C  C934  1  0.207200  0.415200  0.242100  1
  C  C935  1  0.792800  0.757900  0.415200  1
  C  C936  1  0.792800  0.242100  0.584800  1
  C  C937  1  0.200200  0.617800  0.778600  1
  C  C938  1  0.200200  0.382200  0.221400  1
  C  C939  1  0.799800  0.778600  0.382200  1
  C  C940  1  0.799800  0.221400  0.617800  1
  C  C941  1  0.190600  0.616000  0.817300  1
  C  C942  1  0.190600  0.384000  0.182700  1
  C  C943  1  0.809400  0.817300  0.384000  1
  C  C944  1  0.809400  0.182700  0.616000  1
  C  C945  1  0.188100  0.581300  0.835400  1
  C  C946  1  0.188100  0.418700  0.164600  1
  C  C947  1  0.811900  0.835400  0.418700  1
  C  C948  1  0.811900  0.164600  0.581300  1
  C  C949  1  0.195100  0.548300  0.814700  1
  C  C950  1  0.195100  0.451700  0.185300  1
  C  C951  1  0.804900  0.814700  0.451700  1
  C  C952  1  0.804900  0.185300  0.548300  1
  C  C953  1  0.194400  0.512400  0.828400  1
  C  C954  1  0.194400  0.487600  0.171600  1
  C  C955  1  0.805600  0.828400  0.487600  1
  C  C956  1  0.805600  0.171600  0.512400  1
  C  C957  1  0.312300  0.335600  0.831100  1
  C  C958  1  0.312300  0.664400  0.168900  1
  C  C959  1  0.687700  0.831100  0.664400  1
  C  C960  1  0.687700  0.168900  0.335600  1
  C  C961  1  0.356200  0.305900  0.820000  1
  C  C962  1  0.356200  0.694100  0.180000  1
  C  C963  1  0.643800  0.820000  0.694100  1
  C  C964  1  0.643800  0.180000  0.305900  1
  C  C965  1  0.381900  0.277200  0.842100  1
  C  C966  1  0.381900  0.722800  0.157900  1
  C  C967  1  0.618100  0.842100  0.722800  1
  C  C968  1  0.618100  0.157900  0.277200  1
  C  C969  1  0.428400  0.253000  0.827300  1
  C  C970  1  0.428400  0.747000  0.172700  1
  C  C971  1  0.571600  0.827300  0.747000  1
  C  C972  1  0.571600  0.172700  0.253000  1
  C  C973  1  0.449300  0.257600  0.790300  1
  C  C974  1  0.449300  0.742400  0.209700  1
  C  C975  1  0.550700  0.790300  0.742400  1
  C  C976  1  0.550700  0.209700  0.257600  1
  C  C977  1  0.423600  0.286300  0.768200  1
  C  C978  1  0.423600  0.713700  0.231800  1
  C  C979  1  0.576400  0.768200  0.713700  1
  C  C980  1  0.576400  0.231800  0.286300  1
  C  C981  1  0.432400  0.294200  0.725100  1
  C  C982  1  0.432400  0.705800  0.274900  1
  C  C983  1  0.567600  0.725100  0.705800  1
  C  C984  1  0.567600  0.274900  0.294200  1
  C  C985  1  0.201800  0.447300  0.823600  1
  C  C986  1  0.201800  0.552700  0.176400  1
  C  C987  1  0.798200  0.823600  0.552700  1
  C  C988  1  0.798200  0.176400  0.447300  1
  C  C989  1  0.244700  0.420000  0.810500  1
  C  C990  1  0.244700  0.580000  0.189500  1
  C  C991  1  0.755300  0.810500  0.580000  1
  C  C992  1  0.755300  0.189500  0.420000  1
  C  C993  1  0.242200  0.383600  0.824900  1
  C  C994  1  0.242200  0.616400  0.175100  1
  C  C995  1  0.757800  0.824900  0.616400  1
  C  C996  1  0.757800  0.175100  0.383600  1
  C  C997  1  0.196700  0.374500  0.852400  1
  C  C998  1  0.196700  0.625500  0.147600  1
  C  C999  1  0.803300  0.852400  0.625500  1
  C  C1000  1  0.803300  0.147600  0.374500  1
  C  C1001  1  0.153800  0.401800  0.865500  1
  C  C1002  1  0.153800  0.598200  0.134500  1
  C  C1003  1  0.846200  0.865500  0.598200  1
  C  C1004  1  0.846200  0.134500  0.401800  1
  C  C1005  1  0.156400  0.438200  0.851100  1
  C  C1006  1  0.156400  0.561800  0.148900  1
  C  C1007  1  0.843600  0.851100  0.561800  1
  C  C1008  1  0.843600  0.148900  0.438200  1
  C  C1009  1  0.105200  0.392000  0.895900  1
  C  C1010  1  0.105200  0.608000  0.104100  1
  C  C1011  1  0.894800  0.895900  0.608000  1
  C  C1012  1  0.894800  0.104100  0.392000  1
  C  C1013  1  0.089200  0.354300  0.901200  1
  C  C1014  1  0.089200  0.645700  0.098800  1
  C  C1015  1  0.910800  0.901200  0.645700  1
  C  C1016  1  0.910800  0.098800  0.354300  1
  C  C1017  1  0.039700  0.344600  0.925900  1
  C  C1018  1  0.039700  0.655400  0.074100  1
  C  C1019  1  0.960300  0.925900  0.655400  1
  C  C1020  1  0.960300  0.074100  0.344600  1
  C  C1021  1  0.006100  0.372400  0.945400  1
  C  C1022  1  0.006100  0.627600  0.054600  1
  C  C1023  1  0.993900  0.945400  0.627600  1
  C  C1024  1  0.993900  0.054600  0.372400  1
  C  C1025  1  0.022100  0.410100  0.940100  1
  C  C1026  1  0.022100  0.589900  0.059900  1
  C  C1027  1  0.977900  0.940100  0.589900  1
  C  C1028  1  0.977900  0.059900  0.410100  1
  C  C1029  1  0.071700  0.419900  0.915400  1
  C  C1030  1  0.071700  0.580100  0.084600  1
  C  C1031  1  0.928300  0.915400  0.580100  1
  C  C1032  1  0.928300  0.084600  0.419900  1
  C  C1033  1  0.947200  0.359600  0.971100  1
  C  C1034  1  0.947200  0.640400  0.028900  1
  C  C1035  1  0.052800  0.971100  0.640400  1
  C  C1036  1  0.052800  0.028900  0.359600  1
  C  C1037  1  0.924700  0.385100  0.997700  1
  C  C1038  1  0.924700  0.614900  0.002300  1
  C  C1039  1  0.075300  0.997700  0.614900  1
  C  C1040  1  0.075300  0.002300  0.385100  1
  C  C1041  1  0.875700  0.374700  0.022500  1
  C  C1042  1  0.875700  0.625300  0.977500  1
  C  C1043  1  0.124300  0.022500  0.625300  1
  C  C1044  1  0.124300  0.977500  0.374700  1
  C  C1045  1  0.849200  0.338800  0.020800  1
  C  C1046  1  0.849200  0.661200  0.979200  1
  C  C1047  1  0.150800  0.020800  0.661200  1
  C  C1048  1  0.150800  0.979200  0.338800  1
  C  C1049  1  0.871700  0.313200  0.994100  1
  C  C1050  1  0.871700  0.686800  0.005900  1
  C  C1051  1  0.128300  0.994100  0.686800  1
  C  C1052  1  0.128300  0.005900  0.313200  1
  C  C1053  1  0.920700  0.323600  0.969300  1
  C  C1054  1  0.920700  0.676400  0.030700  1
  C  C1055  1  0.079300  0.969300  0.676400  1
  C  C1056  1  0.079300  0.030700  0.323600  1
  C  C1057  1  0.801200  0.326700  0.049100  1
  C  C1058  1  0.801200  0.673300  0.950900  1
  C  C1059  1  0.198800  0.049100  0.673300  1
  C  C1060  1  0.198800  0.950900  0.326700  1
  C  C1061  1  0.753900  0.351900  0.061100  1
  C  C1062  1  0.753900  0.648100  0.938900  1
  C  C1063  1  0.246100  0.061100  0.648100  1
  C  C1064  1  0.246100  0.938900  0.351900  1
  C  C1065  1  0.715000  0.343100  0.091900  1
  C  C1066  1  0.715000  0.656900  0.908100  1
  C  C1067  1  0.285000  0.091900  0.656900  1
  C  C1068  1  0.285000  0.908100  0.343100  1
  C  C1069  1  0.723400  0.309000  0.110600  1
  C  C1070  1  0.723400  0.691000  0.889400  1
  C  C1071  1  0.276600  0.110600  0.691000  1
  C  C1072  1  0.276600  0.889400  0.309000  1
  C  C1073  1  0.770800  0.283900  0.098600  1
  C  C1074  1  0.770800  0.716100  0.901400  1
  C  C1075  1  0.229200  0.098600  0.716100  1
  C  C1076  1  0.229200  0.901400  0.283900  1
  C  C1077  1  0.809600  0.292700  0.067800  1
  C  C1078  1  0.809600  0.707300  0.932200  1
  C  C1079  1  0.190400  0.067800  0.707300  1
  C  C1080  1  0.190400  0.932200  0.292700  1
  C  C1081  1  0.613200  0.364300  0.118200  1
  C  C1082  1  0.613200  0.635700  0.881800  1
  C  C1083  1  0.386800  0.118200  0.635700  1
  C  C1084  1  0.386800  0.881800  0.364300  1
  C  C1085  1  0.567300  0.394200  0.125300  1
  C  C1086  1  0.567300  0.605800  0.874700  1
  C  C1087  1  0.432700  0.125300  0.605800  1
  C  C1088  1  0.432700  0.874700  0.394200  1
  C  C1089  1  0.508600  0.388000  0.143600  1
  C  C1090  1  0.508600  0.612000  0.856400  1
  C  C1091  1  0.491400  0.143600  0.612000  1
  C  C1092  1  0.491400  0.856400  0.388000  1
  C  C1093  1  0.462400  0.416500  0.145400  1
  C  C1094  1  0.462400  0.583500  0.854600  1
  C  C1095  1  0.537600  0.145400  0.583500  1
  C  C1096  1  0.537600  0.854600  0.416500  1
  C  C1097  1  0.474900  0.451300  0.128800  1
  C  C1098  1  0.474900  0.548700  0.871200  1
  C  C1099  1  0.525100  0.128800  0.548700  1
  C  C1100  1  0.525100  0.871200  0.451300  1
  C  C1101  1  0.533600  0.457500  0.110500  1
  C  C1102  1  0.533600  0.542500  0.889500  1
  C  C1103  1  0.466400  0.110500  0.542500  1
  C  C1104  1  0.466400  0.889500  0.457500  1
  C  C1105  1  0.556900  0.494500  0.089700  1
  C  C1106  1  0.556900  0.505500  0.910300  1
  C  C1107  1  0.443100  0.089700  0.505500  1
  C  C1108  1  0.443100  0.910300  0.494500  1
  C  C1109  1  0.736200  0.234500  0.140900  1
  C  C1110  1  0.736200  0.765500  0.859100  1
  C  C1111  1  0.263800  0.140900  0.765500  1
  C  C1112  1  0.263800  0.859100  0.234500  1
  C  C1113  1  0.753400  0.197600  0.158000  1
  C  C1114  1  0.753400  0.802400  0.842000  1
  C  C1115  1  0.246600  0.158000  0.802400  1
  C  C1116  1  0.246600  0.842000  0.197600  1
  C  C1117  1  0.712800  0.179100  0.183200  1
  C  C1118  1  0.712800  0.820900  0.816800  1
  C  C1119  1  0.287200  0.183200  0.820900  1
  C  C1120  1  0.287200  0.816800  0.179100  1
  C  C1121  1  0.731200  0.144500  0.198200  1
  C  C1122  1  0.731200  0.855500  0.801800  1
  C  C1123  1  0.268800  0.198200  0.855500  1
  C  C1124  1  0.268800  0.801800  0.144500  1
  C  C1125  1  0.790200  0.128500  0.188000  1
  C  C1126  1  0.790200  0.871500  0.812000  1
  C  C1127  1  0.209800  0.188000  0.871500  1
  C  C1128  1  0.209800  0.812000  0.128500  1
  C  C1129  1  0.830900  0.147000  0.162800  1
  C  C1130  1  0.830900  0.853000  0.837200  1
  C  C1131  1  0.169100  0.162800  0.853000  1
  C  C1132  1  0.169100  0.837200  0.147000  1
  C  C1133  1  0.897400  0.130300  0.154500  1
  C  C1134  1  0.897400  0.869700  0.845500  1
  C  C1135  1  0.102600  0.154500  0.869700  1
  C  C1136  1  0.102600  0.845500  0.130300  1
  C  C1137  1  0.460000  0.414800  0.778600  1
  C  C1138  1  0.460000  0.585200  0.221400  1
  C  C1139  1  0.540000  0.778600  0.585200  1
  C  C1140  1  0.540000  0.221400  0.414800  1
  C  C1141  1  0.448400  0.405400  0.737100  1
  C  C1142  1  0.448400  0.594600  0.262900  1
  C  C1143  1  0.551600  0.737100  0.594600  1
  C  C1144  1  0.551600  0.262900  0.405400  1
  C  C1145  1  0.496000  0.410400  0.709800  1
  C  C1146  1  0.496000  0.589600  0.290200  1
  C  C1147  1  0.504000  0.709800  0.589600  1
  C  C1148  1  0.504000  0.290200  0.410400  1
  C  C1149  1  0.485700  0.397700  0.673300  1
  C  C1150  1  0.485700  0.602300  0.326700  1
  C  C1151  1  0.514300  0.673300  0.602300  1
  C  C1152  1  0.514300  0.326700  0.397700  1
  C  C1153  1  0.427700  0.379900  0.664000  1
  C  C1154  1  0.427700  0.620100  0.336000  1
  C  C1155  1  0.572300  0.664000  0.620100  1
  C  C1156  1  0.572300  0.336000  0.379900  1
  C  C1157  1  0.380000  0.374900  0.691300  1
  C  C1158  1  0.380000  0.625100  0.308700  1
  C  C1159  1  0.620000  0.691300  0.625100  1
  C  C1160  1  0.620000  0.308700  0.374900  1
  C  C1161  1  0.316900  0.356700  0.682400  1
  C  C1162  1  0.316900  0.643300  0.317600  1
  C  C1163  1  0.683100  0.682400  0.643300  1
  C  C1164  1  0.683100  0.317600  0.356700  1
  C  C1165  1  0.142400  0.287900  0.605000  1
  C  C1166  1  0.142400  0.712100  0.395000  1
  C  C1167  1  0.857600  0.605000  0.712100  1
  C  C1168  1  0.857600  0.395000  0.287900  1
  C  C1169  1  0.119400  0.267900  0.571000  1
  C  C1170  1  0.119400  0.732100  0.429000  1
  C  C1171  1  0.880600  0.571000  0.732100  1
  C  C1172  1  0.880600  0.429000  0.267900  1
  C  C1173  1  0.146200  0.269600  0.535100  1
  C  C1174  1  0.146200  0.730400  0.464900  1
  C  C1175  1  0.853800  0.535100  0.730400  1
  C  C1176  1  0.853800  0.464900  0.269600  1
  C  C1177  1  0.114200  0.252900  0.504900  1
  C  C1178  1  0.114200  0.747100  0.495100  1
  C  C1179  1  0.885800  0.504900  0.747100  1
  C  C1180  1  0.885800  0.495100  0.252900  1
  C  C1181  1  0.055300  0.234700  0.510600  1
  C  C1182  1  0.055300  0.765300  0.489400  1
  C  C1183  1  0.944700  0.510600  0.765300  1
  C  C1184  1  0.944700  0.489400  0.234700  1
  C  C1185  1  0.028500  0.233000  0.546400  1
  C  C1186  1  0.028500  0.767000  0.453600  1
  C  C1187  1  0.971500  0.546400  0.767000  1
  C  C1188  1  0.971500  0.453600  0.233000  1
  C  C1189  1  0.964600  0.213600  0.552900  1
  C  C1190  1  0.964600  0.786400  0.447100  1
  C  C1191  1  0.035400  0.552900  0.786400  1
  C  C1192  1  0.035400  0.447100  0.213600  1
  C  C1193  1  0.219200  0.333600  0.704800  1
  C  C1194  1  0.219200  0.666400  0.295200  1
  C  C1195  1  0.780800  0.704800  0.666400  1
  C  C1196  1  0.780800  0.295200  0.333600  1
  C  C1197  1  0.178800  0.330900  0.736100  1
  C  C1198  1  0.178800  0.669100  0.263900  1
  C  C1199  1  0.821200  0.736100  0.669100  1
  C  C1200  1  0.821200  0.263900  0.330900  1
  C  C1201  1  0.119600  0.312300  0.733300  1
  C  C1202  1  0.119600  0.687700  0.266700  1
  C  C1203  1  0.880400  0.733300  0.687700  1
  C  C1204  1  0.880400  0.266700  0.312300  1
  C  C1205  1  0.100800  0.296400  0.699200  1
  C  C1206  1  0.100800  0.703600  0.300800  1
  C  C1207  1  0.899200  0.699200  0.703600  1
  C  C1208  1  0.899200  0.300800  0.296400  1
  C  C1209  1  0.141200  0.299000  0.668000  1
  C  C1210  1  0.141200  0.701000  0.332000  1
  C  C1211  1  0.858800  0.668000  0.701000  1
  C  C1212  1  0.858800  0.332000  0.299000  1
  C  C1213  1  0.200400  0.317600  0.670700  1
  C  C1214  1  0.200400  0.682400  0.329300  1
  C  C1215  1  0.799600  0.670700  0.682400  1
  C  C1216  1  0.799600  0.329300  0.317600  1
  C  C1217  1  0.084300  0.300400  0.769600  1
  C  C1218  1  0.084300  0.699600  0.230400  1
  C  C1219  1  0.915700  0.769600  0.699600  1
  C  C1220  1  0.915700  0.230400  0.300400  1
  C  C1221  1  0.119700  0.287400  0.800300  1
  C  C1222  1  0.119700  0.712600  0.199700  1
  C  C1223  1  0.880300  0.800300  0.712600  1
  C  C1224  1  0.880300  0.199700  0.287400  1
  C  C1225  1  0.087700  0.275700  0.832700  1
  C  C1226  1  0.087700  0.724300  0.167300  1
  C  C1227  1  0.912300  0.832700  0.724300  1
  C  C1228  1  0.912300  0.167300  0.275700  1
  C  C1229  1  0.020300  0.277000  0.834500  1
  C  C1230  1  0.020300  0.723000  0.165500  1
  C  C1231  1  0.979700  0.834500  0.723000  1
  C  C1232  1  0.979700  0.165500  0.277000  1
  C  C1233  1  0.984900  0.290000  0.803800  1
  C  C1234  1  0.984900  0.710000  0.196200  1
  C  C1235  1  0.015100  0.803800  0.710000  1
  C  C1236  1  0.015100  0.196200  0.290000  1
  C  C1237  1  0.016900  0.301700  0.771300  1
  C  C1238  1  0.016900  0.698300  0.228700  1
  C  C1239  1  0.983100  0.771300  0.698300  1
  C  C1240  1  0.983100  0.228700  0.301700  1
  C  C1241  1  0.988300  0.261800  0.869800  1
  C  C1242  1  0.988300  0.738200  0.130200  1
  C  C1243  1  0.011700  0.869800  0.738200  1
  C  C1244  1  0.011700  0.130200  0.261800  1
  C  C1245  1  0.021900  0.244200  0.898800  1
  C  C1246  1  0.021900  0.755800  0.101200  1
  C  C1247  1  0.978100  0.898800  0.755800  1
  C  C1248  1  0.978100  0.101200  0.244200  1
  C  C1249  1  0.987900  0.227400  0.928200  1
  C  C1250  1  0.987900  0.772600  0.071800  1
  C  C1251  1  0.012100  0.928200  0.772600  1
  C  C1252  1  0.012100  0.071800  0.227400  1
  C  C1253  1  0.920500  0.228200  0.928600  1
  C  C1254  1  0.920500  0.771800  0.071400  1
  C  C1255  1  0.079500  0.928600  0.771800  1
  C  C1256  1  0.079500  0.071400  0.228200  1
  C  C1257  1  0.886900  0.245800  0.899500  1
  C  C1258  1  0.886900  0.754200  0.100500  1
  C  C1259  1  0.113100  0.899500  0.754200  1
  C  C1260  1  0.113100  0.100500  0.245800  1
  C  C1261  1  0.920800  0.262600  0.870100  1
  C  C1262  1  0.920800  0.737400  0.129900  1
  C  C1263  1  0.079200  0.870100  0.737400  1
  C  C1264  1  0.079200  0.129900  0.262600  1
  C  C1265  1  0.888200  0.209000  0.965700  1
  C  C1266  1  0.888200  0.791000  0.034300  1
  C  C1267  1  0.111800  0.965700  0.791000  1
  C  C1268  1  0.111800  0.034300  0.209000  1
  C  C1269  1  0.918800  0.214000  0.000200  1
  C  C1270  1  0.918800  0.786000  0.999800  1
  C  C1271  1  0.081200  0.000200  0.786000  1
  C  C1272  1  0.081200  0.999800  0.214000  1
  C  C1273  1  0.889500  0.201100  0.033100  1
  C  C1274  1  0.889500  0.798900  0.966900  1
  C  C1275  1  0.110500  0.033100  0.798900  1
  C  C1276  1  0.110500  0.966900  0.201100  1
  C  C1277  1  0.829500  0.183200  0.031400  1
  C  C1278  1  0.829500  0.816800  0.968600  1
  C  C1279  1  0.170500  0.031400  0.816800  1
  C  C1280  1  0.170500  0.968600  0.183200  1
  C  C1281  1  0.798900  0.178200  0.996800  1
  C  C1282  1  0.798900  0.821800  0.003200  1
  C  C1283  1  0.201100  0.996800  0.821800  1
  C  C1284  1  0.201100  0.003200  0.178200  1
  C  C1285  1  0.828200  0.191100  0.964000  1
  C  C1286  1  0.828200  0.808900  0.036000  1
  C  C1287  1  0.171800  0.964000  0.808900  1
  C  C1288  1  0.171800  0.036000  0.191100  1
  C  C1289  1  0.971200  0.207500  0.074200  1
  C  C1290  1  0.971200  0.792500  0.925800  1
  C  C1291  1  0.028800  0.074200  0.792500  1
  C  C1292  1  0.028800  0.925800  0.207500  1
  C  C1293  1  0.000100  0.212900  0.110900  1
  C  C1294  1  0.000100  0.787100  0.889100  1
  C  C1295  1  0.999900  0.110900  0.787100  1
  C  C1296  1  0.999900  0.889100  0.212900  1
  C  C1297  1  0.063400  0.206300  0.122800  1
  C  C1298  1  0.063400  0.793700  0.877200  1
  C  C1299  1  0.936600  0.122800  0.793700  1
  C  C1300  1  0.936600  0.877200  0.206300  1
  C  C1301  1  0.080100  0.211300  0.160400  1
  C  C1302  1  0.080100  0.788700  0.839600  1
  C  C1303  1  0.919900  0.160400  0.788700  1
  C  C1304  1  0.919900  0.839600  0.211300  1
  C  C1305  1  0.033400  0.223000  0.186100  1
  C  C1306  1  0.033400  0.777000  0.813900  1
  C  C1307  1  0.966600  0.186100  0.777000  1
  C  C1308  1  0.966600  0.813900  0.223000  1
  C  C1309  1  0.970100  0.229700  0.174300  1
  C  C1310  1  0.970100  0.770300  0.825700  1
  C  C1311  1  0.029900  0.174300  0.770300  1
  C  C1312  1  0.029900  0.825700  0.229700  1
  C  C1313  1  0.919300  0.247900  0.201300  1
  C  C1314  1  0.919300  0.752100  0.798700  1
  C  C1315  1  0.080700  0.201300  0.752100  1
  C  C1316  1  0.080700  0.798700  0.247900  1
  C  C1317  1  0.722300  0.146100  0.966700  1
  C  C1318  1  0.722300  0.853900  0.033300  1
  C  C1319  1  0.277700  0.966700  0.853900  1
  C  C1320  1  0.277700  0.033300  0.146100  1
  C  C1321  1  0.663000  0.125900  0.960700  1
  C  C1322  1  0.663000  0.874100  0.039300  1
  C  C1323  1  0.337000  0.960700  0.874100  1
  C  C1324  1  0.337000  0.039300  0.125900  1
  C  C1325  1  0.632000  0.111500  0.928800  1
  C  C1326  1  0.632000  0.888500  0.071200  1
  C  C1327  1  0.368000  0.928800  0.888500  1
  C  C1328  1  0.368000  0.071200  0.111500  1
  C  C1329  1  0.567000  0.101200  0.930400  1
  C  C1330  1  0.567000  0.898800  0.069600  1
  C  C1331  1  0.433000  0.930400  0.898800  1
  C  C1332  1  0.433000  0.069600  0.101200  1
  C  C1333  1  0.532900  0.105300  0.963800  1
  C  C1334  1  0.532900  0.894700  0.036200  1
  C  C1335  1  0.467100  0.963800  0.894700  1
  C  C1336  1  0.467100  0.036200  0.105300  1
  C  C1337  1  0.563000  0.119700  0.995600  1
  C  C1338  1  0.563000  0.880300  0.004400  1
  C  C1339  1  0.437000  0.995600  0.880300  1
  C  C1340  1  0.437000  0.004400  0.119700  1
  C  C1341  1  0.515000  0.125400  0.027700  1
  C  C1342  1  0.515000  0.874600  0.972300  1
  C  C1343  1  0.485000  0.027700  0.874600  1
  C  C1344  1  0.485000  0.972300  0.125400  1
  C  C1345  1  0.913100  0.332000  0.532700  1
  C  C1346  1  0.913100  0.668000  0.467300  1
  C  C1347  1  0.086900  0.532700  0.668000  1
  C  C1348  1  0.086900  0.467300  0.332000  1
  C  C1349  1  0.980900  0.344100  0.530100  1
  C  C1350  1  0.980900  0.655900  0.469900  1
  C  C1351  1  0.019100  0.530100  0.655900  1
  C  C1352  1  0.019100  0.469900  0.344100  1
  C  C1353  1  0.020600  0.338600  0.498800  1
  C  C1354  1  0.020600  0.661400  0.501200  1
  C  C1355  1  0.979400  0.498800  0.661400  1
  C  C1356  1  0.979400  0.501200  0.338600  1
  C  C1357  1  0.086000  0.348000  0.500600  1
  C  C1358  1  0.086000  0.652000  0.499400  1
  C  C1359  1  0.914000  0.500600  0.652000  1
  C  C1360  1  0.914000  0.499400  0.348000  1
  C  C1361  1  0.111800  0.362900  0.533600  1
  C  C1362  1  0.111800  0.637100  0.466400  1
  C  C1363  1  0.888200  0.533600  0.637100  1
  C  C1364  1  0.888200  0.466400  0.362900  1
  C  C1365  1  0.072100  0.368400  0.564800  1
  C  C1366  1  0.072100  0.631600  0.435200  1
  C  C1367  1  0.927900  0.564800  0.631600  1
  C  C1368  1  0.927900  0.435200  0.368400  1
  C  C1369  1  0.094800  0.382100  0.600800  1
  C  C1370  1  0.094800  0.617900  0.399200  1
  C  C1371  1  0.905200  0.600800  0.617900  1
  C  C1372  1  0.905200  0.399200  0.382100  1
  C  C1373  1  0.245100  0.462200  0.687300  1
  C  C1374  1  0.245100  0.537800  0.312700  1
  C  C1375  1  0.754900  0.687300  0.537800  1
  C  C1376  1  0.754900  0.312700  0.462200  1
  C  C1377  1  0.303000  0.484700  0.688400  1
  C  C1378  1  0.303000  0.515300  0.311600  1
  C  C1379  1  0.697000  0.688400  0.515300  1
  C  C1380  1  0.697000  0.311600  0.484700  1
  C  C1381  1  0.356000  0.486600  0.664500  1
  C  C1382  1  0.356000  0.513400  0.335500  1
  C  C1383  1  0.644000  0.664500  0.513400  1
  C  C1384  1  0.644000  0.335500  0.486600  1
  C  C1385  1  0.411900  0.506000  0.675700  1
  C  C1386  1  0.411900  0.494000  0.324300  1
  C  C1387  1  0.588100  0.675700  0.494000  1
  C  C1388  1  0.588100  0.324300  0.506000  1
  C  C1389  1  0.413800  0.523500  0.710800  1
  C  C1390  1  0.413800  0.476500  0.289200  1
  C  C1391  1  0.586200  0.710800  0.476500  1
  C  C1392  1  0.586200  0.289200  0.523500  1
  C  C1393  1  0.360300  0.521600  0.734600  1
  C  C1394  1  0.360300  0.478400  0.265400  1
  C  C1395  1  0.639700  0.734600  0.478400  1
  C  C1396  1  0.639700  0.265400  0.521600  1
  C  C1397  1  0.368800  0.532500  0.776400  1
  C  C1398  1  0.368800  0.467500  0.223600  1
  C  C1399  1  0.631200  0.776400  0.467500  1
  C  C1400  1  0.631200  0.223600  0.532500  1
  C  C1401  1  0.129800  0.427100  0.665700  1
  C  C1402  1  0.129800  0.572900  0.334300  1
  C  C1403  1  0.870200  0.665700  0.572900  1
  C  C1404  1  0.870200  0.334300  0.427100  1
  C  C1405  1  0.073300  0.406300  0.660600  1
  C  C1406  1  0.073300  0.593700  0.339400  1
  C  C1407  1  0.926700  0.660600  0.593700  1
  C  C1408  1  0.926700  0.339400  0.406300  1
  C  C1409  1  0.031500  0.400100  0.690700  1
  C  C1410  1  0.031500  0.599900  0.309300  1
  C  C1411  1  0.968500  0.690700  0.599900  1
  C  C1412  1  0.968500  0.309300  0.400100  1
  C  C1413  1  0.046300  0.414800  0.726000  1
  C  C1414  1  0.046300  0.585200  0.274000  1
  C  C1415  1  0.953700  0.726000  0.585200  1
  C  C1416  1  0.953700  0.274000  0.414800  1
  C  C1417  1  0.102800  0.435700  0.731100  1
  C  C1418  1  0.102800  0.564300  0.268900  1
  C  C1419  1  0.897200  0.731100  0.564300  1
  C  C1420  1  0.897200  0.268900  0.435700  1
  C  C1421  1  0.144500  0.441800  0.701000  1
  C  C1422  1  0.144500  0.558200  0.299000  1
  C  C1423  1  0.855500  0.701000  0.558200  1
  C  C1424  1  0.855500  0.299000  0.441800  1
  C  C1425  1  0.998400  0.410500  0.758200  1
  C  C1426  1  0.998400  0.589500  0.241800  1
  C  C1427  1  0.001600  0.758200  0.589500  1
  C  C1428  1  0.001600  0.241800  0.410500  1
  C  C1429  1  0.932200  0.409100  0.750700  1
  C  C1430  1  0.932200  0.590900  0.249300  1
  C  C1431  1  0.067800  0.750700  0.590900  1
  C  C1432  1  0.067800  0.249300  0.409100  1
  C  C1433  1  0.887800  0.409000  0.780200  1
  C  C1434  1  0.887800  0.591000  0.219800  1
  C  C1435  1  0.112200  0.780200  0.591000  1
  C  C1436  1  0.112200  0.219800  0.409000  1
  C  C1437  1  0.909700  0.410400  0.817200  1
  C  C1438  1  0.909700  0.589600  0.182800  1
  C  C1439  1  0.090300  0.817200  0.589600  1
  C  C1440  1  0.090300  0.182800  0.410400  1
  C  C1441  1  0.975900  0.411800  0.824700  1
  C  C1442  1  0.975900  0.588200  0.175300  1
  C  C1443  1  0.024100  0.824700  0.588200  1
  C  C1444  1  0.024100  0.175300  0.411800  1
  C  C1445  1  0.020200  0.411900  0.795200  1
  C  C1446  1  0.020200  0.588100  0.204800  1
  C  C1447  1  0.979800  0.795200  0.588100  1
  C  C1448  1  0.979800  0.204800  0.411900  1
  C  C1449  1  0.855000  0.412800  0.848300  1
  C  C1450  1  0.855000  0.587200  0.151700  1
  C  C1451  1  0.145000  0.848300  0.587200  1
  C  C1452  1  0.145000  0.151700  0.412800  1
  C  C1453  1  0.792500  0.425700  0.841200  1
  C  C1454  1  0.792500  0.574300  0.158800  1
  C  C1455  1  0.207500  0.841200  0.574300  1
  C  C1456  1  0.207500  0.158800  0.425700  1
  C  C1457  1  0.748200  0.429000  0.870500  1
  C  C1458  1  0.748200  0.571000  0.129500  1
  C  C1459  1  0.251800  0.870500  0.571000  1
  C  C1460  1  0.251800  0.129500  0.429000  1
  C  C1461  1  0.766500  0.419500  0.907000  1
  C  C1462  1  0.766500  0.580500  0.093000  1
  C  C1463  1  0.233500  0.907000  0.580500  1
  C  C1464  1  0.233500  0.093000  0.419500  1
  C  C1465  1  0.829000  0.406600  0.914100  1
  C  C1466  1  0.829000  0.593400  0.085900  1
  C  C1467  1  0.171000  0.914100  0.593400  1
  C  C1468  1  0.171000  0.085900  0.406600  1
  C  C1469  1  0.873300  0.403300  0.884700  1
  C  C1470  1  0.873300  0.596700  0.115300  1
  C  C1471  1  0.126700  0.884700  0.596700  1
  C  C1472  1  0.126700  0.115300  0.403300  1
  C  C1473  1  0.717000  0.425000  0.939000  1
  C  C1474  1  0.717000  0.575000  0.061000  1
  C  C1475  1  0.283000  0.939000  0.575000  1
  C  C1476  1  0.283000  0.061000  0.425000  1
  C  C1477  1  0.739700  0.435900  0.974200  1
  C  C1478  1  0.739700  0.564100  0.025800  1
  C  C1479  1  0.260300  0.974200  0.564100  1
  C  C1480  1  0.260300  0.025800  0.435900  1
  C  C1481  1  0.697300  0.437500  0.004700  1
  C  C1482  1  0.697300  0.562500  0.995300  1
  C  C1483  1  0.302700  0.004700  0.562500  1
  C  C1484  1  0.302700  0.995300  0.437500  1
  C  C1485  1  0.632200  0.428200  0.999900  1
  C  C1486  1  0.632200  0.571800  0.000100  1
  C  C1487  1  0.367800  0.999900  0.571800  1
  C  C1488  1  0.367800  0.000100  0.428200  1
  C  C1489  1  0.609600  0.417300  0.964600  1
  C  C1490  1  0.609600  0.582700  0.035400  1
  C  C1491  1  0.390400  0.964600  0.582700  1
  C  C1492  1  0.390400  0.035400  0.417300  1
  C  C1493  1  0.652000  0.415700  0.934200  1
  C  C1494  1  0.652000  0.584300  0.065800  1
  C  C1495  1  0.348000  0.934200  0.584300  1
  C  C1496  1  0.348000  0.065800  0.415700  1
  C  C1497  1  0.516000  0.413800  0.929800  1
  C  C1498  1  0.516000  0.586200  0.070200  1
  C  C1499  1  0.484000  0.929800  0.586200  1
  C  C1500  1  0.484000  0.070200  0.413800  1
  C  C1501  1  0.451100  0.400000  0.925200  1
  C  C1502  1  0.451100  0.600000  0.074800  1
  C  C1503  1  0.548900  0.925200  0.600000  1
  C  C1504  1  0.548900  0.074800  0.400000  1
  C  C1505  1  0.408600  0.412400  0.897400  1
  C  C1506  1  0.408600  0.587600  0.102600  1
  C  C1507  1  0.591400  0.897400  0.587600  1
  C  C1508  1  0.591400  0.102600  0.412400  1
  C  C1509  1  0.344500  0.400300  0.897400  1
  C  C1510  1  0.344500  0.599700  0.102600  1
  C  C1511  1  0.655500  0.897400  0.599700  1
  C  C1512  1  0.655500  0.102600  0.400300  1
  C  C1513  1  0.322800  0.375700  0.925200  1
  C  C1514  1  0.322800  0.624300  0.074800  1
  C  C1515  1  0.677200  0.925200  0.624300  1
  C  C1516  1  0.677200  0.074800  0.375700  1
  C  C1517  1  0.365300  0.363300  0.953000  1
  C  C1518  1  0.365300  0.636700  0.047000  1
  C  C1519  1  0.634700  0.953000  0.636700  1
  C  C1520  1  0.634700  0.047000  0.363300  1
  C  C1521  1  0.338700  0.339300  0.985900  1
  C  C1522  1  0.338700  0.660700  0.014100  1
  C  C1523  1  0.661300  0.985900  0.660700  1
  C  C1524  1  0.661300  0.014100  0.339300  1
  C  C1525  1  0.765700  0.464600  0.049300  1
  C  C1526  1  0.765700  0.535400  0.950700  1
  C  C1527  1  0.234300  0.049300  0.535400  1
  C  C1528  1  0.234300  0.950700  0.464600  1
  C  C1529  1  0.787500  0.471200  0.087800  1
  C  C1530  1  0.787500  0.528800  0.912200  1
  C  C1531  1  0.212500  0.087800  0.528800  1
  C  C1532  1  0.212500  0.912200  0.471200  1
  C  C1533  1  0.846000  0.487500  0.098800  1
  C  C1534  1  0.846000  0.512500  0.901200  1
  C  C1535  1  0.154000  0.098800  0.512500  1
  C  C1536  1  0.154000  0.901200  0.487500  1
  C  C1537  1  0.858900  0.493300  0.136800  1
  C  C1538  1  0.858900  0.506700  0.863200  1
  C  C1539  1  0.141100  0.136800  0.506700  1
  C  C1540  1  0.141100  0.863200  0.493300  1
  C  C1541  1  0.813400  0.482900  0.163800  1
  C  C1542  1  0.813400  0.517100  0.836200  1
  C  C1543  1  0.186600  0.163800  0.517100  1
  C  C1544  1  0.186600  0.836200  0.482900  1
  C  C1545  1  0.755000  0.466600  0.152800  1
  C  C1546  1  0.755000  0.533400  0.847200  1
  C  C1547  1  0.245000  0.152800  0.533400  1
  C  C1548  1  0.245000  0.847200  0.466600  1
  C  C1549  1  0.702000  0.450000  0.178100  1
  C  C1550  1  0.702000  0.550000  0.821900  1
  C  C1551  1  0.298000  0.178100  0.550000  1
  C  C1552  1  0.298000  0.821900  0.450000  1
  N  N1553  1  0.886800  0.361200  0.641700  1
  N  N1554  1  0.886800  0.638800  0.358300  1
  N  N1555  1  0.113200  0.641700  0.638800  1
  N  N1556  1  0.113200  0.358300  0.361200  1
  N  N1557  1  0.051500  0.389900  0.626100  1
  N  N1558  1  0.051500  0.610100  0.373900  1
  N  N1559  1  0.948500  0.626100  0.610100  1
  N  N1560  1  0.948500  0.373900  0.389900  1
  N  N1561  1  0.963500  0.234100  0.665300  1
  N  N1562  1  0.963500  0.765900  0.334700  1
  N  N1563  1  0.036500  0.665300  0.765900  1
  N  N1564  1  0.036500  0.334700  0.234100  1
  N  N1565  1  0.112500  0.281400  0.635400  1
  N  N1566  1  0.112500  0.718600  0.364600  1
  N  N1567  1  0.887500  0.635400  0.718600  1
  N  N1568  1  0.887500  0.364600  0.281400  1
  N  N1569  1  0.277600  0.353400  0.710100  1
  N  N1570  1  0.277600  0.646600  0.289900  1
  N  N1571  1  0.722400  0.710100  0.646600  1
  N  N1572  1  0.722400  0.289900  0.353400  1
  N  N1573  1  0.285800  0.357700  0.808300  1
  N  N1574  1  0.285800  0.642300  0.191700  1
  N  N1575  1  0.714200  0.808300  0.642300  1
  N  N1576  1  0.714200  0.191700  0.357700  1
  N  N1577  1  0.206700  0.483700  0.806900  1
  N  N1578  1  0.206700  0.516300  0.193100  1
  N  N1579  1  0.793300  0.806900  0.516300  1
  N  N1580  1  0.793300  0.193100  0.483700  1
  N  N1581  1  0.197800  0.466300  0.710100  1
  N  N1582  1  0.197800  0.533700  0.289900  1
  N  N1583  1  0.802200  0.710100  0.533700  1
  N  N1584  1  0.802200  0.289900  0.466300  1
  N  N1585  1  0.731600  0.164400  0.997500  1
  N  N1586  1  0.731600  0.835600  0.002500  1
  N  N1587  1  0.268400  0.997500  0.835600  1
  N  N1588  1  0.268400  0.002500  0.164400  1
  N  N1589  1  0.630300  0.211900  0.057100  1
  N  N1590  1  0.630300  0.788100  0.942900  1
  N  N1591  1  0.369700  0.057100  0.788100  1
  N  N1592  1  0.369700  0.942900  0.211900  1
  N  N1593  1  0.909000  0.207000  0.070900  1
  N  N1594  1  0.909000  0.793000  0.929100  1
  N  N1595  1  0.091000  0.070900  0.793000  1
  N  N1596  1  0.091000  0.929100  0.207000  1
  N  N1597  1  0.777200  0.249400  0.118200  1
  N  N1598  1  0.777200  0.750600  0.881800  1
  N  N1599  1  0.222800  0.118200  0.750600  1
  N  N1600  1  0.222800  0.881800  0.249400  1
  N  N1601  1  0.542800  0.407100  0.962700  1
  N  N1602  1  0.542800  0.592900  0.037300  1
  N  N1603  1  0.457200  0.962700  0.592900  1
  N  N1604  1  0.457200  0.037300  0.407100  1
  N  N1605  1  0.521200  0.332000  0.032600  1
  N  N1606  1  0.521200  0.668000  0.967400  1
  N  N1607  1  0.478800  0.032600  0.668000  1
  N  N1608  1  0.478800  0.967400  0.332000  1
  N  N1609  1  0.667400  0.370300  0.100600  1
  N  N1610  1  0.667400  0.629700  0.899400  1
  N  N1611  1  0.332600  0.100600  0.629700  1
  N  N1612  1  0.332600  0.899400  0.370300  1
  N  N1613  1  0.715600  0.446400  0.042900  1
  N  N1614  1  0.715600  0.553600  0.957100  1
  N  N1615  1  0.284400  0.042900  0.553600  1
  N  N1616  1  0.284400  0.957100  0.446400  1
  N  N1617  1  0.891900  0.421300  0.596000  1
  N  N1618  1  0.891900  0.578700  0.404000  1
  N  N1619  1  0.108100  0.596000  0.578700  1
  N  N1620  1  0.108100  0.404000  0.421300  1
  N  N1621  1  0.052500  0.183600  0.647600  1
  N  N1622  1  0.052500  0.816400  0.352400  1
  N  N1623  1  0.947500  0.647600  0.816400  1
  N  N1624  1  0.947500  0.352400  0.183600  1
  N  N1625  1  0.432900  0.390300  0.046200  1
  N  N1626  1  0.432900  0.609700  0.953800  1
  N  N1627  1  0.567100  0.046200  0.609700  1
  N  N1628  1  0.567100  0.953800  0.390300  1
  N  N1629  1  0.654700  0.142600  0.087300  1
  N  N1630  1  0.654700  0.857400  0.912700  1
  N  N1631  1  0.345300  0.087300  0.857400  1
  N  N1632  1  0.345300  0.912700  0.142600  1
  N  N1633  1  0.204700  0.550000  0.775900  1
  N  N1634  1  0.204700  0.450000  0.224100  1
  N  N1635  1  0.795300  0.775900  0.450000  1
  N  N1636  1  0.795300  0.224100  0.550000  1
  N  N1637  1  0.377100  0.310500  0.783100  1
  N  N1638  1  0.377100  0.689500  0.216900  1
  N  N1639  1  0.622900  0.783100  0.689500  1
  N  N1640  1  0.622900  0.216900  0.310500  1
  N  N1641  1  0.579800  0.429000  0.108800  1
  N  N1642  1  0.579800  0.571000  0.891200  1
  N  N1643  1  0.420200  0.108800  0.571000  1
  N  N1644  1  0.420200  0.891200  0.429000  1
  N  N1645  1  0.812400  0.181600  0.147800  1
  N  N1646  1  0.812400  0.818400  0.852200  1
  N  N1647  1  0.187600  0.147800  0.818400  1
  N  N1648  1  0.187600  0.852200  0.181600  1
  N  N1649  1  0.390400  0.387600  0.727800  1
  N  N1650  1  0.390400  0.612400  0.272200  1
  N  N1651  1  0.609600  0.727800  0.612400  1
  N  N1652  1  0.609600  0.272200  0.387600  1
  N  N1653  1  0.060500  0.249700  0.576700  1
  N  N1654  1  0.060500  0.750300  0.423300  1
  N  N1655  1  0.939500  0.576700  0.750300  1
  N  N1656  1  0.939500  0.423300  0.249700  1
  N  N1657  1  0.953500  0.224600  0.136700  1
  N  N1658  1  0.953500  0.775400  0.863300  1
  N  N1659  1  0.046500  0.136700  0.775400  1
  N  N1660  1  0.046500  0.863300  0.224600  1
  N  N1661  1  0.628000  0.130000  0.994100  1
  N  N1662  1  0.628000  0.870000  0.005900  1
  N  N1663  1  0.372000  0.994100  0.870000  1
  N  N1664  1  0.372000  0.005900  0.130000  1
  N  N1665  1  0.006700  0.358900  0.563100  1
  N  N1666  1  0.006700  0.641100  0.436900  1
  N  N1667  1  0.993300  0.563100  0.641100  1
  N  N1668  1  0.993300  0.436900  0.358900  1
  N  N1669  1  0.305000  0.502200  0.723400  1
  N  N1670  1  0.305000  0.497800  0.276600  1
  N  N1671  1  0.695000  0.723400  0.497800  1
  N  N1672  1  0.695000  0.276600  0.502200  1
  N  N1673  1  0.429500  0.375500  0.953000  1
  N  N1674  1  0.429500  0.624500  0.047000  1
  N  N1675  1  0.570500  0.953000  0.624500  1
  N  N1676  1  0.570500  0.047000  0.375500  1
  N  N1677  1  0.742100  0.460800  0.114800  1
  N  N1678  1  0.742100  0.539200  0.885200  1
  N  N1679  1  0.257900  0.114800  0.539200  1
  N  N1680  1  0.257900  0.885200  0.460800  1
  F  F1681  1  0.744700  0.459100  0.747700  1
  F  F1682  1  0.744700  0.540900  0.252300  1
  F  F1683  1  0.255300  0.747700  0.540900  1
  F  F1684  1  0.255300  0.252300  0.459100  1
  F  F1685  1  0.761000  0.403200  0.721200  1
  F  F1686  1  0.761000  0.596800  0.278800  1
  F  F1687  1  0.239000  0.721200  0.596800  1
  F  F1688  1  0.239000  0.278800  0.403200  1
  F  F1689  1  0.794800  0.453400  0.690100  1
  F  F1690  1  0.794800  0.546600  0.309900  1
  F  F1691  1  0.205200  0.690100  0.546600  1
  F  F1692  1  0.205200  0.309900  0.453400  1
  F  F1693  1  0.682100  0.439200  0.700200  1
  F  F1694  1  0.682100  0.560800  0.299800  1
  F  F1695  1  0.317900  0.700200  0.560800  1
  F  F1696  1  0.317900  0.299800  0.439200  1
  F  F1697  1  0.528400  0.767700  0.830200  1
  F  F1698  1  0.528400  0.232300  0.169800  1
  F  F1699  1  0.471600  0.830200  0.232300  1
  F  F1700  1  0.471600  0.169800  0.767700  1
  F  F1701  1  0.518700  0.714000  0.863400  1
  F  F1702  1  0.518700  0.286000  0.136600  1
  F  F1703  1  0.481300  0.863400  0.286000  1
  F  F1704  1  0.481300  0.136600  0.714000  1
  F  F1705  1  0.602700  0.722100  0.826100  1
  F  F1706  1  0.602700  0.277900  0.173900  1
  F  F1707  1  0.397300  0.826100  0.277900  1
  F  F1708  1  0.397300  0.173900  0.722100  1
  F  F1709  1  0.507700  0.711500  0.800500  1
  F  F1710  1  0.507700  0.288500  0.199500  1
  F  F1711  1  0.492300  0.800500  0.288500  1
  F  F1712  1  0.492300  0.199500  0.711500  1
  F  F1713  1  0.246700  0.351300  0.585400  1
  F  F1714  1  0.246700  0.648700  0.414600  1
  F  F1715  1  0.753300  0.585400  0.648700  1
  F  F1716  1  0.753300  0.414600  0.351300  1
  F  F1717  1  0.348800  0.376800  0.586300  1
  F  F1718  1  0.348800  0.623200  0.413700  1
  F  F1719  1  0.651200  0.586300  0.623200  1
  F  F1720  1  0.651200  0.413700  0.376800  1
  F  F1721  1  0.261400  0.412300  0.604600  1
  F  F1722  1  0.261400  0.587700  0.395400  1
  F  F1723  1  0.738600  0.604600  0.587700  1
  F  F1724  1  0.738600  0.395400  0.412300  1
  F  F1725  1  0.274700  0.396600  0.542500  1
  F  F1726  1  0.274700  0.603400  0.457500  1
  F  F1727  1  0.725300  0.542500  0.603400  1
  F  F1728  1  0.725300  0.457500  0.396600  1
  F  F1729  1  0.724000  0.072800  0.253800  1
  F  F1730  1  0.724000  0.927200  0.746200  1
  F  F1731  1  0.276000  0.253800  0.927200  1
  F  F1732  1  0.276000  0.746200  0.072800  1
  F  F1733  1  0.783300  0.118700  0.283500  1
  F  F1734  1  0.783300  0.881300  0.716500  1
  F  F1735  1  0.216700  0.283500  0.881300  1
  F  F1736  1  0.216700  0.716500  0.118700  1
  F  F1737  1  0.835100  0.070800  0.252400  1
  F  F1738  1  0.835100  0.929200  0.747600  1
  F  F1739  1  0.164900  0.252400  0.929200  1
  F  F1740  1  0.164900  0.747600  0.070800  1
  F  F1741  1  0.781000  0.058800  0.307400  1
  F  F1742  1  0.781000  0.941200  0.692600  1
  F  F1743  1  0.219000  0.307400  0.941200  1
  F  F1744  1  0.219000  0.692600  0.058800  1
  F  F1745  1  0.808500  0.429200  0.702500  1
  F  F1746  1  0.808500  0.570800  0.297500  1
  F  F1747  1  0.191500  0.702500  0.570800  1
  F  F1748  1  0.191500  0.297500  0.429200  1
  F  F1749  1  0.747000  0.471600  0.689900  1
  F  F1750  1  0.747000  0.528400  0.310100  1
  F  F1751  1  0.253000  0.689900  0.528400  1
  F  F1752  1  0.253000  0.310100  0.471600  1
