# generated using pymatgen
data_Cd8H504Pt6C749S9N72(O6F5)3
_symmetry_space_group_name_H-M   'P 1'
_cell_length_a   30.32900000
_cell_length_b   44.48454181
_cell_length_c   51.61318880
_cell_angle_alpha   83.16120432
_cell_angle_beta   72.91377284
_cell_angle_gamma   70.06866762
_symmetry_Int_Tables_number   1
_chemical_formula_structural   Cd8H504Pt6C749S9N72(O6F5)3
_chemical_formula_sum   'Cd16 H1008 Pt12 C1498 S18 N144 O36 F30'
_cell_volume   62560.83003685
_cell_formula_units_Z   2
loop_
 _symmetry_equiv_pos_site_id
 _symmetry_equiv_pos_as_xyz
  1  'x, y, z'
loop_
 _atom_site_type_symbol
 _atom_site_label
 _atom_site_symmetry_multiplicity
 _atom_site_fract_x
 _atom_site_fract_y
 _atom_site_fract_z
 _atom_site_occupancy
  C  C1  1  0.684400  0.822100  0.665900  1.0
  C  C2  1  0.172400  0.677900  0.834100  1.0
  C  C3  1  0.315600  0.177900  0.334100  1.0
  C  C4  1  0.827600  0.322100  0.165900  1.0
  C  C5  1  0.729200  0.804800  0.650400  1.0
  C  C6  1  0.184400  0.695200  0.849600  1.0
  C  C7  1  0.270800  0.195200  0.349600  1.0
  C  C8  1  0.815600  0.304800  0.150400  1.0
  C  C9  1  0.739800  0.807800  0.622000  1.0
  C  C10  1  0.169600  0.692200  0.878000  1.0
  C  C11  1  0.260200  0.192200  0.378000  1.0
  C  C12  1  0.830400  0.307800  0.122000  1.0
  C  C13  1  0.703600  0.828900  0.611700  1.0
  C  C14  1  0.144200  0.671100  0.888300  1.0
  C  C15  1  0.296400  0.171100  0.388300  1.0
  C  C16  1  0.855800  0.328900  0.111700  1.0
  C  C17  1  0.659000  0.845300  0.628900  1.0
  C  C18  1  0.133200  0.654700  0.871100  1.0
  C  C19  1  0.341000  0.154700  0.371100  1.0
  C  C20  1  0.866800  0.345300  0.128900  1.0
  C  C21  1  0.788300  0.788900  0.604300  1.0
  C  C22  1  0.181500  0.711100  0.895700  1.0
  C  C23  1  0.211700  0.211100  0.395700  1.0
  C  C24  1  0.818500  0.288900  0.104300  1.0
  C  C25  1  0.830100  0.797900  0.599900  1.0
  C  C26  1  0.227900  0.702100  0.900100  1.0
  C  C27  1  0.169900  0.202100  0.400100  1.0
  C  C28  1  0.772100  0.297900  0.099900  1.0
  C  C29  1  0.827200  0.827700  0.609300  1.0
  C  C30  1  0.264200  0.672300  0.890700  1.0
  C  C31  1  0.172800  0.172300  0.390700  1.0
  C  C32  1  0.735800  0.327700  0.109300  1.0
  C  C33  1  0.868400  0.836700  0.605100  1.0
  C  C34  1  0.310200  0.663300  0.894900  1.0
  C  C35  1  0.131600  0.163300  0.394900  1.0
  C  C36  1  0.689800  0.336700  0.105100  1.0
  C  C37  1  0.914300  0.816900  0.591900  1.0
  C  C38  1  0.323100  0.683100  0.908100  1.0
  C  C39  1  0.085700  0.183100  0.408100  1.0
  C  C40  1  0.676900  0.316900  0.091900  1.0
  C  C41  1  0.918200  0.788400  0.582200  1.0
  C  C42  1  0.288800  0.711600  0.917800  1.0
  C  C43  1  0.081800  0.211600  0.417800  1.0
  C  C44  1  0.711200  0.288400  0.082200  1.0
  C  C45  1  0.877500  0.777800  0.585200  1.0
  C  C46  1  0.240500  0.722200  0.914800  1.0
  C  C47  1  0.122500  0.222200  0.414800  1.0
  C  C48  1  0.759500  0.277800  0.085200  1.0
  C  C49  1  0.882300  0.748900  0.574300  1.0
  C  C50  1  0.205500  0.751100  0.925700  1.0
  C  C51  1  0.117700  0.251100  0.425700  1.0
  C  C52  1  0.794500  0.248900  0.074300  1.0
  C  C53  1  0.840300  0.740900  0.577300  1.0
  C  C54  1  0.158500  0.759100  0.922700  1.0
  C  C55  1  0.159700  0.259100  0.422700  1.0
  C  C56  1  0.841500  0.240900  0.077300  1.0
  C  C57  1  0.841900  0.713700  0.564500  1.0
  C  C58  1  0.120100  0.786300  0.935500  1.0
  C  C59  1  0.158100  0.286300  0.435500  1.0
  C  C60  1  0.879900  0.213700  0.064500  1.0
  C  C61  1  0.800800  0.706300  0.565700  1.0
  C  C62  1  0.072800  0.793700  0.934300  1.0
  C  C63  1  0.199200  0.293700  0.434300  1.0
  C  C64  1  0.927200  0.206300  0.065700  1.0
  C  C65  1  0.755500  0.725600  0.580600  1.0
  C  C66  1  0.061700  0.774400  0.919400  1.0
  C  C67  1  0.244500  0.274400  0.419400  1.0
  C  C68  1  0.938300  0.225600  0.080600  1.0
  C  C69  1  0.751100  0.751800  0.593800  1.0
  C  C70  1  0.096700  0.748200  0.906200  1.0
  C  C71  1  0.248900  0.248200  0.406200  1.0
  C  C72  1  0.903300  0.251800  0.093800  1.0
  C  C73  1  0.793400  0.760300  0.592300  1.0
  C  C74  1  0.146000  0.739700  0.907700  1.0
  C  C75  1  0.206600  0.239700  0.407700  1.0
  C  C76  1  0.854000  0.260300  0.092300  1.0
  C  C77  1  0.931200  0.725900  0.561300  1.0
  C  C78  1  0.218400  0.774100  0.938700  1.0
  C  C79  1  0.068800  0.274100  0.438700  1.0
  C  C80  1  0.781600  0.225900  0.061300  1.0
  C  C81  1  0.953800  0.728400  0.533800  1.0
  C  C82  1  0.216000  0.771600  0.966200  1.0
  C  C83  1  0.046200  0.271600  0.466200  1.0
  C  C84  1  0.784000  0.228400  0.033800  1.0
  C  C85  1  0.997400  0.707000  0.519800  1.0
  C  C86  1  0.224200  0.793000  0.980200  1.0
  C  C87  1  0.002600  0.293000  0.480200  1.0
  C  C88  1  0.775800  0.207000  0.019800  1.0
  C  C89  1  0.021700  0.680600  0.533400  1.0
  C  C90  1  0.235700  0.819400  0.966600  1.0
  C  C91  1  0.978300  0.319400  0.466600  1.0
  C  C92  1  0.764300  0.180600  0.033400  1.0
  C  C93  1  0.001600  0.677600  0.561200  1.0
  C  C94  1  0.240400  0.822400  0.938800  1.0
  C  C95  1  0.998400  0.322400  0.438800  1.0
  C  C96  1  0.759600  0.177600  0.061200  1.0
  C  C97  1  0.957200  0.699800  0.575000  1.0
  C  C98  1  0.232000  0.800200  0.925000  1.0
  C  C99  1  0.042800  0.300200  0.425000  1.0
  C  C100  1  0.768000  0.199800  0.075000  1.0
  C  C101  1  0.072900  0.627600  0.520200  1.0
  C  C102  1  0.220700  0.872400  0.979800  1.0
  C  C103  1  0.927100  0.372400  0.479800  1.0
  C  C104  1  0.779300  0.127600  0.020200  1.0
  C  C105  1  0.118000  0.602400  0.506600  1.0
  C  C106  1  0.227000  0.897600  0.993400  1.0
  C  C107  1  0.882000  0.397600  0.493400  1.0
  C  C108  1  0.773000  0.102400  0.006600  1.0
  C  C109  1  0.121200  0.570300  0.508700  1.0
  C  C110  1  0.200200  0.929700  0.991300  1.0
  C  C111  1  0.878800  0.429700  0.491300  1.0
  C  C112  1  0.799800  0.070300  0.008700  1.0
  C  C113  1  0.163500  0.548600  0.493400  1.0
  C  C114  1  0.205500  0.951400  0.006600  1.0
  C  C115  1  0.836500  0.451400  0.506600  1.0
  C  C116  1  0.794500  0.048600  0.993400  1.0
  C  C117  1  0.202300  0.558100  0.476700  1.0
  C  C118  1  0.237100  0.941900  0.023300  1.0
  C  C119  1  0.797700  0.441900  0.523300  1.0
  C  C120  1  0.762900  0.058100  0.976700  1.0
  C  C121  1  0.195200  0.591100  0.476700  1.0
  C  C122  1  0.263000  0.908900  0.023300  1.0
  C  C123  1  0.804800  0.408900  0.523300  1.0
  C  C124  1  0.737000  0.091100  0.976700  1.0
  C  C125  1  0.481000  0.918900  0.705100  1.0
  C  C126  1  0.105000  0.581100  0.794900  1.0
  C  C127  1  0.519000  0.081100  0.294900  1.0
  C  C128  1  0.895000  0.418900  0.205100  1.0
  C  C129  1  0.439500  0.937100  0.723100  1.0
  C  C130  1  0.099700  0.562900  0.776900  1.0
  C  C131  1  0.560500  0.062900  0.276900  1.0
  C  C132  1  0.900300  0.437100  0.223100  1.0
  C  C133  1  0.433600  0.931800  0.750800  1.0
  C  C134  1  0.116200  0.568200  0.749200  1.0
  C  C135  1  0.566400  0.068200  0.249200  1.0
  C  C136  1  0.883800  0.431800  0.250800  1.0
  C  C137  1  0.471200  0.907300  0.757500  1.0
  C  C138  1  0.136000  0.592700  0.742500  1.0
  C  C139  1  0.528800  0.092700  0.242500  1.0
  C  C140  1  0.864000  0.407300  0.257500  1.0
  C  C141  1  0.511800  0.890000  0.738400  1.0
  C  C142  1  0.140200  0.610000  0.761600  1.0
  C  C143  1  0.488200  0.110000  0.261600  1.0
  C  C144  1  0.859800  0.390000  0.238400  1.0
  C  C145  1  0.391400  0.952200  0.772000  1.0
  C  C146  1  0.115600  0.547800  0.728000  1.0
  C  C147  1  0.608600  0.047800  0.228000  1.0
  C  C148  1  0.884400  0.452200  0.272000  1.0
  C  C149  1  0.389700  0.983100  0.777900  1.0
  C  C150  1  0.150700  0.516900  0.722100  1.0
  C  C151  1  0.610300  0.016900  0.222100  1.0
  C  C152  1  0.849300  0.483100  0.277900  1.0
  C  C153  1  0.425700  0.997300  0.763300  1.0
  C  C154  1  0.186300  0.502700  0.736700  1.0
  C  C155  1  0.574300  0.002700  0.236700  1.0
  C  C156  1  0.813700  0.497300  0.263300  1.0
  C  C157  1  0.427000  0.026100  0.769500  1.0
  C  C158  1  0.222600  0.473900  0.730500  1.0
  C  C159  1  0.573000  0.973900  0.230500  1.0
  C  C160  1  0.777400  0.526100  0.269500  1.0
  C  C161  1  0.390700  0.042600  0.791400  1.0
  C  C162  1  0.224700  0.457400  0.708600  1.0
  C  C163  1  0.609300  0.957400  0.208600  1.0
  C  C164  1  0.775300  0.542600  0.291400  1.0
  C  C165  1  0.354000  0.030900  0.805900  1.0
  C  C166  1  0.190800  0.469100  0.694100  1.0
  C  C167  1  0.646000  0.969100  0.194100  1.0
  C  C168  1  0.809200  0.530900  0.305900  1.0
  C  C169  1  0.351200  0.001200  0.800000  1.0
  C  C170  1  0.152400  0.498800  0.700000  1.0
  C  C171  1  0.648800  0.998800  0.200000  1.0
  C  C172  1  0.847600  0.501200  0.300000  1.0
  C  C173  1  0.313100  0.989100  0.815300  1.0
  C  C174  1  0.117500  0.510900  0.684700  1.0
  C  C175  1  0.686900  0.010900  0.184700  1.0
  C  C176  1  0.882500  0.489100  0.315300  1.0
  C  C177  1  0.314800  0.958600  0.809000  1.0
  C  C178  1  0.082400  0.541400  0.691000  1.0
  C  C179  1  0.685200  0.041400  0.191000  1.0
  C  C180  1  0.917600  0.458600  0.309000  1.0
  C  C181  1  0.277900  0.944900  0.823900  1.0
  C  C182  1  0.046700  0.555100  0.676100  1.0
  C  C183  1  0.722100  0.055100  0.176100  1.0
  C  C184  1  0.953300  0.444900  0.323900  1.0
  C  C185  1  0.281100  0.915000  0.817200  1.0
  C  C186  1  0.013300  0.585000  0.682800  1.0
  C  C187  1  0.718900  0.085000  0.182800  1.0
  C  C188  1  0.986700  0.415000  0.317200  1.0
  C  C189  1  0.318500  0.897000  0.796400  1.0
  C  C190  1  0.011900  0.603000  0.703600  1.0
  C  C191  1  0.681500  0.103000  0.203600  1.0
  C  C192  1  0.988100  0.397000  0.296400  1.0
  C  C193  1  0.354200  0.909100  0.781900  1.0
  C  C194  1  0.045200  0.590900  0.718100  1.0
  C  C195  1  0.645800  0.090900  0.218100  1.0
  C  C196  1  0.954800  0.409100  0.281900  1.0
  C  C197  1  0.354000  0.939900  0.787300  1.0
  C  C198  1  0.081200  0.560100  0.712700  1.0
  C  C199  1  0.646000  0.060100  0.212700  1.0
  C  C200  1  0.918800  0.439900  0.287300  1.0
  C  C201  1  0.270500  0.008200  0.836800  1.0
  C  C202  1  0.115500  0.491800  0.663200  1.0
  C  C203  1  0.729500  0.991800  0.163200  1.0
  C  C204  1  0.884500  0.508200  0.336800  1.0
  C  C205  1  0.227200  0.027200  0.830400  1.0
  C  C206  1  0.084800  0.472800  0.669600  1.0
  C  C207  1  0.772800  0.972800  0.169600  1.0
  C  C208  1  0.915200  0.527200  0.330400  1.0
  C  C209  1  0.187800  0.046400  0.849600  1.0
  C  C210  1  0.083800  0.453600  0.650400  1.0
  C  C211  1  0.812200  0.953600  0.150400  1.0
  C  C212  1  0.916200  0.546400  0.349600  1.0
  C  C213  1  0.187000  0.048500  0.876300  1.0
  C  C214  1  0.111800  0.451500  0.623700  1.0
  C  C215  1  0.813000  0.951500  0.123700  1.0
  C  C216  1  0.888200  0.548500  0.376300  1.0
  C  C217  1  0.228100  0.029000  0.883200  1.0
  C  C218  1  0.140300  0.471000  0.616800  1.0
  C  C219  1  0.771900  0.971000  0.116800  1.0
  C  C220  1  0.859700  0.529000  0.383200  1.0
  C  C221  1  0.267900  0.010000  0.864000  1.0
  C  C222  1  0.141900  0.490000  0.636000  1.0
  C  C223  1  0.732100  0.990000  0.136000  1.0
  C  C224  1  0.858100  0.510000  0.364000  1.0
  C  C225  1  0.150600  0.092700  0.906500  1.0
  C  C226  1  0.149800  0.407300  0.593500  1.0
  C  C227  1  0.849400  0.907300  0.093500  1.0
  C  C228  1  0.850200  0.592700  0.406500  1.0
  C  C229  1  0.111500  0.116000  0.925600  1.0
  C  C230  1  0.153100  0.384000  0.574400  1.0
  C  C231  1  0.888500  0.884000  0.074400  1.0
  C  C232  1  0.846900  0.616000  0.425600  1.0
  C  C233  1  0.119700  0.139400  0.938000  1.0
  C  C234  1  0.197100  0.360600  0.562000  1.0
  C  C235  1  0.880300  0.860600  0.062000  1.0
  C  C236  1  0.802900  0.639400  0.438000  1.0
  C  C237  1  0.079200  0.160100  0.955900  1.0
  C  C238  1  0.195200  0.339900  0.544100  1.0
  C  C239  1  0.920800  0.839900  0.044100  1.0
  C  C240  1  0.804800  0.660100  0.455900  1.0
  C  C241  1  0.033700  0.157500  0.960500  1.0
  C  C242  1  0.151700  0.342500  0.539500  1.0
  C  C243  1  0.966300  0.842500  0.039500  1.0
  C  C244  1  0.848300  0.657500  0.460500  1.0
  C  C245  1  0.028600  0.133700  0.947300  1.0
  C  C246  1  0.109600  0.366300  0.552700  1.0
  C  C247  1  0.971400  0.866300  0.052700  1.0
  C  C248  1  0.890400  0.633700  0.447300  1.0
  C  C249  1  0.520000  0.836100  0.666100  1.0
  C  C250  1  0.022200  0.663900  0.833900  1.0
  C  C251  1  0.480000  0.163900  0.333900  1.0
  C  C252  1  0.977800  0.336100  0.166100  1.0
  C  C253  1  0.499400  0.813400  0.664000  1.0
  C  C254  1  0.976800  0.686600  0.836000  1.0
  C  C255  1  0.500600  0.186600  0.336000  1.0
  C  C256  1  0.023200  0.313400  0.164000  1.0
  C  C257  1  0.509500  0.784300  0.678100  1.0
  C  C258  1  0.971900  0.715700  0.821900  1.0
  C  C259  1  0.490500  0.215700  0.321900  1.0
  C  C260  1  0.028100  0.284300  0.178100  1.0
  C  C261  1  0.541600  0.779100  0.694300  1.0
  C  C262  1  0.015000  0.720900  0.805700  1.0
  C  C263  1  0.458400  0.220900  0.305700  1.0
  C  C264  1  0.985000  0.279100  0.194300  1.0
  C  C265  1  0.559800  0.803200  0.695800  1.0
  C  C266  1  0.058800  0.696800  0.804200  1.0
  C  C267  1  0.440200  0.196800  0.304200  1.0
  C  C268  1  0.941200  0.303200  0.195800  1.0
  C  C269  1  0.488000  0.759200  0.676800  1.0
  C  C270  1  0.924000  0.740800  0.823200  1.0
  C  C271  1  0.512000  0.240800  0.323200  1.0
  C  C272  1  0.076000  0.259200  0.176800  1.0
  C  C273  1  0.499200  0.742700  0.652700  1.0
  C  C274  1  0.894600  0.757300  0.847300  1.0
  C  C275  1  0.500800  0.257300  0.347300  1.0
  C  C276  1  0.105400  0.242700  0.152700  1.0
  C  C277  1  0.524300  0.754000  0.627600  1.0
  C  C278  1  0.905900  0.746000  0.872400  1.0
  C  C279  1  0.475700  0.246000  0.372400  1.0
  C  C280  1  0.094100  0.254000  0.127600  1.0
  C  C281  1  0.528900  0.741700  0.603300  1.0
  C  C282  1  0.873900  0.758300  0.896700  1.0
  C  C283  1  0.471100  0.258300  0.396700  1.0
  C  C284  1  0.126100  0.241700  0.103300  1.0
  C  C285  1  0.509900  0.717100  0.602900  1.0
  C  C286  1  0.829900  0.782900  0.897100  1.0
  C  C287  1  0.490100  0.282900  0.397100  1.0
  C  C288  1  0.170100  0.217100  0.102900  1.0
  C  C289  1  0.487200  0.704800  0.626600  1.0
  C  C290  1  0.818600  0.795200  0.873400  1.0
  C  C291  1  0.512800  0.295200  0.373400  1.0
  C  C292  1  0.181400  0.204800  0.126600  1.0
  C  C293  1  0.480800  0.717100  0.652500  1.0
  C  C294  1  0.850400  0.782900  0.847500  1.0
  C  C295  1  0.519200  0.282900  0.347500  1.0
  C  C296  1  0.149600  0.217100  0.152500  1.0
  C  C297  1  0.452500  0.706700  0.676300  1.0
  C  C298  1  0.835500  0.793300  0.823700  1.0
  C  C299  1  0.547500  0.293300  0.323700  1.0
  C  C300  1  0.164500  0.206700  0.176300  1.0
  C  C301  1  0.439600  0.724100  0.700300  1.0
  C  C302  1  0.864000  0.775900  0.799700  1.0
  C  C303  1  0.560400  0.275900  0.299700  1.0
  C  C304  1  0.136000  0.224100  0.200300  1.0
  C  C305  1  0.407500  0.716800  0.725400  1.0
  C  C306  1  0.849700  0.783200  0.774600  1.0
  C  C307  1  0.592500  0.283200  0.274600  1.0
  C  C308  1  0.150300  0.216800  0.225400  1.0
  C  C309  1  0.391900  0.734200  0.748800  1.0
  C  C310  1  0.874900  0.765800  0.751200  1.0
  C  C311  1  0.608100  0.265800  0.251200  1.0
  C  C312  1  0.125100  0.234200  0.248800  1.0
  C  C313  1  0.408400  0.760000  0.747800  1.0
  C  C314  1  0.916200  0.740000  0.752200  1.0
  C  C315  1  0.591600  0.240000  0.252200  1.0
  C  C316  1  0.083800  0.260000  0.247800  1.0
  C  C317  1  0.440000  0.767400  0.724600  1.0
  C  C318  1  0.932000  0.732600  0.775400  1.0
  C  C319  1  0.560000  0.232600  0.275400  1.0
  C  C320  1  0.068000  0.267400  0.224600  1.0
  C  C321  1  0.456800  0.750100  0.700300  1.0
  C  C322  1  0.907200  0.749900  0.799700  1.0
  C  C323  1  0.543200  0.249900  0.299700  1.0
  C  C324  1  0.092800  0.250100  0.200300  1.0
  C  C325  1  0.436300  0.678300  0.675700  1.0
  C  C326  1  0.790300  0.821700  0.824300  1.0
  C  C327  1  0.563700  0.321700  0.324300  1.0
  C  C328  1  0.209700  0.178300  0.175700  1.0
  C  C329  1  0.387900  0.681500  0.679100  1.0
  C  C330  1  0.748500  0.818500  0.820900  1.0
  C  C331  1  0.612100  0.318500  0.320900  1.0
  C  C332  1  0.251500  0.181500  0.179100  1.0
  C  C333  1  0.370600  0.656400  0.677800  1.0
  C  C334  1  0.704800  0.843600  0.822200  1.0
  C  C335  1  0.629400  0.343600  0.322200  1.0
  C  C336  1  0.295200  0.156400  0.177800  1.0
  C  C337  1  0.404400  0.625500  0.672500  1.0
  C  C338  1  0.702400  0.874500  0.827500  1.0
  C  C339  1  0.595600  0.374500  0.327500  1.0
  C  C340  1  0.297600  0.125500  0.172500  1.0
  C  C341  1  0.453400  0.621200  0.669200  1.0
  C  C342  1  0.743800  0.878800  0.830800  1.0
  C  C343  1  0.546600  0.378800  0.330800  1.0
  C  C344  1  0.256200  0.121200  0.169200  1.0
  C  C345  1  0.468400  0.647200  0.671000  1.0
  C  C346  1  0.786600  0.852800  0.829000  1.0
  C  C347  1  0.531600  0.352800  0.329000  1.0
  C  C348  1  0.213400  0.147200  0.171000  1.0
  C  C349  1  0.350500  0.596800  0.687800  1.0
  C  C350  1  0.635100  0.903200  0.812200  1.0
  C  C351  1  0.649500  0.403200  0.312200  1.0
  C  C352  1  0.364900  0.096800  0.187800  1.0
  C  C353  1  0.328900  0.572200  0.688400  1.0
  C  C354  1  0.589500  0.927800  0.811600  1.0
  C  C355  1  0.671100  0.427800  0.311600  1.0
  C  C356  1  0.410500  0.072200  0.188400  1.0
  C  C357  1  0.286100  0.572400  0.707800  1.0
  C  C358  1  0.566300  0.927600  0.792200  1.0
  C  C359  1  0.713900  0.427600  0.292200  1.0
  C  C360  1  0.433700  0.072400  0.207800  1.0
  C  C361  1  0.264900  0.549400  0.706400  1.0
  C  C362  1  0.520700  0.950600  0.793600  1.0
  C  C363  1  0.735100  0.450600  0.293600  1.0
  C  C364  1  0.479300  0.049400  0.206400  1.0
  C  C365  1  0.288900  0.526900  0.685700  1.0
  C  C366  1  0.501500  0.973100  0.814300  1.0
  C  C367  1  0.711100  0.473100  0.314300  1.0
  C  C368  1  0.498500  0.026900  0.185700  1.0
  C  C369  1  0.332100  0.528400  0.667600  1.0
  C  C370  1  0.528100  0.971600  0.832400  1.0
  C  C371  1  0.667900  0.471600  0.332400  1.0
  C  C372  1  0.471900  0.028400  0.167600  1.0
  C  C373  1  0.722600  0.782700  0.401300  1.0
  C  C374  1  0.906600  0.717300  0.098700  1.0
  C  C375  1  0.277400  0.217300  0.598700  1.0
  C  C376  1  0.093400  0.282700  0.901300  1.0
  C  C377  1  0.766200  0.774200  0.408800  1.0
  C  C378  1  0.949200  0.725800  0.091200  1.0
  C  C379  1  0.233800  0.225800  0.591200  1.0
  C  C380  1  0.050800  0.274200  0.908800  1.0
  C  C381  1  0.798000  0.743400  0.406200  1.0
  C  C382  1  0.947600  0.756600  0.093800  1.0
  C  C383  1  0.202000  0.256600  0.593800  1.0
  C  C384  1  0.052400  0.243400  0.906200  1.0
  C  C385  1  0.782500  0.720800  0.397000  1.0
  C  C386  1  0.900300  0.779200  0.103000  1.0
  C  C387  1  0.217500  0.279200  0.603000  1.0
  C  C388  1  0.099700  0.220800  0.897000  1.0
  C  C389  1  0.738400  0.731000  0.390400  1.0
  C  C390  1  0.859800  0.769000  0.109600  1.0
  C  C391  1  0.261600  0.269000  0.609600  1.0
  C  C392  1  0.140200  0.231000  0.890400  1.0
  C  C393  1  0.846900  0.734300  0.412300  1.0
  C  C394  1  0.993500  0.765700  0.087700  1.0
  C  C395  1  0.153100  0.265700  0.587700  1.0
  C  C396  1  0.006500  0.234300  0.912300  1.0
  C  C397  1  0.890700  0.723700  0.390700  1.0
  C  C398  1  0.005100  0.776300  0.109300  1.0
  C  C399  1  0.109300  0.276300  0.609300  1.0
  C  C400  1  0.994900  0.223700  0.890700  1.0
  C  C401  1  0.887900  0.723100  0.363300  1.0
  C  C402  1  0.974300  0.776900  0.136700  1.0
  C  C403  1  0.112100  0.276900  0.636700  1.0
  C  C404  1  0.025700  0.223100  0.863300  1.0
  C  C405  1  0.929900  0.712400  0.342400  1.0
  C  C406  1  0.984700  0.787600  0.157600  1.0
  C  C407  1  0.070100  0.287600  0.657600  1.0
  C  C408  1  0.015300  0.212400  0.842400  1.0
  C  C409  1  0.974800  0.702400  0.348000  1.0
  C  C410  1  0.025200  0.797600  0.152000  1.0
  C  C411  1  0.025200  0.297600  0.652000  1.0
  C  C412  1  0.974800  0.202400  0.848000  1.0
  C  C413  1  0.980100  0.703000  0.373200  1.0
  C  C414  1  0.056300  0.797000  0.126800  1.0
  C  C415  1  0.019900  0.297000  0.626800  1.0
  C  C416  1  0.943700  0.203000  0.873200  1.0
  C  C417  1  0.938400  0.713700  0.395900  1.0
  C  C418  1  0.048000  0.786300  0.104100  1.0
  C  C419  1  0.061600  0.286300  0.604100  1.0
  C  C420  1  0.952000  0.213700  0.895900  1.0
  C  C421  1  0.940100  0.715700  0.423500  1.0
  C  C422  1  0.079300  0.784300  0.076500  1.0
  C  C423  1  0.059900  0.284300  0.576500  1.0
  C  C424  1  0.920700  0.215700  0.923500  1.0
  C  C425  1  0.896500  0.726300  0.444500  1.0
  C  C426  1  0.067300  0.773700  0.055500  1.0
  C  C427  1  0.103500  0.273700  0.555500  1.0
  C  C428  1  0.932700  0.226300  0.944500  1.0
  C  C429  1  0.896700  0.728300  0.471700  1.0
  C  C430  1  0.096700  0.771700  0.028300  1.0
  C  C431  1  0.103300  0.271700  0.528300  1.0
  C  C432  1  0.903300  0.228300  0.971700  1.0
  C  C433  1  0.854100  0.739000  0.492200  1.0
  C  C434  1  0.085300  0.761000  0.007800  1.0
  C  C435  1  0.145900  0.261000  0.507800  1.0
  C  C436  1  0.914700  0.239000  0.992200  1.0
  C  C437  1  0.809000  0.748500  0.487100  1.0
  C  C438  1  0.044600  0.751500  0.012900  1.0
  C  C439  1  0.191000  0.251500  0.512900  1.0
  C  C440  1  0.955400  0.248500  0.987100  1.0
  C  C441  1  0.806400  0.747000  0.461400  1.0
  C  C442  1  0.014800  0.753000  0.038600  1.0
  C  C443  1  0.193600  0.253000  0.538600  1.0
  C  C444  1  0.985200  0.247000  0.961400  1.0
  C  C445  1  0.849100  0.735700  0.439300  1.0
  C  C446  1  0.024100  0.764300  0.060700  1.0
  C  C447  1  0.150900  0.264300  0.560700  1.0
  C  C448  1  0.975900  0.235700  0.939300  1.0
  C  C449  1  0.988600  0.707000  0.429400  1.0
  C  C450  1  0.125000  0.793000  0.070600  1.0
  C  C451  1  0.011400  0.293000  0.570600  1.0
  C  C452  1  0.875000  0.207000  0.929400  1.0
  C  C453  1  0.004900  0.680300  0.446300  1.0
  C  C454  1  0.131500  0.819700  0.053700  1.0
  C  C455  1  0.995100  0.319700  0.553700  1.0
  C  C456  1  0.868500  0.180300  0.946300  1.0
  C  C457  1  0.049000  0.672600  0.451200  1.0
  C  C458  1  0.172800  0.827400  0.048800  1.0
  C  C459  1  0.951000  0.327400  0.548800  1.0
  C  C460  1  0.827200  0.172600  0.951200  1.0
  C  C461  1  0.082700  0.688600  0.440800  1.0
  C  C462  1  0.212100  0.811400  0.059200  1.0
  C  C463  1  0.917300  0.311400  0.559200  1.0
  C  C464  1  0.787900  0.188600  0.940800  1.0
  C  C465  1  0.068200  0.715000  0.424200  1.0
  C  C466  1  0.207400  0.785000  0.075800  1.0
  C  C467  1  0.931800  0.285000  0.575800  1.0
  C  C468  1  0.792600  0.215000  0.924200  1.0
  C  C469  1  0.022200  0.723300  0.419100  1.0
  C  C470  1  0.164600  0.776700  0.080900  1.0
  C  C471  1  0.977800  0.276700  0.580900  1.0
  C  C472  1  0.835400  0.223300  0.919100  1.0
  C  C473  1  0.168000  0.679500  0.427700  1.0
  C  C474  1  0.275200  0.820500  0.072300  1.0
  C  C475  1  0.832000  0.320500  0.572300  1.0
  C  C476  1  0.724800  0.179500  0.927700  1.0
  C  C477  1  0.216300  0.671600  0.432000  1.0
  C  C478  1  0.319900  0.828400  0.068000  1.0
  C  C479  1  0.783700  0.328400  0.568000  1.0
  C  C480  1  0.680100  0.171600  0.932000  1.0
  C  C481  1  0.257800  0.671800  0.411200  1.0
  C  C482  1  0.340800  0.828200  0.088800  1.0
  C  C483  1  0.742200  0.328200  0.588800  1.0
  C  C484  1  0.659200  0.171800  0.911200  1.0
  C  C485  1  0.303000  0.663600  0.416000  1.0
  C  C486  1  0.382600  0.836400  0.084000  1.0
  C  C487  1  0.697000  0.336400  0.584000  1.0
  C  C488  1  0.617400  0.163600  0.916000  1.0
  C  C489  1  0.304800  0.655600  0.443000  1.0
  C  C490  1  0.403400  0.844400  0.057000  1.0
  C  C491  1  0.695200  0.344400  0.557000  1.0
  C  C492  1  0.596600  0.155600  0.943000  1.0
  C  C493  1  0.261900  0.656200  0.462200  1.0
  C  C494  1  0.380300  0.843800  0.037800  1.0
  C  C495  1  0.738100  0.343800  0.537800  1.0
  C  C496  1  0.619700  0.156200  0.962200  1.0
  C  C497  1  0.604900  0.762700  0.441700  1.0
  C  C498  1  0.809300  0.737300  0.058300  1.0
  C  C499  1  0.395100  0.237300  0.558300  1.0
  C  C500  1  0.190700  0.262700  0.941700  1.0
  C  C501  1  0.589500  0.744200  0.464000  1.0
  C  C502  1  0.797700  0.755800  0.036000  1.0
  C  C503  1  0.410500  0.255800  0.536000  1.0
  C  C504  1  0.202300  0.244200  0.964000  1.0
  C  C505  1  0.583300  0.715500  0.459900  1.0
  C  C506  1  0.758700  0.784500  0.040100  1.0
  C  C507  1  0.416700  0.284500  0.540100  1.0
  C  C508  1  0.241300  0.215500  0.959900  1.0
  C  C509  1  0.592000  0.708000  0.433000  1.0
  C  C510  1  0.733000  0.792000  0.067000  1.0
  C  C511  1  0.408000  0.292000  0.567000  1.0
  C  C512  1  0.267000  0.208000  0.933000  1.0
  C  C513  1  0.607900  0.728000  0.412000  1.0
  C  C514  1  0.747900  0.772000  0.088000  1.0
  C  C515  1  0.392100  0.272000  0.588000  1.0
  C  C516  1  0.252100  0.228000  0.912000  1.0
  C  C517  1  0.570200  0.693400  0.483400  1.0
  C  C518  1  0.747000  0.806600  0.016600  1.0
  C  C519  1  0.429800  0.306600  0.516600  1.0
  C  C520  1  0.253000  0.193400  0.983400  1.0
  C  C521  1  0.601500  0.661800  0.484400  1.0
  C  C522  1  0.747700  0.838200  0.015600  1.0
  C  C523  1  0.398500  0.338200  0.515600  1.0
  C  C524  1  0.252300  0.161800  0.984400  1.0
  C  C525  1  0.646400  0.650000  0.463600  1.0
  C  C526  1  0.760000  0.850000  0.036400  1.0
  C  C527  1  0.353600  0.350000  0.536400  1.0
  C  C528  1  0.240000  0.150000  0.963600  1.0
  C  C529  1  0.675700  0.619400  0.464200  1.0
  C  C530  1  0.759300  0.880600  0.035800  1.0
  C  C531  1  0.324300  0.380600  0.535800  1.0
  C  C532  1  0.240700  0.119400  0.964200  1.0
  C  C533  1  0.664200  0.598100  0.484900  1.0
  C  C534  1  0.747200  0.901900  0.015100  1.0
  C  C535  1  0.335800  0.401900  0.515100  1.0
  C  C536  1  0.252800  0.098100  0.984900  1.0
  C  C537  1  0.622000  0.608100  0.505300  1.0
  C  C538  1  0.735400  0.891900  0.994700  1.0
  C  C539  1  0.378000  0.391900  0.494700  1.0
  C  C540  1  0.264600  0.108100  0.005300  1.0
  C  C541  1  0.589400  0.640100  0.505700  1.0
  C  C542  1  0.735200  0.859900  0.994300  1.0
  C  C543  1  0.410600  0.359900  0.494300  1.0
  C  C544  1  0.264800  0.140100  0.005700  1.0
  C  C545  1  0.545300  0.650100  0.526700  1.0
  C  C546  1  0.722100  0.849900  0.973300  1.0
  C  C547  1  0.454700  0.349900  0.473300  1.0
  C  C548  1  0.277900  0.150100  0.026700  1.0
  C  C549  1  0.514100  0.681500  0.526100  1.0
  C  C550  1  0.721700  0.818500  0.973900  1.0
  C  C551  1  0.485900  0.318500  0.473900  1.0
  C  C552  1  0.278300  0.181500  0.026100  1.0
  C  C553  1  0.469400  0.693100  0.546500  1.0
  C  C554  1  0.709000  0.806900  0.953500  1.0
  C  C555  1  0.530600  0.306900  0.453500  1.0
  C  C556  1  0.291000  0.193100  0.046500  1.0
  C  C557  1  0.438600  0.723400  0.545800  1.0
  C  C558  1  0.707800  0.776600  0.954200  1.0
  C  C559  1  0.561400  0.276600  0.454200  1.0
  C  C560  1  0.292200  0.223400  0.045800  1.0
  C  C561  1  0.450100  0.744300  0.524900  1.0
  C  C562  1  0.719300  0.755700  0.975100  1.0
  C  C563  1  0.549900  0.255700  0.475100  1.0
  C  C564  1  0.280700  0.244300  0.024900  1.0
  C  C565  1  0.492700  0.734800  0.504800  1.0
  C  C566  1  0.732300  0.765200  0.995200  1.0
  C  C567  1  0.507300  0.265200  0.495200  1.0
  C  C568  1  0.267700  0.234800  0.004800  1.0
  C  C569  1  0.526500  0.703600  0.504200  1.0
  C  C570  1  0.734300  0.796400  0.995800  1.0
  C  C571  1  0.473500  0.296400  0.495800  1.0
  C  C572  1  0.265700  0.203600  0.004200  1.0
  C  C573  1  0.533300  0.627300  0.549500  1.0
  C  C574  1  0.710100  0.872700  0.950500  1.0
  C  C575  1  0.466700  0.372700  0.450500  1.0
  C  C576  1  0.289900  0.127300  0.049500  1.0
  C  C577  1  0.507000  0.607700  0.547900  1.0
  C  C578  1  0.662600  0.892300  0.952100  1.0
  C  C579  1  0.493000  0.392300  0.452100  1.0
  C  C580  1  0.337400  0.107700  0.047900  1.0
  C  C581  1  0.496300  0.586300  0.568700  1.0
  C  C582  1  0.651300  0.913700  0.931300  1.0
  C  C583  1  0.503700  0.413700  0.431300  1.0
  C  C584  1  0.348700  0.086300  0.068700  1.0
  C  C585  1  0.511100  0.584000  0.592200  1.0
  C  C586  1  0.687300  0.916000  0.907800  1.0
  C  C587  1  0.488900  0.416000  0.407800  1.0
  C  C588  1  0.312700  0.084000  0.092200  1.0
  C  C589  1  0.536700  0.603800  0.594000  1.0
  C  C590  1  0.734500  0.896200  0.906000  1.0
  C  C591  1  0.463300  0.396200  0.406000  1.0
  C  C592  1  0.265500  0.103800  0.094000  1.0
  C  C593  1  0.548100  0.624800  0.573000  1.0
  C  C594  1  0.745900  0.875200  0.927000  1.0
  C  C595  1  0.451900  0.375200  0.427000  1.0
  C  C596  1  0.254100  0.124800  0.073000  1.0
  C  C597  1  0.533000  0.539600  0.621800  1.0
  C  C598  1  0.694400  0.960400  0.878200  1.0
  C  C599  1  0.467000  0.460400  0.378200  1.0
  C  C600  1  0.305600  0.039600  0.121800  1.0
  C  C601  1  0.524900  0.515200  0.642400  1.0
  C  C602  1  0.682500  0.984800  0.857600  1.0
  C  C603  1  0.475100  0.484800  0.357600  1.0
  C  C604  1  0.317500  0.015200  0.142400  1.0
  C  C605  1  0.562500  0.493500  0.651700  1.0
  C  C606  1  0.707700  0.006500  0.848300  1.0
  C  C607  1  0.437500  0.506500  0.348300  1.0
  C  C608  1  0.292300  0.993500  0.151700  1.0
  C  C609  1  0.551700  0.472900  0.673300  1.0
  C  C610  1  0.697900  0.027100  0.826700  1.0
  C  C611  1  0.448300  0.527100  0.326700  1.0
  C  C612  1  0.302100  0.972900  0.173300  1.0
  C  C613  1  0.503500  0.474000  0.684600  1.0
  C  C614  1  0.662100  0.026000  0.815400  1.0
  C  C615  1  0.496500  0.526000  0.315400  1.0
  C  C616  1  0.337900  0.974000  0.184600  1.0
  C  C617  1  0.468400  0.495900  0.673500  1.0
  C  C618  1  0.637800  0.004100  0.826500  1.0
  C  C619  1  0.531600  0.504100  0.326500  1.0
  C  C620  1  0.362200  0.995900  0.173500  1.0
  C  C621  1  0.162400  0.883200  0.600200  1.0
  C  C622  1  0.645800  0.616800  0.899800  1.0
  C  C623  1  0.837600  0.116800  0.399800  1.0
  C  C624  1  0.354200  0.383200  0.100200  1.0
  C  C625  1  0.181800  0.850100  0.602500  1.0
  C  C626  1  0.634400  0.649900  0.897500  1.0
  C  C627  1  0.818200  0.149900  0.397500  1.0
  C  C628  1  0.365600  0.350100  0.102500  1.0
  C  C629  1  0.231000  0.836100  0.601300  1.0
  C  C630  1  0.668400  0.663900  0.898700  1.0
  C  C631  1  0.769000  0.163900  0.398700  1.0
  C  C632  1  0.331600  0.336100  0.101300  1.0
  C  C633  1  0.258200  0.856300  0.598100  1.0
  C  C634  1  0.712600  0.643700  0.901900  1.0
  C  C635  1  0.741800  0.143700  0.401900  1.0
  C  C636  1  0.287400  0.356300  0.098100  1.0
  C  C637  1  0.236100  0.888900  0.595700  1.0
  C  C638  1  0.720700  0.611100  0.904300  1.0
  C  C639  1  0.763900  0.111100  0.404300  1.0
  C  C640  1  0.279300  0.388900  0.095700  1.0
  C  C641  1  0.253000  0.800700  0.602900  1.0
  C  C642  1  0.656600  0.699300  0.897100  1.0
  C  C643  1  0.747000  0.199300  0.397100  1.0
  C  C644  1  0.343400  0.300700  0.102900  1.0
  C  C645  1  0.253900  0.784700  0.628300  1.0
  C  C646  1  0.666900  0.715300  0.871700  1.0
  C  C647  1  0.746100  0.215300  0.371700  1.0
  C  C648  1  0.333100  0.284700  0.128300  1.0
  C  C649  1  0.234600  0.802700  0.652500  1.0
  C  C650  1  0.689800  0.697300  0.847500  1.0
  C  C651  1  0.765400  0.197300  0.347500  1.0
  C  C652  1  0.310200  0.302700  0.152500  1.0
  C  C653  1  0.234700  0.786700  0.676700  1.0
  C  C654  1  0.698100  0.713300  0.823300  1.0
  C  C655  1  0.765300  0.213300  0.323300  1.0
  C  C656  1  0.301900  0.286700  0.176700  1.0
  C  C657  1  0.253500  0.753400  0.678600  1.0
  C  C658  1  0.685500  0.746600  0.821400  1.0
  C  C659  1  0.746500  0.246600  0.321400  1.0
  C  C660  1  0.314500  0.253400  0.178600  1.0
  C  C661  1  0.273500  0.734600  0.656000  1.0
  C  C662  1  0.664100  0.765400  0.844000  1.0
  C  C663  1  0.726500  0.265400  0.344000  1.0
  C  C664  1  0.335900  0.234600  0.156000  1.0
  C  C665  1  0.274500  0.750000  0.629800  1.0
  C  C666  1  0.654300  0.750000  0.870200  1.0
  C  C667  1  0.725500  0.250000  0.370200  1.0
  C  C668  1  0.345700  0.250000  0.129800  1.0
  C  C669  1  0.294000  0.731700  0.606300  1.0
  C  C670  1  0.632000  0.768300  0.893700  1.0
  C  C671  1  0.706000  0.268300  0.393700  1.0
  C  C672  1  0.368000  0.231700  0.106300  1.0
  C  C673  1  0.293500  0.748100  0.580900  1.0
  C  C674  1  0.622500  0.751900  0.919100  1.0
  C  C675  1  0.706500  0.251900  0.419100  1.0
  C  C676  1  0.377500  0.248100  0.080900  1.0
  C  C677  1  0.313000  0.732600  0.556200  1.0
  C  C678  1  0.601800  0.767400  0.943800  1.0
  C  C679  1  0.687000  0.267400  0.443800  1.0
  C  C680  1  0.398200  0.232600  0.056200  1.0
  C  C681  1  0.314700  0.748600  0.531800  1.0
  C  C682  1  0.595100  0.751400  0.968200  1.0
  C  C683  1  0.685300  0.251400  0.468200  1.0
  C  C684  1  0.404900  0.248600  0.031800  1.0
  C  C685  1  0.296600  0.781800  0.529400  1.0
  C  C686  1  0.607800  0.718200  0.970600  1.0
  C  C687  1  0.703400  0.218200  0.470600  1.0
  C  C688  1  0.392200  0.281800  0.029400  1.0
  C  C689  1  0.275200  0.798600  0.553200  1.0
  C  C690  1  0.627000  0.701400  0.946800  1.0
  C  C691  1  0.724800  0.201400  0.446800  1.0
  C  C692  1  0.373000  0.298600  0.053200  1.0
  C  C693  1  0.273400  0.782200  0.579200  1.0
  C  C694  1  0.634800  0.717800  0.920800  1.0
  C  C695  1  0.726600  0.217800  0.420800  1.0
  C  C696  1  0.365200  0.282200  0.079200  1.0
  C  C697  1  0.313200  0.696000  0.609000  1.0
  C  C698  1  0.618200  0.804000  0.891000  1.0
  C  C699  1  0.686800  0.304000  0.391000  1.0
  C  C700  1  0.381800  0.196000  0.109000  1.0
  C  C701  1  0.283500  0.676000  0.617400  1.0
  C  C702  1  0.576900  0.824000  0.882600  1.0
  C  C703  1  0.716500  0.324000  0.382600  1.0
  C  C704  1  0.423100  0.176000  0.117400  1.0
  C  C705  1  0.303400  0.642600  0.617600  1.0
  C  C706  1  0.563600  0.857400  0.882400  1.0
  C  C707  1  0.696600  0.357400  0.382400  1.0
  C  C708  1  0.436400  0.142600  0.117600  1.0
  C  C709  1  0.353800  0.626600  0.609600  1.0
  C  C710  1  0.590000  0.873400  0.890400  1.0
  C  C711  1  0.646200  0.373400  0.390400  1.0
  C  C712  1  0.410000  0.126600  0.109600  1.0
  C  C713  1  0.382700  0.646400  0.602400  1.0
  C  C714  1  0.631500  0.853600  0.897600  1.0
  C  C715  1  0.617300  0.353600  0.397600  1.0
  C  C716  1  0.368500  0.146400  0.102400  1.0
  C  C717  1  0.362300  0.679300  0.602500  1.0
  C  C718  1  0.644100  0.820700  0.897500  1.0
  C  C719  1  0.637700  0.320700  0.397500  1.0
  C  C720  1  0.355900  0.179300  0.102500  1.0
  C  C721  1  0.369400  0.577200  0.590800  1.0
  C  C722  1  0.537400  0.922800  0.909200  1.0
  C  C723  1  0.630600  0.422800  0.409200  1.0
  C  C724  1  0.462600  0.077200  0.090800  1.0
  C  C725  1  0.387200  0.542100  0.587700  1.0
  C  C726  1  0.517000  0.957900  0.912300  1.0
  C  C727  1  0.612800  0.457900  0.412300  1.0
  C  C728  1  0.483000  0.042100  0.087700  1.0
  C  C729  1  0.377100  0.528400  0.568200  1.0
  C  C730  1  0.473700  0.971600  0.931800  1.0
  C  C731  1  0.622900  0.471600  0.431800  1.0
  C  C732  1  0.526300  0.028400  0.068200  1.0
  C  C733  1  0.395000  0.495500  0.565100  1.0
  C  C734  1  0.455600  0.004500  0.934900  1.0
  C  C735  1  0.605000  0.504500  0.434900  1.0
  C  C736  1  0.544400  0.995500  0.065100  1.0
  C  C737  1  0.423000  0.477300  0.581900  1.0
  C  C738  1  0.482200  0.022700  0.918100  1.0
  C  C739  1  0.577000  0.522700  0.418100  1.0
  C  C740  1  0.517800  0.977300  0.081900  1.0
  C  C741  1  0.430900  0.492800  0.601600  1.0
  C  C742  1  0.525300  0.007200  0.898400  1.0
  C  C743  1  0.569100  0.507200  0.398400  1.0
  C  C744  1  0.474700  0.992800  0.101600  1.0
  C  C745  1  0.846700  0.977400  0.434600  1.0
  C  C746  1  0.258700  0.522600  0.065400  1.0
  C  C747  1  0.153300  0.022600  0.565400  1.0
  C  C748  1  0.741300  0.477400  0.934600  1.0
  C  C749  1  0.867900  0.947800  0.445000  1.0
  C  C750  1  0.260700  0.552200  0.055000  1.0
  C  C751  1  0.132100  0.052200  0.555000  1.0
  C  C752  1  0.739300  0.447800  0.945000  1.0
  C  C753  1  0.917800  0.932200  0.434600  1.0
  C  C754  1  0.284600  0.567800  0.065400  1.0
  C  C755  1  0.082200  0.067800  0.565400  1.0
  C  C756  1  0.715400  0.432200  0.934600  1.0
  C  C757  1  0.943600  0.947800  0.413600  1.0
  C  C758  1  0.305000  0.552200  0.086400  1.0
  C  C759  1  0.056400  0.052200  0.586400  1.0
  C  C760  1  0.695000  0.447800  0.913600  1.0
  C  C761  1  0.919600  0.977500  0.403900  1.0
  C  C762  1  0.301000  0.522500  0.096100  1.0
  C  C763  1  0.080400  0.022500  0.596100  1.0
  C  C764  1  0.699000  0.477500  0.903900  1.0
  C  C765  1  0.944700  0.900400  0.445000  1.0
  C  C766  1  0.290100  0.599600  0.055000  1.0
  C  C767  1  0.055300  0.099600  0.555000  1.0
  C  C768  1  0.709900  0.400400  0.945000  1.0
  C  C769  1  0.975400  0.899400  0.461200  1.0
  C  C770  1  0.336000  0.600600  0.038800  1.0
  C  C771  1  0.024600  0.100600  0.538800  1.0
  C  C772  1  0.664000  0.399400  0.961200  1.0
  C  C773  1  0.977100  0.928800  0.469000  1.0
  C  C774  1  0.374900  0.571200  0.031000  1.0
  C  C775  1  0.022900  0.071200  0.531000  1.0
  C  C776  1  0.625100  0.428800  0.969000  1.0
  C  C777  1  0.007100  0.926600  0.485000  1.0
  C  C778  1  0.418700  0.573400  0.015000  1.0
  C  C779  1  0.992900  0.073400  0.515000  1.0
  C  C780  1  0.581300  0.426600  0.985000  1.0
  C  C781  1  0.036000  0.897700  0.493300  1.0
  C  C782  1  0.427000  0.602300  0.006700  1.0
  C  C783  1  0.964000  0.102300  0.506700  1.0
  C  C784  1  0.573000  0.397700  0.993300  1.0
  C  C785  1  0.035400  0.869300  0.486500  1.0
  C  C786  1  0.391200  0.630700  0.013500  1.0
  C  C787  1  0.964600  0.130700  0.513500  1.0
  C  C788  1  0.608800  0.369300  0.986500  1.0
  C  C789  1  0.004300  0.869600  0.470400  1.0
  C  C790  1  0.344300  0.630400  0.029600  1.0
  C  C791  1  0.995700  0.130400  0.529600  1.0
  C  C792  1  0.655700  0.369600  0.970400  1.0
  C  C793  1  0.002200  0.840100  0.464100  1.0
  C  C794  1  0.306400  0.659900  0.035900  1.0
  C  C795  1  0.997800  0.159900  0.535900  1.0
  C  C796  1  0.693600  0.340100  0.964100  1.0
  C  C797  1  0.971700  0.841500  0.447500  1.0
  C  C798  1  0.260700  0.658500  0.052500  1.0
  C  C799  1  0.028300  0.158500  0.552500  1.0
  C  C800  1  0.739300  0.341500  0.947500  1.0
  C  C801  1  0.968200  0.812500  0.439700  1.0
  C  C802  1  0.220400  0.687500  0.060300  1.0
  C  C803  1  0.031800  0.187500  0.560300  1.0
  C  C804  1  0.779600  0.312500  0.939700  1.0
  C  C805  1  0.935800  0.813700  0.425500  1.0
  C  C806  1  0.175000  0.686300  0.074500  1.0
  C  C807  1  0.064200  0.186300  0.574500  1.0
  C  C808  1  0.825000  0.313700  0.925500  1.0
  C  C809  1  0.904600  0.842600  0.418000  1.0
  C  C810  1  0.165200  0.657400  0.082000  1.0
  C  C811  1  0.095400  0.157400  0.582000  1.0
  C  C812  1  0.834800  0.342600  0.918000  1.0
  C  C813  1  0.907800  0.871100  0.423900  1.0
  C  C814  1  0.202800  0.628900  0.076100  1.0
  C  C815  1  0.092200  0.128900  0.576100  1.0
  C  C816  1  0.797200  0.371100  0.923900  1.0
  C  C817  1  0.942000  0.871100  0.438500  1.0
  C  C818  1  0.251600  0.628900  0.061500  1.0
  C  C819  1  0.058000  0.128900  0.561500  1.0
  C  C820  1  0.748400  0.371100  0.938500  1.0
  C  C821  1  0.028800  0.810000  0.476600  1.0
  C  C822  1  0.315400  0.690000  0.023400  1.0
  C  C823  1  0.971200  0.190000  0.523400  1.0
  C  C824  1  0.684600  0.310000  0.976600  1.0
  C  C825  1  0.071700  0.788700  0.460500  1.0
  C  C826  1  0.320900  0.711300  0.039500  1.0
  C  C827  1  0.928300  0.211300  0.539500  1.0
  C  C828  1  0.679100  0.288700  0.960500  1.0
  C  C829  1  0.100700  0.760500  0.470900  1.0
  C  C830  1  0.332100  0.739500  0.029100  1.0
  C  C831  1  0.899300  0.239500  0.529100  1.0
  C  C832  1  0.667900  0.260500  0.970900  1.0
  C  C833  1  0.087200  0.752200  0.498400  1.0
  C  C834  1  0.337800  0.747800  0.001600  1.0
  C  C835  1  0.912800  0.247800  0.501600  1.0
  C  C836  1  0.662200  0.252200  0.998400  1.0
  C  C837  1  0.044200  0.773100  0.514700  1.0
  C  C838  1  0.332000  0.726900  0.985300  1.0
  C  C839  1  0.955800  0.226900  0.485300  1.0
  C  C840  1  0.668000  0.273100  0.014700  1.0
  C  C841  1  0.016100  0.801100  0.503700  1.0
  C  C842  1  0.320900  0.698900  0.996300  1.0
  C  C843  1  0.983900  0.198900  0.496300  1.0
  C  C844  1  0.679100  0.301100  0.003700  1.0
  C  C845  1  0.122800  0.721300  0.532300  1.0
  C  C846  1  0.376400  0.778700  0.967700  1.0
  C  C847  1  0.877200  0.278700  0.467700  1.0
  C  C848  1  0.623600  0.221300  0.032300  1.0
  C  C849  1  0.148300  0.691800  0.545200  1.0
  C  C850  1  0.385300  0.808200  0.954800  1.0
  C  C851  1  0.851700  0.308200  0.454800  1.0
  C  C852  1  0.614700  0.191800  0.045200  1.0
  C  C853  1  0.156900  0.690300  0.570300  1.0
  C  C854  1  0.417500  0.809700  0.929700  1.0
  C  C855  1  0.843100  0.309700  0.429700  1.0
  C  C856  1  0.582500  0.190300  0.070300  1.0
  C  C857  1  0.184100  0.660900  0.579300  1.0
  C  C858  1  0.424300  0.839100  0.920700  1.0
  C  C859  1  0.815900  0.339100  0.420700  1.0
  C  C860  1  0.575700  0.160900  0.079300  1.0
  C  C861  1  0.203400  0.632800  0.565800  1.0
  C  C862  1  0.402000  0.867200  0.934200  1.0
  C  C863  1  0.796600  0.367200  0.434200  1.0
  C  C864  1  0.598000  0.132800  0.065800  1.0
  C  C865  1  0.190800  0.637800  0.542000  1.0
  C  C866  1  0.370600  0.862200  0.958000  1.0
  C  C867  1  0.809200  0.362200  0.458000  1.0
  C  C868  1  0.629400  0.137800  0.042000  1.0
  C  C869  1  0.307800  0.211000  0.679600  1.0
  C  C870  1  0.198400  0.289000  0.820400  1.0
  C  C871  1  0.692200  0.789000  0.320400  1.0
  C  C872  1  0.801600  0.711000  0.179600  1.0
  C  C873  1  0.280800  0.198400  0.702600  1.0
  C  C874  1  0.181800  0.301600  0.797400  1.0
  C  C875  1  0.719200  0.801600  0.297400  1.0
  C  C876  1  0.818200  0.698400  0.202600  1.0
  C  C877  1  0.268200  0.171200  0.700600  1.0
  C  C878  1  0.140000  0.328800  0.799400  1.0
  C  C879  1  0.731800  0.828800  0.299400  1.0
  C  C880  1  0.860000  0.671200  0.200600  1.0
  C  C881  1  0.287000  0.159000  0.674400  1.0
  C  C882  1  0.120400  0.341000  0.825600  1.0
  C  C883  1  0.713000  0.841000  0.325600  1.0
  C  C884  1  0.879600  0.659000  0.174400  1.0
  C  C885  1  0.314900  0.172000  0.652600  1.0
  C  C886  1  0.139500  0.328000  0.847400  1.0
  C  C887  1  0.685100  0.828000  0.347400  1.0
  C  C888  1  0.860500  0.672000  0.152600  1.0
  C  C889  1  0.236000  0.158600  0.723400  1.0
  C  C890  1  0.118000  0.341400  0.776600  1.0
  C  C891  1  0.764000  0.841400  0.276600  1.0
  C  C892  1  0.882000  0.658600  0.223400  1.0
  C  C893  1  0.251600  0.131200  0.739400  1.0
  C  C894  1  0.122200  0.368800  0.760600  1.0
  C  C895  1  0.748400  0.868800  0.260600  1.0
  C  C896  1  0.877800  0.631200  0.239400  1.0
  C  C897  1  0.301500  0.111500  0.731300  1.0
  C  C898  1  0.144300  0.388500  0.768700  1.0
  C  C899  1  0.698500  0.888500  0.268700  1.0
  C  C900  1  0.855700  0.611500  0.231300  1.0
  C  C901  1  0.317300  0.082900  0.744700  1.0
  C  C902  1  0.144900  0.417100  0.755300  1.0
  C  C903  1  0.682700  0.917100  0.255300  1.0
  C  C904  1  0.855100  0.582900  0.244700  1.0
  C  C905  1  0.284800  0.072800  0.766400  1.0
  C  C906  1  0.124000  0.427200  0.733600  1.0
  C  C907  1  0.715200  0.927200  0.233600  1.0
  C  C908  1  0.876000  0.572800  0.266400  1.0
  C  C909  1  0.237200  0.091400  0.775000  1.0
  C  C910  1  0.103600  0.408600  0.725000  1.0
  C  C911  1  0.762800  0.908600  0.225000  1.0
  C  C912  1  0.896400  0.591400  0.275000  1.0
  C  C913  1  0.218500  0.121100  0.762100  1.0
  C  C914  1  0.101700  0.378900  0.737900  1.0
  C  C915  1  0.781500  0.878900  0.237900  1.0
  C  C916  1  0.898300  0.621100  0.262100  1.0
  C  C917  1  0.168900  0.138500  0.770100  1.0
  C  C918  1  0.077500  0.361500  0.729900  1.0
  C  C919  1  0.831100  0.861500  0.229900  1.0
  C  C920  1  0.922500  0.638500  0.270100  1.0
  C  C921  1  0.153100  0.164900  0.752700  1.0
  C  C922  1  0.070700  0.335100  0.747300  1.0
  C  C923  1  0.846900  0.835100  0.247300  1.0
  C  C924  1  0.929300  0.664900  0.252700  1.0
  C  C925  1  0.101700  0.180800  0.757600  1.0
  C  C926  1  0.040100  0.319200  0.742400  1.0
  C  C927  1  0.898300  0.819200  0.242400  1.0
  C  C928  1  0.959900  0.680800  0.257600  1.0
  C  C929  1  0.084200  0.205100  0.740500  1.0
  C  C930  1  0.029800  0.294900  0.759500  1.0
  C  C931  1  0.915800  0.794900  0.259500  1.0
  C  C932  1  0.970200  0.705100  0.240500  1.0
  C  C933  1  0.117300  0.214700  0.718300  1.0
  C  C934  1  0.050300  0.285300  0.781700  1.0
  C  C935  1  0.882700  0.785300  0.281700  1.0
  C  C936  1  0.949700  0.714700  0.218300  1.0
  C  C937  1  0.167400  0.200500  0.712900  1.0
  C  C938  1  0.080800  0.299500  0.787100  1.0
  C  C939  1  0.832600  0.799500  0.287100  1.0
  C  C940  1  0.919200  0.700500  0.212900  1.0
  C  C941  1  0.185600  0.174800  0.730200  1.0
  C  C942  1  0.090600  0.325200  0.769800  1.0
  C  C943  1  0.814400  0.825200  0.269800  1.0
  C  C944  1  0.909400  0.674800  0.230200  1.0
  C  C945  1  0.132900  0.132000  0.795200  1.0
  C  C946  1  0.060100  0.368000  0.704800  1.0
  C  C947  1  0.867100  0.868000  0.204800  1.0
  C  C948  1  0.939900  0.632000  0.295200  1.0
  C  C949  1  0.132900  0.138600  0.821400  1.0
  C  C950  1  0.092900  0.361400  0.678600  1.0
  C  C951  1  0.867100  0.861400  0.178600  1.0
  C  C952  1  0.907100  0.638600  0.321400  1.0
  C  C953  1  0.101300  0.131200  0.845000  1.0
  C  C954  1  0.077500  0.368800  0.655000  1.0
  C  C955  1  0.898700  0.868800  0.155000  1.0
  C  C956  1  0.922500  0.631200  0.345000  1.0
  C  C957  1  0.068800  0.116400  0.844000  1.0
  C  C958  1  0.029200  0.383600  0.656000  1.0
  C  C959  1  0.931200  0.883600  0.156000  1.0
  C  C960  1  0.970800  0.616400  0.344000  1.0
  C  C961  1  0.066600  0.110500  0.818500  1.0
  C  C962  1  0.995600  0.389500  0.681500  1.0
  C  C963  1  0.933400  0.889500  0.181500  1.0
  C  C964  1  0.004400  0.610500  0.318500  1.0
  C  C965  1  0.098100  0.118300  0.794900  1.0
  C  C966  1  0.011300  0.381700  0.705100  1.0
  C  C967  1  0.901900  0.881700  0.205100  1.0
  C  C968  1  0.988700  0.618300  0.294900  1.0
  C  C969  1  0.992600  0.113000  0.870400  1.0
  C  C970  1  0.976000  0.387000  0.629600  1.0
  C  C971  1  0.007400  0.887000  0.129600  1.0
  C  C972  1  0.024000  0.613000  0.370400  1.0
  C  C973  1  0.958400  0.102900  0.893100  1.0
  C  C974  1  0.954400  0.397100  0.606900  1.0
  C  C975  1  0.041600  0.897100  0.106900  1.0
  C  C976  1  0.045600  0.602900  0.393100  1.0
  C  C977  1  0.909300  0.109500  0.893700  1.0
  C  C978  1  0.912500  0.390500  0.606300  1.0
  C  C979  1  0.090700  0.890500  0.106300  1.0
  C  C980  1  0.087500  0.609500  0.393700  1.0
  C  C981  1  0.879800  0.098100  0.915900  1.0
  C  C982  1  0.893800  0.401900  0.584100  1.0
  C  C983  1  0.120200  0.901900  0.084100  1.0
  C  C984  1  0.106200  0.598100  0.415900  1.0
  C  C985  1  0.898400  0.080800  0.936400  1.0
  C  C986  1  0.915600  0.419200  0.563600  1.0
  C  C987  1  0.101600  0.919200  0.063600  1.0
  C  C988  1  0.084400  0.580800  0.436400  1.0
  C  C989  1  0.947000  0.074700  0.934500  1.0
  C  C990  1  0.956200  0.425300  0.565500  1.0
  C  C991  1  0.053000  0.925300  0.065500  1.0
  C  C992  1  0.043800  0.574700  0.434500  1.0
  C  C993  1  0.625300  0.921400  0.664800  1.0
  C  C994  1  0.211500  0.578600  0.835200  1.0
  C  C995  1  0.374700  0.078600  0.335200  1.0
  C  C996  1  0.788500  0.421400  0.164800  1.0
  C  C997  1  0.653500  0.941300  0.663100  1.0
  C  C998  1  0.257900  0.558700  0.836900  1.0
  C  C999  1  0.346500  0.058700  0.336900  1.0
  C  C1000  1  0.742100  0.441300  0.163100  1.0
  C  C1001  1  0.673300  0.942900  0.683700  1.0
  C  C1002  1  0.299900  0.557100  0.816300  1.0
  C  C1003  1  0.326700  0.057100  0.316300  1.0
  C  C1004  1  0.700100  0.442900  0.183700  1.0
  C  C1005  1  0.661600  0.922800  0.705600  1.0
  C  C1006  1  0.290000  0.577200  0.794400  1.0
  C  C1007  1  0.338400  0.077200  0.294400  1.0
  C  C1008  1  0.710000  0.422800  0.205600  1.0
  C  C1009  1  0.634100  0.903800  0.705200  1.0
  C  C1010  1  0.243100  0.596200  0.794800  1.0
  C  C1011  1  0.365900  0.096200  0.294800  1.0
  C  C1012  1  0.756900  0.403800  0.205200  1.0
  C  C1013  1  0.804100  0.011900  0.687300  1.0
  C  C1014  1  0.503300  0.488100  0.812700  1.0
  C  C1015  1  0.195900  0.988100  0.312700  1.0
  C  C1016  1  0.496700  0.511900  0.187300  1.0
  C  C1017  1  0.803600  0.021300  0.711900  1.0
  C  C1018  1  0.536800  0.478700  0.788100  1.0
  C  C1019  1  0.196400  0.978700  0.288100  1.0
  C  C1020  1  0.463200  0.521300  0.211900  1.0
  C  C1021  1  0.836100  0.035500  0.715700  1.0
  C  C1022  1  0.587300  0.464500  0.784300  1.0
  C  C1023  1  0.163900  0.964500  0.284300  1.0
  C  C1024  1  0.412700  0.535500  0.215700  1.0
  C  C1025  1  0.871900  0.042700  0.693700  1.0
  C  C1026  1  0.608300  0.457300  0.806300  1.0
  C  C1027  1  0.128100  0.957300  0.306300  1.0
  C  C1028  1  0.391700  0.542700  0.193700  1.0
  C  C1029  1  0.872100  0.033400  0.668800  1.0
  C  C1030  1  0.574300  0.466600  0.831200  1.0
  C  C1031  1  0.127900  0.966600  0.331200  1.0
  C  C1032  1  0.425700  0.533400  0.168800  1.0
  C  C1033  1  0.840600  0.019000  0.665800  1.0
  C  C1034  1  0.525400  0.481000  0.834200  1.0
  C  C1035  1  0.159400  0.981000  0.334200  1.0
  C  C1036  1  0.474600  0.519000  0.165800  1.0
  C  C1037  1  0.949000  0.050900  0.681100  1.0
  C  C1038  1  0.681000  0.449100  0.818900  1.0
  C  C1039  1  0.051000  0.949100  0.318900  1.0
  C  C1040  1  0.319000  0.550900  0.181100  1.0
  C  C1041  1  0.986200  0.066100  0.678100  1.0
  C  C1042  1  0.730400  0.433900  0.821900  1.0
  C  C1043  1  0.013800  0.933900  0.321900  1.0
  C  C1044  1  0.269600  0.566100  0.178100  1.0
  C  C1045  1  0.034200  0.055500  0.660700  1.0
  C  C1046  1  0.750400  0.444500  0.839300  1.0
  C  C1047  1  0.965800  0.944500  0.339300  1.0
  C  C1048  1  0.249600  0.555500  0.160700  1.0
  C  C1049  1  0.065700  0.073000  0.656800  1.0
  C  C1050  1  0.795500  0.427000  0.843200  1.0
  C  C1051  1  0.934300  0.927000  0.343200  1.0
  C  C1052  1  0.204500  0.573000  0.156800  1.0
  C  C1053  1  0.048500  0.100100  0.671700  1.0
  C  C1054  1  0.820300  0.399900  0.828300  1.0
  C  C1055  1  0.951500  0.899900  0.328300  1.0
  C  C1056  1  0.179700  0.600100  0.171700  1.0
  C  C1057  1  0.001600  0.109700  0.689500  1.0
  C  C1058  1  0.800800  0.390300  0.810500  1.0
  C  C1059  1  0.998400  0.890300  0.310500  1.0
  C  C1060  1  0.199200  0.609700  0.189500  1.0
  C  C1061  1  0.805600  0.057100  0.469900  1.0
  C  C1062  1  0.332600  0.442900  0.030100  1.0
  C  C1063  1  0.194400  0.942900  0.530100  1.0
  C  C1064  1  0.667400  0.557100  0.969900  1.0
  C  C1065  1  0.807200  0.062800  0.495200  1.0
  C  C1066  1  0.365200  0.437200  0.004800  1.0
  C  C1067  1  0.192800  0.937200  0.504800  1.0
  C  C1068  1  0.634800  0.562800  0.995200  1.0
  C  C1069  1  0.852200  0.062400  0.497800  1.0
  C  C1070  1  0.412400  0.437600  0.002200  1.0
  C  C1071  1  0.147800  0.937600  0.502200  1.0
  C  C1072  1  0.587600  0.562400  0.997800  1.0
  C  C1073  1  0.890000  0.056900  0.474500  1.0
  C  C1074  1  0.421400  0.443100  0.025500  1.0
  C  C1075  1  0.110000  0.943100  0.525500  1.0
  C  C1076  1  0.578600  0.556900  0.974500  1.0
  C  C1077  1  0.884400  0.051600  0.450000  1.0
  C  C1078  1  0.386000  0.448400  0.050000  1.0
  C  C1079  1  0.115600  0.948400  0.550000  1.0
  C  C1080  1  0.614000  0.551600  0.950000  1.0
  C  C1081  1  0.859700  0.068600  0.524000  1.0
  C  C1082  1  0.452300  0.431400  0.976000  1.0
  C  C1083  1  0.140300  0.931400  0.476000  1.0
  C  C1084  1  0.547700  0.568600  0.024000  1.0
  C  C1085  1  0.838500  0.100600  0.532800  1.0
  C  C1086  1  0.471900  0.399400  0.967200  1.0
  C  C1087  1  0.161500  0.899400  0.467200  1.0
  C  C1088  1  0.528100  0.600600  0.032800  1.0
  C  C1089  1  0.814600  0.125900  0.517500  1.0
  C  C1090  1  0.458000  0.374100  0.982500  1.0
  C  C1091  1  0.185400  0.874100  0.482500  1.0
  C  C1092  1  0.542000  0.625900  0.017500  1.0
  C  C1093  1  0.797600  0.157700  0.524500  1.0
  C  C1094  1  0.479800  0.342300  0.975500  1.0
  C  C1095  1  0.202400  0.842300  0.475500  1.0
  C  C1096  1  0.520200  0.657700  0.024500  1.0
  C  C1097  1  0.802900  0.166500  0.547900  1.0
  C  C1098  1  0.517300  0.333500  0.952100  1.0
  C  C1099  1  0.197100  0.833500  0.452100  1.0
  C  C1100  1  0.482700  0.666500  0.047900  1.0
  C  C1101  1  0.825000  0.142400  0.564000  1.0
  C  C1102  1  0.531400  0.357600  0.936000  1.0
  C  C1103  1  0.175000  0.857600  0.436000  1.0
  C  C1104  1  0.468600  0.642400  0.064000  1.0
  C  C1105  1  0.843500  0.109500  0.557500  1.0
  C  C1106  1  0.510500  0.390500  0.942500  1.0
  C  C1107  1  0.156500  0.890500  0.442500  1.0
  C  C1108  1  0.489500  0.609500  0.057500  1.0
  C  C1109  1  0.869300  0.085400  0.573200  1.0
  C  C1110  1  0.527900  0.414600  0.926800  1.0
  C  C1111  1  0.130700  0.914600  0.426800  1.0
  C  C1112  1  0.472100  0.585400  0.073200  1.0
  C  C1113  1  0.891800  0.053400  0.564400  1.0
  C  C1114  1  0.509600  0.446600  0.935600  1.0
  C  C1115  1  0.108200  0.946600  0.435600  1.0
  C  C1116  1  0.490400  0.553400  0.064400  1.0
  C  C1117  1  0.921000  0.029300  0.578900  1.0
  C  C1118  1  0.529200  0.470700  0.921100  1.0
  C  C1119  1  0.079000  0.970700  0.421100  1.0
  C  C1120  1  0.470800  0.529300  0.078900  1.0
  C  C1121  1  0.945000  0.998800  0.570200  1.0
  C  C1122  1  0.514000  0.501200  0.929800  1.0
  C  C1123  1  0.055000  0.001200  0.429800  1.0
  C  C1124  1  0.486000  0.498800  0.070200  1.0
  C  C1125  1  0.940900  0.990800  0.545800  1.0
  C  C1126  1  0.477500  0.509200  0.954200  1.0
  C  C1127  1  0.059100  0.009200  0.454200  1.0
  C  C1128  1  0.522500  0.490800  0.045800  1.0
  C  C1129  1  0.913000  0.012800  0.530800  1.0
  C  C1130  1  0.456600  0.487200  0.969200  1.0
  C  C1131  1  0.087000  0.987200  0.469200  1.0
  C  C1132  1  0.543400  0.512800  0.030800  1.0
  C  C1133  1  0.887200  0.045000  0.539200  1.0
  C  C1134  1  0.471400  0.455000  0.960800  1.0
  C  C1135  1  0.112800  0.955000  0.460800  1.0
  C  C1136  1  0.528600  0.545000  0.039200  1.0
  C  C1137  1  0.872600  0.095100  0.599100  1.0
  C  C1138  1  0.566800  0.404900  0.900900  1.0
  C  C1139  1  0.127400  0.904900  0.400900  1.0
  C  C1140  1  0.433200  0.595100  0.099100  1.0
  C  C1141  1  0.908800  0.107500  0.599700  1.0
  C  C1142  1  0.616000  0.392500  0.900300  1.0
  C  C1143  1  0.091200  0.892500  0.400300  1.0
  C  C1144  1  0.384000  0.607500  0.099700  1.0
  C  C1145  1  0.911900  0.119700  0.622500  1.0
  C  C1146  1  0.654100  0.380300  0.877500  1.0
  C  C1147  1  0.088100  0.880300  0.377500  1.0
  C  C1148  1  0.345900  0.619700  0.122500  1.0
  C  C1149  1  0.876000  0.120100  0.646700  1.0
  C  C1150  1  0.642800  0.379900  0.853300  1.0
  C  C1151  1  0.124000  0.879900  0.353300  1.0
  C  C1152  1  0.357200  0.620100  0.146700  1.0
  C  C1153  1  0.840600  0.107000  0.646600  1.0
  C  C1154  1  0.594200  0.393000  0.853400  1.0
  C  C1155  1  0.159400  0.893000  0.353400  1.0
  C  C1156  1  0.405800  0.607000  0.146600  1.0
  C  C1157  1  0.838000  0.094700  0.623700  1.0
  C  C1158  1  0.556400  0.405300  0.876300  1.0
  C  C1159  1  0.162000  0.905300  0.376300  1.0
  C  C1160  1  0.443600  0.594700  0.123700  1.0
  C  C1161  1  0.877500  0.162600  0.669800  1.0
  C  C1162  1  0.709900  0.337400  0.830200  1.0
  C  C1163  1  0.122500  0.837400  0.330200  1.0
  C  C1164  1  0.290100  0.662600  0.169800  1.0
  C  C1165  1  0.881500  0.177300  0.692700  1.0
  C  C1166  1  0.751500  0.322700  0.807300  1.0
  C  C1167  1  0.118500  0.822700  0.307300  1.0
  C  C1168  1  0.248500  0.677300  0.192700  1.0
  C  C1169  1  0.885300  0.208000  0.690400  1.0
  C  C1170  1  0.783700  0.292000  0.809600  1.0
  C  C1171  1  0.114700  0.792000  0.309600  1.0
  C  C1172  1  0.216300  0.708000  0.190400  1.0
  C  C1173  1  0.883800  0.221100  0.714100  1.0
  C  C1174  1  0.819000  0.278900  0.785900  1.0
  C  C1175  1  0.116200  0.778900  0.285900  1.0
  C  C1176  1  0.181000  0.721100  0.214100  1.0
  C  C1177  1  0.878800  0.203800  0.738600  1.0
  C  C1178  1  0.821200  0.296200  0.761400  1.0
  C  C1179  1  0.121200  0.796200  0.261400  1.0
  C  C1180  1  0.178800  0.703800  0.238600  1.0
  C  C1181  1  0.877000  0.173300  0.738700  1.0
  C  C1182  1  0.789000  0.326700  0.761300  1.0
  C  C1183  1  0.123000  0.826700  0.261300  1.0
  C  C1184  1  0.211000  0.673300  0.238700  1.0
  C  C1185  1  0.431800  0.226800  0.648600  1.0
  C  C1186  1  0.307200  0.273200  0.851400  1.0
  C  C1187  1  0.568200  0.773200  0.351400  1.0
  C  C1188  1  0.692800  0.726800  0.148600  1.0
  C  C1189  1  0.472600  0.217600  0.658200  1.0
  C  C1190  1  0.348400  0.282400  0.841800  1.0
  C  C1191  1  0.527400  0.782400  0.341800  1.0
  C  C1192  1  0.651600  0.717600  0.158200  1.0
  C  C1193  1  0.508600  0.188300  0.653100  1.0
  C  C1194  1  0.350000  0.311700  0.846900  1.0
  C  C1195  1  0.491400  0.811700  0.346900  1.0
  C  C1196  1  0.650000  0.688300  0.153100  1.0
  C  C1197  1  0.499600  0.169000  0.637200  1.0
  C  C1198  1  0.305800  0.331000  0.862800  1.0
  C  C1199  1  0.500400  0.831000  0.362800  1.0
  C  C1200  1  0.694200  0.669000  0.137200  1.0
  C  C1201  1  0.457900  0.179300  0.627900  1.0
  C  C1202  1  0.265100  0.320700  0.872100  1.0
  C  C1203  1  0.542100  0.820700  0.372100  1.0
  C  C1204  1  0.734900  0.679300  0.127900  1.0
  C  C1205  1  0.552500  0.177400  0.664000  1.0
  C  C1206  1  0.393900  0.322600  0.836000  1.0
  C  C1207  1  0.447500  0.822600  0.336000  1.0
  C  C1208  1  0.606100  0.677400  0.164000  1.0
  C  C1209  1  0.548500  0.169000  0.691800  1.0
  C  C1210  1  0.409300  0.331000  0.808200  1.0
  C  C1211  1  0.451500  0.831000  0.308200  1.0
  C  C1212  1  0.590700  0.669000  0.191800  1.0
  C  C1213  1  0.503000  0.170200  0.710800  1.0
  C  C1214  1  0.384000  0.329800  0.789200  1.0
  C  C1215  1  0.497000  0.829800  0.289200  1.0
  C  C1216  1  0.616000  0.670200  0.210800  1.0
  C  C1217  1  0.500800  0.162000  0.737400  1.0
  C  C1218  1  0.400200  0.338000  0.762600  1.0
  C  C1219  1  0.499200  0.838000  0.262600  1.0
  C  C1220  1  0.599800  0.662000  0.237400  1.0
  C  C1221  1  0.540700  0.152300  0.748100  1.0
  C  C1222  1  0.441100  0.347700  0.751900  1.0
  C  C1223  1  0.459300  0.847700  0.251900  1.0
  C  C1224  1  0.558900  0.652300  0.248100  1.0
  C  C1225  1  0.584900  0.150800  0.730800  1.0
  C  C1226  1  0.466500  0.349200  0.769200  1.0
  C  C1227  1  0.415100  0.849200  0.269200  1.0
  C  C1228  1  0.533500  0.650800  0.230800  1.0
  C  C1229  1  0.590400  0.159100  0.702500  1.0
  C  C1230  1  0.452000  0.340900  0.797500  1.0
  C  C1231  1  0.409600  0.840900  0.297500  1.0
  C  C1232  1  0.548000  0.659100  0.202500  1.0
  C  C1233  1  0.637100  0.157600  0.685400  1.0
  C  C1234  1  0.480100  0.342400  0.814600  1.0
  C  C1235  1  0.362900  0.842400  0.314600  1.0
  C  C1236  1  0.519900  0.657600  0.185400  1.0
  C  C1237  1  0.641300  0.164300  0.657900  1.0
  C  C1238  1  0.463500  0.335700  0.842100  1.0
  C  C1239  1  0.358700  0.835700  0.342100  1.0
  C  C1240  1  0.536500  0.664300  0.157900  1.0
  C  C1241  1  0.688200  0.159000  0.639400  1.0
  C  C1242  1  0.486600  0.341000  0.860600  1.0
  C  C1243  1  0.311800  0.841000  0.360600  1.0
  C  C1244  1  0.513400  0.659000  0.139400  1.0
  C  C1245  1  0.692600  0.163100  0.612100  1.0
  C  C1246  1  0.467800  0.336900  0.887900  1.0
  C  C1247  1  0.307400  0.836900  0.387900  1.0
  C  C1248  1  0.532200  0.663100  0.112100  1.0
  C  C1249  1  0.652800  0.173200  0.601200  1.0
  C  C1250  1  0.427200  0.326800  0.898800  1.0
  C  C1251  1  0.347200  0.826800  0.398800  1.0
  C  C1252  1  0.572800  0.673200  0.101200  1.0
  C  C1253  1  0.607400  0.179300  0.618300  1.0
  C  C1254  1  0.405000  0.320700  0.881700  1.0
  C  C1255  1  0.392600  0.820700  0.381700  1.0
  C  C1256  1  0.595000  0.679300  0.118300  1.0
  C  C1257  1  0.599800  0.174500  0.646900  1.0
  C  C1258  1  0.421200  0.325500  0.853100  1.0
  C  C1259  1  0.400200  0.825500  0.353100  1.0
  C  C1260  1  0.578800  0.674500  0.146900  1.0
  C  C1261  1  0.678200  0.150400  0.698000  1.0
  C  C1262  1  0.526600  0.349600  0.802000  1.0
  C  C1263  1  0.321800  0.849600  0.302000  1.0
  C  C1264  1  0.473400  0.650400  0.198000  1.0
  C  C1265  1  0.705700  0.170200  0.697600  1.0
  C  C1266  1  0.573500  0.329800  0.802400  1.0
  C  C1267  1  0.294300  0.829800  0.302400  1.0
  C  C1268  1  0.426500  0.670200  0.197600  1.0
  C  C1269  1  0.743200  0.161600  0.710600  1.0
  C  C1270  1  0.615400  0.338400  0.789400  1.0
  C  C1271  1  0.256800  0.838400  0.289400  1.0
  C  C1272  1  0.384600  0.661600  0.210600  1.0
  C  C1273  1  0.756000  0.132300  0.724700  1.0
  C  C1274  1  0.613000  0.367700  0.775300  1.0
  C  C1275  1  0.244000  0.867700  0.275300  1.0
  C  C1276  1  0.387000  0.632300  0.224700  1.0
  C  C1277  1  0.728500  0.112200  0.725400  1.0
  C  C1278  1  0.566100  0.387800  0.774600  1.0
  C  C1279  1  0.271500  0.887800  0.274600  1.0
  C  C1280  1  0.433900  0.612200  0.225400  1.0
  C  C1281  1  0.691600  0.121500  0.712300  1.0
  C  C1282  1  0.525400  0.378500  0.787700  1.0
  C  C1283  1  0.308400  0.878500  0.287700  1.0
  C  C1284  1  0.474600  0.621500  0.212300  1.0
  C  C1285  1  0.790200  0.111000  0.761400  1.0
  C  C1286  1  0.662600  0.389000  0.738600  1.0
  C  C1287  1  0.209800  0.889000  0.238600  1.0
  C  C1288  1  0.337400  0.611000  0.261400  1.0
  C  C1289  1  0.830200  0.096500  0.774100  1.0
  C  C1290  1  0.700800  0.403500  0.725900  1.0
  C  C1291  1  0.169800  0.903500  0.225900  1.0
  C  C1292  1  0.299200  0.596500  0.274100  1.0
  C  C1293  1  0.822900  0.086100  0.801100  1.0
  C  C1294  1  0.710100  0.413900  0.698900  1.0
  C  C1295  1  0.177100  0.913900  0.198900  1.0
  C  C1296  1  0.289900  0.586100  0.301100  1.0
  C  C1297  1  0.862900  0.072200  0.811800  1.0
  C  C1298  1  0.746900  0.427800  0.688200  1.0
  C  C1299  1  0.137100  0.927800  0.188200  1.0
  C  C1300  1  0.253100  0.572200  0.311800  1.0
  C  C1301  1  0.910000  0.068800  0.795600  1.0
  C  C1302  1  0.774400  0.431200  0.704400  1.0
  C  C1303  1  0.090000  0.931200  0.204400  1.0
  C  C1304  1  0.225600  0.568800  0.295600  1.0
  C  C1305  1  0.913400  0.080000  0.768800  1.0
  C  C1306  1  0.762200  0.420000  0.731200  1.0
  C  C1307  1  0.086600  0.920000  0.231200  1.0
  C  C1308  1  0.237800  0.580000  0.268800  1.0
  C  C1309  1  0.131600  0.947500  0.653100  1.0
  C  C1310  1  0.732200  0.552500  0.846900  1.0
  C  C1311  1  0.868400  0.052500  0.346900  1.0
  C  C1312  1  0.267800  0.447500  0.153100  1.0
  C  C1313  1  0.127000  0.951700  0.680100  1.0
  C  C1314  1  0.758800  0.548300  0.819900  1.0
  C  C1315  1  0.873000  0.048300  0.319900  1.0
  C  C1316  1  0.241200  0.451700  0.180100  1.0
  C  C1317  1  0.148000  0.971600  0.687400  1.0
  C  C1318  1  0.807000  0.528400  0.812600  1.0
  C  C1319  1  0.852000  0.028400  0.312600  1.0
  C  C1320  1  0.193000  0.471600  0.187400  1.0
  C  C1321  1  0.174400  0.985500  0.666100  1.0
  C  C1322  1  0.826000  0.514500  0.833900  1.0
  C  C1323  1  0.825600  0.014500  0.333900  1.0
  C  C1324  1  0.174000  0.485500  0.166100  1.0
  C  C1325  1  0.178800  0.979900  0.639500  1.0
  C  C1326  1  0.798200  0.520100  0.860500  1.0
  C  C1327  1  0.821200  0.020100  0.360500  1.0
  C  C1328  1  0.201800  0.479900  0.139500  1.0
  C  C1329  1  0.142000  0.977100  0.716500  1.0
  C  C1330  1  0.835600  0.522900  0.783500  1.0
  C  C1331  1  0.858000  0.022900  0.283500  1.0
  C  C1332  1  0.164400  0.477100  0.216500  1.0
  C  C1333  1  0.180800  0.976800  0.726400  1.0
  C  C1334  1  0.884000  0.523200  0.773600  1.0
  C  C1335  1  0.819200  0.023200  0.273600  1.0
  C  C1336  1  0.116000  0.476800  0.226400  1.0
  C  C1337  1  0.230400  0.969700  0.710100  1.0
  C  C1338  1  0.910200  0.530300  0.789900  1.0
  C  C1339  1  0.769600  0.030300  0.289900  1.0
  C  C1340  1  0.089800  0.469700  0.210100  1.0
  C  C1341  1  0.271200  0.968500  0.717700  1.0
  C  C1342  1  0.957400  0.531500  0.782300  1.0
  C  C1343  1  0.728800  0.031500  0.282300  1.0
  C  C1344  1  0.042600  0.468500  0.217700  1.0
  C  C1345  1  0.261800  0.975300  0.744900  1.0
  C  C1346  1  0.982000  0.524700  0.755100  1.0
  C  C1347  1  0.738200  0.024700  0.255100  1.0
  C  C1348  1  0.018000  0.475300  0.244900  1.0
  C  C1349  1  0.214900  0.981900  0.761900  1.0
  C  C1350  1  0.958700  0.518100  0.738100  1.0
  C  C1351  1  0.785100  0.018100  0.238100  1.0
  C  C1352  1  0.041300  0.481900  0.261900  1.0
  C  C1353  1  0.171700  0.983000  0.754600  1.0
  C  C1354  1  0.909300  0.517000  0.745400  1.0
  C  C1355  1  0.828300  0.017000  0.245400  1.0
  C  C1356  1  0.090700  0.483000  0.254600  1.0
  C  C1357  1  0.124600  0.988700  0.772500  1.0
  C  C1358  1  0.885800  0.511300  0.727500  1.0
  C  C1359  1  0.875400  0.011300  0.227500  1.0
  C  C1360  1  0.114200  0.488700  0.272500  1.0
  C  C1361  1  0.086000  0.988600  0.762200  1.0
  C  C1362  1  0.836800  0.511400  0.737800  1.0
  C  C1363  1  0.914000  0.011400  0.237800  1.0
  C  C1364  1  0.163200  0.488600  0.262200  1.0
  C  C1365  1  0.035500  0.995800  0.776800  1.0
  C  C1366  1  0.808100  0.504200  0.723200  1.0
  C  C1367  1  0.964500  0.004200  0.223200  1.0
  C  C1368  1  0.191900  0.495800  0.276800  1.0
  C  C1369  1  0.999500  0.997800  0.765200  1.0
  C  C1370  1  0.762500  0.502200  0.734800  1.0
  C  C1371  1  0.000500  0.002200  0.234800  1.0
  C  C1372  1  0.237500  0.497800  0.265200  1.0
  C  C1373  1  0.007700  0.992600  0.737800  1.0
  C  C1374  1  0.738100  0.507400  0.762200  1.0
  C  C1375  1  0.992300  0.007400  0.262200  1.0
  C  C1376  1  0.261900  0.492600  0.237800  1.0
  C  C1377  1  0.055500  0.984700  0.722500  1.0
  C  C1378  1  0.762700  0.515300  0.777500  1.0
  C  C1379  1  0.944500  0.015300  0.277500  1.0
  C  C1380  1  0.237300  0.484700  0.222500  1.0
  C  C1381  1  0.095100  0.983000  0.733800  1.0
  C  C1382  1  0.811900  0.517000  0.766200  1.0
  C  C1383  1  0.904900  0.017000  0.266200  1.0
  C  C1384  1  0.188100  0.483000  0.233800  1.0
  C  C1385  1  0.116800  0.995000  0.801800  1.0
  C  C1386  1  0.913600  0.505000  0.698200  1.0
  C  C1387  1  0.883200  0.005000  0.198200  1.0
  C  C1388  1  0.086400  0.495000  0.301800  1.0
  C  C1389  1  0.081000  0.021600  0.814600  1.0
  C  C1390  1  0.917200  0.478400  0.685400  1.0
  C  C1391  1  0.919000  0.978400  0.185400  1.0
  C  C1392  1  0.082800  0.521600  0.314600  1.0
  C  C1393  1  0.072800  0.028100  0.841300  1.0
  C  C1394  1  0.942200  0.471900  0.658700  1.0
  C  C1395  1  0.927200  0.971900  0.158700  1.0
  C  C1396  1  0.057800  0.528100  0.341300  1.0
  C  C1397  1  0.099300  0.008200  0.858400  1.0
  C  C1398  1  0.965900  0.491800  0.641600  1.0
  C  C1399  1  0.900700  0.991800  0.141600  1.0
  C  C1400  1  0.034100  0.508200  0.358400  1.0
  C  C1401  1  0.136000  0.980300  0.845700  1.0
  C  C1402  1  0.962000  0.519700  0.654300  1.0
  C  C1403  1  0.864000  0.019700  0.154300  1.0
  C  C1404  1  0.038000  0.480300  0.345700  1.0
  C  C1405  1  0.143300  0.975400  0.818600  1.0
  C  C1406  1  0.937300  0.524600  0.681400  1.0
  C  C1407  1  0.856700  0.024600  0.181400  1.0
  C  C1408  1  0.062700  0.475400  0.318600  1.0
  C  C1409  1  0.089100  0.996300  0.905100  1.0
  C  C1410  1  0.990500  0.503700  0.594900  1.0
  C  C1411  1  0.910900  0.003700  0.094900  1.0
  C  C1412  1  0.009500  0.496300  0.405100  1.0
  C  C1413  1  0.078300  0.002500  0.934100  1.0
  C  C1414  1  0.014900  0.497500  0.565900  1.0
  C  C1415  1  0.921700  0.997500  0.065900  1.0
  C  C1416  1  0.985100  0.502500  0.434100  1.0
  C  C1417  1  0.078900  0.978000  0.954200  1.0
  C  C1418  1  0.011100  0.522000  0.545800  1.0
  C  C1419  1  0.921100  0.022000  0.045800  1.0
  C  C1420  1  0.988900  0.478000  0.454200  1.0
  C  C1421  1  0.068700  0.985700  0.980900  1.0
  C  C1422  1  0.035300  0.514300  0.519100  1.0
  C  C1423  1  0.931300  0.014300  0.019100  1.0
  C  C1424  1  0.964700  0.485700  0.480900  1.0
  C  C1425  1  0.058100  0.016500  0.988100  1.0
  C  C1426  1  0.062700  0.483500  0.511900  1.0
  C  C1427  1  0.941900  0.983500  0.011900  1.0
  C  C1428  1  0.937300  0.516500  0.488100  1.0
  C  C1429  1  0.057700  0.040000  0.967000  1.0
  C  C1430  1  0.064700  0.460000  0.533000  1.0
  C  C1431  1  0.942300  0.960000  0.033000  1.0
  C  C1432  1  0.935300  0.540000  0.467000  1.0
  C  C1433  1  0.761000  0.620900  0.338100  1.0
  C  C1434  1  0.720000  0.879100  0.161900  1.0
  C  C1435  1  0.239000  0.379100  0.661900  1.0
  C  C1436  1  0.280000  0.120900  0.838100  1.0
  C  C1437  1  0.906800  0.602600  0.538000  0.25
  C  C1438  1  0.047400  0.897400  0.962000  0.25
  C  C1439  1  0.093200  0.397400  0.462000  0.25
  C  C1440  1  0.952600  0.102600  0.038000  0.25
  C  C1441  1  0.576400  0.828200  0.791800  0.25
  C  C1442  1  0.196400  0.671800  0.708200  0.25
  C  C1443  1  0.423600  0.171800  0.208200  0.25
  C  C1444  1  0.803600  0.328200  0.291800  0.25
  C  C1445  1  0.704500  0.962800  0.682800  0.5
  C  C1446  1  0.350100  0.537200  0.817200  0.5
  C  C1447  1  0.295500  0.037200  0.317200  0.5
  C  C1448  1  0.649900  0.462800  0.182800  0.5
  C  C1449  1  0.749800  0.957600  0.663200  0.5
  C  C1450  1  0.370600  0.542400  0.836800  0.5
  C  C1451  1  0.250200  0.042400  0.336800  0.5
  C  C1452  1  0.629400  0.457600  0.163200  0.5
  C  C1453  1  0.763200  0.937100  0.641100  0.5
  C  C1454  1  0.341400  0.562900  0.858900  0.5
  C  C1455  1  0.236800  0.062900  0.358900  0.5
  C  C1456  1  0.658600  0.437100  0.141100  0.5
  C  C1457  1  0.803500  0.935200  0.619800  0.5
  C  C1458  1  0.358500  0.564800  0.880200  0.5
  C  C1459  1  0.196500  0.064800  0.380200  0.5
  C  C1460  1  0.641500  0.435200  0.119800  0.5
  C  C1461  1  0.833400  0.953000  0.619800  0.5
  C  C1462  1  0.406200  0.547000  0.880200  0.5
  C  C1463  1  0.166600  0.047000  0.380200  0.5
  C  C1464  1  0.593800  0.453000  0.119800  0.5
  C  C1465  1  0.823200  0.972000  0.641200  0.5
  C  C1466  1  0.436400  0.528000  0.858800  0.5
  C  C1467  1  0.176800  0.028000  0.358800  0.5
  C  C1468  1  0.563600  0.472000  0.141200  0.5
  C  C1469  1  0.781500  0.975400  0.663600  0.5
  C  C1470  1  0.420500  0.524600  0.836400  0.5
  C  C1471  1  0.218500  0.024600  0.336400  0.5
  C  C1472  1  0.579500  0.475400  0.163600  0.5
  C  C1473  1  0.768200  0.997200  0.684400  0.5
  C  C1474  1  0.449800  0.502800  0.815600  0.5
  C  C1475  1  0.231800  0.002800  0.315600  0.5
  C  C1476  1  0.550200  0.497200  0.184400  0.5
  C  C1477  1  0.721600  0.003600  0.703200  0.5
  C  C1478  1  0.428400  0.496400  0.796800  0.5
  C  C1479  1  0.278400  0.996400  0.296800  0.5
  C  C1480  1  0.571600  0.503600  0.203200  0.5
  C  C1481  1  0.703200  0.027100  0.723300  0.5
  C  C1482  1  0.453600  0.472900  0.776700  0.5
  C  C1483  1  0.296800  0.972900  0.276700  0.5
  C  C1484  1  0.546400  0.527100  0.223300  0.5
  C  C1485  1  0.657400  0.034100  0.741100  0.5
  C  C1486  1  0.432600  0.465900  0.758900  0.5
  C  C1487  1  0.342600  0.965900  0.258900  0.5
  C  C1488  1  0.567400  0.534100  0.241100  0.5
  C  C1489  1  0.626600  0.017800  0.740000  0.5
  C  C1490  1  0.384400  0.482200  0.760000  0.5
  C  C1491  1  0.373400  0.982200  0.260000  0.5
  C  C1492  1  0.615600  0.517800  0.240000  0.5
  C  C1493  1  0.642400  0.994300  0.721100  0.5
  C  C1494  1  0.357800  0.505700  0.778900  0.5
  C  C1495  1  0.357600  0.005700  0.278900  0.5
  C  C1496  1  0.642200  0.494300  0.221100  0.5
  C  C1497  1  0.689400  0.986600  0.702400  0.5
  C  C1498  1  0.378400  0.513400  0.797600  0.5
  C  C1499  1  0.310600  0.013400  0.297600  0.5
  C  C1500  1  0.621600  0.486600  0.202400  0.5
  C  C1501  1  0.712600  0.959100  0.678500  0.5
  C  C1502  1  0.350200  0.540900  0.821500  0.5
  C  C1503  1  0.287400  0.040900  0.321500  0.5
  C  C1504  1  0.649800  0.459100  0.178500  0.5
  C  C1505  1  0.760400  0.942700  0.680300  0.5
  C  C1506  1  0.383400  0.557300  0.819700  0.5
  C  C1507  1  0.239600  0.057300  0.319700  0.5
  C  C1508  1  0.616600  0.442700  0.180300  0.5
  C  C1509  1  0.779600  0.908600  0.681600  0.5
  C  C1510  1  0.369800  0.591400  0.818400  0.5
  C  C1511  1  0.220400  0.091400  0.318400  0.5
  C  C1512  1  0.630200  0.408600  0.181600  0.5
  C  C1513  1  0.825800  0.893100  0.683300  0.5
  C  C1514  1  0.402200  0.606900  0.816700  0.5
  C  C1515  1  0.174200  0.106900  0.316700  0.5
  C  C1516  1  0.597800  0.393100  0.183300  0.5
  C  C1517  1  0.856300  0.910600  0.684400  0.5
  C  C1518  1  0.451300  0.589400  0.815600  0.5
  C  C1519  1  0.143700  0.089400  0.315600  0.5
  C  C1520  1  0.548700  0.410600  0.184400  0.5
  C  C1521  1  0.840200  0.943000  0.683200  0.5
  C  C1522  1  0.466400  0.557000  0.816800  0.5
  C  C1523  1  0.159800  0.057000  0.316800  0.5
  C  C1524  1  0.533600  0.443000  0.183200  0.5
  C  C1525  1  0.791900  0.960500  0.681100  0.5
  C  C1526  1  0.433500  0.539500  0.818900  0.5
  C  C1527  1  0.208100  0.039500  0.318900  0.5
  C  C1528  1  0.566500  0.460500  0.181100  0.5
  C  C1529  1  0.775200  0.993900  0.679700  0.5
  C  C1530  1  0.448800  0.506100  0.820300  0.5
  C  C1531  1  0.224800  0.006100  0.320300  0.5
  C  C1532  1  0.551200  0.493900  0.179700  0.5
  C  C1533  1  0.727900  0.010300  0.677300  0.5
  C  C1534  1  0.415500  0.489700  0.822700  0.5
  C  C1535  1  0.272100  0.989700  0.322700  0.5
  C  C1536  1  0.584500  0.510300  0.177300  0.5
  C  C1537  1  0.709600  0.044600  0.676200  0.5
  C  C1538  1  0.430400  0.455400  0.823800  0.5
  C  C1539  1  0.290400  0.955400  0.323800  0.5
  C  C1540  1  0.569600  0.544600  0.176200  0.5
  C  C1541  1  0.663400  0.060700  0.674900  0.5
  C  C1542  1  0.399000  0.439300  0.825100  0.5
  C  C1543  1  0.336600  0.939300  0.325100  0.5
  C  C1544  1  0.601000  0.560700  0.174900  0.5
  C  C1545  1  0.632300  0.043400  0.674200  0.5
  C  C1546  1  0.349900  0.456600  0.825800  0.5
  C  C1547  1  0.367700  0.956600  0.325800  0.5
  C  C1548  1  0.650100  0.543400  0.174200  0.5
  C  C1549  1  0.648100  0.010800  0.675000  0.5
  C  C1550  1  0.333900  0.489200  0.825000  0.5
  C  C1551  1  0.351900  0.989200  0.325000  0.5
  C  C1552  1  0.666100  0.510800  0.175000  0.5
  C  C1553  1  0.696300  0.992700  0.676700  0.5
  C  C1554  1  0.365700  0.507300  0.823300  0.5
  C  C1555  1  0.303700  0.007300  0.323300  0.5
  C  C1556  1  0.634300  0.492700  0.176700  0.5
  C  C1557  1  0.986000  0.937600  0.678200  0.5
  C  C1558  1  0.601800  0.562400  0.821800  0.5
  C  C1559  1  0.014000  0.062400  0.321800  0.5
  C  C1560  1  0.398200  0.437600  0.178200  0.5
  C  C1561  1  0.230400  0.772500  0.360500  0.5
  C  C1562  1  0.363400  0.727500  0.139500  0.5
  C  C1563  1  0.769600  0.227500  0.639500  0.5
  C  C1564  1  0.636600  0.272500  0.860500  0.5
  Cd  Cd1565  1  0.142280  0.668020  0.489940  1.0
  Cd  Cd1566  1  0.300240  0.831980  0.010060  1.0
  Cd  Cd1567  1  0.857720  0.331980  0.510060  1.0
  Cd  Cd1568  1  0.699760  0.168020  0.989940  1.0
  Cd  Cd1569  1  0.064410  0.071520  0.905160  1.0
  Cd  Cd1570  1  0.041090  0.428480  0.594840  1.0
  Cd  Cd1571  1  0.935590  0.928480  0.094840  1.0
  Cd  Cd1572  1  0.958910  0.571520  0.405160  1.0
  Cd  Cd1573  1  0.876530  0.112720  0.714300  1.0
  Cd  Cd1574  1  0.703550  0.387280  0.785700  1.0
  Cd  Cd1575  1  0.123470  0.887280  0.285700  1.0
  Cd  Cd1576  1  0.296450  0.612720  0.214300  1.0
  Cd  Cd1577  1  0.418220  0.558470  0.637170  1.0
  Cd  Cd1578  1  0.613860  0.941530  0.862830  1.0
  Cd  Cd1579  1  0.581780  0.441530  0.362830  1.0
  Cd  Cd1580  1  0.386140  0.058470  0.137170  1.0
  F  F1581  1  0.725800  0.609700  0.339500  1.0
  F  F1582  1  0.675000  0.890300  0.160500  1.0
  F  F1583  1  0.274200  0.390300  0.660500  1.0
  F  F1584  1  0.325000  0.109700  0.839500  1.0
  F  F1585  1  0.766100  0.640000  0.316800  1.0
  F  F1586  1  0.722900  0.860000  0.183200  1.0
  F  F1587  1  0.233900  0.360000  0.683200  1.0
  F  F1588  1  0.277100  0.140000  0.816800  1.0
  F  F1589  1  0.801900  0.598800  0.339000  1.0
  F  F1590  1  0.739700  0.901200  0.161000  1.0
  F  F1591  1  0.198100  0.401200  0.661000  1.0
  F  F1592  1  0.260300  0.098800  0.839000  1.0
  F  F1593  1  0.892300  0.581900  0.529700  0.25
  F  F1594  1  0.003900  0.918100  0.970300  0.25
  F  F1595  1  0.107700  0.418100  0.470300  0.25
  F  F1596  1  0.996100  0.081900  0.029700  0.25
  F  F1597  1  0.916200  0.592200  0.561400  0.25
  F  F1598  1  0.069800  0.907800  0.938600  0.25
  F  F1599  1  0.083800  0.407800  0.438600  0.25
  F  F1600  1  0.930200  0.092200  0.061400  0.25
  F  F1601  1  0.871500  0.630100  0.541300  0.25
  F  F1602  1  0.042900  0.869900  0.958700  0.25
  F  F1603  1  0.128500  0.369900  0.458700  0.25
  F  F1604  1  0.957100  0.130100  0.041300  0.25
  F  F1605  1  0.573000  0.799100  0.795700  0.25
  F  F1606  1  0.167800  0.700900  0.704300  0.25
  F  F1607  1  0.427000  0.200900  0.204300  0.25
  F  F1608  1  0.832200  0.299100  0.295700  0.25
  F  F1609  1  0.578600  0.836800  0.815000  0.25
  F  F1610  1  0.230400  0.663200  0.685000  0.25
  F  F1611  1  0.421400  0.163200  0.185000  0.25
  F  F1612  1  0.769600  0.336800  0.315000  0.25
  F  F1613  1  0.535400  0.847600  0.787000  0.25
  F  F1614  1  0.170000  0.652400  0.713000  0.25
  F  F1615  1  0.464600  0.152400  0.213000  0.25
  F  F1616  1  0.830000  0.347600  0.287000  0.25
  F  F1617  1  0.972600  0.914000  0.673800  0.5
  F  F1618  1  0.560400  0.586000  0.826200  0.5
  F  F1619  1  0.027400  0.086000  0.326200  0.5
  F  F1620  1  0.439600  0.414000  0.173800  0.5
  F  F1621  1  0.022900  0.926200  0.689000  0.5
  F  F1622  1  0.638100  0.573800  0.811000  0.5
  F  F1623  1  0.977100  0.073800  0.311000  0.5
  F  F1624  1  0.361900  0.426200  0.189000  0.5
  F  F1625  1  0.949400  0.957300  0.695700  0.5
  F  F1626  1  0.602400  0.542700  0.804300  0.5
  F  F1627  1  0.050600  0.042700  0.304300  0.5
  F  F1628  1  0.397600  0.457300  0.195700  0.5
  F  F1629  1  0.272300  0.751200  0.361000  0.5
  F  F1630  1  0.384500  0.748800  0.139000  0.5
  F  F1631  1  0.727700  0.248800  0.639000  0.5
  F  F1632  1  0.615500  0.251200  0.861000  0.5
  F  F1633  1  0.230300  0.781000  0.335400  0.5
  F  F1634  1  0.346700  0.719000  0.164600  0.5
  F  F1635  1  0.769700  0.219000  0.664600  0.5
  F  F1636  1  0.653300  0.281000  0.835400  0.5
  F  F1637  1  0.219600  0.796100  0.376900  0.5
  F  F1638  1  0.392600  0.703900  0.123100  0.5
  F  F1639  1  0.780400  0.203900  0.623100  0.5
  F  F1640  1  0.607400  0.296100  0.876900  0.5
  H  H1641  1  0.678200  0.819800  0.685000  1.0
  H  H1642  1  0.183000  0.680200  0.815000  1.0
  H  H1643  1  0.321800  0.180200  0.315000  1.0
  H  H1644  1  0.817000  0.319800  0.185000  1.0
  H  H1645  1  0.752800  0.790800  0.658800  1.0
  H  H1646  1  0.202400  0.709200  0.841200  1.0
  H  H1647  1  0.247200  0.209200  0.341200  1.0
  H  H1648  1  0.797600  0.290800  0.158800  1.0
  H  H1649  1  0.709200  0.832200  0.592600  1.0
  H  H1650  1  0.134000  0.667800  0.907400  1.0
  H  H1651  1  0.290800  0.167800  0.407400  1.0
  H  H1652  1  0.866000  0.332200  0.092600  1.0
  H  H1653  1  0.634600  0.859600  0.621000  1.0
  H  H1654  1  0.115200  0.640400  0.879000  1.0
  H  H1655  1  0.365400  0.140400  0.379000  1.0
  H  H1656  1  0.884800  0.359600  0.121000  1.0
  H  H1657  1  0.796300  0.841800  0.618600  1.0
  H  H1658  1  0.256700  0.658200  0.881400  1.0
  H  H1659  1  0.203700  0.158200  0.381400  1.0
  H  H1660  1  0.743300  0.341800  0.118600  1.0
  H  H1661  1  0.865100  0.856900  0.611300  1.0
  H  H1662  1  0.333300  0.643100  0.888700  1.0
  H  H1663  1  0.134900  0.143100  0.388700  1.0
  H  H1664  1  0.666700  0.356900  0.111300  1.0
  H  H1665  1  0.942400  0.822900  0.589700  1.0
  H  H1666  1  0.355000  0.677100  0.910300  1.0
  H  H1667  1  0.057600  0.177100  0.410300  1.0
  H  H1668  1  0.645000  0.322900  0.089700  1.0
  H  H1669  1  0.949600  0.774900  0.573100  1.0
  H  H1670  1  0.297600  0.725100  0.926900  1.0
  H  H1671  1  0.050400  0.225100  0.426900  1.0
  H  H1672  1  0.702400  0.274900  0.073100  1.0
  H  H1673  1  0.872800  0.700000  0.554800  1.0
  H  H1674  1  0.127600  0.800000  0.945200  1.0
  H  H1675  1  0.127200  0.300000  0.445200  1.0
  H  H1676  1  0.872400  0.200000  0.054800  1.0
  H  H1677  1  0.803200  0.688300  0.556500  1.0
  H  H1678  1  0.048000  0.811700  0.943500  1.0
  H  H1679  1  0.196800  0.311700  0.443500  1.0
  H  H1680  1  0.952000  0.188300  0.056500  1.0
  H  H1681  1  0.727100  0.720300  0.581700  1.0
  H  H1682  1  0.029100  0.779700  0.918300  1.0
  H  H1683  1  0.272900  0.279700  0.418300  1.0
  H  H1684  1  0.970900  0.220300  0.081700  1.0
  H  H1685  1  0.719900  0.764400  0.604000  1.0
  H  H1686  1  0.088300  0.735600  0.896000  1.0
  H  H1687  1  0.280100  0.235600  0.396000  1.0
  H  H1688  1  0.911700  0.264400  0.104000  1.0
  H  H1689  1  0.938200  0.746100  0.523900  1.0
  H  H1690  1  0.208200  0.753900  0.976100  1.0
  H  H1691  1  0.061800  0.253900  0.476100  1.0
  H  H1692  1  0.791800  0.246100  0.023900  1.0
  H  H1693  1  0.010600  0.710200  0.501000  1.0
  H  H1694  1  0.221800  0.789800  0.999000  1.0
  H  H1695  1  0.989400  0.289800  0.499000  1.0
  H  H1696  1  0.778200  0.210200  0.001000  1.0
  H  H1697  1  0.018100  0.660300  0.571100  1.0
  H  H1698  1  0.249500  0.839700  0.928900  1.0
  H  H1699  1  0.981900  0.339700  0.428900  1.0
  H  H1700  1  0.750500  0.160300  0.071100  1.0
  H  H1701  1  0.944700  0.696800  0.594000  1.0
  H  H1702  1  0.235500  0.803200  0.906000  1.0
  H  H1703  1  0.055300  0.303200  0.406000  1.0
  H  H1704  1  0.764500  0.196800  0.094000  1.0
  H  H1705  1  0.047100  0.620700  0.531500  1.0
  H  H1706  1  0.199300  0.879300  0.968500  1.0
  H  H1707  1  0.952900  0.379300  0.468500  1.0
  H  H1708  1  0.800700  0.120700  0.031500  1.0
  H  H1709  1  0.095400  0.563500  0.520100  1.0
  H  H1710  1  0.179000  0.936500  0.979900  1.0
  H  H1711  1  0.904600  0.436500  0.479900  1.0
  H  H1712  1  0.821000  0.063500  0.020100  1.0
  H  H1713  1  0.166300  0.526500  0.494300  1.0
  H  H1714  1  0.187100  0.973500  0.005700  1.0
  H  H1715  1  0.833700  0.473500  0.505700  1.0
  H  H1716  1  0.812900  0.026500  0.994300  1.0
  H  H1717  1  0.231200  0.543400  0.466200  1.0
  H  H1718  1  0.240800  0.956600  0.033800  1.0
  H  H1719  1  0.768800  0.456600  0.533800  1.0
  H  H1720  1  0.759200  0.043400  0.966200  1.0
  H  H1721  1  0.220600  0.598700  0.465900  1.0
  H  H1722  1  0.285200  0.901300  0.034100  1.0
  H  H1723  1  0.779400  0.401300  0.534100  1.0
  H  H1724  1  0.714800  0.098700  0.965900  1.0
  H  H1725  1  0.483500  0.923500  0.686300  1.0
  H  H1726  1  0.093300  0.576500  0.813700  1.0
  H  H1727  1  0.516500  0.076500  0.313700  1.0
  H  H1728  1  0.906700  0.423500  0.186300  1.0
  H  H1729  1  0.414900  0.953200  0.716600  1.0
  H  H1730  1  0.084700  0.546800  0.783400  1.0
  H  H1731  1  0.585100  0.046800  0.283400  1.0
  H  H1732  1  0.915300  0.453200  0.216600  1.0
  H  H1733  1  0.468900  0.902100  0.776100  1.0
  H  H1734  1  0.147100  0.597900  0.723900  1.0
  H  H1735  1  0.531100  0.097900  0.223900  1.0
  H  H1736  1  0.852900  0.402100  0.276100  1.0
  H  H1737  1  0.536400  0.873700  0.744500  1.0
  H  H1738  1  0.154600  0.626300  0.755500  1.0
  H  H1739  1  0.463600  0.126300  0.255500  1.0
  H  H1740  1  0.845400  0.373700  0.244500  1.0
  H  H1741  1  0.450400  0.986100  0.748300  1.0
  H  H1742  1  0.184800  0.513900  0.751700  1.0
  H  H1743  1  0.549600  0.013900  0.251700  1.0
  H  H1744  1  0.815200  0.486100  0.248300  1.0
  H  H1745  1  0.451900  0.034600  0.759200  1.0
  H  H1746  1  0.245700  0.465400  0.740800  1.0
  H  H1747  1  0.548100  0.965400  0.240800  1.0
  H  H1748  1  0.754300  0.534600  0.259200  1.0
  H  H1749  1  0.391500  0.062200  0.796400  1.0
  H  H1750  1  0.250100  0.437800  0.703600  1.0
  H  H1751  1  0.608500  0.937800  0.203600  1.0
  H  H1752  1  0.749900  0.562200  0.296400  1.0
  H  H1753  1  0.329400  0.043300  0.820300  1.0
  H  H1754  1  0.193000  0.456700  0.679700  1.0
  H  H1755  1  0.670600  0.956700  0.179700  1.0
  H  H1756  1  0.807000  0.543300  0.320300  1.0
  H  H1757  1  0.251600  0.956400  0.838200  1.0
  H  H1758  1  0.046200  0.543600  0.661800  1.0
  H  H1759  1  0.748400  0.043600  0.161800  1.0
  H  H1760  1  0.953800  0.456400  0.338200  1.0
  H  H1761  1  0.256600  0.906100  0.827300  1.0
  H  H1762  1  0.990000  0.593900  0.672700  1.0
  H  H1763  1  0.743400  0.093900  0.172700  1.0
  H  H1764  1  0.010000  0.406100  0.327300  1.0
  H  H1765  1  0.319100  0.876500  0.792500  1.0
  H  H1766  1  0.988100  0.623500  0.707500  1.0
  H  H1767  1  0.680900  0.123500  0.207500  1.0
  H  H1768  1  0.011900  0.376500  0.292500  1.0
  H  H1769  1  0.379800  0.896800  0.767800  1.0
  H  H1770  1  0.044400  0.603200  0.732200  1.0
  H  H1771  1  0.620200  0.103200  0.232200  1.0
  H  H1772  1  0.955600  0.396800  0.267800  1.0
  H  H1773  1  0.224600  0.027000  0.812600  1.0
  H  H1774  1  0.064200  0.473000  0.687400  1.0
  H  H1775  1  0.775400  0.973000  0.187400  1.0
  H  H1776  1  0.935800  0.527000  0.312600  1.0
  H  H1777  1  0.159700  0.058800  0.844000  1.0
  H  H1778  1  0.062500  0.441200  0.656000  1.0
  H  H1779  1  0.840300  0.941200  0.156000  1.0
  H  H1780  1  0.937500  0.558800  0.344000  1.0
  H  H1781  1  0.229600  0.028100  0.901500  1.0
  H  H1782  1  0.159200  0.471900  0.598500  1.0
  H  H1783  1  0.770400  0.971900  0.098500  1.0
  H  H1784  1  0.840800  0.528100  0.401500  1.0
  H  H1785  1  0.295600  0.997300  0.869900  1.0
  H  H1786  1  0.162800  0.502700  0.630100  1.0
  H  H1787  1  0.704400  0.002700  0.130100  1.0
  H  H1788  1  0.837200  0.497300  0.369900  1.0
  H  H1789  1  0.182300  0.094400  0.902600  1.0
  H  H1790  1  0.179300  0.405600  0.597400  1.0
  H  H1791  1  0.817700  0.905600  0.097400  1.0
  H  H1792  1  0.820700  0.594400  0.402600  1.0
  H  H1793  1  0.151400  0.141100  0.934500  1.0
  H  H1794  1  0.227000  0.358900  0.565500  1.0
  H  H1795  1  0.848600  0.858900  0.065500  1.0
  H  H1796  1  0.773000  0.641100  0.434500  1.0
  H  H1797  1  0.083400  0.175900  0.964900  1.0
  H  H1798  1  0.224200  0.324100  0.535100  1.0
  H  H1799  1  0.916600  0.824100  0.035100  1.0
  H  H1800  1  0.775800  0.675900  0.464900  1.0
  H  H1801  1  0.006200  0.171600  0.972400  1.0
  H  H1802  1  0.150200  0.328400  0.527600  1.0
  H  H1803  1  0.993800  0.828400  0.027600  1.0
  H  H1804  1  0.849800  0.671600  0.472400  1.0
  H  H1805  1  0.997100  0.132000  0.950200  1.0
  H  H1806  1  0.079300  0.368000  0.549800  1.0
  H  H1807  1  0.002900  0.868000  0.049800  1.0
  H  H1808  1  0.920700  0.632000  0.450200  1.0
  H  H1809  1  0.512900  0.855700  0.655900  1.0
  H  H1810  1  0.024500  0.644300  0.844100  1.0
  H  H1811  1  0.487100  0.144300  0.344100  1.0
  H  H1812  1  0.975500  0.355700  0.155900  1.0
  H  H1813  1  0.478000  0.817800  0.652800  1.0
  H  H1814  1  0.948600  0.682200  0.847200  1.0
  H  H1815  1  0.522000  0.182200  0.347200  1.0
  H  H1816  1  0.051400  0.317800  0.152800  1.0
  H  H1817  1  0.550500  0.759500  0.704100  1.0
  H  H1818  1  0.014100  0.740500  0.795900  1.0
  H  H1819  1  0.449500  0.240500  0.295900  1.0
  H  H1820  1  0.985900  0.259500  0.204100  1.0
  H  H1821  1  0.580900  0.799500  0.707100  1.0
  H  H1822  1  0.087500  0.700500  0.792900  1.0
  H  H1823  1  0.419100  0.200500  0.292900  1.0
  H  H1824  1  0.912500  0.299500  0.207100  1.0
  H  H1825  1  0.538100  0.770100  0.627700  1.0
  H  H1826  1  0.935900  0.729900  0.872300  1.0
  H  H1827  1  0.461900  0.229900  0.372300  1.0
  H  H1828  1  0.064100  0.270100  0.127700  1.0
  H  H1829  1  0.544800  0.750100  0.586700  1.0
  H  H1830  1  0.881600  0.749900  0.913300  1.0
  H  H1831  1  0.455200  0.249900  0.413300  1.0
  H  H1832  1  0.118400  0.250100  0.086700  1.0
  H  H1833  1  0.512700  0.708900  0.586100  1.0
  H  H1834  1  0.807700  0.791100  0.913900  1.0
  H  H1835  1  0.487300  0.291100  0.413900  1.0
  H  H1836  1  0.192300  0.208900  0.086100  1.0
  H  H1837  1  0.475500  0.687600  0.626000  1.0
  H  H1838  1  0.789100  0.812400  0.874000  1.0
  H  H1839  1  0.524500  0.312400  0.374000  1.0
  H  H1840  1  0.210900  0.187600  0.126000  1.0
  H  H1841  1  0.396500  0.699200  0.725800  1.0
  H  H1842  1  0.821500  0.800800  0.774200  1.0
  H  H1843  1  0.603500  0.300800  0.274200  1.0
  H  H1844  1  0.178500  0.199200  0.225800  1.0
  H  H1845  1  0.370600  0.729000  0.764800  1.0
  H  H1846  1  0.864400  0.771000  0.735200  1.0
  H  H1847  1  0.629400  0.271000  0.235200  1.0
  H  H1848  1  0.135600  0.229000  0.264800  1.0
  H  H1849  1  0.398000  0.772600  0.763400  1.0
  H  H1850  1  0.934000  0.727400  0.736600  1.0
  H  H1851  1  0.602000  0.227400  0.236600  1.0
  H  H1852  1  0.066000  0.272600  0.263400  1.0
  H  H1853  1  0.451000  0.784800  0.725000  1.0
  H  H1854  1  0.960800  0.715200  0.775000  1.0
  H  H1855  1  0.549000  0.215200  0.275000  1.0
  H  H1856  1  0.039200  0.284800  0.225000  1.0
  H  H1857  1  0.364700  0.702300  0.682500  1.0
  H  H1858  1  0.749500  0.797700  0.817500  1.0
  H  H1859  1  0.635300  0.297700  0.317500  1.0
  H  H1860  1  0.250500  0.202300  0.182500  1.0
  H  H1861  1  0.336800  0.660200  0.680400  1.0
  H  H1862  1  0.677400  0.839800  0.819600  1.0
  H  H1863  1  0.663200  0.339800  0.319600  1.0
  H  H1864  1  0.322600  0.160200  0.180400  1.0
  H  H1865  1  0.476800  0.600600  0.665600  1.0
  H  H1866  1  0.743000  0.899400  0.834400  1.0
  H  H1867  1  0.523200  0.399400  0.334400  1.0
  H  H1868  1  0.257000  0.100600  0.165600  1.0
  H  H1869  1  0.502000  0.643400  0.669000  1.0
  H  H1870  1  0.814400  0.856600  0.831000  1.0
  H  H1871  1  0.498000  0.356600  0.331000  1.0
  H  H1872  1  0.185600  0.143400  0.169000  1.0
  H  H1873  1  0.334600  0.612600  0.701400  1.0
  H  H1874  1  0.648600  0.887400  0.798600  1.0
  H  H1875  1  0.665400  0.387400  0.298600  1.0
  H  H1876  1  0.351400  0.112600  0.201400  1.0
  H  H1877  1  0.271400  0.587800  0.721600  1.0
  H  H1878  1  0.580800  0.912200  0.778400  1.0
  H  H1879  1  0.728600  0.412200  0.278400  1.0
  H  H1880  1  0.419200  0.087800  0.221600  1.0
  H  H1881  1  0.235200  0.549000  0.719200  1.0
  H  H1882  1  0.503400  0.951000  0.780800  1.0
  H  H1883  1  0.764800  0.451000  0.280800  1.0
  H  H1884  1  0.496600  0.049000  0.219200  1.0
  H  H1885  1  0.275500  0.511100  0.684100  1.0
  H  H1886  1  0.470700  0.988900  0.815900  1.0
  H  H1887  1  0.724500  0.488900  0.315900  1.0
  H  H1888  1  0.529300  0.011100  0.184100  1.0
  H  H1889  1  0.348000  0.512800  0.653800  1.0
  H  H1890  1  0.514600  0.987200  0.846200  1.0
  H  H1891  1  0.652000  0.487200  0.346200  1.0
  H  H1892  1  0.485400  0.012800  0.153800  1.0
  H  H1893  1  0.701900  0.804300  0.403100  1.0
  H  H1894  1  0.909300  0.695700  0.096900  1.0
  H  H1895  1  0.298100  0.195700  0.596900  1.0
  H  H1896  1  0.090700  0.304300  0.903100  1.0
  H  H1897  1  0.773900  0.790100  0.415700  1.0
  H  H1898  1  0.979700  0.709900  0.084300  1.0
  H  H1899  1  0.226100  0.209900  0.584300  1.0
  H  H1900  1  0.020300  0.290100  0.915700  1.0
  H  H1901  1  0.802100  0.698900  0.395500  1.0
  H  H1902  1  0.896500  0.801100  0.104500  1.0
  H  H1903  1  0.197900  0.301100  0.604500  1.0
  H  H1904  1  0.103500  0.198900  0.895500  1.0
  H  H1905  1  0.728700  0.715500  0.384500  1.0
  H  H1906  1  0.828700  0.784500  0.115500  1.0
  H  H1907  1  0.271300  0.284500  0.615500  1.0
  H  H1908  1  0.171300  0.215500  0.884500  1.0
  H  H1909  1  0.857000  0.729900  0.359700  1.0
  H  H1910  1  0.946600  0.770100  0.140300  1.0
  H  H1911  1  0.143000  0.270100  0.640300  1.0
  H  H1912  1  0.053400  0.229900  0.859700  1.0
  H  H1913  1  0.927900  0.711900  0.324500  1.0
  H  H1914  1  0.964300  0.788100  0.175500  1.0
  H  H1915  1  0.072100  0.288100  0.675500  1.0
  H  H1916  1  0.035700  0.211900  0.824500  1.0
  H  H1917  1  0.003300  0.695000  0.333400  1.0
  H  H1918  1  0.031700  0.805000  0.166600  1.0
  H  H1919  1  0.996700  0.305000  0.666600  1.0
  H  H1920  1  0.968300  0.195000  0.833400  1.0
  H  H1921  1  0.011800  0.696200  0.375800  1.0
  H  H1922  1  0.083800  0.803800  0.124200  1.0
  H  H1923  1  0.988200  0.303800  0.624200  1.0
  H  H1924  1  0.916200  0.196200  0.875800  1.0
  H  H1925  1  0.927000  0.722200  0.476000  1.0
  H  H1926  1  0.125200  0.777800  0.024000  1.0
  H  H1927  1  0.073000  0.277800  0.524000  1.0
  H  H1928  1  0.874800  0.222200  0.976000  1.0
  H  H1929  1  0.855800  0.740100  0.510100  1.0
  H  H1930  1  0.106000  0.759900  0.989900  1.0
  H  H1931  1  0.144200  0.259900  0.489900  1.0
  H  H1932  1  0.894000  0.240100  0.010100  1.0
  H  H1933  1  0.780000  0.756100  0.501300  1.0
  H  H1934  1  0.037400  0.743900  0.998700  1.0
  H  H1935  1  0.220000  0.243900  0.498700  1.0
  H  H1936  1  0.962600  0.256100  0.001300  1.0
  H  H1937  1  0.775300  0.753500  0.458100  1.0
  H  H1938  1  0.986900  0.746500  0.041900  1.0
  H  H1939  1  0.224700  0.246500  0.541900  1.0
  H  H1940  1  0.013100  0.253500  0.958100  1.0
  H  H1941  1  0.984500  0.667600  0.454200  1.0
  H  H1942  1  0.106300  0.832400  0.045800  1.0
  H  H1943  1  0.015500  0.332400  0.545800  1.0
  H  H1944  1  0.893700  0.167600  0.954200  1.0
  H  H1945  1  0.057500  0.654700  0.462900  1.0
  H  H1946  1  0.175100  0.845300  0.037100  1.0
  H  H1947  1  0.942500  0.345300  0.537100  1.0
  H  H1948  1  0.824900  0.154700  0.962900  1.0
  H  H1949  1  0.089200  0.727300  0.416300  1.0
  H  H1950  1  0.232800  0.772700  0.083700  1.0
  H  H1951  1  0.910800  0.272700  0.583700  1.0
  H  H1952  1  0.767200  0.227300  0.916300  1.0
  H  H1953  1  0.013500  0.741500  0.407700  1.0
  H  H1954  1  0.162700  0.758500  0.092300  1.0
  H  H1955  1  0.986500  0.258500  0.592300  1.0
  H  H1956  1  0.837300  0.241500  0.907700  1.0
  H  H1957  1  0.165300  0.685200  0.409800  1.0
  H  H1958  1  0.260300  0.814800  0.090200  1.0
  H  H1959  1  0.834700  0.314800  0.590200  1.0
  H  H1960  1  0.739700  0.185200  0.909800  1.0
  H  H1961  1  0.255000  0.677500  0.393300  1.0
  H  H1962  1  0.325800  0.822500  0.106700  1.0
  H  H1963  1  0.745000  0.322500  0.606700  1.0
  H  H1964  1  0.674200  0.177500  0.893300  1.0
  H  H1965  1  0.331300  0.663500  0.401900  1.0
  H  H1966  1  0.396700  0.836500  0.098100  1.0
  H  H1967  1  0.668700  0.336500  0.598100  1.0
  H  H1968  1  0.603300  0.163500  0.901900  1.0
  H  H1969  1  0.334600  0.650000  0.447800  1.0
  H  H1970  1  0.432400  0.850000  0.052200  1.0
  H  H1971  1  0.665400  0.350000  0.552200  1.0
  H  H1972  1  0.567600  0.150000  0.947800  1.0
  H  H1973  1  0.263700  0.650700  0.480300  1.0
  H  H1974  1  0.394700  0.849300  0.019700  1.0
  H  H1975  1  0.736300  0.349300  0.519700  1.0
  H  H1976  1  0.605300  0.150700  0.980300  1.0
  H  H1977  1  0.608400  0.782300  0.445100  1.0
  H  H1978  1  0.835800  0.717700  0.054900  1.0
  H  H1979  1  0.391600  0.217700  0.554900  1.0
  H  H1980  1  0.164200  0.282300  0.945100  1.0
  H  H1981  1  0.583300  0.750900  0.481900  1.0
  H  H1982  1  0.816100  0.749100  0.018100  1.0
  H  H1983  1  0.416700  0.249100  0.518100  1.0
  H  H1984  1  0.183900  0.250900  0.981900  1.0
  H  H1985  1  0.587100  0.689300  0.428900  1.0
  H  H1986  1  0.705300  0.810700  0.071100  1.0
  H  H1987  1  0.412900  0.310700  0.571100  1.0
  H  H1988  1  0.294700  0.189300  0.928900  1.0
  H  H1989  1  0.614200  0.721900  0.393900  1.0
  H  H1990  1  0.730000  0.778100  0.106100  1.0
  H  H1991  1  0.385800  0.278100  0.606100  1.0
  H  H1992  1  0.270000  0.221900  0.893900  1.0
  H  H1993  1  0.655700  0.663800  0.449200  1.0
  H  H1994  1  0.768700  0.836200  0.050800  1.0
  H  H1995  1  0.344300  0.336200  0.550800  1.0
  H  H1996  1  0.231300  0.163800  0.949200  1.0
  H  H1997  1  0.704900  0.612400  0.450000  1.0
  H  H1998  1  0.767300  0.887600  0.050000  1.0
  H  H1999  1  0.295100  0.387600  0.550000  1.0
  H  H2000  1  0.232700  0.112400  0.950000  1.0
  H  H2001  1  0.685400  0.576800  0.485000  1.0
  H  H2002  1  0.747200  0.923200  0.015000  1.0
  H  H2003  1  0.314600  0.423200  0.515000  1.0
  H  H2004  1  0.252800  0.076800  0.985000  1.0
  H  H2005  1  0.614400  0.593300  0.519500  1.0
  H  H2006  1  0.727200  0.906700  0.980500  1.0
  H  H2007  1  0.385600  0.406700  0.480500  1.0
  H  H2008  1  0.272800  0.093300  0.019500  1.0
  H  H2009  1  0.460800  0.679300  0.561100  1.0
  H  H2010  1  0.701200  0.820700  0.938900  1.0
  H  H2011  1  0.539200  0.320700  0.438900  1.0
  H  H2012  1  0.298800  0.179300  0.061100  1.0
  H  H2013  1  0.409000  0.730300  0.559700  1.0
  H  H2014  1  0.699000  0.769700  0.940300  1.0
  H  H2015  1  0.591000  0.269700  0.440300  1.0
  H  H2016  1  0.301000  0.230300  0.059700  1.0
  H  H2017  1  0.428200  0.765200  0.524600  1.0
  H  H2018  1  0.718000  0.734800  0.975400  1.0
  H  H2019  1  0.571800  0.234800  0.475400  1.0
  H  H2020  1  0.282000  0.265200  0.024600  1.0
  H  H2021  1  0.499800  0.749900  0.490700  1.0
  H  H2022  1  0.740400  0.750100  0.009300  1.0
  H  H2023  1  0.500200  0.250100  0.509300  1.0
  H  H2024  1  0.259600  0.249900  0.990700  1.0
  H  H2025  1  0.496200  0.608800  0.532200  1.0
  H  H2026  1  0.637200  0.891200  0.967800  1.0
  H  H2027  1  0.503800  0.391200  0.467800  1.0
  H  H2028  1  0.362800  0.108800  0.032200  1.0
  H  H2029  1  0.478500  0.573000  0.567000  1.0
  H  H2030  1  0.618500  0.927000  0.933000  1.0
  H  H2031  1  0.521500  0.427000  0.433000  1.0
  H  H2032  1  0.381500  0.073000  0.067000  1.0
  H  H2033  1  0.546600  0.603000  0.610000  1.0
  H  H2034  1  0.759600  0.897000  0.890000  1.0
  H  H2035  1  0.453400  0.397000  0.390000  1.0
  H  H2036  1  0.240400  0.103000  0.110000  1.0
  H  H2037  1  0.566400  0.637700  0.574700  1.0
  H  H2038  1  0.778800  0.862300  0.925300  1.0
  H  H2039  1  0.433600  0.362300  0.425300  1.0
  H  H2040  1  0.221200  0.137700  0.074700  1.0
  H  H2041  1  0.565700  0.539300  0.614100  1.0
  H  H2042  1  0.719100  0.960700  0.885900  1.0
  H  H2043  1  0.434300  0.460700  0.385900  1.0
  H  H2044  1  0.280900  0.039300  0.114100  1.0
  H  H2045  1  0.595300  0.492800  0.643400  1.0
  H  H2046  1  0.731500  0.007200  0.856600  1.0
  H  H2047  1  0.404700  0.507200  0.356600  1.0
  H  H2048  1  0.268500  0.992800  0.143400  1.0
  H  H2049  1  0.576900  0.458200  0.680200  1.0
  H  H2050  1  0.715300  0.041800  0.819800  1.0
  H  H2051  1  0.423100  0.541800  0.319800  1.0
  H  H2052  1  0.284700  0.958200  0.180200  1.0
  H  H2053  1  0.494900  0.460200  0.699400  1.0
  H  H2054  1  0.654500  0.039800  0.800600  1.0
  H  H2055  1  0.505100  0.539800  0.300600  1.0
  H  H2056  1  0.345500  0.960200  0.199400  1.0
  H  H2057  1  0.435600  0.496400  0.681000  1.0
  H  H2058  1  0.613000  0.003600  0.819000  1.0
  H  H2059  1  0.564400  0.503600  0.319000  1.0
  H  H2060  1  0.387000  0.996400  0.181000  1.0
  H  H2061  1  0.128600  0.892400  0.601400  1.0
  H  H2062  1  0.622400  0.607600  0.898600  1.0
  H  H2063  1  0.871400  0.107600  0.398600  1.0
  H  H2064  1  0.377600  0.392400  0.101400  1.0
  H  H2065  1  0.161600  0.837100  0.604900  1.0
  H  H2066  1  0.603600  0.662900  0.895100  1.0
  H  H2067  1  0.838400  0.162900  0.395100  1.0
  H  H2068  1  0.396400  0.337100  0.104900  1.0
  H  H2069  1  0.291700  0.847900  0.597700  1.0
  H  H2070  1  0.737300  0.652100  0.902300  1.0
  H  H2071  1  0.708300  0.152100  0.402300  1.0
  H  H2072  1  0.262700  0.347900  0.097700  1.0
  H  H2073  1  0.255700  0.902400  0.593400  1.0
  H  H2074  1  0.751500  0.597600  0.906600  1.0
  H  H2075  1  0.744300  0.097600  0.406600  1.0
  H  H2076  1  0.248500  0.402400  0.093400  1.0
  H  H2077  1  0.222100  0.825200  0.651800  1.0
  H  H2078  1  0.699100  0.674800  0.848200  1.0
  H  H2079  1  0.777900  0.174800  0.348200  1.0
  H  H2080  1  0.300900  0.325200  0.151800  1.0
  H  H2081  1  0.221500  0.798700  0.692900  1.0
  H  H2082  1  0.713100  0.701300  0.807100  1.0
  H  H2083  1  0.778500  0.201300  0.307100  1.0
  H  H2084  1  0.286900  0.298700  0.192900  1.0
  H  H2085  1  0.252400  0.743400  0.696000  1.0
  H  H2086  1  0.691800  0.756600  0.804000  1.0
  H  H2087  1  0.747600  0.256600  0.304000  1.0
  H  H2088  1  0.308200  0.243400  0.196000  1.0
  H  H2089  1  0.286400  0.712100  0.657700  1.0
  H  H2090  1  0.656200  0.787900  0.842300  1.0
  H  H2091  1  0.713600  0.287900  0.342300  1.0
  H  H2092  1  0.343800  0.212100  0.157700  1.0
  H  H2093  1  0.325600  0.710100  0.556300  1.0
  H  H2094  1  0.592000  0.789900  0.943700  1.0
  H  H2095  1  0.674400  0.289900  0.443700  1.0
  H  H2096  1  0.408000  0.210100  0.056300  1.0
  H  H2097  1  0.328700  0.736700  0.515700  1.0
  H  H2098  1  0.581100  0.763300  0.984300  1.0
  H  H2099  1  0.671300  0.263300  0.484300  1.0
  H  H2100  1  0.418900  0.236700  0.015700  1.0
  H  H2101  1  0.298900  0.792400  0.512200  1.0
  H  H2102  1  0.603500  0.707600  0.987800  1.0
  H  H2103  1  0.701100  0.207600  0.487800  1.0
  H  H2104  1  0.396500  0.292400  0.012200  1.0
  H  H2105  1  0.261600  0.821100  0.552500  1.0
  H  H2106  1  0.635200  0.678900  0.947500  1.0
  H  H2107  1  0.738400  0.178900  0.447500  1.0
  H  H2108  1  0.364800  0.321100  0.052500  1.0
  H  H2109  1  0.249100  0.685600  0.623000  1.0
  H  H2110  1  0.557700  0.814400  0.877000  1.0
  H  H2111  1  0.750900  0.314400  0.377000  1.0
  H  H2112  1  0.442300  0.185600  0.123000  1.0
  H  H2113  1  0.282000  0.630200  0.623400  1.0
  H  H2114  1  0.535600  0.869800  0.876600  1.0
  H  H2115  1  0.718000  0.369800  0.376600  1.0
  H  H2116  1  0.464400  0.130200  0.123400  1.0
  H  H2117  1  0.417200  0.637000  0.597400  1.0
  H  H2118  1  0.651600  0.863000  0.902600  1.0
  H  H2119  1  0.582800  0.363000  0.402600  1.0
  H  H2120  1  0.348400  0.137000  0.097400  1.0
  H  H2121  1  0.383900  0.691600  0.597600  1.0
  H  H2122  1  0.673100  0.808400  0.902400  1.0
  H  H2123  1  0.616100  0.308400  0.402400  1.0
  H  H2124  1  0.326900  0.191600  0.097600  1.0
  H  H2125  1  0.351000  0.589300  0.578900  1.0
  H  H2126  1  0.519200  0.910700  0.921100  1.0
  H  H2127  1  0.649000  0.410700  0.421100  1.0
  H  H2128  1  0.480800  0.089300  0.078900  1.0
  H  H2129  1  0.357900  0.541600  0.557000  1.0
  H  H2130  1  0.456500  0.958400  0.943000  1.0
  H  H2131  1  0.642100  0.458400  0.443000  1.0
  H  H2132  1  0.543500  0.041600  0.057000  1.0
  H  H2133  1  0.388400  0.485600  0.552000  1.0
  H  H2134  1  0.426000  0.014400  0.948000  1.0
  H  H2135  1  0.611600  0.514400  0.448000  1.0
  H  H2136  1  0.574000  0.985600  0.052000  1.0
  H  H2137  1  0.436700  0.454700  0.580100  1.0
  H  H2138  1  0.471500  0.045300  0.919900  1.0
  H  H2139  1  0.563300  0.545300  0.419900  1.0
  H  H2140  1  0.528500  0.954700  0.080100  1.0
  H  H2141  1  0.449500  0.480100  0.613300  1.0
  H  H2142  1  0.542900  0.019900  0.886700  1.0
  H  H2143  1  0.550500  0.519900  0.386700  1.0
  H  H2144  1  0.457100  0.980100  0.113300  1.0
  H  H2145  1  0.813000  0.987800  0.442200  1.0
  H  H2146  1  0.243000  0.512200  0.057800  1.0
  H  H2147  1  0.187000  0.012200  0.557800  1.0
  H  H2148  1  0.757000  0.487800  0.942200  1.0
  H  H2149  1  0.848900  0.937900  0.459100  1.0
  H  H2150  1  0.245900  0.562100  0.040900  1.0
  H  H2151  1  0.151100  0.062100  0.540900  1.0
  H  H2152  1  0.754100  0.437900  0.959100  1.0
  H  H2153  1  0.977600  0.937900  0.406100  1.0
  H  H2154  1  0.321600  0.562100  0.093900  1.0
  H  H2155  1  0.022400  0.062100  0.593900  1.0
  H  H2156  1  0.678400  0.437900  0.906100  1.0
  H  H2157  1  0.937800  0.987500  0.389500  1.0
  H  H2158  1  0.314800  0.512500  0.110500  1.0
  H  H2159  1  0.062200  0.012500  0.610500  1.0
  H  H2160  1  0.685200  0.487500  0.889500  1.0
  H  H2161  1  0.958100  0.948800  0.463400  1.0
  H  H2162  1  0.370300  0.551200  0.036600  1.0
  H  H2163  1  0.041900  0.051200  0.536600  1.0
  H  H2164  1  0.629700  0.448800  0.963400  1.0
  H  H2165  1  0.008300  0.945800  0.490600  1.0
  H  H2166  1  0.444700  0.554200  0.009400  1.0
  H  H2167  1  0.991700  0.054200  0.509400  1.0
  H  H2168  1  0.555300  0.445800  0.990600  1.0
  H  H2169  1  0.056600  0.897700  0.504100  1.0
  H  H2170  1  0.458400  0.602300  0.995900  1.0
  H  H2171  1  0.943400  0.102300  0.495900  1.0
  H  H2172  1  0.541600  0.397700  0.004100  1.0
  H  H2173  1  0.055200  0.849700  0.492300  1.0
  H  H2174  1  0.397200  0.650300  0.007700  1.0
  H  H2175  1  0.944800  0.150300  0.507700  1.0
  H  H2176  1  0.602800  0.349700  0.992300  1.0
  H  H2177  1  0.988500  0.792400  0.444400  1.0
  H  H2178  1  0.225300  0.707600  0.055600  1.0
  H  H2179  1  0.011500  0.207600  0.555600  1.0
  H  H2180  1  0.774700  0.292400  0.944400  1.0
  H  H2181  1  0.934600  0.794100  0.420500  1.0
  H  H2182  1  0.149200  0.705900  0.079500  1.0
  H  H2183  1  0.065400  0.205900  0.579500  1.0
  H  H2184  1  0.850800  0.294100  0.920500  1.0
  H  H2185  1  0.881400  0.842600  0.409000  1.0
  H  H2186  1  0.133000  0.657400  0.091000  1.0
  H  H2187  1  0.118600  0.157400  0.591000  1.0
  H  H2188  1  0.867000  0.342600  0.909000  1.0
  H  H2189  1  0.887500  0.890900  0.418300  1.0
  H  H2190  1  0.196700  0.609100  0.081700  1.0
  H  H2191  1  0.112500  0.109100  0.581700  1.0
  H  H2192  1  0.803300  0.390900  0.918300  1.0
  H  H2193  1  0.081600  0.793700  0.441700  1.0
  H  H2194  1  0.317000  0.706300  0.058300  1.0
  H  H2195  1  0.918400  0.206300  0.558300  1.0
  H  H2196  1  0.683000  0.293700  0.941700  1.0
  H  H2197  1  0.129400  0.747100  0.459100  1.0
  H  H2198  1  0.335600  0.752900  0.040900  1.0
  H  H2199  1  0.870600  0.252900  0.540900  1.0
  H  H2200  1  0.664400  0.247100  0.959100  1.0
  H  H2201  1  0.033900  0.768500  0.533500  1.0
  H  H2202  1  0.335900  0.731500  0.966500  1.0
  H  H2203  1  0.966100  0.231500  0.466500  1.0
  H  H2204  1  0.664100  0.268500  0.033500  1.0
  H  H2205  1  0.987200  0.814200  0.515400  1.0
  H  H2206  1  0.316800  0.685800  0.984600  1.0
  H  H2207  1  0.012800  0.185800  0.484600  1.0
  H  H2208  1  0.683200  0.314200  0.015400  1.0
  H  H2209  1  0.111100  0.740600  0.542000  1.0
  H  H2210  1  0.393700  0.759400  0.958000  1.0
  H  H2211  1  0.888900  0.259400  0.458000  1.0
  H  H2212  1  0.606300  0.240600  0.042000  1.0
  H  H2213  1  0.144600  0.708600  0.581200  1.0
  H  H2214  1  0.434400  0.791400  0.918800  1.0
  H  H2215  1  0.855400  0.291400  0.418800  1.0
  H  H2216  1  0.565600  0.208600  0.081200  1.0
  H  H2217  1  0.189800  0.660500  0.596500  1.0
  H  H2218  1  0.446800  0.839500  0.903500  1.0
  H  H2219  1  0.810200  0.339500  0.403500  1.0
  H  H2220  1  0.553200  0.160500  0.096500  1.0
  H  H2221  1  0.222400  0.612900  0.572100  1.0
  H  H2222  1  0.407400  0.887100  0.927900  1.0
  H  H2223  1  0.777600  0.387100  0.427900  1.0
  H  H2224  1  0.592600  0.112900  0.072100  1.0
  H  H2225  1  0.201800  0.619300  0.531300  1.0
  H  H2226  1  0.352400  0.880700  0.968700  1.0
  H  H2227  1  0.798200  0.380700  0.468700  1.0
  H  H2228  1  0.647600  0.119300  0.031300  1.0
  H  H2229  1  0.314700  0.229700  0.681700  1.0
  H  H2230  1  0.226100  0.270300  0.818300  1.0
  H  H2231  1  0.685300  0.770300  0.318300  1.0
  H  H2232  1  0.773900  0.729700  0.181700  1.0
  H  H2233  1  0.271100  0.208200  0.719600  1.0
  H  H2234  1  0.198900  0.291800  0.780400  1.0
  H  H2235  1  0.728900  0.791800  0.280400  1.0
  H  H2236  1  0.801100  0.708200  0.219600  1.0
  H  H2237  1  0.280200  0.140600  0.671400  1.0
  H  H2238  1  0.092200  0.359400  0.828600  1.0
  H  H2239  1  0.719800  0.859400  0.328600  1.0
  H  H2240  1  0.907800  0.640600  0.171400  1.0
  H  H2241  1  0.327300  0.161800  0.635600  1.0
  H  H2242  1  0.124700  0.338200  0.864400  1.0
  H  H2243  1  0.672700  0.838200  0.364400  1.0
  H  H2244  1  0.875300  0.661800  0.135600  1.0
  H  H2245  1  0.323900  0.118200  0.716600  1.0
  H  H2246  1  0.158700  0.381800  0.783400  1.0
  H  H2247  1  0.676100  0.881800  0.283400  1.0
  H  H2248  1  0.841300  0.618200  0.216600  1.0
  H  H2249  1  0.350500  0.069700  0.739300  1.0
  H  H2250  1  0.159500  0.430300  0.760700  1.0
  H  H2251  1  0.649500  0.930300  0.260700  1.0
  H  H2252  1  0.840500  0.569700  0.239300  1.0
  H  H2253  1  0.296000  0.052800  0.775200  1.0
  H  H2254  1  0.124000  0.447200  0.724800  1.0
  H  H2255  1  0.704000  0.947200  0.224800  1.0
  H  H2256  1  0.876000  0.552800  0.275200  1.0
  H  H2257  1  0.216000  0.084200  0.790000  1.0
  H  H2258  1  0.090200  0.415800  0.710000  1.0
  H  H2259  1  0.784000  0.915800  0.210000  1.0
  H  H2260  1  0.909800  0.584200  0.290000  1.0
  H  H2261  1  0.079600  0.174500  0.772700  1.0
  H  H2262  1  0.026800  0.325500  0.727300  1.0
  H  H2263  1  0.920400  0.825500  0.227300  1.0
  H  H2264  1  0.973200  0.674500  0.272700  1.0
  H  H2265  1  0.050100  0.215600  0.743600  1.0
  H  H2266  1  0.009300  0.284400  0.756400  1.0
  H  H2267  1  0.949900  0.784400  0.256400  1.0
  H  H2268  1  0.990700  0.715600  0.243600  1.0
  H  H2269  1  0.104600  0.231800  0.706600  1.0
  H  H2270  1  0.043000  0.268200  0.793400  1.0
  H  H2271  1  0.895400  0.768200  0.293400  1.0
  H  H2272  1  0.957000  0.731800  0.206600  1.0
  H  H2273  1  0.188900  0.207700  0.698100  1.0
  H  H2274  1  0.094700  0.292300  0.801900  1.0
  H  H2275  1  0.811100  0.792300  0.301900  1.0
  H  H2276  1  0.905300  0.707700  0.198100  1.0
  H  H2277  1  0.155200  0.148600  0.823000  1.0
  H  H2278  1  0.126800  0.351400  0.677000  1.0
  H  H2279  1  0.844800  0.851400  0.177000  1.0
  H  H2280  1  0.873200  0.648600  0.323000  1.0
  H  H2281  1  0.102400  0.136300  0.862100  1.0
  H  H2282  1  0.100800  0.363700  0.637900  1.0
  H  H2283  1  0.897600  0.863700  0.137900  1.0
  H  H2284  1  0.899200  0.636300  0.362100  1.0
  H  H2285  1  0.043500  0.101000  0.817200  1.0
  H  H2286  1  0.961700  0.399000  0.682800  1.0
  H  H2287  1  0.956500  0.899000  0.182800  1.0
  H  H2288  1  0.038300  0.601000  0.317200  1.0
  H  H2289  1  0.095800  0.113900  0.777900  1.0
  H  H2290  1  0.987600  0.386100  0.722100  1.0
  H  H2291  1  0.904200  0.886100  0.222100  1.0
  H  H2292  1  0.012400  0.613900  0.277900  1.0
  H  H2293  1  0.980400  0.125300  0.856300  1.0
  H  H2294  1  0.962000  0.374700  0.643700  1.0
  H  H2295  1  0.019600  0.874700  0.143700  1.0
  H  H2296  1  0.038000  0.625300  0.356300  1.0
  H  H2297  1  0.896600  0.121400  0.879400  1.0
  H  H2298  1  0.897400  0.378600  0.620600  1.0
  H  H2299  1  0.103400  0.878600  0.120600  1.0
  H  H2300  1  0.102600  0.621400  0.379400  1.0
  H  H2301  1  0.846500  0.102300  0.916900  1.0
  H  H2302  1  0.865700  0.397700  0.583100  1.0
  H  H2303  1  0.153500  0.897700  0.083100  1.0
  H  H2304  1  0.134300  0.602300  0.416900  1.0
  H  H2305  1  0.878300  0.073000  0.951600  1.0
  H  H2306  1  0.902900  0.427000  0.548400  1.0
  H  H2307  1  0.121700  0.927000  0.048400  1.0
  H  H2308  1  0.097100  0.573000  0.451600  1.0
  H  H2309  1  0.960100  0.062600  0.948400  1.0
  H  H2310  1  0.971100  0.437400  0.551600  1.0
  H  H2311  1  0.039900  0.937400  0.051600  1.0
  H  H2312  1  0.028900  0.562600  0.448400  1.0
  H  H2313  1  0.612500  0.922100  0.649900  1.0
  H  H2314  1  0.184500  0.577900  0.850100  1.0
  H  H2315  1  0.387500  0.077900  0.350100  1.0
  H  H2316  1  0.815500  0.422100  0.149900  1.0
  H  H2317  1  0.659300  0.954000  0.647200  1.0
  H  H2318  1  0.260500  0.546000  0.852800  1.0
  H  H2319  1  0.340700  0.046000  0.352800  1.0
  H  H2320  1  0.739500  0.454000  0.147200  1.0
  H  H2321  1  0.672600  0.922300  0.721100  1.0
  H  H2322  1  0.316000  0.577700  0.778900  1.0
  H  H2323  1  0.327400  0.077700  0.278900  1.0
  H  H2324  1  0.684000  0.422300  0.221100  1.0
  H  H2325  1  0.628100  0.890600  0.720800  1.0
  H  H2326  1  0.239500  0.609400  0.779200  1.0
  H  H2327  1  0.371900  0.109400  0.279200  1.0
  H  H2328  1  0.760500  0.390600  0.220800  1.0
  H  H2329  1  0.779900  0.017500  0.727500  1.0
  H  H2330  1  0.524900  0.482500  0.772500  1.0
  H  H2331  1  0.220100  0.982500  0.272500  1.0
  H  H2332  1  0.475100  0.517500  0.227500  1.0
  H  H2333  1  0.833600  0.040700  0.733500  1.0
  H  H2334  1  0.607800  0.459300  0.766500  1.0
  H  H2335  1  0.166400  0.959300  0.266500  1.0
  H  H2336  1  0.392200  0.540700  0.233500  1.0
  H  H2337  1  0.895200  0.037400  0.653000  1.0
  H  H2338  1  0.585600  0.462600  0.847000  1.0
  H  H2339  1  0.104800  0.962600  0.347000  1.0
  H  H2340  1  0.414400  0.537400  0.153000  1.0
  H  H2341  1  0.843700  0.013100  0.648100  1.0
  H  H2342  1  0.504900  0.486900  0.851900  1.0
  H  H2343  1  0.156300  0.986900  0.351900  1.0
  H  H2344  1  0.495100  0.513100  0.148100  1.0
  H  H2345  1  0.960200  0.031800  0.671200  1.0
  H  H2346  1  0.663200  0.468200  0.828800  1.0
  H  H2347  1  0.039800  0.968200  0.328800  1.0
  H  H2348  1  0.336800  0.531800  0.171200  1.0
  H  H2349  1  0.044800  0.036100  0.651500  1.0
  H  H2350  1  0.732400  0.463900  0.848500  1.0
  H  H2351  1  0.955200  0.963900  0.348500  1.0
  H  H2352  1  0.267600  0.536100  0.151500  1.0
  H  H2353  1  0.097300  0.066700  0.644500  1.0
  H  H2354  1  0.808500  0.433300  0.855500  1.0
  H  H2355  1  0.902700  0.933300  0.355500  1.0
  H  H2356  1  0.191500  0.566700  0.144500  1.0
  H  H2357  1  0.068900  0.112900  0.669900  1.0
  H  H2358  1  0.851700  0.387100  0.830100  1.0
  H  H2359  1  0.931100  0.887100  0.330100  1.0
  H  H2360  1  0.148300  0.612900  0.169900  1.0
  H  H2361  1  0.991300  0.128500  0.699700  1.0
  H  H2362  1  0.819500  0.371500  0.800300  1.0
  H  H2363  1  0.008700  0.871500  0.300300  1.0
  H  H2364  1  0.180500  0.628500  0.199700  1.0
  H  H2365  1  0.774900  0.057600  0.468400  1.0
  H  H2366  1  0.300900  0.442400  0.031600  1.0
  H  H2367  1  0.225100  0.942400  0.531600  1.0
  H  H2368  1  0.699100  0.557600  0.968400  1.0
  H  H2369  1  0.779200  0.066500  0.510300  1.0
  H  H2370  1  0.356000  0.433500  0.989700  1.0
  H  H2371  1  0.220800  0.933500  0.489700  1.0
  H  H2372  1  0.644000  0.566500  0.010300  1.0
  H  H2373  1  0.921000  0.056700  0.475300  1.0
  H  H2374  1  0.453000  0.443300  0.024700  1.0
  H  H2375  1  0.079000  0.943300  0.524700  1.0
  H  H2376  1  0.547000  0.556700  0.975300  1.0
  H  H2377  1  0.911800  0.047800  0.434600  1.0
  H  H2378  1  0.394200  0.452200  0.065400  1.0
  H  H2379  1  0.088200  0.952200  0.565400  1.0
  H  H2380  1  0.605800  0.547800  0.934600  1.0
  H  H2381  1  0.809900  0.120900  0.501300  1.0
  H  H2382  1  0.432100  0.379100  0.998700  1.0
  H  H2383  1  0.190100  0.879100  0.498700  1.0
  H  H2384  1  0.567900  0.620900  0.001300  1.0
  H  H2385  1  0.782100  0.173600  0.513200  1.0
  H  H2386  1  0.468900  0.326400  0.986800  1.0
  H  H2387  1  0.217900  0.826400  0.486800  1.0
  H  H2388  1  0.531100  0.673600  0.013200  1.0
  H  H2389  1  0.791900  0.188200  0.552800  1.0
  H  H2390  1  0.532900  0.311800  0.947200  1.0
  H  H2391  1  0.208100  0.811800  0.447200  1.0
  H  H2392  1  0.467100  0.688200  0.052800  1.0
  H  H2393  1  0.827900  0.148200  0.580400  1.0
  H  H2394  1  0.556500  0.351800  0.919600  1.0
  H  H2395  1  0.172100  0.851800  0.419600  1.0
  H  H2396  1  0.443500  0.648200  0.080400  1.0
  H  H2397  1  0.923700  0.034700  0.595500  1.0
  H  H2398  1  0.553900  0.465300  0.904500  1.0
  H  H2399  1  0.076300  0.965300  0.404500  1.0
  H  H2400  1  0.446100  0.534700  0.095500  1.0
  H  H2401  1  0.964100  0.983400  0.580400  1.0
  H  H2402  1  0.527900  0.516600  0.919600  1.0
  H  H2403  1  0.035900  0.016600  0.419600  1.0
  H  H2404  1  0.472100  0.483400  0.080400  1.0
  H  H2405  1  0.957700  0.969600  0.539400  1.0
  H  H2406  1  0.466700  0.530400  0.960600  1.0
  H  H2407  1  0.042300  0.030400  0.460600  1.0
  H  H2408  1  0.533300  0.469600  0.039400  1.0
  H  H2409  1  0.911000  0.006100  0.514500  1.0
  H  H2410  1  0.431600  0.493900  0.985500  1.0
  H  H2411  1  0.089000  0.993900  0.485500  1.0
  H  H2412  1  0.568400  0.506100  0.014500  1.0
  H  H2413  1  0.933500  0.107300  0.583300  1.0
  H  H2414  1  0.624100  0.392700  0.916700  1.0
  H  H2415  1  0.066500  0.892700  0.416700  1.0
  H  H2416  1  0.375900  0.607300  0.083300  1.0
  H  H2417  1  0.937700  0.127700  0.621500  1.0
  H  H2418  1  0.686900  0.372300  0.878500  1.0
  H  H2419  1  0.062300  0.872300  0.378500  1.0
  H  H2420  1  0.313100  0.627700  0.121500  1.0
  H  H2421  1  0.816600  0.106400  0.663200  1.0
  H  H2422  1  0.586200  0.393600  0.836800  1.0
  H  H2423  1  0.183400  0.893600  0.336800  1.0
  H  H2424  1  0.413800  0.606400  0.163200  1.0
  H  H2425  1  0.813000  0.085900  0.624900  1.0
  H  H2426  1  0.523800  0.414100  0.875100  1.0
  H  H2427  1  0.187000  0.914100  0.375100  1.0
  H  H2428  1  0.476200  0.585900  0.124900  1.0
  H  H2429  1  0.877500  0.175000  0.653400  1.0
  H  H2430  1  0.705900  0.325000  0.846600  1.0
  H  H2431  1  0.122500  0.825000  0.346600  1.0
  H  H2432  1  0.294100  0.675000  0.153400  1.0
  H  H2433  1  0.888600  0.219600  0.673600  1.0
  H  H2434  1  0.781800  0.280400  0.826400  1.0
  H  H2435  1  0.111400  0.780400  0.326400  1.0
  H  H2436  1  0.218200  0.719600  0.173600  1.0
  H  H2437  1  0.886300  0.241900  0.713500  1.0
  H  H2438  1  0.841700  0.258100  0.786500  1.0
  H  H2439  1  0.113700  0.758100  0.286500  1.0
  H  H2440  1  0.158300  0.741900  0.213500  1.0
  H  H2441  1  0.876600  0.212900  0.754900  1.0
  H  H2442  1  0.844400  0.287100  0.745100  1.0
  H  H2443  1  0.123400  0.787100  0.245100  1.0
  H  H2444  1  0.155600  0.712900  0.254900  1.0
  H  H2445  1  0.874100  0.161400  0.755200  1.0
  H  H2446  1  0.790700  0.338600  0.744800  1.0
  H  H2447  1  0.125900  0.838600  0.244800  1.0
  H  H2448  1  0.209300  0.661400  0.255200  1.0
  H  H2449  1  0.408600  0.247300  0.653100  1.0
  H  H2450  1  0.309000  0.252700  0.846900  1.0
  H  H2451  1  0.591400  0.752700  0.346900  1.0
  H  H2452  1  0.691000  0.747300  0.153100  1.0
  H  H2453  1  0.476000  0.232400  0.668800  1.0
  H  H2454  1  0.377200  0.267600  0.831200  1.0
  H  H2455  1  0.524000  0.767600  0.331200  1.0
  H  H2456  1  0.622800  0.732400  0.168800  1.0
  H  H2457  1  0.522300  0.148300  0.632700  1.0
  H  H2458  1  0.303300  0.351700  0.867300  1.0
  H  H2459  1  0.477700  0.851700  0.367300  1.0
  H  H2460  1  0.696700  0.648300  0.132700  1.0
  H  H2461  1  0.453600  0.165100  0.617100  1.0
  H  H2462  1  0.235800  0.334900  0.882900  1.0
  H  H2463  1  0.546400  0.834900  0.382900  1.0
  H  H2464  1  0.764200  0.665100  0.117100  1.0
  H  H2465  1  0.474100  0.176900  0.704900  1.0
  H  H2466  1  0.355900  0.323100  0.795100  1.0
  H  H2467  1  0.525900  0.823100  0.295100  1.0
  H  H2468  1  0.644100  0.676900  0.204900  1.0
  H  H2469  1  0.469800  0.163100  0.749500  1.0
  H  H2470  1  0.382400  0.336900  0.750500  1.0
  H  H2471  1  0.530200  0.836900  0.250500  1.0
  H  H2472  1  0.617600  0.663100  0.249500  1.0
  H  H2473  1  0.537300  0.146800  0.766800  1.0
  H  H2474  1  0.450900  0.353200  0.733200  1.0
  H  H2475  1  0.462700  0.853200  0.233200  1.0
  H  H2476  1  0.549100  0.646800  0.266800  1.0
  H  H2477  1  0.612800  0.144100  0.737500  1.0
  H  H2478  1  0.494400  0.355900  0.762500  1.0
  H  H2479  1  0.387200  0.855900  0.262500  1.0
  H  H2480  1  0.505600  0.644100  0.237500  1.0
  H  H2481  1  0.716400  0.152500  0.645900  1.0
  H  H2482  1  0.514800  0.347500  0.854100  1.0
  H  H2483  1  0.283600  0.847500  0.354100  1.0
  H  H2484  1  0.485200  0.652500  0.145900  1.0
  H  H2485  1  0.724300  0.158700  0.600100  1.0
  H  H2486  1  0.483100  0.341300  0.899900  1.0
  H  H2487  1  0.275700  0.841300  0.399900  1.0
  H  H2488  1  0.516900  0.658700  0.100100  1.0
  H  H2489  1  0.657400  0.176100  0.582100  1.0
  H  H2490  1  0.415600  0.323900  0.917900  1.0
  H  H2491  1  0.342600  0.823900  0.417900  1.0
  H  H2492  1  0.584400  0.676100  0.082100  1.0
  H  H2493  1  0.580100  0.186700  0.611100  1.0
  H  H2494  1  0.377900  0.313300  0.888900  1.0
  H  H2495  1  0.419900  0.813300  0.388900  1.0
  H  H2496  1  0.622100  0.686700  0.111100  1.0
  H  H2497  1  0.698800  0.190200  0.688200  1.0
  H  H2498  1  0.577200  0.309800  0.811800  1.0
  H  H2499  1  0.301200  0.809800  0.311800  1.0
  H  H2500  1  0.422800  0.690200  0.188200  1.0
  H  H2501  1  0.760300  0.176100  0.709900  1.0
  H  H2502  1  0.646300  0.323900  0.790100  1.0
  H  H2503  1  0.239700  0.823900  0.290100  1.0
  H  H2504  1  0.353700  0.676100  0.209900  1.0
  H  H2505  1  0.735100  0.092100  0.734900  1.0
  H  H2506  1  0.562100  0.407900  0.765100  1.0
  H  H2507  1  0.264900  0.907900  0.265100  1.0
  H  H2508  1  0.437900  0.592100  0.234900  1.0
  H  H2509  1  0.674100  0.107300  0.713100  1.0
  H  H2510  1  0.494500  0.392700  0.786900  1.0
  H  H2511  1  0.325900  0.892700  0.286900  1.0
  H  H2512  1  0.505500  0.607300  0.213100  1.0
  H  H2513  1  0.758000  0.113900  0.772300  1.0
  H  H2514  1  0.644200  0.386100  0.727700  1.0
  H  H2515  1  0.242000  0.886100  0.227700  1.0
  H  H2516  1  0.355800  0.613900  0.272300  1.0
  H  H2517  1  0.790900  0.088400  0.812200  1.0
  H  H2518  1  0.691500  0.411600  0.687800  1.0
  H  H2519  1  0.209100  0.911600  0.187800  1.0
  H  H2520  1  0.308500  0.588400  0.312200  1.0
  H  H2521  1  0.857800  0.065000  0.830200  1.0
  H  H2522  1  0.753000  0.435000  0.669800  1.0
  H  H2523  1  0.142200  0.935000  0.169800  1.0
  H  H2524  1  0.247000  0.565000  0.330200  1.0
  H  H2525  1  0.937900  0.059500  0.802300  1.0
  H  H2526  1  0.799700  0.440500  0.697700  1.0
  H  H2527  1  0.062100  0.940500  0.197700  1.0
  H  H2528  1  0.200300  0.559500  0.302300  1.0
  H  H2529  1  0.945100  0.077900  0.757300  1.0
  H  H2530  1  0.780300  0.422100  0.742700  1.0
  H  H2531  1  0.054900  0.922100  0.242700  1.0
  H  H2532  1  0.219700  0.577900  0.257300  1.0
  H  H2533  1  0.116400  0.933900  0.648900  1.0
  H  H2534  1  0.699200  0.566100  0.851100  1.0
  H  H2535  1  0.883600  0.066100  0.351100  1.0
  H  H2536  1  0.300800  0.433900  0.148900  1.0
  H  H2537  1  0.108900  0.941100  0.693900  1.0
  H  H2538  1  0.743900  0.558900  0.806100  1.0
  H  H2539  1  0.891100  0.058900  0.306100  1.0
  H  H2540  1  0.256100  0.441100  0.193900  1.0
  H  H2541  1  0.190000  0.999000  0.669800  1.0
  H  H2542  1  0.858800  0.501000  0.830200  1.0
  H  H2543  1  0.810000  0.001000  0.330200  1.0
  H  H2544  1  0.141200  0.499000  0.169800  1.0
  H  H2545  1  0.197800  0.989800  0.625400  1.0
  H  H2546  1  0.813000  0.510200  0.874600  1.0
  H  H2547  1  0.802200  0.010200  0.374600  1.0
  H  H2548  1  0.187000  0.489800  0.125400  1.0
  H  H2549  1  0.235900  0.965400  0.691600  1.0
  H  H2550  1  0.892900  0.534600  0.808400  1.0
  H  H2551  1  0.764100  0.034600  0.308400  1.0
  H  H2552  1  0.107100  0.465400  0.191600  1.0
  H  H2553  1  0.302800  0.963600  0.705400  1.0
  H  H2554  1  0.971800  0.536400  0.794600  1.0
  H  H2555  1  0.697200  0.036400  0.294600  1.0
  H  H2556  1  0.028200  0.463600  0.205400  1.0
  H  H2557  1  0.287600  0.975200  0.751800  1.0
  H  H2558  1  0.014600  0.524800  0.748200  1.0
  H  H2559  1  0.712400  0.024800  0.248200  1.0
  H  H2560  1  0.985400  0.475200  0.251800  1.0
  H  H2561  1  0.210600  0.986200  0.780200  1.0
  H  H2562  1  0.977000  0.513800  0.719800  1.0
  H  H2563  1  0.789400  0.013800  0.219800  1.0
  H  H2564  1  0.023000  0.486200  0.280200  1.0
  H  H2565  1  0.026600  0.999300  0.795700  1.0
  H  H2566  1  0.821600  0.500700  0.704300  1.0
  H  H2567  1  0.973400  0.000700  0.204300  1.0
  H  H2568  1  0.178400  0.499300  0.295700  1.0
  H  H2569  1  0.967000  0.003200  0.776400  1.0
  H  H2570  1  0.746600  0.496800  0.723600  1.0
  H  H2571  1  0.033000  0.996800  0.223600  1.0
  H  H2572  1  0.253400  0.503200  0.276400  1.0
  H  H2573  1  0.981900  0.994400  0.730200  1.0
  H  H2574  1  0.706500  0.505600  0.769800  1.0
  H  H2575  1  0.018100  0.005600  0.269800  1.0
  H  H2576  1  0.293500  0.494400  0.230200  1.0
  H  H2577  1  0.063000  0.980300  0.703900  1.0
  H  H2578  1  0.747200  0.519700  0.796100  1.0
  H  H2579  1  0.937000  0.019700  0.296100  1.0
  H  H2580  1  0.252800  0.480300  0.203900  1.0
  H  H2581  1  0.061000  0.036300  0.804500  1.0
  H  H2582  1  0.901800  0.463700  0.695500  1.0
  H  H2583  1  0.939000  0.963700  0.195500  1.0
  H  H2584  1  0.098200  0.536300  0.304500  1.0
  H  H2585  1  0.047800  0.047000  0.848600  1.0
  H  H2586  1  0.943400  0.453000  0.651400  1.0
  H  H2587  1  0.952200  0.953000  0.151400  1.0
  H  H2588  1  0.056600  0.547000  0.348600  1.0
  H  H2589  1  0.155400  0.965100  0.855900  1.0
  H  H2590  1  0.976400  0.534900  0.644100  1.0
  H  H2591  1  0.844600  0.034900  0.144100  1.0
  H  H2592  1  0.023600  0.465100  0.355900  1.0
  H  H2593  1  0.168900  0.956800  0.810800  1.0
  H  H2594  1  0.936500  0.543200  0.689200  1.0
  H  H2595  1  0.831100  0.043200  0.189200  1.0
  H  H2596  1  0.063500  0.456800  0.310800  1.0
  H  H2597  1  0.095900  0.974900  0.900500  1.0
  H  H2598  1  0.971300  0.525100  0.599500  1.0
  H  H2599  1  0.904100  0.025100  0.099500  1.0
  H  H2600  1  0.028700  0.474900  0.400500  1.0
  H  H2601  1  0.086200  0.956600  0.949400  1.0
  H  H2602  1  0.992200  0.543400  0.550600  1.0
  H  H2603  1  0.913800  0.043400  0.050600  1.0
  H  H2604  1  0.007800  0.456600  0.449400  1.0
  H  H2605  1  0.069000  0.969300  0.994500  1.0
  H  H2606  1  0.032800  0.530700  0.505500  1.0
  H  H2607  1  0.931000  0.030700  0.005500  1.0
  H  H2608  1  0.967200  0.469300  0.494500  1.0
  H  H2609  1  0.051300  0.022000  0.006400  1.0
  H  H2610  1  0.079700  0.478000  0.493600  1.0
  H  H2611  1  0.948700  0.978000  0.993600  1.0
  H  H2612  1  0.920300  0.522000  0.506400  1.0
  H  H2613  1  0.050000  0.061600  0.971400  1.0
  H  H2614  1  0.083000  0.438400  0.528600  1.0
  H  H2615  1  0.950000  0.938400  0.028600  1.0
  H  H2616  1  0.917000  0.561600  0.471400  1.0
  H  H2617  1  0.743500  0.924700  0.640900  0.5
  H  H2618  1  0.309100  0.575300  0.859100  0.5
  H  H2619  1  0.256500  0.075300  0.359100  0.5
  H  H2620  1  0.690900  0.424700  0.140900  0.5
  H  H2621  1  0.811600  0.921700  0.605100  0.5
  H  H2622  1  0.338400  0.578300  0.894900  0.5
  H  H2623  1  0.188400  0.078300  0.394900  0.5
  H  H2624  1  0.661600  0.421700  0.105100  0.5
  H  H2625  1  0.861000  0.951900  0.604900  0.5
  H  H2626  1  0.417800  0.548100  0.895100  0.5
  H  H2627  1  0.139000  0.048100  0.395100  0.5
  H  H2628  1  0.582200  0.451900  0.104900  0.5
  H  H2629  1  0.844700  0.983500  0.640900  0.5
  H  H2630  1  0.469100  0.516500  0.859100  0.5
  H  H2631  1  0.155300  0.016500  0.359100  0.5
  H  H2632  1  0.530900  0.483500  0.140900  0.5
  H  H2633  1  0.723400  0.038800  0.724600  0.5
  H  H2634  1  0.486800  0.461200  0.775400  0.5
  H  H2635  1  0.276600  0.961200  0.275400  0.5
  H  H2636  1  0.513200  0.538800  0.224600  0.5
  H  H2637  1  0.646700  0.050200  0.754200  0.5
  H  H2638  1  0.451100  0.449800  0.745800  0.5
  H  H2639  1  0.353300  0.949800  0.245800  0.5
  H  H2640  1  0.548900  0.550200  0.254200  0.5
  H  H2641  1  0.595000  0.022300  0.752300  0.5
  H  H2642  1  0.369600  0.477700  0.747700  0.5
  H  H2643  1  0.405000  0.977700  0.247700  0.5
  H  H2644  1  0.630400  0.522300  0.252300  0.5
  H  H2645  1  0.621100  0.983200  0.720400  0.5
  H  H2646  1  0.324700  0.516800  0.779600  0.5
  H  H2647  1  0.378900  0.016800  0.279600  0.5
  H  H2648  1  0.675300  0.483200  0.220400  0.5
  H  H2649  1  0.759600  0.896400  0.681200  0.5
  H  H2650  1  0.337200  0.603600  0.818800  0.5
  H  H2651  1  0.240400  0.103600  0.318800  0.5
  H  H2652  1  0.662800  0.396400  0.181200  0.5
  H  H2653  1  0.837700  0.870400  0.683800  0.5
  H  H2654  1  0.391900  0.629600  0.816200  0.5
  H  H2655  1  0.162300  0.129600  0.316200  0.5
  H  H2656  1  0.608100  0.370400  0.183800  0.5
  H  H2657  1  0.888400  0.899500  0.685900  0.5
  H  H2658  1  0.473800  0.600500  0.814100  0.5
  H  H2659  1  0.111600  0.100500  0.314100  0.5
  H  H2660  1  0.526200  0.399500  0.185900  0.5
  H  H2661  1  0.861200  0.954400  0.683800  0.5
  H  H2662  1  0.499400  0.545600  0.816200  0.5
  H  H2663  1  0.138800  0.045600  0.316200  0.5
  H  H2664  1  0.500600  0.454400  0.183800  0.5
  H  H2665  1  0.730400  0.056300  0.676500  0.5
  H  H2666  1  0.463200  0.443700  0.823500  0.5
  H  H2667  1  0.269600  0.943700  0.323500  0.5
  H  H2668  1  0.536800  0.556300  0.176500  0.5
  H  H2669  1  0.652000  0.083400  0.674400  0.5
  H  H2670  1  0.409800  0.416600  0.825600  0.5
  H  H2671  1  0.348000  0.916600  0.325600  0.5
  H  H2672  1  0.590200  0.583400  0.174400  0.5
  H  H2673  1  0.600100  0.054700  0.673100  0.5
  H  H2674  1  0.327900  0.445300  0.826900  0.5
  H  H2675  1  0.399900  0.945300  0.326900  0.5
  H  H2676  1  0.672100  0.554700  0.173100  0.5
  H  H2677  1  0.626500  0.999800  0.674400  0.5
  H  H2678  1  0.300700  0.500200  0.825600  0.5
  H  H2679  1  0.373500  0.000200  0.325600  0.5
  H  H2680  1  0.699300  0.499800  0.174400  0.5
  N  N2681  1  0.648400  0.842500  0.655700  1.0
  N  N2682  1  0.146600  0.657500  0.844300  1.0
  N  N2683  1  0.351600  0.157500  0.344300  1.0
  N  N2684  1  0.853400  0.342500  0.155700  1.0
  N  N2685  1  0.065500  0.657700  0.518100  1.0
  N  N2686  1  0.241300  0.842300  0.981900  1.0
  N  N2687  1  0.934500  0.342300  0.481900  1.0
  N  N2688  1  0.758700  0.157700  0.018100  1.0
  N  N2689  1  0.155000  0.611900  0.491100  1.0
  N  N2690  1  0.258000  0.888100  0.008900  1.0
  N  N2691  1  0.845000  0.388100  0.508900  1.0
  N  N2692  1  0.742000  0.111900  0.991100  1.0
  N  N2693  1  0.518200  0.895200  0.711400  1.0
  N  N2694  1  0.124800  0.604800  0.788600  1.0
  N  N2695  1  0.481800  0.104800  0.288600  1.0
  N  N2696  1  0.875200  0.395200  0.211400  1.0
  N  N2697  1  0.146900  0.070500  0.894700  1.0
  N  N2698  1  0.112100  0.429500  0.605300  1.0
  N  N2699  1  0.853100  0.929500  0.105300  1.0
  N  N2700  1  0.887900  0.570500  0.394700  1.0
  N  N2701  1  0.067000  0.113500  0.930500  1.0
  N  N2702  1  0.111000  0.386500  0.569500  1.0
  N  N2703  1  0.933000  0.886500  0.069500  1.0
  N  N2704  1  0.889000  0.613500  0.430500  1.0
  N  N2705  1  0.549900  0.831300  0.682300  1.0
  N  N2706  1  0.063500  0.668700  0.817700  1.0
  N  N2707  1  0.450100  0.168700  0.317700  1.0
  N  N2708  1  0.936500  0.331300  0.182300  1.0
  N  N2709  1  0.388700  0.599500  0.670500  1.0
  N  N2710  1  0.658700  0.900500  0.829500  1.0
  N  N2711  1  0.611300  0.400500  0.329500  1.0
  N  N2712  1  0.341300  0.099500  0.170500  1.0
  N  N2713  1  0.353100  0.550400  0.668400  1.0
  N  N2714  1  0.571900  0.949600  0.831600  1.0
  N  N2715  1  0.646900  0.449600  0.331600  1.0
  N  N2716  1  0.428100  0.050400  0.168400  1.0
  N  N2717  1  0.708600  0.761200  0.391600  1.0
  N  N2718  1  0.861400  0.738800  0.108400  1.0
  N  N2719  1  0.291400  0.238800  0.608400  1.0
  N  N2720  1  0.138600  0.261200  0.891600  1.0
  N  N2721  1  0.129200  0.679200  0.446000  1.0
  N  N2722  1  0.254400  0.820800  0.054000  1.0
  N  N2723  1  0.870800  0.320800  0.554000  1.0
  N  N2724  1  0.745600  0.179200  0.946000  1.0
  N  N2725  1  0.217600  0.663800  0.457800  1.0
  N  N2726  1  0.339200  0.836200  0.042200  1.0
  N  N2727  1  0.782400  0.336200  0.542200  1.0
  N  N2728  1  0.660800  0.163800  0.957800  1.0
  N  N2729  1  0.615000  0.755100  0.415700  1.0
  N  N2730  1  0.785800  0.744900  0.084300  1.0
  N  N2731  1  0.385000  0.244900  0.584300  1.0
  N  N2732  1  0.214200  0.255100  0.915700  1.0
  N  N2733  1  0.500900  0.561100  0.613300  1.0
  N  N2734  1  0.675300  0.938900  0.886700  1.0
  N  N2735  1  0.499100  0.438900  0.386700  1.0
  N  N2736  1  0.324700  0.061100  0.113300  1.0
  N  N2737  1  0.478100  0.516000  0.653000  1.0
  N  N2738  1  0.647100  0.984000  0.847000  1.0
  N  N2739  1  0.521900  0.484000  0.347000  1.0
  N  N2740  1  0.352900  0.016000  0.153000  1.0
  N  N2741  1  0.189200  0.903100  0.596300  1.0
  N  N2742  1  0.688600  0.596900  0.903700  1.0
  N  N2743  1  0.810800  0.096900  0.403700  1.0
  N  N2744  1  0.311400  0.403100  0.096300  1.0
  N  N2745  1  0.375800  0.592900  0.607500  1.0
  N  N2746  1  0.576200  0.907100  0.892500  1.0
  N  N2747  1  0.624200  0.407100  0.392500  1.0
  N  N2748  1  0.423800  0.092900  0.107500  1.0
  N  N2749  1  0.413400  0.524500  0.604700  1.0
  N  N2750  1  0.542600  0.975500  0.895300  1.0
  N  N2751  1  0.586600  0.475500  0.395300  1.0
  N  N2752  1  0.457400  0.024500  0.104700  1.0
  N  N2753  1  0.871900  0.992400  0.414000  1.0
  N  N2754  1  0.278300  0.507600  0.086000  1.0
  N  N2755  1  0.128100  0.007600  0.586000  1.0
  N  N2756  1  0.721700  0.492400  0.914000  1.0
  N  N2757  1  0.115100  0.723100  0.509100  1.0
  N  N2758  1  0.347300  0.776900  0.990900  1.0
  N  N2759  1  0.884900  0.276900  0.490900  1.0
  N  N2760  1  0.652700  0.223100  0.009100  1.0
  N  N2761  1  0.165100  0.664900  0.531300  1.0
  N  N2762  1  0.361300  0.835100  0.968700  1.0
  N  N2763  1  0.834900  0.335100  0.468700  1.0
  N  N2764  1  0.638700  0.164900  0.031300  1.0
  N  N2765  1  0.324300  0.198300  0.654900  1.0
  N  N2766  1  0.177500  0.301700  0.845100  1.0
  N  N2767  1  0.675700  0.801700  0.345100  1.0
  N  N2768  1  0.822500  0.698300  0.154900  1.0
  N  N2769  1  0.038700  0.105900  0.868300  1.0
  N  N2770  1  0.012900  0.394100  0.631700  1.0
  N  N2771  1  0.961300  0.894100  0.131700  1.0
  N  N2772  1  0.987100  0.605900  0.368300  1.0
  N  N2773  1  0.976400  0.085800  0.913400  1.0
  N  N2774  1  0.975600  0.414200  0.586600  1.0
  N  N2775  1  0.023600  0.914200  0.086600  1.0
  N  N2776  1  0.024400  0.585800  0.413400  1.0
  N  N2777  1  0.614800  0.901800  0.685200  1.0
  N  N2778  1  0.201800  0.598200  0.814800  1.0
  N  N2779  1  0.385200  0.098200  0.314800  1.0
  N  N2780  1  0.798200  0.401800  0.185200  1.0
  N  N2781  1  0.905400  0.058400  0.694400  1.0
  N  N2782  1  0.658200  0.441600  0.805600  1.0
  N  N2783  1  0.094600  0.941600  0.305600  1.0
  N  N2784  1  0.341800  0.558400  0.194400  1.0
  N  N2785  1  0.970500  0.093000  0.692400  1.0
  N  N2786  1  0.755900  0.407000  0.807600  1.0
  N  N2787  1  0.029500  0.907000  0.307600  1.0
  N  N2788  1  0.244100  0.593000  0.192400  1.0
  N  N2789  1  0.842100  0.051400  0.447000  1.0
  N  N2790  1  0.340500  0.448600  0.053000  1.0
  N  N2791  1  0.157900  0.948600  0.553000  1.0
  N  N2792  1  0.659500  0.551400  0.947000  1.0
  N  N2793  1  0.874000  0.135100  0.670100  1.0
  N  N2794  1  0.679200  0.364900  0.829900  1.0
  N  N2795  1  0.126000  0.864900  0.329900  1.0
  N  N2796  1  0.320800  0.635100  0.170100  1.0
  N  N2797  1  0.879100  0.159800  0.715800  1.0
  N  N2798  1  0.754700  0.340200  0.784200  1.0
  N  N2799  1  0.120900  0.840200  0.284200  1.0
  N  N2800  1  0.245300  0.659800  0.215800  1.0
  N  N2801  1  0.423300  0.208200  0.633400  1.0
  N  N2802  1  0.264900  0.291800  0.866600  1.0
  N  N2803  1  0.576700  0.791800  0.366600  1.0
  N  N2804  1  0.735100  0.708200  0.133400  1.0
  N  N2805  1  0.795900  0.119700  0.736900  1.0
  N  N2806  1  0.652500  0.380300  0.763100  1.0
  N  N2807  1  0.204100  0.880300  0.263100  1.0
  N  N2808  1  0.347500  0.619700  0.236900  1.0
  N  N2809  1  0.875500  0.093200  0.758000  1.0
  N  N2810  1  0.726700  0.406800  0.742000  1.0
  N  N2811  1  0.124500  0.906800  0.242000  1.0
  N  N2812  1  0.273300  0.593200  0.258000  1.0
  N  N2813  1  0.157100  0.961600  0.632800  1.0
  N  N2814  1  0.751500  0.538400  0.867200  1.0
  N  N2815  1  0.842900  0.038400  0.367200  1.0
  N  N2816  1  0.248500  0.461600  0.132800  1.0
  N  N2817  1  0.090000  0.016700  0.885500  1.0
  N  N2818  1  0.992200  0.483300  0.614500  1.0
  N  N2819  1  0.910000  0.983300  0.114500  1.0
  N  N2820  1  0.007800  0.516700  0.385500  1.0
  N  N2821  1  0.068000  0.032400  0.941000  1.0
  N  N2822  1  0.041400  0.467600  0.559000  1.0
  N  N2823  1  0.932000  0.967600  0.059000  1.0
  N  N2824  1  0.958600  0.532400  0.441000  1.0
  O  O2825  1  0.789800  0.650600  0.370600  1.0
  O  O2826  1  0.811000  0.849400  0.129400  1.0
  O  O2827  1  0.210200  0.349400  0.629400  1.0
  O  O2828  1  0.189000  0.150600  0.870600  1.0
  O  O2829  1  0.705300  0.672900  0.366500  1.0
  O  O2830  1  0.744700  0.827100  0.133500  1.0
  O  O2831  1  0.294700  0.327100  0.633500  1.0
  O  O2832  1  0.255300  0.172900  0.866500  1.0
  O  O2833  1  0.730300  0.624200  0.393200  1.0
  O  O2834  1  0.747700  0.875800  0.106800  1.0
  O  O2835  1  0.269700  0.375800  0.606800  1.0
  O  O2836  1  0.252300  0.124200  0.893200  1.0
  O  O2837  1  0.009800  0.987000  0.651000  0.5
  O  O2838  1  0.647800  0.513000  0.849000  0.5
  O  O2839  1  0.990200  0.013000  0.349000  0.5
  O  O2840  1  0.352200  0.487000  0.151000  0.5
  O  O2841  1  0.958300  0.966800  0.634600  0.5
  O  O2842  1  0.559700  0.533200  0.865400  0.5
  O  O2843  1  0.041700  0.033200  0.365400  0.5
  O  O2844  1  0.440300  0.466800  0.134600  0.5
  O  O2845  1  0.044300  0.937100  0.626700  0.5
  O  O2846  1  0.608100  0.562900  0.873300  0.5
  O  O2847  1  0.955700  0.062900  0.373300  0.5
  O  O2848  1  0.391900  0.437100  0.126700  0.5
  O  O2849  1  0.203100  0.722700  0.359900  0.5
  O  O2850  1  0.285700  0.777300  0.140100  0.5
  O  O2851  1  0.796900  0.277300  0.640100  0.5
  O  O2852  1  0.714300  0.222700  0.859900  0.5
  O  O2853  1  0.182700  0.745300  0.404100  0.5
  O  O2854  1  0.332100  0.754700  0.095900  0.5
  O  O2855  1  0.817300  0.254700  0.595900  0.5
  O  O2856  1  0.667900  0.245300  0.904100  0.5
  O  O2857  1  0.135600  0.772700  0.374100  0.5
  O  O2858  1  0.282400  0.727300  0.125900  0.5
  O  O2859  1  0.864400  0.227300  0.625900  0.5
  O  O2860  1  0.717600  0.272700  0.874100  0.5
  O  O2861  1  0.971200  0.591300  0.488900  0.5
  O  O2862  1  0.051400  0.908700  0.011100  0.5
  O  O2863  1  0.028800  0.408700  0.511100  0.5
  O  O2864  1  0.948600  0.091300  0.988900  0.5
  O  O2865  1  0.003800  0.597700  0.524100  0.5
  O  O2866  1  0.125600  0.902300  0.975900  0.5
  O  O2867  1  0.996200  0.402300  0.475900  0.5
  O  O2868  1  0.874400  0.097700  0.024100  0.5
  O  O2869  1  0.946900  0.643600  0.507600  0.5
  O  O2870  1  0.098100  0.856400  0.992400  0.5
  O  O2871  1  0.053100  0.356400  0.492400  0.5
  O  O2872  1  0.901900  0.143600  0.007600  0.5
  O  O2873  1  0.627800  0.821000  0.738200  0.5
  O  O2874  1  0.187000  0.679000  0.761800  0.5
  O  O2875  1  0.372200  0.179000  0.261800  0.5
  O  O2876  1  0.813000  0.321000  0.238200  0.5
  O  O2877  1  0.639600  0.859800  0.761600  0.5
  O  O2878  1  0.261000  0.640200  0.738400  0.5
  O  O2879  1  0.360400  0.140200  0.238400  0.5
  O  O2880  1  0.739000  0.359800  0.261600  0.5
  O  O2881  1  0.673300  0.804400  0.770400  0.5
  O  O2882  1  0.248100  0.695600  0.729600  0.5
  O  O2883  1  0.326700  0.195600  0.229600  0.5
  O  O2884  1  0.751900  0.304400  0.270400  0.5
  Pt  Pt2885  1  0.580120  0.868800  0.682560  1.0
  Pt  Pt2886  1  0.131480  0.631200  0.817440  1.0
  Pt  Pt2887  1  0.419880  0.131200  0.317440  1.0
  Pt  Pt2888  1  0.868520  0.368800  0.182560  1.0
  Pt  Pt2889  1  0.641810  0.779630  0.380170  1.0
  Pt  Pt2890  1  0.801610  0.720370  0.119830  1.0
  Pt  Pt2891  1  0.358190  0.220370  0.619830  1.0
  Pt  Pt2892  1  0.198390  0.279630  0.880170  1.0
  Pt  Pt2893  1  0.840070  0.044880  0.407800  1.0
  Pt  Pt2894  1  0.292750  0.455120  0.092200  1.0
  Pt  Pt2895  1  0.159930  0.955120  0.592200  1.0
  Pt  Pt2896  1  0.707250  0.544880  0.907800  1.0
  S  S2897  1  0.742800  0.647300  0.372300  1.0
  S  S2898  1  0.762400  0.852700  0.127700  1.0
  S  S2899  1  0.257200  0.352700  0.627700  1.0
  S  S2900  1  0.237600  0.147300  0.872300  1.0
  S  S2901  1  0.002800  0.961800  0.641200  0.5
  S  S2902  1  0.605800  0.538200  0.858800  0.5
  S  S2903  1  0.997200  0.038200  0.358800  0.5
  S  S2904  1  0.394200  0.461800  0.141200  0.5
  S  S2905  1  0.020800  0.955000  0.641200  0.5
  S  S2906  1  0.617000  0.545000  0.858800  0.5
  S  S2907  1  0.979200  0.045000  0.358800  0.5
  S  S2908  1  0.383000  0.455000  0.141200  0.5
  S  S2909  1  0.178000  0.750200  0.375800  0.5
  S  S2910  1  0.304000  0.749800  0.124200  0.5
  S  S2911  1  0.822000  0.249800  0.624200  0.5
  S  S2912  1  0.696000  0.250200  0.875800  0.5
  S  S2913  1  0.184200  0.770500  0.386900  0.5
  S  S2914  1  0.341600  0.729500  0.113100  0.5
  S  S2915  1  0.815800  0.229500  0.613100  0.5
  S  S2916  1  0.658400  0.270500  0.886900  0.5
  S  S2917  1  0.968600  0.608700  0.509100  0.5
  S  S2918  1  0.086400  0.891300  0.990900  0.5
  S  S2919  1  0.031400  0.391300  0.490900  0.5
  S  S2920  1  0.913600  0.108700  0.009100  0.5
  S  S2921  1  0.938700  0.614200  0.515800  0.5
  S  S2922  1  0.068700  0.885800  0.984200  0.5
  S  S2923  1  0.061300  0.385800  0.484200  0.5
  S  S2924  1  0.931300  0.114200  0.015800  0.5
  S  S2925  1  0.637100  0.828800  0.761400  0.5
  S  S2926  1  0.227300  0.671200  0.738600  0.5
  S  S2927  1  0.362900  0.171200  0.238600  0.5
  S  S2928  1  0.772700  0.328800  0.261400  0.5
