
#######################################################################
#
#                 Cambridge Crystallographic Data Centre
#                                CCDC 
#
#######################################################################
#
# If this CIF has been generated from an entry in the Cambridge 
# Structural Database, then it will include bibliographic, chemical, 
# crystal, experimental, refinement or atomic coordinate data resulting 
# from the CCDC's data processing and validation procedures.
#
#######################################################################

data_KUJGIH
_chemical_formula_moiety         
'C408 H312 Fe8 N72 Pd6 28+,28(B1 F4 1-),6(H2 O1)'
_chemical_name_systematic        
'tetracosakis(\m-1-(pyridin-2-yl)-N-(4-(pyridin-4-yl)phenyl)methanimine)-hexa-palladium-octa-iron octacosakis(tetrafluoroborate) unknown solvate hexahydrate'
_symmetry_cell_setting           rhombohedral
_symmetry_space_group_name_H-M   'R 3 2'
_symmetry_Int_Tables_number      155
_space_group_name_Hall           'R 3 2"'
loop_
_symmetry_equiv_pos_site_id
_symmetry_equiv_pos_as_xyz
1 x,y,z
2 -y,x-y,z
3 -x+y,-x,z
4 y,x,-z
5 -x,-x+y,-z
6 x-y,-y,-z
7 2/3+x,1/3+y,1/3+z
8 2/3-y,1/3+x-y,1/3+z
9 2/3-x+y,1/3-x,1/3+z
10 2/3+y,1/3+x,1/3-z
11 2/3-x,1/3-x+y,1/3-z
12 2/3+x-y,1/3-y,1/3-z
13 1/3+x,2/3+y,2/3+z
14 1/3-y,2/3+x-y,2/3+z
15 1/3-x+y,2/3-x,2/3+z
16 1/3+y,2/3+x,2/3-z
17 1/3-x,2/3-x+y,2/3-z
18 1/3+x-y,2/3-y,2/3-z
_cell_length_a                   28.293(3)
_cell_length_b                   28.293(3)
_cell_length_c                   123.58(2)
_cell_angle_alpha                90
_cell_angle_beta                 90
_cell_angle_gamma                120
_cell_volume                     85671.6
_exptl_crystal_colour            purple
_exptl_crystal_description       cube
_cell_formula_units_Z            6
_exptl_crystal_recrystallization_method 'acetonitrile/diethyl ether'
loop_
_atom_site_label
_atom_site_type_symbol
_atom_site_fract_x
_atom_site_fract_y
_atom_site_fract_z
Pd1 Pd 0.46165(5) 0.06992(5) 0.042239(14)
Pd2 Pd 0.40529(7) 0.28288(7) 0.12150(2)
Fe1 Fe 0.13486(8) 0.21440(9) 0.04367(3)
Fe2 Fe 0.6667 0.3333 -0.03595(4)
Fe3 Fe 0.23994(14) -0.18956(13) 0.11885(4)
Fe4 Fe 0.6667 0.3333 0.19880(6)
N1 N 0.2934(7) -0.1919(7) 0.10871(15)
N2 N 0.7662(5) -0.0403(5) 0.03367(14)
N3 N 0.5988(5) 0.3132(5) -0.02748(10)
N4 N 0.1444(5) 0.1583(5) 0.05092(11)
N5 N 0.1805(5) 0.2742(5) 0.05396(12)
N6 N 0.4319(5) 0.0196(5) 0.05494(9)
C1 C 0.4457(4) 0.0382(4) 0.06552(10)
H1 H 0.4710 0.0756 0.0669
C2 C 0.4226(4) 0.0020(4) 0.07410(8)
H2 H 0.4321 0.0146 0.0813
C3 C 0.3857(4) -0.0528(4) 0.07211(8)
C4 C 0.3719(5) -0.0713(4) 0.06153(9)
H3 H 0.3467 -0.1087 0.0602
C5 C 0.3950(5) -0.0351(5) 0.05295(7)
H4 H 0.3856 -0.0478 0.0457
C6 C 0.3620(5) -0.0924(4) 0.08161(8)
C7 C 0.3117(5) -0.1400(5) 0.08070(8)
H5 H 0.2929 -0.1494 0.0740
C8 C 0.2890(4) -0.1738(4) 0.08963(10)
H6 H 0.2547 -0.2064 0.0890
C9 C 0.3165(5) -0.1601(5) 0.09946(9)
C10 C 0.3667(5) -0.1125(5) 0.10038(8)
H7 H 0.3855 -0.1031 0.1071
C11 C 0.3895(4) -0.0786(4) 0.09145(10)
H8 H 0.4238 -0.0461 0.0921
C12 C 0.2927(9) -0.2406(10) 0.11014(19)
H9 H 0.3101 -0.2522 0.1051
N7 N 0.2398(8) -0.2529(6) 0.12586(18)
C13 C 0.2657(7) -0.2727(8) 0.11922(13)
C14 C 0.2679(8) -0.3188(9) 0.12226(16)
H10 H 0.2856 -0.3324 0.1177
C15 C 0.2443(8) -0.3452(7) 0.13193(18)
H11 H 0.2459 -0.3767 0.1340
C16 C 0.2185(8) -0.3254(9) 0.13856(13)
H12 H 0.2023 -0.3434 0.1452
C17 C 0.2162(8) -0.2792(9) 0.13553(16)
H13 H 0.1985 -0.2657 0.1401
N8 N 0.5195(4) 0.0491(4) 0.04100(9)
C18 C 0.5682(4) 0.0774(4) 0.04670(8)
H14 H 0.5742 0.1068 0.0513
C19 C 0.6080(4) 0.0627(4) 0.04567(9)
H15 H 0.6413 0.0820 0.0496
C20 C 0.5992(4) 0.0196(4) 0.03894(9)
C21 C 0.5505(4) -0.0087(4) 0.03324(8)
H16 H 0.5445 -0.0381 0.0286
C22 C 0.5107(4) 0.0060(4) 0.03427(9)
H17 H 0.4774 -0.0133 0.0304
C23 C 0.6436(4) 0.0043(4) 0.03752(9)
C24 C 0.6288(4) -0.0492(4) 0.03494(10)
H18 H 0.5914 -0.0760 0.0341
C25 C 0.6687(5) -0.0636(4) 0.03355(10)
H19 H 0.6586 -0.1002 0.0318
C26 C 0.7235(4) -0.0245(4) 0.03473(9)
C27 C 0.7384(4) 0.0290(4) 0.03730(9)
H20 H 0.7758 0.0557 0.0381
C28 C 0.6984(4) 0.0434(4) 0.03870(9)
H21 H 0.7085 0.0799 0.0405
C29 C 0.7867(9) -0.0250(9) 0.0250(2)
H22 H 0.7749 -0.0082 0.0199
N9 N 0.8372(4) -0.0658(4) 0.03175(9)
C30 C 0.8357(4) -0.0358(5) 0.02298(11)
C31 C 0.8702(6) -0.0258(5) 0.01420(9)
H23 H 0.8692 -0.0053 0.0082
C32 C 0.9062(5) -0.0458(6) 0.01419(9)
H24 H 0.9297 -0.0390 0.0082
C33 C 0.9077(4) -0.0758(5) 0.02296(11)
H25 H 0.9322 -0.0895 0.0230
C34 C 0.8732(5) -0.0858(4) 0.03174(9)
H26 H 0.8742 -0.1063 0.0377
N10 N 0.4907(4) 0.1184(4) 0.02908(8)
C35 C 0.4680(4) 0.0978(3) 0.01900(9)
H27 H 0.4389 0.0612 0.0183
C36 C 0.4879(4) 0.1306(4) 0.00986(7)
H28 H 0.4724 0.1165 0.0030
C37 C 0.5305(4) 0.1841(4) 0.01081(7)
C38 C 0.5533(4) 0.2047(3) 0.02090(8)
H29 H 0.5824 0.2412 0.0215
C39 C 0.5334(4) 0.1718(4) 0.03003(6)
H30 H 0.5489 0.1859 0.0369
C40 C 0.5470(4) 0.2193(4) 0.00064(7)
C41 C 0.5704(4) 0.2757(4) 0.00130(7)
H31 H 0.5752 0.2927 0.0082
C42 C 0.5868(4) 0.3071(3) -0.00806(8)
H32 H 0.6029 0.3456 -0.0076
C43 C 0.5799(4) 0.2821(4) -0.01809(7)
C44 C 0.5564(4) 0.2258(4) -0.01875(7)
H33 H 0.5517 0.2087 -0.0256
C45 C 0.5400(4) 0.1944(3) -0.00938(8)
H34 H 0.5240 0.1558 -0.0098
C46 C 0.5741(7) 0.3374(7) -0.03134(14)
H35 H 0.5425 0.3331 -0.0277
N11 N 0.6398(4) 0.3742(4) -0.04435(9)
C47 C 0.5914(4) 0.3683(4) -0.04021(8)
C48 C 0.5664(4) 0.3940(5) -0.04526(10)
H36 H 0.5334 0.3900 -0.0424
C49 C 0.5898(5) 0.4256(5) -0.05444(10)
H37 H 0.5727 0.4431 -0.0579
C50 C 0.6381(5) 0.4315(5) -0.05858(8)
H38 H 0.6541 0.4531 -0.0649
C51 C 0.6631(4) 0.4058(5) -0.05353(10)
H39 H 0.6962 0.4098 -0.0564
N12 N 0.4014(4) 0.0892(4) 0.04334(8)
C52 C 0.4110(3) 0.1362(4) 0.04879(8)
H40 H 0.4458 0.1596 0.0519
C53 C 0.3696(4) 0.1488(3) 0.04974(7)
H41 H 0.3761 0.1809 0.0535
C54 C 0.3186(3) 0.1145(4) 0.04524(7)
C55 C 0.3090(3) 0.0675(4) 0.03979(7)
H42 H 0.2742 0.0441 0.0367
C56 C 0.3504(4) 0.0549(4) 0.03884(8)
H43 H 0.3439 0.0228 0.0351
C57 C 0.2725(3) 0.1266(4) 0.04685(7)
C58 C 0.2714(3) 0.1551(4) 0.05592(7)
H44 H 0.2999 0.1677 0.0611
C59 C 0.2284(4) 0.1651(4) 0.05740(6)
H45 H 0.2277 0.1845 0.0636
C60 C 0.1867(3) 0.1466(4) 0.04981(7)
C61 C 0.1878(3) 0.1181(4) 0.04074(7)
H46 H 0.1593 0.1055 0.0356
C62 C 0.2307(4) 0.1081(4) 0.03926(6)
H47 H 0.2315 0.0886 0.0331
C63 C 0.1088(7) 0.1286(7) 0.05815(15)
H48 H 0.1116 0.1020 0.0624
N13 N 0.0695(4) 0.1842(5) 0.05317(8)
C64 C 0.0624(4) 0.1399(5) 0.05931(10)
C65 C 0.0192(5) 0.1152(4) 0.06655(9)
H49 H 0.0143 0.0849 0.0707
C66 C -0.0170(4) 0.1346(5) 0.06765(8)
H50 H -0.0465 0.1177 0.0726
C67 C -0.0099(4) 0.1789(5) 0.06151(10)
H51 H -0.0346 0.1922 0.0623
C68 C 0.0334(5) 0.2037(4) 0.05427(9)
H52 H 0.0382 0.2339 0.0501
N14 N 0.3779(6) 0.2017(5) 0.11968(11)
C69 C 0.3249(6) 0.1672(6) 0.12322(11)
H53 H 0.3057 0.1817 0.1270
C70 C 0.2999(5) 0.1114(6) 0.12126(11)
H54 H 0.2637 0.0878 0.1237
C71 C 0.3280(5) 0.0902(5) 0.11576(11)
C72 C 0.3811(5) 0.1247(6) 0.11222(12)
H55 H 0.4003 0.1102 0.1085
C73 C 0.4060(5) 0.1805(6) 0.11418(12)
H56 H 0.4423 0.2041 0.1118
C74 C 0.3024(5) 0.0323(5) 0.11383(10)
C75 C 0.2627(6) -0.0032(6) 0.12102(10)
H57 H 0.2520 0.0109 0.1269
C76 C 0.2385(5) -0.0592(5) 0.11956(10)
H58 H 0.2114 -0.0835 0.1245
C77 C 0.2541(5) -0.0798(5) 0.11091(10)
C78 C 0.2938(5) -0.0443(5) 0.10372(9)
H59 H 0.3045 -0.0584 0.0978
C79 C 0.3180(5) 0.0117(5) 0.10518(10)
H60 H 0.3451 0.0360 0.1003
N15 N 0.1698(5) -0.2462(5) 0.10971(9)
C80 C 0.1414(6) -0.3015(5) 0.10937(13)
H61 H 0.1428 -0.3215 0.1154
C81 C 0.1104(6) -0.3298(5) 0.10047(15)
H62 H 0.0916 -0.3685 0.1004
C82 C 0.1069(6) -0.3013(7) 0.09170(13)
H63 H 0.0856 -0.3202 0.0856
C83 C 0.1348(6) -0.2448(7) 0.09199(10)
H64 H 0.1324 -0.2243 0.0861
C84 C 0.1663(4) -0.2190(5) 0.10095(9)
C85 C 0.1997(6) -0.1584(5) 0.10132(11)
H65 H 0.1982 -0.1372 0.0955
N16 N 0.2300(5) -0.1351(5) 0.10939(13)
N17 N 0.3622(5) 0.2785(5) 0.10877(10)
C86 C 0.3814(4) 0.2792(5) 0.09839(11)
H66 H 0.4157 0.2813 0.0974
C87 C 0.3505(4) 0.2769(5) 0.08946(9)
H67 H 0.3636 0.2774 0.0824
C88 C 0.3003(4) 0.2739(4) 0.09091(8)
C89 C 0.2811(4) 0.2731(5) 0.10129(9)
H68 H 0.2468 0.2711 0.1023
C90 C 0.3121(5) 0.2755(5) 0.11023(8)
H69 H 0.2989 0.2750 0.1173
C91 C 0.2682(4) 0.2742(4) 0.08071(8)
C92 C 0.2951(3) 0.3006(4) 0.07127(9)
H70 H 0.3338 0.3190 0.0710
C93 C 0.2654(4) 0.3002(4) 0.06228(8)
H71 H 0.2838 0.3183 0.0558
C94 C 0.2087(4) 0.2733(4) 0.06273(7)
C95 C 0.1818(3) 0.2469(4) 0.07217(8)
H72 H 0.1431 0.2285 0.0725
C96 C 0.2115(4) 0.2473(4) 0.08117(7)
H73 H 0.1931 0.2293 0.0876
C97 C 0.1745(8) 0.3145(10) 0.05312(17)
H74 H 0.1883 0.3422 0.0585
N18 N 0.1186(5) 0.2699(4) 0.03781(11)
C98 C 0.1456(5) 0.3186(6) 0.04356(9)
C99 C 0.1441(6) 0.3643(4) 0.03991(13)
H75 H 0.1625 0.3976 0.0438
C100 C 0.1157(7) 0.3614(6) 0.03052(14)
H76 H 0.1147 0.3927 0.0280
C101 C 0.0888(6) 0.3127(7) 0.02477(10)
H77 H 0.0694 0.3107 0.0184
C102 C 0.0902(5) 0.2670(5) 0.02842(10)
H78 H 0.0718 0.2337 0.0245
N19 N 0.4461(7) 0.2810(6) 0.13488(12)
C103 C 0.5008(7) 0.2957(6) 0.13415(10)
H79 H 0.5197 0.3084 0.1275
C104 C 0.5279(5) 0.2918(6) 0.14319(11)
H80 H 0.5653 0.3019 0.1427
C105 C 0.5003(5) 0.2733(6) 0.15296(10)
C106 C 0.4457(5) 0.2586(7) 0.15369(11)
H81 H 0.4268 0.2459 0.1604
C107 C 0.4185(5) 0.2625(7) 0.14465(14)
H82 H 0.3812 0.2524 0.1452
C108 C 0.5728(4) 0.2615(4) 0.16140(8)
H83 H 0.5860 0.2603 0.1544
C109 C 0.5982(4) 0.2557(4) 0.17053(8)
H84 H 0.6287 0.2505 0.1698
C110 C 0.5789(5) 0.2576(4) 0.18077(8)
C111 C 0.5343(5) 0.2652(5) 0.18189(7)
H85 H 0.5211 0.2664 0.1889
C112 C 0.5089(4) 0.2709(4) 0.17276(7)
H86 H 0.4784 0.2761 0.1735
C113 C 0.5282(3) 0.2691(3) 0.16251(7)
N20 N 0.4376(5) 0.3656(5) 0.12316(8)
C114 C 0.4820(5) 0.4014(6) 0.11689(7)
H87 H 0.4986 0.3876 0.1121
C115 C 0.5022(5) 0.4573(5) 0.11760(8)
H88 H 0.5325 0.4817 0.1133
C116 C 0.4779(6) 0.4774(5) 0.12459(9)
C117 C 0.4335(5) 0.4416(6) 0.13086(9)
H89 H 0.4169 0.4554 0.1356
C118 C 0.4133(4) 0.3857(5) 0.13014(9)
H90 H 0.3830 0.3613 0.1344
C119 C 0.5023(5) 0.5385(5) 0.12567(11)
C120 C 0.5587(5) 0.5718(6) 0.12595(12)
H91 H 0.5815 0.5561 0.1254
C121 C 0.5817(4) 0.6280(6) 0.12697(12)
H92 H 0.6203 0.6507 0.1272
C122 C 0.5484(5) 0.6509(5) 0.12771(12)
C123 C 0.4920(5) 0.6176(6) 0.12743(11)
H93 H 0.4692 0.6333 0.1279
C124 C 0.4689(4) 0.5614(6) 0.12641(11)
H94 H 0.4304 0.5387 0.1262
N21 N 0.6777(5) 0.2808(4) 0.20788(8)
C125 C 0.7128(5) 0.2894(5) 0.21608(9)
H95 H 0.7343 0.3252 0.2189
C126 C 0.7185(5) 0.2474(5) 0.22050(10)
H96 H 0.7441 0.2548 0.2261
C127 C 0.6866(5) 0.1948(5) 0.21665(9)
H97 H 0.6900 0.1656 0.2196
C128 C 0.6498(5) 0.1852(5) 0.20840(9)
H98 H 0.6269 0.1493 0.2057
C129 C 0.6471(4) 0.2288(4) 0.20413(8)
C130 C 0.6106(5) 0.2208(4) 0.19482(9)
H99 H 0.5877 0.1853 0.1920
N22 N 0.6099(4) 0.2614(4) 0.19069(8)
N23 N 0.6200(4) 0.8176(5) 0.12852(9)
C131 C 0.6469(5) 0.8729(5) 0.12865(10)
H100 H 0.6417 0.8917 0.1228
C132 C 0.6816(5) 0.9027(4) 0.13702(11)
H101 H 0.7006 0.9415 0.1368
C133 C 0.6885(6) 0.8758(4) 0.14569(10)
H102 H 0.7121 0.8958 0.1515
C134 C 0.6606(5) 0.8193(4) 0.14578(9)
H103 H 0.6640 0.7999 0.1517
C135 C 0.6278(4) 0.7919(4) 0.13708(8)
C136 C 0.5997(4) 0.7313(4) 0.13653(8)
H104 H 0.6031 0.7112 0.1423
N24 N 0.5714(5) 0.7066(5) 0.12833(9)
Pd1A Pd 0.93008(5) 0.39173(7) 0.042239(14)
Pd2A Pd 0.71712(7) 0.12241(10) 0.12150(2)
Fe1A Fe 0.78560(9) -0.07954(12) 0.04367(3)
Fe3A Fe 1.18956(13) 0.42950(19) 0.11885(4)
N1A N 1.1919(7) 0.4853(10) 0.10871(15)
N2A N 1.0403(5) 0.8065(7) 0.03367(14)
N3A N 0.6868(5) 0.2856(7) -0.02748(10)
N4A N 0.8417(5) -0.0139(7) 0.05092(11)
N5A N 0.7258(5) -0.0937(7) 0.05396(12)
N6A N 0.9804(5) 0.4123(7) 0.05494(9)
C1A C 0.9618(4) 0.4075(6) 0.06552(10)
H1A H 0.9244 0.3954 0.0669
C2A C 0.9980(4) 0.4206(6) 0.07410(8)
H2A H 0.9854 0.4175 0.0813
C3A C 1.0528(4) 0.4385(6) 0.07211(8)
C4A C 1.0713(4) 0.4432(6) 0.06153(9)
H3A H 1.1087 0.4554 0.0602
C5A C 1.0351(5) 0.4301(7) 0.05295(7)
H4A H 1.0478 0.4334 0.0457
C6A C 1.0924(4) 0.4544(6) 0.08161(8)
C7A C 1.1400(5) 0.4517(7) 0.08070(8)
H5A H 1.1494 0.4423 0.0740
C8A C 1.1738(4) 0.4628(6) 0.08963(10)
H6A H 1.2064 0.4611 0.0890
C9A C 1.1601(5) 0.4766(7) 0.09946(9)
C10A C 1.1125(5) 0.4792(7) 0.10038(8)
H7A H 1.1031 0.4886 0.1071
C11A C 1.0786(4) 0.4681(6) 0.09145(10)
H8A H 1.0461 0.4699 0.0921
C12A C 1.2406(10) 0.5333(13) 0.11014(19)
H9A H 1.2522 0.5623 0.1051
N7A N 1.2529(6) 0.4927(10) 0.12586(18)
C13A C 1.2727(8) 0.5384(11) 0.11922(13)
C14A C 1.3188(9) 0.5867(12) 0.12226(16)
H10A H 1.3324 0.6180 0.1177
C15A C 1.3452(7) 0.5895(11) 0.13193(18)
H11A H 1.3767 0.6226 0.1340
C16A C 1.3254(9) 0.5439(12) 0.13856(13)
H12A H 1.3434 0.5457 0.1452
C17A C 1.2792(9) 0.4954(12) 0.13553(16)
H13A H 1.2657 0.4642 0.1401
N8A N 0.9509(4) 0.4704(6) 0.04100(9)
C18A C 0.9226(4) 0.4908(6) 0.04670(8)
H14A H 0.8932 0.4674 0.0513
C19A C 0.9373(4) 0.5453(6) 0.04567(9)
H15A H 0.9180 0.5593 0.0496
C20A C 0.9804(4) 0.5796(6) 0.03894(9)
C21A C 1.0087(4) 0.5592(6) 0.03324(8)
H16A H 1.0381 0.5826 0.0286
C22A C 0.9940(4) 0.5047(6) 0.03427(9)
H17A H 1.0133 0.4907 0.0304
C23A C 0.9957(4) 0.6393(6) 0.03752(9)
C24A C 1.0492(4) 0.6780(6) 0.03494(10)
H18A H 1.0760 0.6674 0.0341
C25A C 1.0636(4) 0.7323(6) 0.03355(10)
H19A H 1.1002 0.7588 0.0318
C26A C 1.0245(4) 0.7480(6) 0.03473(9)
C27A C 0.9710(4) 0.7094(6) 0.03730(9)
H20A H 0.9443 0.7201 0.0381
C28A C 0.9566(4) 0.6550(6) 0.03870(9)
H21A H 0.9201 0.6286 0.0405
C29A C 1.0250(9) 0.8117(13) 0.0250(2)
H22A H 1.0082 0.7831 0.0199
N9A N 1.0658(4) 0.9030(6) 0.03175(9)
C30A C 1.0358(5) 0.8715(6) 0.02298(11)
C31A C 1.0258(5) 0.8960(8) 0.01420(9)
H23A H 1.0053 0.8745 0.0082
C32A C 1.0458(6) 0.9520(8) 0.01419(9)
H24A H 1.0390 0.9687 0.0082
C33A C 1.0758(5) 0.9835(6) 0.02296(11)
H25A H 1.0895 1.0217 0.0230
C34A C 1.0858(4) 0.9590(6) 0.03174(9)
H26A H 1.1063 0.9805 0.0377
N10A N 0.8816(4) 0.3723(6) 0.02908(8)
C35A C 0.9022(3) 0.3702(5) 0.01900(9)
H27A H 0.9388 0.3777 0.0183
C36A C 0.8694(4) 0.3573(6) 0.00986(7)
H28A H 0.8835 0.3559 0.0030
C37A C 0.8159(4) 0.3464(6) 0.01081(7)
C38A C 0.7953(3) 0.3486(5) 0.02090(8)
H29A H 0.7588 0.3412 0.0215
C39A C 0.8282(4) 0.3616(6) 0.03003(6)
H30A H 0.8141 0.3630 0.0369
C40A C 0.7807(4) 0.3277(6) 0.00064(7)
C41A C 0.7243(4) 0.2947(6) 0.00130(7)
H31A H 0.7073 0.2825 0.0082
C42A C 0.6929(3) 0.2797(5) -0.00806(8)
H32A H 0.6544 0.2573 -0.0076
C43A C 0.7179(4) 0.2978(6) -0.01809(7)
C44A C 0.7742(4) 0.3306(6) -0.01875(7)
H33A H 0.7913 0.3430 -0.0256
C45A C 0.8056(3) 0.3456(5) -0.00938(8)
H34A H 0.8442 0.3682 -0.0098
C46A C 0.6626(7) 0.2367(10) -0.03134(14)
H35A H 0.6669 0.2094 -0.0277
N11A N 0.6258(4) 0.2656(6) -0.04435(9)
C47A C 0.6317(4) 0.2231(6) -0.04021(8)
C48A C 0.6060(5) 0.1724(6) -0.04526(10)
H36A H 0.6100 0.1434 -0.0424
C49A C 0.5744(5) 0.1642(7) -0.05444(10)
H37A H 0.5569 0.1296 -0.0579
C50A C 0.5685(5) 0.2066(7) -0.05858(8)
H38A H 0.5469 0.2010 -0.0649
C51A C 0.5942(5) 0.2573(6) -0.05353(10)
H39A H 0.5902 0.2864 -0.0564
N12A N 0.9108(4) 0.3122(6) 0.04334(8)
C52A C 0.8638(4) 0.2748(5) 0.04879(8)
H40A H 0.8404 0.2862 0.0519
C53A C 0.8512(3) 0.2208(5) 0.04974(7)
H41A H 0.8191 0.1952 0.0535
C54A C 0.8855(4) 0.2041(5) 0.04524(7)
C55A C 0.9325(4) 0.2415(5) 0.03979(7)
H42A H 0.9559 0.2301 0.0367
C56A C 0.9451(4) 0.2955(6) 0.03884(8)
H43A H 0.9772 0.3211 0.0351
C57A C 0.8734(4) 0.1459(5) 0.04685(7)
C58A C 0.8449(4) 0.1163(5) 0.05592(7)
H44A H 0.8323 0.1322 0.0611
C59A C 0.8349(4) 0.0633(6) 0.05740(6)
H45A H 0.8155 0.0432 0.0636
C60A C 0.8534(4) 0.0401(5) 0.04981(7)
C61A C 0.8819(4) 0.0697(5) 0.04074(7)
H46A H 0.8945 0.0538 0.0356
C62A C 0.8919(4) 0.1226(6) 0.03926(6)
H47A H 0.9114 0.1429 0.0331
C63A C 0.8714(7) -0.0198(10) 0.05815(15)
H48A H 0.8980 0.0096 0.0624
N13A N 0.8158(5) -0.1147(6) 0.05317(8)
C64A C 0.8601(5) -0.0775(6) 0.05931(10)
C65A C 0.8848(4) -0.0960(6) 0.06655(9)
H49A H 0.9151 -0.0706 0.0707
C66A C 0.8654(5) -0.1516(6) 0.06765(8)
H50A H 0.8823 -0.1642 0.0726
C67A C 0.8211(5) -0.1888(6) 0.06151(10)
H51A H 0.8078 -0.2268 0.0623
C68A C 0.7963(4) -0.1703(6) 0.05427(9)
H52A H 0.7661 -0.1957 0.0501
N14A N 0.7983(5) 0.1762(8) 0.11968(11)
C69A C 0.8328(6) 0.1577(8) 0.12322(11)
H53A H 0.8183 0.1240 0.1270
C70A C 0.8886(6) 0.1885(8) 0.12126(11)
H54A H 0.9122 0.1759 0.1237
C71A C 0.9098(5) 0.2378(7) 0.11576(11)
C72A C 0.8753(6) 0.2564(8) 0.11222(12)
H55A H 0.8898 0.2901 0.1085
C73A C 0.8195(6) 0.2255(8) 0.11418(12)
H56A H 0.7959 0.2382 0.1118
C74A C 0.9677(5) 0.2701(7) 0.11383(10)
C75A C 1.0032(6) 0.2659(8) 0.12102(10)
H57A H 0.9891 0.2411 0.1269
C76A C 1.0592(5) 0.2977(7) 0.11956(10)
H58A H 1.0835 0.2949 0.1245
C77A C 1.0798(5) 0.3339(7) 0.11091(10)
C78A C 1.0443(5) 0.3381(7) 0.10372(9)
H59A H 1.0584 0.3629 0.0978
C79A C 0.9883(5) 0.3063(7) 0.10518(10)
H60A H 0.9640 0.3091 0.1003
N15A N 1.2462(5) 0.4160(7) 0.10971(9)
C80A C 1.3015(5) 0.4429(8) 0.10937(13)
H61A H 1.3215 0.4643 0.1154
C81A C 1.3298(5) 0.4402(8) 0.10047(15)
H62A H 1.3685 0.4601 0.1004
C82A C 1.3013(7) 0.4082(9) 0.09170(13)
H63A H 1.3202 0.4058 0.0856
C83A C 1.2448(7) 0.3796(9) 0.09199(10)
H64A H 1.2243 0.3567 0.0861
C84A C 1.2190(5) 0.3853(6) 0.10095(9)
C85A C 1.1584(5) 0.3581(8) 0.10132(11)
H65A H 1.1372 0.3354 0.0955
N16A N 1.1351(5) 0.3651(7) 0.10939(13)
N17A N 0.7215(5) 0.0837(7) 0.10877(10)
C86A C 0.7208(5) 0.1022(6) 0.09839(11)
H66A H 0.7187 0.1344 0.0974
C87A C 0.7231(5) 0.0736(6) 0.08946(9)
H67A H 0.7226 0.0862 0.0824
C88A C 0.7261(4) 0.0264(6) 0.09091(8)
C89A C 0.7269(5) 0.0080(6) 0.10129(9)
H68A H 0.7289 -0.0243 0.1023
C90A C 0.7245(5) 0.0366(7) 0.11023(8)
H69A H 0.7250 0.0239 0.1173
C91A C 0.7258(4) -0.0060(6) 0.08071(8)
C92A C 0.6994(4) -0.0055(5) 0.07127(9)
H70A H 0.6810 0.0148 0.0710
C93A C 0.6998(4) -0.0348(6) 0.06228(8)
H71A H 0.6817 -0.0345 0.0558
C94A C 0.7267(4) -0.0646(6) 0.06273(7)
C95A C 0.7531(4) -0.0651(5) 0.07217(8)
H72A H 0.7715 -0.0854 0.0725
C96A C 0.7527(4) -0.0358(6) 0.08117(7)
H73A H 0.7707 -0.0362 0.0876
C97A C 0.6855(10) -0.1400(13) 0.05312(17)
H74A H 0.6578 -0.1539 0.0585
N18A N 0.7301(4) -0.1513(6) 0.03781(11)
C98A C 0.6814(6) -0.1730(8) 0.04356(9)
C99A C 0.6357(4) -0.2202(7) 0.03991(13)
H75A H 0.6024 -0.2351 0.0438
C100A C 0.6386(6) -0.2457(9) 0.03052(14)
H76A H 0.6073 -0.2780 0.0280
C101A C 0.6873(7) -0.2239(9) 0.02477(10)
H77A H 0.6893 -0.2413 0.0184
C102A C 0.7330(5) -0.1768(7) 0.02842(10)
H78A H 0.7663 -0.1619 0.0245
N19A N 0.7190(6) 0.1651(9) 0.13488(12)
C103A C 0.7043(6) 0.2051(9) 0.13415(10)
H79A H 0.6916 0.2113 0.1275
C104A C 0.7082(6) 0.2361(8) 0.14319(11)
H80A H 0.6981 0.2634 0.1427
C105A C 0.7267(6) 0.2270(8) 0.15296(10)
C106A C 0.7414(7) 0.1871(9) 0.15369(11)
H81A H 0.7541 0.1809 0.1604
C107A C 0.7375(7) 0.1560(9) 0.14465(14)
H82A H 0.7476 0.1288 0.1452
C108A C 0.7385(4) 0.3113(6) 0.16140(8)
H83A H 0.7397 0.3257 0.1544
C109A C 0.7443(4) 0.3425(6) 0.17053(8)
H84A H 0.7495 0.3782 0.1698
C110A C 0.7424(4) 0.3213(6) 0.18077(8)
C111A C 0.7348(5) 0.2691(7) 0.18189(7)
H85A H 0.7336 0.2547 0.1889
C112A C 0.7291(4) 0.2380(6) 0.17276(7)
H86A H 0.7239 0.2023 0.1735
C113A C 0.7309(3) 0.2591(4) 0.16251(7)
N20A N 0.6344(5) 0.0720(7) 0.12316(8)
C114A C 0.5986(6) 0.0806(8) 0.11689(7)
H87A H 0.6124 0.1110 0.1121
C115A C 0.5427(5) 0.0449(7) 0.11760(8)
H88A H 0.5183 0.0508 0.1133
C116A C 0.5226(5) 0.0005(8) 0.12459(9)
C117A C 0.5584(6) -0.0081(8) 0.13086(9)
H89A H 0.5446 -0.0385 0.1356
C118A C 0.6143(5) 0.0276(6) 0.13014(9)
H90A H 0.6387 0.0217 0.1344
C119A C 0.4615(5) -0.0362(7) 0.12567(11)
C120A C 0.4282(6) -0.0131(8) 0.12595(12)
H91A H 0.4439 0.0254 0.1254
C121A C 0.3720(6) -0.0463(7) 0.12697(12)
H92A H 0.3493 -0.0304 0.1272
C122A C 0.3491(5) -0.1025(7) 0.12771(12)
C123A C 0.3824(6) -0.1256(8) 0.12743(11)
H93A H 0.3667 -0.1641 0.1279
C124A C 0.4386(6) -0.0925(7) 0.12641(11)
H94A H 0.4613 -0.1083 0.1262
N21A N 0.7192(4) 0.3969(6) 0.20788(8)
C125A C 0.7106(5) 0.4234(7) 0.21608(9)
H95A H 0.6748 0.4091 0.2189
C126A C 0.7526(5) 0.4711(7) 0.22050(10)
H96A H 0.7452 0.4893 0.2261
C127A C 0.8052(5) 0.4918(7) 0.21665(9)
H97A H 0.8344 0.5244 0.2196
C128A C 0.8148(5) 0.4646(7) 0.20840(9)
H98A H 0.8507 0.4776 0.2057
C129A C 0.7712(4) 0.4183(6) 0.20413(8)
C130A C 0.7792(4) 0.3898(6) 0.19482(9)
H99A H 0.8147 0.4024 0.1920
N22A N 0.7386(4) 0.3485(6) 0.19069(8)
N23A N 0.1824(5) -0.1976(6) 0.12852(9)
C131A C 0.1271(5) -0.2260(7) 0.12865(10)
H100A H 0.1083 -0.2500 0.1228
C132A C 0.0973(4) -0.2211(6) 0.13702(11)
H101A H 0.0585 -0.2409 0.1368
C133A C 0.1242(4) -0.1873(7) 0.14569(10)
H102A H 0.1042 -0.1837 0.1515
C134A C 0.1807(4) -0.1587(6) 0.14578(9)
H103A H 0.2001 -0.1359 0.1517
C135A C 0.2081(4) -0.1641(6) 0.13708(8)
C136A C 0.2687(4) -0.1316(6) 0.13653(8)
H104A H 0.2888 -0.1081 0.1423
N24A N 0.2934(5) -0.1352(7) 0.12833(9)
Pd1B Pd 0.60827(7) 0.53835(5) 0.042239(14)
Pd2B Pd 0.87759(10) 0.59471(7) 0.12150(2)
Fe1B Fe 1.07954(12) 0.86514(8) 0.04367(3)
Fe3B Fe 0.57050(19) 0.76006(14) 0.11885(4)
N1B N 0.5147(10) 0.7066(7) 0.10871(15)
N2B N 0.1935(7) 0.2338(5) 0.03367(14)
N3B N 0.7144(7) 0.4012(5) -0.02748(10)
N4B N 1.0139(7) 0.8556(5) 0.05092(11)
N5B N 1.0937(7) 0.8195(5) 0.05396(12)
N6B N 0.5877(7) 0.5681(5) 0.05494(9)
C1B C 0.5925(6) 0.5543(4) 0.06552(10)
H1B H 0.6046 0.5290 0.0669
C2B C 0.5794(6) 0.5774(4) 0.07410(8)
H2B H 0.5825 0.5679 0.0813
C3B C 0.5615(6) 0.6143(4) 0.07211(8)
C4B C 0.5568(6) 0.6281(5) 0.06153(9)
H3B H 0.5446 0.6533 0.0602
C5B C 0.5699(7) 0.6050(5) 0.05295(7)
H4B H 0.5666 0.6144 0.0457
C6B C 0.5456(6) 0.6380(5) 0.08161(8)
C7B C 0.5483(7) 0.6883(5) 0.08070(8)
H5B H 0.5577 0.7071 0.0740
C8B C 0.5372(6) 0.7110(4) 0.08963(10)
H6B H 0.5389 0.7453 0.0890
C9B C 0.5234(7) 0.6835(5) 0.09946(9)
C10B C 0.5208(7) 0.6333(5) 0.10038(8)
H7B H 0.5114 0.6145 0.1071
C11B C 0.5319(6) 0.6105(4) 0.09145(10)
H8B H 0.5301 0.5762 0.0921
C12B C 0.4667(13) 0.7073(9) 0.11014(19)
H9B H 0.4377 0.6899 0.1051
N7B N 0.5073(10) 0.7602(8) 0.12586(18)
C13B C 0.4616(11) 0.7343(7) 0.11922(13)
C14B C 0.4133(12) 0.7321(8) 0.12226(16)
H10B H 0.3820 0.7144 0.1177
C15B C 0.4105(11) 0.7557(8) 0.13193(18)
H11B H 0.3774 0.7541 0.1340
C16B C 0.4561(12) 0.7815(8) 0.13856(13)
H12B H 0.4543 0.7977 0.1452
C17B C 0.5046(12) 0.7838(8) 0.13553(16)
H13B H 0.5358 0.8015 0.1401
N8B N 0.5296(6) 0.4805(4) 0.04100(9)
C18B C 0.5092(6) 0.4318(4) 0.04670(8)
H14B H 0.5326 0.4258 0.0513
C19B C 0.4547(6) 0.3920(4) 0.04567(9)
H15B H 0.4407 0.3587 0.0496
C20B C 0.4204(6) 0.4008(4) 0.03894(9)
C21B C 0.4408(6) 0.4495(4) 0.03324(8)
H16B H 0.4174 0.4555 0.0286
C22B C 0.4953(6) 0.4893(4) 0.03427(9)
H17B H 0.5093 0.5226 0.0304
C23B C 0.3607(6) 0.3564(4) 0.03752(9)
C24B C 0.3220(6) 0.3712(4) 0.03494(10)
H18B H 0.3326 0.4086 0.0341
C25B C 0.2677(6) 0.3313(5) 0.03355(10)
H19B H 0.2412 0.3414 0.0318
C26B C 0.2520(6) 0.2765(4) 0.03473(9)
C27B C 0.2906(6) 0.2616(4) 0.03730(9)
H20B H 0.2799 0.2242 0.0381
C28B C 0.3450(6) 0.3016(4) 0.03870(9)
H21B H 0.3714 0.2915 0.0405
C29B C 0.1883(13) 0.2133(9) 0.0250(2)
H22B H 0.2169 0.2251 0.0199
N9B N 0.0970(6) 0.1628(4) 0.03175(9)
C30B C 0.1285(6) 0.1643(4) 0.02298(11)
C31B C 0.1040(8) 0.1298(6) 0.01420(9)
H23B H 0.1255 0.1308 0.0082
C32B C 0.0480(8) 0.0938(5) 0.01419(9)
H24B H 0.0313 0.0703 0.0082
C33B C 0.0165(6) 0.0923(4) 0.02296(11)
H25B H -0.0217 0.0678 0.0230
C34B C 0.0410(6) 0.1268(5) 0.03174(9)
H26B H 0.0195 0.1258 0.0377
N10B N 0.6277(6) 0.5093(4) 0.02908(8)
C35B C 0.6298(5) 0.5320(4) 0.01900(9)
H27B H 0.6223 0.5611 0.0183
C36B C 0.6427(6) 0.5121(4) 0.00986(7)
H28B H 0.6441 0.5276 0.0030
C37B C 0.6536(6) 0.4695(4) 0.01081(7)
C38B C 0.6514(5) 0.4467(4) 0.02090(8)
H29B H 0.6588 0.4176 0.0215
C39B C 0.6384(6) 0.4666(4) 0.03003(6)
H30B H 0.6370 0.4511 0.0369
C40B C 0.6723(6) 0.4530(4) 0.00064(7)
C41B C 0.7053(6) 0.4296(4) 0.00130(7)
H31B H 0.7175 0.4248 0.0082
C42B C 0.7203(5) 0.4132(4) -0.00806(8)
H32B H 0.7427 0.3971 -0.0076
C43B C 0.7022(6) 0.4201(4) -0.01809(7)
C44B C 0.6694(6) 0.4436(4) -0.01875(7)
H33B H 0.6570 0.4483 -0.0256
C45B C 0.6544(5) 0.4600(4) -0.00938(8)
H34B H 0.6318 0.4760 -0.0098
C46B C 0.7633(10) 0.4259(7) -0.03134(14)
H35B H 0.7906 0.4575 -0.0277
N11B N 0.7344(6) 0.3602(4) -0.04435(9)
C47B C 0.7769(6) 0.4086(4) -0.04021(8)
C48B C 0.8276(6) 0.4336(4) -0.04526(10)
H36B H 0.8566 0.4666 -0.0424
C49B C 0.8358(7) 0.4102(5) -0.05444(10)
H37B H 0.8704 0.4273 -0.0579
C50B C 0.7934(7) 0.3619(5) -0.05858(8)
H38B H 0.7990 0.3459 -0.0649
C51B C 0.7427(6) 0.3369(4) -0.05353(10)
H39B H 0.7136 0.3038 -0.0564
N12B N 0.6878(6) 0.5986(4) 0.04334(8)
C52B C 0.7252(5) 0.5890(3) 0.04879(8)
H40B H 0.7138 0.5542 0.0519
C53B C 0.7792(5) 0.6304(4) 0.04974(7)
H41B H 0.8048 0.6239 0.0535
C54B C 0.7959(5) 0.6814(3) 0.04524(7)
C55B C 0.7585(5) 0.6910(3) 0.03979(7)
H42B H 0.7699 0.7258 0.0367
C56B C 0.7045(6) 0.6496(4) 0.03884(8)
H43B H 0.6789 0.6561 0.0351
C57B C 0.8541(5) 0.7275(3) 0.04685(7)
C58B C 0.8837(5) 0.7286(3) 0.05592(7)
H44B H 0.8678 0.7001 0.0611
C59B C 0.9367(6) 0.7716(4) 0.05740(6)
H45B H 0.9568 0.7723 0.0636
C60B C 0.9599(5) 0.8133(3) 0.04981(7)
C61B C 0.9303(5) 0.8122(3) 0.04074(7)
H46B H 0.9462 0.8407 0.0356
C62B C 0.8774(6) 0.7693(4) 0.03926(6)
H47B H 0.8571 0.7685 0.0331
C63B C 1.0198(10) 0.8912(7) 0.05815(15)
H48B H 0.9904 0.8884 0.0624
N13B N 1.1147(6) 0.9305(4) 0.05317(8)
C64B C 1.0775(6) 0.9376(4) 0.05931(10)
C65B C 1.0960(6) 0.9808(5) 0.06655(9)
H49B H 1.0706 0.9857 0.0707
C66B C 1.1516(6) 1.0170(4) 0.06765(8)
H50B H 1.1642 1.0465 0.0726
C67B C 1.1888(6) 1.0099(4) 0.06151(10)
H51B H 1.2268 1.0346 0.0623
C68B C 1.1703(6) 0.9666(5) 0.05427(9)
H52B H 1.1957 0.9618 0.0501
N14B N 0.8238(8) 0.6221(6) 0.11968(11)
C69B C 0.8423(8) 0.6751(6) 0.12322(11)
H53B H 0.8760 0.6943 0.1270
C70B C 0.8115(8) 0.7001(5) 0.12126(11)
H54B H 0.8241 0.7363 0.1237
C71B C 0.7622(7) 0.6720(5) 0.11576(11)
C72B C 0.7436(8) 0.6189(5) 0.11222(12)
H55B H 0.7099 0.5997 0.1085
C73B C 0.7745(8) 0.5940(5) 0.11418(12)
H56B H 0.7618 0.5577 0.1118
C74B C 0.7299(7) 0.6976(5) 0.11383(10)
C75B C 0.7341(8) 0.7373(6) 0.12102(10)
H57B H 0.7589 0.7480 0.1269
C76B C 0.7023(7) 0.7615(5) 0.11956(10)
H58B H 0.7051 0.7886 0.1245
C77B C 0.6661(7) 0.7459(5) 0.11091(10)
C78B C 0.6619(7) 0.7062(5) 0.10372(9)
H59B H 0.6371 0.6955 0.0978
C79B C 0.6937(7) 0.6820(5) 0.10518(10)
H60B H 0.6909 0.6549 0.1003
N15B N 0.5840(7) 0.8302(5) 0.10971(9)
C80B C 0.5571(8) 0.8586(6) 0.10937(13)
H61B H 0.5357 0.8572 0.1154
C81B C 0.5598(8) 0.8896(6) 0.10047(15)
H62B H 0.5399 0.9084 0.1004
C82B C 0.5918(9) 0.8931(6) 0.09170(13)
H63B H 0.5942 0.9144 0.0856
C83B C 0.6204(9) 0.8652(6) 0.09199(10)
H64B H 0.6433 0.8676 0.0861
C84B C 0.6147(6) 0.8337(4) 0.10095(9)
C85B C 0.6419(8) 0.8003(6) 0.10132(11)
H65B H 0.6646 0.8018 0.0955
N16B N 0.6349(7) 0.7700(5) 0.10939(13)
N17B N 0.9163(7) 0.6378(5) 0.10877(10)
C86B C 0.8978(6) 0.6186(4) 0.09839(11)
H66B H 0.8656 0.5843 0.0974
C87B C 0.9264(6) 0.6495(4) 0.08946(9)
H67B H 0.9138 0.6364 0.0824
C88B C 0.9736(6) 0.6997(4) 0.09091(8)
C89B C 0.9920(6) 0.7189(4) 0.10129(9)
H68B H 1.0243 0.7532 0.1023
C90B C 0.9634(7) 0.6879(5) 0.11023(8)
H69B H 0.9761 0.7011 0.1173
C91B C 1.0060(6) 0.7318(4) 0.08071(8)
C92B C 1.0055(5) 0.7049(3) 0.07127(9)
H70B H 0.9852 0.6662 0.0710
C93B C 1.0348(6) 0.7346(4) 0.06228(8)
H71B H 1.0345 0.7162 0.0558
C94B C 1.0646(6) 0.7913(4) 0.06273(7)
C95B C 1.0651(5) 0.8182(3) 0.07217(8)
H72B H 1.0854 0.8569 0.0725
C96B C 1.0358(6) 0.7885(4) 0.08117(7)
H73B H 1.0362 0.8069 0.0876
C97B C 1.1400(13) 0.8255(8) 0.05312(17)
H74B H 1.1539 0.8117 0.0585
N18B N 1.1513(6) 0.8814(5) 0.03781(11)
C98B C 1.1730(8) 0.8544(5) 0.04356(9)
C99B C 1.2202(7) 0.8559(6) 0.03991(13)
H75B H 1.2351 0.8375 0.0438
C100B C 1.2457(9) 0.8843(7) 0.03052(14)
H76B H 1.2780 0.8853 0.0280
C101B C 1.2239(9) 0.9112(6) 0.02477(10)
H77B H 1.2413 0.9306 0.0184
C102B C 1.1768(7) 0.9098(5) 0.02842(10)
H78B H 1.1619 0.9282 0.0245
N19B N 0.8349(9) 0.5539(7) 0.13488(12)
C103B C 0.7949(9) 0.4992(7) 0.13415(10)
H79B H 0.7887 0.4803 0.1275
C104B C 0.7639(8) 0.4721(5) 0.14319(11)
H80B H 0.7366 0.4347 0.1427
C105B C 0.7730(8) 0.4997(5) 0.15296(10)
C106B C 0.8129(9) 0.5543(5) 0.15369(11)
H81B H 0.8191 0.5732 0.1604
C107B C 0.8440(9) 0.5815(5) 0.14465(14)
H82B H 0.8712 0.6188 0.1452
C108B C 0.6887(6) 0.4272(4) 0.16140(8)
H83B H 0.6743 0.4140 0.1544
C109B C 0.6575(6) 0.4018(4) 0.17053(8)
H84B H 0.6218 0.3713 0.1698
C110B C 0.6787(6) 0.4211(5) 0.18077(8)
C111B C 0.7309(7) 0.4657(5) 0.18189(7)
H85B H 0.7453 0.4789 0.1889
C112B C 0.7620(6) 0.4911(4) 0.17276(7)
H86B H 0.7977 0.5216 0.1735
C113B C 0.7409(4) 0.4718(3) 0.16251(7)
N20B N 0.9280(7) 0.5624(5) 0.12316(8)
C114B C 0.9194(8) 0.5180(5) 0.11689(7)
H87B H 0.8890 0.5014 0.1121
C115B C 0.9551(7) 0.4978(5) 0.11760(8)
H88B H 0.9492 0.4675 0.1133
C116B C 0.9995(8) 0.5221(6) 0.12459(9)
C117B C 1.0081(8) 0.5665(5) 0.13086(9)
H89B H 1.0385 0.5831 0.1356
C118B C 0.9724(6) 0.5867(4) 0.13014(9)
H90B H 0.9783 0.6170 0.1344
C119B C 1.0362(7) 0.4977(5) 0.12567(11)
C120B C 1.0131(8) 0.4413(5) 0.12595(12)
H91B H 0.9746 0.4185 0.1254
C121B C 1.0463(7) 0.4183(4) 0.12697(12)
H92B H 1.0304 0.3797 0.1272
C122B C 1.1025(7) 0.4516(5) 0.12771(12)
C123B C 1.1256(8) 0.5080(5) 0.12743(11)
H93B H 1.1641 0.5308 0.1279
C124B C 1.0925(7) 0.5311(4) 0.12641(11)
H94B H 1.1083 0.5696 0.1262
N21B N 0.6031(6) 0.3223(5) 0.20788(8)
C125B C 0.5766(7) 0.2872(5) 0.21608(9)
H95B H 0.5909 0.2657 0.2189
C126B C 0.5289(7) 0.2815(5) 0.22050(10)
H96B H 0.5107 0.2559 0.2261
C127B C 0.5082(7) 0.3134(5) 0.21665(9)
H97B H 0.4756 0.3100 0.2196
C128B C 0.5354(7) 0.3502(5) 0.20840(9)
H98B H 0.5224 0.3731 0.2057
C129B C 0.5817(6) 0.3529(4) 0.20413(8)
C130B C 0.6102(6) 0.3894(5) 0.19482(9)
H99B H 0.5976 0.4123 0.1920
N22B N 0.6515(6) 0.3901(4) 0.19069(8)
N23B N 1.1976(6) 0.3800(4) 0.12852(9)
C131B C 1.2260(7) 0.3531(5) 0.12865(10)
H100B H 1.2500 0.3583 0.1228
C132B C 1.2211(6) 0.3184(5) 0.13702(11)
H101B H 1.2409 0.2994 0.1368
C133B C 1.1873(7) 0.3115(6) 0.14569(10)
H102B H 1.1837 0.2879 0.1515
C134B C 1.1587(6) 0.3394(5) 0.14578(9)
H103B H 1.1359 0.3360 0.1517
C135B C 1.1641(6) 0.3722(4) 0.13708(8)
C136B C 1.1316(6) 0.4003(4) 0.13653(8)
H104B H 1.1081 0.3969 0.1423
N24B N 1.1352(7) 0.4286(5) 0.12833(9)
B1 B 0.0650(5) 0.4435(5) 0.02044(10)
F1 F 0.0872(4) 0.4229(4) 0.01361(8)
F2 F 0.0476(5) 0.4722(5) 0.01427(9)
F3 F 0.1018(5) 0.4779(5) 0.02775(10)
F4 F 0.0217(4) 0.4049(4) 0.02630(7)
B2 B 0.5001(6) 0.1206(6) 0.09642(13)
F5 F 0.5031(7) 0.1229(7) 0.08551(13)
F6 F 0.5487(6) 0.1297(7) 0.10037(13)
F7 F 0.4601(7) 0.0699(7) 0.09931(13)
F8 F 0.4904(7) 0.1607(7) 0.09962(13)
B3 B 0.2534(6) 0.4638(6) 0.05993(12)
F9 F 0.2901(6) 0.5151(6) 0.06327(12)
F10 F 0.2463(6) 0.4279(6) 0.06790(12)
F11 F 0.2034(6) 0.4580(7) 0.05790(13)
F12 F 0.2734(7) 0.4533(7) 0.05087(12)
B4 B 0.2601(6) 0.2131(6) 0.14408(12)
F13 F 0.2914(8) 0.2528(8) 0.13709(15)
F14 F 0.2920(8) 0.2063(8) 0.15121(15)
F15 F 0.2268(8) 0.2263(8) 0.14936(15)
F16 F 0.2305(8) 0.1659(8) 0.13877(14)
B5 B 0.4552(6) 0.2870(6) 0.06659(12)
F17 F 0.4552(6) 0.2872(6) 0.07708(12)
F18 F 0.4935(6) 0.3352(6) 0.06326(12)
F19 F 0.4078(6) 0.2774(5) 0.06299(11)
F20 F 0.4658(7) 0.2498(7) 0.06291(12)
B6 B 0.6667 0.3333 0.03616(16)
F21 F 0.6667 0.3333 0.02510(18)
F22 F 0.6265(5) 0.2838(5) 0.03983(10)
F22A F 0.7162(5) 0.3427(7) 0.03983(10)
F22B F 0.6573(7) 0.3735(5) 0.03983(10)
O1 O 0.5093(8) 0.3054(7) 0.10731(19)
O3 O 0.5401(7) 0.1701(7) 0.05826(13)
B7 B 0.0000 0.0000 0.04840(17)
F23 F 0.0000 0.0000 0.05969(17)
F24 F 0.0518(4) 0.0331(4) 0.04355(7)
F24A F -0.0331(4) 0.0187(6) 0.04355(7)
F24B F -0.0187(6) -0.0518(4) 0.04355(7)
B8 B 0.3333 -0.3333 0.0924(3)
F25 F 0.3333 -0.3333 0.1032(3)
F26 F 0.3190(7) -0.2992(7) 0.08779(13)
F26A F 0.2992(7) -0.3818(10) 0.08779(13)
F26B F 0.3818(10) -0.3190(7) 0.08779(13)
B9 B 0.6667 0.3333 0.1291(2)
F27 F 0.6667 0.3333 0.1409(3)
F28 F 0.7074(7) 0.3863(8) 0.12431(13)
F28A F 0.6137(8) 0.3211(11) 0.12431(13)
F28B F 0.6789(11) 0.2926(7) 0.12431(13)
O2? O 0.5298(14) 0.3080(13) 0.1001(3)
loop_
_geom_bond_atom_site_label_1
_geom_bond_atom_site_label_2
_geom_bond_site_symmetry_1
_geom_bond_site_symmetry_2
Pd1 N6 1_555 1_555
Pd2 N14 1_555 1_555
Fe1 N4 1_555 1_555
Fe2 N3 1_555 1_555
Fe3 N1 1_555 1_555
Fe4 N21 1_555 1_555
N1 C9 1_555 1_555
N2 C26 1_555 1_555
N3 C43 1_555 1_555
N4 C60 1_555 1_555
N5 Fe1 1_555 1_555
N6 C1 1_555 1_555
C1 H1 1_555 1_555
C2 C1 1_555 1_555
H2 C2 1_555 1_555
C3 C2 1_555 1_555
C4 C3 1_555 1_555
H3 C4 1_555 1_555
C5 N6 1_555 1_555
H4 C5 1_555 1_555
C6 C3 1_555 1_555
C7 C6 1_555 1_555
H5 C7 1_555 1_555
C8 C7 1_555 1_555
H6 C8 1_555 1_555
C9 C8 1_555 1_555
C10 C9 1_555 1_555
H7 C10 1_555 1_555
C11 C6 1_555 1_555
H8 C11 1_555 1_555
C12 N1 1_555 1_555
H9 C12 1_555 1_555
N7 Fe3 1_555 1_555
C13 C12 1_555 1_555
C14 C13 1_555 1_555
H10 C14 1_555 1_555
C15 C14 1_555 1_555
H11 C15 1_555 1_555
C16 C15 1_555 1_555
H12 C16 1_555 1_555
C17 N7 1_555 1_555
H13 C17 1_555 1_555
N8 Pd1 1_555 1_555
C18 N8 1_555 1_555
H14 C18 1_555 1_555
C19 C18 1_555 1_555
H15 C19 1_555 1_555
C20 C19 1_555 1_555
C21 C20 1_555 1_555
H16 C21 1_555 1_555
C22 N8 1_555 1_555
H17 C22 1_555 1_555
C23 C20 1_555 1_555
C24 C23 1_555 1_555
H18 C24 1_555 1_555
C25 C24 1_555 1_555
H19 C25 1_555 1_555
C26 C25 1_555 1_555
C27 C26 1_555 1_555
H20 C27 1_555 1_555
C28 C23 1_555 1_555
H21 C28 1_555 1_555
C29 N2 1_555 1_555
H22 C29 1_555 1_555
N9 C30 1_555 1_555
C30 C29 1_555 1_555
C31 C30 1_555 1_555
H23 C31 1_555 1_555
C32 C31 1_555 1_555
H24 C32 1_555 1_555
C33 C32 1_555 1_555
H25 C33 1_555 1_555
C34 N9 1_555 1_555
H26 C34 1_555 1_555
N10 Pd1 1_555 1_555
C35 N10 1_555 1_555
H27 C35 1_555 1_555
C36 C35 1_555 1_555
H28 C36 1_555 1_555
C37 C36 1_555 1_555
C38 C37 1_555 1_555
H29 C38 1_555 1_555
C39 N10 1_555 1_555
H30 C39 1_555 1_555
C40 C37 1_555 1_555
C41 C40 1_555 1_555
H31 C41 1_555 1_555
C42 C41 1_555 1_555
H32 C42 1_555 1_555
C43 C42 1_555 1_555
C44 C43 1_555 1_555
H33 C44 1_555 1_555
C45 C40 1_555 1_555
H34 C45 1_555 1_555
C46 N3 1_555 1_555
H35 C46 1_555 1_555
N11 Fe2 1_555 1_555
C47 C46 1_555 1_555
C48 C47 1_555 1_555
H36 C48 1_555 1_555
C49 C48 1_555 1_555
H37 C49 1_555 1_555
C50 C49 1_555 1_555
H38 C50 1_555 1_555
C51 N11 1_555 1_555
H39 C51 1_555 1_555
N12 Pd1 1_555 1_555
C52 N12 1_555 1_555
H40 C52 1_555 1_555
C53 C52 1_555 1_555
H41 C53 1_555 1_555
C54 C53 1_555 1_555
C55 C54 1_555 1_555
H42 C55 1_555 1_555
C56 N12 1_555 1_555
H43 C56 1_555 1_555
C57 C54 1_555 1_555
C58 C57 1_555 1_555
H44 C58 1_555 1_555
C59 C58 1_555 1_555
H45 C59 1_555 1_555
C60 C59 1_555 1_555
C61 C60 1_555 1_555
H46 C61 1_555 1_555
C62 C57 1_555 1_555
H47 C62 1_555 1_555
C63 N4 1_555 1_555
H48 C63 1_555 1_555
N13 Fe1 1_555 1_555
C64 C63 1_555 1_555
C65 C64 1_555 1_555
H49 C65 1_555 1_555
C66 C65 1_555 1_555
H50 C66 1_555 1_555
C67 C66 1_555 1_555
H51 C67 1_555 1_555
C68 N13 1_555 1_555
H52 C68 1_555 1_555
N14 C69 1_555 1_555
C69 H53 1_555 1_555
C70 C69 1_555 1_555
H54 C70 1_555 1_555
C71 C70 1_555 1_555
C72 C71 1_555 1_555
H55 C72 1_555 1_555
C73 N14 1_555 1_555
H56 C73 1_555 1_555
C74 C71 1_555 1_555
C75 C74 1_555 1_555
H57 C75 1_555 1_555
C76 C75 1_555 1_555
H58 C76 1_555 1_555
C77 C76 1_555 1_555
C78 C77 1_555 1_555
H59 C78 1_555 1_555
C79 C74 1_555 1_555
H60 C79 1_555 1_555
N15 Fe3 1_555 1_555
C80 N15 1_555 1_555
H61 C80 1_555 1_555
C81 C80 1_555 1_555
H62 C81 1_555 1_555
C82 C81 1_555 1_555
H63 C82 1_555 1_555
C83 C82 1_555 1_555
H64 C83 1_555 1_555
C84 N15 1_555 1_555
C85 C84 1_555 1_555
H65 C85 1_555 1_555
N16 Fe3 1_555 1_555
N17 Pd2 1_555 1_555
C86 N17 1_555 1_555
H66 C86 1_555 1_555
C87 C86 1_555 1_555
H67 C87 1_555 1_555
C88 C87 1_555 1_555
C89 C88 1_555 1_555
H68 C89 1_555 1_555
C90 N17 1_555 1_555
H69 C90 1_555 1_555
C91 C88 1_555 1_555
C92 C91 1_555 1_555
H70 C92 1_555 1_555
C93 C92 1_555 1_555
H71 C93 1_555 1_555
C94 N5 1_555 1_555
C95 C94 1_555 1_555
H72 C95 1_555 1_555
C96 C91 1_555 1_555
H73 C96 1_555 1_555
C97 N5 1_555 1_555
H74 C97 1_555 1_555
N18 Fe1 1_555 1_555
C98 C97 1_555 1_555
C99 C98 1_555 1_555
H75 C99 1_555 1_555
C100 C99 1_555 1_555
H76 C100 1_555 1_555
C101 C100 1_555 1_555
H77 C101 1_555 1_555
C102 N18 1_555 1_555
H78 C102 1_555 1_555
N19 Pd2 1_555 1_555
C103 N19 1_555 1_555
H79 C103 1_555 1_555
C104 C103 1_555 1_555
H80 C104 1_555 1_555
C105 C104 1_555 1_555
C106 C105 1_555 1_555
H81 C106 1_555 1_555
C107 N19 1_555 1_555
H82 C107 1_555 1_555
C108 H83 1_555 1_555
C109 C108 1_555 1_555
H84 C109 1_555 1_555
C110 C109 1_555 1_555
C111 C110 1_555 1_555
H85 C111 1_555 1_555
C112 C111 1_555 1_555
H86 C112 1_555 1_555
C113 C105 1_555 1_555
N20 Pd2 1_555 1_555
C114 N20 1_555 1_555
H87 C114 1_555 1_555
C115 C114 1_555 1_555
H88 C115 1_555 1_555
C116 C115 1_555 1_555
C117 C116 1_555 1_555
H89 C117 1_555 1_555
C118 N20 1_555 1_555
H90 C118 1_555 1_555
C119 C116 1_555 1_555
C120 C119 1_555 1_555
H91 C120 1_555 1_555
C121 C120 1_555 1_555
H92 C121 1_555 1_555
C122 C121 1_555 1_555
C123 C122 1_555 1_555
H93 C123 1_555 1_555
C124 C119 1_555 1_555
H94 C124 1_555 1_555
N21 C125 1_555 1_555
C125 H95 1_555 1_555
C126 C125 1_555 1_555
H96 C126 1_555 1_555
C127 C126 1_555 1_555
H97 C127 1_555 1_555
C128 C127 1_555 1_555
H98 C128 1_555 1_555
C129 N21 1_555 1_555
C130 C129 1_555 1_555
H99 C130 1_555 1_555
N22 Fe4 1_555 1_555
N23 C131 1_555 1_555
C131 H100 1_555 1_555
C132 C131 1_555 1_555
H101 C132 1_555 1_555
C133 C132 1_555 1_555
H102 C133 1_555 1_555
C134 C133 1_555 1_555
H103 C134 1_555 1_555
C135 N23 1_555 1_555
C136 C135 1_555 1_555
H104 C136 1_555 1_555
N24 C122 1_555 1_555
B1 F1 1_555 1_555
F2 B1 1_555 1_555
F3 B1 1_555 1_555
F4 B1 1_555 1_555
B2 F5 1_555 1_555
F6 B2 1_555 1_555
F7 B2 1_555 1_555
F8 B2 1_555 1_555
B3 F9 1_555 1_555
F10 B3 1_555 1_555
F11 B3 1_555 1_555
F12 B3 1_555 1_555
B4 F13 1_555 1_555
F14 B4 1_555 1_555
F15 B4 1_555 1_555
F16 B4 1_555 1_555
B5 F17 1_555 1_555
F18 B5 1_555 1_555
F19 B5 1_555 1_555
F20 B5 1_555 1_555
B6 F21 1_555 1_555
F22 B6 1_555 1_555
B7 F23 1_555 1_555
F24 B7 1_555 1_555
B8 F25 1_555 1_555
F26 B8 1_555 1_555
B9 F27 1_555 1_555
F28 B9 1_555 1_555
Pd1A N6A 1_555 1_555
Pd2A N14A 1_555 1_555
Fe1A N2 1_555 1_555
Fe3A N1A 1_555 1_555
N1A C9A 1_555 1_555
N2A C26A 1_555 1_555
N3A Fe2 1_555 1_555
N4A Fe1A 1_555 1_555
N5A Fe1A 1_555 1_555
N6A C1A 1_555 1_555
C1A H1A 1_555 1_555
C2A C1A 1_555 1_555
H2A C2A 1_555 1_555
C3A C2A 1_555 1_555
C4A C3A 1_555 1_555
H3A C4A 1_555 1_555
C5A N6A 1_555 1_555
H4A C5A 1_555 1_555
C6A C3A 1_555 1_555
C7A C6A 1_555 1_555
H5A C7A 1_555 1_555
C8A C7A 1_555 1_555
H6A C8A 1_555 1_555
C9A C8A 1_555 1_555
C10A C9A 1_555 1_555
H7A C10A 1_555 1_555
C11A C6A 1_555 1_555
H8A C11A 1_555 1_555
C12A N1A 1_555 1_555
H9A C12A 1_555 1_555
N7A Fe3A 1_555 1_555
C13A C12A 1_555 1_555
C14A C13A 1_555 1_555
H10A C14A 1_555 1_555
C15A C14A 1_555 1_555
H11A C15A 1_555 1_555
C16A C15A 1_555 1_555
H12A C16A 1_555 1_555
C17A N7A 1_555 1_555
H13A C17A 1_555 1_555
N8A Pd1A 1_555 1_555
C18A N8A 1_555 1_555
H14A C18A 1_555 1_555
C19A C18A 1_555 1_555
H15A C19A 1_555 1_555
C20A C19A 1_555 1_555
C21A C20A 1_555 1_555
H16A C21A 1_555 1_555
C22A N8A 1_555 1_555
H17A C22A 1_555 1_555
C23A C20A 1_555 1_555
C24A C23A 1_555 1_555
H18A C24A 1_555 1_555
C25A C24A 1_555 1_555
H19A C25A 1_555 1_555
C26A C25A 1_555 1_555
C27A C26A 1_555 1_555
H20A C27A 1_555 1_555
C28A C23A 1_555 1_555
H21A C28A 1_555 1_555
C29A N2A 1_555 1_555
H22A C29A 1_555 1_555
N9A C30A 1_555 1_555
C30A C29A 1_555 1_555
C31A C30A 1_555 1_555
H23A C31A 1_555 1_555
C32A C31A 1_555 1_555
H24A C32A 1_555 1_555
C33A C32A 1_555 1_555
H25A C33A 1_555 1_555
C34A N9A 1_555 1_555
H26A C34A 1_555 1_555
N10A Pd1A 1_555 1_555
C35A N10A 1_555 1_555
H27A C35A 1_555 1_555
C36A C35A 1_555 1_555
H28A C36A 1_555 1_555
C37A C36A 1_555 1_555
C38A C37A 1_555 1_555
H29A C38A 1_555 1_555
C39A N10A 1_555 1_555
H30A C39A 1_555 1_555
C40A C37A 1_555 1_555
C41A C40A 1_555 1_555
H31A C41A 1_555 1_555
C42A C41A 1_555 1_555
H32A C42A 1_555 1_555
C43A N3A 1_555 1_555
C44A C43A 1_555 1_555
H33A C44A 1_555 1_555
C45A C40A 1_555 1_555
H34A C45A 1_555 1_555
C46A N3A 1_555 1_555
H35A C46A 1_555 1_555
N11A Fe2 1_555 1_555
C47A C46A 1_555 1_555
C48A C47A 1_555 1_555
H36A C48A 1_555 1_555
C49A C48A 1_555 1_555
H37A C49A 1_555 1_555
C50A C49A 1_555 1_555
H38A C50A 1_555 1_555
C51A N11A 1_555 1_555
H39A C51A 1_555 1_555
N12A Pd1A 1_555 1_555
C52A N12A 1_555 1_555
H40A C52A 1_555 1_555
C53A C52A 1_555 1_555
H41A C53A 1_555 1_555
C54A C53A 1_555 1_555
C55A C54A 1_555 1_555
H42A C55A 1_555 1_555
C56A N12A 1_555 1_555
H43A C56A 1_555 1_555
C57A C54A 1_555 1_555
C58A C57A 1_555 1_555
H44A C58A 1_555 1_555
C59A C58A 1_555 1_555
H45A C59A 1_555 1_555
C60A N4A 1_555 1_555
C61A C60A 1_555 1_555
H46A C61A 1_555 1_555
C62A C57A 1_555 1_555
H47A C62A 1_555 1_555
C63A N4A 1_555 1_555
H48A C63A 1_555 1_555
N13A Fe1A 1_555 1_555
C64A C63A 1_555 1_555
C65A C64A 1_555 1_555
H49A C65A 1_555 1_555
C66A C65A 1_555 1_555
H50A C66A 1_555 1_555
C67A C66A 1_555 1_555
H51A C67A 1_555 1_555
C68A N13A 1_555 1_555
H52A C68A 1_555 1_555
N14A C69A 1_555 1_555
C69A H53A 1_555 1_555
C70A C69A 1_555 1_555
H54A C70A 1_555 1_555
C71A C70A 1_555 1_555
C72A C71A 1_555 1_555
H55A C72A 1_555 1_555
C73A N14A 1_555 1_555
H56A C73A 1_555 1_555
C74A C71A 1_555 1_555
C75A C74A 1_555 1_555
H57A C75A 1_555 1_555
C76A C75A 1_555 1_555
H58A C76A 1_555 1_555
C77A C76A 1_555 1_555
C78A C77A 1_555 1_555
H59A C78A 1_555 1_555
C79A C74A 1_555 1_555
H60A C79A 1_555 1_555
N15A Fe3A 1_555 1_555
C80A N15A 1_555 1_555
H61A C80A 1_555 1_555
C81A C80A 1_555 1_555
H62A C81A 1_555 1_555
C82A C81A 1_555 1_555
H63A C82A 1_555 1_555
C83A C82A 1_555 1_555
H64A C83A 1_555 1_555
C84A N15A 1_555 1_555
C85A C84A 1_555 1_555
H65A C85A 1_555 1_555
N16A Fe3A 1_555 1_555
N17A Pd2A 1_555 1_555
C86A N17A 1_555 1_555
H66A C86A 1_555 1_555
C87A C86A 1_555 1_555
H67A C87A 1_555 1_555
C88A C87A 1_555 1_555
C89A C88A 1_555 1_555
H68A C89A 1_555 1_555
C90A N17A 1_555 1_555
H69A C90A 1_555 1_555
C91A C88A 1_555 1_555
C92A C91A 1_555 1_555
H70A C92A 1_555 1_555
C93A C92A 1_555 1_555
H71A C93A 1_555 1_555
C94A N5A 1_555 1_555
C95A C94A 1_555 1_555
H72A C95A 1_555 1_555
C96A C91A 1_555 1_555
H73A C96A 1_555 1_555
C97A N5A 1_555 1_555
H74A C97A 1_555 1_555
N18A Fe1A 1_555 1_555
C98A C97A 1_555 1_555
C99A C98A 1_555 1_555
H75A C99A 1_555 1_555
C100A C99A 1_555 1_555
H76A C100A 1_555 1_555
C101A C100A 1_555 1_555
H77A C101A 1_555 1_555
C102A N18A 1_555 1_555
H78A C102A 1_555 1_555
N19A Pd2A 1_555 1_555
C103A N19A 1_555 1_555
H79A C103A 1_555 1_555
C104A C103A 1_555 1_555
H80A C104A 1_555 1_555
C105A C104A 1_555 1_555
C106A C105A 1_555 1_555
H81A C106A 1_555 1_555
C107A N19A 1_555 1_555
H82A C107A 1_555 1_555
C108A H83A 1_555 1_555
C109A C108A 1_555 1_555
H84A C109A 1_555 1_555
C110A C109A 1_555 1_555
C111A C110A 1_555 1_555
H85A C111A 1_555 1_555
C112A C111A 1_555 1_555
H86A C112A 1_555 1_555
C113A C105A 1_555 1_555
N20A Pd2A 1_555 1_555
C114A N20A 1_555 1_555
H87A C114A 1_555 1_555
C115A C114A 1_555 1_555
H88A C115A 1_555 1_555
C116A C115A 1_555 1_555
C117A C116A 1_555 1_555
H89A C117A 1_555 1_555
C118A N20A 1_555 1_555
H90A C118A 1_555 1_555
C119A C116A 1_555 1_555
C120A C119A 1_555 1_555
H91A C120A 1_555 1_555
C121A C120A 1_555 1_555
H92A C121A 1_555 1_555
C122A C121A 1_555 1_555
C123A C122A 1_555 1_555
H93A C123A 1_555 1_555
C124A C119A 1_555 1_555
H94A C124A 1_555 1_555
N21A Fe4 1_555 1_555
C125A N21A 1_555 1_555
H95A C125A 1_555 1_555
C126A C125A 1_555 1_555
H96A C126A 1_555 1_555
C127A C126A 1_555 1_555
H97A C127A 1_555 1_555
C128A C127A 1_555 1_555
H98A C128A 1_555 1_555
C129A N21A 1_555 1_555
C130A C129A 1_555 1_555
H99A C130A 1_555 1_555
N22A Fe4 1_555 1_555
N23A Fe3 1_555 1_555
C131A N23A 1_555 1_555
H100A C131A 1_555 1_555
C132A C131A 1_555 1_555
H101A C132A 1_555 1_555
C133A C132A 1_555 1_555
H102A C133A 1_555 1_555
C134A C133A 1_555 1_555
H103A C134A 1_555 1_555
C135A N23A 1_555 1_555
C136A C135A 1_555 1_555
H104A C136A 1_555 1_555
N24A Fe3 1_555 1_555
Pd1B N6B 1_555 1_555
Pd2B N14B 1_555 1_555
Fe1B N2A 1_555 1_555
Fe3B N23 1_555 1_555
N1B Fe3B 1_555 1_555
N2B Fe1 1_555 1_555
N3B Fe2 1_555 1_555
N4B Fe1B 1_555 1_555
N5B Fe1B 1_555 1_555
N6B C1B 1_555 1_555
C1B H1B 1_555 1_555
C2B C1B 1_555 1_555
H2B C2B 1_555 1_555
C3B C2B 1_555 1_555
C4B C3B 1_555 1_555
H3B C4B 1_555 1_555
C5B N6B 1_555 1_555
H4B C5B 1_555 1_555
C6B C3B 1_555 1_555
C7B C6B 1_555 1_555
H5B C7B 1_555 1_555
C8B C7B 1_555 1_555
H6B C8B 1_555 1_555
C9B N1B 1_555 1_555
C10B C9B 1_555 1_555
H7B C10B 1_555 1_555
C11B C6B 1_555 1_555
H8B C11B 1_555 1_555
C12B N1B 1_555 1_555
H9B C12B 1_555 1_555
N7B Fe3B 1_555 1_555
C13B C12B 1_555 1_555
C14B C13B 1_555 1_555
H10B C14B 1_555 1_555
C15B C14B 1_555 1_555
H11B C15B 1_555 1_555
C16B C15B 1_555 1_555
H12B C16B 1_555 1_555
C17B N7B 1_555 1_555
H13B C17B 1_555 1_555
N8B Pd1B 1_555 1_555
C18B N8B 1_555 1_555
H14B C18B 1_555 1_555
C19B C18B 1_555 1_555
H15B C19B 1_555 1_555
C20B C19B 1_555 1_555
C21B C20B 1_555 1_555
H16B C21B 1_555 1_555
C22B N8B 1_555 1_555
H17B C22B 1_555 1_555
C23B C20B 1_555 1_555
C24B C23B 1_555 1_555
H18B C24B 1_555 1_555
C25B C24B 1_555 1_555
H19B C25B 1_555 1_555
C26B N2B 1_555 1_555
C27B C26B 1_555 1_555
H20B C27B 1_555 1_555
C28B C23B 1_555 1_555
H21B C28B 1_555 1_555
C29B N2B 1_555 1_555
H22B C29B 1_555 1_555
N9B Fe1 1_555 1_555
C30B C29B 1_555 1_555
C31B C30B 1_555 1_555
H23B C31B 1_555 1_555
C32B C31B 1_555 1_555
H24B C32B 1_555 1_555
C33B C32B 1_555 1_555
H25B C33B 1_555 1_555
C34B N9B 1_555 1_555
H26B C34B 1_555 1_555
N10B Pd1B 1_555 1_555
C35B N10B 1_555 1_555
H27B C35B 1_555 1_555
C36B C35B 1_555 1_555
H28B C36B 1_555 1_555
C37B C36B 1_555 1_555
C38B C37B 1_555 1_555
H29B C38B 1_555 1_555
C39B N10B 1_555 1_555
H30B C39B 1_555 1_555
C40B C37B 1_555 1_555
C41B C40B 1_555 1_555
H31B C41B 1_555 1_555
C42B C41B 1_555 1_555
H32B C42B 1_555 1_555
C43B N3B 1_555 1_555
C44B C43B 1_555 1_555
H33B C44B 1_555 1_555
C45B C40B 1_555 1_555
H34B C45B 1_555 1_555
C46B N3B 1_555 1_555
H35B C46B 1_555 1_555
N11B Fe2 1_555 1_555
C47B C46B 1_555 1_555
C48B C47B 1_555 1_555
H36B C48B 1_555 1_555
C49B C48B 1_555 1_555
H37B C49B 1_555 1_555
C50B C49B 1_555 1_555
H38B C50B 1_555 1_555
C51B N11B 1_555 1_555
H39B C51B 1_555 1_555
N12B Pd1B 1_555 1_555
C52B N12B 1_555 1_555
H40B C52B 1_555 1_555
C53B C52B 1_555 1_555
H41B C53B 1_555 1_555
C54B C53B 1_555 1_555
C55B C54B 1_555 1_555
H42B C55B 1_555 1_555
C56B N12B 1_555 1_555
H43B C56B 1_555 1_555
C57B C54B 1_555 1_555
C58B C57B 1_555 1_555
H44B C58B 1_555 1_555
C59B C58B 1_555 1_555
H45B C59B 1_555 1_555
C60B N4B 1_555 1_555
C61B C60B 1_555 1_555
H46B C61B 1_555 1_555
C62B C57B 1_555 1_555
H47B C62B 1_555 1_555
C63B N4B 1_555 1_555
H48B C63B 1_555 1_555
N13B Fe1B 1_555 1_555
C64B C63B 1_555 1_555
C65B C64B 1_555 1_555
H49B C65B 1_555 1_555
C66B C65B 1_555 1_555
H50B C66B 1_555 1_555
C67B C66B 1_555 1_555
H51B C67B 1_555 1_555
C68B N13B 1_555 1_555
H52B C68B 1_555 1_555
N14B C69B 1_555 1_555
C69B H53B 1_555 1_555
C70B C69B 1_555 1_555
H54B C70B 1_555 1_555
C71B C70B 1_555 1_555
C72B C71B 1_555 1_555
H55B C72B 1_555 1_555
C73B N14B 1_555 1_555
H56B C73B 1_555 1_555
C74B C71B 1_555 1_555
C75B C74B 1_555 1_555
H57B C75B 1_555 1_555
C76B C75B 1_555 1_555
H58B C76B 1_555 1_555
C77B C76B 1_555 1_555
C78B C77B 1_555 1_555
H59B C78B 1_555 1_555
C79B C74B 1_555 1_555
H60B C79B 1_555 1_555
N15B Fe3B 1_555 1_555
C80B N15B 1_555 1_555
H61B C80B 1_555 1_555
C81B C80B 1_555 1_555
H62B C81B 1_555 1_555
C82B C81B 1_555 1_555
H63B C82B 1_555 1_555
C83B C82B 1_555 1_555
H64B C83B 1_555 1_555
C84B N15B 1_555 1_555
C85B C84B 1_555 1_555
H65B C85B 1_555 1_555
N16B Fe3B 1_555 1_555
N17B Pd2B 1_555 1_555
C86B N17B 1_555 1_555
H66B C86B 1_555 1_555
C87B C86B 1_555 1_555
H67B C87B 1_555 1_555
C88B C87B 1_555 1_555
C89B C88B 1_555 1_555
H68B C89B 1_555 1_555
C90B N17B 1_555 1_555
H69B C90B 1_555 1_555
C91B C88B 1_555 1_555
C92B C91B 1_555 1_555
H70B C92B 1_555 1_555
C93B C92B 1_555 1_555
H71B C93B 1_555 1_555
C94B N5B 1_555 1_555
C95B C94B 1_555 1_555
H72B C95B 1_555 1_555
C96B C91B 1_555 1_555
H73B C96B 1_555 1_555
C97B N5B 1_555 1_555
H74B C97B 1_555 1_555
N18B Fe1B 1_555 1_555
C98B C97B 1_555 1_555
C99B C98B 1_555 1_555
H75B C99B 1_555 1_555
C100B C99B 1_555 1_555
H76B C100B 1_555 1_555
C101B C100B 1_555 1_555
H77B C101B 1_555 1_555
C102B N18B 1_555 1_555
H78B C102B 1_555 1_555
N19B Pd2B 1_555 1_555
C103B N19B 1_555 1_555
H79B C103B 1_555 1_555
C104B C103B 1_555 1_555
H80B C104B 1_555 1_555
C105B C104B 1_555 1_555
C106B C105B 1_555 1_555
H81B C106B 1_555 1_555
C107B N19B 1_555 1_555
H82B C107B 1_555 1_555
C108B H83B 1_555 1_555
C109B C108B 1_555 1_555
H84B C109B 1_555 1_555
C110B C109B 1_555 1_555
C111B C110B 1_555 1_555
H85B C111B 1_555 1_555
C112B C111B 1_555 1_555
H86B C112B 1_555 1_555
C113B C105B 1_555 1_555
N20B Pd2B 1_555 1_555
C114B N20B 1_555 1_555
H87B C114B 1_555 1_555
C115B C114B 1_555 1_555
H88B C115B 1_555 1_555
C116B C115B 1_555 1_555
C117B C116B 1_555 1_555
H89B C117B 1_555 1_555
C118B N20B 1_555 1_555
H90B C118B 1_555 1_555
C119B C116B 1_555 1_555
C120B C119B 1_555 1_555
H91B C120B 1_555 1_555
C121B C120B 1_555 1_555
H92B C121B 1_555 1_555
C122B C121B 1_555 1_555
C123B C122B 1_555 1_555
H93B C123B 1_555 1_555
C124B C119B 1_555 1_555
H94B C124B 1_555 1_555
N21B Fe4 1_555 1_555
C125B N21B 1_555 1_555
H95B C125B 1_555 1_555
C126B C125B 1_555 1_555
H96B C126B 1_555 1_555
C127B C126B 1_555 1_555
H97B C127B 1_555 1_555
C128B C127B 1_555 1_555
H98B C128B 1_555 1_555
C129B N21B 1_555 1_555
C130B C129B 1_555 1_555
H99B C130B 1_555 1_555
N22B Fe4 1_555 1_555
N23B Fe3A 1_555 1_555
C131B N23B 1_555 1_555
H100B C131B 1_555 1_555
C132B C131B 1_555 1_555
H101B C132B 1_555 1_555
C133B C132B 1_555 1_555
H102B C133B 1_555 1_555
C134B C133B 1_555 1_555
H103B C134B 1_555 1_555
C135B N23B 1_555 1_555
C136B C135B 1_555 1_555
H104B C136B 1_555 1_555
N24B Fe3A 1_555 1_555
F22A B6 1_555 1_555
F22B B6 1_555 1_555
F24A B7 1_555 1_555
F24B B7 1_555 1_555
F26A B8 1_555 1_555
F26B B8 1_555 1_555
F28A B9 1_555 1_555
F28B B9 1_555 1_555
C4 C5 1_555 1_555
C10 C11 1_555 1_555
N7 C13 1_555 1_555
C16 C17 1_555 1_555
C21 C22 1_555 1_555
C27 C28 1_555 1_555
N9 Fe1A 1_555 1_555
C33 C34 1_555 1_555
C38 C39 1_555 1_555
C44 C45 1_555 1_555
N11 C47 1_555 1_555
C50 C51 1_555 1_555
C55 C56 1_555 1_555
C61 C62 1_555 1_555
N13 C64 1_555 1_555
C67 C68 1_555 1_555
C72 C73 1_555 1_555
C77 N16 1_555 1_555
C78 C79 1_555 1_555
C83 C84 1_555 1_555
C85 N16 1_555 1_555
C89 C90 1_555 1_555
C93 C94 1_555 1_555
C95 C96 1_555 1_555
N18 C98 1_555 1_555
C101 C102 1_555 1_555
C106 C107 1_555 1_555
C108 C113 1_555 1_555
C110 N22 1_555 1_555
C112 C113 1_555 1_555
C117 C118 1_555 1_555
C123 C124 1_555 1_555
C128 C129 1_555 1_555
C130 N22 1_555 1_555
C134 C135 1_555 1_555
C136 N24 1_555 1_555
N24 Fe3B 1_555 1_555
C4A C5A 1_555 1_555
C10A C11A 1_555 1_555
N7A C13A 1_555 1_555
C16A C17A 1_555 1_555
C21A C22A 1_555 1_555
C27A C28A 1_555 1_555
N9A Fe1B 1_555 1_555
C33A C34A 1_555 1_555
C38A C39A 1_555 1_555
C42A C43A 1_555 1_555
C44A C45A 1_555 1_555
N11A C47A 1_555 1_555
C50A C51A 1_555 1_555
C55A C56A 1_555 1_555
C59A C60A 1_555 1_555
C61A C62A 1_555 1_555
N13A C64A 1_555 1_555
C67A C68A 1_555 1_555
C72A C73A 1_555 1_555
C77A N16A 1_555 1_555
C78A C79A 1_555 1_555
C83A C84A 1_555 1_555
C85A N16A 1_555 1_555
C89A C90A 1_555 1_555
C93A C94A 1_555 1_555
C95A C96A 1_555 1_555
N18A C98A 1_555 1_555
C101A C102A 1_555 1_555
C106A C107A 1_555 1_555
C108A C113A 1_555 1_555
C110A N22A 1_555 1_555
C112A C113A 1_555 1_555
C117A C118A 1_555 1_555
C122A N24A 1_555 1_555
C123A C124A 1_555 1_555
C128A C129A 1_555 1_555
C130A N22A 1_555 1_555
C134A C135A 1_555 1_555
C136A N24A 1_555 1_555
C4B C5B 1_555 1_555
C8B C9B 1_555 1_555
C10B C11B 1_555 1_555
N7B C13B 1_555 1_555
C16B C17B 1_555 1_555
C21B C22B 1_555 1_555
C25B C26B 1_555 1_555
C27B C28B 1_555 1_555
N9B C30B 1_555 1_555
C33B C34B 1_555 1_555
C38B C39B 1_555 1_555
C42B C43B 1_555 1_555
C44B C45B 1_555 1_555
N11B C47B 1_555 1_555
C50B C51B 1_555 1_555
C55B C56B 1_555 1_555
C59B C60B 1_555 1_555
C61B C62B 1_555 1_555
N13B C64B 1_555 1_555
C67B C68B 1_555 1_555
C72B C73B 1_555 1_555
C77B N16B 1_555 1_555
C78B C79B 1_555 1_555
C83B C84B 1_555 1_555
C85B N16B 1_555 1_555
C89B C90B 1_555 1_555
C93B C94B 1_555 1_555
C95B C96B 1_555 1_555
N18B C98B 1_555 1_555
C101B C102B 1_555 1_555
C106B C107B 1_555 1_555
C108B C113B 1_555 1_555
C110B N22B 1_555 1_555
C112B C113B 1_555 1_555
C117B C118B 1_555 1_555
C122B N24B 1_555 1_555
C123B C124B 1_555 1_555
C128B C129B 1_555 1_555
C130B N22B 1_555 1_555
C134B C135B 1_555 1_555
C136B N24B 1_555 1_555

#END
